0:0:0
     RDKit          3D

 94102  0  0  1  0  0  0  0  0999 V2000
  -30.5800  -20.2380   19.9100 C   0  0  0  0  0  2  0  0  0  0  0  0
  -31.1330  -17.2870   22.4280 C   0  0  0  0  0  3  0  0  0  0  0  0
  -30.9590  -17.9630   23.6460 C   0  0  0  0  0  3  0  0  0  0  0  0
  -30.5470  -20.0190   22.4290 C   0  0  0  0  0  3  0  0  0  0  0  0
  -31.0040  -17.9490   21.1780 C   0  0  0  0  0  0  0  0  0  0  0  0
  -30.7250  -19.3670   21.1810 C   0  0  0  0  0  0  0  0  0  0  0  0
  -30.6620  -19.3320   23.6470 C   0  0  0  0  0  0  0  0  0  0  0  0
  -30.4430  -20.1690   25.1400 Cl  0  0  0  0  0  0  0  0  0  0  0  0
  -31.1960  -17.0830   19.9040 C   0  0  0  0  0  2  0  0  0  0  0  0
  -31.5590  -14.5510   19.6990 C   0  0  0  0  0  0  0  0  0  0  0  0
  -31.1540  -12.2790   18.8040 C   0  0  0  0  0  2  0  0  0  0  0  0
  -30.1320  -12.3830   17.6520 C   0  0  0  0  0  2  0  0  0  0  0  0
  -28.6880  -12.3340   18.1940 C   0  0  0  0  0  2  0  0  0  0  0  0
  -28.4620  -13.3020   19.3850 C   0  0  0  0  0  3  0  0  0  0  0  0
  -29.5870  -13.1600   20.4350 C   0  0  0  0  0  2  0  0  0  0  0  0
  -30.8710  -13.3730   19.7480 N   0  0  0  0  0  0  0  0  0  0  0  0
  -32.6760  -14.6480   19.1850 O   0  0  0  0  0  0  0  0  0  0  0  0
  -30.8570  -15.6450   20.0740 N   0  0  0  0  0  0  0  0  0  0  0  0
  -29.9370  -15.4550   20.4400 H   0  0  0  0  0  0  0  0  0  0  0  0
  -26.2220  -14.0860   20.3790 C   0  0  0  0  0  0  0  0  0  0  0  0
  -25.1140  -13.3980   20.7950 C   0  0  0  0  0  0  0  0  0  0  0  0
  -25.4200  -12.0150   20.6160 C   0  0  0  0  0  0  0  0  0  0  0  0
  -27.1380  -13.1260   19.9770 N   0  0  0  0  0  0  0  0  0  0  0  0
  -26.6640  -11.8700   20.1790 N   0  0  0  0  0  0  0  0  0  0  0  0
  -24.5800  -10.8210   20.7830 C   0  0  0  0  0  0  0  0  0  0  0  0
  -24.9170   -9.8040   21.7040 C   0  0  0  0  0  3  0  0  0  0  0  0
  -24.0830   -8.6750   21.8600 C   0  0  0  0  0  3  0  0  0  0  0  0
  -22.9000   -8.5550   21.0940 C   0  0  0  0  0  0  0  0  0  0  0  0
  -22.5800   -9.5590   20.1630 C   0  0  0  0  0  3  0  0  0  0  0  0
  -23.4130  -10.6800   20.0050 C   0  0  0  0  0  3  0  0  0  0  0  0
  -22.0430   -7.4830   21.1610 O   0  0  0  0  0  0  0  0  0  0  0  0
  -21.8280   -6.8050   22.3340 C   0  0  0  0  0  0  0  0  0  0  0  0
  -21.3370   -7.4530   23.4880 C   0  0  0  0  0  3  0  0  0  0  0  0
  -21.0630   -6.7050   24.6510 C   0  0  0  0  0  3  0  0  0  0  0  0
  -21.2710   -5.3130   24.6600 C   0  0  0  0  0  0  0  0  0  0  0  0
  -21.7550   -4.6660   23.5090 C   0  0  0  0  0  3  0  0  0  0  0  0
  -22.0300   -5.4100   22.3490 C   0  0  0  0  0  0  0  0  0  0  0  0
  -22.4760   -4.7790   21.2360 F   0  0  0  0  0  0  0  0  0  0  0  0
  -21.0010   -4.5930   25.7740 F   0  0  0  0  0  0  0  0  0  0  0  0
  -23.8090  -13.9900   21.2400 C   0  0  0  0  0  0  0  0  0  0  0  0
  -23.0990  -13.3100   22.1330 N   0  0  0  0  0  0  0  0  0  0  0  0
  -23.4330  -15.0880   20.8330 O   0  0  0  0  0  0  0  0  0  0  0  0
  -23.4170  -12.4180   22.4840 H   0  0  0  0  0  0  0  0  0  0  0  0
  -22.2250  -13.6870   22.4730 H   0  0  0  0  0  0  0  0  0  0  0  0
  -26.5190  -15.4430   20.2870 N   0  0  0  0  0  0  0  0  0  0  0  0
  -25.8410  -16.1580   20.5250 H   0  0  0  0  0  0  0  0  0  0  0  0
  -27.3720  -15.8240   19.8980 H   0  0  0  0  0  0  0  0  0  0  0  0
  -29.5510  -22.5840   19.7630 C   0  0  0  0  0  0  0  0  0  0  0  0
  -30.5350  -21.7190   20.1140 N   0  0  0  0  0  0  0  0  0  0  0  0
  -28.5020  -22.1800   19.2590 O   0  0  0  0  0  0  0  0  0  0  0  0
  -31.3680  -22.1250   20.5190 H   0  0  0  0  0  0  0  0  0  0  0  0
  -29.7610  -24.1190   19.9800 C   0  0  0  0  0  3  0  0  0  0  0  0
  -28.5120  -25.0140   19.6580 C   0  0  0  0  0  3  0  0  0  0  0  0
  -28.6510  -26.4650   19.7800 O   0  0  0  0  0  0  0  0  0  0  0  0
  -24.7500  -31.5680   22.9650 C   0  0  0  0  0  0  0  0  0  0  0  0
  -27.4770  -27.2220   19.7610 C   0  0  0  0  0  0  0  0  0  0  0  0
  -23.5620  -30.1510   21.3290 C   0  0  0  0  0  3  0  0  0  0  0  0
  -25.0380  -28.6930   19.8420 C   0  0  0  0  0  0  0  0  0  0  0  0
  -26.0760  -30.5900   21.0880 C   0  0  0  0  0  2  0  0  0  0  0  0
  -26.1960  -29.2310   20.4170 C   0  0  0  0  0  0  0  0  0  0  0  0
  -27.4170  -28.5050   20.3720 C   0  0  0  0  0  3  0  0  0  0  0  0
  -26.2940  -26.7280   19.1580 C   0  0  0  0  0  3  0  0  0  0  0  0
  -25.0850  -27.4440   19.2070 C   0  0  0  0  0  3  0  0  0  0  0  0
  -23.7670  -29.5080   19.9320 C   0  0  0  0  0  2  0  0  0  0  0  0
  -24.8150  -30.7850   21.8500 N   0  0  0  0  0  0  0  0  0  0  0  0
  -23.6700  -31.7910   23.5320 O   0  0  0  0  0  0  0  0  0  0  0  0
  -22.9670  -29.0890   22.2840 C   0  0  0  0  0  0  0  0  0  0  0  0
  -21.6550  -28.8310   22.1550 N   0  0  0  0  0  0  0  0  0  0  0  0
  -23.6860  -28.5030   23.0980 O   0  0  0  0  0  0  0  0  0  0  0  0
  -21.1330  -29.3600   21.4700 H   0  0  0  0  0  0  0  0  0  0  0  0
  -18.3650  -27.4050   22.6180 C   0  0  0  0  0  0  0  0  0  0  0  0
  -20.8950  -27.8440   22.9220 C   0  0  0  0  0  3  0  0  0  0  0  0
  -21.1040  -26.4180   22.3610 C   0  0  0  0  0  2  0  0  0  0  0  0
  -20.0430  -26.0120   21.3340 C   0  0  0  0  0  2  0  0  0  0  0  0
  -18.6450  -26.0660   21.9570 C   0  0  0  0  0  2  0  0  0  0  0  0
  -19.4220  -28.2460   23.0570 C   0  0  0  0  0  0  0  0  0  0  0  0
  -19.1080  -29.4970   23.6340 C   0  0  0  0  0  3  0  0  0  0  0  0
  -17.7690  -29.9070   23.7770 C   0  0  0  0  0  3  0  0  0  0  0  0
  -16.7270  -29.0640   23.3550 C   0  0  0  0  0  3  0  0  0  0  0  0
  -17.0250  -27.8150   22.7810 C   0  0  0  0  0  3  0  0  0  0  0  0
  -26.0230  -32.2390   23.5680 C   0  0  0  0  0  3  0  0  0  0  0  0
  -25.6490  -33.5950   23.9930 N   0  0  0  0  0  0  0  0  0  0  0  0
  -25.9270  -34.7120   23.3070 C   0  0  0  0  0  0  0  0  0  0  0  0
  -26.5950  -34.7100   22.2690 O   0  0  0  0  0  0  0  0  0  0  0  0
  -25.0540  -33.6670   24.8050 H   0  0  0  0  0  0  0  0  0  0  0  0
  -24.1180  -36.4440   23.0740 C   0  0  0  0  0  1  0  0  0  0  0  0
  -25.3770  -36.0410   23.8580 C   0  0  0  0  0  3  0  0  0  0  0  0
  -27.4660  -36.9630   24.7590 C   0  0  0  0  0  1  0  0  0  0  0  0
  -26.3610  -37.1450   23.8230 N   0  0  0  0  0  0  0  0  0  0  0  0
  -25.9120  -38.0340   24.0300 H   0  0  0  0  0  0  0  0  0  0  0  0
  -26.6420  -31.4290   24.7710 C   0  0  1  0  0  0  0  0  0  0  0  0
  -25.6130  -31.0530   25.8630 C   0  0  0  0  0  1  0  0  0  0  0  0
  -27.2940  -30.1190   24.2690 C   0  0  0  0  0  1  0  0  0  0  0  0
  -27.7650  -32.2560   25.4390 C   0  0  0  0  0  1  0  0  0  0  0  0
  1 49  1  0
  1  6  1  0
  2  3  1  0
  3  7  2  0
  4  7  1  0
  5  6  1  0
  5  2  2  0
  6  4  2  0
  7  8  1  0
  9 18  1  0
  9  5  1  0
 10 16  1  0
 10 18  1  0
 11 16  1  0
 12 13  1  0
 12 11  1  0
 14 13  1  0
 14 23  1  0
 14 15  1  0
 16 15  1  0
 17 10  2  0
 18 19  1  0
 20 21  2  0
 21 40  1  0
 22 25  1  0
 22 21  1  0
 23 24  1  0
 23 20  1  0
 24 22  2  0
 25 26  1  0
 26 27  2  0
 28 31  1  0
 28 27  1  0
 29 28  2  0
 30 29  1  0
 30 25  2  0
 31 32  1  0
 32 37  2  0
 32 33  1  0
 33 34  2  0
 34 35  1  0
 35 39  1  0
 36 35  2  0
 37 36  1  0
 38 37  1  0
 40 41  1  0
 41 44  1  0
 41 43  1  0
 42 40  2  0
 45 20  1  0
 45 46  1  0
 47 45  1  0
 48 52  1  0
 48 49  1  0
 49 51  1  0
 50 48  2  0
 53 54  1  0
 53 52  2  0
 55 66  2  0
 56 54  1  0
 56 61  1  0
 57 65  1  0
 57 67  1  0
 58 64  1  0
 58 60  1  0
 59 65  1  0
 60 59  1  0
 61 60  2  0
 62 63  1  0
 62 56  2  0
 63 58  2  0
 64 57  1  0
 65 55  1  0
 67 69  2  0
 68 67  1  0
 70 68  1  0
 71 80  2  0
 71 76  1  0
 72 68  1  0
 72 76  1  0
 73 72  1  0
 74 75  1  0
 74 73  1  0
 75 71  1  0
 76 77  2  0
 77 78  1  0
 79 78  2  0
 80 79  1  0
 81 55  1  0
 81 82  1  0
 81 91  1  0
 82 85  1  0
 83 87  1  0
 83 82  1  0
 84 83  2  0
 87 86  1  0
 89 87  1  0
 89 90  1  0
 89 88  1  0
 91 94  1  1
 91 92  1  0
 93 91  1  0
M  ISO  4  10 100  18 100  53 101  54 101
M  END
>  <TORSDO>  (1) 
F 21

>  <SCORE>  (1) 
-10.017

>  <name>  (1) 
0

>  <ligand_id>  (1) 
0

>  <original_smiles>  (1) 
[H]c1c([H])c([H])c2c(c1[H])C([H])([H])C([H])([H])C([H])([H])C2([H])N([H])C(=O)C1([H])N(C(=O)C([H])(N([H])C(=O)C([H])(N([H])C([H])([H])[H])C([H])([H])[H])C(C([H])([H])[H])(C([H])([H])[H])C([H])([H])[H])C([H])([H])c2c([H])c(OC([H])([H])C([H])([H])C(=O)N([H])C([H])([H])c3c([H])c(Cl)c([H])c([H])c3C([H])([H])N([H])C(=O)N3C([H])([H])C([H])([H])C([H])([H])C([H])(n4nc(-c5c([H])c([H])c(Oc6c([H])c([H])c(F)c([H])c6F)c([H])c5[H])c(C(=O)N([H])[H])c4N([H])[H])C3([H])[H])c([H])c([H])c2C1([H])[H]

>  <smiles>  (1) 
[H]c1c([H])c([H])c2c(c1[H])C([H])([H])C([H])([H])C([H])([H])C2([H])N([H])C(=O)C1([H])N(C(=O)C([H])(N([H])C(=O)C([H])(N([H])C([H])([H])[H])C([H])([H])[H])C(C([H])([H])[H])(C([H])([H])[H])C([H])([H])[H])C([H])([H])c2c([H])c(OC([H])([H])C([H])([H])C(=O)N([H])C([H])([H])c3c([H])c(Cl)c([H])c([H])c3C([H])([H])N([H])C(=O)N3C([H])([H])C([H])([H])C([H])([H])C([H])(n4nc(-c5c([H])c([H])c(Oc6c([H])c([H])c(F)c([H])c6F)c([H])c5[H])c(C(=O)N([H])[H])c4N([H])[H])C3([H])[H])c([H])c([H])c2C1([H])[H]

$$$$
1:0:0
     RDKit          3D

 96105  0  0  1  0  0  0  0  0999 V2000
  -32.2510  -24.4310   20.5680 C   0  0  0  0  0  2  0  0  0  0  0  0
  -32.1670  -23.0650   21.2220 C   0  0  0  0  0  2  0  0  0  0  0  0
  -30.8310  -24.9830   20.4470 C   0  0  0  0  0  2  0  0  0  0  0  0
  -31.3410  -22.1310   20.3360 C   0  0  0  0  0  2  0  0  0  0  0  0
  -29.8510  -24.0900   19.6320 C   0  0  0  0  0  3  0  0  0  0  0  0
  -29.9390  -22.5890   20.0630 N   0  0  1  0  0  4  0  0  0  0  0  0
  -29.4770  -22.5300   20.9600 H   0  0  0  0  0  0  0  0  0  0  0  0
  -29.2630  -21.5270   19.1950 C   0  0  0  0  0  2  0  0  0  0  0  0
  -30.2820  -17.7100   18.5060 C   0  0  0  0  0  3  0  0  0  0  0  0
  -29.4660  -19.3300   20.6350 C   0  0  0  0  0  3  0  0  0  0  0  0
  -30.0300  -19.1120   18.3070 C   0  0  0  0  0  0  0  0  0  0  0  0
  -29.6220  -19.9770   19.3780 C   0  0  0  0  0  0  0  0  0  0  0  0
  -30.0960  -17.0710   19.7620 C   0  0  0  0  0  0  0  0  0  0  0  0
  -29.6760  -17.9290   20.8190 C   0  0  0  0  0  0  0  0  0  0  0  0
  -30.1410  -19.6470   16.8890 C   0  0  0  0  0  1  0  0  0  0  0  0
  -29.3730  -17.2570   22.3820 Cl  0  0  0  0  0  0  0  0  0  0  0  0
  -30.8470  -14.5840   19.4030 C   0  0  0  0  0  0  0  0  0  0  0  0
  -30.5130  -12.3240   18.4080 C   0  0  0  0  0  2  0  0  0  0  0  0
  -29.4200  -12.4370   17.3200 C   0  0  0  0  0  2  0  0  0  0  0  0
  -28.0150  -12.2880   17.9340 C   0  0  0  0  0  2  0  0  0  0  0  0
  -27.8210  -13.1810   19.1860 C   0  0  0  0  0  3  0  0  0  0  0  0
  -29.0050  -13.0210   20.1660 C   0  0  0  0  0  2  0  0  0  0  0  0
  -30.2390  -13.3530   19.4350 N   0  0  0  0  0  0  0  0  0  0  0  0
  -31.9150  -14.7480   18.8060 O   0  0  0  0  0  0  0  0  0  0  0  0
  -30.1640  -15.6180   19.9950 N   0  0  0  0  0  0  0  0  0  0  0  0
  -29.4820  -15.2970   20.6660 H   0  0  0  0  0  0  0  0  0  0  0  0
  -25.5740  -13.8430   20.2480 C   0  0  0  0  0  0  0  0  0  0  0  0
  -24.5340  -13.0950   20.7330 C   0  0  0  0  0  0  0  0  0  0  0  0
  -24.9270  -11.7300   20.5860 C   0  0  0  0  0  0  0  0  0  0  0  0
  -26.5370  -12.9330   19.8360 N   0  0  0  0  0  0  0  0  0  0  0  0
  -26.1600  -11.6550   20.0990 N   0  0  0  0  0  0  0  0  0  0  0  0
  -24.1790  -10.4890   20.8270 C   0  0  0  0  0  0  0  0  0  0  0  0
  -24.6340   -9.5180   21.7460 C   0  0  0  0  0  3  0  0  0  0  0  0
  -23.8870   -8.3440   21.9730 C   0  0  0  0  0  3  0  0  0  0  0  0
  -22.6700   -8.1310   21.2810 C   0  0  0  0  0  0  0  0  0  0  0  0
  -22.2330   -9.0900   20.3520 C   0  0  0  0  0  3  0  0  0  0  0  0
  -22.9800  -10.2570   20.1220 C   0  0  0  0  0  3  0  0  0  0  0  0
  -21.8930   -7.0060   21.4170 O   0  0  0  0  0  0  0  0  0  0  0  0
  -21.8060   -6.3290   22.6090 C   0  0  0  0  0  0  0  0  0  0  0  0
  -21.3770   -6.9640   23.7950 C   0  0  0  0  0  3  0  0  0  0  0  0
  -21.2350   -6.2180   24.9800 C   0  0  0  0  0  3  0  0  0  0  0  0
  -21.5120   -4.8380   24.9830 C   0  0  0  0  0  0  0  0  0  0  0  0
  -21.9340   -4.2030   23.8010 C   0  0  0  0  0  3  0  0  0  0  0  0
  -22.0770   -4.9470   22.6170 C   0  0  0  0  0  0  0  0  0  0  0  0
  -22.4660   -4.3260   21.4760 F   0  0  0  0  0  0  0  0  0  0  0  0
  -21.3670   -4.1180   26.1210 F   0  0  0  0  0  0  0  0  0  0  0  0
  -23.2090  -13.6150   21.2120 C   0  0  0  0  0  0  0  0  0  0  0  0
  -22.5860  -12.9300   22.1630 N   0  0  0  0  0  0  0  0  0  0  0  0
  -22.7390  -14.6650   20.7750 O   0  0  0  0  0  0  0  0  0  0  0  0
  -22.9820  -12.0810   22.5420 H   0  0  0  0  0  0  0  0  0  0  0  0
  -21.7050  -13.2650   22.5270 H   0  0  0  0  0  0  0  0  0  0  0  0
  -25.7740  -15.2130   20.1070 N   0  0  0  0  0  0  0  0  0  0  0  0
  -25.0670  -15.8910   20.3720 H   0  0  0  0  0  0  0  0  0  0  0  0
  -26.5830  -15.6320   19.6660 H   0  0  0  0  0  0  0  0  0  0  0  0
  -28.4360  -24.8650   19.6780 C   0  0  0  0  0  2  0  0  0  0  0  0
  -28.4830  -26.3630   19.6440 O   0  0  0  0  0  0  0  0  0  0  0  0
  -24.5320  -31.4830   22.9060 C   0  0  0  0  0  0  0  0  0  0  0  0
  -27.3060  -27.1350   19.6730 C   0  0  0  0  0  0  0  0  0  0  0  0
  -23.3730  -30.1040   21.2160 C   0  0  0  0  0  3  0  0  0  0  0  0
  -24.8730  -28.6540   19.7340 C   0  0  0  0  0  0  0  0  0  0  0  0
  -25.8970  -30.5230   21.0340 C   0  0  0  0  0  2  0  0  0  0  0  0
  -26.0260  -29.1700   20.3380 C   0  0  0  0  0  0  0  0  0  0  0  0
  -27.2440  -28.4250   20.2930 C   0  0  0  0  0  3  0  0  0  0  0  0
  -26.1210  -26.6670   19.0590 C   0  0  0  0  0  3  0  0  0  0  0  0
  -24.9230  -27.4100   19.0870 C   0  0  0  0  0  3  0  0  0  0  0  0
  -23.6060  -29.4850   19.8130 C   0  0  0  0  0  2  0  0  0  0  0  0
  -24.6190  -30.7200   21.7760 N   0  0  0  0  0  0  0  0  0  0  0  0
  -23.4420  -31.6990   23.4550 O   0  0  0  0  0  0  0  0  0  0  0  0
  -22.7480  -29.0310   22.1410 C   0  0  0  0  0  0  0  0  0  0  0  0
  -21.4210  -28.8460   22.0450 N   0  0  0  0  0  0  0  0  0  0  0  0
  -23.4580  -28.3690   22.9030 O   0  0  0  0  0  0  0  0  0  0  0  0
  -20.9080  -29.4290   21.3980 H   0  0  0  0  0  0  0  0  0  0  0  0
  -18.0670  -27.6180   22.6160 C   0  0  0  0  0  0  0  0  0  0  0  0
  -20.6360  -27.8600   22.7890 C   0  0  0  0  0  3  0  0  0  0  0  0
  -20.7100  -26.4720   22.1140 C   0  0  0  0  0  2  0  0  0  0  0  0
  -19.5620  -26.2170   21.1320 C   0  0  0  0  0  2  0  0  0  0  0  0
  -18.2100  -26.3180   21.8430 C   0  0  0  0  0  2  0  0  0  0  0  0
  -19.2060  -28.3500   23.0460 C   0  0  0  0  0  0  0  0  0  0  0  0
  -19.0170  -29.5680   23.7330 C   0  0  0  0  0  3  0  0  0  0  0  0
  -17.7230  -30.0560   23.9940 C   0  0  0  0  0  3  0  0  0  0  0  0
  -16.5990  -29.3210   23.5770 C   0  0  0  0  0  3  0  0  0  0  0  0
  -16.7710  -28.1040   22.8940 C   0  0  0  0  0  3  0  0  0  0  0  0
  -25.7940  -32.1360   23.5490 C   0  0  0  0  0  3  0  0  0  0  0  0
  -26.3510  -31.3250   24.7840 C   0  0  1  0  0  0  0  0  0  0  0  0
  -25.2790  -31.0070   25.8520 C   0  0  0  0  0  1  0  0  0  0  0  0
  -26.9730  -29.9870   24.3220 C   0  0  0  0  0  1  0  0  0  0  0  0
  -27.4840  -32.1260   25.4660 C   0  0  0  0  0  1  0  0  0  0  0  0
  -25.4320  -33.5010   23.9530 N   0  0  0  0  0  0  0  0  0  0  0  0
  -25.7240  -34.6050   23.2540 C   0  0  0  0  0  0  0  0  0  0  0  0
  -26.3980  -34.5810   22.2200 O   0  0  0  0  0  0  0  0  0  0  0  0
  -24.8310  -33.5910   24.7600 H   0  0  0  0  0  0  0  0  0  0  0  0
  -23.9270  -36.3460   22.9960 C   0  0  0  0  0  1  0  0  0  0  0  0
  -25.1850  -35.9470   23.7840 C   0  0  0  0  0  3  0  0  0  0  0  0
  -27.2850  -36.8690   24.6600 C   0  0  0  0  0  1  0  0  0  0  0  0
  -26.1760  -37.0450   23.7250 N   0  0  0  0  0  0  0  0  0  0  0  0
  -25.7360  -37.9380   23.9210 H   0  0  0  0  0  0  0  0  0  0  0  0
  1  2  1  0
  3  1  1  0
  4  2  1  0
  5 55  1  0
  5  6  1  0
  5  3  1  0
  6  4  1  0
  6  7  1  1
  8 12  1  0
  8  6  1  0
  9 13  1  0
 10 14  1  0
 11  9  2  0
 11 12  1  0
 12 10  2  0
 13 25  1  0
 13 14  2  0
 14 16  1  0
 15 11  1  0
 17 23  1  0
 17 25  1  0
 18 23  1  0
 19 20  1  0
 19 18  1  0
 21 20  1  0
 21 30  1  0
 21 22  1  0
 23 22  1  0
 24 17  2  0
 25 26  1  0
 27 28  2  0
 28 47  1  0
 29 28  1  0
 29 32  1  0
 30 31  1  0
 30 27  1  0
 31 29  2  0
 32 33  1  0
 33 34  2  0
 35 38  1  0
 35 34  1  0
 36 35  2  0
 37 36  1  0
 37 32  2  0
 38 39  1  0
 39 44  2  0
 39 40  1  0
 40 41  2  0
 41 42  1  0
 42 46  1  0
 43 42  2  0
 44 43  1  0
 45 44  1  0
 47 48  1  0
 48 51  1  0
 48 50  1  0
 49 47  2  0
 52 27  1  0
 52 53  1  0
 54 52  1  0
 56 58  1  0
 56 55  1  0
 57 68  2  0
 58 63  1  0
 59 67  1  0
 59 69  1  0
 60 66  1  0
 60 62  1  0
 61 67  1  0
 62 61  1  0
 63 62  2  0
 64 65  1  0
 64 58  2  0
 65 60  2  0
 66 59  1  0
 67 57  1  0
 69 71  2  0
 70 69  1  0
 72 70  1  0
 73 82  2  0
 73 78  1  0
 74 70  1  0
 74 78  1  0
 75 74  1  0
 76 77  1  0
 76 75  1  0
 77 73  1  0
 78 79  2  0
 79 80  1  0
 81 80  2  0
 82 81  1  0
 83 57  1  0
 83 88  1  0
 83 84  1  0
 84 87  1  1
 84 85  1  0
 86 84  1  0
 88 91  1  0
 89 93  1  0
 89 88  1  0
 90 89  2  0
 93 92  1  0
 95 93  1  0
 95 96  1  0
 95 94  1  0
M  ISO  4  17 100  25 100  55 101  56 101
M  END
>  <TORSDO>  (2) 
F 19

>  <SCORE>  (2) 
-10.904

>  <name>  (2) 
1

>  <ligand_id>  (2) 
1

>  <original_smiles>  (2) 
[H]c1c([H])c([H])c2c(c1[H])C([H])([H])C([H])([H])C([H])([H])C2([H])N([H])C(=O)C1([H])N(C(=O)C([H])(N([H])C(=O)C([H])(N([H])C([H])([H])[H])C([H])([H])[H])C(C([H])([H])[H])(C([H])([H])[H])C([H])([H])[H])C([H])([H])c2c([H])c(OC([H])([H])C3([H])C([H])([H])C([H])([H])C([H])([H])C([H])([H])[N+]3([H])C([H])([H])c3c([H])c(Cl)c(N([H])C(=O)N4C([H])([H])C([H])([H])C([H])([H])C([H])(n5nc(-c6c([H])c([H])c(Oc7c([H])c([H])c(F)c([H])c7F)c([H])c6[H])c(C(=O)N([H])[H])c5N([H])[H])C4([H])[H])c([H])c3C([H])([H])[H])c([H])c([H])c2C1([H])[H]

>  <smiles>  (2) 
[H]c1c([H])c([H])c2c(c1[H])C([H])([H])C([H])([H])C([H])([H])C2([H])N([H])C(=O)C1([H])N(C(=O)C([H])(N([H])C(=O)C([H])(N([H])C([H])([H])[H])C([H])([H])[H])C(C([H])([H])[H])(C([H])([H])[H])C([H])([H])[H])C([H])([H])c2c([H])c(OC([H])([H])C3([H])C([H])([H])C([H])([H])C([H])([H])C([H])([H])[N+]3([H])C([H])([H])c3c([H])c(Cl)c(N([H])C(=O)N4C([H])([H])C([H])([H])C([H])([H])C([H])(n5nc(-c6c([H])c([H])c(Oc7c([H])c([H])c(F)c([H])c7F)c([H])c6[H])c(C(=O)N([H])[H])c5N([H])[H])C4([H])[H])c([H])c3C([H])([H])[H])c([H])c([H])c2C1([H])[H]

$$$$
2:0:0
     RDKit          3D

 95103  0  0  1  0  0  0  0  0999 V2000
  -28.8220  -17.6970   19.4080 C   0  0  0  0  0  3  0  0  0  0  0  0
  -29.6840  -18.0160   20.4750 C   0  0  0  0  0  0  0  0  0  0  0  0
  -29.6790  -19.3590   20.9750 C   0  0  0  0  0  0  0  0  0  0  0  0
  -28.7850  -20.3530   20.4390 C   0  0  0  0  0  0  0  0  0  0  0  0
  -27.9190  -19.9780   19.3670 C   0  0  0  0  0  0  0  0  0  0  0  0
  -27.9640  -18.6590   18.8520 C   0  0  0  0  0  0  0  0  0  0  0  0
  -30.6230  -19.7150   22.1200 C   0  0  0  0  0  1  0  0  0  0  0  0
  -26.9320  -20.9690   18.7450 C   0  0  0  0  0  1  0  0  0  0  0  0
  -26.9570  -18.1750   17.5300 Cl  0  0  0  0  0  0  0  0  0  0  0  0
  -30.6250  -16.9140   21.0350 C   0  0  0  0  0  2  0  0  0  0  0  0
  -30.8970  -14.5270   20.1930 C   0  0  0  0  0  0  0  0  0  0  0  0
  -30.5220  -12.4300   18.9330 C   0  0  0  0  0  2  0  0  0  0  0  0
  -29.5260  -12.6970   17.7870 C   0  0  0  0  0  2  0  0  0  0  0  0
  -28.0700  -12.5810   18.2790 C   0  0  0  0  0  2  0  0  0  0  0  0
  -27.8130  -13.3660   19.5940 C   0  0  0  0  0  3  0  0  0  0  0  0
  -28.9070  -13.0510   20.6360 C   0  0  0  0  0  2  0  0  0  0  0  0
  -30.2100  -13.3630   20.0290 N   0  0  0  0  0  0  0  0  0  0  0  0
  -32.0070  -14.7220   19.6890 O   0  0  0  0  0  0  0  0  0  0  0  0
  -30.2130  -15.5100   20.8170 N   0  0  0  0  0  0  0  0  0  0  0  0
  -29.3150  -15.2560   21.1980 H   0  0  0  0  0  0  0  0  0  0  0  0
  -25.4560  -14.0090   20.4050 C   0  0  0  0  0  0  0  0  0  0  0  0
  -24.3860  -13.2490   20.8010 C   0  0  0  0  0  0  0  0  0  0  0  0
  -24.8200  -11.8890   20.7310 C   0  0  0  0  0  0  0  0  0  0  0  0
  -26.4740  -13.1100   20.1180 N   0  0  0  0  0  0  0  0  0  0  0  0
  -26.0960  -11.8320   20.3750 N   0  0  0  0  0  0  0  0  0  0  0  0
  -24.0790  -10.6340   20.9290 C   0  0  0  0  0  0  0  0  0  0  0  0
  -24.5100   -9.6640   21.8600 C   0  0  0  0  0  3  0  0  0  0  0  0
  -23.7760   -8.4720   22.0470 C   0  0  0  0  0  3  0  0  0  0  0  0
  -22.5950   -8.2440   21.3000 C   0  0  0  0  0  0  0  0  0  0  0  0
  -22.1820   -9.2030   20.3570 C   0  0  0  0  0  3  0  0  0  0  0  0
  -22.9190  -10.3850   20.1700 C   0  0  0  0  0  3  0  0  0  0  0  0
  -21.8290   -7.1090   21.3960 O   0  0  0  0  0  0  0  0  0  0  0  0
  -21.7560   -6.3860   22.5600 C   0  0  0  0  0  0  0  0  0  0  0  0
  -21.2930   -6.9590   23.7650 C   0  0  0  0  0  3  0  0  0  0  0  0
  -21.1690   -6.1620   24.9200 C   0  0  0  0  0  3  0  0  0  0  0  0
  -21.4970   -4.7930   24.8700 C   0  0  0  0  0  0  0  0  0  0  0  0
  -21.9550   -4.2210   23.6710 C   0  0  0  0  0  3  0  0  0  0  0  0
  -22.0820   -5.0160   22.5180 C   0  0  0  0  0  0  0  0  0  0  0  0
  -22.5020   -4.4560   21.3580 F   0  0  0  0  0  0  0  0  0  0  0  0
  -21.3700   -4.0240   25.9780 F   0  0  0  0  0  0  0  0  0  0  0  0
  -23.0060  -13.7440   21.1260 C   0  0  0  0  0  0  0  0  0  0  0  0
  -22.2960  -13.0530   22.0140 N   0  0  0  0  0  0  0  0  0  0  0  0
  -22.5630  -14.7780   20.6290 O   0  0  0  0  0  0  0  0  0  0  0  0
  -22.6620  -12.2150   22.4400 H   0  0  0  0  0  0  0  0  0  0  0  0
  -21.3740  -13.3730   22.2750 H   0  0  0  0  0  0  0  0  0  0  0  0
  -25.6430  -15.3780   20.2480 N   0  0  0  0  0  0  0  0  0  0  0  0
  -24.9070  -16.0540   20.4230 H   0  0  0  0  0  0  0  0  0  0  0  0
  -26.4920  -15.8050   19.9010 H   0  0  0  0  0  0  0  0  0  0  0  0
  -28.6760  -21.7850   21.0600 C   0  0  0  0  0  2  0  0  0  0  0  0
  -28.6620  -24.2350   20.5840 C   0  0  0  0  0  0  0  0  0  0  0  0
  -30.1340  -22.7050   19.2490 C   0  0  0  0  0  1  0  0  0  0  0  0
  -29.1220  -22.9780   20.2750 N   0  0  0  0  0  0  0  0  0  0  0  0
  -27.9050  -24.4130   21.5450 O   0  0  0  0  0  0  0  0  0  0  0  0
  -29.0560  -25.4850   19.7260 C   0  0  0  0  0  2  0  0  0  0  0  0
  -28.8030  -26.7660   20.3650 O   0  0  0  0  0  0  0  0  0  0  0  0
  -24.6140  -31.8040   23.1800 C   0  0  0  0  0  0  0  0  0  0  0  0
  -27.5940  -27.4350   20.2540 C   0  0  0  0  0  0  0  0  0  0  0  0
  -23.5550  -30.3470   21.4820 C   0  0  0  0  0  3  0  0  0  0  0  0
  -25.1390  -28.8580   20.1440 C   0  0  0  0  0  0  0  0  0  0  0  0
  -26.0710  -30.8020   21.4110 C   0  0  0  0  0  2  0  0  0  0  0  0
  -26.2460  -29.4290   20.7830 C   0  0  0  0  0  0  0  0  0  0  0  0
  -27.4720  -28.7230   20.8370 C   0  0  0  0  0  3  0  0  0  0  0  0
  -26.4640  -26.8810   19.6140 C   0  0  0  0  0  3  0  0  0  0  0  0
  -25.2430  -27.5820   19.5630 C   0  0  0  0  0  3  0  0  0  0  0  0
  -23.8690  -29.6780   20.1190 C   0  0  0  0  0  2  0  0  0  0  0  0
  -24.7630  -30.9990   22.0840 N   0  0  0  0  0  0  0  0  0  0  0  0
  -23.4960  -32.0310   23.6620 O   0  0  0  0  0  0  0  0  0  0  0  0
  -22.8950  -29.2990   22.4080 C   0  0  0  0  0  0  0  0  0  0  0  0
  -21.5800  -29.0860   22.2330 N   0  0  0  0  0  0  0  0  0  0  0  0
  -23.5640  -28.6820   23.2410 O   0  0  0  0  0  0  0  0  0  0  0  0
  -21.1100  -29.5990   21.5010 H   0  0  0  0  0  0  0  0  0  0  0  0
  -18.2000  -27.9200   22.7360 C   0  0  0  0  0  0  0  0  0  0  0  0
  -20.7640  -28.1370   22.9890 C   0  0  0  0  0  3  0  0  0  0  0  0
  -20.8430  -26.7210   22.3750 C   0  0  0  0  0  2  0  0  0  0  0  0
  -19.7270  -26.4430   21.3650 C   0  0  0  0  0  2  0  0  0  0  0  0
  -18.3510  -26.5920   22.0190 C   0  0  0  0  0  2  0  0  0  0  0  0
  -19.3330  -28.6530   23.1800 C   0  0  0  0  0  0  0  0  0  0  0  0
  -19.1350  -29.9010   23.8120 C   0  0  0  0  0  3  0  0  0  0  0  0
  -17.8360  -30.4090   24.0050 C   0  0  0  0  0  3  0  0  0  0  0  0
  -16.7170  -29.6690   23.5820 C   0  0  0  0  0  3  0  0  0  0  0  0
  -16.9000  -28.4250   22.9540 C   0  0  0  0  0  3  0  0  0  0  0  0
  -25.8390  -32.4910   23.8600 C   0  0  0  0  0  3  0  0  0  0  0  0
  -26.3210  -31.7480   25.1650 C   0  0  1  0  0  0  0  0  0  0  0  0
  -25.1820  -31.4610   26.1710 C   0  0  0  0  0  1  0  0  0  0  0  0
  -26.9900  -30.4010   24.8070 C   0  0  0  0  0  1  0  0  0  0  0  0
  -27.3950  -32.5950   25.8860 C   0  0  0  0  0  1  0  0  0  0  0  0
  -25.4570  -33.8770   24.1650 N   0  0  0  0  0  0  0  0  0  0  0  0
  -25.7750  -34.9370   23.4100 C   0  0  0  0  0  0  0  0  0  0  0  0
  -26.4910  -34.8550   22.4080 O   0  0  0  0  0  0  0  0  0  0  0  0
  -24.8300  -34.0130   24.9450 H   0  0  0  0  0  0  0  0  0  0  0  0
  -23.9900  -36.6490   22.9650 C   0  0  0  0  0  1  0  0  0  0  0  0
  -25.2100  -36.3050   23.8340 C   0  0  0  0  0  3  0  0  0  0  0  0
  -27.2640  -37.2910   24.7490 C   0  0  0  0  0  1  0  0  0  0  0  0
  -26.1990  -37.4010   23.7550 N   0  0  0  0  0  0  0  0  0  0  0  0
  -25.7480  -38.3040   23.8720 H   0  0  0  0  0  0  0  0  0  0  0  0
  1  2  1  0
  2  3  2  0
  2 10  1  0
  3  7  1  0
  4  3  1  0
  4 49  1  0
  5  4  2  0
  6  5  1  0
  6  1  2  0
  8  5  1  0
  9  6  1  0
 11 19  1  0
 12 17  1  0
 13 14  1  0
 13 12  1  0
 15 14  1  0
 15 24  1  0
 15 16  1  0
 17 11  1  0
 17 16  1  0
 18 11  2  0
 19 10  1  0
 19 20  1  0
 21 22  2  0
 22 41  1  0
 23 22  1  0
 23 26  1  0
 24 25  1  0
 24 21  1  0
 25 23  2  0
 26 27  1  0
 27 28  2  0
 29 32  1  0
 29 28  1  0
 30 29  2  0
 31 30  1  0
 31 26  2  0
 32 33  1  0
 33 34  1  0
 34 35  2  0
 36 35  1  0
 36 40  1  0
 37 36  2  0
 38 33  2  0
 38 37  1  0
 39 38  1  0
 41 42  1  0
 42 45  1  0
 42 44  1  0
 43 41  2  0
 46 21  1  0
 46 47  1  0
 48 46  1  0
 50 53  2  0
 51 52  1  0
 52 50  1  0
 52 49  1  0
 54 55  1  0
 54 50  1  0
 56 67  2  0
 57 55  1  0
 57 62  1  0
 58 66  1  0
 58 68  1  0
 59 61  1  0
 60 66  1  0
 61 62  2  0
 61 60  1  0
 63 57  2  0
 64 63  1  0
 64 59  2  0
 65 59  1  0
 65 58  1  0
 66 56  1  0
 68 70  2  0
 69 68  1  0
 71 69  1  0
 72 81  2  0
 72 77  1  0
 73 69  1  0
 73 77  1  0
 74 73  1  0
 75 76  1  0
 75 74  1  0
 76 72  1  0
 77 78  2  0
 78 79  1  0
 80 79  2  0
 81 80  1  0
 82 56  1  0
 82 87  1  0
 82 83  1  0
 83 86  1  1
 83 84  1  0
 85 83  1  0
 87 90  1  0
 88 92  1  0
 88 87  1  0
 89 88  2  0
 92 91  1  0
 94 92  1  0
 94 95  1  0
 94 93  1  0
M  ISO  4  11 100  19 100  54 101  55 101
M  END
>  <TORSDO>  (3) 
F 20

>  <SCORE>  (3) 
-13.292

>  <name>  (3) 
2

>  <ligand_id>  (3) 
2

>  <original_smiles>  (3) 
[H]c1c([H])c([H])c2c(c1[H])C([H])([H])C([H])([H])C([H])([H])C2([H])N([H])C(=O)C1([H])N(C(=O)C([H])(N([H])C(=O)C([H])(N([H])C([H])([H])[H])C([H])([H])[H])C(C([H])([H])[H])(C([H])([H])[H])C([H])([H])[H])C([H])([H])c2c([H])c(OC([H])([H])C(=O)N(C([H])([H])[H])C([H])([H])c3c(C([H])([H])[H])c(Cl)c([H])c(C([H])([H])N([H])C(=O)N4C([H])([H])C([H])([H])C([H])([H])C([H])(n5nc(-c6c([H])c([H])c(Oc7c([H])c([H])c(F)c([H])c7F)c([H])c6[H])c(C(=O)N([H])[H])c5N([H])[H])C4([H])[H])c3C([H])([H])[H])c([H])c([H])c2C1([H])[H]

>  <smiles>  (3) 
[H]c1c([H])c([H])c2c(c1[H])C([H])([H])C([H])([H])C([H])([H])C2([H])N([H])C(=O)C1([H])N(C(=O)C([H])(N([H])C(=O)C([H])(N([H])C([H])([H])[H])C([H])([H])[H])C(C([H])([H])[H])(C([H])([H])[H])C([H])([H])[H])C([H])([H])c2c([H])c(OC([H])([H])C(=O)N(C([H])([H])[H])C([H])([H])c3c(C([H])([H])[H])c(Cl)c([H])c(C([H])([H])N([H])C(=O)N4C([H])([H])C([H])([H])C([H])([H])C([H])(n5nc(-c6c([H])c([H])c(Oc7c([H])c([H])c(F)c([H])c7F)c([H])c6[H])c(C(=O)N([H])[H])c5N([H])[H])C4([H])[H])c3C([H])([H])[H])c([H])c([H])c2C1([H])[H]

$$$$
3:0:0
     RDKit          3D

 94102  0  0  1  0  0  0  0  0999 V2000
  -30.8660  -18.0380   19.8520 C   0  0  0  0  0  3  0  0  0  0  0  0
  -30.7420  -19.4690   19.7700 C   0  0  0  0  0  0  0  0  0  0  0  0
  -28.3720  -19.2870   20.1810 C   0  0  0  0  0  0  0  0  0  0  0  0
  -29.4900  -20.1460   19.9420 C   0  0  0  0  0  0  0  0  0  0  0  0
  -28.5170  -17.8620   20.3380 C   0  0  0  0  0  0  0  0  0  0  0  0
  -29.7670  -17.1900   20.1530 C   0  0  0  0  0  0  0  0  0  0  0  0
  -32.0080  -20.2720   19.5180 C   0  0  0  0  0  1  0  0  0  0  0  0
  -26.9820  -19.9150   20.3150 C   0  0  0  0  0  1  0  0  0  0  0  0
  -27.2890  -17.0550   20.7640 C   0  0  0  0  0  1  0  0  0  0  0  0
  -30.6110  -14.6920   19.7980 C   0  0  0  0  0  0  0  0  0  0  0  0
  -30.3840  -12.4080   18.8070 C   0  0  0  0  0  2  0  0  0  0  0  0
  -29.3810  -12.4900   17.6330 C   0  0  0  0  0  2  0  0  0  0  0  0
  -27.9260  -12.3560   18.1290 C   0  0  0  0  0  2  0  0  0  0  0  0
  -27.6300  -13.2610   19.3540 C   0  0  0  0  0  3  0  0  0  0  0  0
  -28.7340  -13.1130   20.4260 C   0  0  0  0  0  2  0  0  0  0  0  0
  -30.0170  -13.4520   19.7880 N   0  0  0  0  0  0  0  0  0  0  0  0
  -31.7380  -14.8620   19.3220 O   0  0  0  0  0  0  0  0  0  0  0  0
  -29.8090  -15.7160   20.2540 N   0  0  0  0  0  0  0  0  0  0  0  0
  -28.9780  -15.3370   20.6810 H   0  0  0  0  0  0  0  0  0  0  0  0
  -25.2870  -13.9240   20.1740 C   0  0  0  0  0  0  0  0  0  0  0  0
  -24.2230  -13.1840   20.6100 C   0  0  0  0  0  0  0  0  0  0  0  0
  -24.6480  -11.8210   20.5640 C   0  0  0  0  0  0  0  0  0  0  0  0
  -26.2980  -13.0180   19.9020 N   0  0  0  0  0  0  0  0  0  0  0  0
  -25.9200  -11.7460   20.1930 N   0  0  0  0  0  0  0  0  0  0  0  0
  -23.8960  -10.5820   20.7940 C   0  0  0  0  0  0  0  0  0  0  0  0
  -24.3650   -9.5890   21.6830 C   0  0  0  0  0  3  0  0  0  0  0  0
  -23.6160   -8.4140   21.9000 C   0  0  0  0  0  3  0  0  0  0  0  0
  -22.3850   -8.2220   21.2310 C   0  0  0  0  0  0  0  0  0  0  0  0
  -21.9340   -9.2030   20.3300 C   0  0  0  0  0  3  0  0  0  0  0  0
  -22.6830  -10.3700   20.1090 C   0  0  0  0  0  3  0  0  0  0  0  0
  -21.6020   -7.1000   21.3610 O   0  0  0  0  0  0  0  0  0  0  0  0
  -21.6420   -6.3230   22.4910 C   0  0  0  0  0  0  0  0  0  0  0  0
  -21.3860   -6.8590   23.7720 C   0  0  0  0  0  3  0  0  0  0  0  0
  -21.3680   -6.0110   24.8980 C   0  0  0  0  0  3  0  0  0  0  0  0
  -21.5970   -4.6300   24.7460 C   0  0  0  0  0  0  0  0  0  0  0  0
  -21.8460   -4.0950   23.4700 C   0  0  0  0  0  3  0  0  0  0  0  0
  -21.8650   -4.9400   22.3450 C   0  0  0  0  0  0  0  0  0  0  0  0
  -22.0860   -4.4160   21.1150 F   0  0  0  0  0  0  0  0  0  0  0  0
  -21.5720   -3.8150   25.8250 F   0  0  0  0  0  0  0  0  0  0  0  0
  -22.8550  -13.7020   20.9510 C   0  0  0  0  0  0  0  0  0  0  0  0
  -22.1600  -13.0400   21.8690 N   0  0  0  0  0  0  0  0  0  0  0  0
  -22.4140  -14.7300   20.4370 O   0  0  0  0  0  0  0  0  0  0  0  0
  -22.5310  -12.2100   22.3060 H   0  0  0  0  0  0  0  0  0  0  0  0
  -21.2440  -13.3700   22.1400 H   0  0  0  0  0  0  0  0  0  0  0  0
  -25.4660  -15.2850   19.9590 N   0  0  0  0  0  0  0  0  0  0  0  0
  -24.7040  -15.9450   20.0680 H   0  0  0  0  0  0  0  0  0  0  0  0
  -26.2810  -15.6920   19.5160 H   0  0  0  0  0  0  0  0  0  0  0  0
  -29.3530  -21.7400   20.0570 C   0  0  0  0  0  2  0  0  0  0  0  0
  -29.1350  -22.5940   18.8240 N   0  0  0  0  0  4  0  0  0  0  0  0
  -28.7180  -21.9680   18.1540 H   0  0  0  0  0  0  0  0  0  0  0  0
  -30.0410  -22.8310   18.4500 H   0  0  0  0  0  0  0  0  0  0  0  0
  -28.2520  -23.8550   18.8190 C   0  0  0  0  0  2  0  0  0  0  0  0
  -28.6930  -25.1920   19.5720 C   0  0  0  0  0  2  0  0  0  0  0  0
  -28.4520  -26.5520   19.0170 O   0  0  0  0  0  0  0  0  0  0  0  0
  -24.7840  -31.4850   22.8580 C   0  0  0  0  0  0  0  0  0  0  0  0
  -27.2820  -27.2870   19.2460 C   0  0  0  0  0  0  0  0  0  0  0  0
  -23.5020  -30.2230   21.1650 C   0  0  0  0  0  3  0  0  0  0  0  0
  -24.8870  -28.8270   19.5260 C   0  0  0  0  0  0  0  0  0  0  0  0
  -26.0180  -30.6110   20.8610 C   0  0  0  0  0  2  0  0  0  0  0  0
  -26.0800  -29.2960   20.0900 C   0  0  0  0  0  0  0  0  0  0  0  0
  -27.2800  -28.5420   19.9320 C   0  0  0  0  0  3  0  0  0  0  0  0
  -26.0640  -26.8580   18.6810 C   0  0  0  0  0  3  0  0  0  0  0  0
  -24.8800  -27.6140   18.8140 C   0  0  0  0  0  3  0  0  0  0  0  0
  -23.6430  -29.6740   19.7190 C   0  0  0  0  0  2  0  0  0  0  0  0
  -24.7890  -30.7860   21.6860 N   0  0  0  0  0  0  0  0  0  0  0  0
  -23.7320  -31.6900   23.4810 O   0  0  0  0  0  0  0  0  0  0  0  0
  -22.9120  -29.1100   22.0640 C   0  0  0  0  0  0  0  0  0  0  0  0
  -21.5810  -28.9330   22.0110 N   0  0  0  0  0  0  0  0  0  0  0  0
  -23.6480  -28.4140   22.7670 O   0  0  0  0  0  0  0  0  0  0  0  0
  -21.0450  -29.5510   21.4180 H   0  0  0  0  0  0  0  0  0  0  0  0
  -18.2490  -27.6630   22.6200 C   0  0  0  0  0  0  0  0  0  0  0  0
  -20.8200  -27.9140   22.7360 C   0  0  0  0  0  3  0  0  0  0  0  0
  -20.8830  -26.5510   22.0090 C   0  0  0  0  0  2  0  0  0  0  0  0
  -19.7120  -26.3260   21.0470 C   0  0  0  0  0  2  0  0  0  0  0  0
  -18.3790  -26.3920   21.7980 C   0  0  0  0  0  2  0  0  0  0  0  0
  -19.3960  -28.3860   23.0470 C   0  0  0  0  0  0  0  0  0  0  0  0
  -19.2170  -29.5790   23.7790 C   0  0  0  0  0  3  0  0  0  0  0  0
  -17.9270  -30.0500   24.0880 C   0  0  0  0  0  3  0  0  0  0  0  0
  -16.7970  -29.3220   23.6770 C   0  0  0  0  0  3  0  0  0  0  0  0
  -16.9600  -28.1300   22.9490 C   0  0  0  0  0  3  0  0  0  0  0  0
  -26.0940  -32.0790   23.4640 C   0  0  0  0  0  3  0  0  0  0  0  0
  -26.7140  -31.1810   24.6050 C   0  0  1  0  0  0  0  0  0  0  0  0
  -25.7050  -30.8010   25.7140 C   0  0  0  0  0  1  0  0  0  0  0  0
  -27.2890  -29.8710   24.0180 C   0  0  0  0  0  1  0  0  0  0  0  0
  -27.8980  -31.9230   25.2700 C   0  0  0  0  0  1  0  0  0  0  0  0
  -25.7810  -33.4210   23.9740 N   0  0  0  0  0  0  0  0  0  0  0  0
  -26.0590  -34.5640   23.3340 C   0  0  0  0  0  0  0  0  0  0  0  0
  -26.6780  -34.5990   22.2670 O   0  0  0  0  0  0  0  0  0  0  0  0
  -25.2250  -33.4650   24.8160 H   0  0  0  0  0  0  0  0  0  0  0  0
  -24.2860  -36.3470   23.2870 C   0  0  0  0  0  1  0  0  0  0  0  0
  -25.5750  -35.8770   23.9810 C   0  0  0  0  0  3  0  0  0  0  0  0
  -27.7390  -36.7020   24.7970 C   0  0  0  0  0  1  0  0  0  0  0  0
  -26.5830  -36.9580   23.9400 N   0  0  0  0  0  0  0  0  0  0  0  0
  -26.1730  -37.8450   24.2190 H   0  0  0  0  0  0  0  0  0  0  0  0
  1  6  1  0
  2  1  2  0
  2  4  1  0
  3  8  1  0
  3  5  1  0
  4 48  1  0
  4  3  2  0
  5  9  1  0
  6 18  1  0
  6  5  2  0
  7  2  1  0
 10 18  1  0
 11 16  1  0
 12 13  1  0
 12 11  1  0
 14 13  1  0
 14 23  1  0
 14 15  1  0
 16 10  1  0
 16 15  1  0
 17 10  2  0
 18 19  1  0
 20 21  2  0
 21 40  1  0
 22 21  1  0
 22 25  1  0
 23 20  1  0
 23 24  1  0
 24 22  2  0
 25 26  1  0
 26 27  2  0
 28 31  1  0
 28 27  1  0
 29 28  2  0
 30 29  1  0
 30 25  2  0
 31 32  1  0
 32 33  1  0
 33 34  2  0
 35 34  1  0
 35 39  1  0
 36 35  2  0
 37 32  2  0
 37 36  1  0
 38 37  1  0
 40 41  1  0
 41 44  1  0
 41 43  1  0
 42 40  2  0
 45 46  1  0
 45 20  1  0
 47 45  1  0
 49 48  1  0
 50 49  1  0
 51 49  1  0
 52 49  1  0
 52 53  1  0
 54 56  1  0
 54 53  1  0
 55 66  2  0
 56 61  1  0
 57 65  1  0
 57 67  1  0
 58 64  1  0
 58 60  1  0
 59 65  1  0
 60 59  1  0
 61 60  2  0
 62 63  1  0
 62 56  2  0
 63 58  2  0
 64 57  1  0
 65 55  1  0
 67 69  2  0
 68 67  1  0
 70 68  1  0
 71 80  2  0
 71 76  1  0
 72 68  1  0
 72 76  1  0
 73 72  1  0
 74 75  1  0
 74 73  1  0
 75 71  1  0
 76 77  2  0
 77 78  1  0
 79 78  2  0
 80 79  1  0
 81 55  1  0
 81 86  1  0
 81 82  1  0
 82 85  1  1
 82 83  1  0
 84 82  1  0
 86 89  1  0
 87 86  1  0
 87 91  1  0
 88 87  2  0
 91 90  1  0
 93 91  1  0
 93 94  1  0
 93 92  1  0
M  ISO  4  10 100  18 100  53 101  54 101
M  END
>  <TORSDO>  (4) 
F 20

>  <SCORE>  (4) 
-10.966

>  <name>  (4) 
3

>  <ligand_id>  (4) 
3

>  <original_smiles>  (4) 
[H]c1c([H])c([H])c2c(c1[H])C([H])([H])C([H])([H])C([H])([H])C2([H])N([H])C(=O)C1([H])N(C(=O)C([H])(N([H])C(=O)C([H])(N([H])C([H])([H])[H])C([H])([H])[H])C(C([H])([H])[H])(C([H])([H])[H])C([H])([H])[H])C([H])([H])c2c([H])c(OC([H])([H])C([H])([H])[N+]([H])([H])C([H])([H])c3c(C([H])([H])[H])c([H])c(N([H])C(=O)N4C([H])([H])C([H])([H])C([H])([H])C([H])(n5nc(-c6c([H])c([H])c(Oc7c([H])c([H])c(F)c([H])c7F)c([H])c6[H])c(C(=O)N([H])[H])c5N([H])[H])C4([H])[H])c(C([H])([H])[H])c3C([H])([H])[H])c([H])c([H])c2C1([H])[H]

>  <smiles>  (4) 
[H]c1c([H])c([H])c2c(c1[H])C([H])([H])C([H])([H])C([H])([H])C2([H])N([H])C(=O)C1([H])N(C(=O)C([H])(N([H])C(=O)C([H])(N([H])C([H])([H])[H])C([H])([H])[H])C(C([H])([H])[H])(C([H])([H])[H])C([H])([H])[H])C([H])([H])c2c([H])c(OC([H])([H])C([H])([H])[N+]([H])([H])C([H])([H])c3c(C([H])([H])[H])c([H])c(N([H])C(=O)N4C([H])([H])C([H])([H])C([H])([H])C([H])(n5nc(-c6c([H])c([H])c(Oc7c([H])c([H])c(F)c([H])c7F)c([H])c6[H])c(C(=O)N([H])[H])c5N([H])[H])C4([H])[H])c(C([H])([H])[H])c3C([H])([H])[H])c([H])c([H])c2C1([H])[H]

$$$$
4:0:0
     RDKit          3D

 91 89  0  0  1  0  0  0  0  0999 V2000
  -24.2960  -12.1270   21.9520 C   0  0  0  0  0  1  0  0  0  0  0  0
  -23.0940  -12.9100   19.7600 C   0  0  0  0  0  1  0  0  0  0  0  0
  -26.3360  -13.1210   21.9520 C   0  0  0  0  0  1  0  0  0  0  0  0
  -24.0520  -14.7280   18.7550 C   0  0  0  0  0  1  0  0  0  0  0  0
  -25.8840  -15.9840   19.3040 C   0  0  0  0  0 15  0  0  0  0  0  0
  -27.1700  -14.8320   20.7100 C   0  0  0  0  0  1  0  0  0  0  0  0
  -21.6540  -12.5730   19.3820 C   0  0  0  0  0  1  0  0  0  0  0  0
  -27.2760  -12.5580   22.9950 C   0  0  0  0  0  1  0  0  0  0  0  0
  -23.2080  -15.3350   17.6570 C   0  0  0  0  0  1  0  0  0  0  0  0
  -29.7680  -14.2070   19.6690 C   0  0  0  0  0  0  0  0  0  0  0  0
  -30.1040  -11.9320   18.5230 C   0  0  0  0  0  2  0  0  0  0  0  0
  -29.0480  -11.8240   17.3860 C   0  0  0  0  0  2  0  0  0  0  0  0
  -27.5840  -11.7950   17.8810 C   0  0  0  0  0  2  0  0  0  0  0  0
  -27.3180  -12.8610   19.0610 C   0  0  0  0  0  3  0  0  0  0  0  0
  -28.3990  -12.3410   20.0920 C   0  0  0  0  0  2  0  0  0  0  0  0
  -29.6000  -12.8600   19.5640 N   0  0  0  0  0  0  0  0  0  0  0  0
  -30.7700  -14.6450   19.0430 O   0  0  0  0  0  0  0  0  0  0  0  0
  -28.7310  -14.9690   20.3980 N   0  0  0  0  0  0  0  0  0  0  0  0
  -29.0280  -15.9340   20.4440 H   0  0  0  0  0  0  0  0  0  0  0  0
  -25.0600  -14.3530   20.9970 C   0  0  0  0  0  2  0  0  0  0  0  0
  -24.4500  -13.8820   21.2010 C   0  0  0  0  0  2  0  0  0  0  0  0
  -25.1690  -11.9960   20.2140 C   0  0  2  0  0  0  0  0  0  0  0  0
  -25.9170  -13.1310   19.7670 N   0  0  0  0  0  0  0  0  0  0  0  0
  -25.6160  -11.9930   19.2310 N   0  0  0  0  0  2  0  0  0  0  0  0
  -24.3710  -10.2810   20.4500 C   0  0  0  0  0  0  0  0  0  0  0  0
  -24.5750   -9.3090   21.5690 C   0  0  0  0  0  3  0  0  0  0  0  0
  -23.7360   -8.1770   22.0210 C   0  0  0  0  0  3  0  0  0  0  0  0
  -22.4790   -7.8430   21.4400 C   0  0  0  0  0  0  0  0  0  0  0  0
  -22.1710   -8.7490   20.3930 C   0  0  0  0  0  3  0  0  0  0  0  0
  -23.0570   -9.8240   19.9480 C   0  0  0  0  0  3  0  0  0  0  0  0
  -21.6290   -6.7270   21.6910 O   0  0  0  0  0  0  0  0  0  0  0  0
  -21.5090   -5.9760   22.8710 C   0  0  0  0  0  0  0  0  0  0  0  0
  -21.0620   -6.5680   24.0760 C   0  0  0  0  0  3  0  0  0  0  0  0
  -20.8860   -5.8000   25.2520 C   0  0  0  0  0  3  0  0  0  0  0  0
  -21.1430   -4.4170   25.2490 C   0  0  0  0  0  0  0  0  0  0  0  0
  -21.5350   -3.7970   24.0500 C   0  0  0  0  0  3  0  0  0  0  0  0
  -21.6960   -4.5610   22.8720 C   0  0  0  0  0  0  0  0  0  0  0  0
  -22.0300   -3.9060   21.7330 F   0  0  0  0  0  0  0  0  0  0  0  0
  -21.0100   -3.6880   26.3870 F   0  0  0  0  0  0  0  0  0  0  0  0
  -22.9240  -14.2590   21.9200 C   0  0  0  0  0  0  0  0  0  0  0  0
  -22.1880  -13.4150   22.7030 N   0  0  0  0  0  0  0  0  0  0  0  0
  -22.2160  -15.0400   21.3110 O   0  0  0  0  0  0  0  0  0  0  0  0
  -22.6210  -12.5980   23.1020 H   0  0  0  0  0  0  0  0  0  0  0  0
  -21.2260  -13.6290   22.9110 H   0  0  0  0  0  0  0  0  0  0  0  0
  -25.1210  -15.5780   21.7570 N   0  0  0  0  0  0  0  0  0  0  0  0
  -24.3120  -16.0100   22.1830 H   0  0  0  0  0  0  0  0  0  0  0  0
  -25.8350  -16.2500   21.5110 H   0  0  0  0  0  0  0  0  0  0  0  0
  -26.2200  -18.4780   19.1380 C   0  0  0  0  0 15  0  0  0  0  0  0
  -25.9270  -20.7020   19.4900 N   0  0  0  0  0  1  0  0  0  0  0  0
  -25.0770  -20.7310   20.0460 H   0  0  0  0  0  0  0  0  0  0  0  0
  -26.6070  -23.1840   19.3830 O   0  0  0  0  0 15  0  0  0  0  0  0
  -24.5040  -31.1630   22.7550 C   0  0  0  0  0  0  0  0  0  0  0  0
  -26.1530  -25.0140   19.5670 C   0  0  0  0  0  3  0  0  0  0  0  0
  -23.2490  -29.8280   21.1490 C   0  0  0  0  0  3  0  0  0  0  0  0
  -24.4900  -27.9750   19.6410 C   0  0  0  0  0  0  0  0  0  0  0  0
  -25.8150  -29.4680   21.0710 C   0  0  0  0  0  2  0  0  0  0  0  0
  -25.6870  -27.9460   20.3460 C   0  0  0  0  0  0  0  0  0  0  0  0
  -26.4770  -26.5280   20.2640 C   0  0  0  0  0  3  0  0  0  0  0  0
  -25.1000  -25.6070   18.7600 C   0  0  0  0  0  3  0  0  0  0  0  0
  -24.3210  -26.8490   18.8080 C   0  0  0  0  0  3  0  0  0  0  0  0
  -23.4410  -29.1350   19.7530 C   0  0  0  0  0  2  0  0  0  0  0  0
  -24.5790  -30.2230   21.7050 N   0  0  0  0  0  0  0  0  0  0  0  0
  -23.4150  -31.5220   23.2510 O   0  0  0  0  0  0  0  0  0  0  0  0
  -22.4860  -28.9020   22.1380 C   0  0  0  0  0  0  0  0  0  0  0  0
  -21.1420  -28.8240   22.0710 N   0  0  0  0  0  0  0  0  0  0  0  0
  -23.1300  -28.2480   22.9600 O   0  0  0  0  0  0  0  0  0  0  0  0
  -20.6560  -29.4050   21.4010 H   0  0  0  0  0  0  0  0  0  0  0  0
  -17.7490  -27.6570   22.7150 C   0  0  0  0  0  0  0  0  0  0  0  0
  -20.3230  -27.8830   22.8540 C   0  0  0  0  0  3  0  0  0  0  0  0
  -20.3700  -26.4670   22.2320 C   0  0  0  0  0  2  0  0  0  0  0  0
  -19.2190  -26.2040   21.2550 C   0  0  0  0  0  2  0  0  0  0  0  0
  -17.8720  -26.3390   21.9690 C   0  0  0  0  0  2  0  0  0  0  0  0
  -18.8980  -28.3910   23.1160 C   0  0  0  0  0  0  0  0  0  0  0  0
  -18.7240  -29.6200   23.7880 C   0  0  0  0  0  3  0  0  0  0  0  0
  -17.4340  -30.1190   24.0530 C   0  0  0  0  0  3  0  0  0  0  0  0
  -16.3000  -29.3840   23.6630 C   0  0  0  0  0  3  0  0  0  0  0  0
  -16.4590  -28.1530   23.0020 C   0  0  0  0  0  3  0  0  0  0  0  0
  -25.7470  -31.8560   23.4120 C   0  0  0  0  0  3  0  0  0  0  0  0
  -25.3710  -33.2150   23.9020 N   0  0  0  0  0  0  0  0  0  0  0  0
  -25.6600  -34.3870   23.3140 C   0  0  0  0  0  0  0  0  0  0  0  0
  -26.3000  -34.4490   22.2620 O   0  0  0  0  0  0  0  0  0  0  0  0
  -24.7910  -33.2370   24.7260 H   0  0  0  0  0  0  0  0  0  0  0  0
  -23.8800  -36.1870   23.3130 C   0  0  0  0  0  1  0  0  0  0  0  0
  -25.1740  -35.6980   23.9860 C   0  0  0  0  0  3  0  0  0  0  0  0
  -27.3270  -36.5510   24.8180 C   0  0  0  0  0  1  0  0  0  0  0  0
  -26.1720  -36.7920   23.9590 N   0  0  0  0  0  0  0  0  0  0  0  0
  -25.7490  -37.6730   24.2390 H   0  0  0  0  0  0  0  0  0  0  0  0
  -26.3270  -31.0390   24.6340 C   0  0  1  0  0  0  0  0  0  0  0  0
  -25.2820  -30.7130   25.7290 C   0  0  0  0  0  1  0  0  0  0  0  0
  -26.9350  -29.7030   24.1730 C   0  0  0  0  0  1  0  0  0  0  0  0
  -27.4830  -31.8270   25.2970 C   0  0  0  0  0  1  0  0  0  0  0  0
  3  8  1  0
  7  2  1  0
  9  4  1  0
 10 18  1  0
 11 16  1  0
 12 13  1  0
 12 11  1  0
 14 13  1  0
 14 23  1  0
 14 15  1  0
 16 10  1  0
 16 15  1  0
 17 10  2  0
 18 19  1  0
 18  6  1  0
 20 21  1  0
 20 45  1  0
 21 40  1  0
 22 25  1  0
 22  1  1  6
 23 24  1  0
 23 22  1  0
 24 22  1  0
 25 26  1  0
 26 27  2  0
 28 31  1  0
 28 27  1  0
 29 28  2  0
 30 29  1  0
 30 25  2  0
 31 32  1  0
 32 37  2  0
 32 33  1  0
 33 34  2  0
 35 34  1  0
 35 39  1  0
 36 35  2  0
 37 36  1  0
 38 37  1  0
 40 41  1  0
 41 44  1  0
 41 43  1  0
 42 40  2  0
 45 46  1  0
 47 45  1  0
 49 50  1  0
 52 63  2  0
 53 58  1  0
 54 62  1  0
 54 64  1  0
 55 61  1  0
 55 57  1  0
 56 62  1  0
 57 56  1  0
 58 57  2  0
 59 60  1  0
 59 53  2  0
 60 55  2  0
 61 54  1  0
 62 52  1  0
 64 66  2  0
 65 64  1  0
 67 65  1  0
 68 77  2  0
 68 73  1  0
 69 65  1  0
 69 73  1  0
 70 69  1  0
 71 72  1  0
 71 70  1  0
 72 68  1  0
 73 74  2  0
 74 75  1  0
 76 75  2  0
 77 76  1  0
 78 52  1  0
 78 79  1  0
 78 88  1  0
 79 82  1  0
 80 79  1  0
 80 84  1  0
 81 80  2  0
 84 83  1  0
 86 84  1  0
 86 87  1  0
 86 85  1  0
 88 91  1  1
 88 89  1  0
 90 88  1  0
M  ISO  4  10 100  18 100  49 101  51 101
M  END
>  <TORSDO>  (5) 
F 18

>  <SCORE>  (5) 
9.563

>  <name>  (5) 
4

>  <ligand_id>  (5) 
4

>  <original_smiles>  (5) 
[H]c1c([H])c([H])c2c(c1[H])C([H])([H])C([H])([H])C([H])([H])C2([H])N([H])C(=O)C1([H])N(C(=O)C([H])(N([H])C(=O)C([H])(N([H])C([H])([H])[H])C([H])([H])[H])C(C([H])([H])[H])(C([H])([H])[H])C([H])([H])[H])C([H])([H])c2c([H])c(ON([H])C([H])([H])c3c(N([H])C(=O)N4C([H])([H])C([H])([H])C([H])([H])C([H])(n5nc(-c6c([H])c([H])c(Oc7c([H])c([H])c(F)c([H])c7F)c([H])c6[H])c(C(=O)N([H])[H])c5N([H])[H])C4([H])[H])c(C([H])([H])[H])c([H])c(C([H])([H])[H])c3C([H])([H])[H])c([H])c([H])c2C1([H])[H]

>  <smiles>  (5) 
[H]c1c([H])c([H])c2c(c1[H])C([H])([H])C([H])([H])C([H])([H])C2([H])N([H])C(=O)C1([H])N(C(=O)C([H])(N([H])C(=O)C([H])(N([H])C([H])([H])[H])C([H])([H])[H])C(C([H])([H])[H])(C([H])([H])[H])C([H])([H])[H])C([H])([H])c2c([H])c(ON([H])C([H])([H])c3c(N([H])C(=O)N4C([H])([H])C([H])([H])C([H])([H])C([H])(n5nc(-c6c([H])c([H])c(Oc7c([H])c([H])c(F)c([H])c7F)c([H])c6[H])c(C(=O)N([H])[H])c5N([H])[H])C4([H])[H])c(C([H])([H])[H])c([H])c(C([H])([H])[H])c3C([H])([H])[H])c([H])c([H])c2C1([H])[H]

$$$$
5:0:0
     RDKit          3D

 95104  0  0  1  0  0  0  0  0999 V2000
  -29.2640  -24.9220   21.7650 C   0  0  0  0  0  2  0  0  0  0  0  0
  -30.5450  -24.2080   21.3070 C   0  0  0  0  0  2  0  0  0  0  0  0
  -28.3870  -23.7640   19.6170 C   0  0  0  0  0  2  0  0  0  0  0  0
  -28.2270  -25.0240   20.6310 C   0  0  0  0  0  3  0  0  0  0  0  0
  -30.3030  -22.7130   20.9880 C   0  0  0  0  0  3  0  0  0  0  0  0
  -31.6360  -22.1070   20.4950 C   0  0  0  0  0  1  0  0  0  0  0  0
  -29.1970  -22.4910   19.9990 N   0  0  1  0  0  4  0  0  0  0  0  0
  -29.7100  -22.3530   19.1430 H   0  0  0  0  0  0  0  0  0  0  0  0
  -28.3160  -26.4440   20.1420 O   0  0  0  0  0  0  0  0  0  0  0  0
  -24.5910  -31.8940   23.2370 C   0  0  0  0  0  0  0  0  0  0  0  0
  -27.1950  -27.2990   20.1820 C   0  0  0  0  0  0  0  0  0  0  0  0
  -23.3840  -30.4920   21.6010 C   0  0  0  0  0  3  0  0  0  0  0  0
  -24.8300  -28.9280   20.1830 C   0  0  0  0  0  0  0  0  0  0  0  0
  -25.9230  -30.8080   21.4070 C   0  0  0  0  0  2  0  0  0  0  0  0
  -26.0050  -29.4190   20.7680 C   0  0  0  0  0  0  0  0  0  0  0  0
  -27.1910  -28.6190   20.7500 C   0  0  0  0  0  3  0  0  0  0  0  0
  -25.9920  -26.8640   19.5870 C   0  0  0  0  0  3  0  0  0  0  0  0
  -24.8260  -27.6550   19.5860 C   0  0  0  0  0  3  0  0  0  0  0  0
  -23.5960  -29.8080   20.2250 C   0  0  0  0  0  2  0  0  0  0  0  0
  -24.6520  -31.0820   22.1400 N   0  0  0  0  0  0  0  0  0  0  0  0
  -23.5100  -32.1720   23.7760 O   0  0  0  0  0  0  0  0  0  0  0  0
  -22.7240  -29.4820   22.5690 C   0  0  0  0  0  0  0  0  0  0  0  0
  -21.3960  -29.3040   22.4470 N   0  0  0  0  0  0  0  0  0  0  0  0
  -23.4040  -28.8550   23.3860 O   0  0  0  0  0  0  0  0  0  0  0  0
  -20.9040  -29.8600   21.7620 H   0  0  0  0  0  0  0  0  0  0  0  0
  -18.0220  -28.1050   22.9600 C   0  0  0  0  0  0  0  0  0  0  0  0
  -20.5810  -28.3690   23.2250 C   0  0  0  0  0  3  0  0  0  0  0  0
  -20.6830  -26.9360   22.6530 C   0  0  0  0  0  2  0  0  0  0  0  0
  -19.5790  -26.6090   21.6420 C   0  0  0  0  0  2  0  0  0  0  0  0
  -18.1990  -26.7540   22.2880 C   0  0  0  0  0  2  0  0  0  0  0  0
  -19.1400  -28.8690   23.3880 C   0  0  0  0  0  0  0  0  0  0  0  0
  -18.9200  -30.1320   23.9790 C   0  0  0  0  0  3  0  0  0  0  0  0
  -17.6150  -30.6310   24.1470 C   0  0  0  0  0  3  0  0  0  0  0  0
  -16.5110  -29.8650   23.7340 C   0  0  0  0  0  3  0  0  0  0  0  0
  -16.7150  -28.6040   23.1460 C   0  0  0  0  0  3  0  0  0  0  0  0
  -25.8750  -32.5310   23.8540 C   0  0  0  0  0  3  0  0  0  0  0  0
  -25.5650  -33.9290   24.1800 N   0  0  0  0  0  0  0  0  0  0  0  0
  -25.9060  -34.9800   23.4240 C   0  0  0  0  0  0  0  0  0  0  0  0
  -26.5810  -34.8740   22.3960 O   0  0  0  0  0  0  0  0  0  0  0  0
  -24.9580  -34.0850   24.9700 H   0  0  0  0  0  0  0  0  0  0  0  0
  -24.1900  -36.7830   23.0550 C   0  0  0  0  0  1  0  0  0  0  0  0
  -25.4230  -36.3720   23.8760 C   0  0  0  0  0  3  0  0  0  0  0  0
  -27.5570  -37.2480   24.7230 C   0  0  0  0  0  1  0  0  0  0  0  0
  -26.4630  -37.4210   23.7710 N   0  0  0  0  0  0  0  0  0  0  0  0
  -26.0590  -38.3430   23.9140 H   0  0  0  0  0  0  0  0  0  0  0  0
  -26.3870  -31.7650   25.1360 C   0  0  1  0  0  0  0  0  0  0  0  0
  -25.2910  -31.5360   26.2040 C   0  0  0  0  0  1  0  0  0  0  0  0
  -26.9670  -30.3820   24.7550 C   0  0  0  0  0  1  0  0  0  0  0  0
  -27.5380  -32.5610   25.7950 C   0  0  0  0  0  1  0  0  0  0  0  0
  -28.5000  -21.1120   20.1040 C   0  0  0  0  0  2  0  0  0  0  0  0
  -30.5100  -18.5780   17.8760 C   0  0  0  0  0  3  0  0  0  0  0  0
  -30.5220  -17.3770   18.6100 C   0  0  0  0  0  3  0  0  0  0  0  0
  -29.2390  -18.4910   20.3440 C   0  0  0  0  0  3  0  0  0  0  0  0
  -29.8580  -19.7420   18.3360 C   0  0  0  0  0  0  0  0  0  0  0  0
  -29.2430  -19.7670   19.6220 C   0  0  0  0  0  0  0  0  0  0  0  0
  -29.8690  -17.2640   19.8570 C   0  0  0  0  0  0  0  0  0  0  0  0
  -29.7880  -20.9320   17.3820 C   0  0  0  0  0  1  0  0  0  0  0  0
  -30.5700  -14.7820   20.3310 C   0  0  0  0  0  0  0  0  0  0  0  0
  -30.3980  -12.4730   19.4110 C   0  0  0  0  0  2  0  0  0  0  0  0
  -29.4790  -12.5600   18.1750 C   0  0  0  0  0  2  0  0  0  0  0  0
  -28.0060  -12.3800   18.5920 C   0  0  0  0  0  2  0  0  0  0  0  0
  -27.6140  -13.2780   19.7960 C   0  0  0  0  0  3  0  0  0  0  0  0
  -28.6680  -13.2020   20.9250 C   0  0  0  0  0  2  0  0  0  0  0  0
  -29.9680  -13.5450   20.3390 N   0  0  0  0  0  0  0  0  0  0  0  0
  -31.7620  -14.8710   20.0170 O   0  0  0  0  0  0  0  0  0  0  0  0
  -29.7820  -15.9190   20.4970 N   0  0  0  0  0  0  0  0  0  0  0  0
  -28.9030  -15.7350   20.9610 H   0  0  0  0  0  0  0  0  0  0  0  0
  -25.2200  -13.8580   20.5030 C   0  0  0  0  0  0  0  0  0  0  0  0
  -24.1560  -13.0800   20.8710 C   0  0  0  0  0  0  0  0  0  0  0  0
  -24.6290  -11.7330   20.8590 C   0  0  0  0  0  0  0  0  0  0  0  0
  -26.2700  -12.9840   20.2800 N   0  0  0  0  0  0  0  0  0  0  0  0
  -25.9210  -11.7020   20.5610 N   0  0  0  0  0  0  0  0  0  0  0  0
  -23.9090  -10.4700   21.0570 C   0  0  0  0  0  0  0  0  0  0  0  0
  -24.3380   -9.5090   22.0010 C   0  0  0  0  0  3  0  0  0  0  0  0
  -23.6150   -8.3110   22.1820 C   0  0  0  0  0  3  0  0  0  0  0  0
  -22.4490   -8.0610   21.4190 C   0  0  0  0  0  0  0  0  0  0  0  0
  -22.0400   -9.0080   20.4640 C   0  0  0  0  0  3  0  0  0  0  0  0
  -22.7660  -10.1970   20.2800 C   0  0  0  0  0  3  0  0  0  0  0  0
  -21.6990   -6.9120   21.5090 O   0  0  0  0  0  0  0  0  0  0  0  0
  -21.6450   -6.1740   22.6650 C   0  0  0  0  0  0  0  0  0  0  0  0
  -21.1920   -6.7310   23.8800 C   0  0  0  0  0  3  0  0  0  0  0  0
  -21.0890   -5.9200   25.0280 C   0  0  0  0  0  3  0  0  0  0  0  0
  -21.4260   -4.5560   24.9620 C   0  0  0  0  0  0  0  0  0  0  0  0
  -21.8710   -3.9990   23.7490 C   0  0  0  0  0  3  0  0  0  0  0  0
  -21.9760   -4.8040   22.6020 C   0  0  0  0  0  0  0  0  0  0  0  0
  -22.3850   -4.2610   21.4320 F   0  0  0  0  0  0  0  0  0  0  0  0
  -21.3160   -3.7760   26.0600 F   0  0  0  0  0  0  0  0  0  0  0  0
  -22.7550  -13.5520   21.1290 C   0  0  0  0  0  0  0  0  0  0  0  0
  -22.0160  -12.8610   21.9920 N   0  0  0  0  0  0  0  0  0  0  0  0
  -22.3210  -14.5730   20.5960 O   0  0  0  0  0  0  0  0  0  0  0  0
  -22.3740  -12.0300   22.4400 H   0  0  0  0  0  0  0  0  0  0  0  0
  -21.0780  -13.1670   22.2080 H   0  0  0  0  0  0  0  0  0  0  0  0
  -25.3780  -15.2280   20.3250 N   0  0  0  0  0  0  0  0  0  0  0  0
  -24.6160  -15.8840   20.4570 H   0  0  0  0  0  0  0  0  0  0  0  0
  -26.2270  -15.6670   19.9930 H   0  0  0  0  0  0  0  0  0  0  0  0
  2  1  1  0
  3  7  1  0
  3  4  1  0
  4  9  1  0
  4  1  1  0
  5  6  1  0
  5  2  1  0
  7 50  1  0
  7  5  1  0
  7  8  1  6
  9 11  1  0
 10 21  2  0
 11 16  1  0
 12 20  1  0
 12 22  1  0
 13 19  1  0
 13 15  1  0
 14 20  1  0
 15 14  1  0
 16 15  2  0
 17 11  2  0
 18 17  1  0
 18 13  2  0
 19 12  1  0
 20 10  1  0
 22 24  2  0
 23 22  1  0
 25 23  1  0
 26 35  2  0
 26 31  1  0
 27 23  1  0
 27 31  1  0
 28 27  1  0
 29 30  1  0
 29 28  1  0
 30 26  1  0
 31 32  2  0
 32 33  1  0
 34 33  2  0
 35 34  1  0
 36 10  1  0
 36 37  1  0
 36 46  1  0
 37 40  1  0
 38 42  1  0
 38 37  1  0
 39 38  2  0
 42 41  1  0
 44 42  1  0
 44 45  1  0
 44 43  1  0
 46 49  1  1
 46 47  1  0
 48 46  1  0
 51 54  2  0
 51 52  1  0
 52 56  2  0
 54 55  1  0
 55 50  1  0
 55 53  2  0
 56 53  1  0
 56 66  1  0
 57 54  1  0
 58 64  1  0
 58 66  1  0
 59 64  1  0
 60 61  1  0
 60 59  1  0
 62 61  1  0
 62 71  1  0
 62 63  1  0
 64 63  1  0
 65 58  2  0
 66 67  1  0
 68 69  2  0
 69 88  1  0
 70 69  1  0
 70 73  1  0
 71 68  1  0
 71 72  1  0
 72 70  2  0
 73 74  1  0
 74 75  2  0
 76 79  1  0
 76 75  1  0
 77 76  2  0
 78 77  1  0
 78 73  2  0
 79 80  1  0
 80 81  1  0
 81 82  2  0
 83 82  1  0
 83 87  1  0
 84 83  2  0
 85 80  2  0
 85 84  1  0
 86 85  1  0
 88 89  1  0
 89 92  1  0
 89 91  1  0
 90 88  2  0
 93 94  1  0
 93 68  1  0
 95 93  1  0
M  ISO  4   4 101   9 101  58 100  66 100
M  END
>  <TORSDO>  (6) 
F 18

>  <SCORE>  (6) 
-14.985

>  <name>  (6) 
5

>  <ligand_id>  (6) 
5

>  <original_smiles>  (6) 
[H]c1c([H])c([H])c2c(c1[H])C([H])([H])C([H])([H])C([H])([H])C2([H])N([H])C(=O)C1([H])N(C(=O)C([H])(N([H])C(=O)C([H])(N([H])C([H])([H])[H])C([H])([H])[H])C(C([H])([H])[H])(C([H])([H])[H])C([H])([H])[H])C([H])([H])c2c([H])c(OC3([H])C([H])([H])C([H])([H])C([H])(C([H])([H])[H])[N+]([H])(C([H])([H])c4c([H])c(N([H])C(=O)N5C([H])([H])C([H])([H])C([H])([H])C([H])(n6nc(-c7c([H])c([H])c(Oc8c([H])c([H])c(F)c([H])c8F)c([H])c7[H])c(C(=O)N([H])[H])c6N([H])[H])C5([H])[H])c([H])c([H])c4C([H])([H])[H])C3([H])[H])c([H])c([H])c2C1([H])[H]

>  <smiles>  (6) 
[H]c1c([H])c([H])c2c(c1[H])C([H])([H])C([H])([H])C([H])([H])C2([H])N([H])C(=O)C1([H])N(C(=O)C([H])(N([H])C(=O)C([H])(N([H])C([H])([H])[H])C([H])([H])[H])C(C([H])([H])[H])(C([H])([H])[H])C([H])([H])[H])C([H])([H])c2c([H])c(OC3([H])C([H])([H])C([H])([H])C([H])(C([H])([H])[H])[N+]([H])(C([H])([H])c4c([H])c(N([H])C(=O)N5C([H])([H])C([H])([H])C([H])([H])C([H])(n6nc(-c7c([H])c([H])c(Oc8c([H])c([H])c(F)c([H])c8F)c([H])c7[H])c(C(=O)N([H])[H])c6N([H])[H])C5([H])[H])c([H])c([H])c4C([H])([H])[H])C3([H])[H])c([H])c([H])c2C1([H])[H]

$$$$
6:0:0
     RDKit          3D

 96100  0  0  1  0  0  0  0  0999 V2000
  -30.3580  -20.5730   16.9040 C   0  0  0  0  0  2  0  0  0  0  0  0
  -31.0180  -22.5990   18.2150 C   0  0  0  0  0  2  0  0  0  0  0  0
  -31.4480  -21.6250   17.2840 C   0  0  0  0  0  3  0  0  0  0  0  0
  -32.6450  -21.1000   17.8410 C   0  0  0  0  0  3  0  0  0  0  0  0
  -32.5490  -20.7890   19.2560 C   0  0  2  0  0  0  0  0  0  0  0  0
  -31.1330  -20.6470   19.7730 C   0  0  0  0  0  3  0  0  0  0  0  0
  -31.1250  -22.1150   19.5580 C   0  0  2  0  0  0  0  0  0  0  0  0
  -33.9270  -21.0220   17.0380 C   0  0  0  0  0  1  0  0  0  0  0  0
  -33.8410  -20.6390   20.0590 C   0  0  0  0  0  1  0  0  0  0  0  0
  -31.7140  -23.2060   20.7800 Cl  0  0  0  0  0  0  0  0  0  0  0  0
  -30.0600  -16.5950   19.9950 C   0  0  0  0  0  0  0  0  0  0  0  0
  -30.1980  -13.8270   19.0160 C   0  0  0  0  0  2  0  0  0  0  0  0
  -29.3580  -12.9820   17.9580 C   0  0  0  0  0  2  0  0  0  0  0  0
  -28.0730  -12.3990   18.5440 C   0  0  0  0  0  2  0  0  0  0  0  0
  -27.5200  -13.4160   19.5500 C   0  0  0  0  0  3  0  0  0  0  0  0
  -28.5690  -14.1030   20.5220 C   0  0  0  0  0  2  0  0  0  0  0  0
  -29.4960  -15.0910   19.7640 N   0  0  0  0  0  0  0  0  0  0  0  0
  -31.2570  -16.1320   19.9650 O   0  0  0  0  0  0  0  0  0  0  0  0
  -29.6470  -18.4490   20.0570 N   0  0  0  0  0  2  0  0  0  0  0  0
  -28.6510  -18.6090   20.0890 H   0  0  0  0  0  0  0  0  0  0  0  0
  -25.2230  -13.8620   20.4690 C   0  0  0  0  0  0  0  0  0  0  0  0
  -24.1810  -13.0820   20.8740 C   0  0  0  0  0  0  0  0  0  0  0  0
  -24.6360  -11.7300   20.7890 C   0  0  0  0  0  0  0  0  0  0  0  0
  -26.2570  -13.0050   20.1670 N   0  0  0  0  0  0  0  0  0  0  0  0
  -25.9180  -11.7010   20.4040 N   0  0  0  0  0  0  0  0  0  0  0  0
  -23.8880  -10.4750   20.9990 C   0  0  0  0  0  0  0  0  0  0  0  0
  -24.3370   -9.4820   21.8980 C   0  0  0  0  0  3  0  0  0  0  0  0
  -23.5810   -8.3060   22.1090 C   0  0  0  0  0  3  0  0  0  0  0  0
  -22.3590   -8.1120   21.4230 C   0  0  0  0  0  0  0  0  0  0  0  0
  -21.9240   -9.0930   20.5130 C   0  0  0  0  0  3  0  0  0  0  0  0
  -22.6800  -10.2590   20.3010 C   0  0  0  0  0  3  0  0  0  0  0  0
  -21.5730   -6.9890   21.5430 O   0  0  0  0  0  0  0  0  0  0  0  0
  -21.5730   -6.2260   22.6840 C   0  0  0  0  0  0  0  0  0  0  0  0
  -21.2530   -6.7740   23.9460 C   0  0  0  0  0  3  0  0  0  0  0  0
  -21.1980   -5.9420   25.0810 C   0  0  0  0  0  3  0  0  0  0  0  0
  -21.4500   -4.5630   24.9570 C   0  0  0  0  0  0  0  0  0  0  0  0
  -21.7600   -4.0140   23.7010 C   0  0  0  0  0  3  0  0  0  0  0  0
  -21.8180   -4.8430   22.5680 C   0  0  0  0  0  0  0  0  0  0  0  0
  -22.0980   -4.3040   21.3560 F   0  0  0  0  0  0  0  0  0  0  0  0
  -21.3900   -3.7620   26.0470 F   0  0  0  0  0  0  0  0  0  0  0  0
  -22.8060  -13.5750   21.2160 C   0  0  0  0  0  0  0  0  0  0  0  0
  -22.1140  -12.8890   22.1180 N   0  0  0  0  0  0  0  0  0  0  0  0
  -22.3610  -14.6090   20.7210 O   0  0  0  0  0  0  0  0  0  0  0  0
  -22.4910  -12.0550   22.5430 H   0  0  0  0  0  0  0  0  0  0  0  0
  -21.1930  -13.2030   22.3880 H   0  0  0  0  0  0  0  0  0  0  0  0
  -25.3710  -15.2350   20.2920 N   0  0  0  0  0  0  0  0  0  0  0  0
  -24.6070  -15.8850   20.4360 H   0  0  0  0  0  0  0  0  0  0  0  0
  -26.2020  -15.6750   19.9170 H   0  0  0  0  0  0  0  0  0  0  0  0
  -28.5200  -20.9690   18.6890 C   0  0  0  0  0  2  0  0  0  0  0  0
  -31.2070  -19.4510   21.3420 C   0  0  0  0  0 15  0  0  0  0  0  0
  -29.4350  -20.8840   21.6630 C   0  0  0  0  0 15  0  0  0  0  0  0
  -31.2710  -18.9730   18.9370 C   0  0  0  0  0  1  0  0  0  0  0  0
  -28.3850  -22.2200   20.2850 C   0  0  0  0  0 15  0  0  0  0  0  0
  -29.7170  -19.9360   18.0870 N   0  0  0  0  0  2  0  0  0  0  0  0
  -27.5390  -21.0840   17.9480 O   0  0  0  0  0  1  0  0  0  0  0  0
  -28.1490  -24.4110   20.2310 O   0  0  0  0  0  1  0  0  0  0  0  0
  -24.6620  -31.7390   22.9950 C   0  0  0  0  0  0  0  0  0  0  0  0
  -27.2190  -25.9490   20.1990 C   0  0  0  0  0  0  0  0  0  0  0  0
  -23.5200  -30.2690   21.4000 C   0  0  0  0  0  3  0  0  0  0  0  0
  -24.9910  -28.4450   20.0790 C   0  0  0  0  0  0  0  0  0  0  0  0
  -26.1260  -30.2140   21.3690 C   0  0  0  0  0  2  0  0  0  0  0  0
  -26.1980  -28.6810   20.7450 C   0  0  0  0  0  0  0  0  0  0  0  0
  -27.2530  -27.4940   20.7450 C   0  0  0  0  0  3  0  0  0  0  0  0
  -25.9650  -26.1250   19.4690 C   0  0  0  0  0  3  0  0  0  0  0  0
  -24.9620  -27.1970   19.4110 C   0  0  0  0  0  3  0  0  0  0  0  0
  -23.8070  -29.4770   20.0760 C   0  0  0  0  0  2  0  0  0  0  0  0
  -24.8040  -30.7940   21.9720 N   0  0  0  0  0  0  0  0  0  0  0  0
  -23.5480  -32.0690   23.4530 O   0  0  0  0  0  0  0  0  0  0  0  0
  -22.7390  -29.3790   22.4130 C   0  0  0  0  0  0  0  0  0  0  0  0
  -21.3980  -29.2720   22.3100 N   0  0  0  0  0  0  0  0  0  0  0  0
  -23.3700  -28.7720   23.2800 O   0  0  0  0  0  0  0  0  0  0  0  0
  -20.9280  -29.8100   21.5940 H   0  0  0  0  0  0  0  0  0  0  0  0
  -17.9910  -28.0920   22.9050 C   0  0  0  0  0  0  0  0  0  0  0  0
  -20.5600  -28.3580   23.1070 C   0  0  0  0  0  3  0  0  0  0  0  0
  -20.6370  -26.9150   22.5520 C   0  0  0  0  0  2  0  0  0  0  0  0
  -19.5180  -26.5920   21.5580 C   0  0  0  0  0  2  0  0  0  0  0  0
  -18.1490  -26.7430   22.2260 C   0  0  0  0  0  2  0  0  0  0  0  0
  -19.1210  -28.8580   23.3030 C   0  0  0  0  0  0  0  0  0  0  0  0
  -18.9100  -30.1150   23.9110 C   0  0  0  0  0  3  0  0  0  0  0  0
  -17.6070  -30.6080   24.1180 C   0  0  0  0  0  3  0  0  0  0  0  0
  -16.4940  -29.8420   23.7290 C   0  0  0  0  0  3  0  0  0  0  0  0
  -16.6880  -28.5850   23.1300 C   0  0  0  0  0  3  0  0  0  0  0  0
  -25.8780  -32.4660   23.6540 C   0  0  0  0  0  3  0  0  0  0  0  0
  -25.4890  -33.8560   24.0100 N   0  0  0  0  0  0  0  0  0  0  0  0
  -25.8120  -34.9660   23.3280 C   0  0  0  0  0  0  0  0  0  0  0  0
  -26.5050  -34.9300   22.3090 O   0  0  0  0  0  0  0  0  0  0  0  0
  -24.8660  -33.9530   24.7990 H   0  0  0  0  0  0  0  0  0  0  0  0
  -24.0490  -36.7570   23.0550 C   0  0  0  0  0  1  0  0  0  0  0  0
  -25.2950  -36.3290   23.8490 C   0  0  0  0  0  3  0  0  0  0  0  0
  -27.4040  -37.2380   24.7310 C   0  0  0  0  0  1  0  0  0  0  0  0
  -26.3040  -37.4130   23.7880 N   0  0  0  0  0  0  0  0  0  0  0  0
  -25.8750  -38.3160   23.9660 H   0  0  0  0  0  0  0  0  0  0  0  0
  -26.3920  -31.7360   24.9580 C   0  0  1  0  0  0  0  0  0  0  0  0
  -25.2900  -31.4930   26.0190 C   0  0  0  0  0  1  0  0  0  0  0  0
  -27.0130  -30.3650   24.6240 C   0  0  0  0  0  1  0  0  0  0  0  0
  -27.5160  -32.5700   25.6180 C   0  0  0  0  0  1  0  0  0  0  0  0
  1 54  1  0
  2  7  1  0
  3  1  1  0
  3  4  1  0
  3  2  1  0
  4  8  1  0
  4  5  1  0
  5  7  1  0
  5  6  1  0
  5  9  1  1
  6 52  1  0
  7  6  1  0
  7 10  1  1
 11 19  1  0
 12 17  1  0
 13 14  1  0
 13 12  1  0
 15 14  1  0
 15 24  1  0
 15 16  1  0
 17 11  1  0
 17 16  1  0
 18 11  2  0
 19 20  1  0
 21 22  2  0
 22 41  1  0
 23 22  1  0
 23 26  1  0
 24 25  1  0
 24 21  1  0
 25 23  2  0
 26 27  1  0
 27 28  2  0
 29 32  1  0
 29 28  1  0
 30 29  2  0
 31 30  1  0
 31 26  2  0
 32 33  1  0
 33 34  1  0
 34 35  2  0
 36 35  1  0
 36 40  1  0
 37 36  2  0
 38 33  2  0
 38 37  1  0
 39 38  1  0
 41 42  1  0
 42 45  1  0
 42 44  1  0
 43 41  2  0
 46 47  1  0
 46 21  1  0
 48 46  1  0
 54 49  1  0
 55 49  1  0
 57 68  2  0
 58 56  1  0
 58 63  1  0
 59 67  1  0
 59 69  1  0
 60 62  1  0
 61 67  1  0
 62 61  1  0
 63 62  2  0
 64 58  2  0
 65 64  1  0
 65 60  2  0
 66 60  1  0
 66 59  1  0
 67 57  1  0
 69 71  2  0
 70 69  1  0
 72 70  1  0
 73 82  2  0
 73 78  1  0
 74 70  1  0
 74 78  1  0
 75 74  1  0
 76 77  1  0
 76 75  1  0
 77 73  1  0
 78 79  2  0
 79 80  1  0
 81 80  2  0
 82 81  1  0
 83 57  1  0
 83 84  1  0
 83 93  1  0
 84 87  1  0
 85 89  1  0
 85 84  1  0
 86 85  2  0
 89 88  1  0
 91 89  1  0
 91 92  1  0
 91 90  1  0
 93 96  1  1
 93 94  1  0
 95 93  1  0
M  ISO  4  11 100  19 100  53 101  56 101
M  END
>  <TORSDO>  (7) 
F 18

>  <SCORE>  (7) 
-15.963

>  <name>  (7) 
6

>  <ligand_id>  (7) 
6

>  <original_smiles>  (7) 
[H]c1c([H])c([H])c2c(c1[H])C([H])([H])C([H])([H])C([H])([H])C2([H])N([H])C(=O)C1([H])N(C(=O)C([H])(N([H])C(=O)C([H])(N([H])C([H])([H])[H])C([H])([H])[H])C(C([H])([H])[H])(C([H])([H])[H])C([H])([H])[H])C([H])([H])c2c([H])c(OC3([H])C(=O)N(C([H])([H])c4c([H])c(Cl)c(N([H])C(=O)N5C([H])([H])C([H])([H])C([H])([H])C([H])(n6nc(-c7c([H])c([H])c(Oc8c([H])c([H])c(F)c([H])c8F)c([H])c7[H])c(C(=O)N([H])[H])c6N([H])[H])C5([H])[H])c(C([H])([H])[H])c4C([H])([H])[H])C([H])([H])C([H])([H])C3([H])[H])c([H])c([H])c2C1([H])[H]

>  <smiles>  (7) 
[H]c1c([H])c([H])c2c(c1[H])C([H])([H])C([H])([H])C([H])([H])C2([H])N([H])C(=O)C1([H])N(C(=O)C([H])(N([H])C(=O)C([H])(N([H])C([H])([H])[H])C([H])([H])[H])C(C([H])([H])[H])(C([H])([H])[H])C([H])([H])[H])C([H])([H])c2c([H])c(OC3([H])C(=O)N(C([H])([H])c4c([H])c(Cl)c(N([H])C(=O)N5C([H])([H])C([H])([H])C([H])([H])C([H])(n6nc(-c7c([H])c([H])c(Oc8c([H])c([H])c(F)c([H])c8F)c([H])c7[H])c(C(=O)N([H])[H])c6N([H])[H])C5([H])[H])c(C([H])([H])[H])c4C([H])([H])[H])C([H])([H])C([H])([H])C3([H])[H])c([H])c([H])c2C1([H])[H]

$$$$
7:0:0
     RDKit          3D

 93101  0  0  1  0  0  0  0  0999 V2000
  -31.2760  -18.4820   21.3170 C   0  0  0  0  0  3  0  0  0  0  0  0
  -31.1370  -20.8660   21.7630 C   0  0  0  0  0  3  0  0  0  0  0  0
  -30.0360  -18.5160   20.6500 C   0  0  0  0  0  0  0  0  0  0  0  0
  -29.3260  -19.7690   20.5460 C   0  0  0  0  0  0  0  0  0  0  0  0
  -29.8930  -20.9710   21.1040 C   0  0  0  0  0  0  0  0  0  0  0  0
  -31.8230  -19.6450   21.8710 C   0  0  0  0  0  0  0  0  0  0  0  0
  -27.9630  -19.7760   19.8650 C   0  0  0  0  0  1  0  0  0  0  0  0
  -33.3480  -19.5790   22.6770 Cl  0  0  0  0  0  0  0  0  0  0  0  0
  -29.3570  -22.2910   21.1370 N   0  0  0  0  0  0  0  0  0  0  0  0
  -29.7870  -22.8970   21.8310 H   0  0  0  0  0  0  0  0  0  0  0  0
  -28.5530  -23.0270   20.1430 C   0  0  0  0  0  2  0  0  0  0  0  0
  -28.7970  -24.5780   20.1900 C   0  0  0  0  0  3  0  0  0  0  0  0
  -27.6750  -25.4440   19.5390 C   0  0  0  0  0  3  0  0  0  0  0  0
  -27.8580  -26.8860   19.6330 O   0  0  0  0  0  0  0  0  0  0  0  0
  -24.4140  -32.0250   23.2160 C   0  0  0  0  0  0  0  0  0  0  0  0
  -26.7170  -27.6810   19.7070 C   0  0  0  0  0  0  0  0  0  0  0  0
  -23.0570  -30.7290   21.6070 C   0  0  0  0  0  3  0  0  0  0  0  0
  -24.3640  -29.2560   19.9850 C   0  0  0  0  0  0  0  0  0  0  0  0
  -25.5700  -31.0550   21.2260 C   0  0  0  0  0  2  0  0  0  0  0  0
  -25.5790  -29.7190   20.5050 C   0  0  0  0  0  0  0  0  0  0  0  0
  -26.7570  -28.9410   20.3610 C   0  0  0  0  0  3  0  0  0  0  0  0
  -25.4820  -27.2610   19.1590 C   0  0  0  0  0  3  0  0  0  0  0  0
  -24.3130  -28.0300   19.3050 C   0  0  0  0  0  3  0  0  0  0  0  0
  -23.1450  -30.1280   20.1800 C   0  0  0  0  0  2  0  0  0  0  0  0
  -24.3700  -31.2820   22.0730 N   0  0  0  0  0  0  0  0  0  0  0  0
  -23.3830  -32.2800   23.8560 O   0  0  0  0  0  0  0  0  0  0  0  0
  -22.4680  -29.6630   22.5610 C   0  0  0  0  0  0  0  0  0  0  0  0
  -21.1460  -29.4410   22.4700 N   0  0  0  0  0  0  0  0  0  0  0  0
  -23.1960  -29.0430   23.3400 O   0  0  0  0  0  0  0  0  0  0  0  0
  -20.6170  -29.9980   21.8150 H   0  0  0  0  0  0  0  0  0  0  0  0
  -17.8480  -28.0480   22.9660 C   0  0  0  0  0  0  0  0  0  0  0  0
  -20.3850  -28.4590   23.2420 C   0  0  0  0  0  3  0  0  0  0  0  0
  -20.5730  -27.0340   22.6730 C   0  0  0  0  0  2  0  0  0  0  0  0
  -19.4950  -26.6420   21.6570 C   0  0  0  0  0  2  0  0  0  0  0  0
  -18.1060  -26.7090   22.2970 C   0  0  0  0  0  2  0  0  0  0  0  0
  -18.9180  -28.8760   23.3950 C   0  0  0  0  0  0  0  0  0  0  0  0
  -18.6240  -30.1280   23.9810 C   0  0  0  0  0  3  0  0  0  0  0  0
  -17.2920  -30.5530   24.1400 C   0  0  0  0  0  3  0  0  0  0  0  0
  -16.2350  -29.7220   23.7270 C   0  0  0  0  0  3  0  0  0  0  0  0
  -16.5140  -28.4720   23.1460 C   0  0  0  0  0  3  0  0  0  0  0  0
  -25.7550  -32.6080   23.7610 C   0  0  0  0  0  3  0  0  0  0  0  0
  -25.5070  -34.0050   24.1420 N   0  0  0  0  0  0  0  0  0  0  0  0
  -25.8550  -35.0680   23.4050 C   0  0  0  0  0  0  0  0  0  0  0  0
  -26.4900  -34.9710   22.3500 O   0  0  0  0  0  0  0  0  0  0  0  0
  -24.9420  -34.1540   24.9660 H   0  0  0  0  0  0  0  0  0  0  0  0
  -24.2170  -36.9540   23.1190 C   0  0  0  0  0  1  0  0  0  0  0  0
  -25.4330  -36.4570   23.9180 C   0  0  0  0  0  3  0  0  0  0  0  0
  -27.5930  -37.2140   24.8070 C   0  0  0  0  0  1  0  0  0  0  0  0
  -26.5150  -37.4630   23.8530 N   0  0  0  0  0  0  0  0  0  0  0  0
  -26.1500  -38.3970   24.0230 H   0  0  0  0  0  0  0  0  0  0  0  0
  -26.3380  -31.7920   24.9790 C   0  0  1  0  0  0  0  0  0  0  0  0
  -25.3150  -31.5490   26.1130 C   0  0  0  0  0  1  0  0  0  0  0  0
  -26.8590  -30.4120   24.5120 C   0  0  0  0  0  1  0  0  0  0  0  0
  -27.5490  -32.5420   25.5800 C   0  0  0  0  0  1  0  0  0  0  0  0
  -29.5610  -17.1990   19.9880 C   0  0  0  0  0  2  0  0  0  0  0  0
  -30.4950  -14.9180   20.5060 C   0  0  0  0  0  0  0  0  0  0  0  0
  -30.4040  -12.6240   19.6030 C   0  0  0  0  0  2  0  0  0  0  0  0
  -29.4900  -12.6500   18.3580 C   0  0  0  0  0  2  0  0  0  0  0  0
  -28.0160  -12.4470   18.7610 C   0  0  0  0  0  2  0  0  0  0  0  0
  -27.5830  -13.3670   19.9340 C   0  0  0  0  0  3  0  0  0  0  0  0
  -28.6170  -13.3300   21.0850 C   0  0  0  0  0  2  0  0  0  0  0  0
  -29.9360  -13.6730   20.5250 N   0  0  0  0  0  0  0  0  0  0  0  0
  -31.6240  -15.1290   20.0570 O   0  0  0  0  0  0  0  0  0  0  0  0
  -29.6470  -15.9380   20.7670 N   0  0  0  0  0  0  0  0  0  0  0  0
  -28.7890  -15.6620   21.2190 H   0  0  0  0  0  0  0  0  0  0  0  0
  -25.1660  -13.8890   20.6440 C   0  0  0  0  0  0  0  0  0  0  0  0
  -24.1190  -13.0800   20.9940 C   0  0  0  0  0  0  0  0  0  0  0  0
  -24.6180  -11.7420   20.9360 C   0  0  0  0  0  0  0  0  0  0  0  0
  -26.2370  -13.0430   20.4000 N   0  0  0  0  0  0  0  0  0  0  0  0
  -25.9100  -11.7460   20.6320 N   0  0  0  0  0  0  0  0  0  0  0  0
  -23.9270  -10.4560   21.0950 C   0  0  0  0  0  0  0  0  0  0  0  0
  -24.3400   -9.5110   22.0590 C   0  0  0  0  0  3  0  0  0  0  0  0
  -23.6490   -8.2890   22.2060 C   0  0  0  0  0  3  0  0  0  0  0  0
  -22.5290   -8.0040   21.3880 C   0  0  0  0  0  0  0  0  0  0  0  0
  -22.1360   -8.9390   20.4160 C   0  0  0  0  0  3  0  0  0  0  0  0
  -22.8280  -10.1520   20.2660 C   0  0  0  0  0  3  0  0  0  0  0  0
  -21.8130   -6.8340   21.4440 O   0  0  0  0  0  0  0  0  0  0  0  0
  -21.6740   -6.1290   22.6130 C   0  0  0  0  0  0  0  0  0  0  0  0
  -21.0180   -6.6750   23.7380 C   0  0  0  0  0  3  0  0  0  0  0  0
  -20.8360   -5.8910   24.8950 C   0  0  0  0  0  3  0  0  0  0  0  0
  -21.2980   -4.5620   24.9260 C   0  0  0  0  0  0  0  0  0  0  0  0
  -21.9440   -4.0150   23.8040 C   0  0  0  0  0  3  0  0  0  0  0  0
  -22.1290   -4.7950   22.6490 C   0  0  0  0  0  0  0  0  0  0  0  0
  -22.7340   -4.2570   21.5640 F   0  0  0  0  0  0  0  0  0  0  0  0
  -21.1150   -3.8060   26.0340 F   0  0  0  0  0  0  0  0  0  0  0  0
  -22.7080  -13.5120   21.2720 C   0  0  0  0  0  0  0  0  0  0  0  0
  -21.9970  -12.7740   22.1170 N   0  0  0  0  0  0  0  0  0  0  0  0
  -22.2440  -14.5370   20.7760 O   0  0  0  0  0  0  0  0  0  0  0  0
  -22.3850  -11.9440   22.5400 H   0  0  0  0  0  0  0  0  0  0  0  0
  -21.0510  -13.0440   22.3470 H   0  0  0  0  0  0  0  0  0  0  0  0
  -25.2930  -15.2670   20.4950 N   0  0  0  0  0  0  0  0  0  0  0  0
  -24.5070  -15.8960   20.6100 H   0  0  0  0  0  0  0  0  0  0  0  0
  -26.1260  -15.7330   20.1620 H   0  0  0  0  0  0  0  0  0  0  0  0
  1  6  1  0
  2  6  2  0
  3  1  2  0
  4  3  1  0
  4  5  2  0
  5  9  1  0
  5  2  1  0
  6  8  1  0
  7  4  1  0
  9 10  1  0
 11 12  1  0
 11  9  1  0
 13 14  1  0
 13 12  2  0
 14 16  1  0
 15 26  2  0
 16 21  1  0
 17 25  1  0
 17 27  1  0
 18 24  1  0
 18 20  1  0
 19 25  1  0
 20 19  1  0
 21 20  2  0
 22 23  1  0
 22 16  2  0
 23 18  2  0
 24 17  1  0
 25 15  1  0
 27 29  2  0
 28 27  1  0
 30 28  1  0
 31 40  2  0
 31 36  1  0
 32 28  1  0
 32 36  1  0
 33 32  1  0
 34 35  1  0
 34 33  1  0
 35 31  1  0
 36 37  2  0
 37 38  1  0
 39 38  2  0
 40 39  1  0
 41 15  1  0
 41 42  1  0
 41 51  1  0
 42 45  1  0
 43 47  1  0
 43 42  1  0
 44 43  2  0
 47 46  1  0
 49 47  1  0
 49 50  1  0
 49 48  1  0
 51 54  1  1
 51 52  1  0
 53 51  1  0
 55  3  1  0
 55 64  1  0
 56 62  1  0
 56 64  1  0
 57 62  1  0
 58 59  1  0
 58 57  1  0
 60 59  1  0
 60 69  1  0
 60 61  1  0
 62 61  1  0
 63 56  2  0
 64 65  1  0
 66 67  2  0
 67 86  1  0
 68 67  1  0
 68 71  1  0
 69 70  1  0
 69 66  1  0
 70 68  2  0
 71 72  1  0
 72 73  2  0
 74 77  1  0
 74 73  1  0
 75 74  2  0
 76 75  1  0
 76 71  2  0
 77 78  1  0
 78 83  2  0
 78 79  1  0
 79 80  2  0
 80 81  1  0
 81 85  1  0
 82 81  2  0
 83 82  1  0
 84 83  1  0
 86 87  1  0
 87 90  1  0
 87 89  1  0
 88 86  2  0
 91 92  1  0
 91 66  1  0
 93 91  1  0
M  ISO  4  13 101  14 101  56 100  64 100
M  END
>  <TORSDO>  (8) 
F 21

>  <SCORE>  (8) 
-13.153

>  <name>  (8) 
7

>  <ligand_id>  (8) 
7

>  <original_smiles>  (8) 
[H]c1c([H])c([H])c2c(c1[H])C([H])([H])C([H])([H])C([H])([H])C2([H])N([H])C(=O)C1([H])N(C(=O)C([H])(N([H])C(=O)C([H])(N([H])C([H])([H])[H])C([H])([H])[H])C(C([H])([H])[H])(C([H])([H])[H])C([H])([H])[H])C([H])([H])c2c([H])c(OC([H])([H])C([H])([H])C([H])([H])N([H])c3c([H])c(Cl)c([H])c(C([H])([H])N([H])C(=O)N4C([H])([H])C([H])([H])C([H])([H])C([H])(n5nc(-c6c([H])c([H])c(Oc7c([H])c([H])c(F)c([H])c7F)c([H])c6[H])c(C(=O)N([H])[H])c5N([H])[H])C4([H])[H])c3C([H])([H])[H])c([H])c([H])c2C1([H])[H]

>  <smiles>  (8) 
[H]c1c([H])c([H])c2c(c1[H])C([H])([H])C([H])([H])C([H])([H])C2([H])N([H])C(=O)C1([H])N(C(=O)C([H])(N([H])C(=O)C([H])(N([H])C([H])([H])[H])C([H])([H])[H])C(C([H])([H])[H])(C([H])([H])[H])C([H])([H])[H])C([H])([H])c2c([H])c(OC([H])([H])C([H])([H])C([H])([H])N([H])c3c([H])c(Cl)c([H])c(C([H])([H])N([H])C(=O)N4C([H])([H])C([H])([H])C([H])([H])C([H])(n5nc(-c6c([H])c([H])c(Oc7c([H])c([H])c(F)c([H])c7F)c([H])c6[H])c(C(=O)N([H])[H])c5N([H])[H])C4([H])[H])c3C([H])([H])[H])c([H])c([H])c2C1([H])[H]

$$$$
8:0:0
     RDKit          3D

 95103  0  0  1  0  0  0  0  0999 V2000
  -30.0220  -21.1630   22.0970 C   0  0  0  0  0  2  0  0  0  0  0  0
  -32.2440  -18.0630   19.9920 C   0  0  0  0  0  3  0  0  0  0  0  0
  -32.2120  -19.3720   19.4960 C   0  0  0  0  0  3  0  0  0  0  0  0
  -31.5010  -17.7040   21.1350 C   0  0  0  0  0  0  0  0  0  0  0  0
  -30.6740  -18.6750   21.7700 C   0  0  0  0  0  0  0  0  0  0  0  0
  -30.6990  -20.0290   21.3100 C   0  0  0  0  0  0  0  0  0  0  0  0
  -31.4750  -20.3590   20.1660 C   0  0  0  0  0  0  0  0  0  0  0  0
  -29.8110  -18.2780   22.9640 C   0  0  0  0  0  1  0  0  0  0  0  0
  -31.5730  -21.9780   19.5600 Cl  0  0  0  0  0  0  0  0  0  0  0  0
  -31.7110  -16.2930   21.6880 C   0  0  0  0  0  2  0  0  0  0  0  0
  -31.2210  -14.4160   20.1360 C   0  0  0  0  0  0  0  0  0  0  0  0
  -30.7360  -12.3060   18.9590 C   0  0  0  0  0  2  0  0  0  0  0  0
  -29.7670  -12.5040   17.7820 C   0  0  0  0  0  2  0  0  0  0  0  0
  -28.3060  -12.4250   18.2650 C   0  0  0  0  0  2  0  0  0  0  0  0
  -28.0360  -13.3240   19.5000 C   0  0  0  0  0  3  0  0  0  0  0  0
  -29.1100  -13.1020   20.5880 C   0  0  0  0  0  2  0  0  0  0  0  0
  -30.4350  -13.3190   19.9820 N   0  0  0  0  0  0  0  0  0  0  0  0
  -32.2450  -14.6040   19.4750 O   0  0  0  0  0  0  0  0  0  0  0  0
  -30.8540  -15.2610   21.1090 N   0  0  0  0  0  0  0  0  0  0  0  0
  -29.9870  -15.0580   21.5850 H   0  0  0  0  0  0  0  0  0  0  0  0
  -25.6940  -14.0470   20.2860 C   0  0  0  0  0  0  0  0  0  0  0  0
  -24.6020  -13.3260   20.6900 C   0  0  0  0  0  0  0  0  0  0  0  0
  -24.9970  -11.9530   20.6470 C   0  0  0  0  0  0  0  0  0  0  0  0
  -26.6870  -13.1170   20.0230 N   0  0  0  0  0  0  0  0  0  0  0  0
  -26.2720  -11.8520   20.2950 N   0  0  0  0  0  0  0  0  0  0  0  0
  -24.2180  -10.7280   20.8620 C   0  0  0  0  0  0  0  0  0  0  0  0
  -24.6110   -9.7600   21.8130 C   0  0  0  0  0  3  0  0  0  0  0  0
  -23.8350   -8.5980   22.0140 C   0  0  0  0  0  3  0  0  0  0  0  0
  -22.6520   -8.3960   21.2650 C   0  0  0  0  0  0  0  0  0  0  0  0
  -22.2780   -9.3500   20.3030 C   0  0  0  0  0  3  0  0  0  0  0  0
  -23.0540  -10.5030   20.0990 C   0  0  0  0  0  3  0  0  0  0  0  0
  -21.8510   -7.2840   21.3750 O   0  0  0  0  0  0  0  0  0  0  0  0
  -21.7300   -6.5980   22.5560 C   0  0  0  0  0  0  0  0  0  0  0  0
  -21.2860   -7.2240   23.7400 C   0  0  0  0  0  3  0  0  0  0  0  0
  -21.1110   -6.4660   24.9160 C   0  0  0  0  0  3  0  0  0  0  0  0
  -21.3700   -5.0820   24.9060 C   0  0  0  0  0  0  0  0  0  0  0  0
  -21.8060   -4.4550   23.7240 C   0  0  0  0  0  3  0  0  0  0  0  0
  -21.9830   -5.2110   22.5530 C   0  0  0  0  0  0  0  0  0  0  0  0
  -22.3840   -4.5990   21.4130 F   0  0  0  0  0  0  0  0  0  0  0  0
  -21.1930   -4.3500   26.0300 F   0  0  0  0  0  0  0  0  0  0  0  0
  -23.2390  -13.8700   21.0090 C   0  0  0  0  0  0  0  0  0  0  0  0
  -22.5110  -13.2140   21.9060 N   0  0  0  0  0  0  0  0  0  0  0  0
  -22.8300  -14.9110   20.4970 O   0  0  0  0  0  0  0  0  0  0  0  0
  -22.8550  -12.3710   22.3440 H   0  0  0  0  0  0  0  0  0  0  0  0
  -21.5960  -13.5600   22.1590 H   0  0  0  0  0  0  0  0  0  0  0  0
  -25.9190  -15.4080   20.1000 N   0  0  0  0  0  0  0  0  0  0  0  0
  -25.1920  -16.1020   20.2330 H   0  0  0  0  0  0  0  0  0  0  0  0
  -26.7840  -15.8020   19.7530 H   0  0  0  0  0  0  0  0  0  0  0  0
  -29.1300  -22.0180   21.2850 N   0  0  0  0  0  4  0  0  0  0  0  0
  -28.2400  -21.5660   21.1540 H   0  0  0  0  0  0  0  0  0  0  0  0
  -29.5750  -22.1030   20.3840 H   0  0  0  0  0  0  0  0  0  0  0  0
  -28.9480  -23.3820   21.8370 C   0  0  0  0  0  2  0  0  0  0  0  0
  -28.5330  -24.4170   20.7730 C   0  0  0  0  0  2  0  0  0  0  0  0
  -28.6340  -25.8570   21.3040 C   0  0  0  0  0  2  0  0  0  0  0  0
  -28.4990  -26.7880   20.2340 O   0  0  0  0  0  0  0  0  0  0  0  0
  -24.6870  -31.9340   23.3220 C   0  0  0  0  0  0  0  0  0  0  0  0
  -27.3320  -27.5010   20.2640 C   0  0  0  0  0  0  0  0  0  0  0  0
  -23.4770  -30.5120   21.6990 C   0  0  0  0  0  3  0  0  0  0  0  0
  -24.9270  -28.9660   20.2820 C   0  0  0  0  0  0  0  0  0  0  0  0
  -25.9940  -30.8880   21.4770 C   0  0  0  0  0  2  0  0  0  0  0  0
  -26.0830  -29.5090   20.8600 C   0  0  0  0  0  0  0  0  0  0  0  0
  -27.2900  -28.7820   20.8540 C   0  0  0  0  0  3  0  0  0  0  0  0
  -26.1680  -26.9590   19.6840 C   0  0  0  0  0  3  0  0  0  0  0  0
  -24.9620  -27.6880   19.6950 C   0  0  0  0  0  3  0  0  0  0  0  0
  -23.6790  -29.8180   20.3250 C   0  0  0  0  0  2  0  0  0  0  0  0
  -24.7380  -31.1260   22.2260 N   0  0  0  0  0  0  0  0  0  0  0  0
  -23.6100  -32.2090   23.8680 O   0  0  0  0  0  0  0  0  0  0  0  0
  -22.8360  -29.4980   22.6730 C   0  0  0  0  0  0  0  0  0  0  0  0
  -21.5170  -29.2910   22.5350 N   0  0  0  0  0  0  0  0  0  0  0  0
  -23.5210  -28.9010   23.5080 O   0  0  0  0  0  0  0  0  0  0  0  0
  -21.0240  -29.8260   21.8330 H   0  0  0  0  0  0  0  0  0  0  0  0
  -18.1650  -28.0280   22.9890 C   0  0  0  0  0  0  0  0  0  0  0  0
  -20.7080  -28.3560   23.3140 C   0  0  0  0  0  3  0  0  0  0  0  0
  -20.8600  -26.9110   22.7800 C   0  0  0  0  0  2  0  0  0  0  0  0
  -19.7890  -26.5360   21.7510 C   0  0  0  0  0  2  0  0  0  0  0  0
  -18.3890  -26.6630   22.3580 C   0  0  0  0  0  2  0  0  0  0  0  0
  -19.2530  -28.8280   23.4240 C   0  0  0  0  0  0  0  0  0  0  0  0
  -18.9920  -30.1020   23.9710 C   0  0  0  0  0  3  0  0  0  0  0  0
  -17.6720  -30.5760   24.0930 C   0  0  0  0  0  3  0  0  0  0  0  0
  -16.5960  -29.7730   23.6770 C   0  0  0  0  0  3  0  0  0  0  0  0
  -16.8430  -28.5020   23.1280 C   0  0  0  0  0  3  0  0  0  0  0  0
  -25.9770  -32.5730   23.9280 C   0  0  0  0  0  3  0  0  0  0  0  0
  -25.6700  -33.9710   24.2490 N   0  0  0  0  0  0  0  0  0  0  0  0
  -25.9970  -35.0180   23.4790 C   0  0  0  0  0  0  0  0  0  0  0  0
  -26.6630  -34.9060   22.4450 O   0  0  0  0  0  0  0  0  0  0  0  0
  -25.0750  -34.1310   25.0480 H   0  0  0  0  0  0  0  0  0  0  0  0
  -24.2630  -36.8020   23.1170 C   0  0  0  0  0  1  0  0  0  0  0  0
  -25.5100  -36.4090   23.9260 C   0  0  0  0  0  3  0  0  0  0  0  0
  -27.6460  -37.3050   24.7360 C   0  0  0  0  0  1  0  0  0  0  0  0
  -26.5400  -37.4620   23.7960 N   0  0  0  0  0  0  0  0  0  0  0  0
  -26.1340  -38.3830   23.9380 H   0  0  0  0  0  0  0  0  0  0  0  0
  -26.5090  -31.8090   25.2020 C   0  0  1  0  0  0  0  0  0  0  0  0
  -25.4220  -31.5620   26.2740 C   0  0  0  0  0  1  0  0  0  0  0  0
  -27.1040  -30.4380   24.8050 C   0  0  0  0  0  1  0  0  0  0  0  0
  -27.6530  -32.6160   25.8580 C   0  0  0  0  0  1  0  0  0  0  0  0
  2  4  1  0
  3  2  2  0
  3  7  1  0
  4 10  1  0
  4  5  2  0
  5  8  1  0
  6  5  1  0
  6  1  1  0
  7  6  2  0
  9  7  1  0
 11 19  1  0
 12 17  1  0
 13 14  1  0
 13 12  1  0
 15 14  1  0
 15 24  1  0
 15 16  1  0
 17 11  1  0
 17 16  1  0
 18 11  2  0
 19 20  1  0
 19 10  1  0
 21 22  2  0
 22 41  1  0
 23 22  1  0
 23 26  1  0
 24 21  1  0
 24 25  1  0
 25 23  2  0
 26 27  1  0
 27 28  2  0
 29 32  1  0
 29 28  1  0
 30 29  2  0
 31 30  1  0
 31 26  2  0
 32 33  1  0
 33 34  1  0
 34 35  2  0
 36 35  1  0
 36 40  1  0
 37 36  2  0
 38 33  2  0
 38 37  1  0
 39 38  1  0
 41 42  1  0
 42 45  1  0
 42 44  1  0
 43 41  2  0
 46 47  1  0
 46 21  1  0
 48 46  1  0
 49 52  1  0
 49  1  1  0
 50 49  1  0
 51 49  1  0
 53 54  1  0
 53 52  1  0
 55 57  1  0
 55 54  1  0
 56 67  2  0
 57 62  1  0
 58 66  1  0
 58 68  1  0
 59 65  1  0
 59 61  1  0
 60 66  1  0
 61 60  1  0
 62 61  2  0
 63 64  1  0
 63 57  2  0
 64 59  2  0
 65 58  1  0
 66 56  1  0
 68 70  2  0
 69 68  1  0
 71 69  1  0
 72 81  2  0
 72 77  1  0
 73 69  1  0
 73 77  1  0
 74 73  1  0
 75 76  1  0
 75 74  1  0
 76 72  1  0
 77 78  2  0
 78 79  1  0
 80 79  2  0
 81 80  1  0
 82 56  1  0
 82 83  1  0
 82 92  1  0
 83 86  1  0
 84 88  1  0
 84 83  1  0
 85 84  2  0
 88 87  1  0
 90 88  1  0
 90 91  1  0
 90 89  1  0
 92 95  1  1
 92 93  1  0
 94 92  1  0
M  ISO  4  11 100  19 100  54 101  55 101
M  END
>  <TORSDO>  (9) 
F 22

>  <SCORE>  (9) 
-11.299

>  <name>  (9) 
8

>  <ligand_id>  (9) 
8

>  <original_smiles>  (9) 
[H]c1c([H])c([H])c2c(c1[H])C([H])([H])C([H])([H])C([H])([H])C2([H])N([H])C(=O)C1([H])N(C(=O)C([H])(N([H])C(=O)C([H])(N([H])C([H])([H])[H])C([H])([H])[H])C(C([H])([H])[H])(C([H])([H])[H])C([H])([H])[H])C([H])([H])c2c([H])c(OC([H])([H])C([H])([H])C([H])([H])[N+]([H])([H])C([H])([H])c3c(Cl)c([H])c([H])c(C([H])([H])N([H])C(=O)N4C([H])([H])C([H])([H])C([H])([H])C([H])(n5nc(-c6c([H])c([H])c(Oc7c([H])c([H])c(F)c([H])c7F)c([H])c6[H])c(C(=O)N([H])[H])c5N([H])[H])C4([H])[H])c3C([H])([H])[H])c([H])c([H])c2C1([H])[H]

>  <smiles>  (9) 
[H]c1c([H])c([H])c2c(c1[H])C([H])([H])C([H])([H])C([H])([H])C2([H])N([H])C(=O)C1([H])N(C(=O)C([H])(N([H])C(=O)C([H])(N([H])C([H])([H])[H])C([H])([H])[H])C(C([H])([H])[H])(C([H])([H])[H])C([H])([H])[H])C([H])([H])c2c([H])c(OC([H])([H])C([H])([H])C([H])([H])[N+]([H])([H])C([H])([H])c3c(Cl)c([H])c([H])c(C([H])([H])N([H])C(=O)N4C([H])([H])C([H])([H])C([H])([H])C([H])(n5nc(-c6c([H])c([H])c(Oc7c([H])c([H])c(F)c([H])c7F)c([H])c6[H])c(C(=O)N([H])[H])c5N([H])[H])C4([H])[H])c3C([H])([H])[H])c([H])c([H])c2C1([H])[H]

$$$$
9:0:0
     RDKit          3D

 96105  0  0  1  0  0  0  0  0999 V2000
  -29.4380  -23.5880   20.3300 C   0  0  0  0  0  0  0  0  0  0  0  0
  -28.7120  -25.8380   18.0240 C   0  0  0  0  0  2  0  0  0  0  0  0
  -29.2020  -24.5390   17.3760 C   0  0  0  0  0  2  0  0  0  0  0  0
  -29.2120  -26.0490   19.4590 C   0  0  0  0  0  2  0  0  0  0  0  0
  -28.5770  -23.2850   18.0070 C   0  0  0  0  0  2  0  0  0  0  0  0
  -28.7010  -25.0270   20.5040 C   0  0  0  0  0  3  0  0  0  0  0  0
  -29.3200  -22.7880   19.1770 N   0  0  0  0  0  0  0  0  0  0  0  0
  -30.1300  -23.2000   21.2780 O   0  0  0  0  0  0  0  0  0  0  0  0
  -28.8220  -25.7670   21.8270 O   0  0  0  0  0  0  0  0  0  0  0  0
  -24.4290  -28.0290   27.1870 C   0  0  0  0  0  0  0  0  0  0  0  0
  -27.8170  -26.6800   22.2680 C   0  0  0  0  0  0  0  0  0  0  0  0
  -23.7880  -28.6350   24.8850 C   0  0  0  0  0  3  0  0  0  0  0  0
  -25.5990  -28.3340   23.0980 C   0  0  0  0  0  0  0  0  0  0  0  0
  -26.2640  -28.3210   25.4970 C   0  0  0  0  0  2  0  0  0  0  0  0
  -26.5280  -27.8980   24.0500 C   0  0  0  0  0  0  0  0  0  0  0  0
  -27.6360  -27.0820   23.6400 C   0  0  0  0  0  3  0  0  0  0  0  0
  -26.8780  -27.2130   21.3520 C   0  0  0  0  0  3  0  0  0  0  0  0
  -25.7830  -28.0030   21.7510 C   0  0  0  0  0  3  0  0  0  0  0  0
  -24.4200  -29.1640   23.5710 C   0  0  0  0  0  2  0  0  0  0  0  0
  -24.8280  -28.2960   25.9080 N   0  0  0  0  0  0  0  0  0  0  0  0
  -23.2350  -28.0850   27.5160 O   0  0  0  0  0  0  0  0  0  0  0  0
  -22.8450  -27.4530   24.5530 C   0  0  0  0  0  0  0  0  0  0  0  0
  -21.7930  -27.7170   23.7590 N   0  0  0  0  0  0  0  0  0  0  0  0
  -23.0790  -26.3230   24.9900 O   0  0  0  0  0  0  0  0  0  0  0  0
  -21.6620  -28.6690   23.4480 H   0  0  0  0  0  0  0  0  0  0  0  0
  -19.0420  -27.2200   21.4600 C   0  0  0  0  0  0  0  0  0  0  0  0
  -20.8070  -26.7410   23.2900 C   0  0  0  0  0  3  0  0  0  0  0  0
  -21.4340  -25.7550   22.2790 C   0  0  0  0  0  2  0  0  0  0  0  0
  -21.2640  -26.1930   20.8210 C   0  0  0  0  0  2  0  0  0  0  0  0
  -19.7800  -26.3330   20.4720 C   0  0  0  0  0  2  0  0  0  0  0  0
  -19.5310  -27.4230   22.7770 C   0  0  0  0  0  0  0  0  0  0  0  0
  -18.8230  -28.2830   23.6460 C   0  0  0  0  0  3  0  0  0  0  0  0
  -17.6490  -28.9290   23.2170 C   0  0  0  0  0  3  0  0  0  0  0  0
  -17.1620  -28.7130   21.9170 C   0  0  0  0  0  3  0  0  0  0  0  0
  -17.8550  -27.8570   21.0430 C   0  0  0  0  0  3  0  0  0  0  0  0
  -25.4570  -27.6610   28.2990 C   0  0  0  0  0  3  0  0  0  0  0  0
  -24.7710  -27.7810   29.5950 N   0  0  0  0  0  0  0  0  0  0  0  0
  -24.9590  -28.7790   30.4680 C   0  0  0  0  0  0  0  0  0  0  0  0
  -25.7920  -29.6720   30.2900 O   0  0  0  0  0  0  0  0  0  0  0  0
  -24.0340  -27.1160   29.7790 H   0  0  0  0  0  0  0  0  0  0  0  0
  -22.9280  -29.7820   31.5630 C   0  0  0  0  0  1  0  0  0  0  0  0
  -24.0870  -28.7880   31.7390 C   0  0  0  0  0  3  0  0  0  0  0  0
  -25.7890  -28.0790   33.3610 C   0  0  0  0  0  1  0  0  0  0  0  0
  -24.8410  -29.1200   32.9670 N   0  0  0  0  0  0  0  0  0  0  0  0
  -24.2090  -29.2840   33.7450 H   0  0  0  0  0  0  0  0  0  0  0  0
  -26.0640  -26.2140   28.1290 C   0  0  1  0  0  0  0  0  0  0  0  0
  -24.9970  -25.1000   28.0130 C   0  0  0  0  0  1  0  0  0  0  0  0
  -26.9620  -26.1380   26.8720 C   0  0  0  0  0  1  0  0  0  0  0  0
  -26.9700  -25.8810   29.3370 C   0  0  0  0  0  1  0  0  0  0  0  0
  -30.0030  -21.4230   18.8950 C   0  0  0  0  0  2  0  0  0  0  0  0
  -28.9560  -18.6800   15.5000 C   0  0  0  0  0  3  0  0  0  0  0  0
  -30.6800  -19.6650   16.8900 C   0  0  0  0  0  3  0  0  0  0  0  0
  -27.9770  -19.4120   16.1940 C   0  0  0  0  0  0  0  0  0  0  0  0
  -29.6830  -20.4670   17.6310 C   0  0  0  0  0  0  0  0  0  0  0  0
  -30.3270  -18.7370   15.8110 C   0  0  0  0  0  0  0  0  0  0  0  0
  -28.3250  -20.2670   17.2630 C   0  0  0  0  0  0  0  0  0  0  0  0
  -26.5190  -19.2280   15.8040 C   0  0  0  0  0  1  0  0  0  0  0  0
  -27.0280  -20.9860   18.1610 Cl  0  0  0  0  0  0  0  0  0  0  0  0
  -32.3170  -17.4090   14.5590 C   0  0  0  0  0  0  0  0  0  0  0  0
  -33.6680  -17.1260   12.4540 C   0  0  0  0  0  2  0  0  0  0  0  0
  -33.7860  -18.4930   11.7370 C   0  0  0  0  0  2  0  0  0  0  0  0
  -32.5670  -18.7500   10.8300 C   0  0  0  0  0  2  0  0  0  0  0  0
  -31.2250  -18.4460   11.5450 C   0  0  0  0  0  3  0  0  0  0  0  0
  -31.2670  -17.0780   12.2640 C   0  0  0  0  0  2  0  0  0  0  0  0
  -32.3930  -17.1010   13.2130 N   0  0  0  0  0  0  0  0  0  0  0  0
  -33.3370  -17.4020   15.2560 O   0  0  0  0  0  0  0  0  0  0  0  0
  -31.0590  -17.6620   15.0750 N   0  0  0  0  0  0  0  0  0  0  0  0
  -30.4260  -17.2450   14.4070 H   0  0  0  0  0  0  0  0  0  0  0  0
  -28.9510  -19.3420   10.7550 C   0  0  0  0  0  0  0  0  0  0  0  0
  -28.2280  -19.1350    9.6140 C   0  0  0  0  0  0  0  0  0  0  0  0
  -28.9910  -18.2210    8.8240 C   0  0  0  0  0  0  0  0  0  0  0  0
  -30.0880  -18.5570   10.6370 N   0  0  0  0  0  0  0  0  0  0  0  0
  -30.0770  -17.8370    9.4850 N   0  0  0  0  0  0  0  0  0  0  0  0
  -28.7770  -17.7370    7.4550 C   0  0  0  0  0  0  0  0  0  0  0  0
  -28.7780  -16.3570    7.1510 C   0  0  0  0  0  3  0  0  0  0  0  0
  -28.5520  -15.9150    5.8300 C   0  0  0  0  0  3  0  0  0  0  0  0
  -28.3160  -16.8540    4.7980 C   0  0  0  0  0  0  0  0  0  0  0  0
  -28.3360  -18.2270    5.1020 C   0  0  0  0  0  3  0  0  0  0  0  0
  -28.5670  -18.6660    6.4160 C   0  0  0  0  0  3  0  0  0  0  0  0
  -28.1130  -16.5160    3.4820 O   0  0  0  0  0  0  0  0  0  0  0  0
  -27.5820  -15.3020    3.1230 C   0  0  0  0  0  0  0  0  0  0  0  0
  -26.3140  -14.8820    3.5790 C   0  0  0  0  0  3  0  0  0  0  0  0
  -25.7740  -13.6590    3.1300 C   0  0  0  0  0  3  0  0  0  0  0  0
  -26.4960  -12.8630    2.2210 C   0  0  0  0  0  0  0  0  0  0  0  0
  -27.7570  -13.2820    1.7630 C   0  0  0  0  0  3  0  0  0  0  0  0
  -28.2960  -14.5010    2.2090 C   0  0  0  0  0  0  0  0  0  0  0  0
  -29.5030  -14.9110    1.7480 F   0  0  0  0  0  0  0  0  0  0  0  0
  -25.9750  -11.6920    1.7830 F   0  0  0  0  0  0  0  0  0  0  0  0
  -26.9520  -19.8270    9.2300 C   0  0  0  0  0  0  0  0  0  0  0  0
  -26.0950  -19.1570    8.4670 N   0  0  0  0  0  0  0  0  0  0  0  0
  -26.6860  -20.9540    9.6500 O   0  0  0  0  0  0  0  0  0  0  0  0
  -26.3020  -18.2250    8.1410 H   0  0  0  0  0  0  0  0  0  0  0  0
  -25.2160  -19.5840    8.2060 H   0  0  0  0  0  0  0  0  0  0  0  0
  -28.7500  -20.1510   11.8660 N   0  0  0  0  0  0  0  0  0  0  0  0
  -27.9600  -20.7830   11.9210 H   0  0  0  0  0  0  0  0  0  0  0  0
  -29.4390  -20.3150   12.5900 H   0  0  0  0  0  0  0  0  0  0  0  0
  1  6  1  0
  1  8  2  0
  2  4  1  0
  3  5  1  0
  3  2  1  0
  4  6  1  0
  5  7  1  0
  6  9  1  0
  7  1  1  0
  9 11  1  0
 10 21  2  0
 11 16  1  0
 12 22  1  0
 12 20  1  0
 13 19  1  0
 13 15  1  0
 14 20  1  0
 15 14  1  0
 16 15  2  0
 17 18  1  0
 17 11  2  0
 18 13  2  0
 19 12  1  0
 20 10  1  0
 22 24  2  0
 23 22  1  0
 25 23  1  0
 26 31  1  0
 27 23  1  0
 28 27  1  0
 29 28  1  0
 30 29  1  0
 30 26  1  0
 31 27  1  0
 31 32  2  0
 33 32  1  0
 34 33  2  0
 35 26  2  0
 35 34  1  0
 36 10  1  0
 36 37  1  0
 37 40  1  0
 37 38  1  0
 38 42  1  0
 39 38  2  0
 42 41  1  0
 42 44  1  0
 44 43  1  0
 44 45  1  0
 46 36  1  0
 46 49  1  1
 47 46  1  0
 48 46  1  0
 50  7  1  0
 51 55  2  0
 51 53  1  0
 52 54  2  0
 53 56  2  0
 54 50  1  0
 55 52  1  0
 56 54  1  0
 56 58  1  0
 57 53  1  0
 59 67  1  0
 59 66  2  0
 60 65  1  0
 61 60  1  0
 62 63  1  0
 62 61  1  0
 63 72  1  0
 63 64  1  0
 64 65  1  0
 65 59  1  0
 67 55  1  0
 68 67  1  0
 69 94  1  0
 70 69  2  0
 71 73  2  0
 71 70  1  0
 72 69  1  0
 73 72  1  0
 74 71  1  0
 75 74  1  0
 76 75  2  0
 77 78  2  0
 77 76  1  0
 78 79  1  0
 79 74  2  0
 80 77  1  0
 81 80  1  0
 81 82  1  0
 83 82  2  0
 84 83  1  0
 85 86  1  0
 85 84  2  0
 86 81  2  0
 87 86  1  0
 88 84  1  0
 89 70  1  0
 89 91  2  0
 90 89  1  0
 92 90  1  0
 93 90  1  0
 94 95  1  0
 94 96  1  0
M  ISO  4   6 101   9 101  59 100  67 100
M  END
>  <TORSDO>  (10) 
F 18

>  <SCORE>  (10) 
-3.784

>  <name>  (10) 
9

>  <ligand_id>  (10) 
9

>  <original_smiles>  (10) 
[H]c1c([H])c([H])c2c(c1[H])C([H])([H])C([H])([H])C([H])([H])C2([H])N([H])C(=O)C1([H])N(C(=O)C([H])(N([H])C(=O)C([H])(N([H])C([H])([H])[H])C([H])([H])[H])C(C([H])([H])[H])(C([H])([H])[H])C([H])([H])[H])C([H])([H])c2c([H])c(OC3([H])C(=O)N(C([H])([H])c4c([H])c(N([H])C(=O)N5C([H])([H])C([H])([H])C([H])([H])C([H])(n6nc(-c7c([H])c([H])c(Oc8c([H])c([H])c(F)c([H])c8F)c([H])c7[H])c(C(=O)N([H])[H])c6N([H])[H])C5([H])[H])c([H])c(C([H])([H])[H])c4Cl)C([H])([H])C([H])([H])C([H])([H])C3([H])[H])c([H])c([H])c2C1([H])[H]

>  <smiles>  (10) 
[H]c1c([H])c([H])c2c(c1[H])C([H])([H])C([H])([H])C([H])([H])C2([H])N([H])C(=O)C1([H])N(C(=O)C([H])(N([H])C(=O)C([H])(N([H])C([H])([H])[H])C([H])([H])[H])C(C([H])([H])[H])(C([H])([H])[H])C([H])([H])[H])C([H])([H])c2c([H])c(OC3([H])C(=O)N(C([H])([H])c4c([H])c(N([H])C(=O)N5C([H])([H])C([H])([H])C([H])([H])C([H])(n6nc(-c7c([H])c([H])c(Oc8c([H])c([H])c(F)c([H])c8F)c([H])c7[H])c(C(=O)N([H])[H])c6N([H])[H])C5([H])[H])c([H])c(C([H])([H])[H])c4Cl)C([H])([H])C([H])([H])C([H])([H])C3([H])[H])c([H])c([H])c2C1([H])[H]

$$$$
10:0:0
     RDKit          3D

 95104  0  0  1  0  0  0  0  0999 V2000
  -28.8540  -23.7330   20.2510 C   0  0  0  0  0  0  0  0  0  0  0  0
  -27.1120  -23.6080   22.5510 C   0  0  0  0  0  2  0  0  0  0  0  0
  -26.7900  -24.7150   21.5330 C   0  0  0  0  0  2  0  0  0  0  0  0
  -27.6010  -22.3070   21.8570 C   0  0  0  0  0  2  0  0  0  0  0  0
  -28.0950  -25.0770   20.7880 C   0  0  0  0  0  3  0  0  0  0  0  0
  -28.6940  -22.4780   20.8760 N   0  0  0  0  0  0  0  0  0  0  0  0
  -29.6430  -23.8640   19.3080 O   0  0  0  0  0  0  0  0  0  0  0  0
  -28.1410  -26.3730   19.9840 O   0  0  0  0  0  0  0  0  0  0  0  0
  -24.5690  -31.9070   23.1010 C   0  0  0  0  0  0  0  0  0  0  0  0
  -27.0670  -27.2920   20.0080 C   0  0  0  0  0  0  0  0  0  0  0  0
  -23.3290  -30.5340   21.4710 C   0  0  0  0  0  3  0  0  0  0  0  0
  -24.7440  -28.9880   19.9970 C   0  0  0  0  0  0  0  0  0  0  0  0
  -25.8720  -30.8170   21.2520 C   0  0  0  0  0  2  0  0  0  0  0  0
  -25.9280  -29.4400   20.5930 C   0  0  0  0  0  0  0  0  0  0  0  0
  -27.0960  -28.6090   20.5790 C   0  0  0  0  0  3  0  0  0  0  0  0
  -25.8670  -26.9080   19.3730 C   0  0  0  0  0  3  0  0  0  0  0  0
  -24.7230  -27.7320   19.3630 C   0  0  0  0  0  3  0  0  0  0  0  0
  -23.5180  -29.8830   20.0760 C   0  0  0  0  0  2  0  0  0  0  0  0
  -24.6120  -31.1060   21.9980 N   0  0  0  0  0  0  0  0  0  0  0  0
  -23.4970  -32.1870   23.6580 O   0  0  0  0  0  0  0  0  0  0  0  0
  -22.6830  -29.5060   22.4310 C   0  0  0  0  0  0  0  0  0  0  0  0
  -21.3530  -29.3430   22.3350 N   0  0  0  0  0  0  0  0  0  0  0  0
  -23.3750  -28.8660   23.2260 O   0  0  0  0  0  0  0  0  0  0  0  0
  -20.8540  -29.9130   21.6660 H   0  0  0  0  0  0  0  0  0  0  0  0
  -17.9740  -28.1870   22.9130 C   0  0  0  0  0  0  0  0  0  0  0  0
  -20.5410  -28.4080   23.1160 C   0  0  0  0  0  3  0  0  0  0  0  0
  -20.6070  -26.9830   22.5190 C   0  0  0  0  0  2  0  0  0  0  0  0
  -19.4740  -26.6930   21.5280 C   0  0  0  0  0  2  0  0  0  0  0  0
  -18.1140  -26.8430   22.2160 C   0  0  0  0  0  2  0  0  0  0  0  0
  -19.1140  -28.9270   23.3220 C   0  0  0  0  0  0  0  0  0  0  0  0
  -18.9300  -30.1840   23.9380 C   0  0  0  0  0  3  0  0  0  0  0  0
  -17.6370  -30.6990   24.1490 C   0  0  0  0  0  3  0  0  0  0  0  0
  -16.5110  -29.9560   23.7550 C   0  0  0  0  0  3  0  0  0  0  0  0
  -16.6800  -28.7010   23.1430 C   0  0  0  0  0  3  0  0  0  0  0  0
  -25.8650  -32.5300   23.7060 C   0  0  0  0  0  3  0  0  0  0  0  0
  -26.4200  -31.7270   24.9470 C   0  0  1  0  0  0  0  0  0  0  0  0
  -25.3610  -31.4520   26.0410 C   0  0  0  0  0  1  0  0  0  0  0  0
  -26.9980  -30.3610   24.5040 C   0  0  0  0  0  1  0  0  0  0  0  0
  -27.5840  -32.5120   25.5960 C   0  0  0  0  0  1  0  0  0  0  0  0
  -25.5550  -33.9160   24.0850 N   0  0  0  0  0  0  0  0  0  0  0  0
  -25.8790  -34.9960   23.3580 C   0  0  0  0  0  0  0  0  0  0  0  0
  -26.5410  -34.9280   22.3190 O   0  0  0  0  0  0  0  0  0  0  0  0
  -24.9640  -34.0430   24.8910 H   0  0  0  0  0  0  0  0  0  0  0  0
  -24.1510  -36.8020   23.0700 C   0  0  0  0  0  1  0  0  0  0  0  0
  -25.3930  -36.3670   23.8640 C   0  0  0  0  0  3  0  0  0  0  0  0
  -27.5310  -37.2190   24.7200 C   0  0  0  0  0  1  0  0  0  0  0  0
  -26.4250  -37.4240   23.7870 N   0  0  0  0  0  0  0  0  0  0  0  0
  -26.0210  -38.3360   23.9710 H   0  0  0  0  0  0  0  0  0  0  0  0
  -29.5600  -21.1780   20.7610 C   0  0  0  0  0  2  0  0  0  0  0  0
  -28.1680  -19.5930   17.5760 C   0  0  0  0  0  3  0  0  0  0  0  0
  -28.8630  -18.3950   17.4130 C   0  0  0  0  0  3  0  0  0  0  0  0
  -28.3640  -20.3650   18.7290 C   0  0  0  0  0  3  0  0  0  0  0  0
  -29.6400  -17.8820   18.4700 C   0  0  0  0  0  0  0  0  0  0  0  0
  -29.2070  -19.9510   19.7880 C   0  0  0  0  0  0  0  0  0  0  0  0
  -29.7130  -18.5390   19.7490 C   0  0  0  0  0  0  0  0  0  0  0  0
  -30.4440  -16.6270   18.1260 C   0  0  0  0  0  1  0  0  0  0  0  0
  -30.3330  -17.6600   20.9430 C   0  0  0  0  0  2  0  0  0  0  0  0
  -30.9030  -14.9830   20.9610 C   0  0  0  0  0  0  0  0  0  0  0  0
  -30.8420  -12.6460   20.0310 C   0  0  0  0  0  2  0  0  0  0  0  0
  -30.0330  -12.5820   18.7110 C   0  0  0  0  0  2  0  0  0  0  0  0
  -28.5250  -12.4210   18.9840 C   0  0  0  0  0  2  0  0  0  0  0  0
  -28.0160  -13.3960   20.0810 C   0  0  0  0  0  3  0  0  0  0  0  0
  -28.9470  -13.3810   21.3130 C   0  0  0  0  0  2  0  0  0  0  0  0
  -30.2980  -13.7460   20.8630 N   0  0  0  0  0  0  0  0  0  0  0  0
  -32.1260  -15.0660   20.7910 O   0  0  0  0  0  0  0  0  0  0  0  0
  -30.0980  -16.1200   21.0260 N   0  0  0  0  0  0  0  0  0  0  0  0
  -29.1250  -15.8750   21.1040 H   0  0  0  0  0  0  0  0  0  0  0  0
  -25.5740  -14.0190   20.5600 C   0  0  0  0  0  0  0  0  0  0  0  0
  -24.4730  -13.2630   20.8630 C   0  0  0  0  0  0  0  0  0  0  0  0
  -24.9290  -11.9140   20.9240 C   0  0  0  0  0  0  0  0  0  0  0  0
  -26.6280  -13.1290   20.4510 N   0  0  0  0  0  0  0  0  0  0  0  0
  -26.2420  -11.8600   20.7410 N   0  0  0  0  0  0  0  0  0  0  0  0
  -24.1780  -10.6600   21.0930 C   0  0  0  0  0  0  0  0  0  0  0  0
  -24.5260   -9.7220   22.0880 C   0  0  0  0  0  3  0  0  0  0  0  0
  -23.7840   -8.5300   22.2440 C   0  0  0  0  0  3  0  0  0  0  0  0
  -22.6750   -8.2700   21.4050 C   0  0  0  0  0  0  0  0  0  0  0  0
  -22.3470   -9.1940   20.3980 C   0  0  0  0  0  3  0  0  0  0  0  0
  -23.0900  -10.3770   20.2400 C   0  0  0  0  0  3  0  0  0  0  0  0
  -21.9160   -7.1260   21.4610 O   0  0  0  0  0  0  0  0  0  0  0  0
  -21.7750   -6.4130   22.6250 C   0  0  0  0  0  0  0  0  0  0  0  0
  -21.2810   -7.0010   23.8080 C   0  0  0  0  0  3  0  0  0  0  0  0
  -21.0940   -6.2140   24.9610 C   0  0  0  0  0  3  0  0  0  0  0  0
  -21.3830   -4.8370   24.9310 C   0  0  0  0  0  0  0  0  0  0  0  0
  -21.8800   -4.2480   23.7550 C   0  0  0  0  0  3  0  0  0  0  0  0
  -22.0710   -5.0350   22.6030 C   0  0  0  0  0  0  0  0  0  0  0  0
  -22.5230   -4.4570   21.4640 F   0  0  0  0  0  0  0  0  0  0  0  0
  -21.1970   -4.0800   26.0360 F   0  0  0  0  0  0  0  0  0  0  0  0
  -23.0560  -13.7510   20.9800 C   0  0  0  0  0  0  0  0  0  0  0  0
  -22.2440  -13.0880   21.7980 N   0  0  0  0  0  0  0  0  0  0  0  0
  -22.6780  -14.7540   20.3750 O   0  0  0  0  0  0  0  0  0  0  0  0
  -22.5560  -12.2710   22.3030 H   0  0  0  0  0  0  0  0  0  0  0  0
  -21.2940  -13.4090   21.9300 H   0  0  0  0  0  0  0  0  0  0  0  0
  -25.7670  -15.3800   20.3470 N   0  0  0  0  0  0  0  0  0  0  0  0
  -25.0020  -16.0470   20.3640 H   0  0  0  0  0  0  0  0  0  0  0  0
  -26.6180  -15.7820   19.9850 H   0  0  0  0  0  0  0  0  0  0  0  0
  1  5  1  0
  1  6  1  0
  3  2  1  0
  4  2  1  0
  5  8  1  0
  5  3  1  0
  6  4  1  0
  7  1  2  0
  8 10  1  0
  9 20  2  0
 10 15  1  0
 11 19  1  0
 11 21  1  0
 12 18  1  0
 12 14  1  0
 13 19  1  0
 14 13  1  0
 15 14  2  0
 16 10  2  0
 17 16  1  0
 17 12  2  0
 18 11  1  0
 19  9  1  0
 21 23  2  0
 22 21  1  0
 24 22  1  0
 25 34  2  0
 25 30  1  0
 26 22  1  0
 26 30  1  0
 27 26  1  0
 28 29  1  0
 28 27  1  0
 29 25  1  0
 30 31  2  0
 31 32  1  0
 33 32  2  0
 34 33  1  0
 35  9  1  0
 35 40  1  0
 35 36  1  0
 36 39  1  1
 36 37  1  0
 38 36  1  0
 40 43  1  0
 41 45  1  0
 41 40  1  0
 42 41  2  0
 45 44  1  0
 47 45  1  0
 47 48  1  0
 47 46  1  0
 49  6  1  0
 50 52  1  0
 51 50  2  0
 51 53  1  0
 52 54  2  0
 53 55  2  0
 54 49  1  0
 55 54  1  0
 55 57  1  0
 56 53  1  0
 57 66  1  0
 58 66  1  0
 59 64  1  0
 60 61  1  0
 60 59  1  0
 62 61  1  0
 62 71  1  0
 62 63  1  0
 64 58  1  0
 64 63  1  0
 65 58  2  0
 66 67  1  0
 68 69  2  0
 69 70  1  0
 69 88  1  0
 70 73  1  0
 71 68  1  0
 71 72  1  0
 72 70  2  0
 73 74  1  0
 74 75  2  0
 76 79  1  0
 76 75  1  0
 77 76  2  0
 78 77  1  0
 78 73  2  0
 79 80  1  0
 80 81  1  0
 81 82  2  0
 83 82  1  0
 83 87  1  0
 84 83  2  0
 85 80  2  0
 85 84  1  0
 86 85  1  0
 88 89  1  0
 89 92  1  0
 89 91  1  0
 90 88  2  0
 93 94  1  0
 93 68  1  0
 95 93  1  0
M  ISO  4   5 101   8 101  58 100  66 100
M  END
>  <TORSDO>  (11) 
F 19

>  <SCORE>  (11) 
-13.119

>  <name>  (11) 
10

>  <ligand_id>  (11) 
10

>  <original_smiles>  (11) 
[H]c1c([H])c(C([H])([H])[H])c(C([H])([H])N([H])C(=O)N2C([H])([H])C([H])([H])C([H])([H])C([H])(n3nc(-c4c([H])c([H])c(Oc5c([H])c([H])c(F)c([H])c5F)c([H])c4[H])c(C(=O)N([H])[H])c3N([H])[H])C2([H])[H])c(C([H])([H])N2C(=O)C([H])(Oc3c([H])c([H])c4c(c3[H])C([H])([H])N(C(=O)C([H])(N([H])C(=O)C([H])(N([H])C([H])([H])[H])C([H])([H])[H])C(C([H])([H])[H])(C([H])([H])[H])C([H])([H])[H])C([H])(C(=O)N([H])C3([H])c5c([H])c([H])c([H])c([H])c5C([H])([H])C([H])([H])C3([H])[H])C4([H])[H])C([H])([H])C([H])([H])C2([H])[H])c1[H]

>  <smiles>  (11) 
[H]c1c([H])c(C([H])([H])[H])c(C([H])([H])N([H])C(=O)N2C([H])([H])C([H])([H])C([H])([H])C([H])(n3nc(-c4c([H])c([H])c(Oc5c([H])c([H])c(F)c([H])c5F)c([H])c4[H])c(C(=O)N([H])[H])c3N([H])[H])C2([H])[H])c(C([H])([H])N2C(=O)C([H])(Oc3c([H])c([H])c4c(c3[H])C([H])([H])N(C(=O)C([H])(N([H])C(=O)C([H])(N([H])C([H])([H])[H])C([H])([H])[H])C(C([H])([H])[H])(C([H])([H])[H])C([H])([H])[H])C([H])(C(=O)N([H])C3([H])c5c([H])c([H])c([H])c([H])c5C([H])([H])C([H])([H])C3([H])[H])C4([H])[H])C([H])([H])C([H])([H])C2([H])[H])c1[H]

$$$$
11:0:0
     RDKit          3D

 99108  0  0  1  0  0  0  0  0999 V2000
  -30.5720  -21.8010   20.3040 C   0  0  0  0  0  2  0  0  0  0  0  0
  -29.4680  -24.1170   20.3130 C   0  0  0  0  0  0  0  0  0  0  0  0
  -26.8700  -23.5680   18.3680 C   0  0  0  0  0  2  0  0  0  0  0  0
  -27.6080  -22.2440   18.5710 C   0  0  0  0  0  2  0  0  0  0  0  0
  -27.7930  -24.7940   18.5040 C   0  0  0  0  0  2  0  0  0  0  0  0
  -28.0860  -22.0630   20.0200 C   0  0  0  0  0  2  0  0  0  0  0  0
  -28.2300  -25.0640   19.9710 C   0  0  0  0  0  3  0  0  0  0  0  0
  -29.3720  -22.7290   20.2560 N   0  0  0  0  0  0  0  0  0  0  0  0
  -30.5410  -24.6620   20.5910 O   0  0  0  0  0  0  0  0  0  0  0  0
  -28.4240  -26.5310   20.2000 O   0  0  0  0  0  0  0  0  0  0  0  0
  -24.7430  -31.9300   23.3420 C   0  0  0  0  0  0  0  0  0  0  0  0
  -27.2970  -27.3890   20.2020 C   0  0  0  0  0  0  0  0  0  0  0  0
  -23.5200  -30.5740   21.6870 C   0  0  0  0  0  3  0  0  0  0  0  0
  -24.9440  -29.0380   20.2370 C   0  0  0  0  0  0  0  0  0  0  0  0
  -26.0650  -30.8710   21.4930 C   0  0  0  0  0  2  0  0  0  0  0  0
  -26.1300  -29.5050   20.8170 C   0  0  0  0  0  0  0  0  0  0  0  0
  -27.3120  -28.7010   20.7760 C   0  0  0  0  0  3  0  0  0  0  0  0
  -26.0590  -26.9640   19.6580 C   0  0  0  0  0  3  0  0  0  0  0  0
  -24.9080  -27.7660   19.6570 C   0  0  0  0  0  3  0  0  0  0  0  0
  -23.7220  -29.9290   20.2960 C   0  0  0  0  0  2  0  0  0  0  0  0
  -24.7960  -31.1410   22.2290 N   0  0  0  0  0  0  0  0  0  0  0  0
  -23.6640  -32.2070   23.8860 O   0  0  0  0  0  0  0  0  0  0  0  0
  -22.8520  -29.5440   22.6300 C   0  0  0  0  0  0  0  0  0  0  0  0
  -21.5310  -29.3420   22.4720 N   0  0  0  0  0  0  0  0  0  0  0  0
  -23.5230  -28.9260   23.4630 O   0  0  0  0  0  0  0  0  0  0  0  0
  -21.0510  -29.8890   21.7720 H   0  0  0  0  0  0  0  0  0  0  0  0
  -18.1730  -28.0570   22.8690 C   0  0  0  0  0  0  0  0  0  0  0  0
  -20.7110  -28.3950   23.2280 C   0  0  0  0  0  3  0  0  0  0  0  0
  -20.8750  -26.9580   22.6800 C   0  0  0  0  0  2  0  0  0  0  0  0
  -19.8190  -26.5890   21.6330 C   0  0  0  0  0  2  0  0  0  0  0  0
  -18.4110  -26.7040   22.2210 C   0  0  0  0  0  2  0  0  0  0  0  0
  -19.2530  -28.8570   23.3290 C   0  0  0  0  0  0  0  0  0  0  0  0
  -18.9760  -30.1220   23.8940 C   0  0  0  0  0  3  0  0  0  0  0  0
  -17.6530  -30.5890   24.0020 C   0  0  0  0  0  3  0  0  0  0  0  0
  -16.5870  -29.7880   23.5580 C   0  0  0  0  0  3  0  0  0  0  0  0
  -16.8470  -28.5240   22.9970 C   0  0  0  0  0  3  0  0  0  0  0  0
  -26.0320  -32.5410   23.9680 C   0  0  0  0  0  3  0  0  0  0  0  0
  -26.5660  -31.7230   25.2080 C   0  0  1  0  0  0  0  0  0  0  0  0
  -25.4820  -31.4360   26.2760 C   0  0  0  0  0  1  0  0  0  0  0  0
  -27.1510  -30.3640   24.7570 C   0  0  0  0  0  1  0  0  0  0  0  0
  -27.7190  -32.4970   25.8840 C   0  0  0  0  0  1  0  0  0  0  0  0
  -25.7230  -33.9250   24.3560 N   0  0  0  0  0  0  0  0  0  0  0  0
  -26.0270  -35.0060   23.6260 C   0  0  0  0  0  0  0  0  0  0  0  0
  -26.6670  -34.9420   22.5730 O   0  0  0  0  0  0  0  0  0  0  0  0
  -25.1420  -34.0450   25.1750 H   0  0  0  0  0  0  0  0  0  0  0  0
  -24.2700  -36.7890   23.3980 C   0  0  0  0  0  1  0  0  0  0  0  0
  -25.5470  -36.3760   24.1460 C   0  0  0  0  0  3  0  0  0  0  0  0
  -27.7070  -37.2520   24.9140 C   0  0  0  0  0  1  0  0  0  0  0  0
  -26.5670  -37.4400   24.0230 N   0  0  0  0  0  0  0  0  0  0  0  0
  -26.1620  -38.3530   24.2100 H   0  0  0  0  0  0  0  0  0  0  0  0
  -30.2410  -19.4160   19.2990 C   0  0  0  0  0  3  0  0  0  0  0  0
  -30.2180  -17.9950   19.3550 C   0  0  0  0  0  3  0  0  0  0  0  0
  -30.4580  -20.2220   20.4450 C   0  0  0  0  0  0  0  0  0  0  0  0
  -30.6650  -19.5170   21.6720 C   0  0  0  0  0  0  0  0  0  0  0  0
  -30.6510  -18.0660   21.7400 C   0  0  0  0  0  0  0  0  0  0  0  0
  -30.4010  -17.2730   20.5620 C   0  0  0  0  0  0  0  0  0  0  0  0
  -30.9390  -20.3700   22.9110 C   0  0  0  0  0  1  0  0  0  0  0  0
  -30.8970  -14.7700   20.0260 C   0  0  0  0  0  0  0  0  0  0  0  0
  -30.6110  -12.5380   18.9550 C   0  0  0  0  0  2  0  0  0  0  0  0
  -29.6080  -12.6460   17.7840 C   0  0  0  0  0  2  0  0  0  0  0  0
  -28.1560  -12.4910   18.2840 C   0  0  0  0  0  2  0  0  0  0  0  0
  -27.8600  -13.3580   19.5370 C   0  0  0  0  0  3  0  0  0  0  0  0
  -28.9720  -13.2220   20.6040 C   0  0  0  0  0  2  0  0  0  0  0  0
  -30.2570  -13.5580   19.9660 N   0  0  0  0  0  0  0  0  0  0  0  0
  -32.0060  -14.9300   19.5060 O   0  0  0  0  0  0  0  0  0  0  0  0
  -30.2080  -15.8110   20.5930 N   0  0  0  0  0  0  0  0  0  0  0  0
  -29.4030  -15.5080   21.1260 H   0  0  0  0  0  0  0  0  0  0  0  0
  -25.5230  -13.9530   20.4100 C   0  0  0  0  0  0  0  0  0  0  0  0
  -24.4750  -13.1760   20.8210 C   0  0  0  0  0  0  0  0  0  0  0  0
  -24.9220  -11.8220   20.7280 C   0  0  0  0  0  0  0  0  0  0  0  0
  -26.5420  -13.0720   20.0920 N   0  0  0  0  0  0  0  0  0  0  0  0
  -26.1920  -11.7830   20.3430 N   0  0  0  0  0  0  0  0  0  0  0  0
  -24.1950  -10.5620   20.9240 C   0  0  0  0  0  0  0  0  0  0  0  0
  -24.6250   -9.6000   21.8640 C   0  0  0  0  0  3  0  0  0  0  0  0
  -23.8960   -8.4070   22.0490 C   0  0  0  0  0  3  0  0  0  0  0  0
  -22.7210   -8.1660   21.2980 C   0  0  0  0  0  0  0  0  0  0  0  0
  -22.3110   -9.1180   20.3490 C   0  0  0  0  0  3  0  0  0  0  0  0
  -23.0410  -10.3030   20.1600 C   0  0  0  0  0  3  0  0  0  0  0  0
  -21.9650   -7.0240   21.3920 O   0  0  0  0  0  0  0  0  0  0  0  0
  -21.8490   -6.3370   22.5730 C   0  0  0  0  0  0  0  0  0  0  0  0
  -21.3720   -6.9510   23.7520 C   0  0  0  0  0  3  0  0  0  0  0  0
  -21.2000   -6.1860   24.9230 C   0  0  0  0  0  3  0  0  0  0  0  0
  -21.4960   -4.8090   24.9180 C   0  0  0  0  0  0  0  0  0  0  0  0
  -21.9630   -4.1950   23.7420 C   0  0  0  0  0  3  0  0  0  0  0  0
  -22.1360   -4.9570   22.5730 C   0  0  0  0  0  0  0  0  0  0  0  0
  -22.5680   -4.3570   21.4380 F   0  0  0  0  0  0  0  0  0  0  0  0
  -21.3240   -4.0730   26.0400 F   0  0  0  0  0  0  0  0  0  0  0  0
  -23.1020  -13.6570   21.1880 C   0  0  0  0  0  0  0  0  0  0  0  0
  -22.4340  -12.9560   22.0980 N   0  0  0  0  0  0  0  0  0  0  0  0
  -22.6350  -14.6870   20.7040 O   0  0  0  0  0  0  0  0  0  0  0  0
  -22.8220  -12.1180   22.5040 H   0  0  0  0  0  0  0  0  0  0  0  0
  -21.5230  -13.2690   22.4000 H   0  0  0  0  0  0  0  0  0  0  0  0
  -25.6830  -15.3290   20.2650 N   0  0  0  0  0  0  0  0  0  0  0  0
  -24.9170  -15.9690   20.4500 H   0  0  0  0  0  0  0  0  0  0  0  0
  -26.5110  -15.7940   19.9190 H   0  0  0  0  0  0  0  0  0  0  0  0
  -30.9380  -17.3860   23.1010 C   0  0  1  0  0  0  0  0  0  0  0  0
  -29.9020  -17.5540   23.9230 F   0  0  0  0  0  0  0  0  0  0  0  0
  -31.1740  -16.0780   23.0360 F   0  0  0  0  0  0  0  0  0  0  0  0
  -32.0220  -17.9220   23.6690 F   0  0  0  0  0  0  0  0  0  0  0  0
  1 53  1  0
  2  9  2  0
  3  5  1  0
  3  4  1  0
  4  6  1  0
  5  7  1  0
  6  8  1  0
  7 10  1  0
  7  2  1  0
  8  1  1  0
  8  2  1  0
 10 12  1  0
 11 22  2  0
 12 17  1  0
 13 21  1  0
 13 23  1  0
 14 20  1  0
 14 16  1  0
 15 21  1  0
 16 15  1  0
 17 16  2  0
 18 12  2  0
 19 18  1  0
 19 14  2  0
 20 13  1  0
 21 11  1  0
 23 25  2  0
 24 23  1  0
 26 24  1  0
 27 36  2  0
 27 32  1  0
 28 24  1  0
 28 32  1  0
 29 28  1  0
 30 31  1  0
 30 29  1  0
 31 27  1  0
 32 33  2  0
 33 34  1  0
 35 34  2  0
 36 35  1  0
 37 11  1  0
 37 42  1  0
 37 38  1  0
 38 41  1  1
 38 39  1  0
 40 38  1  0
 42 45  1  0
 43 47  1  0
 43 42  1  0
 44 43  2  0
 47 46  1  0
 49 47  1  0
 49 50  1  0
 49 48  1  0
 51 52  2  0
 51 53  1  0
 52 56  1  0
 53 54  2  0
 54 55  1  0
 54 57  1  0
 55 96  1  0
 56 66  1  0
 56 55  2  0
 58 66  1  0
 59 64  1  0
 60 61  1  0
 60 59  1  0
 62 61  1  0
 62 71  1  0
 62 63  1  0
 64 58  1  0
 64 63  1  0
 65 58  2  0
 66 67  1  0
 68 69  2  0
 69 88  1  0
 70 69  1  0
 70 73  1  0
 71 72  1  0
 71 68  1  0
 72 70  2  0
 73 74  1  0
 74 75  2  0
 76 79  1  0
 76 75  1  0
 77 76  2  0
 78 77  1  0
 78 73  2  0
 79 80  1  0
 80 85  2  0
 80 81  1  0
 81 82  2  0
 83 82  1  0
 83 87  1  0
 84 83  2  0
 85 84  1  0
 86 85  1  0
 88 89  1  0
 89 92  1  0
 89 91  1  0
 90 88  2  0
 93 68  1  0
 93 94  1  0
 95 93  1  0
 96 99  1  1
 96 97  1  0
 98 96  1  0
M  ISO  4   7 101  10 101  58 100  66 100
M  END
>  <TORSDO>  (12) 
F 19

>  <SCORE>  (12) 
-12.228

>  <name>  (12) 
11

>  <ligand_id>  (12) 
11

>  <original_smiles>  (12) 
[H]c1c([H])c([H])c2c(c1[H])C([H])([H])C([H])([H])C([H])([H])C2([H])N([H])C(=O)C1([H])N(C(=O)C([H])(N([H])C(=O)C([H])(N([H])C([H])([H])[H])C([H])([H])[H])C(C([H])([H])[H])(C([H])([H])[H])C([H])([H])[H])C([H])([H])c2c([H])c(OC3([H])C(=O)N(C([H])([H])c4c([H])c([H])c(N([H])C(=O)N5C([H])([H])C([H])([H])C([H])([H])C([H])(n6nc(-c7c([H])c([H])c(Oc8c([H])c([H])c(F)c([H])c8F)c([H])c7[H])c(C(=O)N([H])[H])c6N([H])[H])C5([H])[H])c(C(F)(F)F)c4C([H])([H])[H])C([H])([H])C([H])([H])C([H])([H])C3([H])[H])c([H])c([H])c2C1([H])[H]

>  <smiles>  (12) 
[H]c1c([H])c([H])c2c(c1[H])C([H])([H])C([H])([H])C([H])([H])C2([H])N([H])C(=O)C1([H])N(C(=O)C([H])(N([H])C(=O)C([H])(N([H])C([H])([H])[H])C([H])([H])[H])C(C([H])([H])[H])(C([H])([H])[H])C([H])([H])[H])C([H])([H])c2c([H])c(OC3([H])C(=O)N(C([H])([H])c4c([H])c([H])c(N([H])C(=O)N5C([H])([H])C([H])([H])C([H])([H])C([H])(n6nc(-c7c([H])c([H])c(Oc8c([H])c([H])c(F)c([H])c8F)c([H])c7[H])c(C(=O)N([H])[H])c6N([H])[H])C5([H])[H])c(C(F)(F)F)c4C([H])([H])[H])C([H])([H])C([H])([H])C([H])([H])C3([H])[H])c([H])c([H])c2C1([H])[H]

$$$$
12:0:0
     RDKit          3D

 95103  0  0  1  0  0  0  0  0999 V2000
  -29.8610  -20.4650   19.5500 C   0  0  0  0  0  2  0  0  0  0  0  0
  -32.5870  -17.7190   20.2690 C   0  0  0  0  0  3  0  0  0  0  0  0
  -33.6660  -19.8100   19.7010 C   0  0  0  0  0  3  0  0  0  0  0  0
  -33.7590  -18.4760   20.1170 C   0  0  0  0  0  0  0  0  0  0  0  0
  -31.3050  -18.2600   19.9980 C   0  0  0  0  0  0  0  0  0  0  0  0
  -31.2010  -19.6780   19.7040 C   0  0  0  0  0  0  0  0  0  0  0  0
  -32.4110  -20.4050   19.4960 C   0  0  0  0  0  0  0  0  0  0  0  0
  -35.1170  -17.8390   20.3420 C   0  0  0  0  0  1  0  0  0  0  0  0
  -32.4240  -22.0450   18.9390 Cl  0  0  0  0  0  0  0  0  0  0  0  0
  -30.1090  -17.2680   19.9280 C   0  0  0  0  0  2  0  0  0  0  0  0
  -30.9520  -14.8390   20.1920 C   0  0  0  0  0  0  0  0  0  0  0  0
  -30.8040  -12.4970   19.4160 C   0  0  0  0  0  2  0  0  0  0  0  0
  -29.8810  -12.4650   18.1790 C   0  0  0  0  0  2  0  0  0  0  0  0
  -28.4090  -12.3060   18.6060 C   0  0  0  0  0  2  0  0  0  0  0  0
  -28.0000  -13.2960   19.7310 C   0  0  0  0  0  3  0  0  0  0  0  0
  -29.0460  -13.3120   20.8720 C   0  0  0  0  0  2  0  0  0  0  0  0
  -30.3630  -13.6080   20.2810 N   0  0  0  0  0  0  0  0  0  0  0  0
  -32.0530  -14.9910   19.6640 O   0  0  0  0  0  0  0  0  0  0  0  0
  -30.1830  -15.9020   20.5410 N   0  0  0  0  0  0  0  0  0  0  0  0
  -29.3500  -15.6370   21.0440 H   0  0  0  0  0  0  0  0  0  0  0  0
  -25.6180  -13.8910   20.5010 C   0  0  0  0  0  0  0  0  0  0  0  0
  -24.5520  -13.1140   20.8690 C   0  0  0  0  0  0  0  0  0  0  0  0
  -25.0060  -11.7630   20.7950 C   0  0  0  0  0  0  0  0  0  0  0  0
  -26.6550  -13.0130   20.2290 N   0  0  0  0  0  0  0  0  0  0  0  0
  -26.2910  -11.7250   20.4610 N   0  0  0  0  0  0  0  0  0  0  0  0
  -24.2760  -10.4990   20.9640 C   0  0  0  0  0  0  0  0  0  0  0  0
  -24.6410   -9.5600   21.9540 C   0  0  0  0  0  3  0  0  0  0  0  0
  -23.9140   -8.3610   22.1090 C   0  0  0  0  0  3  0  0  0  0  0  0
  -22.8030   -8.0920   21.2740 C   0  0  0  0  0  0  0  0  0  0  0  0
  -22.4590   -9.0170   20.2730 C   0  0  0  0  0  3  0  0  0  0  0  0
  -23.1880  -10.2070   20.1160 C   0  0  0  0  0  3  0  0  0  0  0  0
  -22.0530   -6.9440   21.3370 O   0  0  0  0  0  0  0  0  0  0  0  0
  -21.7980   -6.3130   22.5290 C   0  0  0  0  0  0  0  0  0  0  0  0
  -21.1450   -6.9680   23.5950 C   0  0  0  0  0  3  0  0  0  0  0  0
  -20.8420   -6.2620   24.7760 C   0  0  0  0  0  3  0  0  0  0  0  0
  -21.1810   -4.9000   24.8910 C   0  0  0  0  0  0  0  0  0  0  0  0
  -21.8280   -4.2440   23.8270 C   0  0  0  0  0  3  0  0  0  0  0  0
  -22.1330   -4.9490   22.6490 C   0  0  0  0  0  0  0  0  0  0  0  0
  -22.7370   -4.3050   21.6210 F   0  0  0  0  0  0  0  0  0  0  0  0
  -20.8830   -4.2190   26.0210 F   0  0  0  0  0  0  0  0  0  0  0  0
  -23.1630  -13.5910   21.1810 C   0  0  0  0  0  0  0  0  0  0  0  0
  -22.4500  -12.8810   22.0490 N   0  0  0  0  0  0  0  0  0  0  0  0
  -22.7180  -14.6270   20.6890 O   0  0  0  0  0  0  0  0  0  0  0  0
  -22.8240  -12.0430   22.4680 H   0  0  0  0  0  0  0  0  0  0  0  0
  -21.5170  -13.1790   22.2970 H   0  0  0  0  0  0  0  0  0  0  0  0
  -25.7860  -15.2640   20.3550 N   0  0  0  0  0  0  0  0  0  0  0  0
  -25.0160  -15.9130   20.4780 H   0  0  0  0  0  0  0  0  0  0  0  0
  -26.6270  -15.7080   20.0100 H   0  0  0  0  0  0  0  0  0  0  0  0
  -29.8450  -21.8080   20.2400 N   0  0  0  0  0  4  0  0  0  0  0  0
  -30.7680  -22.1900   20.0930 H   0  0  0  0  0  0  0  0  0  0  0  0
  -29.7260  -21.6600   21.2300 H   0  0  0  0  0  0  0  0  0  0  0  0
  -28.8660  -22.8500   19.7660 C   0  0  0  0  0  2  0  0  0  0  0  0
  -29.1220  -24.3200   20.2980 C   0  0  0  0  0  3  0  0  0  0  0  0
  -28.0610  -25.3890   19.8520 C   0  0  0  0  0  3  0  0  0  0  0  0
  -28.2140  -26.7690   20.3250 O   0  0  0  0  0  0  0  0  0  0  0  0
  -24.6020  -32.1090   23.5130 C   0  0  0  0  0  0  0  0  0  0  0  0
  -27.0870  -27.6000   20.3140 C   0  0  0  0  0  0  0  0  0  0  0  0
  -23.3470  -30.7730   21.8600 C   0  0  0  0  0  3  0  0  0  0  0  0
  -24.7430  -29.2270   20.3870 C   0  0  0  0  0  0  0  0  0  0  0  0
  -25.8880  -31.0470   21.6510 C   0  0  0  0  0  2  0  0  0  0  0  0
  -25.9280  -29.6840   20.9780 C   0  0  0  0  0  0  0  0  0  0  0  0
  -27.1000  -28.8780   20.9410 C   0  0  0  0  0  3  0  0  0  0  0  0
  -25.8800  -27.1970   19.6910 C   0  0  0  0  0  3  0  0  0  0  0  0
  -24.7180  -27.9850   19.7390 C   0  0  0  0  0  3  0  0  0  0  0  0
  -23.5290  -30.1230   20.4630 C   0  0  0  0  0  2  0  0  0  0  0  0
  -24.6320  -31.3260   22.3980 N   0  0  0  0  0  0  0  0  0  0  0  0
  -23.5320  -32.3940   24.0720 O   0  0  0  0  0  0  0  0  0  0  0  0
  -22.6800  -29.7460   22.8060 C   0  0  0  0  0  0  0  0  0  0  0  0
  -21.3690  -29.5160   22.6200 N   0  0  0  0  0  0  0  0  0  0  0  0
  -23.3420  -29.1590   23.6650 O   0  0  0  0  0  0  0  0  0  0  0  0
  -20.8910  -30.0440   21.9030 H   0  0  0  0  0  0  0  0  0  0  0  0
  -18.0380  -28.1440   22.9200 C   0  0  0  0  0  0  0  0  0  0  0  0
  -20.5490  -28.5630   23.3700 C   0  0  0  0  0  3  0  0  0  0  0  0
  -20.7760  -27.1180   22.8730 C   0  0  0  0  0  2  0  0  0  0  0  0
  -19.7760  -26.6880   21.7940 C   0  0  0  0  0  2  0  0  0  0  0  0
  -18.3410  -26.7790   22.3230 C   0  0  0  0  0  2  0  0  0  0  0  0
  -19.0760  -28.9860   23.3980 C   0  0  0  0  0  0  0  0  0  0  0  0
  -18.7410  -30.2600   23.9100 C   0  0  0  0  0  3  0  0  0  0  0  0
  -17.4020  -30.6910   23.9510 C   0  0  0  0  0  3  0  0  0  0  0  0
  -16.3780  -29.8460   23.4910 C   0  0  0  0  0  3  0  0  0  0  0  0
  -16.6960  -28.5750   22.9800 C   0  0  0  0  0  3  0  0  0  0  0  0
  -25.9050  -32.7020   24.1290 C   0  0  0  0  0  3  0  0  0  0  0  0
  -25.6480  -34.1130   24.4410 N   0  0  0  0  0  0  0  0  0  0  0  0
  -26.0020  -35.1430   23.6600 C   0  0  0  0  0  0  0  0  0  0  0  0
  -26.6520  -35.0010   22.6200 O   0  0  0  0  0  0  0  0  0  0  0  0
  -25.0800  -34.3010   25.2540 H   0  0  0  0  0  0  0  0  0  0  0  0
  -24.3180  -36.9750   23.3110 C   0  0  0  0  0  1  0  0  0  0  0  0
  -25.5670  -36.5530   24.1010 C   0  0  0  0  0  3  0  0  0  0  0  0
  -27.7450  -37.3910   24.8650 C   0  0  0  0  0  1  0  0  0  0  0  0
  -26.6270  -37.5730   23.9420 N   0  0  0  0  0  0  0  0  0  0  0  0
  -26.2500  -38.5060   24.0810 H   0  0  0  0  0  0  0  0  0  0  0  0
  -26.3900  -31.9280   25.4170 C   0  0  1  0  0  0  0  0  0  0  0  0
  -25.2840  -31.7320   26.4780 C   0  0  0  0  0  1  0  0  0  0  0  0
  -26.9370  -30.5320   25.0390 C   0  0  0  0  0  1  0  0  0  0  0  0
  -27.5530  -32.6980   26.0840 C   0  0  0  0  0  1  0  0  0  0  0  0
  1  6  1  0
  1 49  1  0
  3  4  2  0
  4  2  1  0
  4  8  1  0
  5  2  2  0
  6  5  1  0
  7  3  1  0
  7  6  2  0
  9  7  1  0
 10  5  1  0
 10 19  1  0
 11 17  1  0
 11 19  1  0
 12 17  1  0
 13 14  1  0
 13 12  1  0
 15 14  1  0
 15 24  1  0
 15 16  1  0
 17 16  1  0
 18 11  2  0
 19 20  1  0
 21 22  2  0
 22 41  1  0
 23 22  1  0
 23 26  1  0
 24 25  1  0
 24 21  1  0
 25 23  2  0
 26 27  1  0
 27 28  2  0
 29 32  1  0
 29 28  1  0
 30 29  2  0
 31 30  1  0
 31 26  2  0
 32 33  1  0
 33 38  2  0
 33 34  1  0
 34 35  2  0
 35 36  1  0
 36 40  1  0
 37 36  2  0
 38 37  1  0
 39 38  1  0
 41 42  1  0
 42 45  1  0
 42 44  1  0
 43 41  2  0
 46 47  1  0
 46 21  1  0
 48 46  1  0
 49 51  1  0
 50 49  1  0
 52 49  1  0
 52 53  1  0
 54 53  2  0
 54 55  1  0
 56 67  2  0
 57 55  1  0
 57 62  1  0
 58 66  1  0
 58 68  1  0
 59 65  1  0
 59 61  1  0
 60 66  1  0
 61 60  1  0
 62 61  2  0
 63 64  1  0
 63 57  2  0
 64 59  2  0
 65 58  1  0
 66 56  1  0
 68 70  2  0
 69 68  1  0
 71 69  1  0
 72 81  2  0
 72 77  1  0
 73 69  1  0
 73 77  1  0
 74 73  1  0
 75 76  1  0
 75 74  1  0
 76 72  1  0
 77 78  2  0
 78 79  1  0
 80 79  2  0
 81 80  1  0
 82 56  1  0
 82 83  1  0
 82 92  1  0
 83 86  1  0
 84 88  1  0
 84 83  1  0
 85 84  2  0
 88 87  1  0
 90 91  1  0
 90 88  1  0
 90 89  1  0
 92 95  1  1
 92 93  1  0
 94 92  1  0
M  ISO  4  11 100  19 100  54 101  55 101
M  END
>  <TORSDO>  (13) 
F 22

>  <SCORE>  (13) 
-11.822

>  <name>  (13) 
12

>  <ligand_id>  (13) 
12

>  <original_smiles>  (13) 
[H]c1c([H])c([H])c2c(c1[H])C([H])([H])C([H])([H])C([H])([H])C2([H])N([H])C(=O)C1([H])N(C(=O)C([H])(N([H])C(=O)C([H])(N([H])C([H])([H])[H])C([H])([H])[H])C(C([H])([H])[H])(C([H])([H])[H])C([H])([H])[H])C([H])([H])c2c([H])c(OC([H])([H])C([H])([H])C([H])([H])[N+]([H])([H])C([H])([H])c3c(Cl)c([H])c(C([H])([H])[H])c([H])c3C([H])([H])N([H])C(=O)N3C([H])([H])C([H])([H])C([H])([H])C([H])(n4nc(-c5c([H])c([H])c(Oc6c([H])c([H])c(F)c([H])c6F)c([H])c5[H])c(C(=O)N([H])[H])c4N([H])[H])C3([H])[H])c([H])c([H])c2C1([H])[H]

>  <smiles>  (13) 
[H]c1c([H])c([H])c2c(c1[H])C([H])([H])C([H])([H])C([H])([H])C2([H])N([H])C(=O)C1([H])N(C(=O)C([H])(N([H])C(=O)C([H])(N([H])C([H])([H])[H])C([H])([H])[H])C(C([H])([H])[H])(C([H])([H])[H])C([H])([H])[H])C([H])([H])c2c([H])c(OC([H])([H])C([H])([H])C([H])([H])[N+]([H])([H])C([H])([H])c3c(Cl)c([H])c(C([H])([H])[H])c([H])c3C([H])([H])N([H])C(=O)N3C([H])([H])C([H])([H])C([H])([H])C([H])(n4nc(-c5c([H])c([H])c(Oc6c([H])c([H])c(F)c([H])c6F)c([H])c5[H])c(C(=O)N([H])[H])c4N([H])[H])C3([H])[H])c([H])c([H])c2C1([H])[H]

$$$$
13:0:0
     RDKit          3D

 93101  0  0  1  0  0  0  0  0999 V2000
  -30.3320  -21.7300   20.3730 C   0  0  0  0  0  2  0  0  0  0  0  0
  -30.2980  -19.4500   21.6480 C   0  0  0  0  0  3  0  0  0  0  0  0
  -29.8230  -19.3850   19.2950 C   0  0  0  0  0  3  0  0  0  0  0  0
  -30.0770  -20.1760   20.4490 C   0  0  0  0  0  0  0  0  0  0  0  0
  -30.3040  -18.0220   21.6930 C   0  0  0  0  0  0  0  0  0  0  0  0
  -30.0950  -17.2320   20.5250 C   0  0  0  0  0  0  0  0  0  0  0  0
  -29.8200  -17.9550   19.3250 C   0  0  0  0  0  0  0  0  0  0  0  0
  -30.5610  -17.3360   23.0250 C   0  0  0  0  0  1  0  0  0  0  0  0
  -29.4240  -17.1130   17.8670 Cl  0  0  0  0  0  0  0  0  0  0  0  0
  -30.7970  -14.7610   20.1630 C   0  0  0  0  0  0  0  0  0  0  0  0
  -30.5860  -12.5370   19.0690 C   0  0  0  0  0  2  0  0  0  0  0  0
  -29.5860  -12.6760   17.9000 C   0  0  0  0  0  2  0  0  0  0  0  0
  -28.1360  -12.4870   18.3880 C   0  0  0  0  0  2  0  0  0  0  0  0
  -27.8220  -13.3180   19.6610 C   0  0  0  0  0  3  0  0  0  0  0  0
  -28.9300  -13.1470   20.7250 C   0  0  0  0  0  2  0  0  0  0  0  0
  -30.2080  -13.5240   20.1000 N   0  0  0  0  0  0  0  0  0  0  0  0
  -31.9280  -14.9570   19.7090 O   0  0  0  0  0  0  0  0  0  0  0  0
  -30.0070  -15.7730   20.6380 N   0  0  0  0  0  0  0  0  0  0  0  0
  -29.1700  -15.4420   21.0940 H   0  0  0  0  0  0  0  0  0  0  0  0
  -25.4620  -13.8750   20.5130 C   0  0  0  0  0  0  0  0  0  0  0  0
  -24.4180  -13.0820   20.9040 C   0  0  0  0  0  0  0  0  0  0  0  0
  -24.8830  -11.7360   20.7980 C   0  0  0  0  0  0  0  0  0  0  0  0
  -26.4980  -13.0110   20.1960 N   0  0  0  0  0  0  0  0  0  0  0  0
  -26.1580  -11.7160   20.4270 N   0  0  0  0  0  0  0  0  0  0  0  0
  -24.1720  -10.4620   20.9750 C   0  0  0  0  0  0  0  0  0  0  0  0
  -24.5950   -9.5060   21.9240 C   0  0  0  0  0  3  0  0  0  0  0  0
  -23.8830   -8.2970   22.0870 C   0  0  0  0  0  3  0  0  0  0  0  0
  -22.7380   -8.0360   21.2990 C   0  0  0  0  0  0  0  0  0  0  0  0
  -22.3350   -8.9810   20.3400 C   0  0  0  0  0  3  0  0  0  0  0  0
  -23.0470  -10.1810   20.1750 C   0  0  0  0  0  3  0  0  0  0  0  0
  -22.0000   -6.8790   21.3700 O   0  0  0  0  0  0  0  0  0  0  0  0
  -21.8340   -6.2030   22.5520 C   0  0  0  0  0  0  0  0  0  0  0  0
  -21.2500   -6.8120   23.6850 C   0  0  0  0  0  3  0  0  0  0  0  0
  -21.0350   -6.0600   24.8570 C   0  0  0  0  0  3  0  0  0  0  0  0
  -21.3940   -4.7000   24.8970 C   0  0  0  0  0  0  0  0  0  0  0  0
  -21.9710   -4.0900   23.7690 C   0  0  0  0  0  3  0  0  0  0  0  0
  -22.1870   -4.8390   22.5990 C   0  0  0  0  0  0  0  0  0  0  0  0
  -22.7240   -4.2410   21.5080 F   0  0  0  0  0  0  0  0  0  0  0  0
  -21.1810   -3.9750   26.0200 F   0  0  0  0  0  0  0  0  0  0  0  0
  -23.0330  -13.5400   21.2610 C   0  0  0  0  0  0  0  0  0  0  0  0
  -22.3590  -12.8200   22.1510 N   0  0  0  0  0  0  0  0  0  0  0  0
  -22.5560  -14.5700   20.7860 O   0  0  0  0  0  0  0  0  0  0  0  0
  -22.7570  -11.9850   22.5570 H   0  0  0  0  0  0  0  0  0  0  0  0
  -21.4330  -13.1080   22.4330 H   0  0  0  0  0  0  0  0  0  0  0  0
  -25.6120  -15.2530   20.3810 N   0  0  0  0  0  0  0  0  0  0  0  0
  -24.8440  -15.8940   20.5460 H   0  0  0  0  0  0  0  0  0  0  0  0
  -26.4340  -15.7080   20.0080 H   0  0  0  0  0  0  0  0  0  0  0  0
  -29.4120  -24.1150   20.3250 C   0  0  0  0  0  0  0  0  0  0  0  0
  -29.2350  -22.7510   20.2510 N   0  0  0  0  0  0  0  0  0  0  0  0
  -30.5210  -24.5880   20.5880 O   0  0  0  0  0  0  0  0  0  0  0  0
  -28.3080  -22.4080   20.0370 H   0  0  0  0  0  0  0  0  0  0  0  0
  -28.2160  -25.1070   20.0510 C   0  0  0  0  0  2  0  0  0  0  0  0
  -28.4660  -26.5550   20.2890 O   0  0  0  0  0  0  0  0  0  0  0  0
  -24.7620  -31.9170   23.4140 C   0  0  0  0  0  0  0  0  0  0  0  0
  -27.3570  -27.4210   20.2490 C   0  0  0  0  0  0  0  0  0  0  0  0
  -23.5580  -30.5730   21.7300 C   0  0  0  0  0  3  0  0  0  0  0  0
  -25.0050  -29.0540   20.2710 C   0  0  0  0  0  0  0  0  0  0  0  0
  -26.1010  -30.8770   21.5690 C   0  0  0  0  0  2  0  0  0  0  0  0
  -26.1750  -29.5150   20.8870 C   0  0  0  0  0  0  0  0  0  0  0  0
  -27.3550  -28.7110   20.8660 C   0  0  0  0  0  3  0  0  0  0  0  0
  -26.1610  -27.0190   19.6070 C   0  0  0  0  0  3  0  0  0  0  0  0
  -25.0000  -27.8110   19.6230 C   0  0  0  0  0  3  0  0  0  0  0  0
  -23.7740  -29.9350   20.3340 C   0  0  0  0  0  2  0  0  0  0  0  0
  -24.8260  -31.1370   22.2950 N   0  0  0  0  0  0  0  0  0  0  0  0
  -23.6770  -32.1890   23.9490 O   0  0  0  0  0  0  0  0  0  0  0  0
  -22.8810  -29.5350   22.6580 C   0  0  0  0  0  0  0  0  0  0  0  0
  -21.5580  -29.3550   22.5010 N   0  0  0  0  0  0  0  0  0  0  0  0
  -23.5460  -28.8960   23.4780 O   0  0  0  0  0  0  0  0  0  0  0  0
  -21.0820  -29.9210   21.8140 H   0  0  0  0  0  0  0  0  0  0  0  0
  -18.1760  -28.1390   22.9130 C   0  0  0  0  0  0  0  0  0  0  0  0
  -20.7290  -28.4020   23.2390 C   0  0  0  0  0  3  0  0  0  0  0  0
  -20.8460  -26.9810   22.6420 C   0  0  0  0  0  2  0  0  0  0  0  0
  -19.7660  -26.6730   21.6000 C   0  0  0  0  0  2  0  0  0  0  0  0
  -18.3720  -26.8030   22.2180 C   0  0  0  0  0  2  0  0  0  0  0  0
  -19.2840  -28.8970   23.3780 C   0  0  0  0  0  0  0  0  0  0  0  0
  -19.0470  -30.1490   23.9870 C   0  0  0  0  0  3  0  0  0  0  0  0
  -17.7380  -30.6430   24.1350 C   0  0  0  0  0  3  0  0  0  0  0  0
  -16.6450  -29.8820   23.6850 C   0  0  0  0  0  3  0  0  0  0  0  0
  -16.8660  -28.6320   23.0800 C   0  0  0  0  0  3  0  0  0  0  0  0
  -26.0470  -32.5210   24.0610 C   0  0  0  0  0  3  0  0  0  0  0  0
  -26.5340  -31.7250   25.3340 C   0  0  1  0  0  0  0  0  0  0  0  0
  -25.4220  -31.4870   26.3830 C   0  0  0  0  0  1  0  0  0  0  0  0
  -27.1040  -30.3440   24.9310 C   0  0  0  0  0  1  0  0  0  0  0  0
  -27.6840  -32.4940   26.0240 C   0  0  0  0  0  1  0  0  0  0  0  0
  -25.7540  -33.9190   24.4070 N   0  0  0  0  0  0  0  0  0  0  0  0
  -26.0870  -34.9760   23.6540 C   0  0  0  0  0  0  0  0  0  0  0  0
  -26.7460  -34.8750   22.6150 O   0  0  0  0  0  0  0  0  0  0  0  0
  -25.1690  -34.0720   25.2160 H   0  0  0  0  0  0  0  0  0  0  0  0
  -24.3580  -36.7770   23.3530 C   0  0  0  0  0  1  0  0  0  0  0  0
  -25.6180  -36.3650   24.1300 C   0  0  0  0  0  3  0  0  0  0  0  0
  -27.7760  -37.2410   24.9090 C   0  0  0  0  0  1  0  0  0  0  0  0
  -26.6520  -37.4140   23.9930 N   0  0  0  0  0  0  0  0  0  0  0  0
  -26.2520  -38.3350   24.1530 H   0  0  0  0  0  0  0  0  0  0  0  0
  1  4  1  0
  2  5  1  0
  3  7  2  0
  3  4  1  0
  4  2  2  0
  5  8  1  0
  6 18  1  0
  6  5  2  0
  7  6  1  0
  9  7  1  0
 10 18  1  0
 11 16  1  0
 12 13  1  0
 12 11  1  0
 14 13  1  0
 14 23  1  0
 14 15  1  0
 16 10  1  0
 16 15  1  0
 17 10  2  0
 18 19  1  0
 20 21  2  0
 21 40  1  0
 22 21  1  0
 22 25  1  0
 23 24  1  0
 23 20  1  0
 24 22  2  0
 25 26  1  0
 26 27  2  0
 28 31  1  0
 28 27  1  0
 29 28  2  0
 30 29  1  0
 30 25  2  0
 31 32  1  0
 32 37  2  0
 32 33  1  0
 33 34  2  0
 34 35  1  0
 35 39  1  0
 36 35  2  0
 37 36  1  0
 38 37  1  0
 40 41  1  0
 41 44  1  0
 41 43  1  0
 42 40  2  0
 45 20  1  0
 45 46  1  0
 47 45  1  0
 48 50  2  0
 49 48  1  0
 49  1  1  0
 51 49  1  0
 52 53  1  0
 52 48  1  0
 54 65  2  0
 55 53  1  0
 55 60  1  0
 56 64  1  0
 56 66  1  0
 57 63  1  0
 57 59  1  0
 58 64  1  0
 59 58  1  0
 60 59  2  0
 61 62  1  0
 61 55  2  0
 62 57  2  0
 63 56  1  0
 64 54  1  0
 66 68  2  0
 67 66  1  0
 69 67  1  0
 70 79  2  0
 70 75  1  0
 71 67  1  0
 71 75  1  0
 72 71  1  0
 73 74  1  0
 73 72  1  0
 74 70  1  0
 75 76  2  0
 76 77  1  0
 78 77  2  0
 79 78  1  0
 80 54  1  0
 80 85  1  0
 80 81  1  0
 81 84  1  1
 81 82  1  0
 83 81  1  0
 85 88  1  0
 86 90  1  0
 86 85  1  0
 87 86  2  0
 90 89  1  0
 92 90  1  0
 92 93  1  0
 92 91  1  0
M  ISO  4  10 100  18 100  52 101  53 101
M  END
>  <TORSDO>  (14) 
F 19

>  <SCORE>  (14) 
-12.996

>  <name>  (14) 
13

>  <ligand_id>  (14) 
13

>  <original_smiles>  (14) 
[H]c1c([H])c([H])c2c(c1[H])C([H])([H])C([H])([H])C([H])([H])C2([H])N([H])C(=O)C1([H])N(C(=O)C([H])(N([H])C(=O)C([H])(N([H])C([H])([H])[H])C([H])([H])[H])C(C([H])([H])[H])(C([H])([H])[H])C([H])([H])[H])C([H])([H])c2c([H])c(OC([H])([H])C(=O)N([H])C([H])([H])c3c([H])c(Cl)c(N([H])C(=O)N4C([H])([H])C([H])([H])C([H])([H])C([H])(n5nc(-c6c([H])c([H])c(Oc7c([H])c([H])c(F)c([H])c7F)c([H])c6[H])c(C(=O)N([H])[H])c5N([H])[H])C4([H])[H])c(C([H])([H])[H])c3[H])c([H])c([H])c2C1([H])[H]

>  <smiles>  (14) 
[H]c1c([H])c([H])c2c(c1[H])C([H])([H])C([H])([H])C([H])([H])C2([H])N([H])C(=O)C1([H])N(C(=O)C([H])(N([H])C(=O)C([H])(N([H])C([H])([H])[H])C([H])([H])[H])C(C([H])([H])[H])(C([H])([H])[H])C([H])([H])[H])C([H])([H])c2c([H])c(OC([H])([H])C(=O)N([H])C([H])([H])c3c([H])c(Cl)c(N([H])C(=O)N4C([H])([H])C([H])([H])C([H])([H])C([H])(n5nc(-c6c([H])c([H])c(Oc7c([H])c([H])c(F)c([H])c7F)c([H])c6[H])c(C(=O)N([H])[H])c5N([H])[H])C4([H])[H])c(C([H])([H])[H])c3[H])c([H])c([H])c2C1([H])[H]

$$$$
14:0:0
     RDKit          3D

104113  0  0  1  0  0  0  0  0999 V2000
  -33.7740  -24.0390   22.3380 C   0  0  0  0  0  3  0  0  0  0  0  0
  -33.2630  -23.0950   21.4320 C   0  0  0  0  0  3  0  0  0  0  0  0
  -32.9680  -24.5030   23.3880 C   0  0  0  0  0  3  0  0  0  0  0  0
  -31.9430  -22.6080   21.5580 C   0  0  0  0  0  0  0  0  0  0  0  0
  -31.6440  -24.0410   23.5410 C   0  0  0  0  0  0  0  0  0  0  0  0
  -31.1150  -23.0890   22.6200 C   0  0  0  0  0  0  0  0  0  0  0  0
  -29.6740  -22.5870   22.7590 C   0  0  0  0  0  1  0  0  0  0  0  0
  -31.4810  -21.5560   20.5820 C   0  0  0  0  0  0  0  0  0  0  0  0
  -31.5100  -21.9210   19.2970 N   0  0  0  0  0  0  0  0  0  0  0  0
  -31.1000  -20.4460   20.9620 O   0  0  0  0  0  0  0  0  0  0  0  0
  -31.8170  -22.8600   19.0840 H   0  0  0  0  0  0  0  0  0  0  0  0
  -31.1520  -21.0620   18.1790 C   0  0  0  0  0  2  0  0  0  0  0  0
  -31.5240  -22.5030   16.1220 C   0  0  0  0  0  3  0  0  0  0  0  0
  -31.0370  -23.2250   15.0160 C   0  0  0  0  0  3  0  0  0  0  0  0
  -29.2410  -21.9690   16.7790 C   0  0  0  0  0  3  0  0  0  0  0  0
  -30.6290  -21.8640   17.0030 C   0  0  0  0  0  0  0  0  0  0  0  0
  -29.6440  -23.3240   14.7810 C   0  0  0  0  0  0  0  0  0  0  0  0
  -28.7500  -22.6840   15.6700 C   0  0  0  0  0  0  0  0  0  0  0  0
  -27.0430  -22.7610   15.4020 Cl  0  0  0  0  0  0  0  0  0  0  0  0
  -29.4490  -25.1250   13.0590 C   0  0  0  0  0  0  0  0  0  0  0  0
  -29.3020  -26.4530   10.9820 C   0  0  0  0  0  2  0  0  0  0  0  0
  -28.1540  -27.4770   11.0090 C   0  0  0  0  0  2  0  0  0  0  0  0
  -26.8370  -26.8300   10.5420 C   0  0  0  0  0  2  0  0  0  0  0  0
  -26.5410  -25.4950   11.2710 C   0  0  0  0  0  3  0  0  0  0  0  0
  -27.7780  -24.5710   11.2460 C   0  0  0  0  0  2  0  0  0  0  0  0
  -28.9230  -25.3050   11.8200 N   0  0  0  0  0  0  0  0  0  0  0  0
  -30.2250  -25.9300   13.5840 O   0  0  0  0  0  0  0  0  0  0  0  0
  -29.0890  -23.9760   13.6460 N   0  0  0  0  0  0  0  0  0  0  0  0
  -28.3340  -23.4820   13.1960 H   0  0  0  0  0  0  0  0  0  0  0  0
  -24.0670  -24.7790   11.2030 C   0  0  0  0  0  0  0  0  0  0  0  0
  -23.3390  -24.0980   10.2640 C   0  0  0  0  0  0  0  0  0  0  0  0
  -24.2530  -23.7690    9.2180 C   0  0  0  0  0  0  0  0  0  0  0  0
  -25.3640  -24.8340   10.7120 N   0  0  0  0  0  0  0  0  0  0  0  0
  -25.4770  -24.1730    9.5310 N   0  0  0  0  0  0  0  0  0  0  0  0
  -24.0230  -23.1430    7.9080 C   0  0  0  0  0  0  0  0  0  0  0  0
  -24.9170  -22.1860    7.3810 C   0  0  0  0  0  3  0  0  0  0  0  0
  -24.6650  -21.5850    6.1290 C   0  0  0  0  0  3  0  0  0  0  0  0
  -23.5090  -21.9390    5.3920 C   0  0  0  0  0  0  0  0  0  0  0  0
  -22.6350  -22.9110    5.9110 C   0  0  0  0  0  3  0  0  0  0  0  0
  -22.8910  -23.5110    7.1550 C   0  0  0  0  0  3  0  0  0  0  0  0
  -23.1970  -21.4280    4.1560 O   0  0  0  0  0  0  0  0  0  0  0  0
  -23.8270  -20.3170    3.6550 C   0  0  0  0  0  0  0  0  0  0  0  0
  -23.7720  -19.0700    4.3140 C   0  0  0  0  0  3  0  0  0  0  0  0
  -24.3760  -17.9390    3.7300 C   0  0  0  0  0  3  0  0  0  0  0  0
  -25.0260  -18.0490    2.4870 C   0  0  0  0  0  0  0  0  0  0  0  0
  -25.0770  -19.2890    1.8270 C   0  0  0  0  0  3  0  0  0  0  0  0
  -24.4760  -20.4200    2.4080 C   0  0  0  0  0  0  0  0  0  0  0  0
  -24.5100  -21.6080    1.7580 F   0  0  0  0  0  0  0  0  0  0  0  0
  -25.5990  -16.9610    1.9210 F   0  0  0  0  0  0  0  0  0  0  0  0
  -21.8590  -23.8460   10.2900 C   0  0  0  0  0  0  0  0  0  0  0  0
  -21.4140  -22.7430    9.6970 N   0  0  0  0  0  0  0  0  0  0  0  0
  -21.0910  -24.6060   10.8790 O   0  0  0  0  0  0  0  0  0  0  0  0
  -22.0460  -22.1100    9.2310 H   0  0  0  0  0  0  0  0  0  0  0  0
  -20.4270  -22.5290    9.7120 H   0  0  0  0  0  0  0  0  0  0  0  0
  -23.7350  -25.3710   12.4180 N   0  0  0  0  0  0  0  0  0  0  0  0
  -22.7880  -25.3820   12.7770 H   0  0  0  0  0  0  0  0  0  0  0  0
  -24.3890  -25.8670   13.0110 H   0  0  0  0  0  0  0  0  0  0  0  0
  -30.8280  -24.6020   24.7040 C   0  0  0  0  0  2  0  0  0  0  0  0
  -30.5010  -26.0230   24.4730 N   0  0  0  0  0  4  0  0  0  0  0  0
  -29.5870  -26.1950   24.8620 H   0  0  0  0  0  0  0  0  0  0  0  0
  -30.4380  -26.1540   23.4770 H   0  0  0  0  0  0  0  0  0  0  0  0
  -31.4580  -26.9980   25.0520 C   0  0  0  0  0  2  0  0  0  0  0  0
  -31.2740  -28.4000   24.4500 C   0  0  0  0  0  2  0  0  0  0  0  0
  -32.0060  -29.3670   25.2040 O   0  0  0  0  0  0  0  0  0  0  0  0
  -26.0430  -30.8460   28.7720 C   0  0  0  0  0  0  0  0  0  0  0  0
  -31.2050  -30.3250   25.7670 C   0  0  0  0  0  0  0  0  0  0  0  0
  -27.2010  -32.7790   27.7490 C   0  0  0  0  0  3  0  0  0  0  0  0
  -29.5490  -32.3200   26.8650 C   0  0  0  0  0  0  0  0  0  0  0  0
  -28.5090  -30.7060   28.4700 C   0  0  0  0  0  2  0  0  0  0  0  0
  -29.4840  -31.0090   27.3530 C   0  0  0  0  0  0  0  0  0  0  0  0
  -30.3110  -30.0040   26.8090 C   0  0  0  0  0  3  0  0  0  0  0  0
  -31.2710  -31.6470   25.2840 C   0  0  0  0  0  3  0  0  0  0  0  0
  -30.4400  -32.6460   25.8260 C   0  0  0  0  0  3  0  0  0  0  0  0
  -28.6320  -33.3340   27.5100 C   0  0  0  0  0  2  0  0  0  0  0  0
  -27.2070  -31.3970   28.3290 N   0  0  0  0  0  0  0  0  0  0  0  0
  -24.9820  -31.4850   28.7460 O   0  0  0  0  0  0  0  0  0  0  0  0
  -26.4070  -32.8840   26.4270 C   0  0  0  0  0  0  0  0  0  0  0  0
  -26.0590  -34.1210   26.0370 N   0  0  0  0  0  0  0  0  0  0  0  0
  -26.1420  -31.8770   25.7670 O   0  0  0  0  0  0  0  0  0  0  0  0
  -26.3080  -34.8940   26.6380 H   0  0  0  0  0  0  0  0  0  0  0  0
  -24.8360  -36.8880   24.0640 C   0  0  0  0  0  0  0  0  0  0  0  0
  -25.3430  -34.4660   24.8100 C   0  0  0  0  0  3  0  0  0  0  0  0
  -26.2770  -34.3920   23.5800 C   0  0  0  0  0  2  0  0  0  0  0  0
  -26.9300  -35.7340   23.2350 C   0  0  0  0  0  2  0  0  0  0  0  0
  -25.8610  -36.7920   22.9470 C   0  0  0  0  0  2  0  0  0  0  0  0
  -24.6040  -35.8010   24.9480 C   0  0  0  0  0  0  0  0  0  0  0  0
  -23.6650  -35.9550   25.9910 C   0  0  0  0  0  3  0  0  0  0  0  0
  -22.9650  -37.1650   26.1570 C   0  0  0  0  0  3  0  0  0  0  0  0
  -23.1860  -38.2320   25.2690 C   0  0  0  0  0  3  0  0  0  0  0  0
  -24.1160  -38.0910   24.2230 C   0  0  0  0  0  3  0  0  0  0  0  0
  -25.9920  -29.3980   29.3550 C   0  0  0  0  0  3  0  0  0  0  0  0
  -25.1070  -29.4250   30.5280 N   0  0  0  0  0  0  0  0  0  0  0  0
  -25.5310  -29.4890   31.7970 C   0  0  0  0  0  0  0  0  0  0  0  0
  -26.7250  -29.4590   32.1080 O   0  0  0  0  0  0  0  0  0  0  0  0
  -24.1180  -29.5100   30.3460 H   0  0  0  0  0  0  0  0  0  0  0  0
  -24.3430  -31.0720   33.3470 C   0  0  0  0  0  1  0  0  0  0  0  0
  -24.4600  -29.6060   32.8980 C   0  0  0  0  0  3  0  0  0  0  0  0
  -24.6000  -27.3190   33.7780 C   0  0  0  0  0  1  0  0  0  0  0  0
  -24.7250  -28.7450   34.0700 N   0  0  0  0  0  0  0  0  0  0  0  0
  -24.0910  -28.9700   34.8330 H   0  0  0  0  0  0  0  0  0  0  0  0
  -25.5040  -28.3230   28.3100 C   0  0  1  0  0  0  0  0  0  0  0  0
  -24.1810  -28.6990   27.6040 C   0  0  0  0  0  1  0  0  0  0  0  0
  -26.5760  -28.0960   27.2180 C   0  0  0  0  0  1  0  0  0  0  0  0
  -25.2950  -26.9610   29.0160 C   0  0  0  0  0  1  0  0  0  0  0  0
  1  3  1  0
  2  4  1  0
  2  1  2  0
  3  5  2  0
  4  6  2  0
  5 58  1  0
  6  7  1  0
  6  5  1  0
  8 10  2  0
  8  4  1  0
  9  8  1  0
 11  9  1  0
 12  9  1  0
 13 16  1  0
 14 13  2  0
 15 16  2  0
 16 12  1  0
 17 14  1  0
 17 18  2  0
 18 15  1  0
 19 18  1  0
 20 27  2  0
 20 28  1  0
 21 22  1  0
 21 26  1  0
 23 22  1  0
 24 23  1  0
 25 24  1  0
 25 26  1  0
 26 20  1  0
 28 17  1  0
 29 28  1  0
 30 55  1  0
 31 50  1  0
 31 30  2  0
 32 34  2  0
 32 31  1  0
 33 30  1  0
 33 24  1  0
 34 33  1  0
 35 32  1  0
 36 35  1  0
 37 36  2  0
 38 39  2  0
 38 37  1  0
 39 40  1  0
 40 35  2  0
 41 38  1  0
 42 41  1  0
 42 43  1  0
 44 43  2  0
 45 44  1  0
 46 47  1  0
 46 45  2  0
 47 42  2  0
 48 47  1  0
 49 45  1  0
 50 52  2  0
 51 54  1  0
 51 50  1  0
 53 51  1  0
 55 56  1  0
 55 57  1  0
 59 58  1  0
 59 60  1  0
 59 62  1  0
 61 59  1  0
 63 62  1  0
 63 64  1  0
 64 66  1  0
 66 71  1  0
 67 77  1  0
 67 75  1  0
 68 70  1  0
 68 74  1  0
 70 69  1  0
 71 70  2  0
 72 66  2  0
 72 73  1  0
 73 68  2  0
 74 67  1  0
 75 69  1  0
 75 65  1  0
 76 65  2  0
 78 77  1  0
 78 80  1  0
 79 77  2  0
 81 90  2  0
 81 86  1  0
 82 86  1  0
 82 78  1  0
 83 82  1  0
 84 83  1  0
 85 84  1  0
 85 81  1  0
 86 87  2  0
 87 88  1  0
 89 88  2  0
 90 89  1  0
 91 65  1  0
 91 92  1  0
 92 93  1  0
 93 94  2  0
 93 97  1  0
 95 92  1  0
 97 96  1  0
 97 99  1  0
 98 99  1  0
 99100  1  0
101104  1  1
101 91  1  0
102101  1  0
103101  1  0
M  ISO  4  20 100  28 100  63 101  64 101
M  END
>  <TORSDO>  (15) 
F 23

>  <SCORE>  (15) 
46.208

>  <name>  (15) 
14

>  <ligand_id>  (15) 
14

>  <original_smiles>  (15) 
[H]c1c([H])c([H])c2c(c1[H])C([H])([H])C([H])([H])C([H])([H])C2([H])N([H])C(=O)C1([H])N(C(=O)C([H])(N([H])C(=O)C([H])(N([H])C([H])([H])[H])C([H])([H])[H])C(C([H])([H])[H])(C([H])([H])[H])C([H])([H])[H])C([H])([H])c2c([H])c(OC([H])([H])C([H])([H])[N+]([H])([H])C([H])([H])c3c([H])c([H])c([H])c(C(=O)N([H])C([H])([H])c4c([H])c([H])c(N([H])C(=O)N5C([H])([H])C([H])([H])C([H])([H])C([H])(n6nc(-c7c([H])c([H])c(Oc8c([H])c([H])c(F)c([H])c8F)c([H])c7[H])c(C(=O)N([H])[H])c6N([H])[H])C5([H])[H])c(Cl)c4[H])c3C([H])([H])[H])c([H])c([H])c2C1([H])[H]

>  <smiles>  (15) 
[H]c1c([H])c([H])c2c(c1[H])C([H])([H])C([H])([H])C([H])([H])C2([H])N([H])C(=O)C1([H])N(C(=O)C([H])(N([H])C(=O)C([H])(N([H])C([H])([H])[H])C([H])([H])[H])C(C([H])([H])[H])(C([H])([H])[H])C([H])([H])[H])C([H])([H])c2c([H])c(OC([H])([H])C([H])([H])[N+]([H])([H])C([H])([H])c3c([H])c([H])c([H])c(C(=O)N([H])C([H])([H])c4c([H])c([H])c(N([H])C(=O)N5C([H])([H])C([H])([H])C([H])([H])C([H])(n6nc(-c7c([H])c([H])c(Oc8c([H])c([H])c(F)c([H])c8F)c([H])c7[H])c(C(=O)N([H])[H])c6N([H])[H])C5([H])[H])c(Cl)c4[H])c3C([H])([H])[H])c([H])c([H])c2C1([H])[H]

$$$$
15:0:0
     RDKit          3D

 94102  0  0  1  0  0  0  0  0999 V2000
  -28.4870  -18.3350   17.2070 C   0  0  0  0  0  3  0  0  0  0  0  0
  -27.6320  -19.4180   17.3730 C   0  0  0  0  0  3  0  0  0  0  0  0
  -29.3050  -17.9160   18.2680 C   0  0  0  0  0  0  0  0  0  0  0  0
  -29.3330  -18.6010   19.5280 C   0  0  0  0  0  0  0  0  0  0  0  0
  -28.6660  -19.9400   19.5640 C   0  0  0  0  0  0  0  0  0  0  0  0
  -27.7050  -20.1960   18.5310 C   0  0  0  0  0  0  0  0  0  0  0  0
  -30.1380  -16.6810   17.9640 C   0  0  0  0  0  1  0  0  0  0  0  0
  -26.5260  -21.4680   18.6170 Cl  0  0  0  0  0  0  0  0  0  0  0  0
  -30.0830  -17.7980   20.6960 C   0  0  0  0  0  2  0  0  0  0  0  0
  -30.6600  -15.1620   20.8580 C   0  0  0  0  0  0  0  0  0  0  0  0
  -30.6320  -12.8150   19.9740 C   0  0  0  0  0  2  0  0  0  0  0  0
  -29.8060  -12.7560   18.6700 C   0  0  0  0  0  2  0  0  0  0  0  0
  -28.3040  -12.5850   18.9740 C   0  0  0  0  0  2  0  0  0  0  0  0
  -27.7960  -13.5130   20.1100 C   0  0  0  0  0  3  0  0  0  0  0  0
  -28.7580  -13.5340   21.3170 C   0  0  0  0  0  2  0  0  0  0  0  0
  -30.0830  -13.9090   20.8100 N   0  0  0  0  0  0  0  0  0  0  0  0
  -31.8690  -15.2830   20.6450 O   0  0  0  0  0  0  0  0  0  0  0  0
  -29.8300  -16.2810   20.9030 N   0  0  0  0  0  0  0  0  0  0  0  0
  -28.8720  -16.0630   21.1270 H   0  0  0  0  0  0  0  0  0  0  0  0
  -25.3440  -14.0400   20.6420 C   0  0  0  0  0  0  0  0  0  0  0  0
  -24.2750  -13.2380   20.9400 C   0  0  0  0  0  0  0  0  0  0  0  0
  -24.7770  -11.9000   20.9670 C   0  0  0  0  0  0  0  0  0  0  0  0
  -26.4280  -13.1870   20.5030 N   0  0  0  0  0  0  0  0  0  0  0  0
  -26.0890  -11.8980   20.7620 N   0  0  0  0  0  0  0  0  0  0  0  0
  -24.0740  -10.6200   21.1180 C   0  0  0  0  0  0  0  0  0  0  0  0
  -24.4440   -9.6870   22.1110 C   0  0  0  0  0  3  0  0  0  0  0  0
  -23.7400   -8.4720   22.2490 C   0  0  0  0  0  3  0  0  0  0  0  0
  -22.6500   -8.1820   21.3950 C   0  0  0  0  0  0  0  0  0  0  0  0
  -22.3010   -9.1040   20.3920 C   0  0  0  0  0  3  0  0  0  0  0  0
  -23.0070  -10.3100   20.2520 C   0  0  0  0  0  3  0  0  0  0  0  0
  -21.9240   -7.0170   21.4400 O   0  0  0  0  0  0  0  0  0  0  0  0
  -21.7690   -6.3090   22.6060 C   0  0  0  0  0  0  0  0  0  0  0  0
  -21.1720   -6.8800   23.7510 C   0  0  0  0  0  3  0  0  0  0  0  0
  -20.9700   -6.0950   24.9050 C   0  0  0  0  0  3  0  0  0  0  0  0
  -21.3550   -4.7400   24.9120 C   0  0  0  0  0  0  0  0  0  0  0  0
  -21.9430   -4.1700   23.7690 C   0  0  0  0  0  3  0  0  0  0  0  0
  -22.1470   -4.9530   22.6190 C   0  0  0  0  0  0  0  0  0  0  0  0
  -22.6940   -4.3910   21.5150 F   0  0  0  0  0  0  0  0  0  0  0  0
  -21.1540   -3.9840   26.0170 F   0  0  0  0  0  0  0  0  0  0  0  0
  -22.8480  -13.6760   21.0910 C   0  0  0  0  0  0  0  0  0  0  0  0
  -22.0730  -12.9620   21.8990 N   0  0  0  0  0  0  0  0  0  0  0  0
  -22.4250  -14.6860   20.5310 O   0  0  0  0  0  0  0  0  0  0  0  0
  -22.4300  -12.1470   22.3750 H   0  0  0  0  0  0  0  0  0  0  0  0
  -21.1090  -13.2320   22.0390 H   0  0  0  0  0  0  0  0  0  0  0  0
  -25.4840  -15.4100   20.4530 N   0  0  0  0  0  0  0  0  0  0  0  0
  -24.6890  -16.0410   20.4740 H   0  0  0  0  0  0  0  0  0  0  0  0
  -26.3330  -15.8610   20.1350 H   0  0  0  0  0  0  0  0  0  0  0  0
  -28.8580  -21.1870   20.5570 C   0  0  0  0  0  2  0  0  0  0  0  0
  -28.9150  -22.5870   19.8830 N   0  0  0  0  0  4  0  0  0  0  0  0
  -28.1060  -22.5640   19.2770 H   0  0  0  0  0  0  0  0  0  0  0  0
  -29.7220  -22.5940   19.2780 H   0  0  0  0  0  0  0  0  0  0  0  0
  -28.8310  -23.9490   20.6200 C   0  0  0  0  0  3  0  0  0  0  0  0
  -28.2640  -25.2240   19.7720 C   0  0  0  0  0  3  0  0  0  0  0  0
  -28.3240  -26.6680   20.2370 O   0  0  0  0  0  0  0  0  0  0  0  0
  -24.6720  -32.0880   23.4470 C   0  0  0  0  0  0  0  0  0  0  0  0
  -27.2140  -27.5600   20.1920 C   0  0  0  0  0  0  0  0  0  0  0  0
  -23.4420  -30.7470   21.7840 C   0  0  0  0  0  3  0  0  0  0  0  0
  -24.8640  -29.2370   20.2800 C   0  0  0  0  0  0  0  0  0  0  0  0
  -25.9870  -31.0400   21.5800 C   0  0  0  0  0  2  0  0  0  0  0  0
  -26.0480  -29.6790   20.8810 C   0  0  0  0  0  0  0  0  0  0  0  0
  -27.2200  -28.8540   20.8310 C   0  0  0  0  0  3  0  0  0  0  0  0
  -26.0030  -27.2050   19.5520 C   0  0  0  0  0  3  0  0  0  0  0  0
  -24.8470  -28.0090   19.6070 C   0  0  0  0  0  3  0  0  0  0  0  0
  -23.6330  -30.1200   20.3790 C   0  0  0  0  0  2  0  0  0  0  0  0
  -24.7210  -31.3090   22.3260 N   0  0  0  0  0  0  0  0  0  0  0  0
  -23.5950  -32.3530   24.0040 O   0  0  0  0  0  0  0  0  0  0  0  0
  -22.7850  -29.7020   22.7180 C   0  0  0  0  0  0  0  0  0  0  0  0
  -21.4660  -29.4920   22.5640 N   0  0  0  0  0  0  0  0  0  0  0  0
  -23.4630  -29.0850   23.5440 O   0  0  0  0  0  0  0  0  0  0  0  0
  -20.9780  -30.0450   21.8730 H   0  0  0  0  0  0  0  0  0  0  0  0
  -18.1240  -28.1530   22.9420 C   0  0  0  0  0  0  0  0  0  0  0  0
  -20.6580  -28.5230   23.3060 C   0  0  0  0  0  3  0  0  0  0  0  0
  -20.8420  -27.0940   22.7450 C   0  0  0  0  0  2  0  0  0  0  0  0
  -19.7940  -26.7190   21.6910 C   0  0  0  0  0  2  0  0  0  0  0  0
  -18.3840  -26.8080   22.2820 C   0  0  0  0  0  2  0  0  0  0  0  0
  -19.1930  -28.9640   23.4100 C   0  0  0  0  0  0  0  0  0  0  0  0
  -18.8970  -30.2170   23.9880 C   0  0  0  0  0  3  0  0  0  0  0  0
  -17.5670  -30.6620   24.1020 C   0  0  0  0  0  3  0  0  0  0  0  0
  -16.5130  -29.8490   23.6530 C   0  0  0  0  0  3  0  0  0  0  0  0
  -16.7920  -28.5960   23.0790 C   0  0  0  0  0  3  0  0  0  0  0  0
  -25.9610  -32.7010   24.0720 C   0  0  0  0  0  3  0  0  0  0  0  0
  -25.6730  -34.1030   24.4060 N   0  0  0  0  0  0  0  0  0  0  0  0
  -26.0450  -35.1560   23.6650 C   0  0  0  0  0  0  0  0  0  0  0  0
  -26.7400  -35.0470   22.6530 O   0  0  0  0  0  0  0  0  0  0  0  0
  -25.0600  -34.2640   25.1920 H   0  0  0  0  0  0  0  0  0  0  0  0
  -24.3840  -37.0040   23.2690 C   0  0  0  0  0  1  0  0  0  0  0  0
  -25.5770  -36.5520   24.1250 C   0  0  0  0  0  3  0  0  0  0  0  0
  -27.7000  -37.3650   25.0580 C   0  0  0  0  0  1  0  0  0  0  0  0
  -26.6430  -37.5770   24.0710 N   0  0  0  0  0  0  0  0  0  0  0  0
  -26.2570  -38.5070   24.2140 H   0  0  0  0  0  0  0  0  0  0  0  0
  -26.4590  -31.9210   25.3510 C   0  0  1  0  0  0  0  0  0  0  0  0
  -25.3570  -31.7000   26.4140 C   0  0  0  0  0  1  0  0  0  0  0  0
  -27.0240  -30.5350   24.9640 C   0  0  0  0  0  1  0  0  0  0  0  0
  -27.6190  -32.6980   26.0180 C   0  0  0  0  0  1  0  0  0  0  0  0
  1  2  2  0
  1  3  1  0
  2  6  1  0
  3  4  2  0
  4  5  1  0
  4  9  1  0
  5 48  1  0
  6  8  1  0
  6  5  2  0
  7  3  1  0
  9 18  1  0
 10 18  1  0
 11 16  1  0
 12 13  1  0
 12 11  1  0
 14 13  1  0
 14 23  1  0
 14 15  1  0
 16 10  1  0
 16 15  1  0
 17 10  2  0
 18 19  1  0
 20 21  2  0
 21 22  1  0
 21 40  1  0
 22 25  1  0
 23 20  1  0
 23 24  1  0
 24 22  2  0
 25 26  1  0
 26 27  2  0
 28 31  1  0
 28 27  1  0
 29 28  2  0
 30 29  1  0
 30 25  2  0
 31 32  1  0
 32 37  2  0
 32 33  1  0
 33 34  2  0
 34 35  1  0
 35 39  1  0
 36 35  2  0
 37 36  1  0
 38 37  1  0
 40 41  1  0
 41 44  1  0
 41 43  1  0
 42 40  2  0
 45 46  1  0
 45 20  1  0
 47 45  1  0
 49 48  1  0
 49 52  1  0
 50 49  1  0
 51 49  1  0
 53 54  1  0
 53 52  2  0
 55 66  2  0
 56 54  1  0
 56 61  1  0
 57 65  1  0
 57 67  1  0
 58 64  1  0
 58 60  1  0
 59 65  1  0
 60 59  1  0
 61 60  2  0
 62 63  1  0
 62 56  2  0
 63 58  2  0
 64 57  1  0
 65 55  1  0
 67 69  2  0
 68 67  1  0
 70 68  1  0
 71 80  2  0
 71 76  1  0
 72 68  1  0
 72 76  1  0
 73 72  1  0
 74 75  1  0
 74 73  1  0
 75 71  1  0
 76 77  2  0
 77 78  1  0
 79 78  2  0
 80 79  1  0
 81 55  1  0
 81 82  1  0
 81 91  1  0
 82 85  1  0
 83 87  1  0
 83 82  1  0
 84 83  2  0
 87 86  1  0
 89 87  1  0
 89 90  1  0
 89 88  1  0
 91 94  1  1
 91 92  1  0
 93 91  1  0
M  ISO  4  10 100  18 100  53 101  54 101
M  END
>  <TORSDO>  (16) 
F 21

>  <SCORE>  (16) 
-12.848

>  <name>  (16) 
15

>  <ligand_id>  (16) 
15

>  <original_smiles>  (16) 
[H]c1c([H])c([H])c2c(c1[H])C([H])([H])C([H])([H])C([H])([H])C2([H])N([H])C(=O)C1([H])N(C(=O)C([H])(N([H])C(=O)C([H])(N([H])C([H])([H])[H])C([H])([H])[H])C(C([H])([H])[H])(C([H])([H])[H])C([H])([H])[H])C([H])([H])c2c([H])c(OC([H])([H])C([H])([H])[N+]([H])([H])C([H])([H])c3c(Cl)c([H])c([H])c(C([H])([H])[H])c3C([H])([H])N([H])C(=O)N3C([H])([H])C([H])([H])C([H])([H])C([H])(n4nc(-c5c([H])c([H])c(Oc6c([H])c([H])c(F)c([H])c6F)c([H])c5[H])c(C(=O)N([H])[H])c4N([H])[H])C3([H])[H])c([H])c([H])c2C1([H])[H]

>  <smiles>  (16) 
[H]c1c([H])c([H])c2c(c1[H])C([H])([H])C([H])([H])C([H])([H])C2([H])N([H])C(=O)C1([H])N(C(=O)C([H])(N([H])C(=O)C([H])(N([H])C([H])([H])[H])C([H])([H])[H])C(C([H])([H])[H])(C([H])([H])[H])C([H])([H])[H])C([H])([H])c2c([H])c(OC([H])([H])C([H])([H])[N+]([H])([H])C([H])([H])c3c(Cl)c([H])c([H])c(C([H])([H])[H])c3C([H])([H])N([H])C(=O)N3C([H])([H])C([H])([H])C([H])([H])C([H])(n4nc(-c5c([H])c([H])c(Oc6c([H])c([H])c(F)c([H])c6F)c([H])c5[H])c(C(=O)N([H])[H])c4N([H])[H])C3([H])[H])c([H])c([H])c2C1([H])[H]

$$$$
16:0:0
     RDKit          3D

 95103  0  0  1  0  0  0  0  0999 V2000
  -29.5060  -21.7090   20.3300 N   0  0  0  0  0  4  0  0  0  0  0  0
  -28.8140  -21.2130   20.8670 H   0  0  0  0  0  0  0  0  0  0  0  0
  -29.0890  -21.9120   19.4360 H   0  0  0  0  0  0  0  0  0  0  0  0
  -30.6550  -20.7810   20.0470 C   0  0  0  0  0  2  0  0  0  0  0  0
  -31.2950  -18.2380   22.9220 C   0  0  0  0  0  3  0  0  0  0  0  0
  -30.5620  -18.1860   20.2220 C   0  0  0  0  0  3  0  0  0  0  0  0
  -31.1460  -19.4560   22.2240 C   0  0  0  0  0  0  0  0  0  0  0  0
  -31.0770  -16.9970   22.2940 C   0  0  0  0  0  0  0  0  0  0  0  0
  -30.7580  -19.4550   20.8570 C   0  0  0  0  0  0  0  0  0  0  0  0
  -30.7350  -16.9530   20.9220 C   0  0  0  0  0  0  0  0  0  0  0  0
  -31.4230  -20.7400   22.9880 C   0  0  0  0  0  1  0  0  0  0  0  0
  -31.1870  -15.7250   23.1210 C   0  0  0  0  0  1  0  0  0  0  0  0
  -31.1420  -14.6490   19.9420 C   0  0  0  0  0  0  0  0  0  0  0  0
  -30.7810  -12.4680   18.8160 C   0  0  0  0  0  2  0  0  0  0  0  0
  -29.7810  -12.6680   17.6550 C   0  0  0  0  0  2  0  0  0  0  0  0
  -28.3220  -12.5770   18.1510 C   0  0  0  0  0  2  0  0  0  0  0  0
  -28.0650  -13.4410   19.4140 C   0  0  0  0  0  3  0  0  0  0  0  0
  -29.1610  -13.1860   20.4730 C   0  0  0  0  0  2  0  0  0  0  0  0
  -30.4640  -13.4700   19.8450 N   0  0  0  0  0  0  0  0  0  0  0  0
  -32.2800  -14.8050   19.4850 O   0  0  0  0  0  0  0  0  0  0  0  0
  -30.3730  -15.6840   20.3580 N   0  0  0  0  0  0  0  0  0  0  0  0
  -29.4410  -15.3810   20.5940 H   0  0  0  0  0  0  0  0  0  0  0  0
  -25.7430  -14.1650   20.2560 C   0  0  0  0  0  0  0  0  0  0  0  0
  -24.6510  -13.4440   20.6600 C   0  0  0  0  0  0  0  0  0  0  0  0
  -25.0350  -12.0700   20.5780 C   0  0  0  0  0  0  0  0  0  0  0  0
  -26.7240  -13.2320   19.9540 N   0  0  0  0  0  0  0  0  0  0  0  0
  -26.3040  -11.9660   20.2070 N   0  0  0  0  0  0  0  0  0  0  0  0
  -24.2500  -10.8450   20.7770 C   0  0  0  0  0  0  0  0  0  0  0  0
  -24.6620   -9.8420   21.6810 C   0  0  0  0  0  3  0  0  0  0  0  0
  -23.8810   -8.6800   21.8680 C   0  0  0  0  0  3  0  0  0  0  0  0
  -22.6730   -8.5160   21.1500 C   0  0  0  0  0  0  0  0  0  0  0  0
  -22.2780   -9.5080   20.2340 C   0  0  0  0  0  3  0  0  0  0  0  0
  -23.0600  -10.6600   20.0460 C   0  0  0  0  0  3  0  0  0  0  0  0
  -21.8630   -7.4100   21.2470 O   0  0  0  0  0  0  0  0  0  0  0  0
  -21.7990   -6.6640   22.3960 C   0  0  0  0  0  0  0  0  0  0  0  0
  -21.4500   -7.2390   23.6390 C   0  0  0  0  0  3  0  0  0  0  0  0
  -21.3280   -6.4220   24.7810 C   0  0  0  0  0  3  0  0  0  0  0  0
  -21.5440   -5.0350   24.6820 C   0  0  0  0  0  0  0  0  0  0  0  0
  -21.8870   -4.4610   23.4450 C   0  0  0  0  0  3  0  0  0  0  0  0
  -22.0100   -5.2740   22.3050 C   0  0  0  0  0  0  0  0  0  0  0  0
  -22.3190   -4.7130   21.1100 F   0  0  0  0  0  0  0  0  0  0  0  0
  -21.4190   -4.2480   25.7780 F   0  0  0  0  0  0  0  0  0  0  0  0
  -23.2970  -13.9900   21.0090 C   0  0  0  0  0  0  0  0  0  0  0  0
  -22.5820  -13.3280   21.9130 N   0  0  0  0  0  0  0  0  0  0  0  0
  -22.8840  -15.0390   20.5160 O   0  0  0  0  0  0  0  0  0  0  0  0
  -22.9280  -12.4770   22.3320 H   0  0  0  0  0  0  0  0  0  0  0  0
  -21.6760  -13.6780   22.1890 H   0  0  0  0  0  0  0  0  0  0  0  0
  -25.9790  -15.5270   20.0990 N   0  0  0  0  0  0  0  0  0  0  0  0
  -25.2570  -16.2230   20.2600 H   0  0  0  0  0  0  0  0  0  0  0  0
  -26.8300  -15.9250   19.7230 H   0  0  0  0  0  0  0  0  0  0  0  0
  -29.8030  -23.0400   20.9720 C   0  0  0  0  0  2  0  0  0  0  0  0
  -29.5470  -24.0890   18.6000 C   0  0  0  0  0  1  0  0  0  0  0  0
  -29.5470  -24.3520   20.1190 C   0  0  0  0  0  3  0  0  0  0  0  0
  -28.3490  -25.2660   20.5630 C   0  0  0  0  0  2  0  0  0  0  0  0
  -28.4560  -26.6670   20.1620 O   0  0  0  0  0  0  0  0  0  0  0  0
  -24.6370  -31.9170   23.2340 C   0  0  0  0  0  0  0  0  0  0  0  0
  -27.2920  -27.4300   20.1720 C   0  0  0  0  0  0  0  0  0  0  0  0
  -23.4330  -30.5000   21.6060 C   0  0  0  0  0  3  0  0  0  0  0  0
  -24.8890  -28.9590   20.1820 C   0  0  0  0  0  0  0  0  0  0  0  0
  -25.9610  -30.8600   21.3960 C   0  0  0  0  0  2  0  0  0  0  0  0
  -26.0520  -29.4830   20.7600 C   0  0  0  0  0  0  0  0  0  0  0  0
  -27.2580  -28.7310   20.7430 C   0  0  0  0  0  3  0  0  0  0  0  0
  -26.1080  -26.9380   19.5770 C   0  0  0  0  0  3  0  0  0  0  0  0
  -24.9170  -27.6890   19.5830 C   0  0  0  0  0  3  0  0  0  0  0  0
  -23.6410  -29.8150   20.2290 C   0  0  0  0  0  2  0  0  0  0  0  0
  -24.6950  -31.1080   22.1360 N   0  0  0  0  0  0  0  0  0  0  0  0
  -23.5550  -32.1830   23.7780 O   0  0  0  0  0  0  0  0  0  0  0  0
  -22.7900  -29.4810   22.5740 C   0  0  0  0  0  0  0  0  0  0  0  0
  -21.4640  -29.2960   22.4600 N   0  0  0  0  0  0  0  0  0  0  0  0
  -23.4830  -28.8590   23.3850 O   0  0  0  0  0  0  0  0  0  0  0  0
  -20.9660  -29.8510   21.7780 H   0  0  0  0  0  0  0  0  0  0  0  0
  -18.1000  -28.0750   22.9760 C   0  0  0  0  0  0  0  0  0  0  0  0
  -20.6570  -28.3570   23.2390 C   0  0  0  0  0  3  0  0  0  0  0  0
  -20.7700  -26.9210   22.6750 C   0  0  0  0  0  2  0  0  0  0  0  0
  -19.6680  -26.5810   21.6650 C   0  0  0  0  0  2  0  0  0  0  0  0
  -18.2860  -26.7220   22.3100 C   0  0  0  0  0  2  0  0  0  0  0  0
  -19.2140  -28.8490   23.3970 C   0  0  0  0  0  0  0  0  0  0  0  0
  -18.9870  -30.1130   23.9820 C   0  0  0  0  0  3  0  0  0  0  0  0
  -17.6780  -30.6060   24.1480 C   0  0  0  0  0  3  0  0  0  0  0  0
  -16.5790  -29.8310   23.7420 C   0  0  0  0  0  3  0  0  0  0  0  0
  -16.7910  -28.5660   23.1620 C   0  0  0  0  0  3  0  0  0  0  0  0
  -25.9210  -32.5620   23.8440 C   0  0  0  0  0  3  0  0  0  0  0  0
  -25.6020  -33.9560   24.1760 N   0  0  0  0  0  0  0  0  0  0  0  0
  -25.9260  -35.0130   23.4200 C   0  0  0  0  0  0  0  0  0  0  0  0
  -26.5950  -34.9150   22.3860 O   0  0  0  0  0  0  0  0  0  0  0  0
  -25.0170  -34.1060   24.9840 H   0  0  0  0  0  0  0  0  0  0  0  0
  -24.1850  -36.7900   23.0680 C   0  0  0  0  0  1  0  0  0  0  0  0
  -25.4290  -36.3950   23.8800 C   0  0  0  0  0  3  0  0  0  0  0  0
  -27.5590  -37.2880   24.7130 C   0  0  0  0  0  1  0  0  0  0  0  0
  -26.4550  -37.4570   23.7710 N   0  0  0  0  0  0  0  0  0  0  0  0
  -26.0420  -38.3730   23.9250 H   0  0  0  0  0  0  0  0  0  0  0  0
  -26.4540  -31.7970   25.1170 C   0  0  1  0  0  0  0  0  0  0  0  0
  -25.3730  -31.5510   26.1920 C   0  0  0  0  0  1  0  0  0  0  0  0
  -27.0460  -30.4250   24.7180 C   0  0  0  0  0  1  0  0  0  0  0  0
  -27.6030  -32.6010   25.7700 C   0  0  0  0  0  1  0  0  0  0  0  0
  1  2  1  0
  1 51  1  0
  3  1  1  0
  4  1  1  0
  4  9  1  0
  6  9  2  0
  6 10  1  0
  7  5  2  0
  7 11  1  0
  8  5  1  0
  8 12  1  0
  9  7  1  0
 10  8  2  0
 13 21  1  0
 14 19  1  0
 15 16  1  0
 15 14  1  0
 17 16  1  0
 17 26  1  0
 17 18  1  0
 19 13  1  0
 19 18  1  0
 20 13  2  0
 21 22  1  0
 21 10  1  0
 23 24  2  0
 24 43  1  0
 25 24  1  0
 25 28  1  0
 26 27  1  0
 26 23  1  0
 27 25  2  0
 28 29  1  0
 29 30  2  0
 31 34  1  0
 31 30  1  0
 32 31  2  0
 33 32  1  0
 33 28  2  0
 34 35  1  0
 35 36  1  0
 36 37  2  0
 38 37  1  0
 38 42  1  0
 39 38  2  0
 40 35  2  0
 40 39  1  0
 41 40  1  0
 43 44  1  0
 44 47  1  0
 44 46  1  0
 45 43  2  0
 48 23  1  0
 48 49  1  0
 50 48  1  0
 53 52  1  0
 53 54  1  0
 53 51  1  0
 55 57  1  0
 55 54  1  0
 56 67  2  0
 57 62  1  0
 58 66  1  0
 58 68  1  0
 59 65  1  0
 59 61  1  0
 60 66  1  0
 61 60  1  0
 62 61  2  0
 63 64  1  0
 63 57  2  0
 64 59  2  0
 65 58  1  0
 66 56  1  0
 68 70  2  0
 69 68  1  0
 71 69  1  0
 72 81  2  0
 72 77  1  0
 73 69  1  0
 73 77  1  0
 74 73  1  0
 75 76  1  0
 75 74  1  0
 76 72  1  0
 77 78  2  0
 78 79  1  0
 80 79  2  0
 81 80  1  0
 82 56  1  0
 82 83  1  0
 82 92  1  0
 83 86  1  0
 84 88  1  0
 84 83  1  0
 85 84  2  0
 88 87  1  0
 90 88  1  0
 90 91  1  0
 90 89  1  0
 92 95  1  1
 92 93  1  0
 94 92  1  0
M  ISO  4  13 100  21 100  54 101  55 101
M  END
>  <TORSDO>  (17) 
F 21

>  <SCORE>  (17) 
-11.299

>  <name>  (17) 
16

>  <ligand_id>  (17) 
16

>  <original_smiles>  (17) 
[H]c1c([H])c([H])c2c(c1[H])C([H])([H])C([H])([H])C([H])([H])C2([H])N([H])C(=O)C1([H])N(C(=O)C([H])(N([H])C(=O)C([H])(N([H])C([H])([H])[H])C([H])([H])[H])C(C([H])([H])[H])(C([H])([H])[H])C([H])([H])[H])C([H])([H])c2c([H])c(OC([H])([H])C([H])(C([H])([H])[H])C([H])([H])[N+]([H])([H])C([H])([H])c3c([H])c(N([H])C(=O)N4C([H])([H])C([H])([H])C([H])([H])C([H])(n5nc(-c6c([H])c([H])c(Oc7c([H])c([H])c(F)c([H])c7F)c([H])c6[H])c(C(=O)N([H])[H])c5N([H])[H])C4([H])[H])c(C([H])([H])[H])c([H])c3C([H])([H])[H])c([H])c([H])c2C1([H])[H]

>  <smiles>  (17) 
[H]c1c([H])c([H])c2c(c1[H])C([H])([H])C([H])([H])C([H])([H])C2([H])N([H])C(=O)C1([H])N(C(=O)C([H])(N([H])C(=O)C([H])(N([H])C([H])([H])[H])C([H])([H])[H])C(C([H])([H])[H])(C([H])([H])[H])C([H])([H])[H])C([H])([H])c2c([H])c(OC([H])([H])C([H])(C([H])([H])[H])C([H])([H])[N+]([H])([H])C([H])([H])c3c([H])c(N([H])C(=O)N4C([H])([H])C([H])([H])C([H])([H])C([H])(n5nc(-c6c([H])c([H])c(Oc7c([H])c([H])c(F)c([H])c7F)c([H])c6[H])c(C(=O)N([H])[H])c5N([H])[H])C4([H])[H])c(C([H])([H])[H])c([H])c3C([H])([H])[H])c([H])c([H])c2C1([H])[H]

$$$$
17:0:0
     RDKit          3D

 95104  0  0  1  0  0  0  0  0999 V2000
  -28.6540  -23.9890   19.6110 C   0  0  0  0  0  0  0  0  0  0  0  0
  -29.9110  -23.7710   22.2200 C   0  0  0  0  0  2  0  0  0  0  0  0
  -29.9070  -25.1200   21.4940 C   0  0  0  0  0  2  0  0  0  0  0  0
  -29.8660  -22.5530   21.2630 C   0  0  0  0  0  2  0  0  0  0  0  0
  -28.6570  -25.2140   20.6190 C   0  0  0  0  0  3  0  0  0  0  0  0
  -29.0760  -22.7330   20.0290 N   0  0  0  0  0  0  0  0  0  0  0  0
  -28.2190  -24.1770   18.4700 O   0  0  0  0  0  0  0  0  0  0  0  0
  -28.6290  -26.5750   20.0470 O   0  0  0  0  0  0  0  0  0  0  0  0
  -24.4500  -31.6540   23.0750 C   0  0  0  0  0  0  0  0  0  0  0  0
  -27.4340  -27.3000   20.0840 C   0  0  0  0  0  0  0  0  0  0  0  0
  -23.3790  -30.2010   21.3860 C   0  0  0  0  0  3  0  0  0  0  0  0
  -24.9640  -28.7270   20.0240 C   0  0  0  0  0  0  0  0  0  0  0  0
  -25.8960  -30.6730   21.2820 C   0  0  0  0  0  2  0  0  0  0  0  0
  -26.0810  -29.3010   20.6480 C   0  0  0  0  0  0  0  0  0  0  0  0
  -27.3190  -28.5960   20.6710 C   0  0  0  0  0  3  0  0  0  0  0  0
  -26.2930  -26.7560   19.4640 C   0  0  0  0  0  3  0  0  0  0  0  0
  -25.0660  -27.4570   19.4340 C   0  0  0  0  0  3  0  0  0  0  0  0
  -23.6760  -29.5270   20.0190 C   0  0  0  0  0  2  0  0  0  0  0  0
  -24.5900  -30.8600   21.9730 N   0  0  0  0  0  0  0  0  0  0  0  0
  -23.3380  -31.8650   23.5790 O   0  0  0  0  0  0  0  0  0  0  0  0
  -22.7380  -29.1510   22.3260 C   0  0  0  0  0  0  0  0  0  0  0  0
  -21.4240  -28.9200   22.1700 N   0  0  0  0  0  0  0  0  0  0  0  0
  -23.4260  -28.5420   23.1480 O   0  0  0  0  0  0  0  0  0  0  0  0
  -20.9210  -29.4630   21.4830 H   0  0  0  0  0  0  0  0  0  0  0  0
  -18.0940  -27.5850   22.5980 C   0  0  0  0  0  0  0  0  0  0  0  0
  -20.6340  -27.9370   22.9150 C   0  0  0  0  0  3  0  0  0  0  0  0
  -20.8040  -26.5200   22.3190 C   0  0  0  0  0  2  0  0  0  0  0  0
  -19.7320  -26.1740   21.2820 C   0  0  0  0  0  2  0  0  0  0  0  0
  -18.3340  -26.2570   21.9000 C   0  0  0  0  0  2  0  0  0  0  0  0
  -19.1740  -28.3800   23.0600 C   0  0  0  0  0  0  0  0  0  0  0  0
  -18.8990  -29.6270   23.6630 C   0  0  0  0  0  3  0  0  0  0  0  0
  -17.5730  -30.0760   23.8130 C   0  0  0  0  0  3  0  0  0  0  0  0
  -16.5050  -29.2780   23.3680 C   0  0  0  0  0  3  0  0  0  0  0  0
  -16.7660  -28.0340   22.7650 C   0  0  0  0  0  3  0  0  0  0  0  0
  -25.6760  -32.3510   23.7420 C   0  0  0  0  0  3  0  0  0  0  0  0
  -25.2860  -33.7330   24.0550 N   0  0  0  0  0  0  0  0  0  0  0  0
  -25.5900  -34.7990   23.3020 C   0  0  0  0  0  0  0  0  0  0  0  0
  -26.2980  -34.7260   22.2940 O   0  0  0  0  0  0  0  0  0  0  0  0
  -24.6590  -33.8610   24.8360 H   0  0  0  0  0  0  0  0  0  0  0  0
  -23.7870  -36.4980   22.8890 C   0  0  0  0  0  1  0  0  0  0  0  0
  -25.0210  -36.1610   23.7400 C   0  0  0  0  0  3  0  0  0  0  0  0
  -27.0790  -37.1540   24.6350 C   0  0  0  0  0  1  0  0  0  0  0  0
  -26.0010  -37.2650   23.6560 N   0  0  0  0  0  0  0  0  0  0  0  0
  -25.5420  -38.1610   23.7910 H   0  0  0  0  0  0  0  0  0  0  0  0
  -26.1800  -31.6100   25.0410 C   0  0  1  0  0  0  0  0  0  0  0  0
  -25.0610  -31.3270   26.0660 C   0  0  0  0  0  1  0  0  0  0  0  0
  -26.8450  -30.2640   24.6750 C   0  0  0  0  0  1  0  0  0  0  0  0
  -27.2590  -32.4650   25.7470 C   0  0  0  0  0  1  0  0  0  0  0  0
  -28.8720  -21.5050   19.1520 C   0  0  0  0  0  2  0  0  0  0  0  0
  -29.5850  -19.4840   20.7380 C   0  0  0  0  0  3  0  0  0  0  0  0
  -29.7620  -17.6660   18.6240 C   0  0  0  0  0  3  0  0  0  0  0  0
  -29.3860  -20.0190   19.4340 C   0  0  0  0  0  0  0  0  0  0  0  0
  -29.9420  -17.1460   19.9290 C   0  0  0  0  0  0  0  0  0  0  0  0
  -29.8740  -18.1060   20.9780 C   0  0  0  0  0  0  0  0  0  0  0  0
  -29.4970  -19.0510   18.3800 C   0  0  0  0  0  0  0  0  0  0  0  0
  -30.1220  -17.6020   22.6150 Cl  0  0  0  0  0  0  0  0  0  0  0  0
  -29.2340  -19.4940   16.7300 Cl  0  0  0  0  0  0  0  0  0  0  0  0
  -30.7630  -14.6830   19.6820 C   0  0  0  0  0  0  0  0  0  0  0  0
  -30.4850  -12.4230   18.6830 C   0  0  0  0  0  2  0  0  0  0  0  0
  -29.4120  -12.5100   17.5720 C   0  0  0  0  0  2  0  0  0  0  0  0
  -27.9850  -12.3860   18.1520 C   0  0  0  0  0  2  0  0  0  0  0  0
  -27.7680  -13.2610   19.4160 C   0  0  0  0  0  3  0  0  0  0  0  0
  -28.9360  -13.0910   20.4130 C   0  0  0  0  0  2  0  0  0  0  0  0
  -30.1740  -13.4460   19.7030 N   0  0  0  0  0  0  0  0  0  0  0  0
  -31.8430  -14.8700   19.1140 O   0  0  0  0  0  0  0  0  0  0  0  0
  -30.0370  -15.7090   20.2350 N   0  0  0  0  0  0  0  0  0  0  0  0
  -29.3260  -15.3900   20.8760 H   0  0  0  0  0  0  0  0  0  0  0  0
  -25.5120  -13.9020   20.4640 C   0  0  0  0  0  0  0  0  0  0  0  0
  -24.4620  -13.1470   20.9130 C   0  0  0  0  0  0  0  0  0  0  0  0
  -24.8490  -11.7840   20.7310 C   0  0  0  0  0  0  0  0  0  0  0  0
  -26.4750  -12.9980   20.0410 N   0  0  0  0  0  0  0  0  0  0  0  0
  -26.0890  -11.7150   20.2600 N   0  0  0  0  0  0  0  0  0  0  0  0
  -24.0900  -10.5420   20.9230 C   0  0  0  0  0  0  0  0  0  0  0  0
  -24.4970   -9.5680   21.8620 C   0  0  0  0  0  3  0  0  0  0  0  0
  -23.7440   -8.3880   22.0420 C   0  0  0  0  0  3  0  0  0  0  0  0
  -22.5680   -8.1770   21.2830 C   0  0  0  0  0  0  0  0  0  0  0  0
  -22.1790   -9.1380   20.3350 C   0  0  0  0  0  3  0  0  0  0  0  0
  -22.9320  -10.3090   20.1530 C   0  0  0  0  0  3  0  0  0  0  0  0
  -21.7870   -7.0490   21.3710 O   0  0  0  0  0  0  0  0  0  0  0  0
  -21.5870   -6.4030   22.5640 C   0  0  0  0  0  0  0  0  0  0  0  0
  -21.0220   -7.0570   23.6800 C   0  0  0  0  0  3  0  0  0  0  0  0
  -20.7680   -6.3340   24.8630 C   0  0  0  0  0  3  0  0  0  0  0  0
  -21.0720   -4.9610   24.9300 C   0  0  0  0  0  0  0  0  0  0  0  0
  -21.6310   -4.3090   23.8180 C   0  0  0  0  0  3  0  0  0  0  0  0
  -21.8840   -5.0270   22.6360 C   0  0  0  0  0  0  0  0  0  0  0  0
  -22.4010   -4.3880   21.5590 F   0  0  0  0  0  0  0  0  0  0  0  0
  -20.8220   -4.2640   26.0650 F   0  0  0  0  0  0  0  0  0  0  0  0
  -23.1350  -13.6580   21.3940 C   0  0  0  0  0  0  0  0  0  0  0  0
  -22.5020  -12.9440   22.3170 N   0  0  0  0  0  0  0  0  0  0  0  0
  -22.6760  -14.7240   20.9870 O   0  0  0  0  0  0  0  0  0  0  0  0
  -22.8930  -12.0820   22.6650 H   0  0  0  0  0  0  0  0  0  0  0  0
  -21.6180  -13.2660   22.6820 H   0  0  0  0  0  0  0  0  0  0  0  0
  -25.7220  -15.2730   20.3590 N   0  0  0  0  0  0  0  0  0  0  0  0
  -25.0080  -15.9500   20.6010 H   0  0  0  0  0  0  0  0  0  0  0  0
  -26.5280  -15.6930   19.9140 H   0  0  0  0  0  0  0  0  0  0  0  0
  1  6  1  0
  1  5  1  0
  3  2  1  0
  4  2  1  0
  5  8  1  0
  5  3  1  0
  6  4  1  0
  7  1  2  0
  8 10  1  0
  9 20  2  0
 10 15  1  0
 11 19  1  0
 11 21  1  0
 12 14  1  0
 13 19  1  0
 14 15  2  0
 14 13  1  0
 16 10  2  0
 17 16  1  0
 17 12  2  0
 18 12  1  0
 18 11  1  0
 19  9  1  0
 21 23  2  0
 22 21  1  0
 24 22  1  0
 25 34  2  0
 25 30  1  0
 26 22  1  0
 26 30  1  0
 27 26  1  0
 28 29  1  0
 28 27  1  0
 29 25  1  0
 30 31  2  0
 31 32  1  0
 33 32  2  0
 34 33  1  0
 35  9  1  0
 35 36  1  0
 35 45  1  0
 36 39  1  0
 37 41  1  0
 37 36  1  0
 38 37  2  0
 41 40  1  0
 43 41  1  0
 43 44  1  0
 43 42  1  0
 45 48  1  1
 45 46  1  0
 47 45  1  0
 49 52  1  0
 49  6  1  0
 50 54  1  0
 51 53  1  0
 52 50  2  0
 53 66  1  0
 53 54  2  0
 54 56  1  0
 55 51  2  0
 55 52  1  0
 57 55  1  0
 58 64  1  0
 58 66  1  0
 59 64  1  0
 60 61  1  0
 60 59  1  0
 62 61  1  0
 62 71  1  0
 62 63  1  0
 64 63  1  0
 65 58  2  0
 66 67  1  0
 68 69  2  0
 69 88  1  0
 70 69  1  0
 70 73  1  0
 71 72  1  0
 71 68  1  0
 72 70  2  0
 73 74  1  0
 74 75  2  0
 76 79  1  0
 76 75  1  0
 77 76  2  0
 78 77  1  0
 78 73  2  0
 79 80  1  0
 80 85  2  0
 80 81  1  0
 81 82  2  0
 82 83  1  0
 83 87  1  0
 84 83  2  0
 85 84  1  0
 86 85  1  0
 88 89  1  0
 89 91  1  0
 89 92  1  0
 90 88  2  0
 93 68  1  0
 93 94  1  0
 95 93  1  0
M  ISO  4   5 101   8 101  58 100  66 100
M  END
>  <TORSDO>  (18) 
F 18

>  <SCORE>  (18) 
-13.511

>  <name>  (18) 
17

>  <ligand_id>  (18) 
17

>  <original_smiles>  (18) 
[H]c1c([H])c([H])c2c(c1[H])C([H])([H])C([H])([H])C([H])([H])C2([H])N([H])C(=O)C1([H])N(C(=O)C([H])(N([H])C(=O)C([H])(N([H])C([H])([H])[H])C([H])([H])[H])C(C([H])([H])[H])(C([H])([H])[H])C([H])([H])[H])C([H])([H])c2c([H])c(OC3([H])C(=O)N(C([H])([H])c4c([H])c(Cl)c(N([H])C(=O)N5C([H])([H])C([H])([H])C([H])([H])C([H])(n6nc(-c7c([H])c([H])c(Oc8c([H])c([H])c(F)c([H])c8F)c([H])c7[H])c(C(=O)N([H])[H])c6N([H])[H])C5([H])[H])c([H])c4Cl)C([H])([H])C([H])([H])C3([H])[H])c([H])c([H])c2C1([H])[H]

>  <smiles>  (18) 
[H]c1c([H])c([H])c2c(c1[H])C([H])([H])C([H])([H])C([H])([H])C2([H])N([H])C(=O)C1([H])N(C(=O)C([H])(N([H])C(=O)C([H])(N([H])C([H])([H])[H])C([H])([H])[H])C(C([H])([H])[H])(C([H])([H])[H])C([H])([H])[H])C([H])([H])c2c([H])c(OC3([H])C(=O)N(C([H])([H])c4c([H])c(Cl)c(N([H])C(=O)N5C([H])([H])C([H])([H])C([H])([H])C([H])(n6nc(-c7c([H])c([H])c(Oc8c([H])c([H])c(F)c([H])c8F)c([H])c7[H])c(C(=O)N([H])[H])c6N([H])[H])C5([H])[H])c([H])c4Cl)C([H])([H])C([H])([H])C3([H])[H])c([H])c([H])c2C1([H])[H]

$$$$
18:0:0
     RDKit          3D

 93101  0  0  1  0  0  0  0  0999 V2000
  -30.2430  -21.7430   20.9090 C   0  0  0  0  0  2  0  0  0  0  0  0
  -29.3430  -19.5060   19.7930 C   0  0  0  0  0  3  0  0  0  0  0  0
  -30.8360  -17.8770   21.5230 C   0  0  0  0  0  3  0  0  0  0  0  0
  -30.1330  -20.1670   20.7690 C   0  0  0  0  0  0  0  0  0  0  0  0
  -30.0110  -17.2230   20.5750 C   0  0  0  0  0  0  0  0  0  0  0  0
  -29.2730  -18.0800   19.7070 C   0  0  0  0  0  0  0  0  0  0  0  0
  -30.8960  -19.3010   21.6180 C   0  0  0  0  0  0  0  0  0  0  0  0
  -28.4700  -17.5260   18.7680 F   0  0  0  0  0  0  0  0  0  0  0  0
  -31.9360  -19.9700   22.8260 Cl  0  0  0  0  0  0  0  0  0  0  0  0
  -30.6000  -14.6990   20.3880 C   0  0  0  0  0  0  0  0  0  0  0  0
  -30.3770  -12.4520   19.3350 C   0  0  0  0  0  2  0  0  0  0  0  0
  -29.4230  -12.5720   18.1260 C   0  0  0  0  0  2  0  0  0  0  0  0
  -27.9540  -12.4190   18.5630 C   0  0  0  0  0  2  0  0  0  0  0  0
  -27.6030  -13.2770   19.8080 C   0  0  0  0  0  3  0  0  0  0  0  0
  -28.6750  -13.1380   20.9130 C   0  0  0  0  0  2  0  0  0  0  0  0
  -29.9740  -13.4800   20.3130 N   0  0  0  0  0  0  0  0  0  0  0  0
  -31.7820  -14.8400   20.0680 O   0  0  0  0  0  0  0  0  0  0  0  0
  -29.7740  -15.7760   20.5780 N   0  0  0  0  0  0  0  0  0  0  0  0
  -28.7990  -15.5210   20.5800 H   0  0  0  0  0  0  0  0  0  0  0  0
  -25.2130  -13.8640   20.5390 C   0  0  0  0  0  0  0  0  0  0  0  0
  -24.1510  -13.0860   20.9110 C   0  0  0  0  0  0  0  0  0  0  0  0
  -24.6170  -11.7370   20.8780 C   0  0  0  0  0  0  0  0  0  0  0  0
  -26.2600  -12.9870   20.3020 N   0  0  0  0  0  0  0  0  0  0  0  0
  -25.9080  -11.7020   20.5680 N   0  0  0  0  0  0  0  0  0  0  0  0
  -23.8940  -10.4730   21.0660 C   0  0  0  0  0  0  0  0  0  0  0  0
  -24.3390   -9.4970   21.9850 C   0  0  0  0  0  3  0  0  0  0  0  0
  -23.6150   -8.2980   22.1630 C   0  0  0  0  0  3  0  0  0  0  0  0
  -22.4330   -8.0660   21.4200 C   0  0  0  0  0  0  0  0  0  0  0  0
  -22.0060   -9.0310   20.4900 C   0  0  0  0  0  3  0  0  0  0  0  0
  -22.7300  -10.2210   20.3110 C   0  0  0  0  0  3  0  0  0  0  0  0
  -21.6770   -6.9220   21.5110 O   0  0  0  0  0  0  0  0  0  0  0  0
  -21.6490   -6.1670   22.6560 C   0  0  0  0  0  0  0  0  0  0  0  0
  -21.2500   -6.7110   23.8970 C   0  0  0  0  0  3  0  0  0  0  0  0
  -21.1680   -5.8830   25.0340 C   0  0  0  0  0  3  0  0  0  0  0  0
  -21.4730   -4.5130   24.9320 C   0  0  0  0  0  0  0  0  0  0  0  0
  -21.8660   -3.9690   23.6960 C   0  0  0  0  0  3  0  0  0  0  0  0
  -21.9510   -4.7930   22.5610 C   0  0  0  0  0  0  0  0  0  0  0  0
  -22.3090   -4.2600   21.3690 F   0  0  0  0  0  0  0  0  0  0  0  0
  -21.3850   -3.7150   26.0220 F   0  0  0  0  0  0  0  0  0  0  0  0
  -22.7530  -13.5600   21.1850 C   0  0  0  0  0  0  0  0  0  0  0  0
  -22.0320  -12.8670   22.0590 N   0  0  0  0  0  0  0  0  0  0  0  0
  -22.3140  -14.5850   20.6640 O   0  0  0  0  0  0  0  0  0  0  0  0
  -22.3980  -12.0410   22.5070 H   0  0  0  0  0  0  0  0  0  0  0  0
  -21.0960  -13.1730   22.2880 H   0  0  0  0  0  0  0  0  0  0  0  0
  -25.3590  -15.2360   20.3570 N   0  0  0  0  0  0  0  0  0  0  0  0
  -24.5580  -15.8540   20.4310 H   0  0  0  0  0  0  0  0  0  0  0  0
  -26.1660  -15.6900   19.9510 H   0  0  0  0  0  0  0  0  0  0  0  0
  -29.3130  -24.0930   20.4810 C   0  0  0  0  0  0  0  0  0  0  0  0
  -29.2260  -22.7190   20.3690 N   0  0  0  0  0  0  0  0  0  0  0  0
  -30.3240  -24.6120   20.9580 O   0  0  0  0  0  0  0  0  0  0  0  0
  -28.3850  -22.3330   19.9640 H   0  0  0  0  0  0  0  0  0  0  0  0
  -28.1280  -25.0410   20.0280 C   0  0  0  0  0  2  0  0  0  0  0  0
  -28.3300  -26.5000   20.2530 O   0  0  0  0  0  0  0  0  0  0  0  0
  -24.6190  -31.9250   23.2500 C   0  0  0  0  0  0  0  0  0  0  0  0
  -27.2090  -27.3490   20.1950 C   0  0  0  0  0  0  0  0  0  0  0  0
  -23.4070  -30.5310   21.6130 C   0  0  0  0  0  3  0  0  0  0  0  0
  -24.8490  -28.9720   20.1870 C   0  0  0  0  0  0  0  0  0  0  0  0
  -25.9490  -30.8350   21.4310 C   0  0  0  0  0  2  0  0  0  0  0  0
  -26.0210  -29.4570   20.7820 C   0  0  0  0  0  0  0  0  0  0  0  0
  -27.2030  -28.6560   20.7740 C   0  0  0  0  0  3  0  0  0  0  0  0
  -26.0120  -26.9220   19.5720 C   0  0  0  0  0  3  0  0  0  0  0  0
  -24.8470  -27.7120   19.5730 C   0  0  0  0  0  3  0  0  0  0  0  0
  -23.6180  -29.8550   20.2330 C   0  0  0  0  0  2  0  0  0  0  0  0
  -24.6780  -31.1140   22.1540 N   0  0  0  0  0  0  0  0  0  0  0  0
  -23.5370  -32.2100   23.7850 O   0  0  0  0  0  0  0  0  0  0  0  0
  -22.7400  -29.5190   22.5740 C   0  0  0  0  0  0  0  0  0  0  0  0
  -21.4120  -29.3510   22.4520 N   0  0  0  0  0  0  0  0  0  0  0  0
  -23.4170  -28.8860   23.3900 O   0  0  0  0  0  0  0  0  0  0  0  0
  -20.9250  -29.9140   21.7690 H   0  0  0  0  0  0  0  0  0  0  0  0
  -18.0280  -28.1790   22.9660 C   0  0  0  0  0  0  0  0  0  0  0  0
  -20.5890  -28.4210   23.2270 C   0  0  0  0  0  3  0  0  0  0  0  0
  -20.6770  -26.9860   22.6560 C   0  0  0  0  0  2  0  0  0  0  0  0
  -19.5710  -26.6690   21.6450 C   0  0  0  0  0  2  0  0  0  0  0  0
  -18.1930  -26.8270   22.2920 C   0  0  0  0  0  2  0  0  0  0  0  0
  -19.1540  -28.9340   23.3900 C   0  0  0  0  0  0  0  0  0  0  0  0
  -18.9450  -30.1990   23.9810 C   0  0  0  0  0  3  0  0  0  0  0  0
  -17.6450  -30.7110   24.1490 C   0  0  0  0  0  3  0  0  0  0  0  0
  -16.5340  -29.9540   23.7380 C   0  0  0  0  0  3  0  0  0  0  0  0
  -16.7280  -28.6900   23.1520 C   0  0  0  0  0  3  0  0  0  0  0  0
  -25.9050  -32.5540   23.8700 C   0  0  0  0  0  3  0  0  0  0  0  0
  -26.4250  -31.7790   25.1430 C   0  0  1  0  0  0  0  0  0  0  0  0
  -25.3360  -31.5460   26.2160 C   0  0  0  0  0  1  0  0  0  0  0  0
  -27.0000  -30.3990   24.7480 C   0  0  0  0  0  1  0  0  0  0  0  0
  -27.5800  -32.5700   25.8010 C   0  0  0  0  0  1  0  0  0  0  0  0
  -25.6010  -33.9530   24.2040 N   0  0  0  0  0  0  0  0  0  0  0  0
  -25.9220  -35.0060   23.4400 C   0  0  0  0  0  0  0  0  0  0  0  0
  -26.5740  -34.9010   22.3970 O   0  0  0  0  0  0  0  0  0  0  0  0
  -25.0240  -34.1070   25.0180 H   0  0  0  0  0  0  0  0  0  0  0  0
  -24.1820  -36.7950   23.1240 C   0  0  0  0  0  1  0  0  0  0  0  0
  -25.4420  -36.3930   23.9070 C   0  0  0  0  0  3  0  0  0  0  0  0
  -27.5950  -37.2840   24.6860 C   0  0  0  0  0  1  0  0  0  0  0  0
  -26.4700  -37.4480   23.7680 N   0  0  0  0  0  0  0  0  0  0  0  0
  -26.0660  -38.3680   23.9230 H   0  0  0  0  0  0  0  0  0  0  0  0
  2  4  1  0
  3  7  1  0
  4  1  1  0
  4  7  2  0
  5 18  1  0
  5  3  2  0
  6  2  2  0
  6  5  1  0
  7  9  1  0
  8  6  1  0
 10 18  1  0
 11 16  1  0
 12 13  1  0
 12 11  1  0
 14 13  1  0
 14 23  1  0
 14 15  1  0
 16 10  1  0
 16 15  1  0
 17 10  2  0
 18 19  1  0
 20 21  2  0
 21 40  1  0
 22 21  1  0
 22 25  1  0
 23 20  1  0
 23 24  1  0
 24 22  2  0
 25 26  1  0
 26 27  2  0
 28 31  1  0
 28 27  1  0
 29 28  2  0
 30 29  1  0
 30 25  2  0
 31 32  1  0
 32 33  1  0
 33 34  2  0
 35 34  1  0
 35 39  1  0
 36 35  2  0
 37 32  2  0
 37 36  1  0
 38 37  1  0
 40 41  1  0
 41 44  1  0
 41 43  1  0
 42 40  2  0
 45 46  1  0
 45 20  1  0
 47 45  1  0
 48 50  2  0
 49 48  1  0
 49  1  1  0
 51 49  1  0
 52 53  1  0
 52 48  1  0
 54 65  2  0
 55 53  1  0
 55 60  1  0
 56 64  1  0
 56 66  1  0
 57 63  1  0
 57 59  1  0
 58 64  1  0
 59 58  1  0
 60 59  2  0
 61 62  1  0
 61 55  2  0
 62 57  2  0
 63 56  1  0
 64 54  1  0
 66 68  2  0
 67 66  1  0
 69 67  1  0
 70 79  2  0
 70 75  1  0
 71 67  1  0
 71 75  1  0
 72 71  1  0
 73 74  1  0
 73 72  1  0
 74 70  1  0
 75 76  2  0
 76 77  1  0
 78 77  2  0
 79 78  1  0
 80 54  1  0
 80 85  1  0
 80 81  1  0
 81 84  1  1
 81 82  1  0
 83 81  1  0
 85 88  1  0
 86 90  1  0
 86 85  1  0
 87 86  2  0
 90 89  1  0
 92 90  1  0
 92 93  1  0
 92 91  1  0
M  ISO  4  10 100  18 100  52 101  53 101
M  END
>  <TORSDO>  (19) 
F 19

>  <SCORE>  (19) 
-14.673

>  <name>  (19) 
18

>  <ligand_id>  (19) 
18

>  <original_smiles>  (19) 
[H]c1c([H])c([H])c2c(c1[H])C([H])([H])C([H])([H])C([H])([H])C2([H])N([H])C(=O)C1([H])N(C(=O)C([H])(N([H])C(=O)C([H])(N([H])C([H])([H])[H])C([H])([H])[H])C(C([H])([H])[H])(C([H])([H])[H])C([H])([H])[H])C([H])([H])c2c([H])c(OC([H])([H])C(=O)N([H])C([H])([H])c3c([H])c(F)c(N([H])C(=O)N4C([H])([H])C([H])([H])C([H])([H])C([H])(n5nc(-c6c([H])c([H])c(Oc7c([H])c([H])c(F)c([H])c7F)c([H])c6[H])c(C(=O)N([H])[H])c5N([H])[H])C4([H])[H])c([H])c3Cl)c([H])c([H])c2C1([H])[H]

>  <smiles>  (19) 
[H]c1c([H])c([H])c2c(c1[H])C([H])([H])C([H])([H])C([H])([H])C2([H])N([H])C(=O)C1([H])N(C(=O)C([H])(N([H])C(=O)C([H])(N([H])C([H])([H])[H])C([H])([H])[H])C(C([H])([H])[H])(C([H])([H])[H])C([H])([H])[H])C([H])([H])c2c([H])c(OC([H])([H])C(=O)N([H])C([H])([H])c3c([H])c(F)c(N([H])C(=O)N4C([H])([H])C([H])([H])C([H])([H])C([H])(n5nc(-c6c([H])c([H])c(Oc7c([H])c([H])c(F)c([H])c7F)c([H])c6[H])c(C(=O)N([H])[H])c5N([H])[H])C4([H])[H])c([H])c3Cl)c([H])c([H])c2C1([H])[H]

$$$$
19:0:0
     RDKit          3D

 92100  0  0  1  0  0  0  0  0999 V2000
  -29.6900  -21.9380   21.1270 C   0  0  0  0  0  2  0  0  0  0  0  0
  -32.2790  -19.3690   19.8630 C   0  0  0  0  0  3  0  0  0  0  0  0
  -31.6090  -18.1400   20.0430 C   0  0  0  0  0  3  0  0  0  0  0  0
  -31.6500  -20.5890   20.1800 C   0  0  0  0  0  3  0  0  0  0  0  0
  -29.6540  -19.3540   20.8260 C   0  0  0  0  0  3  0  0  0  0  0  0
  -30.2840  -18.1090   20.5230 C   0  0  0  0  0  0  0  0  0  0  0  0
  -30.3250  -20.6020   20.6700 C   0  0  0  0  0  0  0  0  0  0  0  0
  -29.4800  -16.7850   20.5970 C   0  0  0  0  0  2  0  0  0  0  0  0
  -30.6600  -14.5410   20.4360 C   0  0  0  0  0  0  0  0  0  0  0  0
  -30.3730  -12.3570   19.3140 C   0  0  0  0  0  2  0  0  0  0  0  0
  -29.4440  -12.5620   18.0970 C   0  0  0  0  0  2  0  0  0  0  0  0
  -27.9620  -12.4390   18.5030 C   0  0  0  0  0  2  0  0  0  0  0  0
  -27.6200  -13.2710   19.7700 C   0  0  0  0  0  3  0  0  0  0  0  0
  -28.6670  -13.0450   20.8880 C   0  0  0  0  0  2  0  0  0  0  0  0
  -30.0060  -13.3430   20.3460 N   0  0  0  0  0  0  0  0  0  0  0  0
  -31.7260  -14.7520   19.8540 O   0  0  0  0  0  0  0  0  0  0  0  0
  -30.0380  -15.5160   21.1380 N   0  0  0  0  0  0  0  0  0  0  0  0
  -29.4330  -15.1250   21.8430 H   0  0  0  0  0  0  0  0  0  0  0  0
  -25.2140  -13.8880   20.4560 C   0  0  0  0  0  0  0  0  0  0  0  0
  -24.1430  -13.1230   20.8280 C   0  0  0  0  0  0  0  0  0  0  0  0
  -24.6000  -11.7690   20.8100 C   0  0  0  0  0  0  0  0  0  0  0  0
  -26.2610  -13.0050   20.2400 N   0  0  0  0  0  0  0  0  0  0  0  0
  -25.8930  -11.7260   20.5090 N   0  0  0  0  0  0  0  0  0  0  0  0
  -23.8660  -10.5110   21.0080 C   0  0  0  0  0  0  0  0  0  0  0  0
  -24.2970   -9.5460   21.9460 C   0  0  0  0  0  3  0  0  0  0  0  0
  -23.5650   -8.3530   22.1340 C   0  0  0  0  0  3  0  0  0  0  0  0
  -22.3880   -8.1170   21.3840 C   0  0  0  0  0  0  0  0  0  0  0  0
  -21.9750   -9.0730   20.4360 C   0  0  0  0  0  3  0  0  0  0  0  0
  -22.7080  -10.2560   20.2480 C   0  0  0  0  0  3  0  0  0  0  0  0
  -21.6280   -6.9770   21.4800 O   0  0  0  0  0  0  0  0  0  0  0  0
  -21.5870   -6.2310   22.6310 C   0  0  0  0  0  0  0  0  0  0  0  0
  -21.1870   -6.7880   23.8660 C   0  0  0  0  0  3  0  0  0  0  0  0
  -21.0950   -5.9690   25.0090 C   0  0  0  0  0  3  0  0  0  0  0  0
  -21.3920   -4.5970   24.9190 C   0  0  0  0  0  0  0  0  0  0  0  0
  -21.7830   -4.0390   23.6890 C   0  0  0  0  0  3  0  0  0  0  0  0
  -21.8780   -4.8540   22.5480 C   0  0  0  0  0  0  0  0  0  0  0  0
  -22.2370   -4.3100   21.3600 F   0  0  0  0  0  0  0  0  0  0  0  0
  -21.2940   -3.8080   26.0150 F   0  0  0  0  0  0  0  0  0  0  0  0
  -22.7450  -13.6080   21.0900 C   0  0  0  0  0  0  0  0  0  0  0  0
  -22.0110  -12.9250   21.9600 N   0  0  0  0  0  0  0  0  0  0  0  0
  -22.3130  -14.6280   20.5550 O   0  0  0  0  0  0  0  0  0  0  0  0
  -22.3760  -12.1030   22.4170 H   0  0  0  0  0  0  0  0  0  0  0  0
  -21.0700  -13.2300   22.1710 H   0  0  0  0  0  0  0  0  0  0  0  0
  -25.3790  -15.2570   20.2690 N   0  0  0  0  0  0  0  0  0  0  0  0
  -24.6010  -15.9020   20.3610 H   0  0  0  0  0  0  0  0  0  0  0  0
  -26.2300  -15.7030   19.9540 H   0  0  0  0  0  0  0  0  0  0  0  0
  -29.5380  -22.9980   20.0810 N   0  0  0  0  0  4  0  0  0  0  0  0
  -30.3400  -22.9520   19.4720 H   0  0  0  0  0  0  0  0  0  0  0  0
  -28.7370  -22.7620   19.5180 H   0  0  0  0  0  0  0  0  0  0  0  0
  -29.4110  -24.4100   20.5870 C   0  0  0  0  0  2  0  0  0  0  0  0
  -28.4140  -25.2920   19.7760 C   0  0  0  0  0  2  0  0  0  0  0  0
  -28.4030  -26.6840   20.1840 O   0  0  0  0  0  0  0  0  0  0  0  0
  -24.5920  -31.8910   23.2290 C   0  0  0  0  0  0  0  0  0  0  0  0
  -27.2220  -27.4160   20.1390 C   0  0  0  0  0  0  0  0  0  0  0  0
  -23.3780  -30.4930   21.5900 C   0  0  0  0  0  3  0  0  0  0  0  0
  -24.8260  -28.9540   20.1540 C   0  0  0  0  0  0  0  0  0  0  0  0
  -25.9070  -30.8390   21.3850 C   0  0  0  0  0  2  0  0  0  0  0  0
  -25.9870  -29.4650   20.7460 C   0  0  0  0  0  0  0  0  0  0  0  0
  -27.1820  -28.7040   20.7380 C   0  0  0  0  0  3  0  0  0  0  0  0
  -26.0360  -26.9390   19.5250 C   0  0  0  0  0  3  0  0  0  0  0  0
  -24.8490  -27.6920   19.5400 C   0  0  0  0  0  3  0  0  0  0  0  0
  -23.5820  -29.8140   20.2090 C   0  0  0  0  0  2  0  0  0  0  0  0
  -24.6440  -31.0880   22.1280 N   0  0  0  0  0  0  0  0  0  0  0  0
  -23.5130  -32.1650   23.7730 O   0  0  0  0  0  0  0  0  0  0  0  0
  -22.7270  -29.4730   22.5510 C   0  0  0  0  0  0  0  0  0  0  0  0
  -21.4000  -29.2950   22.4290 N   0  0  0  0  0  0  0  0  0  0  0  0
  -23.4110  -28.8420   23.3640 O   0  0  0  0  0  0  0  0  0  0  0  0
  -20.9100  -29.8530   21.7430 H   0  0  0  0  0  0  0  0  0  0  0  0
  -18.0250  -28.1150   22.9390 C   0  0  0  0  0  0  0  0  0  0  0  0
  -20.5830  -28.3580   23.2010 C   0  0  0  0  0  3  0  0  0  0  0  0
  -20.6770  -26.9300   22.6180 C   0  0  0  0  0  2  0  0  0  0  0  0
  -19.5690  -26.6180   21.6070 C   0  0  0  0  0  2  0  0  0  0  0  0
  -18.1900  -26.7670   22.2570 C   0  0  0  0  0  2  0  0  0  0  0  0
  -19.1480  -28.8690   23.3680 C   0  0  0  0  0  0  0  0  0  0  0  0
  -18.9390  -30.1330   23.9630 C   0  0  0  0  0  3  0  0  0  0  0  0
  -17.6390  -30.6420   24.1320 C   0  0  0  0  0  3  0  0  0  0  0  0
  -16.5290  -29.8850   23.7200 C   0  0  0  0  0  3  0  0  0  0  0  0
  -16.7220  -28.6230   23.1300 C   0  0  0  0  0  3  0  0  0  0  0  0
  -25.8810  -32.5170   23.8470 C   0  0  0  0  0  3  0  0  0  0  0  0
  -25.5770  -33.9140   24.1800 N   0  0  0  0  0  0  0  0  0  0  0  0
  -25.9130  -34.9690   23.4240 C   0  0  0  0  0  0  0  0  0  0  0  0
  -26.5820  -34.8650   22.3930 O   0  0  0  0  0  0  0  0  0  0  0  0
  -24.9780  -34.0690   24.9790 H   0  0  0  0  0  0  0  0  0  0  0  0
  -24.1870  -36.7650   23.0710 C   0  0  0  0  0  1  0  0  0  0  0  0
  -25.4260  -36.3580   23.8840 C   0  0  0  0  0  3  0  0  0  0  0  0
  -27.5640  -37.2320   24.7140 C   0  0  0  0  0  1  0  0  0  0  0  0
  -26.4620  -37.4080   23.7720 N   0  0  0  0  0  0  0  0  0  0  0  0
  -26.0610  -38.3300   23.9220 H   0  0  0  0  0  0  0  0  0  0  0  0
  -26.4000  -31.7410   25.1200 C   0  0  1  0  0  0  0  0  0  0  0  0
  -25.3080  -31.5050   26.1890 C   0  0  0  0  0  1  0  0  0  0  0  0
  -26.9750  -30.3640   24.7170 C   0  0  0  0  0  1  0  0  0  0  0  0
  -27.5530  -32.5300   25.7800 C   0  0  0  0  0  1  0  0  0  0  0  0
  2  3  2  0
  2  4  1  0
  3  6  1  0
  4  7  2  0
  6  8  1  0
  6  5  2  0
  7  5  1  0
  7  1  1  0
  8 17  1  0
  9 17  1  0
 10 15  1  0
 11 12  1  0
 11 10  1  0
 13 12  1  0
 13 22  1  0
 13 14  1  0
 15  9  1  0
 15 14  1  0
 16  9  2  0
 17 18  1  0
 19 20  2  0
 20 39  1  0
 21 20  1  0
 21 24  1  0
 22 19  1  0
 22 23  1  0
 23 21  2  0
 24 25  1  0
 25 26  2  0
 27 30  1  0
 27 26  1  0
 28 27  2  0
 29 28  1  0
 29 24  2  0
 30 31  1  0
 31 32  1  0
 32 33  2  0
 34 33  1  0
 34 38  1  0
 35 34  2  0
 36 31  2  0
 36 35  1  0
 37 36  1  0
 39 40  1  0
 40 43  1  0
 40 42  1  0
 41 39  2  0
 44 45  1  0
 44 19  1  0
 46 44  1  0
 47 50  1  0
 47  1  1  0
 48 47  1  0
 49 47  1  0
 51 52  1  0
 51 50  1  0
 53 64  2  0
 54 52  1  0
 54 59  1  0
 55 63  1  0
 55 65  1  0
 56 62  1  0
 56 58  1  0
 57 63  1  0
 58 57  1  0
 59 58  2  0
 60 61  1  0
 60 54  2  0
 61 56  2  0
 62 55  1  0
 63 53  1  0
 65 67  2  0
 66 65  1  0
 68 66  1  0
 69 78  2  0
 69 74  1  0
 70 66  1  0
 70 74  1  0
 71 70  1  0
 72 73  1  0
 72 71  1  0
 73 69  1  0
 74 75  2  0
 75 76  1  0
 77 76  2  0
 78 77  1  0
 79 53  1  0
 79 80  1  0
 79 89  1  0
 80 83  1  0
 81 85  1  0
 81 80  1  0
 82 81  2  0
 85 84  1  0
 87 85  1  0
 87 88  1  0
 87 86  1  0
 89 92  1  1
 89 90  1  0
 91 89  1  0
M  ISO  4   9 100  17 100  51 101  52 101
M  END
>  <TORSDO>  (20) 
F 21

>  <SCORE>  (20) 
-13.521

>  <name>  (20) 
19

>  <ligand_id>  (20) 
19

>  <original_smiles>  (20) 
[H]c1c([H])c([H])c2c(c1[H])C([H])([H])C([H])([H])C([H])([H])C2([H])N([H])C(=O)C1([H])N(C(=O)C([H])(N([H])C(=O)C([H])(N([H])C([H])([H])[H])C([H])([H])[H])C(C([H])([H])[H])(C([H])([H])[H])C([H])([H])[H])C([H])([H])c2c([H])c(OC([H])([H])C([H])([H])[N+]([H])([H])C([H])([H])c3c([H])c([H])c([H])c(C([H])([H])N([H])C(=O)N4C([H])([H])C([H])([H])C([H])([H])C([H])(n5nc(-c6c([H])c([H])c(Oc7c([H])c([H])c(F)c([H])c7F)c([H])c6[H])c(C(=O)N([H])[H])c5N([H])[H])C4([H])[H])c3[H])c([H])c([H])c2C1([H])[H]

>  <smiles>  (20) 
[H]c1c([H])c([H])c2c(c1[H])C([H])([H])C([H])([H])C([H])([H])C2([H])N([H])C(=O)C1([H])N(C(=O)C([H])(N([H])C(=O)C([H])(N([H])C([H])([H])[H])C([H])([H])[H])C(C([H])([H])[H])(C([H])([H])[H])C([H])([H])[H])C([H])([H])c2c([H])c(OC([H])([H])C([H])([H])[N+]([H])([H])C([H])([H])c3c([H])c([H])c([H])c(C([H])([H])N([H])C(=O)N4C([H])([H])C([H])([H])C([H])([H])C([H])(n5nc(-c6c([H])c([H])c(Oc7c([H])c([H])c(F)c([H])c7F)c([H])c6[H])c(C(=O)N([H])[H])c5N([H])[H])C4([H])[H])c3[H])c([H])c([H])c2C1([H])[H]

$$$$
20:0:0
     RDKit          3D

 94103  0  0  1  0  0  0  0  0999 V2000
  -28.6180  -23.1240   19.8800 C   0  0  0  0  0  0  0  0  0  0  0  0
  -29.8720  -23.2650   22.4360 C   0  0  0  0  0  2  0  0  0  0  0  0
  -29.4680  -24.6450   21.8730 C   0  0  0  0  0  2  0  0  0  0  0  0
  -30.3590  -22.3070   21.3250 C   0  0  0  0  0  2  0  0  0  0  0  0
  -28.4310  -24.5910   20.7270 C   0  0  0  0  0  3  0  0  0  0  0  0
  -29.2890  -21.9350   20.3790 N   0  0  0  0  0  0  0  0  0  0  0  0
  -28.0410  -23.0540   18.7930 O   0  0  0  0  0  0  0  0  0  0  0  0
  -28.4230  -26.0670   20.1270 O   0  0  0  0  0  0  0  0  0  0  0  0
  -24.5050  -31.7020   23.0930 C   0  0  0  0  0  0  0  0  0  0  0  0
  -27.3190  -27.0190   20.1680 C   0  0  0  0  0  0  0  0  0  0  0  0
  -23.3880  -30.2540   21.4400 C   0  0  0  0  0  3  0  0  0  0  0  0
  -24.9220  -28.7080   20.0620 C   0  0  0  0  0  0  0  0  0  0  0  0
  -25.9350  -30.6050   21.3130 C   0  0  0  0  0  2  0  0  0  0  0  0
  -26.0780  -29.2000   20.6870 C   0  0  0  0  0  0  0  0  0  0  0  0
  -27.2760  -28.3770   20.7120 C   0  0  0  0  0  3  0  0  0  0  0  0
  -26.1290  -26.6390   19.5130 C   0  0  0  0  0  3  0  0  0  0  0  0
  -24.9640  -27.4400   19.4570 C   0  0  0  0  0  3  0  0  0  0  0  0
  -23.6620  -29.5660   20.0730 C   0  0  0  0  0  2  0  0  0  0  0  0
  -24.6280  -30.8810   22.0030 N   0  0  0  0  0  0  0  0  0  0  0  0
  -23.3990  -31.9460   23.6020 O   0  0  0  0  0  0  0  0  0  0  0  0
  -22.7280  -29.2310   22.4020 C   0  0  0  0  0  0  0  0  0  0  0  0
  -21.4040  -29.0220   22.2690 N   0  0  0  0  0  0  0  0  0  0  0  0
  -23.4100  -28.6280   23.2340 O   0  0  0  0  0  0  0  0  0  0  0  0
  -20.9070  -29.5650   21.5750 H   0  0  0  0  0  0  0  0  0  0  0  0
  -18.0630  -27.7030   22.7390 C   0  0  0  0  0  0  0  0  0  0  0  0
  -20.6070  -28.0600   23.0360 C   0  0  0  0  0  3  0  0  0  0  0  0
  -20.7670  -26.6310   22.4680 C   0  0  0  0  0  2  0  0  0  0  0  0
  -19.6890  -26.2660   21.4400 C   0  0  0  0  0  2  0  0  0  0  0  0
  -18.2970  -26.3600   22.0670 C   0  0  0  0  0  2  0  0  0  0  0  0
  -19.1470  -28.5080   23.1800 C   0  0  0  0  0  0  0  0  0  0  0  0
  -18.8720  -29.7590   23.7690 C   0  0  0  0  0  3  0  0  0  0  0  0
  -17.5470  -30.2090   23.9210 C   0  0  0  0  0  3  0  0  0  0  0  0
  -16.4780  -29.4030   23.4930 C   0  0  0  0  0  3  0  0  0  0  0  0
  -16.7360  -28.1510   22.9090 C   0  0  0  0  0  3  0  0  0  0  0  0
  -25.7460  -32.3910   23.7390 C   0  0  0  0  0  3  0  0  0  0  0  0
  -25.3730  -33.7790   24.0620 N   0  0  0  0  0  0  0  0  0  0  0  0
  -25.6710  -34.8450   23.3070 C   0  0  0  0  0  0  0  0  0  0  0  0
  -26.3520  -34.7670   22.2830 O   0  0  0  0  0  0  0  0  0  0  0  0
  -24.7670  -33.9080   24.8580 H   0  0  0  0  0  0  0  0  0  0  0  0
  -23.8690  -36.5670   22.9480 C   0  0  0  0  0  1  0  0  0  0  0  0
  -25.1270  -36.2170   23.7590 C   0  0  0  0  0  3  0  0  0  0  0  0
  -27.2260  -37.1910   24.5840 C   0  0  0  0  0  1  0  0  0  0  0  0
  -26.1160  -37.3110   23.6420 N   0  0  0  0  0  0  0  0  0  0  0  0
  -25.6730  -38.2140   23.7860 H   0  0  0  0  0  0  0  0  0  0  0  0
  -26.2560  -31.6520   25.0380 C   0  0  1  0  0  0  0  0  0  0  0  0
  -25.1470  -31.3980   26.0860 C   0  0  0  0  0  1  0  0  0  0  0  0
  -26.8910  -30.2890   24.6840 C   0  0  0  0  0  1  0  0  0  0  0  0
  -27.3640  -32.4910   25.7190 C   0  0  0  0  0  1  0  0  0  0  0  0
  -29.3300  -20.3510   19.9200 C   0  0  0  0  0  2  0  0  0  0  0  0
  -30.2360  -18.9500   23.3370 C   0  0  0  0  0  3  0  0  0  0  0  0
  -30.9280  -17.7630   23.1960 C   0  0  0  0  0  3  0  0  0  0  0  0
  -29.6830  -19.5410   22.2070 C   0  0  0  0  0  3  0  0  0  0  0  0
  -30.9400  -17.0650   21.9740 C   0  0  0  0  0  0  0  0  0  0  0  0
  -29.7840  -19.0370   20.8850 C   0  0  0  0  0  0  0  0  0  0  0  0
  -30.2740  -17.5500   20.7720 C   0  0  0  0  0  0  0  0  0  0  0  0
  -31.6770  -15.7310   22.1160 C   0  0  0  0  0  1  0  0  0  0  0  0
  -30.6430  -15.0810   19.4870 C   0  0  0  0  0  0  0  0  0  0  0  0
  -30.3120  -12.7480   18.4620 C   0  0  0  0  0  2  0  0  0  0  0  0
  -29.2240  -12.6880   17.3650 C   0  0  0  0  0  2  0  0  0  0  0  0
  -27.8340  -12.4760   17.9910 C   0  0  0  0  0  2  0  0  0  0  0  0
  -27.5940  -13.3960   19.2130 C   0  0  0  0  0  3  0  0  0  0  0  0
  -28.7900  -13.4160   20.1860 C   0  0  0  0  0  2  0  0  0  0  0  0
  -29.9570  -13.8550   19.4070 N   0  0  0  0  0  0  0  0  0  0  0  0
  -31.8100  -15.0470   19.0760 O   0  0  0  0  0  0  0  0  0  0  0  0
  -30.0110  -16.3590   19.7850 N   0  0  0  0  0  0  0  0  0  0  0  0
  -29.0350  -16.3210   19.5310 H   0  0  0  0  0  0  0  0  0  0  0  0
  -25.3640  -14.0000   20.3050 C   0  0  0  0  0  0  0  0  0  0  0  0
  -24.3310  -13.2390   20.7770 C   0  0  0  0  0  0  0  0  0  0  0  0
  -24.7410  -11.8770   20.6250 C   0  0  0  0  0  0  0  0  0  0  0  0
  -26.3320  -13.1060   19.8840 N   0  0  0  0  0  0  0  0  0  0  0  0
  -25.9790  -11.8210   20.1460 N   0  0  0  0  0  0  0  0  0  0  0  0
  -24.0010  -10.6280   20.8550 C   0  0  0  0  0  0  0  0  0  0  0  0
  -24.4780   -9.6380   21.7420 C   0  0  0  0  0  3  0  0  0  0  0  0
  -23.7370   -8.4570   21.9610 C   0  0  0  0  0  3  0  0  0  0  0  0
  -22.5040   -8.2580   21.2940 C   0  0  0  0  0  0  0  0  0  0  0  0
  -22.0450   -9.2360   20.3950 C   0  0  0  0  0  3  0  0  0  0  0  0
  -22.7860  -10.4090   20.1730 C   0  0  0  0  0  3  0  0  0  0  0  0
  -21.7290   -7.1300   21.4250 O   0  0  0  0  0  0  0  0  0  0  0  0
  -21.6970   -6.4120   22.5930 C   0  0  0  0  0  0  0  0  0  0  0  0
  -21.3250   -7.0020   23.8210 C   0  0  0  0  0  3  0  0  0  0  0  0
  -21.2360   -6.2120   24.9850 C   0  0  0  0  0  3  0  0  0  0  0  0
  -21.5110   -4.8330   24.9220 C   0  0  0  0  0  0  0  0  0  0  0  0
  -21.8780   -4.2430   23.7000 C   0  0  0  0  0  3  0  0  0  0  0  0
  -21.9670   -5.0300   22.5390 C   0  0  0  0  0  0  0  0  0  0  0  0
  -22.3000   -4.4520   21.3590 F   0  0  0  0  0  0  0  0  0  0  0  0
  -21.4200   -4.0720   26.0380 F   0  0  0  0  0  0  0  0  0  0  0  0
  -22.9980  -13.7430   21.2490 C   0  0  0  0  0  0  0  0  0  0  0  0
  -22.3800  -13.0430   22.1930 N   0  0  0  0  0  0  0  0  0  0  0  0
  -22.5230  -14.7910   20.8140 O   0  0  0  0  0  0  0  0  0  0  0  0
  -22.7810  -12.1920   22.5570 H   0  0  0  0  0  0  0  0  0  0  0  0
  -21.4910  -13.3600   22.5530 H   0  0  0  0  0  0  0  0  0  0  0  0
  -25.5530  -15.3720   20.1670 N   0  0  0  0  0  0  0  0  0  0  0  0
  -24.8410  -16.0500   20.4150 H   0  0  0  0  0  0  0  0  0  0  0  0
  -26.3700  -15.7930   19.7460 H   0  0  0  0  0  0  0  0  0  0  0  0
  1  6  1  0
  1  5  1  0
  3  2  1  0
  4  2  1  0
  5  8  1  0
  5  3  1  0
  6  4  1  0
  7  1  2  0
  8 10  1  0
  9 20  2  0
 10 15  1  0
 11 19  1  0
 11 21  1  0
 12 18  1  0
 12 14  1  0
 13 19  1  0
 14 15  2  0
 14 13  1  0
 16 10  2  0
 17 16  1  0
 17 12  2  0
 18 11  1  0
 19  9  1  0
 21 23  2  0
 22 21  1  0
 24 22  1  0
 25 34  2  0
 25 30  1  0
 26 22  1  0
 26 30  1  0
 27 26  1  0
 28 29  1  0
 28 27  1  0
 29 25  1  0
 30 31  2  0
 31 32  1  0
 33 32  2  0
 34 33  1  0
 35  9  1  0
 35 36  1  0
 35 45  1  0
 36 39  1  0
 37 41  1  0
 37 36  1  0
 38 37  2  0
 41 40  1  0
 43 41  1  0
 43 44  1  0
 43 42  1  0
 45 48  1  1
 45 46  1  0
 47 45  1  0
 49  6  1  0
 49 54  1  0
 51 50  1  0
 52 50  2  0
 53 56  1  0
 53 51  2  0
 54 52  1  0
 55 54  2  0
 55 53  1  0
 57 65  1  0
 58 63  1  0
 59 60  1  0
 59 58  1  0
 61 60  1  0
 61 70  1  0
 61 62  1  0
 63 57  1  0
 63 62  1  0
 64 57  2  0
 65 55  1  0
 66 65  1  0
 67 68  2  0
 68 87  1  0
 69 68  1  0
 69 72  1  0
 70 71  1  0
 70 67  1  0
 71 69  2  0
 72 73  1  0
 73 74  2  0
 75 78  1  0
 75 74  1  0
 76 75  2  0
 77 76  1  0
 77 72  2  0
 78 79  1  0
 79 80  1  0
 80 81  2  0
 82 81  1  0
 82 86  1  0
 83 82  2  0
 84 79  2  0
 84 83  1  0
 85 84  1  0
 87 88  1  0
 88 91  1  0
 88 90  1  0
 89 87  2  0
 92 67  1  0
 92 93  1  0
 94 92  1  0
M  ISO  4   5 101   8 101  57 100  65 100
M  END
>  <TORSDO>  (21) 
F 18

>  <SCORE>  (21) 
-10.687

>  <name>  (21) 
20

>  <ligand_id>  (21) 
20

>  <original_smiles>  (21) 
[H]c1c([H])c(C([H])([H])[H])c(N([H])C(=O)N2C([H])([H])C([H])([H])C([H])([H])C([H])(n3nc(-c4c([H])c([H])c(Oc5c([H])c([H])c(F)c([H])c5F)c([H])c4[H])c(C(=O)N([H])[H])c3N([H])[H])C2([H])[H])c(C([H])([H])N2C(=O)C([H])(Oc3c([H])c([H])c4c(c3[H])C([H])([H])N(C(=O)C([H])(N([H])C(=O)C([H])(N([H])C([H])([H])[H])C([H])([H])[H])C(C([H])([H])[H])(C([H])([H])[H])C([H])([H])[H])C([H])(C(=O)N([H])C3([H])c5c([H])c([H])c([H])c([H])c5C([H])([H])C([H])([H])C3([H])[H])C4([H])[H])C([H])([H])C([H])([H])C2([H])[H])c1[H]

>  <smiles>  (21) 
[H]c1c([H])c(C([H])([H])[H])c(N([H])C(=O)N2C([H])([H])C([H])([H])C([H])([H])C([H])(n3nc(-c4c([H])c([H])c(Oc5c([H])c([H])c(F)c([H])c5F)c([H])c4[H])c(C(=O)N([H])[H])c3N([H])[H])C2([H])[H])c(C([H])([H])N2C(=O)C([H])(Oc3c([H])c([H])c4c(c3[H])C([H])([H])N(C(=O)C([H])(N([H])C(=O)C([H])(N([H])C([H])([H])[H])C([H])([H])[H])C(C([H])([H])[H])(C([H])([H])[H])C([H])([H])[H])C([H])(C(=O)N([H])C3([H])c5c([H])c([H])c([H])c([H])c5C([H])([H])C([H])([H])C3([H])[H])C4([H])[H])C([H])([H])C([H])([H])C2([H])[H])c1[H]

$$$$
21:0:0
     RDKit          3D

 98107  0  0  1  0  0  0  0  0999 V2000
  -29.1370  -21.7560   20.9920 C   0  0  0  0  0  2  0  0  0  0  0  0
  -28.6120  -17.8600   18.9040 C   0  0  0  0  0  3  0  0  0  0  0  0
  -29.0250  -17.8620   20.2430 C   0  0  0  0  0  0  0  0  0  0  0  0
  -29.1480  -19.1370   20.9000 C   0  0  0  0  0  0  0  0  0  0  0  0
  -28.8820  -20.3990   20.2200 C   0  0  0  0  0  0  0  0  0  0  0  0
  -28.5390  -20.3270   18.8310 C   0  0  0  0  0  0  0  0  0  0  0  0
  -28.3870  -19.0610   18.2060 C   0  0  0  0  0  0  0  0  0  0  0  0
  -29.6180  -19.0930   22.3550 C   0  0  0  0  0  1  0  0  0  0  0  0
  -28.3710  -21.5670   17.9520 C   0  0  0  0  0  1  0  0  0  0  0  0
  -27.9600  -18.9280   16.5330 Cl  0  0  0  0  0  0  0  0  0  0  0  0
  -29.3070  -16.4690   20.8990 C   0  0  0  0  0  2  0  0  0  0  0  0
  -31.0190  -14.6340   19.9420 C   0  0  0  0  0  0  0  0  0  0  0  0
  -30.6280  -12.4300   18.9010 C   0  0  0  0  0  2  0  0  0  0  0  0
  -29.6320  -12.5450   17.7320 C   0  0  0  0  0  2  0  0  0  0  0  0
  -28.1910  -12.3830   18.2540 C   0  0  0  0  0  2  0  0  0  0  0  0
  -27.9050  -13.2920   19.4790 C   0  0  0  0  0  3  0  0  0  0  0  0
  -29.0160  -13.1530   20.5430 C   0  0  0  0  0  2  0  0  0  0  0  0
  -30.2830  -13.4820   19.8840 N   0  0  0  0  0  0  0  0  0  0  0  0
  -32.1440  -14.6780   19.4460 O   0  0  0  0  0  0  0  0  0  0  0  0
  -30.5650  -15.8150   20.4610 N   0  0  0  0  0  0  0  0  0  0  0  0
  -31.3220  -16.4850   20.4530 H   0  0  0  0  0  0  0  0  0  0  0  0
  -25.5750  -13.9230   20.3470 C   0  0  0  0  0  0  0  0  0  0  0  0
  -24.5160  -13.1590   20.7660 C   0  0  0  0  0  0  0  0  0  0  0  0
  -24.9490  -11.8000   20.6740 C   0  0  0  0  0  0  0  0  0  0  0  0
  -26.5840  -13.0280   20.0360 N   0  0  0  0  0  0  0  0  0  0  0  0
  -26.2180  -11.7450   20.2910 N   0  0  0  0  0  0  0  0  0  0  0  0
  -24.2090  -10.5470   20.8680 C   0  0  0  0  0  0  0  0  0  0  0  0
  -24.6180   -9.5890   21.8200 C   0  0  0  0  0  3  0  0  0  0  0  0
  -23.8740   -8.4050   22.0090 C   0  0  0  0  0  3  0  0  0  0  0  0
  -22.7070   -8.1720   21.2420 C   0  0  0  0  0  0  0  0  0  0  0  0
  -22.3230   -9.1150   20.2740 C   0  0  0  0  0  3  0  0  0  0  0  0
  -23.0670  -10.2900   20.0840 C   0  0  0  0  0  3  0  0  0  0  0  0
  -21.9380   -7.0360   21.3350 O   0  0  0  0  0  0  0  0  0  0  0  0
  -21.7760   -6.3750   22.5260 C   0  0  0  0  0  0  0  0  0  0  0  0
  -21.2300   -7.0100   23.6630 C   0  0  0  0  0  3  0  0  0  0  0  0
  -21.0160   -6.2730   24.8450 C   0  0  0  0  0  3  0  0  0  0  0  0
  -21.3360   -4.9020   24.8890 C   0  0  0  0  0  0  0  0  0  0  0  0
  -21.8770   -4.2690   23.7560 C   0  0  0  0  0  3  0  0  0  0  0  0
  -22.0920   -5.0040   22.5770 C   0  0  0  0  0  0  0  0  0  0  0  0
  -22.5920   -4.3820   21.4810 F   0  0  0  0  0  0  0  0  0  0  0  0
  -21.1270   -4.1920   26.0230 F   0  0  0  0  0  0  0  0  0  0  0  0
  -23.1490  -13.6590   21.1280 C   0  0  0  0  0  0  0  0  0  0  0  0
  -22.4660  -12.9560   22.0290 N   0  0  0  0  0  0  0  0  0  0  0  0
  -22.6990  -14.7030   20.6610 O   0  0  0  0  0  0  0  0  0  0  0  0
  -22.8500  -12.1100   22.4190 H   0  0  0  0  0  0  0  0  0  0  0  0
  -21.5560  -13.2720   22.3340 H   0  0  0  0  0  0  0  0  0  0  0  0
  -25.7440  -15.2940   20.1940 N   0  0  0  0  0  0  0  0  0  0  0  0
  -24.9650  -15.9250   20.3400 H   0  0  0  0  0  0  0  0  0  0  0  0
  -26.5310  -15.7370   19.7410 H   0  0  0  0  0  0  0  0  0  0  0  0
  -29.2010  -24.3220   20.3200 C   0  0  0  0  0  0  0  0  0  0  0  0
  -30.2560  -24.2700   19.4880 C   0  0  0  0  0  2  0  0  0  0  0  0
  -26.4820  -24.3670   21.6070 C   0  0  0  0  0  2  0  0  0  0  0  0
  -27.6040  -25.3490   22.0550 C   0  0  0  0  0  2  0  0  0  0  0  0
  -26.9740  -23.1820   20.7240 C   0  0  0  0  0  2  0  0  0  0  0  0
  -28.7040  -25.6240   20.9990 C   0  0  0  0  0  3  0  0  0  0  0  0
  -28.4470  -23.0940   20.8140 N   0  0  1  0  0  4  0  0  0  0  0  0
  -28.4570  -23.2770   21.8070 H   0  0  0  0  0  0  0  0  0  0  0  0
  -28.5220  -26.7320   20.0760 O   0  0  0  0  0  0  0  0  0  0  0  0
  -24.6280  -31.8750   23.2020 C   0  0  0  0  0  0  0  0  0  0  0  0
  -27.3620  -27.4800   20.1100 C   0  0  0  0  0  0  0  0  0  0  0  0
  -23.4630  -30.4840   21.5210 C   0  0  0  0  0  3  0  0  0  0  0  0
  -24.9590  -28.9740   20.1100 C   0  0  0  0  0  0  0  0  0  0  0  0
  -25.9950  -30.8640   21.3760 C   0  0  0  0  0  2  0  0  0  0  0  0
  -26.1060  -29.5010   20.7210 C   0  0  0  0  0  0  0  0  0  0  0  0
  -27.3140  -28.7600   20.7190 C   0  0  0  0  0  3  0  0  0  0  0  0
  -26.2070  -26.9800   19.4740 C   0  0  0  0  0  3  0  0  0  0  0  0
  -25.0080  -27.7160   19.4810 C   0  0  0  0  0  3  0  0  0  0  0  0
  -23.7090  -29.8270   20.1400 C   0  0  0  0  0  2  0  0  0  0  0  0
  -24.7130  -31.0900   22.0920 N   0  0  0  0  0  0  0  0  0  0  0  0
  -23.5340  -32.1290   23.7210 O   0  0  0  0  0  0  0  0  0  0  0  0
  -22.8060  -29.4400   22.4540 C   0  0  0  0  0  0  0  0  0  0  0  0
  -21.4810  -29.2690   22.3260 N   0  0  0  0  0  0  0  0  0  0  0  0
  -23.4870  -28.7860   23.2510 O   0  0  0  0  0  0  0  0  0  0  0  0
  -20.9900  -29.8500   21.6610 H   0  0  0  0  0  0  0  0  0  0  0  0
  -18.1000  -28.1320   22.8450 C   0  0  0  0  0  0  0  0  0  0  0  0
  -20.6640  -28.3200   23.0820 C   0  0  0  0  0  3  0  0  0  0  0  0
  -20.7230  -26.9120   22.4500 C   0  0  0  0  0  2  0  0  0  0  0  0
  -19.6090  -26.6700   21.4330 C   0  0  0  0  0  2  0  0  0  0  0  0
  -18.2370  -26.8130   22.1020 C   0  0  0  0  0  2  0  0  0  0  0  0
  -19.2400  -28.8490   23.2890 C   0  0  0  0  0  0  0  0  0  0  0  0
  -19.0540  -30.0890   23.9330 C   0  0  0  0  0  3  0  0  0  0  0  0
  -17.7590  -30.6080   24.1420 C   0  0  0  0  0  3  0  0  0  0  0  0
  -16.6340  -29.8860   23.7150 C   0  0  0  0  0  3  0  0  0  0  0  0
  -16.8090  -28.6470   23.0770 C   0  0  0  0  0  3  0  0  0  0  0  0
  -25.8940  -32.5110   23.8530 C   0  0  0  0  0  3  0  0  0  0  0  0
  -26.3960  -31.7360   25.1340 C   0  0  1  0  0  0  0  0  0  0  0  0
  -25.2880  -31.4720   26.1800 C   0  0  0  0  0  1  0  0  0  0  0  0
  -26.9980  -30.3660   24.7390 C   0  0  0  0  0  1  0  0  0  0  0  0
  -27.5250  -32.5360   25.8230 C   0  0  0  0  0  1  0  0  0  0  0  0
  -25.5660  -33.9040   24.1850 N   0  0  0  0  0  0  0  0  0  0  0  0
  -25.9050  -34.9610   23.4350 C   0  0  0  0  0  0  0  0  0  0  0  0
  -26.5880  -34.8650   22.4130 O   0  0  0  0  0  0  0  0  0  0  0  0
  -24.9570  -34.0540   24.9770 H   0  0  0  0  0  0  0  0  0  0  0  0
  -24.1700  -36.7430   23.0610 C   0  0  0  0  0  1  0  0  0  0  0  0
  -25.4010  -36.3450   23.8900 C   0  0  0  0  0  3  0  0  0  0  0  0
  -27.5120  -37.2450   24.7580 C   0  0  0  0  0  1  0  0  0  0  0  0
  -26.4250  -37.4060   23.7970 N   0  0  0  0  0  0  0  0  0  0  0  0
  -26.0100  -38.3220   23.9370 H   0  0  0  0  0  0  0  0  0  0  0  0
  2  3  1  0
  3 11  1  0
  3  4  2  0
  4  8  1  0
  5  4  1  0
  5  1  1  0
  6  5  2  0
  7  6  1  0
  7  2  2  0
  9  6  1  0
 10  7  1  0
 12 20  1  0
 13 18  1  0
 14 15  1  0
 14 13  1  0
 16 15  1  0
 16 25  1  0
 16 17  1  0
 18 12  1  0
 18 17  1  0
 19 12  2  0
 20 11  1  0
 21 20  1  0
 22 23  2  0
 23 42  1  0
 24 23  1  0
 24 27  1  0
 25 26  1  0
 25 22  1  0
 26 24  2  0
 27 28  1  0
 28 29  2  0
 30 33  1  0
 30 29  1  0
 31 30  2  0
 32 31  1  0
 32 27  2  0
 33 34  1  0
 34 39  2  0
 34 35  1  0
 35 36  2  0
 36 37  1  0
 37 41  1  0
 38 37  2  0
 39 38  1  0
 40 39  1  0
 42 43  1  0
 43 46  1  0
 43 45  1  0
 44 42  2  0
 47 48  1  0
 47 22  1  0
 49 47  1  0
 50 56  1  0
 50 55  1  0
 51 50  2  0
 52 53  1  0
 54 56  1  0
 54 52  1  0
 55 58  1  0
 55 53  1  0
 56  1  1  0
 56 57  1  1
 58 60  1  0
 59 70  2  0
 60 65  1  0
 61 69  1  0
 61 71  1  0
 62 68  1  0
 62 64  1  0
 63 69  1  0
 64 63  1  0
 65 64  2  0
 66 67  1  0
 66 60  2  0
 67 62  2  0
 68 61  1  0
 69 59  1  0
 71 73  2  0
 72 71  1  0
 74 72  1  0
 75 84  2  0
 75 80  1  0
 76 72  1  0
 76 80  1  0
 77 76  1  0
 78 79  1  0
 78 77  1  0
 79 75  1  0
 80 81  2  0
 81 82  1  0
 83 82  2  0
 84 83  1  0
 85 59  1  0
 85 90  1  0
 85 86  1  0
 86 89  1  1
 86 87  1  0
 88 86  1  0
 90 93  1  0
 91 95  1  0
 91 90  1  0
 92 91  2  0
 95 94  1  0
 97 95  1  0
 97 98  1  0
 97 96  1  0
M  ISO  4  12 100  20 100  55 101  58 101
M  END
>  <TORSDO>  (22) 
F 19

>  <SCORE>  (22) 
-13.355

>  <name>  (22) 
21

>  <ligand_id>  (22) 
21

>  <original_smiles>  (22) 
[H]C([H])=C1C([H])(Oc2c([H])c([H])c3c(c2[H])C([H])([H])N(C(=O)C([H])(N([H])C(=O)C([H])(N([H])C([H])([H])[H])C([H])([H])[H])C(C([H])([H])[H])(C([H])([H])[H])C([H])([H])[H])C([H])(C(=O)N([H])C2([H])c4c([H])c([H])c([H])c([H])c4C([H])([H])C([H])([H])C2([H])[H])C3([H])[H])C([H])([H])C([H])([H])C([H])([H])[N+]1([H])C([H])([H])c1c(C([H])([H])[H])c(Cl)c([H])c(C([H])([H])N([H])C(=O)N2C([H])([H])C([H])([H])C([H])([H])C([H])(n3nc(-c4c([H])c([H])c(Oc5c([H])c([H])c(F)c([H])c5F)c([H])c4[H])c(C(=O)N([H])[H])c3N([H])[H])C2([H])[H])c1C([H])([H])[H]

>  <smiles>  (22) 
[H]C([H])=C1C([H])(Oc2c([H])c([H])c3c(c2[H])C([H])([H])N(C(=O)C([H])(N([H])C(=O)C([H])(N([H])C([H])([H])[H])C([H])([H])[H])C(C([H])([H])[H])(C([H])([H])[H])C([H])([H])[H])C([H])(C(=O)N([H])C2([H])c4c([H])c([H])c([H])c([H])c4C([H])([H])C([H])([H])C2([H])[H])C3([H])[H])C([H])([H])C([H])([H])C([H])([H])[N+]1([H])C([H])([H])c1c(C([H])([H])[H])c(Cl)c([H])c(C([H])([H])N([H])C(=O)N2C([H])([H])C([H])([H])C([H])([H])C([H])(n3nc(-c4c([H])c([H])c(Oc5c([H])c([H])c(F)c([H])c5F)c([H])c4[H])c(C(=O)N([H])[H])c3N([H])[H])C2([H])[H])c1C([H])([H])[H]

$$$$
22:0:0
     RDKit          3D

 95104  0  0  1  0  0  0  0  0999 V2000
  -27.5720  -22.7540   21.4280 C   0  0  0  0  0  0  0  0  0  0  0  0
  -26.9940  -21.6360   21.9120 C   0  0  0  0  0  2  0  0  0  0  0  0
  -27.2880  -24.0730   22.1300 C   0  0  0  0  0  2  0  0  0  0  0  0
  -27.0770  -25.2720   21.2030 C   0  0  0  0  0  2  0  0  0  0  0  0
  -28.5420  -24.0780   19.5020 C   0  0  0  0  0  2  0  0  0  0  0  0
  -28.2800  -25.4840   20.2720 C   0  0  0  0  0  3  0  0  0  0  0  0
  -28.4170  -22.7800   20.2990 N   0  0  0  0  0  0  0  0  0  0  0  0
  -27.9780  -21.1330   18.5450 C   0  0  0  0  0  3  0  0  0  0  0  0
  -27.9970  -19.8110   18.0560 C   0  0  0  0  0  3  0  0  0  0  0  0
  -29.6430  -19.0740   19.7420 C   0  0  0  0  0  0  0  0  0  0  0  0
  -28.7340  -21.4980   19.6780 C   0  0  0  0  0  0  0  0  0  0  0  0
  -28.8070  -18.8090   18.6250 C   0  0  0  0  0  0  0  0  0  0  0  0
  -29.5690  -20.4470   20.2550 C   0  0  0  0  0  0  0  0  0  0  0  0
  -28.7250  -17.2530   17.8820 Cl  0  0  0  0  0  0  0  0  0  0  0  0
  -30.4920  -20.8560   21.6610 Cl  0  0  0  0  0  0  0  0  0  0  0  0
  -30.6430  -17.9480   20.3060 C   0  0  0  0  0  2  0  0  0  0  0  0
  -31.1850  -15.3470   20.1500 C   0  0  0  0  0  0  0  0  0  0  0  0
  -31.0990  -12.9860   19.3160 C   0  0  0  0  0  2  0  0  0  0  0  0
  -30.1600  -12.9220   18.0910 C   0  0  0  0  0  2  0  0  0  0  0  0
  -28.6990  -12.7210   18.5430 C   0  0  0  0  0  2  0  0  0  0  0  0
  -28.2820  -13.7210   19.6510 C   0  0  0  0  0  3  0  0  0  0  0  0
  -29.3280  -13.7450   20.7830 C   0  0  0  0  0  2  0  0  0  0  0  0
  -30.6190  -14.0920   20.1780 N   0  0  0  0  0  0  0  0  0  0  0  0
  -32.3610  -15.4910   19.8030 O   0  0  0  0  0  0  0  0  0  0  0  0
  -30.3540  -16.4390   20.3540 N   0  0  0  0  0  0  0  0  0  0  0  0
  -29.4120  -16.1870   20.6300 H   0  0  0  0  0  0  0  0  0  0  0  0
  -25.9170  -14.3390   20.4330 C   0  0  0  0  0  0  0  0  0  0  0  0
  -24.8400  -13.5810   20.7940 C   0  0  0  0  0  0  0  0  0  0  0  0
  -25.2710  -12.2220   20.7120 C   0  0  0  0  0  0  0  0  0  0  0  0
  -26.9390  -13.4480   20.1490 N   0  0  0  0  0  0  0  0  0  0  0  0
  -26.5560  -12.1640   20.3840 N   0  0  0  0  0  0  0  0  0  0  0  0
  -24.5180  -10.9730   20.8660 C   0  0  0  0  0  0  0  0  0  0  0  0
  -24.8880  -10.0050   21.8250 C   0  0  0  0  0  3  0  0  0  0  0  0
  -24.1400   -8.8150   21.9680 C   0  0  0  0  0  3  0  0  0  0  0  0
  -23.0070   -8.5880   21.1500 C   0  0  0  0  0  0  0  0  0  0  0  0
  -22.6540   -9.5470   20.1830 C   0  0  0  0  0  3  0  0  0  0  0  0
  -23.4030  -10.7280   20.0380 C   0  0  0  0  0  3  0  0  0  0  0  0
  -22.2360   -7.4510   21.1990 O   0  0  0  0  0  0  0  0  0  0  0  0
  -22.0180   -6.7870   22.3800 C   0  0  0  0  0  0  0  0  0  0  0  0
  -21.3880   -7.4060   23.4800 C   0  0  0  0  0  3  0  0  0  0  0  0
  -21.1200   -6.6610   24.6480 C   0  0  0  0  0  3  0  0  0  0  0  0
  -21.4710   -5.3020   24.7140 C   0  0  0  0  0  0  0  0  0  0  0  0
  -22.0960   -4.6830   23.6160 C   0  0  0  0  0  3  0  0  0  0  0  0
  -22.3640   -5.4190   22.4550 C   0  0  0  0  0  0  0  0  0  0  0  0
  -22.9450   -4.8150   21.3890 F   0  0  0  0  0  0  0  0  0  0  0  0
  -21.2060   -4.5820   25.8330 F   0  0  0  0  0  0  0  0  0  0  0  0
  -23.4580  -14.0850   21.0970 C   0  0  0  0  0  0  0  0  0  0  0  0
  -22.7270  -13.3870   21.9540 N   0  0  0  0  0  0  0  0  0  0  0  0
  -23.0330  -15.1290   20.6010 O   0  0  0  0  0  0  0  0  0  0  0  0
  -23.0850  -12.5450   22.3800 H   0  0  0  0  0  0  0  0  0  0  0  0
  -21.7980  -13.7020   22.2010 H   0  0  0  0  0  0  0  0  0  0  0  0
  -26.1010  -15.7110   20.3000 N   0  0  0  0  0  0  0  0  0  0  0  0
  -25.3090  -16.3390   20.3800 H   0  0  0  0  0  0  0  0  0  0  0  0
  -26.9260  -16.1420   19.9080 H   0  0  0  0  0  0  0  0  0  0  0  0
  -28.3020  -26.8460   19.5950 O   0  0  0  0  0  0  0  0  0  0  0  0
  -24.6140  -31.9530   23.1780 C   0  0  0  0  0  0  0  0  0  0  0  0
  -27.2020  -27.7270   19.6580 C   0  0  0  0  0  0  0  0  0  0  0  0
  -23.3850  -30.6800   21.4590 C   0  0  0  0  0  3  0  0  0  0  0  0
  -24.8210  -29.3100   19.8450 C   0  0  0  0  0  0  0  0  0  0  0  0
  -25.9130  -31.0840   21.2190 C   0  0  0  0  0  2  0  0  0  0  0  0
  -26.0020  -29.7700   20.4420 C   0  0  0  0  0  0  0  0  0  0  0  0
  -27.2020  -28.9990   20.3210 C   0  0  0  0  0  3  0  0  0  0  0  0
  -26.0040  -27.3400   19.0250 C   0  0  0  0  0  3  0  0  0  0  0  0
  -24.8270  -28.1050   19.1200 C   0  0  0  0  0  3  0  0  0  0  0  0
  -23.5680  -30.1470   20.0140 C   0  0  0  0  0  2  0  0  0  0  0  0
  -24.6570  -31.2510   22.0070 N   0  0  0  0  0  0  0  0  0  0  0  0
  -23.5440  -32.1460   23.7750 O   0  0  0  0  0  0  0  0  0  0  0  0
  -22.7820  -29.5630   22.3450 C   0  0  0  0  0  0  0  0  0  0  0  0
  -21.4580  -29.3490   22.2380 N   0  0  0  0  0  0  0  0  0  0  0  0
  -23.5000  -28.8900   23.0900 O   0  0  0  0  0  0  0  0  0  0  0  0
  -20.9230  -29.9600   21.6390 H   0  0  0  0  0  0  0  0  0  0  0  0
  -18.1500  -27.9720   22.7030 C   0  0  0  0  0  0  0  0  0  0  0  0
  -20.7030  -28.3030   22.9260 C   0  0  0  0  0  3  0  0  0  0  0  0
  -20.8390  -26.9480   22.1910 C   0  0  0  0  0  2  0  0  0  0  0  0
  -19.7110  -26.6480   21.2000 C   0  0  0  0  0  2  0  0  0  0  0  0
  -18.3480  -26.7020   21.8900 C   0  0  0  0  0  2  0  0  0  0  0  0
  -19.2530  -28.7330   23.1730 C   0  0  0  0  0  0  0  0  0  0  0  0
  -19.0050  -29.9260   23.8870 C   0  0  0  0  0  3  0  0  0  0  0  0
  -17.6910  -30.3580   24.1370 C   0  0  0  0  0  3  0  0  0  0  0  0
  -16.6020  -29.5980   23.6800 C   0  0  0  0  0  3  0  0  0  0  0  0
  -16.8330  -28.4050   22.9700 C   0  0  0  0  0  3  0  0  0  0  0  0
  -25.8990  -32.5650   23.8130 C   0  0  0  0  0  3  0  0  0  0  0  0
  -25.6000  -33.9620   24.1600 N   0  0  0  0  0  0  0  0  0  0  0  0
  -25.9210  -35.0210   23.4050 C   0  0  0  0  0  0  0  0  0  0  0  0
  -26.5670  -34.9240   22.3580 O   0  0  0  0  0  0  0  0  0  0  0  0
  -25.0190  -34.1070   24.9710 H   0  0  0  0  0  0  0  0  0  0  0  0
  -24.1780  -36.8130   23.1250 C   0  0  0  0  0  1  0  0  0  0  0  0
  -25.4510  -36.4070   23.8860 C   0  0  0  0  0  3  0  0  0  0  0  0
  -27.6080  -37.3010   24.6430 C   0  0  0  0  0  1  0  0  0  0  0  0
  -26.4770  -37.4620   23.7330 N   0  0  0  0  0  0  0  0  0  0  0  0
  -26.0770  -38.3830   23.8890 H   0  0  0  0  0  0  0  0  0  0  0  0
  -26.3980  -31.7740   25.0850 C   0  0  1  0  0  0  0  0  0  0  0  0
  -25.2870  -31.5180   26.1310 C   0  0  0  0  0  1  0  0  0  0  0  0
  -26.9910  -30.4050   24.6830 C   0  0  0  0  0  1  0  0  0  0  0  0
  -27.5390  -32.5580   25.7750 C   0  0  0  0  0  1  0  0  0  0  0  0
  1  2  2  0
  1  3  1  0
  4  3  1  0
  5  6  1  0
  5  7  1  0
  6 55  1  0
  6  4  1  0
  7  1  1  0
  8 11  1  0
  9  8  2  0
  9 12  1  0
 10 13  1  0
 10 16  1  0
 11 13  2  0
 11  7  1  0
 12 10  2  0
 13 15  1  0
 14 12  1  0
 16 25  1  0
 17 23  1  0
 17 25  1  0
 18 23  1  0
 19 20  1  0
 19 18  1  0
 21 20  1  0
 21 30  1  0
 21 22  1  0
 23 22  1  0
 24 17  2  0
 25 26  1  0
 27 28  2  0
 28 47  1  0
 29 28  1  0
 29 32  1  0
 30 31  1  0
 30 27  1  0
 31 29  2  0
 32 33  1  0
 33 34  2  0
 35 38  1  0
 35 34  1  0
 36 35  2  0
 37 36  1  0
 37 32  2  0
 38 39  1  0
 39 44  2  0
 39 40  1  0
 40 41  2  0
 41 42  1  0
 42 46  1  0
 43 42  2  0
 44 43  1  0
 45 44  1  0
 47 48  1  0
 48 51  1  0
 48 50  1  0
 49 47  2  0
 52 53  1  0
 52 27  1  0
 54 52  1  0
 55 57  1  0
 56 67  2  0
 57 62  1  0
 58 66  1  0
 58 68  1  0
 59 65  1  0
 59 61  1  0
 60 66  1  0
 61 60  1  0
 62 61  2  0
 63 64  1  0
 63 57  2  0
 64 59  2  0
 65 58  1  0
 66 56  1  0
 68 70  2  0
 69 68  1  0
 71 69  1  0
 72 81  2  0
 72 77  1  0
 73 69  1  0
 73 77  1  0
 74 73  1  0
 75 76  1  0
 75 74  1  0
 76 72  1  0
 77 78  2  0
 78 79  1  0
 80 79  2  0
 81 80  1  0
 82 56  1  0
 82 83  1  0
 82 92  1  0
 83 86  1  0
 84 88  1  0
 84 83  1  0
 85 84  2  0
 88 87  1  0
 90 88  1  0
 90 91  1  0
 90 89  1  0
 92 95  1  1
 92 93  1  0
 94 92  1  0
M  ISO  4   6 101  17 100  25 100  55 101
M  END
>  <TORSDO>  (23) 
F 18

>  <SCORE>  (23) 
-11.532

>  <name>  (23) 
22

>  <ligand_id>  (23) 
22

>  <original_smiles>  (23) 
[H]C([H])=C1N(c2c([H])c([H])c(Cl)c(C([H])([H])N([H])C(=O)N3C([H])([H])C([H])([H])C([H])([H])C([H])(n4nc(-c5c([H])c([H])c(Oc6c([H])c([H])c(F)c([H])c6F)c([H])c5[H])c(C(=O)N([H])[H])c4N([H])[H])C3([H])[H])c2Cl)C([H])([H])C([H])(Oc2c([H])c([H])c3c(c2[H])C([H])([H])N(C(=O)C([H])(N([H])C(=O)C([H])(N([H])C([H])([H])[H])C([H])([H])[H])C(C([H])([H])[H])(C([H])([H])[H])C([H])([H])[H])C([H])(C(=O)N([H])C2([H])c4c([H])c([H])c([H])c([H])c4C([H])([H])C([H])([H])C2([H])[H])C3([H])[H])C([H])([H])C1([H])[H]

>  <smiles>  (23) 
[H]C([H])=C1N(c2c([H])c([H])c(Cl)c(C([H])([H])N([H])C(=O)N3C([H])([H])C([H])([H])C([H])([H])C([H])(n4nc(-c5c([H])c([H])c(Oc6c([H])c([H])c(F)c([H])c6F)c([H])c5[H])c(C(=O)N([H])[H])c4N([H])[H])C3([H])[H])c2Cl)C([H])([H])C([H])(Oc2c([H])c([H])c3c(c2[H])C([H])([H])N(C(=O)C([H])(N([H])C(=O)C([H])(N([H])C([H])([H])[H])C([H])([H])[H])C(C([H])([H])[H])(C([H])([H])[H])C([H])([H])[H])C([H])(C(=O)N([H])C2([H])c4c([H])c([H])c([H])c([H])c4C([H])([H])C([H])([H])C2([H])[H])C3([H])[H])C([H])([H])C1([H])[H]

$$$$
23:0:0
     RDKit          3D

 97105  0  0  1  0  0  0  0  0999 V2000
  -28.3580  -21.7670   19.3150 C   0  0  0  0  0  0  0  0  0  0  0  0
  -27.0610  -21.6420   19.0430 N   0  0  0  0  0  4  0  0  0  0  0  0
  -28.8690  -22.9960   19.5310 N   0  0  0  0  0  0  0  0  0  0  0  0
  -26.7020  -20.7210   18.8330 H   0  0  0  0  0  0  0  0  0  0  0  0
  -26.4280  -22.4210   19.0030 H   0  0  0  0  0  0  0  0  0  0  0  0
  -29.8650  -23.0290   19.7100 H   0  0  0  0  0  0  0  0  0  0  0  0
  -30.3740  -20.5260   18.5840 C   0  0  0  0  0  3  0  0  0  0  0  0
  -31.1940  -19.3810   18.5410 C   0  0  0  0  0  3  0  0  0  0  0  0
  -29.2000  -20.5490   19.3640 C   0  0  0  0  0  0  0  0  0  0  0  0
  -30.8750  -18.2240   19.2860 C   0  0  0  0  0  0  0  0  0  0  0  0
  -28.8550  -19.3870   20.1210 C   0  0  0  0  0  0  0  0  0  0  0  0
  -29.6850  -18.2240   20.0700 C   0  0  0  0  0  0  0  0  0  0  0  0
  -27.6120  -19.3830   21.0180 C   0  0  0  0  0  1  0  0  0  0  0  0
  -29.3000  -16.9960   20.8910 C   0  0  0  0  0  1  0  0  0  0  0  0
  -31.8860  -17.0640   19.2910 C   0  0  0  0  0  2  0  0  0  0  0  0
  -31.9420  -14.5590   19.0930 C   0  0  0  0  0  0  0  0  0  0  0  0
  -31.5780  -12.1360   18.7750 C   0  0  0  0  0  2  0  0  0  0  0  0
  -30.5190  -11.9110   17.6750 C   0  0  0  0  0  2  0  0  0  0  0  0
  -29.0960  -11.9520   18.2660 C   0  0  0  0  0  2  0  0  0  0  0  0
  -28.8620  -13.1840   19.1800 C   0  0  0  0  0  3  0  0  0  0  0  0
  -30.0180  -13.3470   20.1910 C   0  0  0  0  0  2  0  0  0  0  0  0
  -31.2750  -13.4200   19.4270 N   0  0  0  0  0  0  0  0  0  0  0  0
  -32.9930  -14.5530   18.4480 O   0  0  0  0  0  0  0  0  0  0  0  0
  -31.3360  -15.7080   19.4430 N   0  0  0  0  0  0  0  0  0  0  0  0
  -30.4530  -15.6220   19.9200 H   0  0  0  0  0  0  0  0  0  0  0  0
  -26.7750  -14.1440   20.3380 C   0  0  0  0  0  0  0  0  0  0  0  0
  -25.6320  -13.5520   20.8040 C   0  0  0  0  0  0  0  0  0  0  0  0
  -25.7890  -12.1520   20.5650 C   0  0  0  0  0  0  0  0  0  0  0  0
  -27.5650  -13.1170   19.8500 N   0  0  0  0  0  0  0  0  0  0  0  0
  -26.9820  -11.9050   20.0420 N   0  0  0  0  0  0  0  0  0  0  0  0
  -24.8490  -11.0390   20.7520 C   0  0  0  0  0  0  0  0  0  0  0  0
  -25.1690   -9.9310   21.5660 C   0  0  0  0  0  3  0  0  0  0  0  0
  -24.2430   -8.8810   21.7440 C   0  0  0  0  0  3  0  0  0  0  0  0
  -22.9800   -8.9340   21.1070 C   0  0  0  0  0  0  0  0  0  0  0  0
  -22.6760  -10.0290   20.2770 C   0  0  0  0  0  3  0  0  0  0  0  0
  -23.6010  -11.0700   20.0980 C   0  0  0  0  0  3  0  0  0  0  0  0
  -22.0270   -7.9490   21.2010 O   0  0  0  0  0  0  0  0  0  0  0  0
  -21.8910   -7.1840   22.3330 C   0  0  0  0  0  0  0  0  0  0  0  0
  -21.6220   -7.7610   23.5930 C   0  0  0  0  0  3  0  0  0  0  0  0
  -21.4190   -6.9350   24.7170 C   0  0  0  0  0  3  0  0  0  0  0  0
  -21.4770   -5.5360   24.5820 C   0  0  0  0  0  0  0  0  0  0  0  0
  -21.7400   -4.9580   23.3260 C   0  0  0  0  0  3  0  0  0  0  0  0
  -21.9430   -5.7820   22.2040 C   0  0  0  0  0  0  0  0  0  0  0  0
  -22.1750   -5.2220   20.9930 F   0  0  0  0  0  0  0  0  0  0  0  0
  -21.2750   -4.7410   25.6580 F   0  0  0  0  0  0  0  0  0  0  0  0
  -24.4210  -14.2500   21.3520 C   0  0  0  0  0  0  0  0  0  0  0  0
  -23.7200  -13.6200   22.2870 N   0  0  0  0  0  0  0  0  0  0  0  0
  -24.1160  -15.3840   20.9850 O   0  0  0  0  0  0  0  0  0  0  0  0
  -23.9820  -12.6980   22.6040 H   0  0  0  0  0  0  0  0  0  0  0  0
  -22.9100  -14.0650   22.6940 H   0  0  0  0  0  0  0  0  0  0  0  0
  -27.2020  -15.4690   20.2710 N   0  0  0  0  0  0  0  0  0  0  0  0
  -26.6150  -16.2410   20.5650 H   0  0  0  0  0  0  0  0  0  0  0  0
  -28.0650  -15.7680   19.8370 H   0  0  0  0  0  0  0  0  0  0  0  0
  -28.1770  -24.3130   19.4680 C   0  0  0  0  0  2  0  0  0  0  0  0
  -28.1520  -25.1240   21.9090 C   0  0  0  0  0  1  0  0  0  0  0  0
  -28.7280  -25.3390   20.4970 C   0  0  0  0  0  3  0  0  0  0  0  0
  -28.6820  -26.7300   20.0940 O   0  0  0  0  0  0  0  0  0  0  0  0
  -24.6380  -31.7330   23.1740 C   0  0  0  0  0  0  0  0  0  0  0  0
  -27.4780  -27.4060   20.0960 C   0  0  0  0  0  0  0  0  0  0  0  0
  -23.5070  -30.3090   21.4980 C   0  0  0  0  0  3  0  0  0  0  0  0
  -25.0340  -28.8360   20.0840 C   0  0  0  0  0  0  0  0  0  0  0  0
  -26.0220  -30.7530   21.3450 C   0  0  0  0  0  2  0  0  0  0  0  0
  -26.1640  -29.3910   20.6950 C   0  0  0  0  0  0  0  0  0  0  0  0
  -27.3890  -28.6850   20.6970 C   0  0  0  0  0  3  0  0  0  0  0  0
  -26.3330  -26.8720   19.4670 C   0  0  0  0  0  3  0  0  0  0  0  0
  -25.1130  -27.5750   19.4680 C   0  0  0  0  0  3  0  0  0  0  0  0
  -23.7610  -29.6520   20.1160 C   0  0  0  0  0  2  0  0  0  0  0  0
  -24.7390  -30.9470   22.0640 N   0  0  0  0  0  0  0  0  0  0  0  0
  -23.5410  -31.9620   23.7000 O   0  0  0  0  0  0  0  0  0  0  0  0
  -22.8770  -29.2550   22.4380 C   0  0  0  0  0  0  0  0  0  0  0  0
  -21.5670  -29.0080   22.2680 N   0  0  0  0  0  0  0  0  0  0  0  0
  -23.5640  -28.6630   23.2740 O   0  0  0  0  0  0  0  0  0  0  0  0
  -21.0730  -29.5410   21.5670 H   0  0  0  0  0  0  0  0  0  0  0  0
  -18.2420  -27.6520   22.6610 C   0  0  0  0  0  0  0  0  0  0  0  0
  -20.7760  -28.0280   23.0110 C   0  0  0  0  0  3  0  0  0  0  0  0
  -20.9630  -26.6070   22.4330 C   0  0  0  0  0  2  0  0  0  0  0  0
  -19.9090  -26.2380   21.3850 C   0  0  0  0  0  2  0  0  0  0  0  0
  -18.5030  -26.3150   21.9860 C   0  0  0  0  0  2  0  0  0  0  0  0
  -19.3100  -28.4630   23.1270 C   0  0  0  0  0  0  0  0  0  0  0  0
  -19.0140  -29.7130   23.7130 C   0  0  0  0  0  3  0  0  0  0  0  0
  -17.6830  -30.1530   23.8390 C   0  0  0  0  0  3  0  0  0  0  0  0
  -16.6290  -29.3390   23.3890 C   0  0  0  0  0  3  0  0  0  0  0  0
  -16.9090  -28.0900   22.8070 C   0  0  0  0  0  3  0  0  0  0  0  0
  -25.8930  -32.4020   23.8190 C   0  0  0  0  0  3  0  0  0  0  0  0
  -26.4100  -31.6430   25.1030 C   0  0  1  0  0  0  0  0  0  0  0  0
  -25.3000  -31.3480   26.1380 C   0  0  0  0  0  1  0  0  0  0  0  0
  -27.0640  -30.2960   24.7140 C   0  0  0  0  0  1  0  0  0  0  0  0
  -27.5030  -32.4830   25.8040 C   0  0  0  0  0  1  0  0  0  0  0  0
  -25.5360  -33.7890   24.1440 N   0  0  0  0  0  0  0  0  0  0  0  0
  -25.8580  -34.8510   23.3940 C   0  0  0  0  0  0  0  0  0  0  0  0
  -26.5570  -34.7690   22.3800 O   0  0  0  0  0  0  0  0  0  0  0  0
  -24.9190  -33.9250   24.9310 H   0  0  0  0  0  0  0  0  0  0  0  0
  -24.0940  -36.5970   22.9880 C   0  0  0  0  0  1  0  0  0  0  0  0
  -25.3200  -36.2250   23.8390 C   0  0  0  0  0  3  0  0  0  0  0  0
  -27.3990  -37.1660   24.7420 C   0  0  0  0  0  1  0  0  0  0  0  0
  -26.3260  -37.3050   23.7620 N   0  0  0  0  0  0  0  0  0  0  0  0
  -25.8910  -38.2150   23.8940 H   0  0  0  0  0  0  0  0  0  0  0  0
  1  9  1  0
  1  3  1  0
  2  1  2  0
  3  6  1  0
  4  2  1  0
  5  2  1  0
  7  9  1  0
  8  7  2  0
  8 10  1  0
  9 11  2  0
 10 15  1  0
 10 12  2  0
 11 13  1  0
 12 11  1  0
 12 14  1  0
 15 24  1  0
 16 22  1  0
 16 24  1  0
 17 22  1  0
 18 19  1  0
 18 17  1  0
 20 19  1  0
 20 29  1  0
 20 21  1  0
 22 21  1  0
 23 16  2  0
 24 25  1  0
 26 27  2  0
 27 46  1  0
 28 31  1  0
 28 27  1  0
 29 30  1  0
 29 26  1  0
 30 28  2  0
 31 32  1  0
 32 33  2  0
 34 37  1  0
 34 33  1  0
 35 34  2  0
 36 35  1  0
 36 31  2  0
 37 38  1  0
 38 39  1  0
 39 40  2  0
 41 40  1  0
 41 45  1  0
 42 41  2  0
 43 38  2  0
 43 42  1  0
 44 43  1  0
 46 47  1  0
 47 49  1  0
 47 50  1  0
 48 46  2  0
 51 26  1  0
 51 52  1  0
 53 51  1  0
 54  3  1  0
 54 56  1  0
 56 55  1  0
 57 59  1  0
 57 56  1  0
 58 69  2  0
 59 64  1  0
 60 68  1  0
 60 70  1  0
 61 67  1  0
 61 63  1  0
 62 68  1  0
 63 64  2  0
 63 62  1  0
 65 66  1  0
 65 59  2  0
 66 61  2  0
 67 60  1  0
 68 58  1  0
 70 72  2  0
 71 70  1  0
 73 71  1  0
 74 83  2  0
 74 79  1  0
 75 71  1  0
 75 79  1  0
 76 75  1  0
 77 78  1  0
 77 76  1  0
 78 74  1  0
 79 80  2  0
 80 81  1  0
 82 81  2  0
 83 82  1  0
 84 58  1  0
 84 89  1  0
 84 85  1  0
 85 88  1  1
 85 86  1  0
 87 85  1  0
 89 92  1  0
 90 94  1  0
 90 89  1  0
 91 90  2  0
 94 93  1  0
 96 94  1  0
 96 97  1  0
 96 95  1  0
M  ISO  4  16 100  24 100  56 101  57 101
M  END
>  <TORSDO>  (24) 
F 20

>  <SCORE>  (24) 
-11.448

>  <name>  (24) 
23

>  <ligand_id>  (24) 
23

>  <original_smiles>  (24) 
[H]c1c([H])c([H])c2c(c1[H])C([H])([H])C([H])([H])C([H])([H])C2([H])N([H])C(=O)C1([H])N(C(=O)C([H])(N([H])C(=O)C([H])(N([H])C([H])([H])[H])C([H])([H])[H])C(C([H])([H])[H])(C([H])([H])[H])C([H])([H])[H])C([H])([H])c2c([H])c(OC([H])(C([H])([H])[H])C([H])([H])[N+]([H])=C(c3c([H])c([H])c(C([H])([H])N([H])C(=O)N4C([H])([H])C([H])([H])C([H])([H])C([H])(n5nc(-c6c([H])c([H])c(Oc7c([H])c([H])c(F)c([H])c7F)c([H])c6[H])c(C(=O)N([H])[H])c5N([H])[H])C4([H])[H])c(C([H])([H])[H])c3C([H])([H])[H])N([H])[H])c([H])c([H])c2C1([H])[H]

>  <smiles>  (24) 
[H]c1c([H])c([H])c2c(c1[H])C([H])([H])C([H])([H])C([H])([H])C2([H])N([H])C(=O)C1([H])N(C(=O)C([H])(N([H])C(=O)C([H])(N([H])C([H])([H])[H])C([H])([H])[H])C(C([H])([H])[H])(C([H])([H])[H])C([H])([H])[H])C([H])([H])c2c([H])c(OC([H])(C([H])([H])[H])C([H])([H])[N+]([H])=C(c3c([H])c([H])c(C([H])([H])N([H])C(=O)N4C([H])([H])C([H])([H])C([H])([H])C([H])(n5nc(-c6c([H])c([H])c(Oc7c([H])c([H])c(F)c([H])c7F)c([H])c6[H])c(C(=O)N([H])[H])c5N([H])[H])C4([H])[H])c(C([H])([H])[H])c3C([H])([H])[H])N([H])[H])c([H])c([H])c2C1([H])[H]

$$$$
24:0:0
     RDKit          3D

 95104  0  0  1  0  0  0  0  0999 V2000
  -29.1790  -24.0630   19.8790 C   0  0  0  0  0  0  0  0  0  0  0  0
  -27.2720  -23.2110   21.9040 C   0  0  0  0  0  2  0  0  0  0  0  0
  -27.0870  -24.5880   21.2100 C   0  0  0  0  0  2  0  0  0  0  0  0
  -28.6890  -22.5950   21.7550 C   0  0  0  0  0  2  0  0  0  0  0  0
  -28.4100  -25.1910   20.6810 C   0  0  0  0  0  3  0  0  0  0  0  0
  -29.2540  -22.7890   20.4120 N   0  0  0  0  0  0  0  0  0  0  0  0
  -29.7180  -24.3590   18.8070 O   0  0  0  0  0  0  0  0  0  0  0  0
  -28.3830  -26.5240   20.0170 O   0  0  0  0  0  0  0  0  0  0  0  0
  -24.6030  -31.8310   23.1490 C   0  0  0  0  0  0  0  0  0  0  0  0
  -27.2440  -27.3370   20.0510 C   0  0  0  0  0  0  0  0  0  0  0  0
  -23.4120  -30.4610   21.4730 C   0  0  0  0  0  3  0  0  0  0  0  0
  -24.8760  -28.9310   20.0400 C   0  0  0  0  0  0  0  0  0  0  0  0
  -25.9490  -30.7860   21.3160 C   0  0  0  0  0  2  0  0  0  0  0  0
  -26.0360  -29.4150   20.6590 C   0  0  0  0  0  0  0  0  0  0  0  0
  -27.2230  -28.6280   20.6600 C   0  0  0  0  0  3  0  0  0  0  0  0
  -26.0740  -26.9120   19.3880 C   0  0  0  0  0  3  0  0  0  0  0  0
  -24.8950  -27.6820   19.3960 C   0  0  0  0  0  3  0  0  0  0  0  0
  -23.6390  -29.8040   20.0850 C   0  0  0  0  0  2  0  0  0  0  0  0
  -24.6730  -31.0440   22.0370 N   0  0  0  0  0  0  0  0  0  0  0  0
  -23.5160  -32.0990   23.6820 O   0  0  0  0  0  0  0  0  0  0  0  0
  -22.7420  -29.4290   22.4110 C   0  0  0  0  0  0  0  0  0  0  0  0
  -21.4140  -29.2720   22.2870 N   0  0  0  0  0  0  0  0  0  0  0  0
  -23.4170  -28.7740   23.2100 O   0  0  0  0  0  0  0  0  0  0  0  0
  -20.9280  -29.8530   21.6190 H   0  0  0  0  0  0  0  0  0  0  0  0
  -18.0180  -28.1450   22.8100 C   0  0  0  0  0  0  0  0  0  0  0  0
  -20.5870  -28.3260   23.0380 C   0  0  0  0  0  3  0  0  0  0  0  0
  -20.6410  -26.9160   22.4060 C   0  0  0  0  0  2  0  0  0  0  0  0
  -19.5120  -26.6620   21.4020 C   0  0  0  0  0  2  0  0  0  0  0  0
  -18.1470  -26.8190   22.0770 C   0  0  0  0  0  2  0  0  0  0  0  0
  -19.1640  -28.8600   23.2460 C   0  0  0  0  0  0  0  0  0  0  0  0
  -18.9900  -30.1050   23.8880 C   0  0  0  0  0  3  0  0  0  0  0  0
  -17.7010  -30.6330   24.1000 C   0  0  0  0  0  3  0  0  0  0  0  0
  -16.5700  -29.9130   23.6780 C   0  0  0  0  0  3  0  0  0  0  0  0
  -16.7300  -28.6710   23.0380 C   0  0  0  0  0  3  0  0  0  0  0  0
  -25.8820  -32.4510   23.7930 C   0  0  0  0  0  3  0  0  0  0  0  0
  -25.5720  -33.8420   24.1500 N   0  0  0  0  0  0  0  0  0  0  0  0
  -25.9120  -34.9100   23.4160 C   0  0  0  0  0  0  0  0  0  0  0  0
  -26.5890  -34.8270   22.3870 O   0  0  0  0  0  0  0  0  0  0  0  0
  -24.9730  -33.9810   24.9510 H   0  0  0  0  0  0  0  0  0  0  0  0
  -24.1890  -36.7130   23.0840 C   0  0  0  0  0  1  0  0  0  0  0  0
  -25.4230  -36.2890   23.8980 C   0  0  0  0  0  3  0  0  0  0  0  0
  -27.5490  -37.1550   24.7710 C   0  0  0  0  0  1  0  0  0  0  0  0
  -26.4580  -37.3430   23.8190 N   0  0  0  0  0  0  0  0  0  0  0  0
  -26.0490  -38.2590   23.9820 H   0  0  0  0  0  0  0  0  0  0  0  0
  -26.3920  -31.6530   25.0550 C   0  0  1  0  0  0  0  0  0  0  0  0
  -25.2920  -31.3960   26.1110 C   0  0  0  0  0  1  0  0  0  0  0  0
  -26.9760  -30.2830   24.6370 C   0  0  0  0  0  1  0  0  0  0  0  0
  -27.5380  -32.4330   25.7420 C   0  0  0  0  0  1  0  0  0  0  0  0
  -30.1720  -21.7310   19.8360 C   0  0  0  0  0  2  0  0  0  0  0  0
  -28.8880  -19.4530   20.2400 C   0  0  0  0  0  3  0  0  0  0  0  0
  -31.2330  -17.9320   20.2390 C   0  0  0  0  0  3  0  0  0  0  0  0
  -30.1000  -20.1680   20.1060 C   0  0  0  0  0  0  0  0  0  0  0  0
  -28.8390  -18.0320   20.3890 C   0  0  0  0  0  0  0  0  0  0  0  0
  -31.2820  -19.3580   20.1110 C   0  0  0  0  0  0  0  0  0  0  0  0
  -30.0140  -17.2160   20.3670 C   0  0  0  0  0  0  0  0  0  0  0  0
  -27.4600  -17.4250   20.5400 C   0  0  0  0  0  1  0  0  0  0  0  0
  -32.6520  -19.9940   19.9360 C   0  0  0  0  0  1  0  0  0  0  0  0
  -30.6960  -14.7030   20.0460 C   0  0  0  0  0  0  0  0  0  0  0  0
  -30.4460  -12.4930   18.9260 C   0  0  0  0  0  2  0  0  0  0  0  0
  -29.4410  -12.6470   17.7630 C   0  0  0  0  0  2  0  0  0  0  0  0
  -27.9930  -12.4590   18.2600 C   0  0  0  0  0  2  0  0  0  0  0  0
  -27.6890  -13.2770   19.5430 C   0  0  0  0  0  3  0  0  0  0  0  0
  -28.8060  -13.1040   20.5980 C   0  0  0  0  0  2  0  0  0  0  0  0
  -30.0800  -13.4780   19.9640 N   0  0  0  0  0  0  0  0  0  0  0  0
  -31.8410  -14.8630   19.6130 O   0  0  0  0  0  0  0  0  0  0  0  0
  -29.9070  -15.7480   20.4650 N   0  0  0  0  0  0  0  0  0  0  0  0
  -29.0070  -15.4280   20.7860 H   0  0  0  0  0  0  0  0  0  0  0  0
  -25.3120  -13.8150   20.3590 C   0  0  0  0  0  0  0  0  0  0  0  0
  -24.2820  -13.0240   20.7850 C   0  0  0  0  0  0  0  0  0  0  0  0
  -24.7740  -11.6850   20.7320 C   0  0  0  0  0  0  0  0  0  0  0  0
  -26.3690  -12.9630   20.0850 N   0  0  0  0  0  0  0  0  0  0  0  0
  -26.0510  -11.6740   20.3690 N   0  0  0  0  0  0  0  0  0  0  0  0
  -24.0800  -10.4110   20.9490 C   0  0  0  0  0  0  0  0  0  0  0  0
  -24.5270   -9.4820   21.9150 C   0  0  0  0  0  3  0  0  0  0  0  0
  -23.8320   -8.2700   22.1180 C   0  0  0  0  0  3  0  0  0  0  0  0
  -22.6750   -7.9800   21.3560 C   0  0  0  0  0  0  0  0  0  0  0  0
  -22.2480   -8.8980   20.3790 C   0  0  0  0  0  3  0  0  0  0  0  0
  -22.9450  -10.1000   20.1750 C   0  0  0  0  0  3  0  0  0  0  0  0
  -21.9500   -6.8190   21.4670 O   0  0  0  0  0  0  0  0  0  0  0  0
  -21.8530   -6.1440   22.6570 C   0  0  0  0  0  0  0  0  0  0  0  0
  -21.3310   -6.7540   23.8200 C   0  0  0  0  0  3  0  0  0  0  0  0
  -21.1850   -6.0030   25.0030 C   0  0  0  0  0  3  0  0  0  0  0  0
  -21.5500   -4.6430   25.0250 C   0  0  0  0  0  0  0  0  0  0  0  0
  -22.0660   -4.0330   23.8680 C   0  0  0  0  0  3  0  0  0  0  0  0
  -22.2150   -4.7820   22.6860 C   0  0  0  0  0  0  0  0  0  0  0  0
  -22.6920   -4.1840   21.5680 F   0  0  0  0  0  0  0  0  0  0  0  0
  -21.4020   -3.9190   26.1590 F   0  0  0  0  0  0  0  0  0  0  0  0
  -22.8890  -13.4770   21.1150 C   0  0  0  0  0  0  0  0  0  0  0  0
  -22.2120  -12.7700   22.0130 N   0  0  0  0  0  0  0  0  0  0  0  0
  -22.4110  -14.4930   20.6120 O   0  0  0  0  0  0  0  0  0  0  0  0
  -22.6120  -11.9460   22.4380 H   0  0  0  0  0  0  0  0  0  0  0  0
  -21.2810  -13.0560   22.2770 H   0  0  0  0  0  0  0  0  0  0  0  0
  -25.4200  -15.1830   20.1530 N   0  0  0  0  0  0  0  0  0  0  0  0
  -24.6180  -15.7950   20.2550 H   0  0  0  0  0  0  0  0  0  0  0  0
  -26.1960  -15.6170   19.6730 H   0  0  0  0  0  0  0  0  0  0  0  0
  1  6  1  0
  1  5  1  0
  3  2  1  0
  4  2  1  0
  5  8  1  0
  5  3  1  0
  6  4  1  0
  7  1  2  0
  8 10  1  0
  9 20  2  0
 10 15  1  0
 11 19  1  0
 11 21  1  0
 12 18  1  0
 12 14  1  0
 13 19  1  0
 14 15  2  0
 14 13  1  0
 16 17  1  0
 16 10  2  0
 17 12  2  0
 18 11  1  0
 19  9  1  0
 21 23  2  0
 22 21  1  0
 24 22  1  0
 25 34  2  0
 25 30  1  0
 26 22  1  0
 26 30  1  0
 27 26  1  0
 28 29  1  0
 28 27  1  0
 29 25  1  0
 30 31  2  0
 31 32  1  0
 33 32  2  0
 34 33  1  0
 35  9  1  0
 35 36  1  0
 35 45  1  0
 36 39  1  0
 37 41  1  0
 37 36  1  0
 38 37  2  0
 41 40  1  0
 43 41  1  0
 43 44  1  0
 43 42  1  0
 45 48  1  1
 45 46  1  0
 47 45  1  0
 49 52  1  0
 49  6  1  0
 50 53  1  0
 51 55  1  0
 52 54  1  0
 52 50  2  0
 53 56  1  0
 54 51  2  0
 55 53  2  0
 55 66  1  0
 57 54  1  0
 58 66  1  0
 59 64  1  0
 60 61  1  0
 60 59  1  0
 62 61  1  0
 62 71  1  0
 62 63  1  0
 64 58  1  0
 64 63  1  0
 65 58  2  0
 66 67  1  0
 68 69  2  0
 69 88  1  0
 70 69  1  0
 70 73  1  0
 71 68  1  0
 71 72  1  0
 72 70  2  0
 73 74  1  0
 74 75  2  0
 76 79  1  0
 76 75  1  0
 77 76  2  0
 78 77  1  0
 78 73  2  0
 79 80  1  0
 80 85  2  0
 80 81  1  0
 81 82  2  0
 82 83  1  0
 83 87  1  0
 84 83  2  0
 85 84  1  0
 86 85  1  0
 88 89  1  0
 89 92  1  0
 89 91  1  0
 90 88  2  0
 93 94  1  0
 93 68  1  0
 95 93  1  0
M  ISO  4   5 101   8 101  58 100  66 100
M  END
>  <TORSDO>  (25) 
F 18

>  <SCORE>  (25) 
-14.539

>  <name>  (25) 
24

>  <ligand_id>  (25) 
24

>  <original_smiles>  (25) 
[H]c1c([H])c([H])c2c(c1[H])C([H])([H])C([H])([H])C([H])([H])C2([H])N([H])C(=O)C1([H])N(C(=O)C([H])(N([H])C(=O)C([H])(N([H])C([H])([H])[H])C([H])([H])[H])C(C([H])([H])[H])(C([H])([H])[H])C([H])([H])[H])C([H])([H])c2c([H])c(OC3([H])C(=O)N(C([H])([H])c4c([H])c(C([H])([H])[H])c(N([H])C(=O)N5C([H])([H])C([H])([H])C([H])([H])C([H])(n6nc(-c7c([H])c([H])c(Oc8c([H])c([H])c(F)c([H])c8F)c([H])c7[H])c(C(=O)N([H])[H])c6N([H])[H])C5([H])[H])c([H])c4C([H])([H])[H])C([H])([H])C([H])([H])C3([H])[H])c([H])c([H])c2C1([H])[H]

>  <smiles>  (25) 
[H]c1c([H])c([H])c2c(c1[H])C([H])([H])C([H])([H])C([H])([H])C2([H])N([H])C(=O)C1([H])N(C(=O)C([H])(N([H])C(=O)C([H])(N([H])C([H])([H])[H])C([H])([H])[H])C(C([H])([H])[H])(C([H])([H])[H])C([H])([H])[H])C([H])([H])c2c([H])c(OC3([H])C(=O)N(C([H])([H])c4c([H])c(C([H])([H])[H])c(N([H])C(=O)N5C([H])([H])C([H])([H])C([H])([H])C([H])(n6nc(-c7c([H])c([H])c(Oc8c([H])c([H])c(F)c([H])c8F)c([H])c7[H])c(C(=O)N([H])[H])c6N([H])[H])C5([H])[H])c([H])c4C([H])([H])[H])C([H])([H])C([H])([H])C3([H])[H])c([H])c([H])c2C1([H])[H]

$$$$
25:0:0
     RDKit          3D

 92100  0  0  1  0  0  0  0  0999 V2000
  -28.7760  -21.1610   20.7010 C   0  0  0  0  0  2  0  0  0  0  0  0
  -31.9280  -19.1660   19.6440 C   0  0  0  0  0  3  0  0  0  0  0  0
  -31.0110  -20.1880   19.9340 C   0  0  0  0  0  3  0  0  0  0  0  0
  -31.5820  -17.8100   19.7850 C   0  0  0  0  0  3  0  0  0  0  0  0
  -29.6940  -19.9010   20.3440 C   0  0  0  0  0  0  0  0  0  0  0  0
  -29.3440  -18.4800   20.4700 C   0  0  0  0  0  0  0  0  0  0  0  0
  -30.2970  -17.3970   20.2150 C   0  0  0  0  0  0  0  0  0  0  0  0
  -27.9320  -18.0930   20.8950 C   0  0  0  0  0  1  0  0  0  0  0  0
  -30.7150  -14.7920   20.0520 C   0  0  0  0  0  0  0  0  0  0  0  0
  -30.4070  -12.5800   18.9400 C   0  0  0  0  0  2  0  0  0  0  0  0
  -29.4000  -12.7310   17.7790 C   0  0  0  0  0  2  0  0  0  0  0  0
  -27.9590  -12.5440   18.2880 C   0  0  0  0  0  2  0  0  0  0  0  0
  -27.6670  -13.3640   19.5730 C   0  0  0  0  0  3  0  0  0  0  0  0
  -28.7920  -13.2230   20.6220 C   0  0  0  0  0  2  0  0  0  0  0  0
  -30.0530  -13.5880   19.9660 N   0  0  0  0  0  0  0  0  0  0  0  0
  -31.8920  -14.8450   19.6890 O   0  0  0  0  0  0  0  0  0  0  0  0
  -29.9830  -15.9390   20.3500 N   0  0  0  0  0  0  0  0  0  0  0  0
  -29.0390  -15.7390   20.6380 H   0  0  0  0  0  0  0  0  0  0  0  0
  -25.3150  -13.9080   20.4400 C   0  0  0  0  0  0  0  0  0  0  0  0
  -24.2800  -13.1130   20.8480 C   0  0  0  0  0  0  0  0  0  0  0  0
  -24.7540  -11.7680   20.7610 C   0  0  0  0  0  0  0  0  0  0  0  0
  -26.3560  -13.0480   20.1300 N   0  0  0  0  0  0  0  0  0  0  0  0
  -26.0280  -11.7540   20.3860 N   0  0  0  0  0  0  0  0  0  0  0  0
  -24.0510  -10.4950   20.9570 C   0  0  0  0  0  0  0  0  0  0  0  0
  -24.5020   -9.5380   21.8920 C   0  0  0  0  0  3  0  0  0  0  0  0
  -23.7970   -8.3290   22.0780 C   0  0  0  0  0  3  0  0  0  0  0  0
  -22.6270   -8.0680   21.3270 C   0  0  0  0  0  0  0  0  0  0  0  0
  -22.1940   -9.0130   20.3810 C   0  0  0  0  0  3  0  0  0  0  0  0
  -22.8990  -10.2130   20.1930 C   0  0  0  0  0  3  0  0  0  0  0  0
  -21.8920   -6.9110   21.4210 O   0  0  0  0  0  0  0  0  0  0  0  0
  -21.8170   -6.1980   22.5900 C   0  0  0  0  0  0  0  0  0  0  0  0
  -21.3190   -6.7730   23.7800 C   0  0  0  0  0  3  0  0  0  0  0  0
  -21.1940   -5.9870   24.9430 C   0  0  0  0  0  3  0  0  0  0  0  0
  -21.5540   -4.6260   24.9160 C   0  0  0  0  0  0  0  0  0  0  0  0
  -22.0440   -4.0510   23.7310 C   0  0  0  0  0  3  0  0  0  0  0  0
  -22.1710   -4.8350   22.5700 C   0  0  0  0  0  0  0  0  0  0  0  0
  -22.6240   -4.2710   21.4250 F   0  0  0  0  0  0  0  0  0  0  0  0
  -21.4250   -3.8690   26.0300 F   0  0  0  0  0  0  0  0  0  0  0  0
  -22.8940  -13.5670   21.2020 C   0  0  0  0  0  0  0  0  0  0  0  0
  -22.2180  -12.8420   22.0840 N   0  0  0  0  0  0  0  0  0  0  0  0
  -22.4230  -14.6040   20.7330 O   0  0  0  0  0  0  0  0  0  0  0  0
  -22.6140  -12.0030   22.4820 H   0  0  0  0  0  0  0  0  0  0  0  0
  -21.2910  -13.1280   22.3660 H   0  0  0  0  0  0  0  0  0  0  0  0
  -25.4500  -15.2830   20.2820 N   0  0  0  0  0  0  0  0  0  0  0  0
  -24.6660  -15.9100   20.4260 H   0  0  0  0  0  0  0  0  0  0  0  0
  -26.2360  -15.7330   19.8340 H   0  0  0  0  0  0  0  0  0  0  0  0
  -29.0330  -22.5100   20.0110 N   0  0  0  0  0  4  0  0  0  0  0  0
  -28.8170  -22.3800   19.0360 H   0  0  0  0  0  0  0  0  0  0  0  0
  -30.0250  -22.6790   20.0670 H   0  0  0  0  0  0  0  0  0  0  0  0
  -28.3330  -23.7900   20.5090 C   0  0  0  0  0  2  0  0  0  0  0  0
  -28.5100  -25.1320   19.6340 C   0  0  0  0  0  2  0  0  0  0  0  0
  -28.3820  -26.5020   20.2210 O   0  0  0  0  0  0  0  0  0  0  0  0
  -24.5590  -31.8610   23.1670 C   0  0  0  0  0  0  0  0  0  0  0  0
  -27.2380  -27.3170   20.1270 C   0  0  0  0  0  0  0  0  0  0  0  0
  -23.3870  -30.4650   21.5010 C   0  0  0  0  0  3  0  0  0  0  0  0
  -24.8670  -28.9290   20.0830 C   0  0  0  0  0  0  0  0  0  0  0  0
  -25.9250  -30.7980   21.3540 C   0  0  0  0  0  2  0  0  0  0  0  0
  -26.0220  -29.4200   20.7020 C   0  0  0  0  0  0  0  0  0  0  0  0
  -27.2070  -28.6230   20.7170 C   0  0  0  0  0  3  0  0  0  0  0  0
  -26.0560  -26.8810   19.4860 C   0  0  0  0  0  3  0  0  0  0  0  0
  -24.8860  -27.6680   19.4670 C   0  0  0  0  0  3  0  0  0  0  0  0
  -23.6270  -29.8040   20.1170 C   0  0  0  0  0  2  0  0  0  0  0  0
  -24.6420  -31.0600   22.0650 N   0  0  0  0  0  0  0  0  0  0  0  0
  -23.4670  -32.1310   23.6880 O   0  0  0  0  0  0  0  0  0  0  0  0
  -22.7190  -29.4380   22.4470 C   0  0  0  0  0  0  0  0  0  0  0  0
  -21.3930  -29.2670   22.3130 N   0  0  0  0  0  0  0  0  0  0  0  0
  -23.3910  -28.8010   23.2610 O   0  0  0  0  0  0  0  0  0  0  0  0
  -20.9100  -29.8380   21.6340 H   0  0  0  0  0  0  0  0  0  0  0  0
  -18.0040  -28.0950   22.7850 C   0  0  0  0  0  0  0  0  0  0  0  0
  -20.5650  -28.3240   23.0680 C   0  0  0  0  0  3  0  0  0  0  0  0
  -20.6540  -26.9040   22.4650 C   0  0  0  0  0  2  0  0  0  0  0  0
  -19.5510  -26.6100   21.4440 C   0  0  0  0  0  2  0  0  0  0  0  0
  -18.1690  -26.7560   22.0870 C   0  0  0  0  0  2  0  0  0  0  0  0
  -19.1290  -28.8380   23.2310 C   0  0  0  0  0  0  0  0  0  0  0  0
  -18.9210  -30.0920   23.8450 C   0  0  0  0  0  3  0  0  0  0  0  0
  -17.6210  -30.6020   24.0220 C   0  0  0  0  0  3  0  0  0  0  0  0
  -16.5100  -29.8550   23.5940 C   0  0  0  0  0  3  0  0  0  0  0  0
  -16.7030  -28.6040   22.9790 C   0  0  0  0  0  3  0  0  0  0  0  0
  -25.8280  -32.4970   23.8130 C   0  0  0  0  0  3  0  0  0  0  0  0
  -26.3310  -31.7200   25.0900 C   0  0  1  0  0  0  0  0  0  0  0  0
  -25.2250  -31.4670   26.1400 C   0  0  0  0  0  1  0  0  0  0  0  0
  -26.9300  -30.3510   24.6940 C   0  0  0  0  0  1  0  0  0  0  0  0
  -27.4650  -32.5180   25.7770 C   0  0  0  0  0  1  0  0  0  0  0  0
  -25.5050  -33.8920   24.1510 N   0  0  0  0  0  0  0  0  0  0  0  0
  -25.8400  -34.9550   23.4070 C   0  0  0  0  0  0  0  0  0  0  0  0
  -26.5220  -34.8640   22.3830 O   0  0  0  0  0  0  0  0  0  0  0  0
  -24.8960  -34.0330   24.9430 H   0  0  0  0  0  0  0  0  0  0  0  0
  -24.1100  -36.7450   23.0450 C   0  0  0  0  0  1  0  0  0  0  0  0
  -25.3370  -36.3340   23.8740 C   0  0  0  0  0  3  0  0  0  0  0  0
  -27.4480  -37.2240   24.7570 C   0  0  0  0  0  1  0  0  0  0  0  0
  -26.3650  -37.3950   23.7930 N   0  0  0  0  0  0  0  0  0  0  0  0
  -25.9490  -38.3120   23.9390 H   0  0  0  0  0  0  0  0  0  0  0  0
  2  4  2  0
  2  3  1  0
  3  5  2  0
  4  7  1  0
  5  6  1  0
  5  1  1  0
  6  8  1  0
  7 17  1  0
  7  6  2  0
  9 17  1  0
 10 15  1  0
 11 12  1  0
 11 10  1  0
 13 12  1  0
 13 22  1  0
 13 14  1  0
 15  9  1  0
 15 14  1  0
 16  9  2  0
 17 18  1  0
 19 20  2  0
 20 39  1  0
 21 20  1  0
 21 24  1  0
 22 23  1  0
 22 19  1  0
 23 21  2  0
 24 25  1  0
 25 26  2  0
 27 30  1  0
 27 26  1  0
 28 27  2  0
 29 28  1  0
 29 24  2  0
 30 31  1  0
 31 32  1  0
 32 33  2  0
 34 33  1  0
 34 38  1  0
 35 34  2  0
 36 31  2  0
 36 35  1  0
 37 36  1  0
 39 40  1  0
 40 43  1  0
 40 42  1  0
 41 39  2  0
 44 45  1  0
 44 19  1  0
 46 44  1  0
 47 49  1  0
 47 50  1  0
 47  1  1  0
 48 47  1  0
 51 52  1  0
 51 50  1  0
 53 64  2  0
 54 52  1  0
 54 59  1  0
 55 63  1  0
 55 65  1  0
 56 62  1  0
 56 58  1  0
 57 63  1  0
 58 59  2  0
 58 57  1  0
 60 54  2  0
 61 60  1  0
 61 56  2  0
 62 55  1  0
 63 53  1  0
 65 67  2  0
 66 65  1  0
 68 66  1  0
 69 78  2  0
 69 74  1  0
 70 66  1  0
 70 74  1  0
 71 70  1  0
 72 73  1  0
 72 71  1  0
 73 69  1  0
 74 75  2  0
 75 76  1  0
 77 76  2  0
 78 77  1  0
 79 53  1  0
 79 84  1  0
 79 80  1  0
 80 83  1  1
 80 81  1  0
 82 80  1  0
 84 87  1  0
 85 89  1  0
 85 84  1  0
 86 85  2  0
 89 88  1  0
 91 89  1  0
 91 92  1  0
 91 90  1  0
M  ISO  4   9 100  17 100  51 101  52 101
M  END
>  <TORSDO>  (26) 
F 20

>  <SCORE>  (26) 
-13.289

>  <name>  (26) 
25

>  <ligand_id>  (26) 
25

>  <original_smiles>  (26) 
[H]c1c([H])c([H])c2c(c1[H])C([H])([H])C([H])([H])C([H])([H])C2([H])N([H])C(=O)C1([H])N(C(=O)C([H])(N([H])C(=O)C([H])(N([H])C([H])([H])[H])C([H])([H])[H])C(C([H])([H])[H])(C([H])([H])[H])C([H])([H])[H])C([H])([H])c2c([H])c(OC([H])([H])C([H])([H])[N+]([H])([H])C([H])([H])c3c([H])c([H])c([H])c(N([H])C(=O)N4C([H])([H])C([H])([H])C([H])([H])C([H])(n5nc(-c6c([H])c([H])c(Oc7c([H])c([H])c(F)c([H])c7F)c([H])c6[H])c(C(=O)N([H])[H])c5N([H])[H])C4([H])[H])c3C([H])([H])[H])c([H])c([H])c2C1([H])[H]

>  <smiles>  (26) 
[H]c1c([H])c([H])c2c(c1[H])C([H])([H])C([H])([H])C([H])([H])C2([H])N([H])C(=O)C1([H])N(C(=O)C([H])(N([H])C(=O)C([H])(N([H])C([H])([H])[H])C([H])([H])[H])C(C([H])([H])[H])(C([H])([H])[H])C([H])([H])[H])C([H])([H])c2c([H])c(OC([H])([H])C([H])([H])[N+]([H])([H])C([H])([H])c3c([H])c([H])c([H])c(N([H])C(=O)N4C([H])([H])C([H])([H])C([H])([H])C([H])(n5nc(-c6c([H])c([H])c(Oc7c([H])c([H])c(F)c([H])c7F)c([H])c6[H])c(C(=O)N([H])[H])c5N([H])[H])C4([H])[H])c3C([H])([H])[H])c([H])c([H])c2C1([H])[H]

$$$$
26:0:0
     RDKit          3D

 93101  0  0  1  0  0  0  0  0999 V2000
  -28.9650  -21.9680   21.2150 C   0  0  0  0  0  2  0  0  0  0  0  0
  -27.8660  -20.2830   19.6480 C   0  0  0  0  0  3  0  0  0  0  0  0
  -27.7590  -19.0020   19.0760 C   0  0  0  0  0  3  0  0  0  0  0  0
  -29.6400  -19.4630   21.0960 C   0  0  0  0  0  3  0  0  0  0  0  0
  -28.8370  -20.5450   20.6370 C   0  0  0  0  0  0  0  0  0  0  0  0
  -29.5170  -18.1480   20.5580 C   0  0  0  0  0  0  0  0  0  0  0  0
  -28.5970  -17.9510   19.4910 C   0  0  0  0  0  0  0  0  0  0  0  0
  -28.4920  -16.4720   18.6080 Cl  0  0  0  0  0  0  0  0  0  0  0  0
  -30.4540  -17.0390   21.0910 C   0  0  0  0  0  2  0  0  0  0  0  0
  -30.6830  -14.5800   20.6330 C   0  0  0  0  0  0  0  0  0  0  0  0
  -30.4110  -12.4190   19.4810 C   0  0  0  0  0  2  0  0  0  0  0  0
  -29.4890  -12.6150   18.2600 C   0  0  0  0  0  2  0  0  0  0  0  0
  -28.0130  -12.4430   18.6680 C   0  0  0  0  0  2  0  0  0  0  0  0
  -27.6420  -13.2690   19.9280 C   0  0  0  0  0  3  0  0  0  0  0  0
  -28.6860  -13.0870   21.0540 C   0  0  0  0  0  2  0  0  0  0  0  0
  -30.0120  -13.4040   20.5000 N   0  0  0  0  0  0  0  0  0  0  0  0
  -31.8320  -14.7340   20.2090 O   0  0  0  0  0  0  0  0  0  0  0  0
  -29.9790  -15.6350   21.0970 N   0  0  0  0  0  0  0  0  0  0  0  0
  -29.0400  -15.4610   21.4160 H   0  0  0  0  0  0  0  0  0  0  0  0
  -25.2250  -13.8390   20.5870 C   0  0  0  0  0  0  0  0  0  0  0  0
  -24.1620  -13.0490   20.9340 C   0  0  0  0  0  0  0  0  0  0  0  0
  -24.6450  -11.7050   20.9100 C   0  0  0  0  0  0  0  0  0  0  0  0
  -26.2860  -12.9740   20.3810 N   0  0  0  0  0  0  0  0  0  0  0  0
  -25.9420  -11.6850   20.6320 N   0  0  0  0  0  0  0  0  0  0  0  0
  -23.9360  -10.4290   21.0810 C   0  0  0  0  0  0  0  0  0  0  0  0
  -24.3620   -9.4720   22.0260 C   0  0  0  0  0  3  0  0  0  0  0  0
  -23.6540   -8.2610   22.1870 C   0  0  0  0  0  3  0  0  0  0  0  0
  -22.5050   -8.0020   21.4030 C   0  0  0  0  0  0  0  0  0  0  0  0
  -22.0980   -8.9500   20.4470 C   0  0  0  0  0  3  0  0  0  0  0  0
  -22.8080  -10.1510   20.2840 C   0  0  0  0  0  3  0  0  0  0  0  0
  -21.7710   -6.8420   21.4710 O   0  0  0  0  0  0  0  0  0  0  0  0
  -21.6980   -6.1040   22.6240 C   0  0  0  0  0  0  0  0  0  0  0  0
  -21.1940   -6.6470   23.8260 C   0  0  0  0  0  3  0  0  0  0  0  0
  -21.0740   -5.8340   24.9710 C   0  0  0  0  0  3  0  0  0  0  0  0
  -21.4460   -4.4780   24.9140 C   0  0  0  0  0  0  0  0  0  0  0  0
  -21.9420   -3.9340   23.7160 C   0  0  0  0  0  3  0  0  0  0  0  0
  -22.0650   -4.7450   22.5740 C   0  0  0  0  0  0  0  0  0  0  0  0
  -22.5250   -4.2110   21.4170 F   0  0  0  0  0  0  0  0  0  0  0  0
  -21.3220   -3.6930   26.0090 F   0  0  0  0  0  0  0  0  0  0  0  0
  -22.7510  -13.5020   21.1770 C   0  0  0  0  0  0  0  0  0  0  0  0
  -22.0170  -12.7870   22.0230 N   0  0  0  0  0  0  0  0  0  0  0  0
  -22.3070  -14.5210   20.6530 O   0  0  0  0  0  0  0  0  0  0  0  0
  -22.3880  -11.9620   22.4700 H   0  0  0  0  0  0  0  0  0  0  0  0
  -21.0690  -13.0740   22.2260 H   0  0  0  0  0  0  0  0  0  0  0  0
  -25.3700  -15.2130   20.4100 N   0  0  0  0  0  0  0  0  0  0  0  0
  -24.5910  -15.8550   20.5070 H   0  0  0  0  0  0  0  0  0  0  0  0
  -26.2070  -15.6590   20.0600 H   0  0  0  0  0  0  0  0  0  0  0  0
  -29.3110  -22.9980   20.1970 N   0  0  0  0  0  4  0  0  0  0  0  0
  -30.2300  -22.7780   19.8450 H   0  0  0  0  0  0  0  0  0  0  0  0
  -28.6760  -22.9020   19.4230 H   0  0  0  0  0  0  0  0  0  0  0  0
  -29.3110  -24.4270   20.6490 C   0  0  0  0  0  2  0  0  0  0  0  0
  -28.2950  -25.3010   19.8680 C   0  0  0  0  0  2  0  0  0  0  0  0
  -28.3790  -26.7140   20.1740 O   0  0  0  0  0  0  0  0  0  0  0  0
  -24.5830  -31.9220   23.2230 C   0  0  0  0  0  0  0  0  0  0  0  0
  -27.2160  -27.4700   20.1160 C   0  0  0  0  0  0  0  0  0  0  0  0
  -23.3790  -30.5320   21.5730 C   0  0  0  0  0  3  0  0  0  0  0  0
  -24.8310  -29.0100   20.1330 C   0  0  0  0  0  0  0  0  0  0  0  0
  -25.9080  -30.8830   21.3840 C   0  0  0  0  0  2  0  0  0  0  0  0
  -25.9910  -29.5140   20.7320 C   0  0  0  0  0  0  0  0  0  0  0  0
  -27.1850  -28.7510   20.7250 C   0  0  0  0  0  3  0  0  0  0  0  0
  -26.0390  -27.0050   19.4810 C   0  0  0  0  0  3  0  0  0  0  0  0
  -24.8520  -27.7570   19.5040 C   0  0  0  0  0  3  0  0  0  0  0  0
  -23.5910  -29.8720   20.1850 C   0  0  0  0  0  2  0  0  0  0  0  0
  -24.6430  -31.1250   22.1180 N   0  0  0  0  0  0  0  0  0  0  0  0
  -23.5010  -32.1930   23.7620 O   0  0  0  0  0  0  0  0  0  0  0  0
  -22.7280  -29.5010   22.5230 C   0  0  0  0  0  0  0  0  0  0  0  0
  -21.4040  -29.3180   22.3920 N   0  0  0  0  0  0  0  0  0  0  0  0
  -23.4120  -28.8730   23.3350 O   0  0  0  0  0  0  0  0  0  0  0  0
  -20.9150  -29.8820   21.7110 H   0  0  0  0  0  0  0  0  0  0  0  0
  -18.0310  -28.1140   22.8720 C   0  0  0  0  0  0  0  0  0  0  0  0
  -20.5870  -28.3730   23.1550 C   0  0  0  0  0  3  0  0  0  0  0  0
  -20.6950  -26.9470   22.5630 C   0  0  0  0  0  2  0  0  0  0  0  0
  -19.5920  -26.6280   21.5490 C   0  0  0  0  0  2  0  0  0  0  0  0
  -18.2110  -26.7680   22.1930 C   0  0  0  0  0  2  0  0  0  0  0  0
  -19.1460  -28.8730   23.3140 C   0  0  0  0  0  0  0  0  0  0  0  0
  -18.9250  -30.1300   23.9160 C   0  0  0  0  0  3  0  0  0  0  0  0
  -17.6180  -30.6290   24.0810 C   0  0  0  0  0  3  0  0  0  0  0  0
  -16.5160  -29.8710   23.6490 C   0  0  0  0  0  3  0  0  0  0  0  0
  -16.7230  -28.6160   23.0500 C   0  0  0  0  0  3  0  0  0  0  0  0
  -25.8690  -32.5490   23.8460 C   0  0  0  0  0  3  0  0  0  0  0  0
  -25.5640  -33.9480   24.1740 N   0  0  0  0  0  0  0  0  0  0  0  0
  -25.9000  -34.9980   23.4120 C   0  0  0  0  0  0  0  0  0  0  0  0
  -26.5700  -34.8890   22.3810 O   0  0  0  0  0  0  0  0  0  0  0  0
  -24.9680  -34.1080   24.9740 H   0  0  0  0  0  0  0  0  0  0  0  0
  -24.1850  -36.8000   23.0380 C   0  0  0  0  0  1  0  0  0  0  0  0
  -25.4140  -36.3890   23.8640 C   0  0  0  0  0  3  0  0  0  0  0  0
  -27.5390  -37.2650   24.7260 C   0  0  0  0  0  1  0  0  0  0  0  0
  -26.4540  -37.4360   23.7640 N   0  0  0  0  0  0  0  0  0  0  0  0
  -26.0500  -38.3580   23.9020 H   0  0  0  0  0  0  0  0  0  0  0  0
  -26.3810  -31.7760   25.1220 C   0  0  1  0  0  0  0  0  0  0  0  0
  -25.2860  -31.5360   26.1870 C   0  0  0  0  0  1  0  0  0  0  0  0
  -26.9630  -30.3980   24.7280 C   0  0  0  0  0  1  0  0  0  0  0  0
  -27.5310  -32.5660   25.7880 C   0  0  0  0  0  1  0  0  0  0  0  0
  2  5  1  0
  3  7  1  0
  3  2  2  0
  5  4  2  0
  5  1  1  0
  6  9  1  0
  6  4  1  0
  7  6  2  0
  8  7  1  0
  9 18  1  0
 10 18  1  0
 11 16  1  0
 12 13  1  0
 12 11  1  0
 14 13  1  0
 14 23  1  0
 14 15  1  0
 16 10  1  0
 16 15  1  0
 17 10  2  0
 18 19  1  0
 20 21  2  0
 21 40  1  0
 22 21  1  0
 22 25  1  0
 23 20  1  0
 23 24  1  0
 24 22  2  0
 25 26  1  0
 26 27  2  0
 28 31  1  0
 28 27  1  0
 29 28  2  0
 30 29  1  0
 30 25  2  0
 31 32  1  0
 32 33  1  0
 33 34  2  0
 35 34  1  0
 35 39  1  0
 36 35  2  0
 37 32  2  0
 37 36  1  0
 38 37  1  0
 40 41  1  0
 41 44  1  0
 41 43  1  0
 42 40  2  0
 45 46  1  0
 45 20  1  0
 47 45  1  0
 48 51  1  0
 48  1  1  0
 49 48  1  0
 50 48  1  0
 52 53  1  0
 52 51  1  0
 54 65  2  0
 55 53  1  0
 55 60  1  0
 56 64  1  0
 56 66  1  0
 57 63  1  0
 57 59  1  0
 58 64  1  0
 59 58  1  0
 60 59  2  0
 61 62  1  0
 61 55  2  0
 62 57  2  0
 63 56  1  0
 64 54  1  0
 66 68  2  0
 67 66  1  0
 69 67  1  0
 70 79  2  0
 70 75  1  0
 71 67  1  0
 71 75  1  0
 72 71  1  0
 73 74  1  0
 73 72  1  0
 74 70  1  0
 75 76  2  0
 76 77  1  0
 78 77  2  0
 79 78  1  0
 80 54  1  0
 80 81  1  0
 80 90  1  0
 81 84  1  0
 82 86  1  0
 82 81  1  0
 83 82  2  0
 86 85  1  0
 88 86  1  0
 88 89  1  0
 88 87  1  0
 90 93  1  1
 90 91  1  0
 92 90  1  0
M  ISO  4  10 100  18 100  52 101  53 101
M  END
>  <TORSDO>  (27) 
F 21

>  <SCORE>  (27) 
-13.566

>  <name>  (27) 
26

>  <ligand_id>  (27) 
26

>  <original_smiles>  (27) 
[H]c1c([H])c([H])c2c(c1[H])C([H])([H])C([H])([H])C([H])([H])C2([H])N([H])C(=O)C1([H])N(C(=O)C([H])(N([H])C(=O)C([H])(N([H])C([H])([H])[H])C([H])([H])[H])C(C([H])([H])[H])(C([H])([H])[H])C([H])([H])[H])C([H])([H])c2c([H])c(OC([H])([H])C([H])([H])[N+]([H])([H])C([H])([H])c3c([H])c([H])c(Cl)c(C([H])([H])N([H])C(=O)N4C([H])([H])C([H])([H])C([H])([H])C([H])(n5nc(-c6c([H])c([H])c(Oc7c([H])c([H])c(F)c([H])c7F)c([H])c6[H])c(C(=O)N([H])[H])c5N([H])[H])C4([H])[H])c3[H])c([H])c([H])c2C1([H])[H]

>  <smiles>  (27) 
[H]c1c([H])c([H])c2c(c1[H])C([H])([H])C([H])([H])C([H])([H])C2([H])N([H])C(=O)C1([H])N(C(=O)C([H])(N([H])C(=O)C([H])(N([H])C([H])([H])[H])C([H])([H])[H])C(C([H])([H])[H])(C([H])([H])[H])C([H])([H])[H])C([H])([H])c2c([H])c(OC([H])([H])C([H])([H])[N+]([H])([H])C([H])([H])c3c([H])c([H])c(Cl)c(C([H])([H])N([H])C(=O)N4C([H])([H])C([H])([H])C([H])([H])C([H])(n5nc(-c6c([H])c([H])c(Oc7c([H])c([H])c(F)c([H])c7F)c([H])c6[H])c(C(=O)N([H])[H])c5N([H])[H])C4([H])[H])c3[H])c([H])c([H])c2C1([H])[H]

$$$$
27:0:0
     RDKit          3D

 99108  0  0  1  0  0  0  0  0999 V2000
  -27.5450  -22.7170   19.3850 C   0  0  0  0  0  0  0  0  0  0  0  0
  -26.5060  -21.9790   18.9290 C   0  0  0  0  0  3  0  0  0  0  0  0
  -27.4480  -24.2770   19.4220 C   0  0  0  0  0  2  0  0  0  0  0  0
  -29.5010  -24.3610   20.8740 C   0  0  0  0  0  2  0  0  0  0  0  0
  -29.9300  -23.2200   19.8810 C   0  0  0  0  0  2  0  0  0  0  0  0
  -28.1590  -25.0910   20.5510 C   0  0  0  0  0  3  0  0  0  0  0  0
  -28.9260  -22.1230   19.6940 N   0  0  1  0  0  4  0  0  0  0  0  0
  -29.2300  -21.6790   18.8400 H   0  0  0  0  0  0  0  0  0  0  0  0
  -25.4360  -19.9560   18.0520 C   0  0  0  0  0  2  0  0  0  0  0  0
  -26.4970  -20.5620   18.6080 C   0  0  0  0  0  3  0  0  0  0  0  0
  -28.3160  -26.5770   20.3990 O   0  0  0  0  0  0  0  0  0  0  0  0
  -24.5500  -32.0020   23.3780 C   0  0  0  0  0  0  0  0  0  0  0  0
  -27.1960  -27.4270   20.3750 C   0  0  0  0  0  0  0  0  0  0  0  0
  -23.3690  -30.5960   21.7290 C   0  0  0  0  0  3  0  0  0  0  0  0
  -24.8380  -29.0510   20.3230 C   0  0  0  0  0  0  0  0  0  0  0  0
  -25.9110  -30.9150   21.5790 C   0  0  0  0  0  2  0  0  0  0  0  0
  -25.9990  -29.5330   20.9420 C   0  0  0  0  0  0  0  0  0  0  0  0
  -27.1800  -28.7310   20.9630 C   0  0  0  0  0  3  0  0  0  0  0  0
  -26.0280  -27.0260   19.6930 C   0  0  0  0  0  3  0  0  0  0  0  0
  -24.8570  -27.8030   19.6870 C   0  0  0  0  0  3  0  0  0  0  0  0
  -23.6010  -29.9230   20.3530 C   0  0  0  0  0  2  0  0  0  0  0  0
  -24.6280  -31.1890   22.2840 N   0  0  0  0  0  0  0  0  0  0  0  0
  -23.4590  -32.2790   23.8980 O   0  0  0  0  0  0  0  0  0  0  0  0
  -22.7010  -29.5780   22.6830 C   0  0  0  0  0  0  0  0  0  0  0  0
  -21.3830  -29.3670   22.5170 N   0  0  0  0  0  0  0  0  0  0  0  0
  -23.3670  -28.9800   23.5310 O   0  0  0  0  0  0  0  0  0  0  0  0
  -20.9030  -29.9020   21.8050 H   0  0  0  0  0  0  0  0  0  0  0  0
  -18.0270  -28.0760   22.9000 C   0  0  0  0  0  0  0  0  0  0  0  0
  -20.5600  -28.4240   23.2750 C   0  0  0  0  0  3  0  0  0  0  0  0
  -20.7330  -26.9820   22.7430 C   0  0  0  0  0  2  0  0  0  0  0  0
  -19.6880  -26.5980   21.6910 C   0  0  0  0  0  2  0  0  0  0  0  0
  -18.2750  -26.7160   22.2690 C   0  0  0  0  0  2  0  0  0  0  0  0
  -19.1010  -28.8850   23.3570 C   0  0  0  0  0  0  0  0  0  0  0  0
  -18.8170  -30.1560   23.9020 C   0  0  0  0  0  3  0  0  0  0  0  0
  -17.4920  -30.6190   23.9980 C   0  0  0  0  0  3  0  0  0  0  0  0
  -16.4310  -29.8090   23.5580 C   0  0  0  0  0  3  0  0  0  0  0  0
  -16.6980  -28.5400   23.0150 C   0  0  0  0  0  3  0  0  0  0  0  0
  -25.8240  -32.6390   24.0120 C   0  0  0  0  0  3  0  0  0  0  0  0
  -26.2990  -31.9050   25.3250 C   0  0  1  0  0  0  0  0  0  0  0  0
  -25.1650  -31.6700   26.3500 C   0  0  0  0  0  1  0  0  0  0  0  0
  -26.9210  -30.5290   24.9880 C   0  0  0  0  0  1  0  0  0  0  0  0
  -27.4060  -32.7340   26.0170 C   0  0  0  0  0  1  0  0  0  0  0  0
  -25.5230  -34.0510   24.2890 N   0  0  0  0  0  0  0  0  0  0  0  0
  -25.8890  -35.0770   23.5090 C   0  0  0  0  0  0  0  0  0  0  0  0
  -26.5890  -34.9350   22.5020 O   0  0  0  0  0  0  0  0  0  0  0  0
  -24.9070  -34.2380   25.0670 H   0  0  0  0  0  0  0  0  0  0  0  0
  -24.1850  -36.8710   23.0610 C   0  0  0  0  0  1  0  0  0  0  0  0
  -25.4050  -36.4840   23.9110 C   0  0  0  0  0  3  0  0  0  0  0  0
  -27.5300  -37.3780   24.7580 C   0  0  0  0  0  1  0  0  0  0  0  0
  -26.4500  -37.5230   23.7860 N   0  0  0  0  0  0  0  0  0  0  0  0
  -26.0480  -38.4510   23.8930 H   0  0  0  0  0  0  0  0  0  0  0  0
  -28.9670  -20.9570   20.6900 C   0  0  0  0  0  2  0  0  0  0  0  0
  -29.5190  -18.3650   20.3300 C   0  0  0  0  0  3  0  0  0  0  0  0
  -31.7630  -17.4910   20.5680 C   0  0  0  0  0  3  0  0  0  0  0  0
  -29.9700  -19.7320   20.5350 C   0  0  0  0  0  0  0  0  0  0  0  0
  -31.3610  -19.9090   20.8170 C   0  0  0  0  0  0  0  0  0  0  0  0
  -30.3960  -17.2130   20.3610 C   0  0  0  0  0  0  0  0  0  0  0  0
  -32.2380  -18.7950   20.7860 C   0  0  0  0  0  0  0  0  0  0  0  0
  -33.9330  -18.9730   21.0930 Cl  0  0  0  0  0  0  0  0  0  0  0  0
  -30.6530  -14.6630   19.9670 C   0  0  0  0  0  0  0  0  0  0  0  0
  -30.3730  -12.3630   19.0510 C   0  0  0  0  0  2  0  0  0  0  0  0
  -29.3820  -12.3900   17.8700 C   0  0  0  0  0  2  0  0  0  0  0  0
  -27.9360  -12.2340   18.3770 C   0  0  0  0  0  2  0  0  0  0  0  0
  -27.6170  -13.1790   19.5670 C   0  0  0  0  0  3  0  0  0  0  0  0
  -28.7260  -13.1460   20.6420 C   0  0  0  0  0  2  0  0  0  0  0  0
  -29.9960  -13.4570   19.9740 N   0  0  0  0  0  0  0  0  0  0  0  0
  -31.7980  -14.7290   19.5110 O   0  0  0  0  0  0  0  0  0  0  0  0
  -29.9420  -15.8090   20.2690 N   0  0  0  0  0  0  0  0  0  0  0  0
  -28.9650  -15.6520   20.4680 H   0  0  0  0  0  0  0  0  0  0  0  0
  -25.2930  -13.7940   20.4640 C   0  0  0  0  0  0  0  0  0  0  0  0
  -24.2360  -13.0300   20.8760 C   0  0  0  0  0  0  0  0  0  0  0  0
  -24.6660  -11.6710   20.7700 C   0  0  0  0  0  0  0  0  0  0  0  0
  -26.3000  -12.9030   20.1320 N   0  0  0  0  0  0  0  0  0  0  0  0
  -25.9330  -11.6190   20.3780 N   0  0  0  0  0  0  0  0  0  0  0  0
  -23.9250  -10.4170   20.9640 C   0  0  0  0  0  0  0  0  0  0  0  0
  -24.3510   -9.4430   21.8930 C   0  0  0  0  0  3  0  0  0  0  0  0
  -23.6110   -8.2550   22.0750 C   0  0  0  0  0  3  0  0  0  0  0  0
  -22.4290   -8.0340   21.3290 C   0  0  0  0  0  0  0  0  0  0  0  0
  -22.0220   -8.9960   20.3880 C   0  0  0  0  0  3  0  0  0  0  0  0
  -22.7630  -10.1750   20.2040 C   0  0  0  0  0  3  0  0  0  0  0  0
  -21.6600   -6.8990   21.4210 O   0  0  0  0  0  0  0  0  0  0  0  0
  -21.5630   -6.1880   22.5900 C   0  0  0  0  0  0  0  0  0  0  0  0
  -21.0640   -6.7690   23.7760 C   0  0  0  0  0  3  0  0  0  0  0  0
  -20.9160   -5.9830   24.9360 C   0  0  0  0  0  3  0  0  0  0  0  0
  -21.2570   -4.6180   24.9110 C   0  0  0  0  0  0  0  0  0  0  0  0
  -21.7490   -4.0360   23.7290 C   0  0  0  0  0  3  0  0  0  0  0  0
  -21.8980   -4.8200   22.5710 C   0  0  0  0  0  0  0  0  0  0  0  0
  -22.3530   -4.2490   21.4300 F   0  0  0  0  0  0  0  0  0  0  0  0
  -21.1080   -3.8610   26.0230 F   0  0  0  0  0  0  0  0  0  0  0  0
  -22.8700  -13.5260   21.2540 C   0  0  0  0  0  0  0  0  0  0  0  0
  -22.1860  -12.8160   22.1450 N   0  0  0  0  0  0  0  0  0  0  0  0
  -22.4210  -14.5740   20.7950 O   0  0  0  0  0  0  0  0  0  0  0  0
  -22.5640  -11.9660   22.5360 H   0  0  0  0  0  0  0  0  0  0  0  0
  -21.2720  -13.1290   22.4410 H   0  0  0  0  0  0  0  0  0  0  0  0
  -25.4760  -15.1660   20.3180 N   0  0  0  0  0  0  0  0  0  0  0  0
  -24.7270  -15.8280   20.4850 H   0  0  0  0  0  0  0  0  0  0  0  0
  -26.2990  -15.5920   19.9140 H   0  0  0  0  0  0  0  0  0  0  0  0
  -31.9480  -21.2440   21.2870 C   0  0  0  0  0  2  0  0  0  0  0  0
  -31.8330  -21.2670   23.2770 Br  0  0  0  0  0  0  0  0  0  0  0  0
  1  3  1  0
  1  7  1  0
  2  1  2  0
  3  6  1  0
  5  4  1  0
  6 11  1  0
  6  4  1  0
  7  5  1  0
  7 52  1  0
  7  8  1  6
  9 10  2  0
 10  2  1  0
 12 23  2  0
 13 11  1  0
 13 18  1  0
 14 22  1  0
 14 24  1  0
 15 21  1  0
 15 17  1  0
 16 22  1  0
 17 18  2  0
 17 16  1  0
 19 13  2  0
 20 19  1  0
 20 15  2  0
 21 14  1  0
 22 12  1  0
 24 26  2  0
 25 24  1  0
 27 25  1  0
 28 37  2  0
 28 33  1  0
 29 25  1  0
 29 33  1  0
 30 29  1  0
 31 32  1  0
 31 30  1  0
 32 28  1  0
 33 34  2  0
 34 35  1  0
 36 35  2  0
 37 36  1  0
 38 12  1  0
 38 43  1  0
 38 39  1  0
 39 42  1  1
 39 40  1  0
 41 39  1  0
 43 46  1  0
 44 48  1  0
 44 43  1  0
 45 44  2  0
 48 47  1  0
 50 51  1  0
 50 48  1  0
 50 49  1  0
 53 57  2  0
 53 55  1  0
 54 58  2  0
 55 52  1  0
 55 56  2  0
 56 98  1  0
 57 54  1  0
 58 56  1  0
 58 59  1  0
 60 66  1  0
 60 68  1  0
 61 66  1  0
 62 63  1  0
 62 61  1  0
 64 63  1  0
 64 73  1  0
 64 65  1  0
 66 65  1  0
 67 60  2  0
 68 57  1  0
 68 69  1  0
 70 71  2  0
 71 90  1  0
 72 71  1  0
 72 75  1  0
 73 74  1  0
 73 70  1  0
 74 72  2  0
 75 76  1  0
 76 77  2  0
 78 81  1  0
 78 77  1  0
 79 78  2  0
 80 79  1  0
 80 75  2  0
 81 82  1  0
 82 83  1  0
 83 84  2  0
 85 84  1  0
 85 89  1  0
 86 85  2  0
 87 82  2  0
 87 86  1  0
 88 87  1  0
 90 91  1  0
 91 94  1  0
 91 93  1  0
 92 90  2  0
 95 70  1  0
 95 96  1  0
 97 95  1  0
 98 99  1  0
M  ISO  4   6 101  11 101  60 100  68 100
M  END
>  <TORSDO>  (28) 
F 20

>  <SCORE>  (28) 
-13.898

>  <name>  (28) 
27

>  <ligand_id>  (28) 
27

>  <original_smiles>  (28) 
[H]C([H])=C([H])C([H])=C1C([H])([H])C([H])(Oc2c([H])c([H])c3c(c2[H])C([H])([H])N(C(=O)C([H])(N([H])C(=O)C([H])(N([H])C([H])([H])[H])C([H])([H])[H])C(C([H])([H])[H])(C([H])([H])[H])C([H])([H])[H])C([H])(C(=O)N([H])C2([H])c4c([H])c([H])c([H])c([H])c4C([H])([H])C([H])([H])C2([H])[H])C3([H])[H])C([H])([H])C([H])([H])[N+]1([H])C([H])([H])c1c([H])c(N([H])C(=O)N2C([H])([H])C([H])([H])C([H])([H])C([H])(n3nc(-c4c([H])c([H])c(Oc5c([H])c([H])c(F)c([H])c5F)c([H])c4[H])c(C(=O)N([H])[H])c3N([H])[H])C2([H])[H])c([H])c(Cl)c1C([H])([H])Br

>  <smiles>  (28) 
[H]C([H])=C([H])C([H])=C1C([H])([H])C([H])(Oc2c([H])c([H])c3c(c2[H])C([H])([H])N(C(=O)C([H])(N([H])C(=O)C([H])(N([H])C([H])([H])[H])C([H])([H])[H])C(C([H])([H])[H])(C([H])([H])[H])C([H])([H])[H])C([H])(C(=O)N([H])C2([H])c4c([H])c([H])c([H])c([H])c4C([H])([H])C([H])([H])C2([H])[H])C3([H])[H])C([H])([H])C([H])([H])[N+]1([H])C([H])([H])c1c([H])c(N([H])C(=O)N2C([H])([H])C([H])([H])C([H])([H])C([H])(n3nc(-c4c([H])c([H])c(Oc5c([H])c([H])c(F)c([H])c5F)c([H])c4[H])c(C(=O)N([H])[H])c3N([H])[H])C2([H])[H])c([H])c(Cl)c1C([H])([H])Br

$$$$
28:0:0
     RDKit          3D

 94102  0  0  1  0  0  0  0  0999 V2000
  -29.8890  -20.3600   19.8700 C   0  0  0  0  0  2  0  0  0  0  0  0
  -30.0850  -20.2170   22.3890 C   0  0  0  0  0  3  0  0  0  0  0  0
  -30.3400  -19.5700   23.6100 C   0  0  0  0  0  3  0  0  0  0  0  0
  -30.6460  -17.4800   22.4200 C   0  0  0  0  0  3  0  0  0  0  0  0
  -30.1270  -19.5220   21.1520 C   0  0  0  0  0  0  0  0  0  0  0  0
  -30.3650  -18.0970   21.1740 C   0  0  0  0  0  0  0  0  0  0  0  0
  -30.6400  -18.2020   23.6230 C   0  0  0  0  0  0  0  0  0  0  0  0
  -30.9930  -17.4080   25.1140 Cl  0  0  0  0  0  0  0  0  0  0  0  0
  -30.3330  -17.1710   19.9310 C   0  0  0  0  0  2  0  0  0  0  0  0
  -30.9190  -14.6790   20.0040 C   0  0  0  0  0  0  0  0  0  0  0  0
  -30.7720  -12.3320   19.2400 C   0  0  0  0  0  2  0  0  0  0  0  0
  -29.8560  -12.2850   17.9990 C   0  0  0  0  0  2  0  0  0  0  0  0
  -28.3750  -12.1570   18.4110 C   0  0  0  0  0  2  0  0  0  0  0  0
  -27.9700  -13.1700   19.5130 C   0  0  0  0  0  3  0  0  0  0  0  0
  -29.0010  -13.1810   20.6650 C   0  0  0  0  0  2  0  0  0  0  0  0
  -30.3220  -13.4550   20.0800 N   0  0  0  0  0  0  0  0  0  0  0  0
  -32.0670  -14.8360   19.5780 O   0  0  0  0  0  0  0  0  0  0  0  0
  -30.1010  -15.7320   20.2320 N   0  0  0  0  0  0  0  0  0  0  0  0
  -29.1710  -15.4930   20.5390 H   0  0  0  0  0  0  0  0  0  0  0  0
  -25.5700  -13.8210   20.1740 C   0  0  0  0  0  0  0  0  0  0  0  0
  -24.4970  -13.0730   20.5780 C   0  0  0  0  0  0  0  0  0  0  0  0
  -24.9540  -11.7210   20.6260 C   0  0  0  0  0  0  0  0  0  0  0  0
  -26.6130  -12.9250   19.9980 N   0  0  0  0  0  0  0  0  0  0  0  0
  -26.2460  -11.6600   20.3280 N   0  0  0  0  0  0  0  0  0  0  0  0
  -24.2230  -10.4720   20.8790 C   0  0  0  0  0  0  0  0  0  0  0  0
  -24.6230   -9.5780   21.8950 C   0  0  0  0  0  3  0  0  0  0  0  0
  -23.8930   -8.3930   22.1320 C   0  0  0  0  0  3  0  0  0  0  0  0
  -22.7490   -8.0960   21.3540 C   0  0  0  0  0  0  0  0  0  0  0  0
  -22.3700   -8.9800   20.3290 C   0  0  0  0  0  3  0  0  0  0  0  0
  -23.1000  -10.1560   20.0890 C   0  0  0  0  0  3  0  0  0  0  0  0
  -21.9940   -6.9570   21.4950 O   0  0  0  0  0  0  0  0  0  0  0  0
  -21.7720   -6.3900   22.7240 C   0  0  0  0  0  0  0  0  0  0  0  0
  -21.1850   -7.1140   23.7850 C   0  0  0  0  0  3  0  0  0  0  0  0
  -20.9100   -6.4710   25.0090 C   0  0  0  0  0  3  0  0  0  0  0  0
  -21.2130   -5.1060   25.1730 C   0  0  0  0  0  0  0  0  0  0  0  0
  -21.7930   -4.3820   24.1150 C   0  0  0  0  0  3  0  0  0  0  0  0
  -22.0680   -5.0220   22.8940 C   0  0  0  0  0  0  0  0  0  0  0  0
  -22.6070   -4.3150   21.8720 F   0  0  0  0  0  0  0  0  0  0  0  0
  -20.9440   -4.4860   26.3440 F   0  0  0  0  0  0  0  0  0  0  0  0
  -23.0990  -13.5700   20.8150 C   0  0  0  0  0  0  0  0  0  0  0  0
  -22.3960  -12.9840   21.7780 N   0  0  0  0  0  0  0  0  0  0  0  0
  -22.6400  -14.5150   20.1760 O   0  0  0  0  0  0  0  0  0  0  0  0
  -22.7810  -12.2230   22.3180 H   0  0  0  0  0  0  0  0  0  0  0  0
  -21.4580  -13.3020   21.9770 H   0  0  0  0  0  0  0  0  0  0  0  0
  -25.7360  -15.1800   19.9210 N   0  0  0  0  0  0  0  0  0  0  0  0
  -24.9630  -15.8320   19.9880 H   0  0  0  0  0  0  0  0  0  0  0  0
  -26.5800  -15.6050   19.5580 H   0  0  0  0  0  0  0  0  0  0  0  0
  -30.2340  -21.8190   19.9820 N   0  0  0  0  0  4  0  0  0  0  0  0
  -30.8790  -22.0150   19.2350 H   0  0  0  0  0  0  0  0  0  0  0  0
  -30.7380  -21.9550   20.8440 H   0  0  0  0  0  0  0  0  0  0  0  0
  -29.1010  -22.7980   19.8750 C   0  0  0  0  0  2  0  0  0  0  0  0
  -29.4610  -24.3100   20.1350 C   0  0  0  0  0  2  0  0  0  0  0  0
  -28.2760  -25.2840   19.8350 C   0  0  0  0  0  2  0  0  0  0  0  0
  -28.4690  -26.7110   20.0780 O   0  0  0  0  0  0  0  0  0  0  0  0
  -24.5310  -31.8140   23.2060 C   0  0  0  0  0  0  0  0  0  0  0  0
  -27.3380  -27.5230   20.0000 C   0  0  0  0  0  0  0  0  0  0  0  0
  -23.4260  -30.5320   21.4070 C   0  0  0  0  0  3  0  0  0  0  0  0
  -24.9620  -29.0930   19.9640 C   0  0  0  0  0  0  0  0  0  0  0  0
  -25.9670  -30.8740   21.3920 C   0  0  0  0  0  2  0  0  0  0  0  0
  -26.0880  -29.5480   20.6610 C   0  0  0  0  0  0  0  0  0  0  0  0
  -27.2780  -28.7730   20.6770 C   0  0  0  0  0  3  0  0  0  0  0  0
  -26.1930  -27.1180   19.2700 C   0  0  0  0  0  3  0  0  0  0  0  0
  -25.0130  -27.8820   19.2610 C   0  0  0  0  0  3  0  0  0  0  0  0
  -23.7190  -29.9550   19.9980 C   0  0  0  0  0  2  0  0  0  0  0  0
  -24.6570  -31.0850   22.0610 N   0  0  0  0  0  0  0  0  0  0  0  0
  -23.4190  -32.0570   23.6940 O   0  0  0  0  0  0  0  0  0  0  0  0
  -22.7170  -29.4500   22.2540 C   0  0  0  0  0  0  0  0  0  0  0  0
  -21.3900  -29.3260   22.0820 N   0  0  0  0  0  0  0  0  0  0  0  0
  -23.3570  -28.7300   23.0240 O   0  0  0  0  0  0  0  0  0  0  0  0
  -20.9370  -29.9590   21.4360 H   0  0  0  0  0  0  0  0  0  0  0  0
  -17.9560  -28.2580   22.4520 C   0  0  0  0  0  0  0  0  0  0  0  0
  -20.5230  -28.3520   22.7450 C   0  0  0  0  0  3  0  0  0  0  0  0
  -20.5530  -26.9910   22.0130 C   0  0  0  0  0  2  0  0  0  0  0  0
  -19.4400  -26.8400   20.9720 C   0  0  0  0  0  2  0  0  0  0  0  0
  -18.0650  -26.9840   21.6310 C   0  0  0  0  0  2  0  0  0  0  0  0
  -19.1100  -28.9080   22.9610 C   0  0  0  0  0  0  0  0  0  0  0  0
  -18.9540  -30.1090   23.6880 C   0  0  0  0  0  3  0  0  0  0  0  0
  -17.6760  -30.6560   23.9100 C   0  0  0  0  0  3  0  0  0  0  0  0
  -16.5350  -29.9990   23.4170 C   0  0  0  0  0  3  0  0  0  0  0  0
  -16.6770  -28.8010   22.6930 C   0  0  0  0  0  3  0  0  0  0  0  0
  -25.7770  -32.3970   23.9430 C   0  0  0  0  0  3  0  0  0  0  0  0
  -25.5030  -33.8130   24.2210 N   0  0  0  0  0  0  0  0  0  0  0  0
  -25.9860  -34.8360   23.5030 C   0  0  0  0  0  0  0  0  0  0  0  0
  -26.7740  -34.6840   22.5670 O   0  0  0  0  0  0  0  0  0  0  0  0
  -24.8210  -34.0100   24.9390 H   0  0  0  0  0  0  0  0  0  0  0  0
  -24.4160  -36.7110   22.9140 C   0  0  0  0  0  1  0  0  0  0  0  0
  -25.5180  -36.2550   23.8840 C   0  0  0  0  0  3  0  0  0  0  0  0
  -27.5610  -37.0440   24.9900 C   0  0  0  0  0  1  0  0  0  0  0  0
  -26.6110  -37.2500   23.9000 N   0  0  0  0  0  0  0  0  0  0  0  0
  -26.2390  -38.1930   23.9770 H   0  0  0  0  0  0  0  0  0  0  0  0
  -26.1290  -31.6260   25.2730 C   0  0  1  0  0  0  0  0  0  0  0  0
  -24.9310  -31.4760   26.2390 C   0  0  0  0  0  1  0  0  0  0  0  0
  -26.6630  -30.2080   24.9600 C   0  0  0  0  0  1  0  0  0  0  0  0
  -27.2610  -32.3660   26.0240 C   0  0  0  0  0  1  0  0  0  0  0  0
  1 48  1  0
  1  5  1  0
  2  3  1  0
  3  7  2  0
  4  7  1  0
  5  6  1  0
  5  2  2  0
  6  4  2  0
  7  8  1  0
  9 18  1  0
  9  6  1  0
 10 16  1  0
 10 18  1  0
 11 16  1  0
 12 13  1  0
 12 11  1  0
 14 13  1  0
 14 23  1  0
 14 15  1  0
 16 15  1  0
 17 10  2  0
 18 19  1  0
 20 21  2  0
 21 22  1  0
 21 40  1  0
 22 25  1  0
 23 20  1  0
 23 24  1  0
 24 22  2  0
 25 26  1  0
 26 27  2  0
 28 31  1  0
 28 27  1  0
 29 28  2  0
 30 29  1  0
 30 25  2  0
 31 32  1  0
 32 37  2  0
 32 33  1  0
 33 34  2  0
 34 35  1  0
 35 39  1  0
 36 35  2  0
 37 36  1  0
 38 37  1  0
 40 41  1  0
 41 44  1  0
 41 43  1  0
 42 40  2  0
 45 46  1  0
 45 20  1  0
 47 45  1  0
 48 50  1  0
 49 48  1  0
 51 48  1  0
 51 52  1  0
 53 54  1  0
 53 52  1  0
 55 66  2  0
 56 54  1  0
 56 61  1  0
 57 65  1  0
 57 67  1  0
 58 64  1  0
 58 60  1  0
 59 65  1  0
 60 61  2  0
 60 59  1  0
 62 56  2  0
 63 62  1  0
 63 58  2  0
 64 57  1  0
 65 55  1  0
 67 69  2  0
 68 67  1  0
 70 68  1  0
 71 80  2  0
 71 76  1  0
 72 68  1  0
 72 76  1  0
 73 72  1  0
 74 75  1  0
 74 73  1  0
 75 71  1  0
 76 77  2  0
 77 78  1  0
 79 78  2  0
 80 79  1  0
 81 55  1  0
 81 82  1  0
 81 91  1  0
 82 85  1  0
 83 87  1  0
 83 82  1  0
 84 83  2  0
 87 86  1  0
 87 89  1  0
 89 90  1  0
 89 88  1  0
 91 94  1  1
 91 92  1  0
 93 91  1  0
M  ISO  4  10 100  18 100  53 101  54 101
M  END
>  <TORSDO>  (29) 
F 22

>  <SCORE>  (29) 
-8.008

>  <name>  (29) 
28

>  <ligand_id>  (29) 
28

>  <original_smiles>  (29) 
[H]c1c([H])c([H])c2c(c1[H])C([H])([H])C([H])([H])C([H])([H])C2([H])N([H])C(=O)C1([H])N(C(=O)C([H])(N([H])C(=O)C([H])(N([H])C([H])([H])[H])C([H])([H])[H])C(C([H])([H])[H])(C([H])([H])[H])C([H])([H])[H])C([H])([H])c2c([H])c(OC([H])([H])C([H])([H])C([H])([H])[N+]([H])([H])C([H])([H])c3c([H])c([H])c(Cl)c([H])c3C([H])([H])N([H])C(=O)N3C([H])([H])C([H])([H])C([H])([H])C([H])(n4nc(-c5c([H])c([H])c(Oc6c([H])c([H])c(F)c([H])c6F)c([H])c5[H])c(C(=O)N([H])[H])c4N([H])[H])C3([H])[H])c([H])c([H])c2C1([H])[H]

>  <smiles>  (29) 
[H]c1c([H])c([H])c2c(c1[H])C([H])([H])C([H])([H])C([H])([H])C2([H])N([H])C(=O)C1([H])N(C(=O)C([H])(N([H])C(=O)C([H])(N([H])C([H])([H])[H])C([H])([H])[H])C(C([H])([H])[H])(C([H])([H])[H])C([H])([H])[H])C([H])([H])c2c([H])c(OC([H])([H])C([H])([H])C([H])([H])[N+]([H])([H])C([H])([H])c3c([H])c([H])c(Cl)c([H])c3C([H])([H])N([H])C(=O)N3C([H])([H])C([H])([H])C([H])([H])C([H])(n4nc(-c5c([H])c([H])c(Oc6c([H])c([H])c(F)c([H])c6F)c([H])c5[H])c(C(=O)N([H])[H])c4N([H])[H])C3([H])[H])c([H])c([H])c2C1([H])[H]

$$$$
29:0:0
     RDKit          3D

 93101  0  0  1  0  0  0  0  0999 V2000
  -28.0490  -22.7030   20.3710 C   0  0  0  0  0  2  0  0  0  0  0  0
  -26.3940  -24.9890   17.7570 C   0  0  0  0  0  3  0  0  0  0  0  0
  -26.3300  -26.2340   18.3940 C   0  0  0  0  0  3  0  0  0  0  0  0
  -26.9700  -23.8910   18.4080 C   0  0  0  0  0  3  0  0  0  0  0  0
  -26.8660  -26.4270   19.6820 C   0  0  0  0  0  0  0  0  0  0  0  0
  -27.5420  -24.0150   19.6950 C   0  0  0  0  0  0  0  0  0  0  0  0
  -27.5120  -25.3080   20.3270 C   0  0  0  0  0  0  0  0  0  0  0  0
  -28.2010  -25.4660   21.6780 C   0  0  0  0  0  1  0  0  0  0  0  0
  -26.7460  -27.8580   20.2940 C   0  0  0  0  0  2  0  0  0  0  0  0
  -25.1240  -29.7390   20.8160 C   0  0  0  0  0  0  0  0  0  0  0  0
  -23.4430  -30.8370   22.2640 C   0  0  0  0  0  2  0  0  0  0  0  0
  -23.2120  -29.9230   23.4860 C   0  0  0  0  0  2  0  0  0  0  0  0
  -22.1250  -28.8690   23.1820 C   0  0  0  0  0  2  0  0  0  0  0  0
  -22.3690  -28.1420   21.8320 C   0  0  0  0  0  3  0  0  0  0  0  0
  -22.6750  -29.1510   20.7020 C   0  0  0  0  0  2  0  0  0  0  0  0
  -23.8170  -29.9710   21.1330 N   0  0  0  0  0  0  0  0  0  0  0  0
  -26.0250  -30.5120   21.1560 O   0  0  0  0  0  0  0  0  0  0  0  0
  -25.4040  -28.5150   20.3000 N   0  0  0  0  0  0  0  0  0  0  0  0
  -24.6080  -27.9360   20.0710 H   0  0  0  0  0  0  0  0  0  0  0  0
  -21.2100  -26.2460   20.5410 C   0  0  0  0  0  0  0  0  0  0  0  0
  -19.9650  -25.6940   20.6480 C   0  0  0  0  0  0  0  0  0  0  0  0
  -19.2930  -26.4310   21.6730 C   0  0  0  0  0  0  0  0  0  0  0  0
  -21.2570  -27.2680   21.4760 N   0  0  0  0  0  0  0  0  0  0  0  0
  -20.0680  -27.4130   22.1170 N   0  0  0  0  0  0  0  0  0  0  0  0
  -17.9820  -26.2220   22.2990 C   0  0  0  0  0  0  0  0  0  0  0  0
  -17.2740  -27.2830   22.9050 C   0  0  0  0  0  3  0  0  0  0  0  0
  -16.0070  -27.0600   23.4830 C   0  0  0  0  0  3  0  0  0  0  0  0
  -15.4320  -25.7690   23.4540 C   0  0  0  0  0  0  0  0  0  0  0  0
  -16.1530  -24.7090   22.8730 C   0  0  0  0  0  3  0  0  0  0  0  0
  -17.4170  -24.9320   22.3040 C   0  0  0  0  0  3  0  0  0  0  0  0
  -14.2150  -25.4550   24.0100 O   0  0  0  0  0  0  0  0  0  0  0  0
  -13.0490  -25.5590   23.2960 C   0  0  0  0  0  0  0  0  0  0  0  0
  -12.5320  -24.4760   22.5510 C   0  0  0  0  0  3  0  0  0  0  0  0
  -11.2970  -24.6070   21.8850 C   0  0  0  0  0  3  0  0  0  0  0  0
  -10.5720  -25.8100   21.9740 C   0  0  0  0  0  0  0  0  0  0  0  0
  -11.0800  -26.8850   22.7230 C   0  0  0  0  0  3  0  0  0  0  0  0
  -12.3140  -26.7590   23.3840 C   0  0  0  0  0  0  0  0  0  0  0  0
  -12.7920  -27.7920   24.1190 F   0  0  0  0  0  0  0  0  0  0  0  0
   -9.3800  -25.9290   21.3460 F   0  0  0  0  0  0  0  0  0  0  0  0
  -19.4520  -24.4920   19.9110 C   0  0  0  0  0  0  0  0  0  0  0  0
  -18.6720  -24.7020   18.8580 N   0  0  0  0  0  0  0  0  0  0  0  0
  -19.7850  -23.3530   20.2380 O   0  0  0  0  0  0  0  0  0  0  0  0
  -18.4210  -25.6380   18.5770 H   0  0  0  0  0  0  0  0  0  0  0  0
  -18.3240  -23.9190   18.3240 H   0  0  0  0  0  0  0  0  0  0  0  0
  -22.3150  -25.9570   19.7440 N   0  0  0  0  0  0  0  0  0  0  0  0
  -22.3280  -25.1940   19.0770 H   0  0  0  0  0  0  0  0  0  0  0  0
  -23.1900  -26.4630   19.7900 H   0  0  0  0  0  0  0  0  0  0  0  0
  -29.5050  -22.5800   20.6840 N   0  0  0  0  0  4  0  0  0  0  0  0
  -29.9720  -23.4000   20.3300 H   0  0  0  0  0  0  0  0  0  0  0  0
  -29.6120  -22.5970   21.6880 H   0  0  0  0  0  0  0  0  0  0  0  0
  -30.1970  -21.3680   20.1070 C   0  0  0  0  0  2  0  0  0  0  0  0
  -30.5280  -20.2290   21.1220 C   0  0  0  0  0  2  0  0  0  0  0  0
  -31.7280  -19.4570   20.8530 O   0  0  0  0  0  0  0  0  0  0  0  0
  -35.8290  -14.7640   17.3910 C   0  0  0  0  0  0  0  0  0  0  0  0
  -31.7360  -18.3670   19.9940 C   0  0  0  0  0  0  0  0  0  0  0  0
  -33.4500  -14.8050   16.7220 C   0  0  0  0  0  3  0  0  0  0  0  0
  -31.8840  -16.1280   18.2510 C   0  0  0  0  0  0  0  0  0  0  0  0
  -34.1460  -15.4690   19.0960 C   0  0  0  0  0  2  0  0  0  0  0  0
  -32.9400  -16.3930   19.1310 C   0  0  0  0  0  0  0  0  0  0  0  0
  -32.8660  -17.5050   20.0070 C   0  0  0  0  0  3  0  0  0  0  0  0
  -30.6770  -18.0730   19.1040 C   0  0  0  0  0  3  0  0  0  0  0  0
  -30.7520  -16.9630   18.2380 C   0  0  0  0  0  3  0  0  0  0  0  0
  -32.0300  -14.9250   17.3430 C   0  0  0  0  0  2  0  0  0  0  0  0
  -34.5360  -15.0280   17.7320 N   0  0  0  0  0  0  0  0  0  0  0  0
  -36.1170  -14.3040   16.2770 O   0  0  0  0  0  0  0  0  0  0  0  0
  -33.5380  -15.7540   15.5080 C   0  0  0  0  0  0  0  0  0  0  0  0
  -33.1340  -15.2610   14.3250 N   0  0  0  0  0  0  0  0  0  0  0  0
  -33.9390  -16.9130   15.6420 O   0  0  0  0  0  0  0  0  0  0  0  0
  -32.8510  -14.2930   14.2910 H   0  0  0  0  0  0  0  0  0  0  0  0
  -32.2720  -14.9640   10.8290 C   0  0  0  0  0  0  0  0  0  0  0  0
  -33.0820  -15.9900   13.0550 C   0  0  0  0  0  3  0  0  0  0  0  0
  -31.8350  -16.9010   12.9690 C   0  0  0  0  0  2  0  0  0  0  0  0
  -30.6390  -16.2320   12.2840 C   0  0  0  0  0  2  0  0  0  0  0  0
  -31.0060  -15.7980   10.8650 C   0  0  0  0  0  2  0  0  0  0  0  0
  -33.2390  -15.0430   11.8650 C   0  0  0  0  0  0  0  0  0  0  0  0
  -34.3860  -14.2240   11.7960 C   0  0  0  0  0  3  0  0  0  0  0  0
  -34.5780  -13.3450   10.7120 C   0  0  0  0  0  3  0  0  0  0  0  0
  -33.6240  -13.2800    9.6800 C   0  0  0  0  0  3  0  0  0  0  0  0
  -32.4780  -14.0900    9.7380 C   0  0  0  0  0  3  0  0  0  0  0  0
  -37.0030  -14.9970   18.3920 C   0  0  0  0  0  3  0  0  0  0  0  0
  -37.7490  -13.7370   18.5090 N   0  0  0  0  0  0  0  0  0  0  0  0
  -37.4520  -12.7560   19.3720 C   0  0  0  0  0  0  0  0  0  0  0  0
  -36.5550  -12.8550   20.2140 O   0  0  0  0  0  0  0  0  0  0  0  0
  -38.4640  -13.5660   17.8160 H   0  0  0  0  0  0  0  0  0  0  0  0
  -37.4330  -10.3390   18.6740 C   0  0  0  0  0  1  0  0  0  0  0  0
  -38.2850  -11.4600   19.2900 C   0  0  0  0  0  3  0  0  0  0  0  0
  -39.9740  -11.7930   21.0420 C   0  0  0  0  0  1  0  0  0  0  0  0
  -38.8180  -11.0180   20.5970 N   0  0  0  0  0  0  0  0  0  0  0  0
  -39.0860  -10.0380   20.5640 H   0  0  0  0  0  0  0  0  0  0  0  0
  -37.9650  -16.1710   17.9580 C   0  0  1  0  0  0  0  0  0  0  0  0
  -39.1300  -15.7210   17.0470 C   0  0  0  0  0  1  0  0  0  0  0  0
  -37.1790  -17.2680   17.2040 C   0  0  0  0  0  1  0  0  0  0  0  0
  -38.5750  -16.8450   19.2120 C   0  0  0  0  0  1  0  0  0  0  0  0
  1 48  1  0
  2  3  2  0
  2  4  1  0
  3  5  1  0
  4  6  2  0
  5  9  1  0
  5  7  2  0
  6  7  1  0
  6  1  1  0
  7  8  1  0
  9 18  1  0
 10 16  1  0
 10 17  2  0
 11 12  1  0
 13 12  1  0
 14 15  1  0
 14 13  1  0
 15 16  1  0
 16 11  1  0
 18 10  1  0
 19 18  1  0
 20 21  2  0
 20 23  1  0
 21 22  1  0
 22 24  2  0
 22 25  1  0
 23 14  1  0
 23 24  1  0
 25 30  2  0
 25 26  1  0
 26 27  2  0
 28 27  1  0
 28 31  1  0
 29 28  2  0
 30 29  1  0
 32 37  1  0
 32 31  1  0
 33 32  2  0
 34 35  2  0
 34 33  1  0
 35 36  1  0
 36 37  2  0
 37 38  1  0
 39 35  1  0
 40 42  2  0
 40 21  1  0
 41 40  1  0
 43 41  1  0
 44 41  1  0
 45 47  1  0
 45 20  1  0
 46 45  1  0
 48 50  1  0
 49 48  1  0
 51 48  1  0
 51 52  1  0
 53 52  1  0
 54 64  1  0
 55 60  1  0
 55 53  1  0
 56 66  1  0
 56 63  1  0
 56 64  1  0
 57 59  1  0
 58 59  1  0
 59 60  2  0
 61 55  2  0
 62 57  2  0
 62 61  1  0
 63 57  1  0
 64 58  1  0
 65 54  2  0
 66 68  2  0
 67 66  1  0
 69 67  1  0
 70 74  1  0
 70 75  1  0
 71 67  1  0
 72 71  1  0
 73 72  1  0
 74 73  1  0
 75 71  1  0
 76 75  2  0
 77 76  1  0
 78 79  1  0
 78 77  2  0
 79 70  2  0
 80 54  1  0
 80 81  1  0
 81 82  1  0
 82 83  2  0
 84 81  1  0
 86 85  1  0
 86 82  1  0
 86 88  1  0
 88 87  1  0
 89 88  1  0
 90 80  1  0
 90 93  1  1
 91 90  1  0
 92 90  1  0
M  ISO  4  10 100  18 100  52 101  53 101
M  END
>  <TORSDO>  (30) 
F 21

>  <SCORE>  (30) 
-5.536

>  <name>  (30) 
29

>  <ligand_id>  (30) 
29

>  <original_smiles>  (30) 
[H]c1c([H])c([H])c2c(c1[H])C([H])([H])C([H])([H])C([H])([H])C2([H])N([H])C(=O)C1([H])N(C(=O)C([H])(N([H])C(=O)C([H])(N([H])C([H])([H])[H])C([H])([H])[H])C(C([H])([H])[H])(C([H])([H])[H])C([H])([H])[H])C([H])([H])c2c([H])c(OC([H])([H])C([H])([H])[N+]([H])([H])C([H])([H])c3c([H])c([H])c([H])c(C([H])([H])N([H])C(=O)N4C([H])([H])C([H])([H])C([H])([H])C([H])(n5nc(-c6c([H])c([H])c(Oc7c([H])c([H])c(F)c([H])c7F)c([H])c6[H])c(C(=O)N([H])[H])c5N([H])[H])C4([H])[H])c3C([H])([H])[H])c([H])c([H])c2C1([H])[H]

>  <smiles>  (30) 
[H]c1c([H])c([H])c2c(c1[H])C([H])([H])C([H])([H])C([H])([H])C2([H])N([H])C(=O)C1([H])N(C(=O)C([H])(N([H])C(=O)C([H])(N([H])C([H])([H])[H])C([H])([H])[H])C(C([H])([H])[H])(C([H])([H])[H])C([H])([H])[H])C([H])([H])c2c([H])c(OC([H])([H])C([H])([H])[N+]([H])([H])C([H])([H])c3c([H])c([H])c([H])c(C([H])([H])N([H])C(=O)N4C([H])([H])C([H])([H])C([H])([H])C([H])(n5nc(-c6c([H])c([H])c(Oc7c([H])c([H])c(F)c([H])c7F)c([H])c6[H])c(C(=O)N([H])[H])c5N([H])[H])C4([H])[H])c3C([H])([H])[H])c([H])c([H])c2C1([H])[H]

$$$$
30:0:0
     RDKit          3D

 95103  0  0  1  0  0  0  0  0999 V2000
  -31.1040  -18.5890   20.2500 C   0  0  0  0  0  3  0  0  0  0  0  0
  -28.8170  -20.1450   20.6670 C   0  0  0  0  0  3  0  0  0  0  0  0
  -31.2480  -19.9520   20.6040 C   0  0  0  0  0  0  0  0  0  0  0  0
  -29.8340  -18.0060   20.0700 C   0  0  0  0  0  0  0  0  0  0  0  0
  -30.0850  -20.7530   20.7980 C   0  0  0  0  0  0  0  0  0  0  0  0
  -28.6830  -18.7930   20.2940 C   0  0  0  0  0  0  0  0  0  0  0  0
  -27.0930  -18.1500   20.0810 Cl  0  0  0  0  0  0  0  0  0  0  0  0
  -33.1050  -20.5840   22.2290 C   0  0  0  0  0  1  0  0  0  0  0  0
  -32.6630  -20.5010   20.7580 C   0  0  0  0  0  2  0  0  0  0  0  0
  -29.7490  -16.5870   19.5150 C   0  0  0  0  0  2  0  0  0  0  0  0
  -30.7740  -14.4490   20.0520 C   0  0  0  0  0  0  0  0  0  0  0  0
  -30.3930  -12.3070   18.9240 C   0  0  0  0  0  2  0  0  0  0  0  0
  -29.3890  -12.5680   17.7800 C   0  0  0  0  0  2  0  0  0  0  0  0
  -27.9340  -12.4650   18.2850 C   0  0  0  0  0  2  0  0  0  0  0  0
  -27.6880  -13.2730   19.5900 C   0  0  0  0  0  3  0  0  0  0  0  0
  -28.8010  -12.9960   20.6310 C   0  0  0  0  0  2  0  0  0  0  0  0
  -30.1050  -13.2670   20.0000 N   0  0  0  0  0  0  0  0  0  0  0  0
  -31.8730  -14.6350   19.5190 O   0  0  0  0  0  0  0  0  0  0  0  0
  -30.0190  -15.4850   20.4470 N   0  0  0  0  0  0  0  0  0  0  0  0
  -29.2460  -15.2360   21.0460 H   0  0  0  0  0  0  0  0  0  0  0  0
  -25.3460  -13.9240   20.4470 C   0  0  0  0  0  0  0  0  0  0  0  0
  -24.2830  -13.1720   20.8620 C   0  0  0  0  0  0  0  0  0  0  0  0
  -24.7100  -11.8120   20.7780 C   0  0  0  0  0  0  0  0  0  0  0  0
  -26.3550  -13.0250   20.1340 N   0  0  0  0  0  0  0  0  0  0  0  0
  -25.9750  -11.7480   20.3850 N   0  0  0  0  0  0  0  0  0  0  0  0
  -23.9700  -10.5650   20.9850 C   0  0  0  0  0  0  0  0  0  0  0  0
  -24.4290   -9.5760   21.8850 C   0  0  0  0  0  3  0  0  0  0  0  0
  -23.6920   -8.3880   22.0780 C   0  0  0  0  0  3  0  0  0  0  0  0
  -22.4810   -8.1790   21.3740 C   0  0  0  0  0  0  0  0  0  0  0  0
  -22.0410   -9.1570   20.4650 C   0  0  0  0  0  3  0  0  0  0  0  0
  -22.7770  -10.3360   20.2700 C   0  0  0  0  0  3  0  0  0  0  0  0
  -21.7100   -7.0470   21.4840 O   0  0  0  0  0  0  0  0  0  0  0  0
  -21.6900   -6.2980   22.6340 C   0  0  0  0  0  0  0  0  0  0  0  0
  -21.3020   -6.8470   23.8770 C   0  0  0  0  0  3  0  0  0  0  0  0
  -21.2300   -6.0220   25.0170 C   0  0  0  0  0  3  0  0  0  0  0  0
  -21.5320   -4.6500   24.9160 C   0  0  0  0  0  0  0  0  0  0  0  0
  -21.9110   -4.1010   23.6790 C   0  0  0  0  0  3  0  0  0  0  0  0
  -21.9880   -4.9220   22.5410 C   0  0  0  0  0  0  0  0  0  0  0  0
  -22.3330   -4.3850   21.3460 F   0  0  0  0  0  0  0  0  0  0  0  0
  -21.4530   -3.8570   26.0110 F   0  0  0  0  0  0  0  0  0  0  0  0
  -22.9170  -13.6740   21.2320 C   0  0  0  0  0  0  0  0  0  0  0  0
  -22.2340  -12.9810   22.1340 N   0  0  0  0  0  0  0  0  0  0  0  0
  -22.4720  -14.7200   20.7610 O   0  0  0  0  0  0  0  0  0  0  0  0
  -22.6080  -12.1360   22.5440 H   0  0  0  0  0  0  0  0  0  0  0  0
  -21.3180  -13.2940   22.4210 H   0  0  0  0  0  0  0  0  0  0  0  0
  -25.5320  -15.2950   20.2990 N   0  0  0  0  0  0  0  0  0  0  0  0
  -24.7950  -15.9590   20.5040 H   0  0  0  0  0  0  0  0  0  0  0  0
  -26.3860  -15.7470   20.0020 H   0  0  0  0  0  0  0  0  0  0  0  0
  -30.1300  -22.2460   21.1540 C   0  0  0  0  0  2  0  0  0  0  0  0
  -29.5790  -23.1100   20.0790 N   0  0  0  0  0  4  0  0  0  0  0  0
  -28.6410  -22.8020   19.8820 H   0  0  0  0  0  0  0  0  0  0  0  0
  -30.1210  -22.9780   19.2390 H   0  0  0  0  0  0  0  0  0  0  0  0
  -29.5550  -24.5630   20.4160 C   0  0  0  0  0  2  0  0  0  0  0  0
  -28.4380  -25.3350   19.6800 C   0  0  0  0  0  2  0  0  0  0  0  0
  -28.4670  -26.7290   20.0310 O   0  0  0  0  0  0  0  0  0  0  0  0
  -24.5920  -31.7960   23.1890 C   0  0  0  0  0  0  0  0  0  0  0  0
  -27.2770  -27.4330   20.0200 C   0  0  0  0  0  0  0  0  0  0  0  0
  -23.4020  -30.4170   21.5180 C   0  0  0  0  0  3  0  0  0  0  0  0
  -24.8680  -28.9240   20.0650 C   0  0  0  0  0  0  0  0  0  0  0  0
  -25.9270  -30.7950   21.3380 C   0  0  0  0  0  2  0  0  0  0  0  0
  -26.0210  -29.4380   20.6710 C   0  0  0  0  0  0  0  0  0  0  0  0
  -27.2250  -28.6990   20.6460 C   0  0  0  0  0  3  0  0  0  0  0  0
  -26.1010  -26.9400   19.4020 C   0  0  0  0  0  3  0  0  0  0  0  0
  -24.9040  -27.6750   19.4260 C   0  0  0  0  0  3  0  0  0  0  0  0
  -23.6180  -29.7670   20.1270 C   0  0  0  0  0  2  0  0  0  0  0  0
  -24.6580  -31.0170   22.0740 N   0  0  0  0  0  0  0  0  0  0  0  0
  -23.5070  -32.0480   23.7300 O   0  0  0  0  0  0  0  0  0  0  0  0
  -22.7580  -29.3700   22.4580 C   0  0  0  0  0  0  0  0  0  0  0  0
  -21.4330  -29.1880   22.3320 N   0  0  0  0  0  0  0  0  0  0  0  0
  -23.4470  -28.7270   23.2550 O   0  0  0  0  0  0  0  0  0  0  0  0
  -20.9400  -29.7570   21.6570 H   0  0  0  0  0  0  0  0  0  0  0  0
  -18.0590  -27.9950   22.8400 C   0  0  0  0  0  0  0  0  0  0  0  0
  -20.6220  -28.2300   23.0850 C   0  0  0  0  0  3  0  0  0  0  0  0
  -20.7080  -26.8170   22.4630 C   0  0  0  0  0  2  0  0  0  0  0  0
  -19.5890  -26.5330   21.4570 C   0  0  0  0  0  2  0  0  0  0  0  0
  -18.2170  -26.6660   22.1220 C   0  0  0  0  0  2  0  0  0  0  0  0
  -19.1880  -28.7360   23.2800 C   0  0  0  0  0  0  0  0  0  0  0  0
  -18.9830  -29.9830   23.9130 C   0  0  0  0  0  3  0  0  0  0  0  0
  -17.6840  -30.4860   24.1080 C   0  0  0  0  0  3  0  0  0  0  0  0
  -16.5700  -29.7410   23.6820 C   0  0  0  0  0  3  0  0  0  0  0  0
  -16.7600  -28.4950   23.0570 C   0  0  0  0  0  3  0  0  0  0  0  0
  -25.8720  -32.4250   23.8250 C   0  0  0  0  0  3  0  0  0  0  0  0
  -25.5600  -33.8200   24.1580 N   0  0  0  0  0  0  0  0  0  0  0  0
  -25.9000  -34.8740   23.4050 C   0  0  0  0  0  0  0  0  0  0  0  0
  -26.5830  -34.7740   22.3820 O   0  0  0  0  0  0  0  0  0  0  0  0
  -24.9610  -33.9720   24.9560 H   0  0  0  0  0  0  0  0  0  0  0  0
  -24.1820  -36.6650   23.0290 C   0  0  0  0  0  1  0  0  0  0  0  0
  -25.4090  -36.2600   23.8610 C   0  0  0  0  0  3  0  0  0  0  0  0
  -27.5270  -37.1370   24.7350 C   0  0  0  0  0  1  0  0  0  0  0  0
  -26.4450  -37.3120   23.7700 N   0  0  0  0  0  0  0  0  0  0  0  0
  -26.0390  -38.2320   23.9120 H   0  0  0  0  0  0  0  0  0  0  0  0
  -26.3790  -31.6470   25.1010 C   0  0  1  0  0  0  0  0  0  0  0  0
  -25.2750  -31.4110   26.1580 C   0  0  0  0  0  1  0  0  0  0  0  0
  -26.9660  -30.2700   24.7090 C   0  0  0  0  0  1  0  0  0  0  0  0
  -27.5270  -32.4390   25.7710 C   0  0  0  0  0  1  0  0  0  0  0  0
  1  3  1  0
  2  5  1  0
  3  9  1  0
  3  5  2  0
  4  1  2  0
  4  6  1  0
  5 49  1  0
  6  2  2  0
  7  6  1  0
  9  8  1  0
 10  4  1  0
 10 19  1  0
 11 19  1  0
 12 17  1  0
 13 14  1  0
 13 12  1  0
 15 14  1  0
 15 24  1  0
 15 16  1  0
 17 11  1  0
 17 16  1  0
 18 11  2  0
 19 20  1  0
 21 22  2  0
 22 41  1  0
 23 22  1  0
 23 26  1  0
 24 25  1  0
 24 21  1  0
 25 23  2  0
 26 27  1  0
 27 28  2  0
 29 32  1  0
 29 28  1  0
 30 29  2  0
 31 30  1  0
 31 26  2  0
 32 33  1  0
 33 34  1  0
 34 35  2  0
 36 35  1  0
 36 40  1  0
 37 36  2  0
 38 33  2  0
 38 37  1  0
 39 38  1  0
 41 42  1  0
 42 45  1  0
 42 44  1  0
 43 41  2  0
 46 21  1  0
 46 47  1  0
 48 46  1  0
 50 53  1  0
 50 49  1  0
 51 50  1  0
 52 50  1  0
 54 55  1  0
 54 53  1  0
 56 67  2  0
 57 55  1  0
 57 62  1  0
 58 66  1  0
 58 68  1  0
 59 65  1  0
 59 61  1  0
 60 66  1  0
 61 60  1  0
 62 61  2  0
 63 64  1  0
 63 57  2  0
 64 59  2  0
 65 58  1  0
 66 56  1  0
 68 70  2  0
 69 68  1  0
 71 69  1  0
 72 81  2  0
 72 77  1  0
 73 69  1  0
 73 77  1  0
 74 73  1  0
 75 76  1  0
 75 74  1  0
 76 72  1  0
 77 78  2  0
 78 79  1  0
 80 79  2  0
 81 80  1  0
 82 56  1  0
 82 83  1  0
 82 92  1  0
 83 86  1  0
 84 88  1  0
 84 83  1  0
 85 84  2  0
 88 87  1  0
 90 88  1  0
 90 91  1  0
 90 89  1  0
 92 95  1  1
 92 93  1  0
 94 92  1  0
M  ISO  4  11 100  19 100  54 101  55 101
M  END
>  <TORSDO>  (31) 
F 22

>  <SCORE>  (31) 
-13.415

>  <name>  (31) 
30

>  <ligand_id>  (31) 
30

>  <original_smiles>  (31) 
[H]c1c([H])c([H])c2c(c1[H])C([H])([H])C([H])([H])C([H])([H])C2([H])N([H])C(=O)C1([H])N(C(=O)C([H])(N([H])C(=O)C([H])(N([H])C([H])([H])[H])C([H])([H])[H])C(C([H])([H])[H])(C([H])([H])[H])C([H])([H])[H])C([H])([H])c2c([H])c(OC([H])([H])C([H])([H])[N+]([H])([H])C([H])([H])c3c([H])c(Cl)c(C([H])([H])N([H])C(=O)N4C([H])([H])C([H])([H])C([H])([H])C([H])(n5nc(-c6c([H])c([H])c(Oc7c([H])c([H])c(F)c([H])c7F)c([H])c6[H])c(C(=O)N([H])[H])c5N([H])[H])C4([H])[H])c([H])c3C([H])([H])C([H])([H])[H])c([H])c([H])c2C1([H])[H]

>  <smiles>  (31) 
[H]c1c([H])c([H])c2c(c1[H])C([H])([H])C([H])([H])C([H])([H])C2([H])N([H])C(=O)C1([H])N(C(=O)C([H])(N([H])C(=O)C([H])(N([H])C([H])([H])[H])C([H])([H])[H])C(C([H])([H])[H])(C([H])([H])[H])C([H])([H])[H])C([H])([H])c2c([H])c(OC([H])([H])C([H])([H])[N+]([H])([H])C([H])([H])c3c([H])c(Cl)c(C([H])([H])N([H])C(=O)N4C([H])([H])C([H])([H])C([H])([H])C([H])(n5nc(-c6c([H])c([H])c(Oc7c([H])c([H])c(F)c([H])c7F)c([H])c6[H])c(C(=O)N([H])[H])c5N([H])[H])C4([H])[H])c([H])c3C([H])([H])C([H])([H])[H])c([H])c([H])c2C1([H])[H]

$$$$
31:0:0
     RDKit          3D

100109  0  0  1  0  0  0  0  0999 V2000
  -30.0280  -19.4310   20.8710 C   0  0  0  0  0  3  0  0  0  0  0  0
  -28.5730  -17.7950   19.8280 C   0  0  0  0  0  3  0  0  0  0  0  0
  -29.7770  -18.0840   20.5000 C   0  0  0  0  0  0  0  0  0  0  0  0
  -29.1070  -20.4840   20.5950 C   0  0  0  0  0  0  0  0  0  0  0  0
  -27.6310  -18.8100   19.5310 C   0  0  0  0  0  0  0  0  0  0  0  0
  -27.9080  -20.1630   19.8970 C   0  0  0  0  0  0  0  0  0  0  0  0
  -26.9030  -21.2670   19.5900 C   0  0  0  0  0  1  0  0  0  0  0  0
  -26.3180  -18.4100   18.8440 C   0  0  1  0  0  0  0  0  0  0  0  0
  -26.1820  -17.0860   18.7550 F   0  0  0  0  0  0  0  0  0  0  0  0
  -25.2650  -18.8580   19.5300 F   0  0  0  0  0  0  0  0  0  0  0  0
  -26.2790  -18.9090   17.6090 F   0  0  0  0  0  0  0  0  0  0  0  0
  -30.7810  -16.9720   20.8800 C   0  0  0  0  0  2  0  0  0  0  0  0
  -30.9840  -14.4870   20.5650 C   0  0  0  0  0  0  0  0  0  0  0  0
  -30.7050  -12.2480   19.5580 C   0  0  0  0  0  2  0  0  0  0  0  0
  -29.8480  -12.3780   18.2810 C   0  0  0  0  0  2  0  0  0  0  0  0
  -28.3480  -12.3010   18.6240 C   0  0  0  0  0  2  0  0  0  0  0  0
  -27.9510  -13.2340   19.7990 C   0  0  0  0  0  3  0  0  0  0  0  0
  -28.9290  -13.0800   20.9860 C   0  0  0  0  0  2  0  0  0  0  0  0
  -30.2910  -13.3170   20.4810 N   0  0  0  0  0  0  0  0  0  0  0  0
  -32.1470  -14.5940   20.1660 O   0  0  0  0  0  0  0  0  0  0  0  0
  -30.2850  -15.5780   20.9510 N   0  0  0  0  0  0  0  0  0  0  0  0
  -29.3330  -15.4310   21.2460 H   0  0  0  0  0  0  0  0  0  0  0  0
  -25.5600  -13.9560   20.4070 C   0  0  0  0  0  0  0  0  0  0  0  0
  -24.4340  -13.2390   20.7110 C   0  0  0  0  0  0  0  0  0  0  0  0
  -24.8230  -11.8650   20.6740 C   0  0  0  0  0  0  0  0  0  0  0  0
  -26.5640  -13.0230   20.2080 N   0  0  0  0  0  0  0  0  0  0  0  0
  -26.1220  -11.7580   20.4270 N   0  0  0  0  0  0  0  0  0  0  0  0
  -24.0190  -10.6430   20.8040 C   0  0  0  0  0  0  0  0  0  0  0  0
  -24.3700   -9.6210   21.7130 C   0  0  0  0  0  3  0  0  0  0  0  0
  -23.5700   -8.4640   21.8350 C   0  0  0  0  0  3  0  0  0  0  0  0
  -22.4060   -8.3210   21.0430 C   0  0  0  0  0  0  0  0  0  0  0  0
  -22.0740   -9.3310   20.1220 C   0  0  0  0  0  3  0  0  0  0  0  0
  -22.8740  -10.4790   19.9990 C   0  0  0  0  0  3  0  0  0  0  0  0
  -21.5840   -7.2200   21.0710 O   0  0  0  0  0  0  0  0  0  0  0  0
  -21.4540   -6.4470   22.1970 C   0  0  0  0  0  0  0  0  0  0  0  0
  -21.0150   -6.9890   23.4240 C   0  0  0  0  0  3  0  0  0  0  0  0
  -20.8310   -6.1480   24.5400 C   0  0  0  0  0  3  0  0  0  0  0  0
  -21.0740   -4.7660   24.4280 C   0  0  0  0  0  0  0  0  0  0  0  0
  -21.5060   -4.2220   23.2040 C   0  0  0  0  0  3  0  0  0  0  0  0
  -21.6920   -5.0610   22.0910 C   0  0  0  0  0  0  0  0  0  0  0  0
  -22.0890   -4.5300   20.9090 F   0  0  0  0  0  0  0  0  0  0  0  0
  -20.8900   -3.9560   25.4950 F   0  0  0  0  0  0  0  0  0  0  0  0
  -23.0550  -13.7920   20.9300 C   0  0  0  0  0  0  0  0  0  0  0  0
  -22.2570  -13.1330   21.7630 N   0  0  0  0  0  0  0  0  0  0  0  0
  -22.6940  -14.8410   20.4000 O   0  0  0  0  0  0  0  0  0  0  0  0
  -22.5610  -12.2830   22.2120 H   0  0  0  0  0  0  0  0  0  0  0  0
  -21.3290  -13.4850   21.9540 H   0  0  0  0  0  0  0  0  0  0  0  0
  -25.8100  -15.3150   20.2620 N   0  0  0  0  0  0  0  0  0  0  0  0
  -25.0910  -16.0160   20.4100 H   0  0  0  0  0  0  0  0  0  0  0  0
  -26.7020  -15.7110   20.0030 H   0  0  0  0  0  0  0  0  0  0  0  0
  -29.3420  -21.8970   21.2090 C   0  0  0  0  0  2  0  0  0  0  0  0
  -28.7060  -24.4040   20.6910 C   0  0  0  0  0  0  0  0  0  0  0  0
  -27.6320  -24.4750   21.5020 C   0  0  0  0  0  2  0  0  0  0  0  0
  -30.2370  -24.0690   18.1740 C   0  0  0  0  0  2  0  0  0  0  0  0
  -29.5360  -25.4070   18.4820 C   0  0  0  0  0  2  0  0  0  0  0  0
  -29.5460  -22.8750   18.8730 C   0  0  0  0  0  2  0  0  0  0  0  0
  -29.3790  -25.6100   20.0120 C   0  0  0  0  0  3  0  0  0  0  0  0
  -29.4590  -23.1180   20.3350 N   0  0  2  0  0  4  0  0  0  0  0  0
  -30.4220  -23.3400   20.5410 H   0  0  0  0  0  0  0  0  0  0  0  0
  -29.0280  -26.9220   20.5430 O   0  0  0  0  0  0  0  0  0  0  0  0
  -24.7470  -31.8730   23.4120 C   0  0  0  0  0  0  0  0  0  0  0  0
  -27.7910  -27.5520   20.4700 C   0  0  0  0  0  0  0  0  0  0  0  0
  -23.7270  -30.4610   21.6580 C   0  0  0  0  0  3  0  0  0  0  0  0
  -25.3410  -28.9970   20.3350 C   0  0  0  0  0  0  0  0  0  0  0  0
  -26.2500  -30.9040   21.6660 C   0  0  0  0  0  2  0  0  0  0  0  0
  -26.4350  -29.5480   21.0080 C   0  0  0  0  0  0  0  0  0  0  0  0
  -27.6600  -28.8370   21.0630 C   0  0  0  0  0  3  0  0  0  0  0  0
  -26.6530  -27.0090   19.8330 C   0  0  0  0  0  3  0  0  0  0  0  0
  -25.4460  -27.7260   19.7480 C   0  0  0  0  0  3  0  0  0  0  0  0
  -24.0680  -29.8150   20.2890 C   0  0  0  0  0  2  0  0  0  0  0  0
  -24.9220  -31.0940   22.3050 N   0  0  0  0  0  0  0  0  0  0  0  0
  -23.6160  -32.0960   23.8660 O   0  0  0  0  0  0  0  0  0  0  0  0
  -23.0390  -29.4000   22.5460 C   0  0  0  0  0  0  0  0  0  0  0  0
  -21.7200  -29.2270   22.3610 N   0  0  0  0  0  0  0  0  0  0  0  0
  -23.6910  -28.7370   23.3570 O   0  0  0  0  0  0  0  0  0  0  0  0
  -21.2570  -29.8160   21.6840 H   0  0  0  0  0  0  0  0  0  0  0  0
  -18.3110  -28.0950   22.7650 C   0  0  0  0  0  0  0  0  0  0  0  0
  -20.8740  -28.2570   23.0580 C   0  0  0  0  0  3  0  0  0  0  0  0
  -20.9370  -26.8720   22.3740 C   0  0  0  0  0  2  0  0  0  0  0  0
  -19.8290  -26.6600   21.3360 C   0  0  0  0  0  2  0  0  0  0  0  0
  -18.4490  -26.7970   21.9890 C   0  0  0  0  0  2  0  0  0  0  0  0
  -19.4500  -28.7890   23.2530 C   0  0  0  0  0  0  0  0  0  0  0  0
  -19.2670  -30.0100   23.9390 C   0  0  0  0  0  3  0  0  0  0  0  0
  -17.9770  -30.5360   24.1390 C   0  0  0  0  0  3  0  0  0  0  0  0
  -16.8520  -29.8380   23.6690 C   0  0  0  0  0  3  0  0  0  0  0  0
  -17.0200  -28.6190   22.9880 C   0  0  0  0  0  3  0  0  0  0  0  0
  -25.9550  -32.5370   24.1420 C   0  0  0  0  0  3  0  0  0  0  0  0
  -26.3310  -31.8220   25.4990 C   0  0  1  0  0  0  0  0  0  0  0  0
  -25.1310  -31.6280   26.4540 C   0  0  0  0  0  1  0  0  0  0  0  0
  -26.9500  -30.4300   25.2300 C   0  0  0  0  0  1  0  0  0  0  0  0
  -27.4070  -32.6470   26.2430 C   0  0  0  0  0  1  0  0  0  0  0  0
  -25.6080  -33.9450   24.3770 N   0  0  0  0  0  0  0  0  0  0  0  0
  -26.0080  -34.9660   23.6060 C   0  0  0  0  0  0  0  0  0  0  0  0
  -26.7770  -34.8220   22.6520 O   0  0  0  0  0  0  0  0  0  0  0  0
  -24.9360  -34.1290   25.1070 H   0  0  0  0  0  0  0  0  0  0  0  0
  -24.2960  -36.7130   23.0210 C   0  0  0  0  0  1  0  0  0  0  0  0
  -25.4710  -36.3680   23.9500 C   0  0  0  0  0  3  0  0  0  0  0  0
  -27.5220  -37.3230   24.9040 C   0  0  0  0  0  1  0  0  0  0  0  0
  -26.4980  -37.4290   23.8670 N   0  0  0  0  0  0  0  0  0  0  0  0
  -26.0730  -38.3500   23.9330 H   0  0  0  0  0  0  0  0  0  0  0  0
  2  3  1  0
  3  1  2  0
  3 12  1  0
  4  1  1  0
  4 51  1  0
  5  2  2  0
  5  6  1  0
  6  4  2  0
  7  6  1  0
  8 10  1  1
  8  5  1  0
  9  8  1  0
 11  8  1  0
 12 21  1  0
 13 21  1  0
 14 19  1  0
 15 16  1  0
 15 14  1  0
 17 16  1  0
 17 26  1  0
 17 18  1  0
 19 13  1  0
 19 18  1  0
 20 13  2  0
 21 22  1  0
 23 24  2  0
 24 43  1  0
 25 24  1  0
 25 28  1  0
 26 23  1  0
 26 27  1  0
 27 25  2  0
 28 29  1  0
 29 30  2  0
 31 34  1  0
 31 30  1  0
 32 31  2  0
 33 32  1  0
 33 28  2  0
 34 35  1  0
 35 36  1  0
 36 37  2  0
 38 37  1  0
 38 42  1  0
 39 38  2  0
 40 35  2  0
 40 39  1  0
 41 40  1  0
 43 44  1  0
 44 47  1  0
 44 46  1  0
 45 43  2  0
 48 23  1  0
 48 49  1  0
 50 48  1  0
 52 53  2  0
 54 55  1  0
 54 56  1  0
 55 57  1  0
 56 58  1  0
 57 60  1  0
 57 52  1  0
 58 59  1  1
 58 52  1  0
 58 51  1  0
 61 72  2  0
 62 60  1  0
 62 67  1  0
 63 71  1  0
 63 73  1  0
 64 66  1  0
 65 71  1  0
 66 67  2  0
 66 65  1  0
 68 62  2  0
 69 68  1  0
 69 64  2  0
 70 64  1  0
 70 63  1  0
 71 61  1  0
 73 75  2  0
 74 73  1  0
 76 74  1  0
 77 86  2  0
 77 82  1  0
 78 74  1  0
 78 82  1  0
 79 78  1  0
 80 81  1  0
 80 79  1  0
 81 77  1  0
 82 83  2  0
 83 84  1  0
 85 84  2  0
 86 85  1  0
 87 61  1  0
 87 92  1  0
 87 88  1  0
 88 91  1  1
 88 89  1  0
 90 88  1  0
 92 95  1  0
 93 97  1  0
 93 92  1  0
 94 93  2  0
 97 96  1  0
 99100  1  0
 99 97  1  0
 99 98  1  0
M  ISO  4  13 100  21 100  57 101  60 101
M  END
>  <TORSDO>  (32) 
F 20

>  <SCORE>  (32) 
-11.927

>  <name>  (32) 
31

>  <ligand_id>  (32) 
31

>  <original_smiles>  (32) 
[H]C([H])=C1C([H])(Oc2c([H])c([H])c3c(c2[H])C([H])([H])N(C(=O)C([H])(N([H])C(=O)C([H])(N([H])C([H])([H])[H])C([H])([H])[H])C(C([H])([H])[H])(C([H])([H])[H])C([H])([H])[H])C([H])(C(=O)N([H])C2([H])c4c([H])c([H])c([H])c([H])c4C([H])([H])C([H])([H])C2([H])[H])C3([H])[H])C([H])([H])C([H])([H])C([H])([H])[N+]1([H])C([H])([H])c1c([H])c(C([H])([H])N([H])C(=O)N2C([H])([H])C([H])([H])C([H])([H])C([H])(n3nc(-c4c([H])c([H])c(Oc5c([H])c([H])c(F)c([H])c5F)c([H])c4[H])c(C(=O)N([H])[H])c3N([H])[H])C2([H])[H])c([H])c(C(F)(F)F)c1C([H])([H])[H]

>  <smiles>  (32) 
[H]C([H])=C1C([H])(Oc2c([H])c([H])c3c(c2[H])C([H])([H])N(C(=O)C([H])(N([H])C(=O)C([H])(N([H])C([H])([H])[H])C([H])([H])[H])C(C([H])([H])[H])(C([H])([H])[H])C([H])([H])[H])C([H])(C(=O)N([H])C2([H])c4c([H])c([H])c([H])c([H])c4C([H])([H])C([H])([H])C2([H])[H])C3([H])[H])C([H])([H])C([H])([H])C([H])([H])[N+]1([H])C([H])([H])c1c([H])c(C([H])([H])N([H])C(=O)N2C([H])([H])C([H])([H])C([H])([H])C([H])(n3nc(-c4c([H])c([H])c(Oc5c([H])c([H])c(F)c([H])c5F)c([H])c4[H])c(C(=O)N([H])[H])c3N([H])[H])C2([H])[H])c([H])c(C(F)(F)F)c1C([H])([H])[H]

$$$$
32:0:0
     RDKit          3D

108118  0  0  1  0  0  0  0  0999 V2000
  -31.7920  -18.2210   20.0800 C   0  0  0  0  0  3  0  0  0  0  0  0
  -31.7440  -19.3650   19.2550 C   0  0  0  0  0  0  0  0  0  0  0  0
  -30.6350  -17.6740   20.6510 C   0  0  0  0  0  0  0  0  0  0  0  0
  -30.4990  -20.0510   19.0700 C   0  0  0  0  0  0  0  0  0  0  0  0
  -29.3050  -19.4310   19.5630 C   0  0  0  0  0  0  0  0  0  0  0  0
  -29.3830  -18.2450   20.3430 C   0  0  0  0  0  0  0  0  0  0  0  0
  -27.9130  -19.9860   19.2470 C   0  0  0  0  0  1  0  0  0  0  0  0
  -27.9470  -17.4790   20.9400 Cl  0  0  0  0  0  0  0  0  0  0  0  0
  -30.7770  -16.4860   21.6010 C   0  0  0  0  0  2  0  0  0  0  0  0
  -30.6800  -14.4270   20.1900 C   0  0  0  0  0  0  0  0  0  0  0  0
  -30.2850  -12.3620   18.8960 C   0  0  0  0  0  2  0  0  0  0  0  0
  -29.2680  -12.6160   17.7670 C   0  0  0  0  0  2  0  0  0  0  0  0
  -27.8240  -12.4550   18.2810 C   0  0  0  0  0  2  0  0  0  0  0  0
  -27.5660  -13.2420   19.5930 C   0  0  0  0  0  3  0  0  0  0  0  0
  -28.6790  -12.9530   20.6240 C   0  0  0  0  0  2  0  0  0  0  0  0
  -29.9750  -13.2810   20.0000 N   0  0  0  0  0  0  0  0  0  0  0  0
  -31.6990  -14.7140   19.5550 O   0  0  0  0  0  0  0  0  0  0  0  0
  -30.1770  -15.2460   21.1200 N   0  0  0  0  0  0  0  0  0  0  0  0
  -29.3320  -14.9420   21.5780 H   0  0  0  0  0  0  0  0  0  0  0  0
  -25.2090  -13.8250   20.4550 C   0  0  0  0  0  0  0  0  0  0  0  0
  -24.1630  -13.0400   20.8610 C   0  0  0  0  0  0  0  0  0  0  0  0
  -24.6220  -11.6910   20.7630 C   0  0  0  0  0  0  0  0  0  0  0  0
  -26.2400  -12.9530   20.1380 N   0  0  0  0  0  0  0  0  0  0  0  0
  -25.8910  -11.6630   20.3780 N   0  0  0  0  0  0  0  0  0  0  0  0
  -23.9090  -10.4220   20.9580 C   0  0  0  0  0  0  0  0  0  0  0  0
  -24.3510   -9.4630   21.8970 C   0  0  0  0  0  3  0  0  0  0  0  0
  -23.6380   -8.2570   22.0780 C   0  0  0  0  0  3  0  0  0  0  0  0
  -22.4710   -8.0030   21.3210 C   0  0  0  0  0  0  0  0  0  0  0  0
  -22.0480   -8.9510   20.3720 C   0  0  0  0  0  3  0  0  0  0  0  0
  -22.7610  -10.1470   20.1900 C   0  0  0  0  0  3  0  0  0  0  0  0
  -21.7300   -6.8490   21.4120 O   0  0  0  0  0  0  0  0  0  0  0  0
  -21.6420   -6.1400   22.5830 C   0  0  0  0  0  0  0  0  0  0  0  0
  -21.1150   -6.7110   23.7620 C   0  0  0  0  0  3  0  0  0  0  0  0
  -20.9790   -5.9250   24.9230 C   0  0  0  0  0  3  0  0  0  0  0  0
  -21.3600   -4.5690   24.9070 C   0  0  0  0  0  0  0  0  0  0  0  0
  -21.8800   -3.9980   23.7320 C   0  0  0  0  0  3  0  0  0  0  0  0
  -22.0180   -4.7810   22.5730 C   0  0  0  0  0  0  0  0  0  0  0  0
  -22.5000   -4.2200   21.4370 F   0  0  0  0  0  0  0  0  0  0  0  0
  -21.2220   -3.8130   26.0200 F   0  0  0  0  0  0  0  0  0  0  0  0
  -22.7840  -13.5040   21.2310 C   0  0  0  0  0  0  0  0  0  0  0  0
  -22.1180  -12.7930   22.1340 N   0  0  0  0  0  0  0  0  0  0  0  0
  -22.3070  -14.5340   20.7540 O   0  0  0  0  0  0  0  0  0  0  0  0
  -22.5150  -11.9600   22.5400 H   0  0  0  0  0  0  0  0  0  0  0  0
  -21.1950  -13.0870   22.4220 H   0  0  0  0  0  0  0  0  0  0  0  0
  -25.3630  -15.2010   20.3140 N   0  0  0  0  0  0  0  0  0  0  0  0
  -24.6140  -15.8540   20.5140 H   0  0  0  0  0  0  0  0  0  0  0  0
  -26.2130  -15.6570   20.0060 H   0  0  0  0  0  0  0  0  0  0  0  0
  -33.0770  -19.7660   18.6040 C   0  0  0  0  0  2  0  0  0  0  0  0
  -34.1900  -15.8330   16.4390 C   0  0  0  0  0  2  0  0  0  0  0  0
  -35.3740  -16.2000   17.3520 C   0  0  0  0  0  2  0  0  0  0  0  0
  -32.8900  -16.6130   16.7080 C   0  0  0  0  0  2  0  0  0  0  0  0
  -35.9190  -17.6150   17.0750 C   0  0  0  0  0  2  0  0  0  0  0  0
  -33.0440  -18.1460   16.7020 C   0  0  0  0  0  2  0  0  0  0  0  0
  -35.1990  -18.7620   17.8210 C   0  0  0  0  0  2  0  0  0  0  0  0
  -33.7250  -18.6020   17.9410 N   0  0  1  0  0  4  0  0  0  0  0  0
  -33.5910  -17.8440   18.5940 H   0  0  0  0  0  0  0  0  0  0  0  0
  -30.4460  -21.4520   18.4120 C   0  0  0  0  0  2  0  0  0  0  0  0
  -30.1590  -23.3070   20.1460 C   0  0  0  0  0  0  0  0  0  0  0  0
  -29.6660  -22.7880   21.2860 C   0  0  0  0  0  2  0  0  0  0  0  0
  -32.4070  -25.5580   19.6190 C   0  0  0  0  0  2  0  0  0  0  0  0
  -32.9940  -24.1390   19.5730 C   0  0  0  0  0  2  0  0  0  0  0  0
  -31.0290  -25.6580   20.2890 C   0  0  0  0  0  2  0  0  0  0  0  0
  -32.2220  -23.1830   18.6360 C   0  0  0  0  0  2  0  0  0  0  0  0
  -29.9490  -24.7500   19.6500 C   0  0  0  0  0  3  0  0  0  0  0  0
  -31.0880  -22.4750   19.2940 N   0  0  2  0  0  4  0  0  0  0  0  0
  -31.5720  -21.8840   19.9520 H   0  0  0  0  0  0  0  0  0  0  0  0
  -28.5190  -25.2910   19.9300 C   0  0  0  0  0  2  0  0  0  0  0  0
  -28.4740  -26.6840   19.6130 O   0  0  0  0  0  0  0  0  0  0  0  0
  -24.5850  -31.6050   22.9840 C   0  0  0  0  0  0  0  0  0  0  0  0
  -27.2660  -27.3320   19.7150 C   0  0  0  0  0  0  0  0  0  0  0  0
  -23.3830  -30.2550   21.2940 C   0  0  0  0  0  3  0  0  0  0  0  0
  -24.8440  -28.7840   19.8120 C   0  0  0  0  0  0  0  0  0  0  0  0
  -25.9020  -30.6540   21.0940 C   0  0  0  0  0  2  0  0  0  0  0  0
  -25.9980  -29.3080   20.4070 C   0  0  0  0  0  0  0  0  0  0  0  0
  -27.2120  -28.5910   20.3520 C   0  0  0  0  0  3  0  0  0  0  0  0
  -26.0940  -26.8090   19.1280 C   0  0  0  0  0  3  0  0  0  0  0  0
  -24.8850  -27.5300   19.1740 C   0  0  0  0  0  3  0  0  0  0  0  0
  -23.5920  -29.6260   19.8920 C   0  0  0  0  0  2  0  0  0  0  0  0
  -24.6420  -30.8510   21.8500 N   0  0  0  0  0  0  0  0  0  0  0  0
  -23.5030  -31.8430   23.5400 O   0  0  0  0  0  0  0  0  0  0  0  0
  -22.7490  -29.1910   22.2190 C   0  0  0  0  0  0  0  0  0  0  0  0
  -21.4190  -29.0300   22.1200 N   0  0  0  0  0  0  0  0  0  0  0  0
  -23.4500  -28.5150   22.9780 O   0  0  0  0  0  0  0  0  0  0  0  0
  -20.9170  -29.6300   21.4810 H   0  0  0  0  0  0  0  0  0  0  0  0
  -18.0440  -27.8640   22.6650 C   0  0  0  0  0  0  0  0  0  0  0  0
  -20.6140  -28.0600   22.8610 C   0  0  0  0  0  3  0  0  0  0  0  0
  -20.6690  -26.6660   22.1940 C   0  0  0  0  0  2  0  0  0  0  0  0
  -19.5250  -26.4260   21.2030 C   0  0  0  0  0  2  0  0  0  0  0  0
  -18.1700  -26.5550   21.9040 C   0  0  0  0  0  2  0  0  0  0  0  0
  -19.1910  -28.5790   23.1010 C   0  0  0  0  0  0  0  0  0  0  0  0
  -19.0200  -29.8080   23.7730 C   0  0  0  0  0  3  0  0  0  0  0  0
  -17.7320  -30.3230   24.0140 C   0  0  0  0  0  3  0  0  0  0  0  0
  -16.5990  -29.6040   23.5940 C   0  0  0  0  0  3  0  0  0  0  0  0
  -16.7560  -28.3760   22.9270 C   0  0  0  0  0  3  0  0  0  0  0  0
  -25.8670  -32.2240   23.6220 C   0  0  0  0  0  3  0  0  0  0  0  0
  -25.5390  -33.5970   24.0300 N   0  0  0  0  0  0  0  0  0  0  0  0
  -25.8570  -34.6940   23.3300 C   0  0  0  0  0  0  0  0  0  0  0  0
  -26.5280  -34.6570   22.2940 O   0  0  0  0  0  0  0  0  0  0  0  0
  -24.9420  -33.6980   24.8380 H   0  0  0  0  0  0  0  0  0  0  0  0
  -24.1120  -36.4840   23.0630 C   0  0  0  0  0  1  0  0  0  0  0  0
  -25.3500  -36.0470   23.8620 C   0  0  0  0  0  3  0  0  0  0  0  0
  -27.4610  -36.9080   24.7740 C   0  0  0  0  0  1  0  0  0  0  0  0
  -26.3710  -37.1160   23.8240 N   0  0  0  0  0  0  0  0  0  0  0  0
  -25.9520  -38.0220   24.0170 H   0  0  0  0  0  0  0  0  0  0  0  0
  -26.4170  -31.3940   24.8460 C   0  0  1  0  0  0  0  0  0  0  0  0
  -25.3480  -31.0940   25.9240 C   0  0  0  0  0  1  0  0  0  0  0  0
  -26.9990  -30.0420   24.3700 C   0  0  0  0  0  1  0  0  0  0  0  0
  -27.5780  -32.1600   25.5220 C   0  0  0  0  0  1  0  0  0  0  0  0
  1  3  1  0
  2  1  2  0
  3  9  1  0
  4  2  1  0
  4  5  2  0
  5  6  1  0
  6  3  2  0
  6  8  1  0
  7  5  1  0
 10 18  1  0
 11 16  1  0
 12 13  1  0
 12 11  1  0
 14 13  1  0
 14 23  1  0
 14 15  1  0
 16 10  1  0
 16 15  1  0
 17 10  2  0
 18 19  1  0
 18  9  1  0
 20 21  2  0
 21 40  1  0
 22 21  1  0
 22 25  1  0
 23 24  1  0
 23 20  1  0
 24 22  2  0
 25 26  1  0
 26 27  2  0
 28 31  1  0
 28 27  1  0
 29 28  2  0
 30 29  1  0
 30 25  2  0
 31 32  1  0
 32 33  1  0
 33 34  2  0
 35 34  1  0
 35 39  1  0
 36 35  2  0
 37 32  2  0
 37 36  1  0
 38 37  1  0
 40 41  1  0
 41 44  1  0
 41 43  1  0
 42 40  2  0
 45 20  1  0
 45 46  1  0
 47 45  1  0
 48  2  1  0
 49 51  1  0
 49 50  1  0
 52 50  1  0
 52 54  1  0
 53 51  1  0
 53 55  1  0
 54 55  1  0
 55 56  1  1
 55 48  1  0
 57  4  1  0
 57 65  1  0
 58 59  2  0
 60 62  1  0
 61 60  1  0
 63 65  1  0
 63 61  1  0
 64 67  1  0
 64 58  1  0
 64 62  1  0
 65 66  1  1
 65 58  1  0
 68 70  1  0
 68 67  1  0
 69 80  2  0
 70 75  1  0
 71 79  1  0
 71 81  1  0
 72 78  1  0
 72 74  1  0
 73 79  1  0
 74 73  1  0
 75 74  2  0
 76 77  1  0
 76 70  2  0
 77 72  2  0
 78 71  1  0
 79 69  1  0
 81 83  2  0
 82 81  1  0
 84 82  1  0
 85 94  2  0
 85 90  1  0
 86 82  1  0
 86 90  1  0
 87 86  1  0
 88 89  1  0
 88 87  1  0
 89 85  1  0
 90 91  2  0
 91 92  1  0
 93 92  2  0
 94 93  1  0
 95 69  1  0
 95 96  1  0
 95105  1  0
 96 99  1  0
 97101  1  0
 97 96  1  0
 98 97  2  0
101100  1  0
103101  1  0
103104  1  0
103102  1  0
105108  1  1
105106  1  0
107105  1  0
M  ISO  4  10 100  18 100  67 101  68 101
M  END
>  <TORSDO>  (33) 
F 22

>  <SCORE>  (33) 
-12.908

>  <name>  (33) 
32

>  <ligand_id>  (33) 
32

>  <original_smiles>  (33) 
[H]C([H])=C1C([H])(C([H])([H])Oc2c([H])c([H])c3c(c2[H])C([H])([H])N(C(=O)C([H])(N([H])C(=O)C([H])(N([H])C([H])([H])[H])C([H])([H])[H])C(C([H])([H])[H])(C([H])([H])[H])C([H])([H])[H])C([H])(C(=O)N([H])C2([H])c4c([H])c([H])c([H])c([H])c4C([H])([H])C([H])([H])C2([H])[H])C3([H])[H])C([H])([H])C([H])([H])C([H])([H])C([H])([H])[N+]1([H])C([H])([H])c1c(C([H])([H])[H])c(Cl)c(C([H])([H])N([H])C(=O)N2C([H])([H])C([H])([H])C([H])([H])C([H])(n3nc(-c4c([H])c([H])c(Oc5c([H])c([H])c(F)c([H])c5F)c([H])c4[H])c(C(=O)N([H])[H])c3N([H])[H])C2([H])[H])c([H])c1C([H])([H])[N+]1([H])C([H])([H])C([H])([H])C([H])([H])C([H])([H])C([H])([H])C1([H])[H]

>  <smiles>  (33) 
[H]C([H])=C1C([H])(C([H])([H])Oc2c([H])c([H])c3c(c2[H])C([H])([H])N(C(=O)C([H])(N([H])C(=O)C([H])(N([H])C([H])([H])[H])C([H])([H])[H])C(C([H])([H])[H])(C([H])([H])[H])C([H])([H])[H])C([H])(C(=O)N([H])C2([H])c4c([H])c([H])c([H])c([H])c4C([H])([H])C([H])([H])C2([H])[H])C3([H])[H])C([H])([H])C([H])([H])C([H])([H])C([H])([H])[N+]1([H])C([H])([H])c1c(C([H])([H])[H])c(Cl)c(C([H])([H])N([H])C(=O)N2C([H])([H])C([H])([H])C([H])([H])C([H])(n3nc(-c4c([H])c([H])c(Oc5c([H])c([H])c(F)c([H])c5F)c([H])c4[H])c(C(=O)N([H])[H])c3N([H])[H])C2([H])[H])c([H])c1C([H])([H])[N+]1([H])C([H])([H])C([H])([H])C([H])([H])C([H])([H])C([H])([H])C1([H])[H]

$$$$
33:0:0
     RDKit          3D

 93101  0  0  1  0  0  0  0  0999 V2000
  -29.6930  -21.1960   19.9050 C   0  0  0  0  0  2  0  0  0  0  0  0
  -29.7300  -18.4830   20.0950 C   0  0  0  0  0  3  0  0  0  0  0  0
  -31.0100  -18.6560   22.5530 C   0  0  0  0  0  3  0  0  0  0  0  0
  -29.9630  -19.8110   20.6540 C   0  0  0  0  0  0  0  0  0  0  0  0
  -30.7840  -17.3770   21.9980 C   0  0  0  0  0  0  0  0  0  0  0  0
  -30.1510  -17.2410   20.7340 C   0  0  0  0  0  0  0  0  0  0  0  0
  -30.6230  -19.8440   21.9040 C   0  0  0  0  0  0  0  0  0  0  0  0
  -31.2110  -16.1710   22.8200 C   0  0  0  0  0  1  0  0  0  0  0  0
  -30.9960  -21.3460   22.6760 Cl  0  0  0  0  0  0  0  0  0  0  0  0
  -30.6020  -14.7520   20.0260 C   0  0  0  0  0  0  0  0  0  0  0  0
  -30.3080  -12.5210   18.9310 C   0  0  0  0  0  2  0  0  0  0  0  0
  -29.3010  -12.6410   17.7670 C   0  0  0  0  0  2  0  0  0  0  0  0
  -27.8550  -12.4780   18.2770 C   0  0  0  0  0  2  0  0  0  0  0  0
  -27.5630  -13.3410   19.5340 C   0  0  0  0  0  3  0  0  0  0  0  0
  -28.6800  -13.1990   20.5900 C   0  0  0  0  0  2  0  0  0  0  0  0
  -29.9460  -13.5470   19.9310 N   0  0  0  0  0  0  0  0  0  0  0  0
  -31.7830  -14.8460   19.6800 O   0  0  0  0  0  0  0  0  0  0  0  0
  -29.8250  -15.8820   20.2370 N   0  0  0  0  0  0  0  0  0  0  0  0
  -28.8360  -15.6920   20.1940 H   0  0  0  0  0  0  0  0  0  0  0  0
  -25.2230  -13.9590   20.3880 C   0  0  0  0  0  0  0  0  0  0  0  0
  -24.1680  -13.1960   20.8050 C   0  0  0  0  0  0  0  0  0  0  0  0
  -24.6100  -11.8400   20.7390 C   0  0  0  0  0  0  0  0  0  0  0  0
  -26.2420  -13.0680   20.0900 N   0  0  0  0  0  0  0  0  0  0  0  0
  -25.8830  -11.7890   20.3660 N   0  0  0  0  0  0  0  0  0  0  0  0
  -23.8770  -10.5850   20.9530 C   0  0  0  0  0  0  0  0  0  0  0  0
  -24.3320   -9.6070   21.8650 C   0  0  0  0  0  3  0  0  0  0  0  0
  -23.5990   -8.4180   22.0650 C   0  0  0  0  0  3  0  0  0  0  0  0
  -22.3950   -8.1980   21.3540 C   0  0  0  0  0  0  0  0  0  0  0  0
  -21.9590   -9.1620   20.4290 C   0  0  0  0  0  3  0  0  0  0  0  0
  -22.6930  -10.3430   20.2270 C   0  0  0  0  0  3  0  0  0  0  0  0
  -21.6310   -7.0620   21.4660 O   0  0  0  0  0  0  0  0  0  0  0  0
  -21.6070   -6.3210   22.6220 C   0  0  0  0  0  0  0  0  0  0  0  0
  -21.2340   -6.8860   23.8610 C   0  0  0  0  0  3  0  0  0  0  0  0
  -21.1560   -6.0740   25.0100 C   0  0  0  0  0  3  0  0  0  0  0  0
  -21.4400   -4.6980   24.9210 C   0  0  0  0  0  0  0  0  0  0  0  0
  -21.8050   -4.1330   23.6870 C   0  0  0  0  0  3  0  0  0  0  0  0
  -21.8860   -4.9420   22.5400 C   0  0  0  0  0  0  0  0  0  0  0  0
  -22.2180   -4.3900   21.3490 F   0  0  0  0  0  0  0  0  0  0  0  0
  -21.3560   -3.9150   26.0210 F   0  0  0  0  0  0  0  0  0  0  0  0
  -22.7910  -13.6890   21.1500 C   0  0  0  0  0  0  0  0  0  0  0  0
  -22.0950  -12.9940   22.0420 N   0  0  0  0  0  0  0  0  0  0  0  0
  -22.3420  -14.7250   20.6600 O   0  0  0  0  0  0  0  0  0  0  0  0
  -22.4690  -12.1560   22.4620 H   0  0  0  0  0  0  0  0  0  0  0  0
  -21.1740  -13.3080   22.3150 H   0  0  0  0  0  0  0  0  0  0  0  0
  -25.3930  -15.3310   20.2130 N   0  0  0  0  0  0  0  0  0  0  0  0
  -24.6280  -15.9830   20.3550 H   0  0  0  0  0  0  0  0  0  0  0  0
  -26.2140  -15.7660   19.8140 H   0  0  0  0  0  0  0  0  0  0  0  0
  -28.8680  -22.3230   20.5460 N   0  0  0  0  0  4  0  0  0  0  0  0
  -27.9140  -22.1850   20.2490 H   0  0  0  0  0  0  0  0  0  0  0  0
  -28.8880  -22.1610   21.5420 H   0  0  0  0  0  0  0  0  0  0  0  0
  -29.2580  -23.8030   20.3160 C   0  0  0  0  0  3  0  0  0  0  0  0
  -28.0890  -24.9160   20.3370 C   0  0  0  0  0  3  0  0  0  0  0  0
  -28.3560  -26.3990   20.3130 O   0  0  0  0  0  0  0  0  0  0  0  0
  -24.6250  -31.9090   23.2450 C   0  0  0  0  0  0  0  0  0  0  0  0
  -27.2520  -27.2830   20.2550 C   0  0  0  0  0  0  0  0  0  0  0  0
  -23.4340  -30.4910   21.6170 C   0  0  0  0  0  3  0  0  0  0  0  0
  -24.8940  -28.9300   20.2140 C   0  0  0  0  0  0  0  0  0  0  0  0
  -25.9770  -30.8040   21.4440 C   0  0  0  0  0  2  0  0  0  0  0  0
  -26.0640  -29.4140   20.8120 C   0  0  0  0  0  0  0  0  0  0  0  0
  -27.2450  -28.6030   20.8210 C   0  0  0  0  0  3  0  0  0  0  0  0
  -26.0520  -26.8710   19.6260 C   0  0  0  0  0  3  0  0  0  0  0  0
  -24.8930  -27.6670   19.6100 C   0  0  0  0  0  3  0  0  0  0  0  0
  -23.6600  -29.8100   20.2430 C   0  0  0  0  0  2  0  0  0  0  0  0
  -24.6980  -31.0860   22.1580 N   0  0  0  0  0  0  0  0  0  0  0  0
  -23.5380  -32.1880   23.7710 O   0  0  0  0  0  0  0  0  0  0  0  0
  -22.7670  -29.4790   22.5820 C   0  0  0  0  0  0  0  0  0  0  0  0
  -21.4440  -29.2880   22.4420 N   0  0  0  0  0  0  0  0  0  0  0  0
  -23.4400  -28.8740   23.4210 O   0  0  0  0  0  0  0  0  0  0  0  0
  -20.9590  -29.8300   21.7410 H   0  0  0  0  0  0  0  0  0  0  0  0
  -18.0790  -28.0340   22.8880 C   0  0  0  0  0  0  0  0  0  0  0  0
  -20.6250  -28.3550   23.2170 C   0  0  0  0  0  3  0  0  0  0  0  0
  -20.7700  -26.9100   22.6840 C   0  0  0  0  0  2  0  0  0  0  0  0
  -19.7010  -26.5370   21.6520 C   0  0  0  0  0  2  0  0  0  0  0  0
  -18.2990  -26.6710   22.2550 C   0  0  0  0  0  2  0  0  0  0  0  0
  -19.1710  -28.8310   23.3240 C   0  0  0  0  0  0  0  0  0  0  0  0
  -18.9110  -30.1040   23.8770 C   0  0  0  0  0  3  0  0  0  0  0  0
  -17.5930  -30.5830   23.9960 C   0  0  0  0  0  3  0  0  0  0  0  0
  -16.5150  -29.7840   23.5760 C   0  0  0  0  0  3  0  0  0  0  0  0
  -16.7590  -28.5120   23.0280 C   0  0  0  0  0  3  0  0  0  0  0  0
  -25.9010  -32.5540   23.8650 C   0  0  0  0  0  3  0  0  0  0  0  0
  -26.4200  -31.7930   25.1460 C   0  0  1  0  0  0  0  0  0  0  0  0
  -25.3270  -31.5550   26.2150 C   0  0  0  0  0  1  0  0  0  0  0  0
  -27.0130  -30.4180   24.7640 C   0  0  0  0  0  1  0  0  0  0  0  0
  -27.5660  -32.5960   25.8060 C   0  0  0  0  0  1  0  0  0  0  0  0
  -25.5820  -33.9520   24.1900 N   0  0  0  0  0  0  0  0  0  0  0  0
  -25.9130  -35.0050   23.4310 C   0  0  0  0  0  0  0  0  0  0  0  0
  -26.5870  -34.9010   22.4010 O   0  0  0  0  0  0  0  0  0  0  0  0
  -24.9870  -34.1060   24.9900 H   0  0  0  0  0  0  0  0  0  0  0  0
  -24.1780  -36.7890   23.0640 C   0  0  0  0  0  1  0  0  0  0  0  0
  -25.4180  -36.3920   23.8820 C   0  0  0  0  0  3  0  0  0  0  0  0
  -27.5460  -37.2870   24.7190 C   0  0  0  0  0  1  0  0  0  0  0  0
  -26.4460  -37.4490   23.7720 N   0  0  0  0  0  0  0  0  0  0  0  0
  -26.0340  -38.3670   23.9190 H   0  0  0  0  0  0  0  0  0  0  0  0
  1 48  1  0
  1  4  1  0
  2  4  2  0
  2  6  1  0
  4  7  1  0
  5  3  1  0
  5  8  1  0
  6  5  2  0
  7  3  2  0
  7  9  1  0
 10 18  1  0
 11 16  1  0
 12 13  1  0
 12 11  1  0
 14 13  1  0
 14 23  1  0
 14 15  1  0
 16 10  1  0
 16 15  1  0
 17 10  2  0
 18  6  1  0
 19 18  1  0
 20 21  2  0
 21 40  1  0
 22 21  1  0
 22 25  1  0
 23 24  1  0
 23 20  1  0
 24 22  2  0
 25 26  1  0
 26 27  2  0
 28 31  1  0
 28 27  1  0
 29 28  2  0
 30 29  1  0
 30 25  2  0
 31 32  1  0
 32 33  1  0
 33 34  2  0
 35 34  1  0
 35 39  1  0
 36 35  2  0
 37 32  2  0
 37 36  1  0
 38 37  1  0
 40 41  1  0
 41 44  1  0
 41 43  1  0
 42 40  2  0
 45 46  1  0
 45 20  1  0
 47 45  1  0
 48 50  1  0
 49 48  1  0
 51 52  2  0
 51 48  1  0
 53 52  1  0
 54 65  2  0
 55 53  1  0
 55 60  1  0
 56 64  1  0
 56 66  1  0
 57 63  1  0
 57 59  1  0
 58 64  1  0
 59 60  2  0
 59 58  1  0
 61 55  2  0
 62 61  1  0
 62 57  2  0
 63 56  1  0
 64 54  1  0
 66 68  2  0
 67 66  1  0
 69 67  1  0
 70 79  2  0
 70 75  1  0
 71 67  1  0
 71 75  1  0
 72 71  1  0
 73 74  1  0
 73 72  1  0
 74 70  1  0
 75 76  2  0
 76 77  1  0
 78 77  2  0
 79 78  1  0
 80 54  1  0
 80 85  1  0
 80 81  1  0
 81 84  1  1
 81 82  1  0
 83 81  1  0
 85 88  1  0
 86 90  1  0
 86 85  1  0
 87 86  2  0
 90 89  1  0
 92 90  1  0
 92 93  1  0
 92 91  1  0
M  ISO  4  10 100  18 100  52 101  53 101
M  END
>  <TORSDO>  (34) 
F 20

>  <SCORE>  (34) 
-13.003

>  <name>  (34) 
33

>  <ligand_id>  (34) 
33

>  <original_smiles>  (34) 
[H]c1c([H])c([H])c2c(c1[H])C([H])([H])C([H])([H])C([H])([H])C2([H])N([H])C(=O)C1([H])N(C(=O)C([H])(N([H])C(=O)C([H])(N([H])C([H])([H])[H])C([H])([H])[H])C(C([H])([H])[H])(C([H])([H])[H])C([H])([H])[H])C([H])([H])c2c([H])c(OC([H])([H])C([H])([H])[N+]([H])([H])C([H])([H])c3c([H])c(N([H])C(=O)N4C([H])([H])C([H])([H])C([H])([H])C([H])(n5nc(-c6c([H])c([H])c(Oc7c([H])c([H])c(F)c([H])c7F)c([H])c6[H])c(C(=O)N([H])[H])c5N([H])[H])C4([H])[H])c(C([H])([H])[H])c([H])c3Cl)c([H])c([H])c2C1([H])[H]

>  <smiles>  (34) 
[H]c1c([H])c([H])c2c(c1[H])C([H])([H])C([H])([H])C([H])([H])C2([H])N([H])C(=O)C1([H])N(C(=O)C([H])(N([H])C(=O)C([H])(N([H])C([H])([H])[H])C([H])([H])[H])C(C([H])([H])[H])(C([H])([H])[H])C([H])([H])[H])C([H])([H])c2c([H])c(OC([H])([H])C([H])([H])[N+]([H])([H])C([H])([H])c3c([H])c(N([H])C(=O)N4C([H])([H])C([H])([H])C([H])([H])C([H])(n5nc(-c6c([H])c([H])c(Oc7c([H])c([H])c(F)c([H])c7F)c([H])c6[H])c(C(=O)N([H])[H])c5N([H])[H])C4([H])[H])c(C([H])([H])[H])c([H])c3Cl)c([H])c([H])c2C1([H])[H]

$$$$
34:0:0
     RDKit          3D

 96105  0  0  1  0  0  0  0  0999 V2000
  -28.6350  -23.9000   20.8600 C   0  0  0  0  0  0  0  0  0  0  0  0
  -28.8520  -24.1110   22.1720 C   0  0  0  0  0  2  0  0  0  0  0  0
  -30.2560  -24.1360   18.6310 C   0  0  0  0  0  2  0  0  0  0  0  0
  -28.8650  -24.8100   18.4880 C   0  0  0  0  0  2  0  0  0  0  0  0
  -30.2210  -22.7260   19.2970 C   0  0  0  0  0  2  0  0  0  0  0  0
  -28.1500  -25.0130   19.8490 C   0  0  0  0  0  3  0  0  0  0  0  0
  -29.0260  -22.5520   20.1600 N   0  0  1  0  0  4  0  0  0  0  0  0
  -28.3220  -22.4410   19.4460 H   0  0  0  0  0  0  0  0  0  0  0  0
  -28.2360  -26.4660   20.2540 O   0  0  0  0  0  0  0  0  0  0  0  0
  -24.5750  -31.9610   23.2450 C   0  0  0  0  0  0  0  0  0  0  0  0
  -27.1300  -27.3500   20.1650 C   0  0  0  0  0  0  0  0  0  0  0  0
  -23.3480  -30.5630   21.6250 C   0  0  0  0  0  3  0  0  0  0  0  0
  -24.7780  -29.0120   20.1740 C   0  0  0  0  0  0  0  0  0  0  0  0
  -25.8890  -30.8660   21.4090 C   0  0  0  0  0  2  0  0  0  0  0  0
  -25.9570  -29.4820   20.7660 C   0  0  0  0  0  0  0  0  0  0  0  0
  -27.1290  -28.6600   20.7570 C   0  0  0  0  0  3  0  0  0  0  0  0
  -25.9320  -26.9690   19.5110 C   0  0  0  0  0  3  0  0  0  0  0  0
  -24.7720  -27.7650   19.5350 C   0  0  0  0  0  3  0  0  0  0  0  0
  -23.5420  -29.8880   20.2410 C   0  0  0  0  0  2  0  0  0  0  0  0
  -24.6250  -31.1480   22.1500 N   0  0  0  0  0  0  0  0  0  0  0  0
  -23.4990  -32.2430   23.7920 O   0  0  0  0  0  0  0  0  0  0  0  0
  -22.6960  -29.5470   22.5940 C   0  0  0  0  0  0  0  0  0  0  0  0
  -21.3720  -29.3570   22.4720 N   0  0  0  0  0  0  0  0  0  0  0  0
  -23.3810  -28.9340   23.4180 O   0  0  0  0  0  0  0  0  0  0  0  0
  -20.8780  -29.9040   21.7800 H   0  0  0  0  0  0  0  0  0  0  0  0
  -18.0090  -28.1170   22.9710 C   0  0  0  0  0  0  0  0  0  0  0  0
  -20.5620  -28.4180   23.2520 C   0  0  0  0  0  3  0  0  0  0  0  0
  -20.6870  -26.9800   22.6950 C   0  0  0  0  0  2  0  0  0  0  0  0
  -19.5960  -26.6290   21.6800 C   0  0  0  0  0  2  0  0  0  0  0  0
  -18.2080  -26.7620   22.3120 C   0  0  0  0  0  2  0  0  0  0  0  0
  -19.1140  -28.9030   23.3960 C   0  0  0  0  0  0  0  0  0  0  0  0
  -18.8720  -30.1700   23.9690 C   0  0  0  0  0  3  0  0  0  0  0  0
  -17.5600  -30.6520   24.1240 C   0  0  0  0  0  3  0  0  0  0  0  0
  -16.4700  -29.8660   23.7170 C   0  0  0  0  0  3  0  0  0  0  0  0
  -16.6940  -28.6000   23.1450 C   0  0  0  0  0  3  0  0  0  0  0  0
  -25.8660  -32.5930   23.8500 C   0  0  0  0  0  3  0  0  0  0  0  0
  -25.5620  -33.9930   24.1800 N   0  0  0  0  0  0  0  0  0  0  0  0
  -25.8950  -35.0460   23.4190 C   0  0  0  0  0  0  0  0  0  0  0  0
  -26.5580  -34.9400   22.3850 O   0  0  0  0  0  0  0  0  0  0  0  0
  -24.9750  -34.1510   24.9860 H   0  0  0  0  0  0  0  0  0  0  0  0
  -24.1790  -36.8520   23.0640 C   0  0  0  0  0  1  0  0  0  0  0  0
  -25.4140  -36.4360   23.8790 C   0  0  0  0  0  3  0  0  0  0  0  0
  -27.5490  -37.3070   24.7210 C   0  0  0  0  0  1  0  0  0  0  0  0
  -26.4530  -37.4830   23.7720 N   0  0  0  0  0  0  0  0  0  0  0  0
  -26.0520  -38.4050   23.9170 H   0  0  0  0  0  0  0  0  0  0  0  0
  -26.3940  -31.8240   25.1240 C   0  0  1  0  0  0  0  0  0  0  0  0
  -25.3090  -31.5900   26.2020 C   0  0  0  0  0  1  0  0  0  0  0  0
  -26.9700  -30.4450   24.7290 C   0  0  0  0  0  1  0  0  0  0  0  0
  -27.5530  -32.6190   25.7700 C   0  0  0  0  0  1  0  0  0  0  0  0
  -28.8400  -21.1810   20.8550 C   0  0  0  0  0  2  0  0  0  0  0  0
  -31.1670  -20.1110   21.0410 C   0  0  0  0  0  3  0  0  0  0  0  0
  -31.6810  -17.7230   20.8380 C   0  0  0  0  0  3  0  0  0  0  0  0
  -29.8120  -19.9140   20.7020 C   0  0  0  0  0  0  0  0  0  0  0  0
  -29.4090  -18.5260   20.4560 C   0  0  0  0  0  0  0  0  0  0  0  0
  -30.3420  -17.4000   20.5220 C   0  0  0  0  0  0  0  0  0  0  0  0
  -32.0840  -19.0470   21.0970 C   0  0  0  0  0  0  0  0  0  0  0  0
  -27.9440  -18.2370   20.1600 C   0  0  0  0  0  1  0  0  0  0  0  0
  -33.7220  -19.3640   21.5400 Cl  0  0  0  0  0  0  0  0  0  0  0  0
  -30.7290  -14.8330   20.1230 C   0  0  0  0  0  0  0  0  0  0  0  0
  -30.4850  -12.5540   19.1200 C   0  0  0  0  0  2  0  0  0  0  0  0
  -29.4970  -12.6030   17.9350 C   0  0  0  0  0  2  0  0  0  0  0  0
  -28.0500  -12.4200   18.4300 C   0  0  0  0  0  2  0  0  0  0  0  0
  -27.7160  -13.3250   19.6450 C   0  0  0  0  0  3  0  0  0  0  0  0
  -28.8180  -13.2680   20.7250 C   0  0  0  0  0  2  0  0  0  0  0  0
  -30.0870  -13.6170   20.0730 N   0  0  0  0  0  0  0  0  0  0  0  0
  -31.8960  -14.9200   19.7350 O   0  0  0  0  0  0  0  0  0  0  0  0
  -29.9670  -15.9660   20.3740 N   0  0  0  0  0  0  0  0  0  0  0  0
  -28.9850  -15.7700   20.4810 H   0  0  0  0  0  0  0  0  0  0  0  0
  -25.3670  -13.9060   20.4980 C   0  0  0  0  0  0  0  0  0  0  0  0
  -24.3160  -13.1280   20.8980 C   0  0  0  0  0  0  0  0  0  0  0  0
  -24.7710  -11.7760   20.8120 C   0  0  0  0  0  0  0  0  0  0  0  0
  -26.3950  -13.0310   20.1920 N   0  0  0  0  0  0  0  0  0  0  0  0
  -26.0460  -11.7420   20.4430 N   0  0  0  0  0  0  0  0  0  0  0  0
  -24.0480  -10.5120   21.0020 C   0  0  0  0  0  0  0  0  0  0  0  0
  -24.4880   -9.5400   21.9270 C   0  0  0  0  0  3  0  0  0  0  0  0
  -23.7640   -8.3420   22.1050 C   0  0  0  0  0  3  0  0  0  0  0  0
  -22.5850   -8.1060   21.3590 C   0  0  0  0  0  0  0  0  0  0  0  0
  -22.1650   -9.0670   20.4220 C   0  0  0  0  0  3  0  0  0  0  0  0
  -22.8890  -10.2570   20.2420 C   0  0  0  0  0  3  0  0  0  0  0  0
  -21.8330   -6.9620   21.4470 O   0  0  0  0  0  0  0  0  0  0  0  0
  -21.7550   -6.2390   22.6110 C   0  0  0  0  0  0  0  0  0  0  0  0
  -21.2780   -6.8100   23.8110 C   0  0  0  0  0  3  0  0  0  0  0  0
  -21.1500   -6.0130   24.9670 C   0  0  0  0  0  3  0  0  0  0  0  0
  -21.4890   -4.6470   24.9230 C   0  0  0  0  0  0  0  0  0  0  0  0
  -21.9580   -4.0770   23.7260 C   0  0  0  0  0  3  0  0  0  0  0  0
  -22.0880   -4.8700   22.5730 C   0  0  0  0  0  0  0  0  0  0  0  0
  -22.5210   -4.3110   21.4170 F   0  0  0  0  0  0  0  0  0  0  0  0
  -21.3580   -3.8790   26.0300 F   0  0  0  0  0  0  0  0  0  0  0  0
  -22.9350  -13.6030   21.2430 C   0  0  0  0  0  0  0  0  0  0  0  0
  -22.2410  -12.8850   22.1190 N   0  0  0  0  0  0  0  0  0  0  0  0
  -22.4820  -14.6460   20.7720 O   0  0  0  0  0  0  0  0  0  0  0  0
  -22.6230  -12.0400   22.5180 H   0  0  0  0  0  0  0  0  0  0  0  0
  -21.3170  -13.1840   22.3940 H   0  0  0  0  0  0  0  0  0  0  0  0
  -25.5250  -15.2800   20.3410 N   0  0  0  0  0  0  0  0  0  0  0  0
  -24.7550  -15.9230   20.4830 H   0  0  0  0  0  0  0  0  0  0  0  0
  -26.3250  -15.7120   19.9000 H   0  0  0  0  0  0  0  0  0  0  0  0
  1  2  2  0
  3  5  1  0
  4  3  1  0
  4  6  1  0
  5  7  1  0
  6  9  1  0
  6  1  1  0
  7 50  1  0
  7  1  1  0
  7  8  1  6
 10 21  2  0
 11  9  1  0
 11 16  1  0
 12 20  1  0
 12 22  1  0
 13 19  1  0
 13 15  1  0
 14 20  1  0
 15 14  1  0
 16 15  2  0
 17 18  1  0
 17 11  2  0
 18 13  2  0
 19 12  1  0
 20 10  1  0
 22 24  2  0
 23 22  1  0
 25 23  1  0
 26 35  2  0
 26 31  1  0
 27 23  1  0
 27 31  1  0
 28 27  1  0
 29 30  1  0
 29 28  1  0
 30 26  1  0
 31 32  2  0
 32 33  1  0
 34 33  2  0
 35 34  1  0
 36 10  1  0
 36 37  1  0
 36 46  1  0
 37 40  1  0
 38 42  1  0
 38 37  1  0
 39 38  2  0
 42 41  1  0
 44 42  1  0
 44 45  1  0
 44 43  1  0
 46 49  1  1
 46 47  1  0
 48 46  1  0
 51 56  1  0
 52 56  2  0
 53 50  1  0
 53 51  2  0
 54 55  2  0
 54 53  1  0
 55 52  1  0
 56 58  1  0
 57 54  1  0
 59 67  1  0
 60 65  1  0
 61 62  1  0
 61 60  1  0
 63 62  1  0
 63 72  1  0
 63 64  1  0
 65 59  1  0
 65 64  1  0
 66 59  2  0
 67 68  1  0
 67 55  1  0
 69 70  2  0
 70 89  1  0
 71 70  1  0
 71 74  1  0
 72 73  1  0
 72 69  1  0
 73 71  2  0
 74 75  1  0
 75 76  2  0
 77 80  1  0
 77 76  1  0
 78 77  2  0
 79 78  1  0
 79 74  2  0
 80 81  1  0
 81 82  1  0
 82 83  2  0
 84 83  1  0
 84 88  1  0
 85 84  2  0
 86 81  2  0
 86 85  1  0
 87 86  1  0
 89 90  1  0
 90 93  1  0
 90 92  1  0
 91 89  2  0
 94 95  1  0
 94 69  1  0
 96 94  1  0
M  ISO  4   6 101   9 101  59 100  67 100
M  END
>  <TORSDO>  (35) 
F 18

>  <SCORE>  (35) 
-15.155

>  <name>  (35) 
34

>  <ligand_id>  (35) 
34

>  <original_smiles>  (35) 
[H]C([H])=C1C([H])(Oc2c([H])c([H])c3c(c2[H])C([H])([H])N(C(=O)C([H])(N([H])C(=O)C([H])(N([H])C([H])([H])[H])C([H])([H])[H])C(C([H])([H])[H])(C([H])([H])[H])C([H])([H])[H])C([H])(C(=O)N([H])C2([H])c4c([H])c([H])c([H])c([H])c4C([H])([H])C([H])([H])C2([H])[H])C3([H])[H])C([H])([H])C([H])([H])C([H])([H])[N+]1([H])C([H])([H])c1c([H])c(Cl)c([H])c(N([H])C(=O)N2C([H])([H])C([H])([H])C([H])([H])C([H])(n3nc(-c4c([H])c([H])c(Oc5c([H])c([H])c(F)c([H])c5F)c([H])c4[H])c(C(=O)N([H])[H])c3N([H])[H])C2([H])[H])c1C([H])([H])[H]

>  <smiles>  (35) 
[H]C([H])=C1C([H])(Oc2c([H])c([H])c3c(c2[H])C([H])([H])N(C(=O)C([H])(N([H])C(=O)C([H])(N([H])C([H])([H])[H])C([H])([H])[H])C(C([H])([H])[H])(C([H])([H])[H])C([H])([H])[H])C([H])(C(=O)N([H])C2([H])c4c([H])c([H])c([H])c([H])c4C([H])([H])C([H])([H])C2([H])[H])C3([H])[H])C([H])([H])C([H])([H])C([H])([H])[N+]1([H])C([H])([H])c1c([H])c(Cl)c([H])c(N([H])C(=O)N2C([H])([H])C([H])([H])C([H])([H])C([H])(n3nc(-c4c([H])c([H])c(Oc5c([H])c([H])c(F)c([H])c5F)c([H])c4[H])c(C(=O)N([H])[H])c3N([H])[H])C2([H])[H])c1C([H])([H])[H]

$$$$
35:0:0
     RDKit          3D

 94102  0  0  1  0  0  0  0  0999 V2000
  -28.5580  -19.4800   20.6410 C   0  0  0  0  0  3  0  0  0  0  0  0
  -30.7890  -19.1720   18.9780 C   0  0  0  0  0  3  0  0  0  0  0  0
  -29.2940  -18.2680   20.6710 C   0  0  0  0  0  0  0  0  0  0  0  0
  -28.9360  -20.5550   19.8010 C   0  0  0  0  0  0  0  0  0  0  0  0
  -30.4490  -18.1210   19.8610 C   0  0  0  0  0  0  0  0  0  0  0  0
  -30.0460  -20.3720   18.9410 C   0  0  0  0  0  0  0  0  0  0  0  0
  -28.8480  -17.1540   21.6050 C   0  0  0  0  0  1  0  0  0  0  0  0
  -30.5470  -21.6320   17.8700 Cl  0  0  0  0  0  0  0  0  0  0  0  0
  -31.4070  -16.9290   19.9940 C   0  0  0  0  0  2  0  0  0  0  0  0
  -31.4090  -14.4970   19.4040 C   0  0  0  0  0  0  0  0  0  0  0  0
  -30.9790  -12.1940   18.6300 C   0  0  0  0  0  2  0  0  0  0  0  0
  -29.9460  -12.2210   17.4860 C   0  0  0  0  0  2  0  0  0  0  0  0
  -28.5080  -12.2100   18.0400 C   0  0  0  0  0  2  0  0  0  0  0  0
  -28.2900  -13.2540   19.1680 C   0  0  0  0  0  3  0  0  0  0  0  0
  -29.4220  -13.1720   20.2150 C   0  0  0  0  0  2  0  0  0  0  0  0
  -30.7000  -13.3420   19.5050 N   0  0  0  0  0  0  0  0  0  0  0  0
  -32.4890  -14.5670   18.8100 O   0  0  0  0  0  0  0  0  0  0  0  0
  -30.8110  -15.5900   19.9100 N   0  0  0  0  0  0  0  0  0  0  0  0
  -29.9080  -15.4560   20.3390 H   0  0  0  0  0  0  0  0  0  0  0  0
  -26.0700  -14.0920   20.1630 C   0  0  0  0  0  0  0  0  0  0  0  0
  -24.9610  -13.4260   20.6130 C   0  0  0  0  0  0  0  0  0  0  0  0
  -25.2540  -12.0340   20.4750 C   0  0  0  0  0  0  0  0  0  0  0  0
  -26.9730  -13.1110   19.7830 N   0  0  0  0  0  0  0  0  0  0  0  0
  -26.4910  -11.8660   20.0260 N   0  0  0  0  0  0  0  0  0  0  0  0
  -24.4080  -10.8530   20.6910 C   0  0  0  0  0  0  0  0  0  0  0  0
  -24.7020   -9.9090   21.6990 C   0  0  0  0  0  3  0  0  0  0  0  0
  -23.8640   -8.7910   21.9000 C   0  0  0  0  0  3  0  0  0  0  0  0
  -22.7180   -8.6090   21.0890 C   0  0  0  0  0  0  0  0  0  0  0  0
  -22.4430   -9.5390   20.0710 C   0  0  0  0  0  3  0  0  0  0  0  0
  -23.2810  -10.6480   19.8690 C   0  0  0  0  0  3  0  0  0  0  0  0
  -21.8610   -7.5400   21.1930 O   0  0  0  0  0  0  0  0  0  0  0  0
  -21.5140   -7.0110   22.4100 C   0  0  0  0  0  0  0  0  0  0  0  0
  -20.8650   -7.7820   23.4000 C   0  0  0  0  0  3  0  0  0  0  0  0
  -20.4650   -7.1800   24.6100 C   0  0  0  0  0  3  0  0  0  0  0  0
  -20.7030   -5.8100   24.8290 C   0  0  0  0  0  0  0  0  0  0  0  0
  -21.3450   -5.0400   23.8430 C   0  0  0  0  0  3  0  0  0  0  0  0
  -21.7470   -5.6390   22.6360 C   0  0  0  0  0  0  0  0  0  0  0  0
  -22.3450   -4.8880   21.6810 F   0  0  0  0  0  0  0  0  0  0  0  0
  -20.3130   -5.2300   25.9890 F   0  0  0  0  0  0  0  0  0  0  0  0
  -23.6660  -14.0410   21.0600 C   0  0  0  0  0  0  0  0  0  0  0  0
  -22.9600  -13.3890   21.9760 N   0  0  0  0  0  0  0  0  0  0  0  0
  -23.2960  -15.1330   20.6300 O   0  0  0  0  0  0  0  0  0  0  0  0
  -23.2730  -12.5020   22.3430 H   0  0  0  0  0  0  0  0  0  0  0  0
  -22.0930  -13.7810   22.3160 H   0  0  0  0  0  0  0  0  0  0  0  0
  -26.3800  -15.4420   20.0290 N   0  0  0  0  0  0  0  0  0  0  0  0
  -25.7230  -16.1770   20.2640 H   0  0  0  0  0  0  0  0  0  0  0  0
  -27.2440  -15.7960   19.6410 H   0  0  0  0  0  0  0  0  0  0  0  0
  -28.1440  -21.8770   19.8220 C   0  0  0  0  0  2  0  0  0  0  0  0
  -28.9480  -23.0180   20.3360 N   0  0  0  0  0  4  0  0  0  0  0  0
  -29.7740  -23.1050   19.7630 H   0  0  0  0  0  0  0  0  0  0  0  0
  -29.2600  -22.7510   21.2560 H   0  0  0  0  0  0  0  0  0  0  0  0
  -28.2630  -24.3440   20.4710 C   0  0  0  0  0  2  0  0  0  0  0  0
  -28.6890  -25.3960   19.4080 C   0  0  0  0  0  2  0  0  0  0  0  0
  -28.5520  -26.7620   19.8520 O   0  0  0  0  0  0  0  0  0  0  0  0
  -24.4970  -31.6610   23.0470 C   0  0  0  0  0  0  0  0  0  0  0  0
  -27.3240  -27.4010   19.8540 C   0  0  0  0  0  0  0  0  0  0  0  0
  -23.3460  -30.2410   21.3830 C   0  0  0  0  0  3  0  0  0  0  0  0
  -24.8590  -28.8010   19.9160 C   0  0  0  0  0  0  0  0  0  0  0  0
  -25.8520  -30.7190   21.1760 C   0  0  0  0  0  2  0  0  0  0  0  0
  -25.9960  -29.3660   20.5040 C   0  0  0  0  0  0  0  0  0  0  0  0
  -27.2290  -28.6750   20.4660 C   0  0  0  0  0  3  0  0  0  0  0  0
  -26.1630  -26.8470   19.2700 C   0  0  0  0  0  3  0  0  0  0  0  0
  -24.9380  -27.5420   19.2980 C   0  0  0  0  0  3  0  0  0  0  0  0
  -23.5760  -29.6000   19.9880 C   0  0  0  0  0  2  0  0  0  0  0  0
  -24.5830  -30.8890   21.9270 N   0  0  0  0  0  0  0  0  0  0  0  0
  -23.4070  -31.8690   23.6000 O   0  0  0  0  0  0  0  0  0  0  0  0
  -22.7530  -29.1680   22.3250 C   0  0  0  0  0  0  0  0  0  0  0  0
  -21.4450  -28.9030   22.1830 N   0  0  0  0  0  0  0  0  0  0  0  0
  -23.4690  -28.5740   23.1360 O   0  0  0  0  0  0  0  0  0  0  0  0
  -20.9260  -29.4390   21.5000 H   0  0  0  0  0  0  0  0  0  0  0  0
  -18.1430  -27.5070   22.6470 C   0  0  0  0  0  0  0  0  0  0  0  0
  -20.6820  -27.9040   22.9320 C   0  0  0  0  0  3  0  0  0  0  0  0
  -20.8670  -26.4920   22.3290 C   0  0  0  0  0  2  0  0  0  0  0  0
  -19.7890  -26.1270   21.3060 C   0  0  0  0  0  2  0  0  0  0  0  0
  -18.4000  -26.1830   21.9470 C   0  0  0  0  0  2  0  0  0  0  0  0
  -19.2170  -28.3240   23.0950 C   0  0  0  0  0  0  0  0  0  0  0  0
  -18.9280  -29.5620   23.7070 C   0  0  0  0  0  3  0  0  0  0  0  0
  -17.5960  -29.9850   23.8790 C   0  0  0  0  0  3  0  0  0  0  0  0
  -16.5380  -29.1670   23.4490 C   0  0  0  0  0  3  0  0  0  0  0  0
  -16.8110  -27.9310   22.8380 C   0  0  0  0  0  3  0  0  0  0  0  0
  -25.7550  -32.3400   23.6720 C   0  0  0  0  0  3  0  0  0  0  0  0
  -25.3880  -33.7180   24.0230 N   0  0  0  0  0  0  0  0  0  0  0  0
  -25.6740  -34.7950   23.2800 C   0  0  0  0  0  0  0  0  0  0  0  0
  -26.3490  -34.7370   22.2490 O   0  0  0  0  0  0  0  0  0  0  0  0
  -24.7950  -33.8360   24.8320 H   0  0  0  0  0  0  0  0  0  0  0  0
  -23.8730  -36.5150   22.9420 C   0  0  0  0  0  1  0  0  0  0  0  0
  -25.1250  -36.1530   23.7570 C   0  0  0  0  0  3  0  0  0  0  0  0
  -27.2080  -37.1200   24.6220 C   0  0  0  0  0  1  0  0  0  0  0  0
  -26.1100  -37.2530   23.6680 N   0  0  0  0  0  0  0  0  0  0  0  0
  -25.6620  -38.1510   23.8280 H   0  0  0  0  0  0  0  0  0  0  0  0
  -26.3120  -31.5740   24.9350 C   0  0  1  0  0  0  0  0  0  0  0  0
  -25.2310  -31.2420   25.9880 C   0  0  0  0  0  1  0  0  0  0  0  0
  -26.9860  -30.2480   24.5130 C   0  0  0  0  0  1  0  0  0  0  0  0
  -27.4050  -32.4250   25.6250 C   0  0  0  0  0  1  0  0  0  0  0  0
  1  3  1  0
  2  5  1  0
  3  7  1  0
  4 48  1  0
  4  1  2  0
  5  9  1  0
  5  3  2  0
  6  2  2  0
  6  4  1  0
  8  6  1  0
 10 16  1  0
 10 18  1  0
 11 16  1  0
 12 13  1  0
 12 11  1  0
 14 13  1  0
 14 23  1  0
 14 15  1  0
 16 15  1  0
 17 10  2  0
 18  9  1  0
 18 19  1  0
 20 21  2  0
 21 40  1  0
 22 21  1  0
 22 25  1  0
 23 24  1  0
 23 20  1  0
 24 22  2  0
 25 26  1  0
 26 27  2  0
 28 31  1  0
 28 27  1  0
 29 28  2  0
 30 29  1  0
 30 25  2  0
 31 32  1  0
 32 37  2  0
 32 33  1  0
 33 34  2  0
 34 35  1  0
 35 39  1  0
 36 35  2  0
 37 36  1  0
 38 37  1  0
 40 41  1  0
 41 44  1  0
 41 43  1  0
 42 40  2  0
 45 20  1  0
 45 46  1  0
 47 45  1  0
 48 49  1  0
 49 52  1  0
 49 51  1  0
 50 49  1  0
 53 54  1  0
 53 52  1  0
 54 56  1  0
 55 66  2  0
 56 61  1  0
 57 65  1  0
 57 67  1  0
 58 64  1  0
 58 60  1  0
 59 65  1  0
 60 59  1  0
 61 60  2  0
 62 63  1  0
 62 56  2  0
 63 58  2  0
 64 57  1  0
 65 55  1  0
 67 69  2  0
 68 67  1  0
 70 68  1  0
 71 80  2  0
 71 76  1  0
 72 68  1  0
 72 76  1  0
 73 72  1  0
 74 75  1  0
 74 73  1  0
 75 71  1  0
 76 77  2  0
 77 78  1  0
 79 78  2  0
 80 79  1  0
 81 55  1  0
 81 82  1  0
 81 91  1  0
 82 85  1  0
 83 87  1  0
 83 82  1  0
 84 83  2  0
 87 86  1  0
 89 87  1  0
 89 90  1  0
 89 88  1  0
 91 94  1  1
 91 92  1  0
 93 91  1  0
M  ISO  4  10 100  18 100  53 101  54 101
M  END
>  <TORSDO>  (36) 
F 21

>  <SCORE>  (36) 
-10.639

>  <name>  (36) 
35

>  <ligand_id>  (36) 
35

>  <original_smiles>  (36) 
[H]c1c([H])c([H])c2c(c1[H])C([H])([H])C([H])([H])C([H])([H])C2([H])N([H])C(=O)C1([H])N(C(=O)C([H])(N([H])C(=O)C([H])(N([H])C([H])([H])[H])C([H])([H])[H])C(C([H])([H])[H])(C([H])([H])[H])C([H])([H])[H])C([H])([H])c2c([H])c(OC([H])([H])C([H])([H])[N+]([H])([H])C([H])([H])c3c([H])c(C([H])([H])[H])c(C([H])([H])N([H])C(=O)N4C([H])([H])C([H])([H])C([H])([H])C([H])(n5nc(-c6c([H])c([H])c(Oc7c([H])c([H])c(F)c([H])c7F)c([H])c6[H])c(C(=O)N([H])[H])c5N([H])[H])C4([H])[H])c([H])c3Cl)c([H])c([H])c2C1([H])[H]

>  <smiles>  (36) 
[H]c1c([H])c([H])c2c(c1[H])C([H])([H])C([H])([H])C([H])([H])C2([H])N([H])C(=O)C1([H])N(C(=O)C([H])(N([H])C(=O)C([H])(N([H])C([H])([H])[H])C([H])([H])[H])C(C([H])([H])[H])(C([H])([H])[H])C([H])([H])[H])C([H])([H])c2c([H])c(OC([H])([H])C([H])([H])[N+]([H])([H])C([H])([H])c3c([H])c(C([H])([H])[H])c(C([H])([H])N([H])C(=O)N4C([H])([H])C([H])([H])C([H])([H])C([H])(n5nc(-c6c([H])c([H])c(Oc7c([H])c([H])c(F)c([H])c7F)c([H])c6[H])c(C(=O)N([H])[H])c5N([H])[H])C4([H])[H])c([H])c3Cl)c([H])c([H])c2C1([H])[H]

$$$$
36:0:0
     RDKit          3D

 97106  0  0  1  0  0  0  0  0999 V2000
  -27.9590  -25.1580   22.0280 C   0  0  0  0  0  2  0  0  0  0  0  0
  -27.7860  -23.6660   22.3840 C   0  0  0  0  0  2  0  0  0  0  0  0
  -29.7090  -24.4680   20.3490 C   0  0  0  0  0  2  0  0  0  0  0  0
  -28.4070  -25.3080   20.5620 C   0  0  0  0  0  3  0  0  0  0  0  0
  -29.0710  -22.8350   22.1530 C   0  0  0  0  0  3  0  0  0  0  0  0
  -30.1540  -23.1820   23.1880 C   0  0  0  0  0  1  0  0  0  0  0  0
  -29.6250  -23.0140   20.7780 N   0  0  1  0  0  4  0  0  0  0  0  0
  -30.5850  -22.7310   20.8780 H   0  0  0  0  0  0  0  0  0  0  0  0
  -28.5670  -26.7250   20.2070 O   0  0  0  0  0  0  0  0  0  0  0  0
  -24.5900  -31.8730   23.1540 C   0  0  0  0  0  0  0  0  0  0  0  0
  -27.4110  -27.4930   20.1200 C   0  0  0  0  0  0  0  0  0  0  0  0
  -23.4520  -30.4620   21.4660 C   0  0  0  0  0  3  0  0  0  0  0  0
  -24.9860  -28.9820   20.0480 C   0  0  0  0  0  0  0  0  0  0  0  0
  -25.9740  -30.8890   21.3210 C   0  0  0  0  0  2  0  0  0  0  0  0
  -26.1160  -29.5190   20.6790 C   0  0  0  0  0  0  0  0  0  0  0  0
  -27.3310  -28.7850   20.7060 C   0  0  0  0  0  3  0  0  0  0  0  0
  -26.2730  -27.0070   19.4360 C   0  0  0  0  0  3  0  0  0  0  0  0
  -25.0660  -27.7340   19.4050 C   0  0  0  0  0  3  0  0  0  0  0  0
  -23.7160  -29.8060   20.0800 C   0  0  0  0  0  2  0  0  0  0  0  0
  -24.6860  -31.0950   22.0370 N   0  0  0  0  0  0  0  0  0  0  0  0
  -23.4940  -32.1090   23.6790 O   0  0  0  0  0  0  0  0  0  0  0  0
  -22.8200  -29.4120   22.4040 C   0  0  0  0  0  0  0  0  0  0  0  0
  -21.5020  -29.1960   22.2690 N   0  0  0  0  0  0  0  0  0  0  0  0
  -23.5130  -28.7900   23.2170 O   0  0  0  0  0  0  0  0  0  0  0  0
  -21.0140  -29.7500   21.5770 H   0  0  0  0  0  0  0  0  0  0  0  0
  -18.1470  -27.9130   22.7090 C   0  0  0  0  0  0  0  0  0  0  0  0
  -20.6950  -28.2310   23.0140 C   0  0  0  0  0  3  0  0  0  0  0  0
  -20.8420  -26.8120   22.4160 C   0  0  0  0  0  2  0  0  0  0  0  0
  -19.7590  -26.4790   21.3870 C   0  0  0  0  0  2  0  0  0  0  0  0
  -18.3670  -26.5780   22.0160 C   0  0  0  0  0  2  0  0  0  0  0  0
  -19.2420  -28.6970   23.1630 C   0  0  0  0  0  0  0  0  0  0  0  0
  -18.9860  -29.9450   23.7700 C   0  0  0  0  0  3  0  0  0  0  0  0
  -17.6660  -30.4080   23.9360 C   0  0  0  0  0  3  0  0  0  0  0  0
  -16.5870  -29.6180   23.5010 C   0  0  0  0  0  3  0  0  0  0  0  0
  -16.8280  -28.3760   22.8890 C   0  0  0  0  0  3  0  0  0  0  0  0
  -25.8460  -32.5230   23.8170 C   0  0  0  0  0  3  0  0  0  0  0  0
  -26.3480  -31.7480   25.0990 C   0  0  1  0  0  0  0  0  0  0  0  0
  -25.2380  -31.4410   26.1300 C   0  0  0  0  0  1  0  0  0  0  0  0
  -26.9920  -30.3930   24.7260 C   0  0  0  0  0  1  0  0  0  0  0  0
  -27.4590  -32.5680   25.7950 C   0  0  0  0  0  1  0  0  0  0  0  0
  -25.4960  -33.9130   24.1450 N   0  0  0  0  0  0  0  0  0  0  0  0
  -25.8080  -34.9860   23.4040 C   0  0  0  0  0  0  0  0  0  0  0  0
  -26.5090  -34.9170   22.3880 O   0  0  0  0  0  0  0  0  0  0  0  0
  -24.8910  -34.0340   24.9480 H   0  0  0  0  0  0  0  0  0  0  0  0
  -24.0350  -36.7390   23.0060 C   0  0  0  0  0  1  0  0  0  0  0  0
  -25.2620  -36.3570   23.8550 C   0  0  0  0  0  3  0  0  0  0  0  0
  -27.3550  -37.2900   24.7540 C   0  0  0  0  0  1  0  0  0  0  0  0
  -26.2600  -37.4450   23.7940 N   0  0  0  0  0  0  0  0  0  0  0  0
  -25.8190  -38.3450   23.9610 H   0  0  0  0  0  0  0  0  0  0  0  0
  -29.1800  -22.0050   19.7490 C   0  0  0  0  0  2  0  0  0  0  0  0
  -31.5020  -18.2460   19.4190 C   0  0  0  0  0  3  0  0  0  0  0  0
  -31.1000  -20.5860   18.8660 C   0  0  0  0  0  3  0  0  0  0  0  0
  -30.4630  -18.2630   20.3660 C   0  0  0  0  0  0  0  0  0  0  0  0
  -29.9810  -20.6510   19.7330 C   0  0  0  0  0  0  0  0  0  0  0  0
  -29.6550  -19.4550   20.4780 C   0  0  0  0  0  0  0  0  0  0  0  0
  -31.8320  -19.3920   18.6870 C   0  0  0  0  0  0  0  0  0  0  0  0
  -28.4310  -19.4190   21.3850 C   0  0  0  0  0  1  0  0  0  0  0  0
  -33.1720  -19.3260   17.5990 Cl  0  0  0  0  0  0  0  0  0  0  0  0
  -30.3810  -17.0440   21.3320 C   0  0  0  0  0  2  0  0  0  0  0  0
  -31.0380  -14.7120   20.2840 C   0  0  0  0  0  0  0  0  0  0  0  0
  -30.7750  -12.5580   19.0100 C   0  0  0  0  0  2  0  0  0  0  0  0
  -29.8020  -12.7700   17.8230 C   0  0  0  0  0  2  0  0  0  0  0  0
  -28.3240  -12.6750   18.2710 C   0  0  0  0  0  2  0  0  0  0  0  0
  -28.0300  -13.5010   19.5560 C   0  0  0  0  0  3  0  0  0  0  0  0
  -29.0960  -13.1500   20.6180 C   0  0  0  0  0  2  0  0  0  0  0  0
  -30.4050  -13.5210   20.0670 N   0  0  0  0  0  0  0  0  0  0  0  0
  -32.1910  -14.9340   19.9070 O   0  0  0  0  0  0  0  0  0  0  0  0
  -30.2200  -15.6580   20.8220 N   0  0  0  0  0  0  0  0  0  0  0  0
  -29.3090  -15.2860   21.0330 H   0  0  0  0  0  0  0  0  0  0  0  0
  -25.6510  -14.1900   20.2760 C   0  0  0  0  0  0  0  0  0  0  0  0
  -24.5660  -13.4580   20.6590 C   0  0  0  0  0  0  0  0  0  0  0  0
  -24.9860  -12.0920   20.6420 C   0  0  0  0  0  0  0  0  0  0  0  0
  -26.6710  -13.2790   20.0500 N   0  0  0  0  0  0  0  0  0  0  0  0
  -26.2730  -12.0120   20.3280 N   0  0  0  0  0  0  0  0  0  0  0  0
  -24.2230  -10.8570   20.8520 C   0  0  0  0  0  0  0  0  0  0  0  0
  -24.6100   -9.9110   21.8250 C   0  0  0  0  0  3  0  0  0  0  0  0
  -23.8590   -8.7340   22.0200 C   0  0  0  0  0  3  0  0  0  0  0  0
  -22.7030   -8.4930   21.2400 C   0  0  0  0  0  0  0  0  0  0  0  0
  -22.3310   -9.4300   20.2600 C   0  0  0  0  0  3  0  0  0  0  0  0
  -23.0830  -10.5980   20.0650 C   0  0  0  0  0  3  0  0  0  0  0  0
  -21.9230   -7.3680   21.3470 O   0  0  0  0  0  0  0  0  0  0  0  0
  -21.7940   -6.6900   22.5340 C   0  0  0  0  0  0  0  0  0  0  0  0
  -21.3230   -7.3220   23.7050 C   0  0  0  0  0  3  0  0  0  0  0  0
  -21.1390   -6.5710   24.8830 C   0  0  0  0  0  3  0  0  0  0  0  0
  -21.4150   -5.1910   24.8900 C   0  0  0  0  0  0  0  0  0  0  0  0
  -21.8760   -4.5590   23.7220 C   0  0  0  0  0  3  0  0  0  0  0  0
  -22.0630   -5.3080   22.5470 C   0  0  0  0  0  0  0  0  0  0  0  0
  -22.4920   -4.6920   21.4180 F   0  0  0  0  0  0  0  0  0  0  0  0
  -21.2280   -4.4680   26.0170 F   0  0  0  0  0  0  0  0  0  0  0  0
  -23.1810  -13.9770   20.9320 C   0  0  0  0  0  0  0  0  0  0  0  0
  -22.4390  -13.3300   21.8200 N   0  0  0  0  0  0  0  0  0  0  0  0
  -22.7650  -15.0020   20.3870 O   0  0  0  0  0  0  0  0  0  0  0  0
  -22.7810  -12.5080   22.2960 H   0  0  0  0  0  0  0  0  0  0  0  0
  -21.5110  -13.6680   22.0420 H   0  0  0  0  0  0  0  0  0  0  0  0
  -25.8520  -15.5570   20.0770 N   0  0  0  0  0  0  0  0  0  0  0  0
  -25.0860  -16.2120   20.1710 H   0  0  0  0  0  0  0  0  0  0  0  0
  -26.6770  -15.9580   19.6520 H   0  0  0  0  0  0  0  0  0  0  0  0
  1  2  1  0
  3  4  1  0
  3  7  1  0
  4  9  1  0
  4  1  1  0
  5  2  1  0
  5  6  1  0
  7  8  1  1
  7  5  1  0
 10 21  2  0
 11  9  1  0
 11 16  1  0
 12 20  1  0
 12 22  1  0
 13 19  1  0
 13 15  1  0
 14 20  1  0
 15 16  2  0
 15 14  1  0
 17 11  2  0
 18 17  1  0
 18 13  2  0
 19 12  1  0
 20 10  1  0
 22 24  2  0
 23 22  1  0
 25 23  1  0
 26 35  2  0
 26 31  1  0
 27 23  1  0
 27 31  1  0
 28 27  1  0
 29 30  1  0
 29 28  1  0
 30 26  1  0
 31 32  2  0
 32 33  1  0
 34 33  2  0
 35 34  1  0
 36 10  1  0
 36 41  1  0
 36 37  1  0
 37 40  1  1
 37 38  1  0
 39 37  1  0
 41 44  1  0
 42 46  1  0
 42 41  1  0
 43 42  2  0
 46 45  1  0
 48 46  1  0
 48 49  1  0
 48 47  1  0
 50  7  1  0
 51 53  1  0
 52 54  2  0
 53 55  2  0
 53 59  1  0
 54 50  1  0
 54 55  1  0
 55 57  1  0
 56 52  1  0
 56 51  2  0
 58 56  1  0
 60 68  1  0
 61 66  1  0
 62 63  1  0
 62 61  1  0
 64 63  1  0
 64 73  1  0
 64 65  1  0
 66 60  1  0
 66 65  1  0
 67 60  2  0
 68 69  1  0
 68 59  1  0
 70 71  2  0
 71 90  1  0
 72 71  1  0
 72 75  1  0
 73 70  1  0
 73 74  1  0
 74 72  2  0
 75 76  1  0
 76 77  2  0
 78 81  1  0
 78 77  1  0
 79 78  2  0
 80 79  1  0
 80 75  2  0
 81 82  1  0
 82 87  2  0
 82 83  1  0
 83 84  2  0
 84 85  1  0
 85 89  1  0
 86 85  2  0
 87 86  1  0
 88 87  1  0
 90 91  1  0
 91 94  1  0
 91 93  1  0
 92 90  2  0
 95 96  1  0
 95 70  1  0
 97 95  1  0
M  ISO  4   4 101   9 101  60 100  68 100
M  END
>  <TORSDO>  (37) 
F 19

>  <SCORE>  (37) 
-12.785

>  <name>  (37) 
36

>  <ligand_id>  (37) 
36

>  <original_smiles>  (37) 
[H]c1c([H])c([H])c2c(c1[H])C([H])([H])C([H])([H])C([H])([H])C2([H])N([H])C(=O)C1([H])N(C(=O)C([H])(N([H])C(=O)C([H])(N([H])C([H])([H])[H])C([H])([H])[H])C(C([H])([H])[H])(C([H])([H])[H])C([H])([H])[H])C([H])([H])c2c([H])c(OC3([H])C([H])([H])C([H])([H])C([H])(C([H])([H])[H])[N+]([H])(C([H])([H])c4c([H])c(Cl)c([H])c(C([H])([H])N([H])C(=O)N5C([H])([H])C([H])([H])C([H])([H])C([H])(n6nc(-c7c([H])c([H])c(Oc8c([H])c([H])c(F)c([H])c8F)c([H])c7[H])c(C(=O)N([H])[H])c6N([H])[H])C5([H])[H])c4C([H])([H])[H])C3([H])[H])c([H])c([H])c2C1([H])[H]

>  <smiles>  (37) 
[H]c1c([H])c([H])c2c(c1[H])C([H])([H])C([H])([H])C([H])([H])C2([H])N([H])C(=O)C1([H])N(C(=O)C([H])(N([H])C(=O)C([H])(N([H])C([H])([H])[H])C([H])([H])[H])C(C([H])([H])[H])(C([H])([H])[H])C([H])([H])[H])C([H])([H])c2c([H])c(OC3([H])C([H])([H])C([H])([H])C([H])(C([H])([H])[H])[N+]([H])(C([H])([H])c4c([H])c(Cl)c([H])c(C([H])([H])N([H])C(=O)N5C([H])([H])C([H])([H])C([H])([H])C([H])(n6nc(-c7c([H])c([H])c(Oc8c([H])c([H])c(F)c([H])c8F)c([H])c7[H])c(C(=O)N([H])[H])c6N([H])[H])C5([H])[H])c4C([H])([H])[H])C3([H])[H])c([H])c([H])c2C1([H])[H]

$$$$
37:0:0
     RDKit          3D

 93101  0  0  1  0  0  0  0  0999 V2000
  -28.0490  -22.7030   20.3710 C   0  0  0  0  0  2  0  0  0  0  0  0
  -26.3940  -24.9890   17.7570 C   0  0  0  0  0  3  0  0  0  0  0  0
  -26.3300  -26.2340   18.3940 C   0  0  0  0  0  3  0  0  0  0  0  0
  -26.9700  -23.8910   18.4080 C   0  0  0  0  0  3  0  0  0  0  0  0
  -26.8660  -26.4270   19.6820 C   0  0  0  0  0  0  0  0  0  0  0  0
  -27.5420  -24.0150   19.6950 C   0  0  0  0  0  0  0  0  0  0  0  0
  -27.5120  -25.3080   20.3270 C   0  0  0  0  0  0  0  0  0  0  0  0
  -28.2010  -25.4660   21.6780 C   0  0  0  0  0  1  0  0  0  0  0  0
  -26.7460  -27.8580   20.2940 C   0  0  0  0  0  2  0  0  0  0  0  0
  -25.1240  -29.7390   20.8160 C   0  0  0  0  0  0  0  0  0  0  0  0
  -23.4430  -30.8370   22.2640 C   0  0  0  0  0  2  0  0  0  0  0  0
  -23.2120  -29.9230   23.4860 C   0  0  0  0  0  2  0  0  0  0  0  0
  -22.1250  -28.8690   23.1820 C   0  0  0  0  0  2  0  0  0  0  0  0
  -22.3690  -28.1420   21.8320 C   0  0  0  0  0  3  0  0  0  0  0  0
  -22.6750  -29.1510   20.7020 C   0  0  0  0  0  2  0  0  0  0  0  0
  -23.8170  -29.9710   21.1330 N   0  0  0  0  0  0  0  0  0  0  0  0
  -26.0250  -30.5120   21.1560 O   0  0  0  0  0  0  0  0  0  0  0  0
  -25.4040  -28.5150   20.3000 N   0  0  0  0  0  0  0  0  0  0  0  0
  -24.6080  -27.9360   20.0710 H   0  0  0  0  0  0  0  0  0  0  0  0
  -21.2100  -26.2460   20.5410 C   0  0  0  0  0  0  0  0  0  0  0  0
  -19.9650  -25.6940   20.6480 C   0  0  0  0  0  0  0  0  0  0  0  0
  -19.2930  -26.4310   21.6730 C   0  0  0  0  0  0  0  0  0  0  0  0
  -21.2570  -27.2680   21.4760 N   0  0  0  0  0  0  0  0  0  0  0  0
  -20.0680  -27.4130   22.1170 N   0  0  0  0  0  0  0  0  0  0  0  0
  -17.9820  -26.2220   22.2990 C   0  0  0  0  0  0  0  0  0  0  0  0
  -17.2740  -27.2830   22.9050 C   0  0  0  0  0  3  0  0  0  0  0  0
  -16.0070  -27.0600   23.4830 C   0  0  0  0  0  3  0  0  0  0  0  0
  -15.4320  -25.7690   23.4540 C   0  0  0  0  0  0  0  0  0  0  0  0
  -16.1530  -24.7090   22.8730 C   0  0  0  0  0  3  0  0  0  0  0  0
  -17.4170  -24.9320   22.3040 C   0  0  0  0  0  3  0  0  0  0  0  0
  -14.2150  -25.4550   24.0100 O   0  0  0  0  0  0  0  0  0  0  0  0
  -13.0490  -25.5590   23.2960 C   0  0  0  0  0  0  0  0  0  0  0  0
  -12.5320  -24.4760   22.5510 C   0  0  0  0  0  3  0  0  0  0  0  0
  -11.2970  -24.6070   21.8850 C   0  0  0  0  0  3  0  0  0  0  0  0
  -10.5720  -25.8100   21.9740 C   0  0  0  0  0  0  0  0  0  0  0  0
  -11.0800  -26.8850   22.7230 C   0  0  0  0  0  3  0  0  0  0  0  0
  -12.3140  -26.7590   23.3840 C   0  0  0  0  0  0  0  0  0  0  0  0
  -12.7920  -27.7920   24.1190 F   0  0  0  0  0  0  0  0  0  0  0  0
   -9.3800  -25.9290   21.3460 F   0  0  0  0  0  0  0  0  0  0  0  0
  -19.4520  -24.4920   19.9110 C   0  0  0  0  0  0  0  0  0  0  0  0
  -18.6720  -24.7020   18.8580 N   0  0  0  0  0  0  0  0  0  0  0  0
  -19.7850  -23.3530   20.2380 O   0  0  0  0  0  0  0  0  0  0  0  0
  -18.4210  -25.6380   18.5770 H   0  0  0  0  0  0  0  0  0  0  0  0
  -18.3240  -23.9190   18.3240 H   0  0  0  0  0  0  0  0  0  0  0  0
  -22.3150  -25.9570   19.7440 N   0  0  0  0  0  0  0  0  0  0  0  0
  -22.3280  -25.1940   19.0770 H   0  0  0  0  0  0  0  0  0  0  0  0
  -23.1900  -26.4630   19.7900 H   0  0  0  0  0  0  0  0  0  0  0  0
  -29.5050  -22.5800   20.6840 N   0  0  0  0  0  4  0  0  0  0  0  0
  -29.9720  -23.4000   20.3300 H   0  0  0  0  0  0  0  0  0  0  0  0
  -29.6120  -22.5970   21.6880 H   0  0  0  0  0  0  0  0  0  0  0  0
  -30.1970  -21.3680   20.1070 C   0  0  0  0  0  2  0  0  0  0  0  0
  -30.5280  -20.2290   21.1220 C   0  0  0  0  0  2  0  0  0  0  0  0
  -31.7280  -19.4570   20.8530 O   0  0  0  0  0  0  0  0  0  0  0  0
  -35.8290  -14.7640   17.3910 C   0  0  0  0  0  0  0  0  0  0  0  0
  -31.7360  -18.3670   19.9940 C   0  0  0  0  0  0  0  0  0  0  0  0
  -33.4500  -14.8050   16.7220 C   0  0  0  0  0  3  0  0  0  0  0  0
  -31.8840  -16.1280   18.2510 C   0  0  0  0  0  0  0  0  0  0  0  0
  -34.1460  -15.4690   19.0960 C   0  0  0  0  0  2  0  0  0  0  0  0
  -32.9400  -16.3930   19.1310 C   0  0  0  0  0  0  0  0  0  0  0  0
  -32.8660  -17.5050   20.0070 C   0  0  0  0  0  3  0  0  0  0  0  0
  -30.6770  -18.0730   19.1040 C   0  0  0  0  0  3  0  0  0  0  0  0
  -30.7520  -16.9630   18.2380 C   0  0  0  0  0  3  0  0  0  0  0  0
  -32.0300  -14.9250   17.3430 C   0  0  0  0  0  2  0  0  0  0  0  0
  -34.5360  -15.0280   17.7320 N   0  0  0  0  0  0  0  0  0  0  0  0
  -36.1170  -14.3040   16.2770 O   0  0  0  0  0  0  0  0  0  0  0  0
  -33.5380  -15.7540   15.5080 C   0  0  0  0  0  0  0  0  0  0  0  0
  -33.1340  -15.2610   14.3250 N   0  0  0  0  0  0  0  0  0  0  0  0
  -33.9390  -16.9130   15.6420 O   0  0  0  0  0  0  0  0  0  0  0  0
  -32.8510  -14.2930   14.2910 H   0  0  0  0  0  0  0  0  0  0  0  0
  -32.2720  -14.9640   10.8290 C   0  0  0  0  0  0  0  0  0  0  0  0
  -33.0820  -15.9900   13.0550 C   0  0  0  0  0  3  0  0  0  0  0  0
  -31.8350  -16.9010   12.9690 C   0  0  0  0  0  2  0  0  0  0  0  0
  -30.6390  -16.2320   12.2840 C   0  0  0  0  0  2  0  0  0  0  0  0
  -31.0060  -15.7980   10.8650 C   0  0  0  0  0  2  0  0  0  0  0  0
  -33.2390  -15.0430   11.8650 C   0  0  0  0  0  0  0  0  0  0  0  0
  -34.3860  -14.2240   11.7960 C   0  0  0  0  0  3  0  0  0  0  0  0
  -34.5780  -13.3450   10.7120 C   0  0  0  0  0  3  0  0  0  0  0  0
  -33.6240  -13.2800    9.6800 C   0  0  0  0  0  3  0  0  0  0  0  0
  -32.4780  -14.0900    9.7380 C   0  0  0  0  0  3  0  0  0  0  0  0
  -37.0030  -14.9970   18.3920 C   0  0  0  0  0  3  0  0  0  0  0  0
  -37.7490  -13.7370   18.5090 N   0  0  0  0  0  0  0  0  0  0  0  0
  -37.4520  -12.7560   19.3720 C   0  0  0  0  0  0  0  0  0  0  0  0
  -36.5550  -12.8550   20.2140 O   0  0  0  0  0  0  0  0  0  0  0  0
  -38.4640  -13.5660   17.8160 H   0  0  0  0  0  0  0  0  0  0  0  0
  -37.4330  -10.3390   18.6740 C   0  0  0  0  0  1  0  0  0  0  0  0
  -38.2850  -11.4600   19.2900 C   0  0  0  0  0  3  0  0  0  0  0  0
  -39.9740  -11.7930   21.0420 C   0  0  0  0  0  1  0  0  0  0  0  0
  -38.8180  -11.0180   20.5970 N   0  0  0  0  0  0  0  0  0  0  0  0
  -39.0860  -10.0380   20.5640 H   0  0  0  0  0  0  0  0  0  0  0  0
  -37.9650  -16.1710   17.9580 C   0  0  1  0  0  0  0  0  0  0  0  0
  -39.1300  -15.7210   17.0470 C   0  0  0  0  0  1  0  0  0  0  0  0
  -37.1790  -17.2680   17.2040 C   0  0  0  0  0  1  0  0  0  0  0  0
  -38.5750  -16.8450   19.2120 C   0  0  0  0  0  1  0  0  0  0  0  0
  1 48  1  0
  2  3  2  0
  2  4  1  0
  3  5  1  0
  4  6  2  0
  5  9  1  0
  5  7  2  0
  6  7  1  0
  6  1  1  0
  7  8  1  0
  9 18  1  0
 10 16  1  0
 10 17  2  0
 11 12  1  0
 13 12  1  0
 14 15  1  0
 14 13  1  0
 15 16  1  0
 16 11  1  0
 18 10  1  0
 19 18  1  0
 20 21  2  0
 20 23  1  0
 21 22  1  0
 22 24  2  0
 22 25  1  0
 23 14  1  0
 23 24  1  0
 25 30  2  0
 25 26  1  0
 26 27  2  0
 28 27  1  0
 28 31  1  0
 29 28  2  0
 30 29  1  0
 32 37  1  0
 32 31  1  0
 33 32  2  0
 34 35  2  0
 34 33  1  0
 35 36  1  0
 36 37  2  0
 37 38  1  0
 39 35  1  0
 40 42  2  0
 40 21  1  0
 41 40  1  0
 43 41  1  0
 44 41  1  0
 45 47  1  0
 45 20  1  0
 46 45  1  0
 48 50  1  0
 49 48  1  0
 51 48  1  0
 51 52  1  0
 53 52  1  0
 54 64  1  0
 55 60  1  0
 55 53  1  0
 56 66  1  0
 56 63  1  0
 56 64  1  0
 57 59  1  0
 58 59  1  0
 59 60  2  0
 61 55  2  0
 62 57  2  0
 62 61  1  0
 63 57  1  0
 64 58  1  0
 65 54  2  0
 66 68  2  0
 67 66  1  0
 69 67  1  0
 70 74  1  0
 70 75  1  0
 71 67  1  0
 72 71  1  0
 73 72  1  0
 74 73  1  0
 75 71  1  0
 76 75  2  0
 77 76  1  0
 78 79  1  0
 78 77  2  0
 79 70  2  0
 80 54  1  0
 80 81  1  0
 81 82  1  0
 82 83  2  0
 84 81  1  0
 86 85  1  0
 86 82  1  0
 86 88  1  0
 88 87  1  0
 89 88  1  0
 90 80  1  0
 90 93  1  1
 91 90  1  0
 92 90  1  0
M  ISO  4  10 100  18 100  52 101  53 101
M  END
>  <TORSDO>  (38) 
F 21

>  <SCORE>  (38) 
-5.536

>  <name>  (38) 
37

>  <ligand_id>  (38) 
37

>  <original_smiles>  (38) 
[H]c1c([H])c([H])c2c(c1[H])C([H])([H])C([H])([H])C([H])([H])C2([H])N([H])C(=O)C1([H])N(C(=O)C([H])(N([H])C(=O)C([H])(N([H])C([H])([H])[H])C([H])([H])[H])C(C([H])([H])[H])(C([H])([H])[H])C([H])([H])[H])C([H])([H])c2c([H])c(OC([H])([H])C([H])([H])[N+]([H])([H])C([H])([H])c3c([H])c([H])c([H])c(C([H])([H])N([H])C(=O)N4C([H])([H])C([H])([H])C([H])([H])C([H])(n5nc(-c6c([H])c([H])c(Oc7c([H])c([H])c(F)c([H])c7F)c([H])c6[H])c(C(=O)N([H])[H])c5N([H])[H])C4([H])[H])c3C([H])([H])[H])c([H])c([H])c2C1([H])[H]

>  <smiles>  (38) 
[H]c1c([H])c([H])c2c(c1[H])C([H])([H])C([H])([H])C([H])([H])C2([H])N([H])C(=O)C1([H])N(C(=O)C([H])(N([H])C(=O)C([H])(N([H])C([H])([H])[H])C([H])([H])[H])C(C([H])([H])[H])(C([H])([H])[H])C([H])([H])[H])C([H])([H])c2c([H])c(OC([H])([H])C([H])([H])[N+]([H])([H])C([H])([H])c3c([H])c([H])c([H])c(C([H])([H])N([H])C(=O)N4C([H])([H])C([H])([H])C([H])([H])C([H])(n5nc(-c6c([H])c([H])c(Oc7c([H])c([H])c(F)c([H])c7F)c([H])c6[H])c(C(=O)N([H])[H])c5N([H])[H])C4([H])[H])c3C([H])([H])[H])c([H])c([H])c2C1([H])[H]

$$$$
38:0:0
     RDKit          3D

 96105  0  0  1  0  0  0  0  0999 V2000
  -29.0360  -22.3810   20.1740 C   0  0  0  0  0  0  0  0  0  0  0  0
  -28.0580  -22.0580   21.0440 C   0  0  0  0  0  2  0  0  0  0  0  0
  -31.6060  -23.5210   18.6850 C   0  0  0  0  0  2  0  0  0  0  0  0
  -32.3350  -22.4020   19.4470 C   0  0  0  0  0  2  0  0  0  0  0  0
  -30.6500  -24.3520   19.5620 C   0  0  0  0  0  2  0  0  0  0  0  0
  -31.4500  -21.5010   20.3320 C   0  0  0  0  0  2  0  0  0  0  0  0
  -29.1900  -23.8470   19.5560 C   0  0  0  0  0  3  0  0  0  0  0  0
  -30.0920  -21.2810   19.7700 N   0  0  1  0  0  4  0  0  0  0  0  0
  -30.2670  -21.4420   18.7890 H   0  0  0  0  0  0  0  0  0  0  0  0
  -29.6700  -19.7980   19.6820 C   0  0  0  0  0  2  0  0  0  0  0  0
  -30.5970  -17.3200   19.8940 C   0  0  0  0  0  3  0  0  0  0  0  0
  -31.0250  -16.2120   22.0040 C   0  0  0  0  0  3  0  0  0  0  0  0
  -30.9650  -16.1150   20.6050 C   0  0  0  0  0  0  0  0  0  0  0  0
  -30.2640  -18.5780   20.5350 C   0  0  0  0  0  0  0  0  0  0  0  0
  -30.3450  -18.5860   21.9620 C   0  0  0  0  0  0  0  0  0  0  0  0
  -30.7260  -17.4100   22.6700 C   0  0  0  0  0  0  0  0  0  0  0  0
  -30.0170  -19.8100   22.8040 C   0  0  0  0  0  1  0  0  0  0  0  0
  -30.8330  -17.4000   24.3960 Cl  0  0  0  0  0  0  0  0  0  0  0  0
  -31.4540  -14.8170   19.9260 C   0  0  0  0  0  0  0  0  0  0  0  0
  -31.0170  -12.5970   18.8880 C   0  0  0  0  0  2  0  0  0  0  0  0
  -30.0440  -12.7560   17.6960 C   0  0  0  0  0  2  0  0  0  0  0  0
  -28.5820  -12.7010   18.1760 C   0  0  0  0  0  2  0  0  0  0  0  0
  -28.3200  -13.6050   19.4110 C   0  0  0  0  0  3  0  0  0  0  0  0
  -29.4020  -13.4130   20.4940 C   0  0  0  0  0  2  0  0  0  0  0  0
  -30.7150  -13.6560   19.8800 N   0  0  0  0  0  0  0  0  0  0  0  0
  -32.5510  -14.8740   19.3640 O   0  0  0  0  0  0  0  0  0  0  0  0
  -26.0050  -14.3530   20.2340 C   0  0  0  0  0  0  0  0  0  0  0  0
  -24.9020  -13.6490   20.6390 C   0  0  0  0  0  0  0  0  0  0  0  0
  -25.2700  -12.2690   20.5800 C   0  0  0  0  0  0  0  0  0  0  0  0
  -26.9760  -13.4070   19.9510 N   0  0  0  0  0  0  0  0  0  0  0  0
  -26.5410  -12.1480   20.2180 N   0  0  0  0  0  0  0  0  0  0  0  0
  -24.4680  -11.0580   20.7930 C   0  0  0  0  0  0  0  0  0  0  0  0
  -24.8400  -10.0790   21.7420 C   0  0  0  0  0  3  0  0  0  0  0  0
  -24.0400   -8.9330   21.9360 C   0  0  0  0  0  3  0  0  0  0  0  0
  -22.8530   -8.7570   21.1860 C   0  0  0  0  0  0  0  0  0  0  0  0
  -22.5000   -9.7240   20.2280 C   0  0  0  0  0  3  0  0  0  0  0  0
  -23.3000  -10.8610   20.0310 C   0  0  0  0  0  3  0  0  0  0  0  0
  -22.0270   -7.6640   21.2920 O   0  0  0  0  0  0  0  0  0  0  0  0
  -21.8200   -7.0300   22.4920 C   0  0  0  0  0  0  0  0  0  0  0  0
  -21.3230   -7.7170   23.6210 C   0  0  0  0  0  3  0  0  0  0  0  0
  -21.0600   -7.0130   24.8140 C   0  0  0  0  0  3  0  0  0  0  0  0
  -21.2830   -5.6240   24.8760 C   0  0  0  0  0  0  0  0  0  0  0  0
  -21.7700   -4.9370   23.7510 C   0  0  0  0  0  3  0  0  0  0  0  0
  -22.0350   -5.6380   22.5610 C   0  0  0  0  0  0  0  0  0  0  0  0
  -22.4860   -4.9670   21.4730 F   0  0  0  0  0  0  0  0  0  0  0  0
  -21.0230   -4.9470   26.0190 F   0  0  0  0  0  0  0  0  0  0  0  0
  -23.5520  -14.2170   20.9680 C   0  0  0  0  0  0  0  0  0  0  0  0
  -22.8560  -13.6260   21.9340 N   0  0  0  0  0  0  0  0  0  0  0  0
  -23.1250  -15.2220   20.4000 O   0  0  0  0  0  0  0  0  0  0  0  0
  -23.2180  -12.8180   22.4200 H   0  0  0  0  0  0  0  0  0  0  0  0
  -21.9490  -13.9890   22.1910 H   0  0  0  0  0  0  0  0  0  0  0  0
  -26.2640  -15.7090   20.0580 N   0  0  0  0  0  0  0  0  0  0  0  0
  -25.5670  -16.4290   20.2110 H   0  0  0  0  0  0  0  0  0  0  0  0
  -27.1530  -16.0780   19.7460 H   0  0  0  0  0  0  0  0  0  0  0  0
  -28.2100  -24.9970   20.1420 C   0  0  0  0  0  2  0  0  0  0  0  0
  -28.4050  -26.4540   19.8590 O   0  0  0  0  0  0  0  0  0  0  0  0
  -24.7050  -31.6980   23.2140 C   0  0  0  0  0  0  0  0  0  0  0  0
  -27.2740  -27.2960   19.9050 C   0  0  0  0  0  0  0  0  0  0  0  0
  -23.4640  -30.3510   21.5580 C   0  0  0  0  0  3  0  0  0  0  0  0
  -24.8870  -28.8770   20.0230 C   0  0  0  0  0  0  0  0  0  0  0  0
  -25.9870  -30.7150   21.2990 C   0  0  0  0  0  2  0  0  0  0  0  0
  -26.0650  -29.3580   20.6050 C   0  0  0  0  0  0  0  0  0  0  0  0
  -27.2620  -28.5790   20.5390 C   0  0  0  0  0  3  0  0  0  0  0  0
  -26.0770  -26.8800   19.2850 C   0  0  0  0  0  3  0  0  0  0  0  0
  -24.8940  -27.6450   19.3500 C   0  0  0  0  0  3  0  0  0  0  0  0
  -23.6420  -29.7340   20.1440 C   0  0  0  0  0  2  0  0  0  0  0  0
  -24.7400  -30.9350   22.0830 N   0  0  0  0  0  0  0  0  0  0  0  0
  -23.6390  -31.9370   23.7970 O   0  0  0  0  0  0  0  0  0  0  0  0
  -22.8450  -29.2890   22.4980 C   0  0  0  0  0  0  0  0  0  0  0  0
  -21.5160  -29.1080   22.4200 N   0  0  0  0  0  0  0  0  0  0  0  0
  -23.5600  -28.6300   23.2590 O   0  0  0  0  0  0  0  0  0  0  0  0
  -20.9960  -29.6950   21.7820 H   0  0  0  0  0  0  0  0  0  0  0  0
  -18.1750  -27.8370   22.9820 C   0  0  0  0  0  0  0  0  0  0  0  0
  -20.7360  -28.1310   23.1820 C   0  0  0  0  0  3  0  0  0  0  0  0
  -20.8430  -26.7230   22.5510 C   0  0  0  0  0  2  0  0  0  0  0  0
  -19.7140  -26.4170   21.5610 C   0  0  0  0  0  2  0  0  0  0  0  0
  -18.3490  -26.5170   22.2490 C   0  0  0  0  0  2  0  0  0  0  0  0
  -19.2940  -28.6020   23.4050 C   0  0  0  0  0  0  0  0  0  0  0  0
  -19.0740  -29.8360   24.0530 C   0  0  0  0  0  3  0  0  0  0  0  0
  -17.7680  -30.3100   24.2770 C   0  0  0  0  0  3  0  0  0  0  0  0
  -16.6640  -29.5420   23.8680 C   0  0  0  0  0  3  0  0  0  0  0  0
  -16.8670  -28.3080   23.2270 C   0  0  0  0  0  3  0  0  0  0  0  0
  -26.0000  -32.3250   23.8200 C   0  0  0  0  0  3  0  0  0  0  0  0
  -26.5540  -31.5220   25.0600 C   0  0  1  0  0  0  0  0  0  0  0  0
  -25.4920  -31.2530   26.1520 C   0  0  0  0  0  1  0  0  0  0  0  0
  -27.1320  -30.1600   24.6130 C   0  0  0  0  0  1  0  0  0  0  0  0
  -27.7180  -32.3070   25.7130 C   0  0  0  0  0  1  0  0  0  0  0  0
  -25.6940  -33.7110   24.1980 N   0  0  0  0  0  0  0  0  0  0  0  0
  -26.0230  -34.7890   23.4730 C   0  0  0  0  0  0  0  0  0  0  0  0
  -26.6850  -34.7200   22.4350 O   0  0  0  0  0  0  0  0  0  0  0  0
  -25.1180  -33.8390   25.0160 H   0  0  0  0  0  0  0  0  0  0  0  0
  -24.2930  -36.5930   23.1910 C   0  0  0  0  0  1  0  0  0  0  0  0
  -25.5400  -36.1620   23.9790 C   0  0  0  0  0  3  0  0  0  0  0  0
  -27.6770  -37.0230   24.8270 C   0  0  0  0  0  1  0  0  0  0  0  0
  -26.5720  -37.2170   23.8930 N   0  0  0  0  0  0  0  0  0  0  0  0
  -26.1680  -38.1330   24.0670 H   0  0  0  0  0  0  0  0  0  0  0  0
  1  2  2  0
  3  4  1  0
  3  5  1  0
  4  6  1  0
  7  5  1  0
  7 55  1  0
  7  1  1  0
  8  1  1  0
  8  6  1  0
  8  9  1  6
 10  8  1  0
 10 14  1  0
 11 14  2  0
 11 13  1  0
 12 16  1  0
 13 12  2  0
 14 15  1  0
 15 16  2  0
 15 17  1  0
 16 18  1  0
 19 13  1  0
 20 25  1  0
 21 22  1  0
 21 20  1  0
 23 22  1  0
 23 30  1  0
 23 24  1  0
 25 19  1  0
 25 24  1  0
 26 19  2  0
 27 28  2  0
 28 47  1  0
 29 28  1  0
 29 32  1  0
 30 31  1  0
 30 27  1  0
 31 29  2  0
 32 33  1  0
 33 34  2  0
 35 38  1  0
 35 34  1  0
 36 35  2  0
 37 36  1  0
 37 32  2  0
 38 39  1  0
 39 44  2  0
 39 40  1  0
 40 41  2  0
 41 42  1  0
 42 46  1  0
 43 42  2  0
 44 43  1  0
 45 44  1  0
 47 48  1  0
 48 51  1  0
 48 50  1  0
 49 47  2  0
 52 53  1  0
 52 27  1  0
 54 52  1  0
 56 58  1  0
 56 55  1  0
 57 68  2  0
 58 63  1  0
 59 67  1  0
 59 69  1  0
 60 66  1  0
 60 62  1  0
 61 67  1  0
 62 61  1  0
 63 62  2  0
 64 65  1  0
 64 58  2  0
 65 60  2  0
 66 59  1  0
 67 57  1  0
 69 71  2  0
 70 69  1  0
 72 70  1  0
 73 82  2  0
 73 78  1  0
 74 70  1  0
 74 78  1  0
 75 74  1  0
 76 77  1  0
 76 75  1  0
 77 73  1  0
 78 79  2  0
 79 80  1  0
 81 80  2  0
 82 81  1  0
 83 57  1  0
 83 88  1  0
 83 84  1  0
 84 87  1  1
 84 85  1  0
 86 84  1  0
 88 91  1  0
 89 93  1  0
 89 88  1  0
 90 89  2  0
 93 92  1  0
 95 93  1  0
 95 96  1  0
 95 94  1  0
M  ISO  4  13 100  19 100  55 101  56 101
M  END
>  <TORSDO>  (39) 
F 19

>  <SCORE>  (39) 
-10.546

>  <name>  (39) 
38

>  <ligand_id>  (39) 
38

>  <original_smiles>  (39) 
[H]C([H])=C1C([H])(C([H])([H])Oc2c([H])c([H])c3c(c2[H])C([H])([H])N(C(=O)C([H])(N([H])C(=O)C([H])(N([H])C([H])([H])[H])C([H])([H])[H])C(C([H])([H])[H])(C([H])([H])[H])C([H])([H])[H])C([H])(C(=O)N([H])C2([H])c4c([H])c([H])c([H])c([H])c4C([H])([H])C([H])([H])C2([H])[H])C3([H])[H])C([H])([H])C([H])([H])C([H])([H])C([H])([H])[N+]1([H])C([H])([H])c1c([H])c(C(=O)N2C([H])([H])C([H])([H])C([H])([H])C([H])(n3nc(-c4c([H])c([H])c(Oc5c([H])c([H])c(F)c([H])c5F)c([H])c4[H])c(C(=O)N([H])[H])c3N([H])[H])C2([H])[H])c([H])c(Cl)c1C([H])([H])[H]

>  <smiles>  (39) 
[H]C([H])=C1C([H])(C([H])([H])Oc2c([H])c([H])c3c(c2[H])C([H])([H])N(C(=O)C([H])(N([H])C(=O)C([H])(N([H])C([H])([H])[H])C([H])([H])[H])C(C([H])([H])[H])(C([H])([H])[H])C([H])([H])[H])C([H])(C(=O)N([H])C2([H])c4c([H])c([H])c([H])c([H])c4C([H])([H])C([H])([H])C2([H])[H])C3([H])[H])C([H])([H])C([H])([H])C([H])([H])C([H])([H])[N+]1([H])C([H])([H])c1c([H])c(C(=O)N2C([H])([H])C([H])([H])C([H])([H])C([H])(n3nc(-c4c([H])c([H])c(Oc5c([H])c([H])c(F)c([H])c5F)c([H])c4[H])c(C(=O)N([H])[H])c3N([H])[H])C2([H])[H])c([H])c(Cl)c1C([H])([H])[H]

$$$$
39:0:0
     RDKit          3D

 96105  0  0  1  0  0  0  0  0999 V2000
  -29.3470  -24.0130   19.7520 C   0  0  0  0  0  0  0  0  0  0  0  0
  -30.1650  -24.4370   18.7690 C   0  0  0  0  0  2  0  0  0  0  0  0
  -27.9670  -23.2010   22.1950 C   0  0  0  0  0  2  0  0  0  0  0  0
  -27.9440  -24.6930   21.8310 C   0  0  0  0  0  2  0  0  0  0  0  0
  -29.3400  -22.5880   21.8920 C   0  0  0  0  0  2  0  0  0  0  0  0
  -28.2030  -24.9480   20.3350 C   0  0  0  0  0  3  0  0  0  0  0  0
  -29.6390  -22.6140   20.4430 N   0  0  1  0  0  4  0  0  0  0  0  0
  -30.6470  -22.5600   20.4580 H   0  0  0  0  0  0  0  0  0  0  0  0
  -28.3560  -26.4380   20.1460 O   0  0  0  0  0  0  0  0  0  0  0  0
  -24.6260  -31.8720   23.2300 C   0  0  0  0  0  0  0  0  0  0  0  0
  -27.2260  -27.2920   20.1440 C   0  0  0  0  0  0  0  0  0  0  0  0
  -23.4130  -30.4770   21.5950 C   0  0  0  0  0  3  0  0  0  0  0  0
  -24.8540  -28.9200   20.1610 C   0  0  0  0  0  0  0  0  0  0  0  0
  -25.9540  -30.7860   21.3980 C   0  0  0  0  0  2  0  0  0  0  0  0
  -26.0320  -29.4050   20.7490 C   0  0  0  0  0  0  0  0  0  0  0  0
  -27.2180  -28.6040   20.7270 C   0  0  0  0  0  3  0  0  0  0  0  0
  -26.0220  -26.8720   19.5310 C   0  0  0  0  0  3  0  0  0  0  0  0
  -24.8540  -27.6590   19.5470 C   0  0  0  0  0  3  0  0  0  0  0  0
  -23.6170  -29.7970   20.2150 C   0  0  0  0  0  2  0  0  0  0  0  0
  -24.6830  -31.0630   22.1330 N   0  0  0  0  0  0  0  0  0  0  0  0
  -23.5460  -32.1490   23.7720 O   0  0  0  0  0  0  0  0  0  0  0  0
  -22.7500  -29.4610   22.5580 C   0  0  0  0  0  0  0  0  0  0  0  0
  -21.4240  -29.2820   22.4320 N   0  0  0  0  0  0  0  0  0  0  0  0
  -23.4290  -28.8390   23.3790 O   0  0  0  0  0  0  0  0  0  0  0  0
  -20.9350  -29.8370   21.7440 H   0  0  0  0  0  0  0  0  0  0  0  0
  -18.0490  -28.0750   22.9340 C   0  0  0  0  0  0  0  0  0  0  0  0
  -20.6060  -28.3440   23.2050 C   0  0  0  0  0  3  0  0  0  0  0  0
  -20.7140  -26.9110   22.6350 C   0  0  0  0  0  2  0  0  0  0  0  0
  -19.6140  -26.5820   21.6200 C   0  0  0  0  0  2  0  0  0  0  0  0
  -18.2300  -26.7240   22.2610 C   0  0  0  0  0  2  0  0  0  0  0  0
  -19.1660  -28.8420   23.3610 C   0  0  0  0  0  0  0  0  0  0  0  0
  -18.9440  -30.1040   23.9560 C   0  0  0  0  0  3  0  0  0  0  0  0
  -17.6360  -30.6000   24.1230 C   0  0  0  0  0  3  0  0  0  0  0  0
  -16.5330  -29.8310   23.7100 C   0  0  0  0  0  3  0  0  0  0  0  0
  -16.7420  -28.5700   23.1230 C   0  0  0  0  0  3  0  0  0  0  0  0
  -25.9110  -32.5020   23.8460 C   0  0  0  0  0  3  0  0  0  0  0  0
  -25.6020  -33.9000   24.1830 N   0  0  0  0  0  0  0  0  0  0  0  0
  -25.9270  -34.9560   23.4250 C   0  0  0  0  0  0  0  0  0  0  0  0
  -26.5850  -34.8570   22.3860 O   0  0  0  0  0  0  0  0  0  0  0  0
  -25.0190  -34.0510   24.9920 H   0  0  0  0  0  0  0  0  0  0  0  0
  -24.1910  -36.7500   23.0990 C   0  0  0  0  0  1  0  0  0  0  0  0
  -25.4450  -36.3460   23.8920 C   0  0  0  0  0  3  0  0  0  0  0  0
  -27.5930  -37.2250   24.6940 C   0  0  0  0  0  1  0  0  0  0  0  0
  -26.4740  -37.4010   23.7710 N   0  0  0  0  0  0  0  0  0  0  0  0
  -26.0690  -38.3180   23.9340 H   0  0  0  0  0  0  0  0  0  0  0  0
  -26.4310  -31.7310   25.1210 C   0  0  1  0  0  0  0  0  0  0  0  0
  -25.3410  -31.4950   26.1940 C   0  0  0  0  0  1  0  0  0  0  0  0
  -27.0090  -30.3510   24.7270 C   0  0  0  0  0  1  0  0  0  0  0  0
  -27.5870  -32.5200   25.7770 C   0  0  0  0  0  1  0  0  0  0  0  0
  -29.3300  -21.2640   19.7550 C   0  0  0  0  0  2  0  0  0  0  0  0
  -29.6960  -18.6120   20.2750 C   0  0  0  0  0  3  0  0  0  0  0  0
  -31.9050  -17.6520   20.4230 C   0  0  0  0  0  3  0  0  0  0  0  0
  -30.2310  -19.9550   20.0300 C   0  0  0  0  0  0  0  0  0  0  0  0
  -31.6450  -20.0480   19.8950 C   0  0  0  0  0  0  0  0  0  0  0  0
  -30.5100  -17.4070   20.4210 C   0  0  0  0  0  0  0  0  0  0  0  0
  -32.4610  -18.9160   20.1510 C   0  0  0  0  0  0  0  0  0  0  0  0
  -32.2950  -21.3400   19.3960 C   0  0  0  0  0  1  0  0  0  0  0  0
  -34.1920  -19.0150   20.1000 Cl  0  0  0  0  0  0  0  0  0  0  0  0
  -30.6300  -14.7710   20.3600 C   0  0  0  0  0  0  0  0  0  0  0  0
  -30.3170  -12.4900   19.3830 C   0  0  0  0  0  2  0  0  0  0  0  0
  -29.4000  -12.5720   18.1460 C   0  0  0  0  0  2  0  0  0  0  0  0
  -27.9270  -12.4250   18.5640 C   0  0  0  0  0  2  0  0  0  0  0  0
  -27.5540  -13.3170   19.7790 C   0  0  0  0  0  3  0  0  0  0  0  0
  -28.6130  -13.2690   20.9040 C   0  0  0  0  0  2  0  0  0  0  0  0
  -29.9160  -13.5870   20.3020 N   0  0  0  0  0  0  0  0  0  0  0  0
  -31.8160  -14.7390   20.0300 O   0  0  0  0  0  0  0  0  0  0  0  0
  -29.9920  -15.9970   20.5680 N   0  0  0  0  0  0  0  0  0  0  0  0
  -29.0060  -15.9180   20.7650 H   0  0  0  0  0  0  0  0  0  0  0  0
  -25.1630  -13.9080   20.4910 C   0  0  0  0  0  0  0  0  0  0  0  0
  -24.0940  -13.1370   20.8580 C   0  0  0  0  0  0  0  0  0  0  0  0
  -24.5540  -11.7840   20.8390 C   0  0  0  0  0  0  0  0  0  0  0  0
  -26.2090  -13.0260   20.2680 N   0  0  0  0  0  0  0  0  0  0  0  0
  -25.8490  -11.7440   20.5410 N   0  0  0  0  0  0  0  0  0  0  0  0
  -23.8210  -10.5260   21.0290 C   0  0  0  0  0  0  0  0  0  0  0  0
  -24.2460   -9.5560   21.9640 C   0  0  0  0  0  3  0  0  0  0  0  0
  -23.5110   -8.3650   22.1470 C   0  0  0  0  0  3  0  0  0  0  0  0
  -22.3370   -8.1330   21.3910 C   0  0  0  0  0  0  0  0  0  0  0  0
  -21.9320   -9.0900   20.4440 C   0  0  0  0  0  3  0  0  0  0  0  0
  -22.6670  -10.2730   20.2610 C   0  0  0  0  0  3  0  0  0  0  0  0
  -21.5740   -6.9930   21.4820 O   0  0  0  0  0  0  0  0  0  0  0  0
  -21.5250   -6.2470   22.6320 C   0  0  0  0  0  0  0  0  0  0  0  0
  -21.1140   -6.8030   23.8630 C   0  0  0  0  0  3  0  0  0  0  0  0
  -21.0130   -5.9850   25.0060 C   0  0  0  0  0  3  0  0  0  0  0  0
  -21.3120   -4.6120   24.9190 C   0  0  0  0  0  0  0  0  0  0  0  0
  -21.7150   -4.0550   23.6910 C   0  0  0  0  0  3  0  0  0  0  0  0
  -21.8160   -4.8710   22.5510 C   0  0  0  0  0  0  0  0  0  0  0  0
  -22.1870   -4.3250   21.3660 F   0  0  0  0  0  0  0  0  0  0  0  0
  -21.2060   -3.8240   26.0130 F   0  0  0  0  0  0  0  0  0  0  0  0
  -22.6950  -13.6200   21.1130 C   0  0  0  0  0  0  0  0  0  0  0  0
  -21.9580  -12.9320   21.9760 N   0  0  0  0  0  0  0  0  0  0  0  0
  -22.2650  -14.6440   20.5810 O   0  0  0  0  0  0  0  0  0  0  0  0
  -22.3180  -12.1040   22.4290 H   0  0  0  0  0  0  0  0  0  0  0  0
  -21.0180  -13.2340   22.1890 H   0  0  0  0  0  0  0  0  0  0  0  0
  -25.3270  -15.2770   20.3040 N   0  0  0  0  0  0  0  0  0  0  0  0
  -24.5550  -15.9270   20.3960 H   0  0  0  0  0  0  0  0  0  0  0  0
  -26.1670  -15.7120   19.9480 H   0  0  0  0  0  0  0  0  0  0  0  0
  1  6  1  0
  1  7  1  0
  2  1  2  0
  4  3  1  0
  5  3  1  0
  6  9  1  0
  6  4  1  0
  7  8  1  1
  7  5  1  0
 10 21  2  0
 11  9  1  0
 11 16  1  0
 12 20  1  0
 12 22  1  0
 13 19  1  0
 13 15  1  0
 14 20  1  0
 15 14  1  0
 16 15  2  0
 17 18  1  0
 17 11  2  0
 18 13  2  0
 19 12  1  0
 20 10  1  0
 22 24  2  0
 23 22  1  0
 25 23  1  0
 26 35  2  0
 26 31  1  0
 27 23  1  0
 27 31  1  0
 28 27  1  0
 29 30  1  0
 29 28  1  0
 30 26  1  0
 31 32  2  0
 32 33  1  0
 34 33  2  0
 35 34  1  0
 36 10  1  0
 36 37  1  0
 36 46  1  0
 37 40  1  0
 38 42  1  0
 38 37  1  0
 39 38  2  0
 42 41  1  0
 44 42  1  0
 44 45  1  0
 44 43  1  0
 46 49  1  1
 46 47  1  0
 48 46  1  0
 50 53  1  0
 50  7  1  0
 51 55  1  0
 53 51  2  0
 54 53  1  0
 54 56  2  0
 55 52  2  0
 55 67  1  0
 56 52  1  0
 57 54  1  0
 58 56  1  0
 59 67  1  0
 60 65  1  0
 61 62  1  0
 61 60  1  0
 63 62  1  0
 63 72  1  0
 63 64  1  0
 65 59  1  0
 65 64  1  0
 66 59  2  0
 67 68  1  0
 69 70  2  0
 70 89  1  0
 71 70  1  0
 71 74  1  0
 72 69  1  0
 72 73  1  0
 73 71  2  0
 74 75  1  0
 75 76  2  0
 77 80  1  0
 77 76  1  0
 78 77  2  0
 79 78  1  0
 79 74  2  0
 80 81  1  0
 81 82  1  0
 82 83  2  0
 84 83  1  0
 84 88  1  0
 85 84  2  0
 86 81  2  0
 86 85  1  0
 87 86  1  0
 89 90  1  0
 90 93  1  0
 90 92  1  0
 91 89  2  0
 94 95  1  0
 94 69  1  0
 96 94  1  0
M  ISO  4   6 101   9 101  59 100  67 100
M  END
>  <TORSDO>  (40) 
F 18

>  <SCORE>  (40) 
-14.678

>  <name>  (40) 
39

>  <ligand_id>  (40) 
39

>  <original_smiles>  (40) 
[H]C([H])=C1C([H])(Oc2c([H])c([H])c3c(c2[H])C([H])([H])N(C(=O)C([H])(N([H])C(=O)C([H])(N([H])C([H])([H])[H])C([H])([H])[H])C(C([H])([H])[H])(C([H])([H])[H])C([H])([H])[H])C([H])(C(=O)N([H])C2([H])c4c([H])c([H])c([H])c([H])c4C([H])([H])C([H])([H])C2([H])[H])C3([H])[H])C([H])([H])C([H])([H])C([H])([H])[N+]1([H])C([H])([H])c1c([H])c(N([H])C(=O)N2C([H])([H])C([H])([H])C([H])([H])C([H])(n3nc(-c4c([H])c([H])c(Oc5c([H])c([H])c(F)c([H])c5F)c([H])c4[H])c(C(=O)N([H])[H])c3N([H])[H])C2([H])[H])c([H])c(Cl)c1C([H])([H])[H]

>  <smiles>  (40) 
[H]C([H])=C1C([H])(Oc2c([H])c([H])c3c(c2[H])C([H])([H])N(C(=O)C([H])(N([H])C(=O)C([H])(N([H])C([H])([H])[H])C([H])([H])[H])C(C([H])([H])[H])(C([H])([H])[H])C([H])([H])[H])C([H])(C(=O)N([H])C2([H])c4c([H])c([H])c([H])c([H])c4C([H])([H])C([H])([H])C2([H])[H])C3([H])[H])C([H])([H])C([H])([H])C([H])([H])[N+]1([H])C([H])([H])c1c([H])c(N([H])C(=O)N2C([H])([H])C([H])([H])C([H])([H])C([H])(n3nc(-c4c([H])c([H])c(Oc5c([H])c([H])c(F)c([H])c5F)c([H])c4[H])c(C(=O)N([H])[H])c3N([H])[H])C2([H])[H])c([H])c(Cl)c1C([H])([H])[H]

$$$$
40:0:0
     RDKit          3D

 95103  0  0  1  0  0  0  0  0999 V2000
  -29.0660  -21.3060   21.6570 C   0  0  0  0  0  2  0  0  0  0  0  0
  -29.9330  -19.2310   20.4770 C   0  0  0  0  0  3  0  0  0  0  0  0
  -32.4570  -19.4580   21.6770 C   0  0  0  0  0  3  0  0  0  0  0  0
  -30.1810  -20.2980   21.3720 C   0  0  0  0  0  0  0  0  0  0  0  0
  -30.9370  -18.2830   20.1670 C   0  0  0  0  0  0  0  0  0  0  0  0
  -31.4580  -20.4090   21.9790 C   0  0  0  0  0  0  0  0  0  0  0  0
  -32.2080  -18.4060   20.7740 C   0  0  0  0  0  0  0  0  0  0  0  0
  -31.7870  -21.5230   22.9630 C   0  0  0  0  0  1  0  0  0  0  0  0
  -33.4910  -17.3070   20.4100 Cl  0  0  0  0  0  0  0  0  0  0  0  0
  -30.6500  -17.2080   19.1210 C   0  0  0  0  0  2  0  0  0  0  0  0
  -31.0290  -14.7860   19.3760 C   0  0  0  0  0  0  0  0  0  0  0  0
  -30.9020  -12.3470   19.0750 C   0  0  0  0  0  2  0  0  0  0  0  0
  -29.9380  -12.0320   17.9130 C   0  0  0  0  0  2  0  0  0  0  0  0
  -28.4880  -11.9340   18.4220 C   0  0  0  0  0  2  0  0  0  0  0  0
  -28.0820  -13.1410   19.3100 C   0  0  0  0  0  3  0  0  0  0  0  0
  -29.1590  -13.4240   20.3820 C   0  0  0  0  0  2  0  0  0  0  0  0
  -30.4520  -13.6000   19.6990 N   0  0  0  0  0  0  0  0  0  0  0  0
  -32.0950  -14.8680   18.7620 O   0  0  0  0  0  0  0  0  0  0  0  0
  -30.3050  -15.8830   19.6430 N   0  0  0  0  0  0  0  0  0  0  0  0
  -29.4240  -15.7710   20.1210 H   0  0  0  0  0  0  0  0  0  0  0  0
  -25.8170  -13.8870   20.2820 C   0  0  0  0  0  0  0  0  0  0  0  0
  -24.7340  -13.1750   20.7250 C   0  0  0  0  0  0  0  0  0  0  0  0
  -25.0850  -11.7970   20.5900 C   0  0  0  0  0  0  0  0  0  0  0  0
  -26.7640  -12.9440   19.9100 N   0  0  0  0  0  0  0  0  0  0  0  0
  -26.3310  -11.6800   20.1500 N   0  0  0  0  0  0  0  0  0  0  0  0
  -24.2860  -10.5830   20.8010 C   0  0  0  0  0  0  0  0  0  0  0  0
  -24.6530   -9.6140   21.7610 C   0  0  0  0  0  3  0  0  0  0  0  0
  -23.8590   -8.4630   21.9570 C   0  0  0  0  0  3  0  0  0  0  0  0
  -22.6820   -8.2750   21.1950 C   0  0  0  0  0  0  0  0  0  0  0  0
  -22.3330   -9.2310   20.2250 C   0  0  0  0  0  3  0  0  0  0  0  0
  -23.1270  -10.3730   20.0270 C   0  0  0  0  0  3  0  0  0  0  0  0
  -21.8640   -7.1760   21.2990 O   0  0  0  0  0  0  0  0  0  0  0  0
  -21.6470   -6.5520   22.5000 C   0  0  0  0  0  0  0  0  0  0  0  0
  -21.0880   -7.2320   23.6040 C   0  0  0  0  0  3  0  0  0  0  0  0
  -20.8180   -6.5360   24.7990 C   0  0  0  0  0  3  0  0  0  0  0  0
  -21.0950   -5.1580   24.8890 C   0  0  0  0  0  0  0  0  0  0  0  0
  -21.6470   -4.4770   23.7890 C   0  0  0  0  0  3  0  0  0  0  0  0
  -21.9190   -5.1710   22.5970 C   0  0  0  0  0  0  0  0  0  0  0  0
  -22.4310   -4.5070   21.5340 F   0  0  0  0  0  0  0  0  0  0  0  0
  -20.8280   -4.4860   26.0330 F   0  0  0  0  0  0  0  0  0  0  0  0
  -23.4120  -13.7380   21.1600 C   0  0  0  0  0  0  0  0  0  0  0  0
  -22.7410  -13.0750   22.0960 N   0  0  0  0  0  0  0  0  0  0  0  0
  -22.9890  -14.8000   20.7060 O   0  0  0  0  0  0  0  0  0  0  0  0
  -23.0980  -12.2150   22.4850 H   0  0  0  0  0  0  0  0  0  0  0  0
  -21.8580  -13.4340   22.4300 H   0  0  0  0  0  0  0  0  0  0  0  0
  -26.0680  -15.2490   20.1470 N   0  0  0  0  0  0  0  0  0  0  0  0
  -25.3660  -15.9500   20.3610 H   0  0  0  0  0  0  0  0  0  0  0  0
  -26.9160  -15.6430   19.7600 H   0  0  0  0  0  0  0  0  0  0  0  0
  -29.1900  -22.5090   20.8060 N   0  0  0  0  0  4  0  0  0  0  0  0
  -29.1710  -22.2110   19.8450 H   0  0  0  0  0  0  0  0  0  0  0  0
  -30.0900  -22.9260   20.9760 H   0  0  0  0  0  0  0  0  0  0  0  0
  -28.1510  -23.5420   21.0350 C   0  0  0  0  0  2  0  0  0  0  0  0
  -28.1120  -24.6220   19.9320 C   0  0  0  0  0  2  0  0  0  0  0  0
  -27.4650  -25.9260   20.4330 C   0  0  0  0  0  2  0  0  0  0  0  0
  -27.3750  -26.9040   19.3940 O   0  0  0  0  0  0  0  0  0  0  0  0
  -24.7300  -31.8910   23.6880 C   0  0  0  0  0  0  0  0  0  0  0  0
  -26.3550  -27.7880   19.6270 C   0  0  0  0  0  0  0  0  0  0  0  0
  -23.1490  -30.9240   22.0480 C   0  0  0  0  0  3  0  0  0  0  0  0
  -24.1960  -29.4960   20.2090 C   0  0  0  0  0  0  0  0  0  0  0  0
  -25.6500  -31.0400   21.5370 C   0  0  0  0  0  2  0  0  0  0  0  0
  -25.4760  -29.7950   20.6960 C   0  0  0  0  0  0  0  0  0  0  0  0
  -26.5630  -28.9460   20.4030 C   0  0  0  0  0  3  0  0  0  0  0  0
  -25.0690  -27.4980   19.1340 C   0  0  0  0  0  3  0  0  0  0  0  0
  -23.9850  -28.3470   19.4250 C   0  0  0  0  0  3  0  0  0  0  0  0
  -23.0900  -30.4640   20.5660 C   0  0  0  0  0  2  0  0  0  0  0  0
  -24.5370  -31.2880   22.4820 N   0  0  0  0  0  0  0  0  0  0  0  0
  -23.7740  -32.1880   24.4170 O   0  0  0  0  0  0  0  0  0  0  0  0
  -22.4970  -29.8350   22.9300 C   0  0  0  0  0  0  0  0  0  0  0  0
  -21.1820  -29.6310   22.7520 N   0  0  0  0  0  0  0  0  0  0  0  0
  -23.1720  -29.1790   23.7300 O   0  0  0  0  0  0  0  0  0  0  0  0
  -20.6990  -30.2220   22.0880 H   0  0  0  0  0  0  0  0  0  0  0  0
  -17.9040  -28.1160   22.8400 C   0  0  0  0  0  0  0  0  0  0  0  0
  -20.3630  -28.6350   23.4420 C   0  0  0  0  0  3  0  0  0  0  0  0
  -20.6800  -27.2070   22.9380 C   0  0  0  0  0  2  0  0  0  0  0  0
  -19.7630  -26.7520   21.7980 C   0  0  0  0  0  2  0  0  0  0  0  0
  -18.3000  -26.7750   22.2470 C   0  0  0  0  0  2  0  0  0  0  0  0
  -18.8740  -28.9950   23.3870 C   0  0  0  0  0  0  0  0  0  0  0  0
  -18.4600  -30.2450   23.8940 C   0  0  0  0  0  3  0  0  0  0  0  0
  -17.1020  -30.6190   23.8640 C   0  0  0  0  0  3  0  0  0  0  0  0
  -16.1430  -29.7380   23.3380 C   0  0  0  0  0  3  0  0  0  0  0  0
  -16.5430  -28.4880   22.8320 C   0  0  0  0  0  3  0  0  0  0  0  0
  -26.1590  -32.2610   24.2010 C   0  0  0  0  0  3  0  0  0  0  0  0
  -26.1240  -33.6640   24.6310 N   0  0  0  0  0  0  0  0  0  0  0  0
  -26.6010  -34.6910   23.9140 C   0  0  0  0  0  0  0  0  0  0  0  0
  -27.1870  -34.5420   22.8370 O   0  0  0  0  0  0  0  0  0  0  0  0
  -25.6080  -33.8640   25.4750 H   0  0  0  0  0  0  0  0  0  0  0  0
  -25.1960  -36.7710   23.7810 C   0  0  0  0  0  1  0  0  0  0  0  0
  -26.3940  -36.1090   24.4780 C   0  0  0  0  0  3  0  0  0  0  0  0
  -28.6980  -36.5540   25.1990 C   0  0  0  0  0  1  0  0  0  0  0  0
  -27.5870  -36.9730   24.3490 N   0  0  0  0  0  0  0  0  0  0  0  0
  -27.3630  -37.9370   24.5760 H   0  0  0  0  0  0  0  0  0  0  0  0
  -26.6610  -31.3290   25.3710 C   0  0  1  0  0  0  0  0  0  0  0  0
  -25.6470  -31.1870   26.5310 C   0  0  0  0  0  1  0  0  0  0  0  0
  -26.9760  -29.9110   24.8370 C   0  0  0  0  0  1  0  0  0  0  0  0
  -27.9800  -31.8880   25.9550 C   0  0  0  0  0  1  0  0  0  0  0  0
  2  4  1  0
  3  6  1  0
  4  1  1  0
  4  6  2  0
  5  2  2  0
  5  7  1  0
  6  8  1  0
  7  3  2  0
  9  7  1  0
 10 19  1  0
 10  5  1  0
 11 19  1  0
 11 17  1  0
 12 17  1  0
 13 14  1  0
 13 12  1  0
 15 14  1  0
 15 24  1  0
 15 16  1  0
 17 16  1  0
 18 11  2  0
 19 20  1  0
 21 22  2  0
 22 41  1  0
 23 22  1  0
 23 26  1  0
 24 25  1  0
 24 21  1  0
 25 23  2  0
 26 27  1  0
 27 28  2  0
 29 32  1  0
 29 28  1  0
 30 29  2  0
 31 30  1  0
 31 26  2  0
 32 33  1  0
 33 38  2  0
 33 34  1  0
 34 35  2  0
 35 36  1  0
 36 40  1  0
 37 36  2  0
 38 37  1  0
 39 38  1  0
 41 42  1  0
 42 45  1  0
 42 44  1  0
 43 41  2  0
 46 21  1  0
 46 47  1  0
 48 46  1  0
 49 51  1  0
 49 52  1  0
 49  1  1  0
 50 49  1  0
 53 54  1  0
 53 52  1  0
 55 57  1  0
 55 54  1  0
 56 67  2  0
 57 62  1  0
 58 66  1  0
 58 68  1  0
 59 65  1  0
 59 61  1  0
 60 66  1  0
 61 60  1  0
 62 61  2  0
 63 64  1  0
 63 57  2  0
 64 59  2  0
 65 58  1  0
 66 56  1  0
 68 70  2  0
 69 68  1  0
 71 69  1  0
 72 77  1  0
 73 69  1  0
 74 73  1  0
 75 76  1  0
 75 74  1  0
 76 72  1  0
 77 73  1  0
 77 78  2  0
 79 78  1  0
 80 79  2  0
 81 72  2  0
 81 80  1  0
 82 56  1  0
 82 83  1  0
 82 92  1  0
 83 86  1  0
 84 88  1  0
 84 83  1  0
 85 84  2  0
 88 87  1  0
 90 88  1  0
 90 91  1  0
 90 89  1  0
 92 95  1  1
 92 93  1  0
 94 92  1  0
M  ISO  4  11 100  19 100  54 101  55 101
M  END
>  <TORSDO>  (41) 
F 22

>  <SCORE>  (41) 
-11.503

>  <name>  (41) 
40

>  <ligand_id>  (41) 
40

>  <original_smiles>  (41) 
[H]c1c([H])c([H])c2c(c1[H])C([H])([H])C([H])([H])C([H])([H])C2([H])N([H])C(=O)C1([H])N(C(=O)C([H])(N([H])C(=O)C([H])(N([H])C([H])([H])[H])C([H])([H])[H])C(C([H])([H])[H])(C([H])([H])[H])C([H])([H])[H])C([H])([H])c2c([H])c(OC([H])([H])C([H])([H])C([H])([H])[N+]([H])([H])C([H])([H])c3c([H])c(C([H])([H])N([H])C(=O)N4C([H])([H])C([H])([H])C([H])([H])C([H])(n5nc(-c6c([H])c([H])c(Oc7c([H])c([H])c(F)c([H])c7F)c([H])c6[H])c(C(=O)N([H])[H])c5N([H])[H])C4([H])[H])c(Cl)c([H])c3C([H])([H])[H])c([H])c([H])c2C1([H])[H]

>  <smiles>  (41) 
[H]c1c([H])c([H])c2c(c1[H])C([H])([H])C([H])([H])C([H])([H])C2([H])N([H])C(=O)C1([H])N(C(=O)C([H])(N([H])C(=O)C([H])(N([H])C([H])([H])[H])C([H])([H])[H])C(C([H])([H])[H])(C([H])([H])[H])C([H])([H])[H])C([H])([H])c2c([H])c(OC([H])([H])C([H])([H])C([H])([H])[N+]([H])([H])C([H])([H])c3c([H])c(C([H])([H])N([H])C(=O)N4C([H])([H])C([H])([H])C([H])([H])C([H])(n5nc(-c6c([H])c([H])c(Oc7c([H])c([H])c(F)c([H])c7F)c([H])c6[H])c(C(=O)N([H])[H])c5N([H])[H])C4([H])[H])c(Cl)c([H])c3C([H])([H])[H])c([H])c([H])c2C1([H])[H]

$$$$
41:0:0
     RDKit          3D

 95103  0  0  1  0  0  0  0  0999 V2000
  -29.3060  -20.4100   21.2740 C   0  0  0  0  0  3  0  0  0  0  0  0
  -29.5040  -21.5430   21.9780 C   0  0  0  0  0  3  0  0  0  0  0  0
  -31.6660  -19.6170   21.0170 C   0  0  0  0  0  3  0  0  0  0  0  0
  -32.1980  -17.2760   20.6270 C   0  0  0  0  0  3  0  0  0  0  0  0
  -30.2850  -19.3180   21.0670 C   0  0  0  0  0  0  0  0  0  0  0  0
  -29.8680  -17.9620   20.9440 C   0  0  0  0  0  0  0  0  0  0  0  0
  -30.8270  -16.9430   20.6900 C   0  0  0  0  0  0  0  0  0  0  0  0
  -32.6160  -18.6070   20.7970 C   0  0  0  0  0  0  0  0  0  0  0  0
  -28.3870  -17.6070   21.0590 C   0  0  0  0  0  1  0  0  0  0  0  0
  -34.2950  -19.0020   20.7310 Cl  0  0  0  0  0  0  0  0  0  0  0  0
  -30.9650  -14.6400   19.7760 C   0  0  0  0  0  0  0  0  0  0  0  0
  -30.6020  -12.4260   18.7480 C   0  0  0  0  0  2  0  0  0  0  0  0
  -29.5820  -12.5230   17.5960 C   0  0  0  0  0  2  0  0  0  0  0  0
  -28.1420  -12.3980   18.1270 C   0  0  0  0  0  2  0  0  0  0  0  0
  -27.8680  -13.3310   19.3370 C   0  0  0  0  0  3  0  0  0  0  0  0
  -28.9870  -13.1960   20.3930 C   0  0  0  0  0  2  0  0  0  0  0  0
  -30.2780  -13.4680   19.7320 N   0  0  0  0  0  0  0  0  0  0  0  0
  -31.9890  -14.8440   19.1170 O   0  0  0  0  0  0  0  0  0  0  0  0
  -30.4140  -15.5870   20.5550 N   0  0  0  0  0  0  0  0  0  0  0  0
  -29.5230  -15.3410   20.9570 H   0  0  0  0  0  0  0  0  0  0  0  0
  -25.5500  -13.9850   20.2510 C   0  0  0  0  0  0  0  0  0  0  0  0
  -24.4940  -13.2320   20.6890 C   0  0  0  0  0  0  0  0  0  0  0  0
  -24.9100  -11.8690   20.5800 C   0  0  0  0  0  0  0  0  0  0  0  0
  -26.5480  -13.0830   19.9120 N   0  0  0  0  0  0  0  0  0  0  0  0
  -26.1680  -11.8030   20.1640 N   0  0  0  0  0  0  0  0  0  0  0  0
  -24.1640  -10.6220   20.7930 C   0  0  0  0  0  0  0  0  0  0  0  0
  -24.5720   -9.6740   21.7560 C   0  0  0  0  0  3  0  0  0  0  0  0
  -23.8280   -8.4900   21.9550 C   0  0  0  0  0  3  0  0  0  0  0  0
  -22.6630   -8.2480   21.1890 C   0  0  0  0  0  0  0  0  0  0  0  0
  -22.2750   -9.1850   20.2160 C   0  0  0  0  0  3  0  0  0  0  0  0
  -23.0190  -10.3590   20.0150 C   0  0  0  0  0  3  0  0  0  0  0  0
  -21.8930   -7.1160   21.2960 O   0  0  0  0  0  0  0  0  0  0  0  0
  -21.7140   -6.4760   22.4970 C   0  0  0  0  0  0  0  0  0  0  0  0
  -21.1530   -7.1330   23.6140 C   0  0  0  0  0  3  0  0  0  0  0  0
  -20.9240   -6.4190   24.8070 C   0  0  0  0  0  3  0  0  0  0  0  0
  -21.2430   -5.0500   24.8840 C   0  0  0  0  0  0  0  0  0  0  0  0
  -21.7970   -4.3940   23.7700 C   0  0  0  0  0  3  0  0  0  0  0  0
  -22.0280   -5.1040   22.5790 C   0  0  0  0  0  0  0  0  0  0  0  0
  -22.5420   -4.4620   21.5020 F   0  0  0  0  0  0  0  0  0  0  0  0
  -21.0160   -4.3630   26.0270 F   0  0  0  0  0  0  0  0  0  0  0  0
  -23.1390  -13.7390   21.0910 C   0  0  0  0  0  0  0  0  0  0  0  0
  -22.4750  -13.0490   22.0120 N   0  0  0  0  0  0  0  0  0  0  0  0
  -22.6810  -14.7800   20.6230 O   0  0  0  0  0  0  0  0  0  0  0  0
  -22.8610  -12.2060   22.4120 H   0  0  0  0  0  0  0  0  0  0  0  0
  -21.5690  -13.3700   22.3230 H   0  0  0  0  0  0  0  0  0  0  0  0
  -25.7380  -15.3540   20.0920 N   0  0  0  0  0  0  0  0  0  0  0  0
  -24.9890  -16.0190   20.2580 H   0  0  0  0  0  0  0  0  0  0  0  0
  -26.5460  -15.7700   19.6510 H   0  0  0  0  0  0  0  0  0  0  0  0
  -28.4690  -22.6450   22.1240 C   0  0  0  0  0  2  0  0  0  0  0  0
  -29.0370  -23.9660   21.7800 N   0  0  0  0  0  4  0  0  0  0  0  0
  -29.7270  -23.8320   21.0560 H   0  0  0  0  0  0  0  0  0  0  0  0
  -29.5150  -24.3330   22.5890 H   0  0  0  0  0  0  0  0  0  0  0  0
  -28.0350  -24.9490   21.2960 C   0  0  0  0  0  2  0  0  0  0  0  0
  -28.6500  -26.3300   20.9850 C   0  0  0  0  0  2  0  0  0  0  0  0
  -28.0670  -26.8710   19.8030 O   0  0  0  0  0  0  0  0  0  0  0  0
  -24.4900  -32.0180   23.2170 C   0  0  0  0  0  0  0  0  0  0  0  0
  -26.9130  -27.5930   19.9670 C   0  0  0  0  0  0  0  0  0  0  0  0
  -23.1780  -30.6480   21.6260 C   0  0  0  0  0  3  0  0  0  0  0  0
  -24.5350  -29.1000   20.1220 C   0  0  0  0  0  0  0  0  0  0  0  0
  -25.6900  -30.9800   21.3000 C   0  0  0  0  0  2  0  0  0  0  0  0
  -25.7250  -29.6100   20.6590 C   0  0  0  0  0  0  0  0  0  0  0  0
  -26.9180  -28.8600   20.5880 C   0  0  0  0  0  3  0  0  0  0  0  0
  -25.7130  -27.0900   19.4270 C   0  0  0  0  0  3  0  0  0  0  0  0
  -24.5210  -27.8340   19.5090 C   0  0  0  0  0  3  0  0  0  0  0  0
  -23.3060  -29.9730   20.2340 C   0  0  0  0  0  2  0  0  0  0  0  0
  -24.4730  -31.2290   22.1060 N   0  0  0  0  0  0  0  0  0  0  0  0
  -23.4430  -32.3010   23.8160 O   0  0  0  0  0  0  0  0  0  0  0  0
  -22.5630  -29.6280   22.6100 C   0  0  0  0  0  0  0  0  0  0  0  0
  -21.2420  -29.4140   22.5020 N   0  0  0  0  0  0  0  0  0  0  0  0
  -23.2710  -29.0290   23.4250 O   0  0  0  0  0  0  0  0  0  0  0  0
  -20.7320  -29.9510   21.8130 H   0  0  0  0  0  0  0  0  0  0  0  0
  -17.9130  -28.1070   23.0050 C   0  0  0  0  0  0  0  0  0  0  0  0
  -20.4550  -28.4700   23.2940 C   0  0  0  0  0  3  0  0  0  0  0  0
  -20.6190  -27.0270   22.7650 C   0  0  0  0  0  2  0  0  0  0  0  0
  -19.5410  -26.6300   21.7510 C   0  0  0  0  0  2  0  0  0  0  0  0
  -18.1480  -26.7440   22.3770 C   0  0  0  0  0  2  0  0  0  0  0  0
  -18.9970  -28.9250   23.4210 C   0  0  0  0  0  0  0  0  0  0  0  0
  -18.7250  -30.1990   23.9660 C   0  0  0  0  0  3  0  0  0  0  0  0
  -17.4010  -30.6570   24.1010 C   0  0  0  0  0  3  0  0  0  0  0  0
  -16.3300  -29.8370   23.7020 C   0  0  0  0  0  3  0  0  0  0  0  0
  -16.5870  -28.5640   23.1600 C   0  0  0  0  0  3  0  0  0  0  0  0
  -25.8170  -32.6210   23.7740 C   0  0  0  0  0  3  0  0  0  0  0  0
  -25.5490  -34.0190   24.1380 N   0  0  0  0  0  0  0  0  0  0  0  0
  -25.8780  -35.0760   23.3830 C   0  0  0  0  0  0  0  0  0  0  0  0
  -26.5120  -34.9750   22.3290 O   0  0  0  0  0  0  0  0  0  0  0  0
  -24.9860  -34.1720   24.9610 H   0  0  0  0  0  0  0  0  0  0  0  0
  -24.1790  -36.9080   23.1050 C   0  0  0  0  0  1  0  0  0  0  0  0
  -25.4330  -36.4660   23.8760 C   0  0  0  0  0  3  0  0  0  0  0  0
  -27.6080  -37.2910   24.6620 C   0  0  0  0  0  1  0  0  0  0  0  0
  -26.4840  -37.4980   23.7520 N   0  0  0  0  0  0  0  0  0  0  0  0
  -26.1030  -38.4250   23.9270 H   0  0  0  0  0  0  0  0  0  0  0  0
  -26.3940  -31.8230   25.0080 C   0  0  1  0  0  0  0  0  0  0  0  0
  -25.3510  -31.5610   26.1200 C   0  0  0  0  0  1  0  0  0  0  0  0
  -26.9580  -30.4570   24.5550 C   0  0  0  0  0  1  0  0  0  0  0  0
  -27.5740  -32.6050   25.6320 C   0  0  0  0  0  1  0  0  0  0  0  0
  1  2  2  0
  2 49  1  0
  3  5  1  0
  4  7  2  0
  4  8  1  0
  5  1  1  0
  6  9  1  0
  6  5  2  0
  7  6  1  0
  8  3  2  0
 10  8  1  0
 11 19  1  0
 12 17  1  0
 13 14  1  0
 13 12  1  0
 15 14  1  0
 15 24  1  0
 15 16  1  0
 17 11  1  0
 17 16  1  0
 18 11  2  0
 19  7  1  0
 19 20  1  0
 21 22  2  0
 22 41  1  0
 23 22  1  0
 23 26  1  0
 24 25  1  0
 24 21  1  0
 25 23  2  0
 26 27  1  0
 27 28  2  0
 29 32  1  0
 29 28  1  0
 30 29  2  0
 31 30  1  0
 31 26  2  0
 32 33  1  0
 33 38  2  0
 33 34  1  0
 34 35  2  0
 35 36  1  0
 36 40  1  0
 37 36  2  0
 38 37  1  0
 39 38  1  0
 41 42  1  0
 42 45  1  0
 42 44  1  0
 43 41  2  0
 46 21  1  0
 46 47  1  0
 48 46  1  0
 50 49  1  0
 50 52  1  0
 51 50  1  0
 53 50  1  0
 54 53  1  0
 55 57  1  0
 55 54  1  0
 56 67  2  0
 57 62  1  0
 58 66  1  0
 58 68  1  0
 59 65  1  0
 59 61  1  0
 60 66  1  0
 61 60  1  0
 62 61  2  0
 63 64  1  0
 63 57  2  0
 64 59  2  0
 65 58  1  0
 66 56  1  0
 68 70  2  0
 69 68  1  0
 71 69  1  0
 72 81  2  0
 72 77  1  0
 73 69  1  0
 73 77  1  0
 74 73  1  0
 75 76  1  0
 75 74  1  0
 76 72  1  0
 77 78  2  0
 78 79  1  0
 80 79  2  0
 81 80  1  0
 82 56  1  0
 82 83  1  0
 82 92  1  0
 83 86  1  0
 84 88  1  0
 84 83  1  0
 85 84  2  0
 88 87  1  0
 90 88  1  0
 90 91  1  0
 90 89  1  0
 92 95  1  1
 92 93  1  0
 94 92  1  0
M  ISO  4  11 100  19 100  54 101  55 101
M  END
>  <TORSDO>  (42) 
F 21

>  <SCORE>  (42) 
-12.554

>  <name>  (42) 
41

>  <ligand_id>  (42) 
41

>  <original_smiles>  (42) 
[H]C(=C([H])C([H])([H])[N+]([H])([H])C([H])([H])C([H])([H])Oc1c([H])c([H])c2c(c1[H])C([H])([H])N(C(=O)C([H])(N([H])C(=O)C([H])(N([H])C([H])([H])[H])C([H])([H])[H])C(C([H])([H])[H])(C([H])([H])[H])C([H])([H])[H])C([H])(C(=O)N([H])C1([H])c3c([H])c([H])c([H])c([H])c3C([H])([H])C([H])([H])C1([H])[H])C2([H])[H])c1c([H])c(Cl)c([H])c(N([H])C(=O)N2C([H])([H])C([H])([H])C([H])([H])C([H])(n3nc(-c4c([H])c([H])c(Oc5c([H])c([H])c(F)c([H])c5F)c([H])c4[H])c(C(=O)N([H])[H])c3N([H])[H])C2([H])[H])c1C([H])([H])[H]

>  <smiles>  (42) 
[H]C(=C([H])C([H])([H])[N+]([H])([H])C([H])([H])C([H])([H])Oc1c([H])c([H])c2c(c1[H])C([H])([H])N(C(=O)C([H])(N([H])C(=O)C([H])(N([H])C([H])([H])[H])C([H])([H])[H])C(C([H])([H])[H])(C([H])([H])[H])C([H])([H])[H])C([H])(C(=O)N([H])C1([H])c3c([H])c([H])c([H])c([H])c3C([H])([H])C([H])([H])C1([H])[H])C2([H])[H])c1c([H])c(Cl)c([H])c(N([H])C(=O)N2C([H])([H])C([H])([H])C([H])([H])C([H])(n3nc(-c4c([H])c([H])c(Oc5c([H])c([H])c(F)c([H])c5F)c([H])c4[H])c(C(=O)N([H])[H])c3N([H])[H])C2([H])[H])c1C([H])([H])[H]

$$$$
42:0:0
     RDKit          3D

 93101  0  0  1  0  0  0  0  0999 V2000
  -29.4740  -21.1640   19.9680 C   0  0  0  0  0  2  0  0  0  0  0  0
  -31.0780  -18.6770   22.5490 C   0  0  0  0  0  3  0  0  0  0  0  0
  -29.5900  -18.4730   20.2210 C   0  0  0  0  0  3  0  0  0  0  0  0
  -30.6130  -19.8660   21.9420 C   0  0  0  0  0  0  0  0  0  0  0  0
  -30.8070  -17.3900   22.0340 C   0  0  0  0  0  0  0  0  0  0  0  0
  -29.8460  -19.8110   20.7450 C   0  0  0  0  0  0  0  0  0  0  0  0
  -30.0670  -17.2380   20.8280 C   0  0  0  0  0  0  0  0  0  0  0  0
  -30.9730  -21.1850   22.6170 C   0  0  0  0  0  1  0  0  0  0  0  0
  -31.3180  -16.2080   22.8520 C   0  0  0  0  0  1  0  0  0  0  0  0
  -30.4870  -14.7690   20.0450 C   0  0  0  0  0  0  0  0  0  0  0  0
  -30.1970  -12.5510   18.9150 C   0  0  0  0  0  2  0  0  0  0  0  0
  -29.1750  -12.6680   17.7630 C   0  0  0  0  0  2  0  0  0  0  0  0
  -27.7390  -12.4780   18.2900 C   0  0  0  0  0  2  0  0  0  0  0  0
  -27.4510  -13.3220   19.5600 C   0  0  0  0  0  3  0  0  0  0  0  0
  -28.5820  -13.1870   20.6020 C   0  0  0  0  0  2  0  0  0  0  0  0
  -29.8350  -13.5620   19.9310 N   0  0  0  0  0  0  0  0  0  0  0  0
  -31.6560  -14.8810   19.6670 O   0  0  0  0  0  0  0  0  0  0  0  0
  -29.7150  -15.8840   20.3340 N   0  0  0  0  0  0  0  0  0  0  0  0
  -28.7250  -15.6990   20.2940 H   0  0  0  0  0  0  0  0  0  0  0  0
  -25.1090  -13.8920   20.4410 C   0  0  0  0  0  0  0  0  0  0  0  0
  -24.0710  -13.1050   20.8650 C   0  0  0  0  0  0  0  0  0  0  0  0
  -24.5390  -11.7580   20.7830 C   0  0  0  0  0  0  0  0  0  0  0  0
  -26.1410  -13.0230   20.1260 N   0  0  0  0  0  0  0  0  0  0  0  0
  -25.8090  -11.7330   20.3960 N   0  0  0  0  0  0  0  0  0  0  0  0
  -23.8320  -10.4870   20.9920 C   0  0  0  0  0  0  0  0  0  0  0  0
  -24.3150   -9.5140   21.8950 C   0  0  0  0  0  3  0  0  0  0  0  0
  -23.6080   -8.3100   22.0950 C   0  0  0  0  0  3  0  0  0  0  0  0
  -22.4040   -8.0700   21.3910 C   0  0  0  0  0  0  0  0  0  0  0  0
  -21.9410   -9.0290   20.4730 C   0  0  0  0  0  3  0  0  0  0  0  0
  -22.6500  -10.2260   20.2720 C   0  0  0  0  0  3  0  0  0  0  0  0
  -21.6640   -6.9180   21.5020 O   0  0  0  0  0  0  0  0  0  0  0  0
  -21.6660   -6.1660   22.6490 C   0  0  0  0  0  0  0  0  0  0  0  0
  -21.2910   -6.7090   23.8970 C   0  0  0  0  0  3  0  0  0  0  0  0
  -21.2440   -5.8840   25.0390 C   0  0  0  0  0  3  0  0  0  0  0  0
  -21.5590   -4.5160   24.9340 C   0  0  0  0  0  0  0  0  0  0  0  0
  -21.9290   -3.9720   23.6900 C   0  0  0  0  0  3  0  0  0  0  0  0
  -21.9790   -4.7940   22.5510 C   0  0  0  0  0  0  0  0  0  0  0  0
  -22.3140   -4.2610   21.3510 F   0  0  0  0  0  0  0  0  0  0  0  0
  -21.5050   -3.7220   26.0280 F   0  0  0  0  0  0  0  0  0  0  0  0
  -22.6900  -13.5690   21.2270 C   0  0  0  0  0  0  0  0  0  0  0  0
  -22.0170  -12.8510   22.1210 N   0  0  0  0  0  0  0  0  0  0  0  0
  -22.2160  -14.6000   20.7530 O   0  0  0  0  0  0  0  0  0  0  0  0
  -22.4150  -12.0160   22.5250 H   0  0  0  0  0  0  0  0  0  0  0  0
  -21.0950  -13.1450   22.4080 H   0  0  0  0  0  0  0  0  0  0  0  0
  -25.2490  -15.2670   20.2770 N   0  0  0  0  0  0  0  0  0  0  0  0
  -24.4750  -15.9050   20.4330 H   0  0  0  0  0  0  0  0  0  0  0  0
  -26.0670  -15.7240   19.8900 H   0  0  0  0  0  0  0  0  0  0  0  0
  -28.7730  -22.3500   20.6510 N   0  0  0  0  0  4  0  0  0  0  0  0
  -27.7890  -22.1270   20.6680 H   0  0  0  0  0  0  0  0  0  0  0  0
  -29.0820  -22.3640   21.6100 H   0  0  0  0  0  0  0  0  0  0  0  0
  -28.9540  -23.7710   20.0650 C   0  0  0  0  0  3  0  0  0  0  0  0
  -28.1130  -25.0030   20.6900 C   0  0  0  0  0  3  0  0  0  0  0  0
  -28.3430  -26.4310   20.2650 O   0  0  0  0  0  0  0  0  0  0  0  0
  -24.5890  -31.9060   23.2420 C   0  0  0  0  0  0  0  0  0  0  0  0
  -27.2450  -27.3170   20.2340 C   0  0  0  0  0  0  0  0  0  0  0  0
  -23.4120  -30.4940   21.5950 C   0  0  0  0  0  3  0  0  0  0  0  0
  -24.8850  -28.9510   20.1870 C   0  0  0  0  0  0  0  0  0  0  0  0
  -25.9540  -30.8220   21.4380 C   0  0  0  0  0  2  0  0  0  0  0  0
  -26.0500  -29.4390   20.7960 C   0  0  0  0  0  0  0  0  0  0  0  0
  -27.2360  -28.6330   20.8050 C   0  0  0  0  0  3  0  0  0  0  0  0
  -26.0620  -26.9010   19.5850 C   0  0  0  0  0  3  0  0  0  0  0  0
  -24.8990  -27.6920   19.5680 C   0  0  0  0  0  3  0  0  0  0  0  0
  -23.6500  -29.8250   20.2170 C   0  0  0  0  0  2  0  0  0  0  0  0
  -24.6700  -31.0920   22.1470 N   0  0  0  0  0  0  0  0  0  0  0  0
  -23.4980  -32.1800   23.7620 O   0  0  0  0  0  0  0  0  0  0  0  0
  -22.7450  -29.4740   22.5520 C   0  0  0  0  0  0  0  0  0  0  0  0
  -21.4210  -29.2960   22.4170 N   0  0  0  0  0  0  0  0  0  0  0  0
  -23.4180  -28.8500   23.3770 O   0  0  0  0  0  0  0  0  0  0  0  0
  -20.9330  -29.8540   21.7310 H   0  0  0  0  0  0  0  0  0  0  0  0
  -18.0450  -28.0770   22.8820 C   0  0  0  0  0  0  0  0  0  0  0  0
  -20.5980  -28.3540   23.1790 C   0  0  0  0  0  3  0  0  0  0  0  0
  -20.7160  -26.9210   22.6080 C   0  0  0  0  0  2  0  0  0  0  0  0
  -19.6270  -26.5880   21.5830 C   0  0  0  0  0  2  0  0  0  0  0  0
  -18.2370  -26.7250   22.2140 C   0  0  0  0  0  2  0  0  0  0  0  0
  -19.1550  -28.8480   23.3210 C   0  0  0  0  0  0  0  0  0  0  0  0
  -18.9210  -30.1090   23.9110 C   0  0  0  0  0  3  0  0  0  0  0  0
  -17.6130  -30.6020   24.0630 C   0  0  0  0  0  3  0  0  0  0  0  0
  -16.5170  -29.8270   23.6460 C   0  0  0  0  0  3  0  0  0  0  0  0
  -16.7340  -28.5670   23.0600 C   0  0  0  0  0  3  0  0  0  0  0  0
  -25.8590  -32.5500   23.8780 C   0  0  0  0  0  3  0  0  0  0  0  0
  -26.3670  -31.7940   25.1650 C   0  0  1  0  0  0  0  0  0  0  0  0
  -25.2620  -31.5590   26.2230 C   0  0  0  0  0  1  0  0  0  0  0  0
  -26.9630  -30.4190   24.7910 C   0  0  0  0  0  1  0  0  0  0  0  0
  -27.5140  -32.5940   25.8270 C   0  0  0  0  0  1  0  0  0  0  0  0
  -25.5450  -33.9520   24.1950 N   0  0  0  0  0  0  0  0  0  0  0  0
  -25.8860  -35.0000   23.4350 C   0  0  0  0  0  0  0  0  0  0  0  0
  -26.5660  -34.8910   22.4110 O   0  0  0  0  0  0  0  0  0  0  0  0
  -24.9490  -34.1120   24.9940 H   0  0  0  0  0  0  0  0  0  0  0  0
  -24.1610  -36.7900   23.0480 C   0  0  0  0  0  1  0  0  0  0  0  0
  -25.3930  -36.3910   23.8790 C   0  0  0  0  0  3  0  0  0  0  0  0
  -27.5160  -37.2820   24.7340 C   0  0  0  0  0  1  0  0  0  0  0  0
  -26.4280  -37.4430   23.7740 N   0  0  0  0  0  0  0  0  0  0  0  0
  -26.0170  -38.3630   23.9140 H   0  0  0  0  0  0  0  0  0  0  0  0
  1 48  1  0
  1  6  1  0
  3  6  2  0
  3  7  1  0
  4  2  2  0
  4  8  1  0
  5  2  1  0
  5  9  1  0
  6  4  1  0
  7  5  2  0
 10 18  1  0
 11 16  1  0
 12 13  1  0
 12 11  1  0
 14 13  1  0
 14 23  1  0
 14 15  1  0
 16 10  1  0
 16 15  1  0
 17 10  2  0
 18  7  1  0
 19 18  1  0
 20 21  2  0
 21 40  1  0
 22 21  1  0
 22 25  1  0
 23 24  1  0
 23 20  1  0
 24 22  2  0
 25 26  1  0
 26 27  2  0
 28 31  1  0
 28 27  1  0
 29 28  2  0
 30 29  1  0
 30 25  2  0
 31 32  1  0
 32 33  1  0
 33 34  2  0
 35 34  1  0
 35 39  1  0
 36 35  2  0
 37 32  2  0
 37 36  1  0
 38 37  1  0
 40 41  1  0
 41 44  1  0
 41 43  1  0
 42 40  2  0
 45 46  1  0
 45 20  1  0
 47 45  1  0
 48 49  1  0
 48 50  1  0
 51 48  1  0
 51 52  2  0
 53 52  1  0
 54 65  2  0
 55 53  1  0
 55 60  1  0
 56 64  1  0
 56 66  1  0
 57 63  1  0
 57 59  1  0
 58 64  1  0
 59 60  2  0
 59 58  1  0
 61 55  2  0
 62 61  1  0
 62 57  2  0
 63 56  1  0
 64 54  1  0
 66 68  2  0
 67 66  1  0
 69 67  1  0
 70 79  2  0
 70 75  1  0
 71 67  1  0
 71 75  1  0
 72 71  1  0
 73 74  1  0
 73 72  1  0
 74 70  1  0
 75 76  2  0
 76 77  1  0
 78 77  2  0
 79 78  1  0
 80 54  1  0
 80 85  1  0
 80 81  1  0
 81 84  1  1
 81 82  1  0
 83 81  1  0
 85 88  1  0
 86 90  1  0
 86 85  1  0
 87 86  2  0
 90 89  1  0
 92 90  1  0
 92 93  1  0
 92 91  1  0
M  ISO  4  10 100  18 100  52 101  53 101
M  END
>  <TORSDO>  (43) 
F 20

>  <SCORE>  (43) 
-12.857

>  <name>  (43) 
42

>  <ligand_id>  (43) 
42

>  <original_smiles>  (43) 
[H]c1c([H])c([H])c2c(c1[H])C([H])([H])C([H])([H])C([H])([H])C2([H])N([H])C(=O)C1([H])N(C(=O)C([H])(N([H])C(=O)C([H])(N([H])C([H])([H])[H])C([H])([H])[H])C(C([H])([H])[H])(C([H])([H])[H])C([H])([H])[H])C([H])([H])c2c([H])c(OC([H])([H])C([H])([H])[N+]([H])([H])C([H])([H])c3c([H])c(N([H])C(=O)N4C([H])([H])C([H])([H])C([H])([H])C([H])(n5nc(-c6c([H])c([H])c(Oc7c([H])c([H])c(F)c([H])c7F)c([H])c6[H])c(C(=O)N([H])[H])c5N([H])[H])C4([H])[H])c(C([H])([H])[H])c([H])c3C([H])([H])[H])c([H])c([H])c2C1([H])[H]

>  <smiles>  (43) 
[H]c1c([H])c([H])c2c(c1[H])C([H])([H])C([H])([H])C([H])([H])C2([H])N([H])C(=O)C1([H])N(C(=O)C([H])(N([H])C(=O)C([H])(N([H])C([H])([H])[H])C([H])([H])[H])C(C([H])([H])[H])(C([H])([H])[H])C([H])([H])[H])C([H])([H])c2c([H])c(OC([H])([H])C([H])([H])[N+]([H])([H])C([H])([H])c3c([H])c(N([H])C(=O)N4C([H])([H])C([H])([H])C([H])([H])C([H])(n5nc(-c6c([H])c([H])c(Oc7c([H])c([H])c(F)c([H])c7F)c([H])c6[H])c(C(=O)N([H])[H])c5N([H])[H])C4([H])[H])c(C([H])([H])[H])c([H])c3C([H])([H])[H])c([H])c([H])c2C1([H])[H]

$$$$
43:0:0
     RDKit          3D

 93101  0  0  1  0  0  0  0  0999 V2000
  -30.2280  -21.7330   20.6840 C   0  0  0  0  0  2  0  0  0  0  0  0
  -29.1190  -19.4900   19.7720 C   0  0  0  0  0  3  0  0  0  0  0  0
  -31.0130  -17.8950   21.0940 C   0  0  0  0  0  3  0  0  0  0  0  0
  -29.0460  -18.0620   19.7170 C   0  0  0  0  0  0  0  0  0  0  0  0
  -30.1250  -20.1640   20.5100 C   0  0  0  0  0  0  0  0  0  0  0  0
  -29.9740  -17.2200   20.4110 C   0  0  0  0  0  0  0  0  0  0  0  0
  -31.0870  -19.3190   21.1460 C   0  0  0  0  0  0  0  0  0  0  0  0
  -27.9320  -17.4520   18.8850 C   0  0  0  0  0  1  0  0  0  0  0  0
  -32.3810  -20.0170   22.0550 Cl  0  0  0  0  0  0  0  0  0  0  0  0
  -30.5970  -14.6900   20.3820 C   0  0  0  0  0  0  0  0  0  0  0  0
  -30.3870  -12.4350   19.3600 C   0  0  0  0  0  2  0  0  0  0  0  0
  -29.4400  -12.5520   18.1460 C   0  0  0  0  0  2  0  0  0  0  0  0
  -27.9680  -12.3880   18.5790 C   0  0  0  0  0  2  0  0  0  0  0  0
  -27.6050  -13.2650   19.8070 C   0  0  0  0  0  3  0  0  0  0  0  0
  -28.6690  -13.1360   20.9220 C   0  0  0  0  0  2  0  0  0  0  0  0
  -29.9760  -13.4670   20.3300 N   0  0  0  0  0  0  0  0  0  0  0  0
  -31.7890  -14.8200   20.0890 O   0  0  0  0  0  0  0  0  0  0  0  0
  -29.7610  -15.7700   20.5080 N   0  0  0  0  0  0  0  0  0  0  0  0
  -28.7960  -15.4950   20.5930 H   0  0  0  0  0  0  0  0  0  0  0  0
  -25.2100  -13.8650   20.5260 C   0  0  0  0  0  0  0  0  0  0  0  0
  -24.1410  -13.0940   20.8930 C   0  0  0  0  0  0  0  0  0  0  0  0
  -24.6040  -11.7440   20.8690 C   0  0  0  0  0  0  0  0  0  0  0  0
  -26.2570  -12.9860   20.2960 N   0  0  0  0  0  0  0  0  0  0  0  0
  -25.8960  -11.7040   20.5630 N   0  0  0  0  0  0  0  0  0  0  0  0
  -23.8770  -10.4840   21.0610 C   0  0  0  0  0  0  0  0  0  0  0  0
  -24.3150   -9.5120   21.9870 C   0  0  0  0  0  3  0  0  0  0  0  0
  -23.5890   -8.3160   22.1670 C   0  0  0  0  0  3  0  0  0  0  0  0
  -22.4090   -8.0820   21.4210 C   0  0  0  0  0  0  0  0  0  0  0  0
  -21.9900   -9.0430   20.4830 C   0  0  0  0  0  3  0  0  0  0  0  0
  -22.7170  -10.2320   20.3010 C   0  0  0  0  0  3  0  0  0  0  0  0
  -21.6530   -6.9390   21.5100 O   0  0  0  0  0  0  0  0  0  0  0  0
  -21.6180   -6.1870   22.6570 C   0  0  0  0  0  0  0  0  0  0  0  0
  -21.2130   -6.7320   23.8940 C   0  0  0  0  0  3  0  0  0  0  0  0
  -21.1280   -5.9080   25.0330 C   0  0  0  0  0  3  0  0  0  0  0  0
  -21.4340   -4.5370   24.9350 C   0  0  0  0  0  0  0  0  0  0  0  0
  -21.8310   -3.9900   23.7020 C   0  0  0  0  0  3  0  0  0  0  0  0
  -21.9210   -4.8130   22.5660 C   0  0  0  0  0  0  0  0  0  0  0  0
  -22.2850   -4.2780   21.3760 F   0  0  0  0  0  0  0  0  0  0  0  0
  -21.3420   -3.7420   26.0260 F   0  0  0  0  0  0  0  0  0  0  0  0
  -22.7440  -13.5750   21.1550 C   0  0  0  0  0  0  0  0  0  0  0  0
  -22.0090  -12.8860   22.0210 N   0  0  0  0  0  0  0  0  0  0  0  0
  -22.3100  -14.6010   20.6300 O   0  0  0  0  0  0  0  0  0  0  0  0
  -22.3700  -12.0610   22.4760 H   0  0  0  0  0  0  0  0  0  0  0  0
  -21.0730  -13.1930   22.2370 H   0  0  0  0  0  0  0  0  0  0  0  0
  -25.3650  -15.2340   20.3500 N   0  0  0  0  0  0  0  0  0  0  0  0
  -24.5840  -15.8720   20.4610 H   0  0  0  0  0  0  0  0  0  0  0  0
  -26.2020  -15.6900   20.0170 H   0  0  0  0  0  0  0  0  0  0  0  0
  -29.3300  -24.0960   20.3360 C   0  0  0  0  0  0  0  0  0  0  0  0
  -29.2710  -22.7390   20.0980 N   0  0  0  0  0  0  0  0  0  0  0  0
  -30.2510  -24.5660   21.0090 O   0  0  0  0  0  0  0  0  0  0  0  0
  -28.5320  -22.3970   19.5000 H   0  0  0  0  0  0  0  0  0  0  0  0
  -28.2310  -25.0850   19.7810 C   0  0  0  0  0  2  0  0  0  0  0  0
  -28.3600  -26.5060   20.2000 O   0  0  0  0  0  0  0  0  0  0  0  0
  -24.6120  -31.8860   23.2570 C   0  0  0  0  0  0  0  0  0  0  0  0
  -27.2270  -27.3380   20.1660 C   0  0  0  0  0  0  0  0  0  0  0  0
  -23.4030  -30.4920   21.6170 C   0  0  0  0  0  3  0  0  0  0  0  0
  -24.8510  -28.9430   20.1840 C   0  0  0  0  0  0  0  0  0  0  0  0
  -25.9420  -30.8060   21.4300 C   0  0  0  0  0  2  0  0  0  0  0  0
  -26.0200  -29.4280   20.7840 C   0  0  0  0  0  0  0  0  0  0  0  0
  -27.2060  -28.6330   20.7740 C   0  0  0  0  0  3  0  0  0  0  0  0
  -26.0320  -26.9130   19.5380 C   0  0  0  0  0  3  0  0  0  0  0  0
  -24.8600  -27.6900   19.5550 C   0  0  0  0  0  3  0  0  0  0  0  0
  -23.6130  -29.8150   20.2360 C   0  0  0  0  0  2  0  0  0  0  0  0
  -24.6720  -31.0790   22.1570 N   0  0  0  0  0  0  0  0  0  0  0  0
  -23.5300  -32.1650   23.7940 O   0  0  0  0  0  0  0  0  0  0  0  0
  -22.7410  -29.4750   22.5780 C   0  0  0  0  0  0  0  0  0  0  0  0
  -21.4160  -29.2980   22.4510 N   0  0  0  0  0  0  0  0  0  0  0  0
  -23.4200  -28.8490   23.3950 O   0  0  0  0  0  0  0  0  0  0  0  0
  -20.9270  -29.8540   21.7640 H   0  0  0  0  0  0  0  0  0  0  0  0
  -18.0390  -28.1010   22.9490 C   0  0  0  0  0  0  0  0  0  0  0  0
  -20.5970  -28.3620   23.2240 C   0  0  0  0  0  3  0  0  0  0  0  0
  -20.7000  -26.9280   22.6540 C   0  0  0  0  0  2  0  0  0  0  0  0
  -19.6010  -26.6020   21.6370 C   0  0  0  0  0  2  0  0  0  0  0  0
  -18.2180  -26.7500   22.2770 C   0  0  0  0  0  2  0  0  0  0  0  0
  -19.1560  -28.8650   23.3800 C   0  0  0  0  0  0  0  0  0  0  0  0
  -18.9360  -30.1280   23.9700 C   0  0  0  0  0  3  0  0  0  0  0  0
  -17.6310  -30.6280   24.1340 C   0  0  0  0  0  3  0  0  0  0  0  0
  -16.5280  -29.8620   23.7180 C   0  0  0  0  0  3  0  0  0  0  0  0
  -16.7330  -28.6000   23.1320 C   0  0  0  0  0  3  0  0  0  0  0  0
  -25.8980  -32.5160   23.8770 C   0  0  0  0  0  3  0  0  0  0  0  0
  -26.4130  -31.7460   25.1550 C   0  0  1  0  0  0  0  0  0  0  0  0
  -25.3180  -31.5180   26.2230 C   0  0  0  0  0  1  0  0  0  0  0  0
  -26.9880  -30.3650   24.7660 C   0  0  0  0  0  1  0  0  0  0  0  0
  -27.5680  -32.5380   25.8130 C   0  0  0  0  0  1  0  0  0  0  0  0
  -25.5900  -33.9160   24.2060 N   0  0  0  0  0  0  0  0  0  0  0  0
  -25.9170  -34.9670   23.4430 C   0  0  0  0  0  0  0  0  0  0  0  0
  -26.5780  -34.8610   22.4070 O   0  0  0  0  0  0  0  0  0  0  0  0
  -25.0010  -34.0710   25.0110 H   0  0  0  0  0  0  0  0  0  0  0  0
  -24.1850  -36.7600   23.1060 C   0  0  0  0  0  1  0  0  0  0  0  0
  -25.4350  -36.3570   23.9020 C   0  0  0  0  0  3  0  0  0  0  0  0
  -27.5800  -37.2440   24.7050 C   0  0  0  0  0  1  0  0  0  0  0  0
  -26.4670  -37.4110   23.7750 N   0  0  0  0  0  0  0  0  0  0  0  0
  -26.0630  -38.3310   23.9250 H   0  0  0  0  0  0  0  0  0  0  0  0
  2  5  1  0
  3  7  1  0
  4  2  2  0
  4  6  1  0
  5  1  1  0
  5  7  2  0
  6 18  1  0
  6  3  2  0
  7  9  1  0
  8  4  1  0
 10 18  1  0
 11 16  1  0
 12 13  1  0
 12 11  1  0
 14 13  1  0
 14 23  1  0
 14 15  1  0
 16 10  1  0
 16 15  1  0
 17 10  2  0
 18 19  1  0
 20 21  2  0
 21 40  1  0
 22 21  1  0
 22 25  1  0
 23 20  1  0
 23 24  1  0
 24 22  2  0
 25 26  1  0
 26 27  2  0
 28 31  1  0
 28 27  1  0
 29 28  2  0
 30 29  1  0
 30 25  2  0
 31 32  1  0
 32 33  1  0
 33 34  2  0
 35 34  1  0
 35 39  1  0
 36 35  2  0
 37 32  2  0
 37 36  1  0
 38 37  1  0
 40 41  1  0
 41 44  1  0
 41 43  1  0
 42 40  2  0
 45 46  1  0
 45 20  1  0
 47 45  1  0
 48 50  2  0
 49 48  1  0
 49  1  1  0
 51 49  1  0
 52 53  1  0
 52 48  1  0
 54 65  2  0
 55 53  1  0
 55 60  1  0
 56 64  1  0
 56 66  1  0
 57 63  1  0
 57 59  1  0
 58 64  1  0
 59 58  1  0
 60 59  2  0
 61 62  1  0
 61 55  2  0
 62 57  2  0
 63 56  1  0
 64 54  1  0
 66 68  2  0
 67 66  1  0
 69 67  1  0
 70 79  2  0
 70 75  1  0
 71 67  1  0
 71 75  1  0
 72 71  1  0
 73 74  1  0
 73 72  1  0
 74 70  1  0
 75 76  2  0
 76 77  1  0
 78 77  2  0
 79 78  1  0
 80 54  1  0
 80 85  1  0
 80 81  1  0
 81 84  1  1
 81 82  1  0
 83 81  1  0
 85 88  1  0
 86 90  1  0
 86 85  1  0
 87 86  2  0
 90 89  1  0
 92 90  1  0
 92 93  1  0
 92 91  1  0
M  ISO  4  10 100  18 100  52 101  53 101
M  END
>  <TORSDO>  (44) 
F 19

>  <SCORE>  (44) 
-14.678

>  <name>  (44) 
43

>  <ligand_id>  (44) 
43

>  <original_smiles>  (44) 
[H]c1c([H])c([H])c2c(c1[H])C([H])([H])C([H])([H])C([H])([H])C2([H])N([H])C(=O)C1([H])N(C(=O)C([H])(N([H])C(=O)C([H])(N([H])C([H])([H])[H])C([H])([H])[H])C(C([H])([H])[H])(C([H])([H])[H])C([H])([H])[H])C([H])([H])c2c([H])c(OC([H])([H])C(=O)N([H])C([H])([H])c3c([H])c(C([H])([H])[H])c(N([H])C(=O)N4C([H])([H])C([H])([H])C([H])([H])C([H])(n5nc(-c6c([H])c([H])c(Oc7c([H])c([H])c(F)c([H])c7F)c([H])c6[H])c(C(=O)N([H])[H])c5N([H])[H])C4([H])[H])c([H])c3Cl)c([H])c([H])c2C1([H])[H]

>  <smiles>  (44) 
[H]c1c([H])c([H])c2c(c1[H])C([H])([H])C([H])([H])C([H])([H])C2([H])N([H])C(=O)C1([H])N(C(=O)C([H])(N([H])C(=O)C([H])(N([H])C([H])([H])[H])C([H])([H])[H])C(C([H])([H])[H])(C([H])([H])[H])C([H])([H])[H])C([H])([H])c2c([H])c(OC([H])([H])C(=O)N([H])C([H])([H])c3c([H])c(C([H])([H])[H])c(N([H])C(=O)N4C([H])([H])C([H])([H])C([H])([H])C([H])(n5nc(-c6c([H])c([H])c(Oc7c([H])c([H])c(F)c([H])c7F)c([H])c6[H])c(C(=O)N([H])[H])c5N([H])[H])C4([H])[H])c([H])c3Cl)c([H])c([H])c2C1([H])[H]

$$$$
44:0:0
     RDKit          3D

 95103  0  0  1  0  0  0  0  0999 V2000
  -30.1410  -20.5980   20.4290 C   0  0  0  0  0  2  0  0  0  0  0  0
  -30.7950  -17.5380   22.8320 C   0  0  0  0  0  3  0  0  0  0  0  0
  -30.7170  -19.5770   24.1210 C   0  0  0  0  0  3  0  0  0  0  0  0
  -30.5920  -18.2390   21.6140 C   0  0  0  0  0  0  0  0  0  0  0  0
  -30.3930  -19.6830   21.6720 C   0  0  0  0  0  0  0  0  0  0  0  0
  -30.8390  -18.1880   24.0700 C   0  0  0  0  0  0  0  0  0  0  0  0
  -30.5270  -20.3180   22.9440 C   0  0  0  0  0  0  0  0  0  0  0  0
  -31.0980  -17.2820   25.5160 Cl  0  0  0  0  0  0  0  0  0  0  0  0
  -30.5550  -22.0330   23.1430 Cl  0  0  0  0  0  0  0  0  0  0  0  0
  -30.6780  -17.3690   20.3220 C   0  0  0  0  0  2  0  0  0  0  0  0
  -31.1900  -14.8220   20.2520 C   0  0  0  0  0  0  0  0  0  0  0  0
  -30.9550  -12.5410   19.3090 C   0  0  0  0  0  2  0  0  0  0  0  0
  -30.0650  -12.6350   18.0500 C   0  0  0  0  0  2  0  0  0  0  0  0
  -28.5700  -12.5500   18.4230 C   0  0  0  0  0  2  0  0  0  0  0  0
  -28.1900  -13.4910   19.5970 C   0  0  0  0  0  3  0  0  0  0  0  0
  -29.1960  -13.3590   20.7630 C   0  0  0  0  0  2  0  0  0  0  0  0
  -30.5400  -13.6200   20.2230 N   0  0  0  0  0  0  0  0  0  0  0  0
  -32.3640  -14.9410   19.8930 O   0  0  0  0  0  0  0  0  0  0  0  0
  -30.4020  -15.9040   20.4910 N   0  0  0  0  0  0  0  0  0  0  0  0
  -29.4490  -15.6750   20.7260 H   0  0  0  0  0  0  0  0  0  0  0  0
  -25.7890  -14.1990   20.1850 C   0  0  0  0  0  0  0  0  0  0  0  0
  -24.6850  -13.4780   20.5530 C   0  0  0  0  0  0  0  0  0  0  0  0
  -25.1060  -12.1140   20.6090 C   0  0  0  0  0  0  0  0  0  0  0  0
  -26.8140  -13.2770   20.0390 N   0  0  0  0  0  0  0  0  0  0  0  0
  -26.4050  -12.0210   20.3540 N   0  0  0  0  0  0  0  0  0  0  0  0
  -24.3350  -10.8860   20.8360 C   0  0  0  0  0  0  0  0  0  0  0  0
  -24.7090   -9.9500   21.8260 C   0  0  0  0  0  3  0  0  0  0  0  0
  -23.9410   -8.7850   22.0370 C   0  0  0  0  0  3  0  0  0  0  0  0
  -22.7840   -8.5460   21.2580 C   0  0  0  0  0  0  0  0  0  0  0  0
  -22.4290   -9.4690   20.2590 C   0  0  0  0  0  3  0  0  0  0  0  0
  -23.1970  -10.6270   20.0460 C   0  0  0  0  0  3  0  0  0  0  0  0
  -21.9920   -7.4300   21.3760 O   0  0  0  0  0  0  0  0  0  0  0  0
  -21.8600   -6.7620   22.5670 C   0  0  0  0  0  0  0  0  0  0  0  0
  -21.4100   -7.4100   23.7380 C   0  0  0  0  0  3  0  0  0  0  0  0
  -21.2220   -6.6710   24.9240 C   0  0  0  0  0  3  0  0  0  0  0  0
  -21.4760   -5.2860   24.9380 C   0  0  0  0  0  0  0  0  0  0  0  0
  -21.9200   -4.6390   23.7720 C   0  0  0  0  0  3  0  0  0  0  0  0
  -22.1090   -5.3750   22.5880 C   0  0  0  0  0  0  0  0  0  0  0  0
  -22.5170   -4.7420   21.4620 F   0  0  0  0  0  0  0  0  0  0  0  0
  -21.2890   -4.5740   26.0740 F   0  0  0  0  0  0  0  0  0  0  0  0
  -23.2940  -14.0090   20.7440 C   0  0  0  0  0  0  0  0  0  0  0  0
  -22.5260  -13.4040   21.6440 N   0  0  0  0  0  0  0  0  0  0  0  0
  -22.8950  -14.9960   20.1280 O   0  0  0  0  0  0  0  0  0  0  0  0
  -22.8580  -12.6080   22.1670 H   0  0  0  0  0  0  0  0  0  0  0  0
  -21.5880  -13.7450   21.8140 H   0  0  0  0  0  0  0  0  0  0  0  0
  -26.0010  -15.5530   19.9420 N   0  0  0  0  0  0  0  0  0  0  0  0
  -25.2470  -16.2300   19.9860 H   0  0  0  0  0  0  0  0  0  0  0  0
  -26.8660  -15.9500   19.5990 H   0  0  0  0  0  0  0  0  0  0  0  0
  -28.8060  -21.4630   20.3340 C   0  0  0  0  0  2  0  0  0  0  0  0
  -28.2330  -23.9750   20.1530 C   0  0  0  0  0  0  0  0  0  0  0  0
  -28.8530  -22.9060   20.7320 N   0  0  0  0  0  0  0  0  0  0  0  0
  -27.6640  -23.8780   19.0640 O   0  0  0  0  0  0  0  0  0  0  0  0
  -29.2950  -23.0850   21.6260 H   0  0  0  0  0  0  0  0  0  0  0  0
  -28.2010  -25.3380   20.9280 C   0  0  0  0  0  2  0  0  0  0  0  0
  -28.2320  -26.5440   20.0970 O   0  0  0  0  0  0  0  0  0  0  0  0
  -24.5180  -31.8660   23.1860 C   0  0  0  0  0  0  0  0  0  0  0  0
  -27.0960  -27.3430   20.1150 C   0  0  0  0  0  0  0  0  0  0  0  0
  -23.2910  -30.4680   21.5590 C   0  0  0  0  0  3  0  0  0  0  0  0
  -24.7230  -28.9090   20.1280 C   0  0  0  0  0  0  0  0  0  0  0  0
  -25.8230  -30.7940   21.3420 C   0  0  0  0  0  2  0  0  0  0  0  0
  -25.8940  -29.4160   20.7040 C   0  0  0  0  0  0  0  0  0  0  0  0
  -27.0870  -28.6460   20.6860 C   0  0  0  0  0  3  0  0  0  0  0  0
  -25.9060  -26.8650   19.5290 C   0  0  0  0  0  3  0  0  0  0  0  0
  -24.7270  -27.6350   19.5330 C   0  0  0  0  0  3  0  0  0  0  0  0
  -23.4860  -29.7820   20.1800 C   0  0  0  0  0  2  0  0  0  0  0  0
  -24.5630  -31.0600   22.0860 N   0  0  0  0  0  0  0  0  0  0  0  0
  -23.4430  -32.1460   23.7350 O   0  0  0  0  0  0  0  0  0  0  0  0
  -22.6380  -29.4560   22.5290 C   0  0  0  0  0  0  0  0  0  0  0  0
  -21.3200  -29.2420   22.3790 N   0  0  0  0  0  0  0  0  0  0  0  0
  -23.3160  -28.8660   23.3730 O   0  0  0  0  0  0  0  0  0  0  0  0
  -20.8310  -29.7710   21.6690 H   0  0  0  0  0  0  0  0  0  0  0  0
  -17.9760  -27.9310   22.7850 C   0  0  0  0  0  0  0  0  0  0  0  0
  -20.5080  -28.3020   23.1520 C   0  0  0  0  0  3  0  0  0  0  0  0
  -20.6920  -26.8550   22.6380 C   0  0  0  0  0  2  0  0  0  0  0  0
  -19.6470  -26.4500   21.5940 C   0  0  0  0  0  2  0  0  0  0  0  0
  -18.2330  -26.5650   22.1720 C   0  0  0  0  0  2  0  0  0  0  0  0
  -19.0450  -28.7530   23.2310 C   0  0  0  0  0  0  0  0  0  0  0  0
  -18.7520  -30.0290   23.7590 C   0  0  0  0  0  3  0  0  0  0  0  0
  -17.4230  -30.4830   23.8510 C   0  0  0  0  0  3  0  0  0  0  0  0
  -16.3680  -29.6590   23.4220 C   0  0  0  0  0  3  0  0  0  0  0  0
  -16.6450  -28.3850   22.8950 C   0  0  0  0  0  3  0  0  0  0  0  0
  -25.8120  -32.4920   23.7950 C   0  0  0  0  0  3  0  0  0  0  0  0
  -25.5090  -33.8880   24.1420 N   0  0  0  0  0  0  0  0  0  0  0  0
  -25.8460  -34.9480   23.3940 C   0  0  0  0  0  0  0  0  0  0  0  0
  -26.5150  -34.8520   22.3610 O   0  0  0  0  0  0  0  0  0  0  0  0
  -24.9170  -34.0370   24.9460 H   0  0  0  0  0  0  0  0  0  0  0  0
  -24.1310  -36.7550   23.0560 C   0  0  0  0  0  1  0  0  0  0  0  0
  -25.3660  -36.3320   23.8670 C   0  0  0  0  0  3  0  0  0  0  0  0
  -27.5000  -37.1940   24.7210 C   0  0  0  0  0  1  0  0  0  0  0  0
  -26.4050  -37.3810   23.7730 N   0  0  0  0  0  0  0  0  0  0  0  0
  -26.0030  -38.3020   23.9280 H   0  0  0  0  0  0  0  0  0  0  0  0
  -26.3480  -31.7100   25.0570 C   0  0  1  0  0  0  0  0  0  0  0  0
  -25.2710  -31.4660   26.1400 C   0  0  0  0  0  1  0  0  0  0  0  0
  -26.9220  -30.3340   24.6460 C   0  0  0  0  0  1  0  0  0  0  0  0
  -27.5080  -32.4980   25.7100 C   0  0  0  0  0  1  0  0  0  0  0  0
  1  5  1  0
  2  6  1  0
  4  5  1  0
  4  2  2  0
  5  7  2  0
  6  3  2  0
  6  8  1  0
  7  9  1  0
  7  3  1  0
 10 19  1  0
 10  4  1  0
 11 19  1  0
 12 17  1  0
 13 14  1  0
 13 12  1  0
 15 14  1  0
 15 24  1  0
 15 16  1  0
 17 11  1  0
 17 16  1  0
 18 11  2  0
 19 20  1  0
 21 22  2  0
 22 23  1  0
 22 41  1  0
 23 26  1  0
 24 21  1  0
 24 25  1  0
 25 23  2  0
 26 27  1  0
 27 28  2  0
 29 32  1  0
 29 28  1  0
 30 29  2  0
 31 30  1  0
 31 26  2  0
 32 33  1  0
 33 38  2  0
 33 34  1  0
 34 35  2  0
 35 36  1  0
 36 40  1  0
 37 36  2  0
 38 37  1  0
 39 38  1  0
 41 42  1  0
 42 45  1  0
 42 44  1  0
 43 41  2  0
 46 47  1  0
 46 21  1  0
 48 46  1  0
 49  1  1  0
 49 51  1  0
 50 51  1  0
 50 54  1  0
 51 53  1  0
 52 50  2  0
 55 57  1  0
 55 54  1  0
 56 67  2  0
 57 62  1  0
 58 66  1  0
 58 68  1  0
 59 65  1  0
 59 61  1  0
 60 66  1  0
 61 60  1  0
 62 61  2  0
 63 64  1  0
 63 57  2  0
 64 59  2  0
 65 58  1  0
 66 56  1  0
 68 70  2  0
 69 68  1  0
 71 69  1  0
 72 81  2  0
 72 77  1  0
 73 69  1  0
 73 77  1  0
 74 73  1  0
 75 76  1  0
 75 74  1  0
 76 72  1  0
 77 78  2  0
 78 79  1  0
 80 79  2  0
 81 80  1  0
 82 56  1  0
 82 83  1  0
 82 92  1  0
 83 86  1  0
 84 88  1  0
 84 83  1  0
 85 84  2  0
 88 87  1  0
 90 88  1  0
 90 91  1  0
 90 89  1  0
 92 95  1  1
 92 93  1  0
 94 92  1  0
M  ISO  4  11 100  19 100  54 101  55 101
M  END
>  <TORSDO>  (45) 
F 21

>  <SCORE>  (45) 
-8.180

>  <name>  (45) 
44

>  <ligand_id>  (45) 
44

>  <original_smiles>  (45) 
[H]c1c([H])c([H])c2c(c1[H])C([H])([H])C([H])([H])C([H])([H])C2([H])N([H])C(=O)C1([H])N(C(=O)C([H])(N([H])C(=O)C([H])(N([H])C([H])([H])[H])C([H])([H])[H])C(C([H])([H])[H])(C([H])([H])[H])C([H])([H])[H])C([H])([H])c2c([H])c(OC([H])([H])C(=O)N([H])C([H])([H])C([H])([H])c3c(Cl)c([H])c(Cl)c([H])c3C([H])([H])N([H])C(=O)N3C([H])([H])C([H])([H])C([H])([H])C([H])(n4nc(-c5c([H])c([H])c(Oc6c([H])c([H])c(F)c([H])c6F)c([H])c5[H])c(C(=O)N([H])[H])c4N([H])[H])C3([H])[H])c([H])c([H])c2C1([H])[H]

>  <smiles>  (45) 
[H]c1c([H])c([H])c2c(c1[H])C([H])([H])C([H])([H])C([H])([H])C2([H])N([H])C(=O)C1([H])N(C(=O)C([H])(N([H])C(=O)C([H])(N([H])C([H])([H])[H])C([H])([H])[H])C(C([H])([H])[H])(C([H])([H])[H])C([H])([H])[H])C([H])([H])c2c([H])c(OC([H])([H])C(=O)N([H])C([H])([H])C([H])([H])c3c(Cl)c([H])c(Cl)c([H])c3C([H])([H])N([H])C(=O)N3C([H])([H])C([H])([H])C([H])([H])C([H])(n4nc(-c5c([H])c([H])c(Oc6c([H])c([H])c(F)c([H])c6F)c([H])c5[H])c(C(=O)N([H])[H])c4N([H])[H])C3([H])[H])c([H])c([H])c2C1([H])[H]

$$$$
45:0:0
     RDKit          3D

 97106  0  0  1  0  0  0  0  0999 V2000
  -27.9660  -23.8500   20.0340 C   0  0  0  0  0  0  0  0  0  0  0  0
  -26.6970  -23.5350   19.6930 C   0  0  0  0  0  2  0  0  0  0  0  0
  -30.8220  -25.2720   21.1580 C   0  0  0  0  0  2  0  0  0  0  0  0
  -31.2960  -23.9770   20.4930 C   0  0  0  0  0  2  0  0  0  0  0  0
  -29.4360  -25.1590   21.8060 C   0  0  0  0  0  2  0  0  0  0  0  0
  -30.3550  -23.4450   19.3980 C   0  0  0  0  0  2  0  0  0  0  0  0
  -28.2530  -25.2020   20.8170 C   0  0  0  0  0  3  0  0  0  0  0  0
  -29.1280  -22.7900   19.9450 N   0  0  2  0  0  4  0  0  0  0  0  0
  -29.3540  -22.5200   20.8900 H   0  0  0  0  0  0  0  0  0  0  0  0
  -28.3260  -26.4880   20.0800 O   0  0  0  0  0  0  0  0  0  0  0  0
  -24.6440  -31.8820   23.2220 C   0  0  0  0  0  0  0  0  0  0  0  0
  -27.2170  -27.3440   20.1150 C   0  0  0  0  0  0  0  0  0  0  0  0
  -23.4210  -30.4900   21.5890 C   0  0  0  0  0  3  0  0  0  0  0  0
  -24.8570  -28.9510   20.1390 C   0  0  0  0  0  0  0  0  0  0  0  0
  -25.9590  -30.8100   21.3840 C   0  0  0  0  0  2  0  0  0  0  0  0
  -26.0310  -29.4360   20.7320 C   0  0  0  0  0  0  0  0  0  0  0  0
  -27.2160  -28.6400   20.7160 C   0  0  0  0  0  3  0  0  0  0  0  0
  -26.0340  -26.9260   19.4780 C   0  0  0  0  0  3  0  0  0  0  0  0
  -24.8600  -27.7010   19.5050 C   0  0  0  0  0  3  0  0  0  0  0  0
  -23.6200  -29.8240   20.2030 C   0  0  0  0  0  2  0  0  0  0  0  0
  -24.6920  -31.0780   22.1210 N   0  0  0  0  0  0  0  0  0  0  0  0
  -23.5670  -32.1570   23.7710 O   0  0  0  0  0  0  0  0  0  0  0  0
  -22.7700  -29.4670   22.5510 C   0  0  0  0  0  0  0  0  0  0  0  0
  -21.4430  -29.2880   22.4360 N   0  0  0  0  0  0  0  0  0  0  0  0
  -23.4570  -28.8370   23.3600 O   0  0  0  0  0  0  0  0  0  0  0  0
  -20.9490  -29.8480   21.7570 H   0  0  0  0  0  0  0  0  0  0  0  0
  -18.0740  -28.0790   22.9510 C   0  0  0  0  0  0  0  0  0  0  0  0
  -20.6320  -28.3480   23.2110 C   0  0  0  0  0  3  0  0  0  0  0  0
  -20.7360  -26.9160   22.6380 C   0  0  0  0  0  2  0  0  0  0  0  0
  -19.6320  -26.5880   21.6290 C   0  0  0  0  0  2  0  0  0  0  0  0
  -18.2520  -26.7290   22.2770 C   0  0  0  0  0  2  0  0  0  0  0  0
  -19.1910  -28.8460   23.3760 C   0  0  0  0  0  0  0  0  0  0  0  0
  -18.9700  -30.1090   23.9680 C   0  0  0  0  0  3  0  0  0  0  0  0
  -17.6640  -30.6060   24.1390 C   0  0  0  0  0  3  0  0  0  0  0  0
  -16.5610  -29.8350   23.7320 C   0  0  0  0  0  3  0  0  0  0  0  0
  -16.7660  -28.5740   23.1430 C   0  0  0  0  0  3  0  0  0  0  0  0
  -25.9350  -32.5120   23.8320 C   0  0  0  0  0  3  0  0  0  0  0  0
  -25.6270  -33.9050   24.1770 N   0  0  0  0  0  0  0  0  0  0  0  0
  -25.9430  -34.9660   23.4220 C   0  0  0  0  0  0  0  0  0  0  0  0
  -26.5950  -34.8720   22.3780 O   0  0  0  0  0  0  0  0  0  0  0  0
  -25.0470  -34.0510   24.9900 H   0  0  0  0  0  0  0  0  0  0  0  0
  -24.2040  -36.7560   23.1120 C   0  0  0  0  0  1  0  0  0  0  0  0
  -25.4600  -36.3490   23.8980 C   0  0  0  0  0  3  0  0  0  0  0  0
  -27.6080  -37.2340   24.6960 C   0  0  0  0  0  1  0  0  0  0  0  0
  -26.4870  -37.4050   23.7750 N   0  0  0  0  0  0  0  0  0  0  0  0
  -26.0820  -38.3230   23.9350 H   0  0  0  0  0  0  0  0  0  0  0  0
  -26.4680  -31.7310   25.0960 C   0  0  1  0  0  0  0  0  0  0  0  0
  -25.3900  -31.4920   26.1770 C   0  0  0  0  0  1  0  0  0  0  0  0
  -27.0490  -30.3570   24.6890 C   0  0  0  0  0  1  0  0  0  0  0  0
  -27.6230  -32.5230   25.7510 C   0  0  0  0  0  1  0  0  0  0  0  0
  -28.8970  -21.4320   19.2450 C   0  0  0  0  0  2  0  0  0  0  0  0
  -28.2130  -19.0690   20.0460 C   0  0  0  0  0  3  0  0  0  0  0  0
  -28.4350  -17.6910   20.3070 C   0  0  0  0  0  3  0  0  0  0  0  0
  -29.2670  -19.9970   19.8420 C   0  0  0  0  0  0  0  0  0  0  0  0
  -30.5860  -19.4490   19.9900 C   0  0  0  0  0  0  0  0  0  0  0  0
  -30.8070  -18.0670   20.3700 C   0  0  0  0  0  0  0  0  0  0  0  0
  -29.7280  -17.1300   20.4410 C   0  0  0  0  0  0  0  0  0  0  0  0
  -31.7770  -20.3370   19.6570 C   0  0  0  0  0  1  0  0  0  0  0  0
  -32.2100  -17.6130   20.7530 C   0  0  0  0  0  1  0  0  0  0  0  0
  -30.5720  -14.6620   20.2440 C   0  0  0  0  0  0  0  0  0  0  0  0
  -30.3430  -12.4260   19.1760 C   0  0  0  0  0  2  0  0  0  0  0  0
  -29.3710  -12.5740   17.9860 C   0  0  0  0  0  2  0  0  0  0  0  0
  -27.9050  -12.4290   18.4430 C   0  0  0  0  0  2  0  0  0  0  0  0
  -27.5860  -13.2620   19.7120 C   0  0  0  0  0  3  0  0  0  0  0  0
  -28.6710  -13.0800   20.7970 C   0  0  0  0  0  2  0  0  0  0  0  0
  -29.9660  -13.4310   20.1920 N   0  0  0  0  0  0  0  0  0  0  0  0
  -31.7030  -14.8230   19.7760 O   0  0  0  0  0  0  0  0  0  0  0  0
  -29.7970  -15.6870   20.7270 N   0  0  0  0  0  0  0  0  0  0  0  0
  -28.9370  -15.3170   21.0980 H   0  0  0  0  0  0  0  0  0  0  0  0
  -25.2120  -13.8530   20.4900 C   0  0  0  0  0  0  0  0  0  0  0  0
  -24.1570  -13.0780   20.8830 C   0  0  0  0  0  0  0  0  0  0  0  0
  -24.6170  -11.7260   20.8280 C   0  0  0  0  0  0  0  0  0  0  0  0
  -26.2500  -12.9750   20.2260 N   0  0  0  0  0  0  0  0  0  0  0  0
  -25.8980  -11.6900   20.4860 N   0  0  0  0  0  0  0  0  0  0  0  0
  -23.8950  -10.4630   21.0240 C   0  0  0  0  0  0  0  0  0  0  0  0
  -24.3460   -9.4900   21.9430 C   0  0  0  0  0  3  0  0  0  0  0  0
  -23.6240   -8.2930   22.1280 C   0  0  0  0  0  3  0  0  0  0  0  0
  -22.4360   -8.0580   21.3930 C   0  0  0  0  0  0  0  0  0  0  0  0
  -22.0060   -9.0180   20.4620 C   0  0  0  0  0  3  0  0  0  0  0  0
  -22.7290  -10.2090   20.2760 C   0  0  0  0  0  3  0  0  0  0  0  0
  -21.6820   -6.9150   21.4920 O   0  0  0  0  0  0  0  0  0  0  0  0
  -21.6490   -6.1700   22.6440 C   0  0  0  0  0  0  0  0  0  0  0  0
  -21.2390   -6.7210   23.8770 C   0  0  0  0  0  3  0  0  0  0  0  0
  -21.1530   -5.9020   25.0200 C   0  0  0  0  0  3  0  0  0  0  0  0
  -21.4670   -4.5330   24.9310 C   0  0  0  0  0  0  0  0  0  0  0  0
  -21.8690   -3.9800   23.7030 C   0  0  0  0  0  3  0  0  0  0  0  0
  -21.9560   -4.7970   22.5610 C   0  0  0  0  0  0  0  0  0  0  0  0
  -22.3230   -4.2560   21.3750 F   0  0  0  0  0  0  0  0  0  0  0  0
  -21.3760   -3.7440   26.0280 F   0  0  0  0  0  0  0  0  0  0  0  0
  -22.7670  -13.5520   21.1950 C   0  0  0  0  0  0  0  0  0  0  0  0
  -22.0650  -12.8440   22.0730 N   0  0  0  0  0  0  0  0  0  0  0  0
  -22.3170  -14.5840   20.6980 O   0  0  0  0  0  0  0  0  0  0  0  0
  -22.4460  -12.0100   22.4950 H   0  0  0  0  0  0  0  0  0  0  0  0
  -21.1330  -13.1370   22.3280 H   0  0  0  0  0  0  0  0  0  0  0  0
  -25.3720  -15.2250   20.3110 N   0  0  0  0  0  0  0  0  0  0  0  0
  -24.5970  -15.8710   20.4150 H   0  0  0  0  0  0  0  0  0  0  0  0
  -26.1760  -15.6370   19.8580 H   0  0  0  0  0  0  0  0  0  0  0  0
  1  7  1  0
  2  1  2  0
  3  5  1  0
  4  3  1  0
  6  8  1  0
  6  4  1  0
  7 10  1  0
  7  5  1  0
  8  1  1  0
  8  9  1  1
 10 12  1  0
 11 22  2  0
 12 17  1  0
 13 21  1  0
 13 23  1  0
 14 20  1  0
 14 16  1  0
 15 21  1  0
 16 15  1  0
 17 16  2  0
 18 19  1  0
 18 12  2  0
 19 14  2  0
 20 13  1  0
 21 11  1  0
 23 25  2  0
 24 23  1  0
 26 24  1  0
 27 36  2  0
 27 32  1  0
 28 24  1  0
 28 32  1  0
 29 28  1  0
 30 31  1  0
 30 29  1  0
 31 27  1  0
 32 33  2  0
 33 34  1  0
 35 34  2  0
 36 35  1  0
 37 11  1  0
 37 38  1  0
 37 47  1  0
 38 41  1  0
 39 43  1  0
 39 38  1  0
 40 39  2  0
 43 42  1  0
 45 43  1  0
 45 46  1  0
 45 44  1  0
 47 50  1  1
 47 48  1  0
 49 47  1  0
 51 54  1  0
 51  8  1  0
 52 53  1  0
 53 57  2  0
 54 55  1  0
 54 52  2  0
 55 56  2  0
 56 57  1  0
 56 59  1  0
 57 68  1  0
 58 55  1  0
 60 68  1  0
 61 66  1  0
 62 63  1  0
 62 61  1  0
 64 63  1  0
 64 73  1  0
 64 65  1  0
 66 60  1  0
 66 65  1  0
 67 60  2  0
 68 69  1  0
 70 71  2  0
 71 90  1  0
 72 71  1  0
 72 75  1  0
 73 74  1  0
 73 70  1  0
 74 72  2  0
 75 76  1  0
 76 77  2  0
 78 81  1  0
 78 77  1  0
 79 78  2  0
 80 79  1  0
 80 75  2  0
 81 82  1  0
 82 83  1  0
 83 84  2  0
 85 84  1  0
 85 89  1  0
 86 85  2  0
 87 82  2  0
 87 86  1  0
 88 87  1  0
 90 91  1  0
 91 94  1  0
 91 93  1  0
 92 90  2  0
 95 96  1  0
 95 70  1  0
 97 95  1  0
M  ISO  4   7 101  10 101  60 100  68 100
M  END
>  <TORSDO>  (46) 
F 18

>  <SCORE>  (46) 
-15.198

>  <name>  (46) 
45

>  <ligand_id>  (46) 
45

>  <original_smiles>  (46) 
[H]C([H])=C1C([H])(Oc2c([H])c([H])c3c(c2[H])C([H])([H])N(C(=O)C([H])(N([H])C(=O)C([H])(N([H])C([H])([H])[H])C([H])([H])[H])C(C([H])([H])[H])(C([H])([H])[H])C([H])([H])[H])C([H])(C(=O)N([H])C2([H])c4c([H])c([H])c([H])c([H])c4C([H])([H])C([H])([H])C2([H])[H])C3([H])[H])C([H])([H])C([H])([H])C([H])([H])C([H])([H])[N+]1([H])C([H])([H])c1c([H])c([H])c(N([H])C(=O)N2C([H])([H])C([H])([H])C([H])([H])C([H])(n3nc(-c4c([H])c([H])c(Oc5c([H])c([H])c(F)c([H])c5F)c([H])c4[H])c(C(=O)N([H])[H])c3N([H])[H])C2([H])[H])c(C([H])([H])[H])c1C([H])([H])[H]

>  <smiles>  (46) 
[H]C([H])=C1C([H])(Oc2c([H])c([H])c3c(c2[H])C([H])([H])N(C(=O)C([H])(N([H])C(=O)C([H])(N([H])C([H])([H])[H])C([H])([H])[H])C(C([H])([H])[H])(C([H])([H])[H])C([H])([H])[H])C([H])(C(=O)N([H])C2([H])c4c([H])c([H])c([H])c([H])c4C([H])([H])C([H])([H])C2([H])[H])C3([H])[H])C([H])([H])C([H])([H])C([H])([H])C([H])([H])[N+]1([H])C([H])([H])c1c([H])c([H])c(N([H])C(=O)N2C([H])([H])C([H])([H])C([H])([H])C([H])(n3nc(-c4c([H])c([H])c(Oc5c([H])c([H])c(F)c([H])c5F)c([H])c4[H])c(C(=O)N([H])[H])c3N([H])[H])C2([H])[H])c(C([H])([H])[H])c1C([H])([H])[H]

$$$$
46:0:0
     RDKit          3D

 94102  0  0  1  0  0  0  0  0999 V2000
  -29.7860  -20.7340   21.2700 C   0  0  0  0  0  2  0  0  0  0  0  0
  -30.6050  -19.7550   19.0950 C   0  0  0  0  0  3  0  0  0  0  0  0
  -30.9920  -18.7010   18.2570 C   0  0  0  0  0  3  0  0  0  0  0  0
  -30.1270  -19.5030   20.3940 C   0  0  0  0  0  0  0  0  0  0  0  0
  -30.0660  -18.1410   20.8560 C   0  0  0  0  0  0  0  0  0  0  0  0
  -30.4890  -17.0580   20.0120 C   0  0  0  0  0  0  0  0  0  0  0  0
  -30.9300  -17.3670   18.6900 C   0  0  0  0  0  0  0  0  0  0  0  0
  -29.5720  -17.8430   22.2700 C   0  0  0  0  0  1  0  0  0  0  0  0
  -31.3430  -16.1760   17.5050 Cl  0  0  0  0  0  0  0  0  0  0  0  0
  -31.1330  -14.6220   20.1580 C   0  0  0  0  0  0  0  0  0  0  0  0
  -30.7990  -12.4600   19.0370 C   0  0  0  0  0  2  0  0  0  0  0  0
  -29.8160  -12.6790   17.8650 C   0  0  0  0  0  2  0  0  0  0  0  0
  -28.3570  -12.5650   18.3440 C   0  0  0  0  0  2  0  0  0  0  0  0
  -28.0720  -13.3970   19.6230 C   0  0  0  0  0  3  0  0  0  0  0  0
  -29.1590  -13.1490   20.6940 C   0  0  0  0  0  2  0  0  0  0  0  0
  -30.4680  -13.4370   20.0880 N   0  0  0  0  0  0  0  0  0  0  0  0
  -32.3020  -14.7530   19.7860 O   0  0  0  0  0  0  0  0  0  0  0  0
  -30.3660  -15.6920   20.4710 N   0  0  0  0  0  0  0  0  0  0  0  0
  -29.5080  -15.4710   20.9510 H   0  0  0  0  0  0  0  0  0  0  0  0
  -25.7040  -14.0310   20.4180 C   0  0  0  0  0  0  0  0  0  0  0  0
  -24.6360  -13.2670   20.8030 C   0  0  0  0  0  0  0  0  0  0  0  0
  -25.0780  -11.9100   20.7390 C   0  0  0  0  0  0  0  0  0  0  0  0
  -26.7310  -13.1390   20.1420 N   0  0  0  0  0  0  0  0  0  0  0  0
  -26.3580  -11.8570   20.3950 N   0  0  0  0  0  0  0  0  0  0  0  0
  -24.3400  -10.6540   20.9250 C   0  0  0  0  0  0  0  0  0  0  0  0
  -24.7430   -9.6940   21.8790 C   0  0  0  0  0  3  0  0  0  0  0  0
  -24.0060   -8.5020   22.0510 C   0  0  0  0  0  3  0  0  0  0  0  0
  -22.8520   -8.2630   21.2690 C   0  0  0  0  0  0  0  0  0  0  0  0
  -22.4690   -9.2100   20.3020 C   0  0  0  0  0  3  0  0  0  0  0  0
  -23.2070  -10.3920   20.1280 C   0  0  0  0  0  3  0  0  0  0  0  0
  -22.0890   -7.1230   21.3500 O   0  0  0  0  0  0  0  0  0  0  0  0
  -21.9310   -6.4450   22.5330 C   0  0  0  0  0  0  0  0  0  0  0  0
  -21.3680   -7.0600   23.6740 C   0  0  0  0  0  3  0  0  0  0  0  0
  -21.1610   -6.3080   24.8480 C   0  0  0  0  0  3  0  0  0  0  0  0
  -21.5020   -4.9420   24.8800 C   0  0  0  0  0  0  0  0  0  0  0  0
  -22.0580   -4.3280   23.7430 C   0  0  0  0  0  3  0  0  0  0  0  0
  -22.2680   -5.0770   22.5730 C   0  0  0  0  0  0  0  0  0  0  0  0
  -22.7830   -4.4740   21.4740 F   0  0  0  0  0  0  0  0  0  0  0  0
  -21.2950   -4.2180   26.0050 F   0  0  0  0  0  0  0  0  0  0  0  0
  -23.2530  -13.7560   21.1210 C   0  0  0  0  0  0  0  0  0  0  0  0
  -22.5450  -13.0610   22.0030 N   0  0  0  0  0  0  0  0  0  0  0  0
  -22.8090  -14.7900   20.6210 O   0  0  0  0  0  0  0  0  0  0  0  0
  -22.9160  -12.2230   22.4260 H   0  0  0  0  0  0  0  0  0  0  0  0
  -21.6160  -13.3670   22.2550 H   0  0  0  0  0  0  0  0  0  0  0  0
  -25.8850  -15.4020   20.2560 N   0  0  0  0  0  0  0  0  0  0  0  0
  -25.1270  -16.0620   20.3920 H   0  0  0  0  0  0  0  0  0  0  0  0
  -26.7200  -15.8310   19.8790 H   0  0  0  0  0  0  0  0  0  0  0  0
  -28.7500  -21.6730   20.7420 N   0  0  0  0  0  4  0  0  0  0  0  0
  -28.2660  -21.9970   21.5630 H   0  0  0  0  0  0  0  0  0  0  0  0
  -28.0790  -21.1530   20.1980 H   0  0  0  0  0  0  0  0  0  0  0  0
  -29.1950  -22.8940   19.9980 C   0  0  0  0  0  2  0  0  0  0  0  0
  -28.4460  -24.2050   20.4180 C   0  0  0  0  0  2  0  0  0  0  0  0
  -28.7330  -25.4410   19.5150 C   0  0  0  0  0  2  0  0  0  0  0  0
  -28.5650  -26.7260   20.1620 O   0  0  0  0  0  0  0  0  0  0  0  0
  -24.6300  -31.8650   23.1830 C   0  0  0  0  0  0  0  0  0  0  0  0
  -27.3630  -27.4180   20.1300 C   0  0  0  0  0  0  0  0  0  0  0  0
  -23.4700  -30.4590   21.5150 C   0  0  0  0  0  3  0  0  0  0  0  0
  -24.9560  -28.9270   20.1190 C   0  0  0  0  0  0  0  0  0  0  0  0
  -26.0010  -30.8240   21.3730 C   0  0  0  0  0  2  0  0  0  0  0  0
  -26.1050  -29.4550   20.7210 C   0  0  0  0  0  0  0  0  0  0  0  0
  -27.3080  -28.7100   20.7150 C   0  0  0  0  0  3  0  0  0  0  0  0
  -26.1840  -26.8980   19.5500 C   0  0  0  0  0  3  0  0  0  0  0  0
  -24.9890  -27.6450   19.5430 C   0  0  0  0  0  3  0  0  0  0  0  0
  -23.7140  -29.7880   20.1390 C   0  0  0  0  0  2  0  0  0  0  0  0
  -24.7180  -31.0660   22.0820 N   0  0  0  0  0  0  0  0  0  0  0  0
  -23.5360  -32.1310   23.7010 O   0  0  0  0  0  0  0  0  0  0  0  0
  -22.8050  -29.4300   22.4580 C   0  0  0  0  0  0  0  0  0  0  0  0
  -21.4850  -29.2410   22.3040 N   0  0  0  0  0  0  0  0  0  0  0  0
  -23.4770  -28.8040   23.2820 O   0  0  0  0  0  0  0  0  0  0  0  0
  -21.0090  -29.7970   21.6090 H   0  0  0  0  0  0  0  0  0  0  0  0
  -18.1070  -28.0270   22.7240 C   0  0  0  0  0  0  0  0  0  0  0  0
  -20.6570  -28.2930   23.0480 C   0  0  0  0  0  3  0  0  0  0  0  0
  -20.7800  -26.8690   22.4580 C   0  0  0  0  0  2  0  0  0  0  0  0
  -19.6970  -26.5490   21.4230 C   0  0  0  0  0  2  0  0  0  0  0  0
  -18.3030  -26.6830   22.0430 C   0  0  0  0  0  2  0  0  0  0  0  0
  -19.2140  -28.7900   23.1810 C   0  0  0  0  0  0  0  0  0  0  0  0
  -18.9800  -30.0490   23.7750 C   0  0  0  0  0  3  0  0  0  0  0  0
  -17.6710  -30.5450   23.9210 C   0  0  0  0  0  3  0  0  0  0  0  0
  -16.5770  -29.7770   23.4830 C   0  0  0  0  0  3  0  0  0  0  0  0
  -16.7960  -28.5220   22.8880 C   0  0  0  0  0  3  0  0  0  0  0  0
  -25.9000  -32.5020   23.8320 C   0  0  0  0  0  3  0  0  0  0  0  0
  -25.5730  -33.8980   24.1560 N   0  0  0  0  0  0  0  0  0  0  0  0
  -25.9100  -34.9530   23.4020 C   0  0  0  0  0  0  0  0  0  0  0  0
  -26.5990  -34.8560   22.3830 O   0  0  0  0  0  0  0  0  0  0  0  0
  -24.9600  -34.0490   24.9440 H   0  0  0  0  0  0  0  0  0  0  0  0
  -24.1710  -36.7280   23.0240 C   0  0  0  0  0  1  0  0  0  0  0  0
  -25.4040  -36.3350   23.8510 C   0  0  0  0  0  3  0  0  0  0  0  0
  -27.5160  -37.2400   24.7210 C   0  0  0  0  0  1  0  0  0  0  0  0
  -26.4280  -37.3980   23.7590 N   0  0  0  0  0  0  0  0  0  0  0  0
  -26.0090  -38.3130   23.9040 H   0  0  0  0  0  0  0  0  0  0  0  0
  -26.3920  -31.7370   25.1200 C   0  0  1  0  0  0  0  0  0  0  0  0
  -25.2740  -31.4900   26.1610 C   0  0  0  0  0  1  0  0  0  0  0  0
  -26.9980  -30.3670   24.7420 C   0  0  0  0  0  1  0  0  0  0  0  0
  -27.5150  -32.5450   25.8150 C   0  0  0  0  0  1  0  0  0  0  0  0
  2  4  1  0
  3  7  1  0
  3  2  2  0
  4  5  2  0
  4  1  1  0
  5  8  1  0
  6 18  1  0
  6  5  1  0
  7  6  2  0
  9  7  1  0
 10 18  1  0
 11 16  1  0
 12 13  1  0
 12 11  1  0
 14 13  1  0
 14 23  1  0
 14 15  1  0
 16 10  1  0
 16 15  1  0
 17 10  2  0
 18 19  1  0
 20 21  2  0
 21 40  1  0
 22 21  1  0
 22 25  1  0
 23 24  1  0
 23 20  1  0
 24 22  2  0
 25 26  1  0
 26 27  2  0
 28 31  1  0
 28 27  1  0
 29 28  2  0
 30 29  1  0
 30 25  2  0
 31 32  1  0
 32 37  2  0
 32 33  1  0
 33 34  2  0
 34 35  1  0
 35 39  1  0
 36 35  2  0
 37 36  1  0
 38 37  1  0
 40 41  1  0
 41 44  1  0
 41 43  1  0
 42 40  2  0
 45 46  1  0
 45 20  1  0
 47 45  1  0
 48  1  1  0
 48 49  1  0
 50 48  1  0
 51 52  1  0
 51 48  1  0
 53 54  1  0
 53 52  1  0
 55 66  2  0
 56 54  1  0
 56 61  1  0
 57 65  1  0
 57 67  1  0
 58 64  1  0
 58 60  1  0
 59 65  1  0
 60 59  1  0
 61 60  2  0
 62 56  2  0
 63 62  1  0
 63 58  2  0
 64 57  1  0
 65 55  1  0
 67 69  2  0
 68 67  1  0
 70 68  1  0
 71 80  2  0
 71 76  1  0
 72 68  1  0
 72 76  1  0
 73 72  1  0
 74 75  1  0
 74 73  1  0
 75 71  1  0
 76 77  2  0
 77 78  1  0
 79 78  2  0
 80 79  1  0
 81 55  1  0
 81 82  1  0
 81 91  1  0
 82 85  1  0
 83 87  1  0
 83 82  1  0
 84 83  2  0
 87 86  1  0
 89 87  1  0
 89 90  1  0
 89 88  1  0
 91 94  1  1
 91 92  1  0
 93 91  1  0
M  ISO  4  10 100  18 100  53 101  54 101
M  END
>  <TORSDO>  (47) 
F 21

>  <SCORE>  (47) 
-12.131

>  <name>  (47) 
46

>  <ligand_id>  (47) 
46

>  <original_smiles>  (47) 
[H]c1c([H])c([H])c2c(c1[H])C([H])([H])C([H])([H])C([H])([H])C2([H])N([H])C(=O)C1([H])N(C(=O)C([H])(N([H])C(=O)C([H])(N([H])C([H])([H])[H])C([H])([H])[H])C(C([H])([H])[H])(C([H])([H])[H])C([H])([H])[H])C([H])([H])c2c([H])c(OC([H])([H])C([H])([H])C([H])([H])[N+]([H])([H])C([H])([H])c3c([H])c([H])c(Cl)c(N([H])C(=O)N4C([H])([H])C([H])([H])C([H])([H])C([H])(n5nc(-c6c([H])c([H])c(Oc7c([H])c([H])c(F)c([H])c7F)c([H])c6[H])c(C(=O)N([H])[H])c5N([H])[H])C4([H])[H])c3C([H])([H])[H])c([H])c([H])c2C1([H])[H]

>  <smiles>  (47) 
[H]c1c([H])c([H])c2c(c1[H])C([H])([H])C([H])([H])C([H])([H])C2([H])N([H])C(=O)C1([H])N(C(=O)C([H])(N([H])C(=O)C([H])(N([H])C([H])([H])[H])C([H])([H])[H])C(C([H])([H])[H])(C([H])([H])[H])C([H])([H])[H])C([H])([H])c2c([H])c(OC([H])([H])C([H])([H])C([H])([H])[N+]([H])([H])C([H])([H])c3c([H])c([H])c(Cl)c(N([H])C(=O)N4C([H])([H])C([H])([H])C([H])([H])C([H])(n5nc(-c6c([H])c([H])c(Oc7c([H])c([H])c(F)c([H])c7F)c([H])c6[H])c(C(=O)N([H])[H])c5N([H])[H])C4([H])[H])c3C([H])([H])[H])c([H])c([H])c2C1([H])[H]

$$$$
47:0:0
     RDKit          3D

 98106  0  0  1  0  0  0  0  0999 V2000
  -30.1580  -20.8030   21.5030 C   0  0  0  0  0  0  0  0  0  0  0  0
  -32.3780  -20.3870   22.5180 C   0  0  0  0  0  1  0  0  0  0  0  0
  -31.0980  -19.9260   21.9620 N   0  0  0  0  0  0  0  0  0  0  0  0
  -29.0620  -20.4290   21.0720 O   0  0  0  0  0  0  0  0  0  0  0  0
  -30.9640  -18.4480   21.8200 C   0  0  0  0  0  2  0  0  0  0  0  0
  -31.6380  -17.3030   17.6880 C   0  0  0  0  0  3  0  0  0  0  0  0
  -32.0500  -18.7690   19.5530 C   0  0  0  0  0  3  0  0  0  0  0  0
  -30.9410  -16.4230   18.5340 C   0  0  0  0  0  0  0  0  0  0  0  0
  -31.3160  -17.9210   20.4230 C   0  0  0  0  0  0  0  0  0  0  0  0
  -30.8770  -16.6440   19.9450 C   0  0  0  0  0  0  0  0  0  0  0  0
  -32.2340  -18.4570   18.2030 C   0  0  0  0  0  0  0  0  0  0  0  0
  -30.2230  -15.3030   17.8210 C   0  0  0  0  0  1  0  0  0  0  0  0
  -33.1100  -19.5260   17.1710 Cl  0  0  0  0  0  0  0  0  0  0  0  0
  -31.1120  -14.5190   21.1620 C   0  0  0  0  0  0  0  0  0  0  0  0
  -30.9390  -12.1860   20.4220 C   0  0  0  0  0  2  0  0  0  0  0  0
  -30.1840  -12.1650   19.0800 C   0  0  0  0  0  2  0  0  0  0  0  0
  -28.6470  -12.2100   19.2760 C   0  0  0  0  0  2  0  0  0  0  0  0
  -28.1440  -13.1660   20.4030 C   0  0  0  0  0  3  0  0  0  0  0  0
  -29.0600  -13.1110   21.6450 C   0  0  0  0  0  2  0  0  0  0  0  0
  -30.4380  -13.3350   21.1910 N   0  0  0  0  0  0  0  0  0  0  0  0
  -32.3420  -14.5790   21.1360 O   0  0  0  0  0  0  0  0  0  0  0  0
  -30.3790  -15.6160   20.8310 N   0  0  0  0  0  0  0  0  0  0  0  0
  -29.3840  -15.4570   20.8180 H   0  0  0  0  0  0  0  0  0  0  0  0
  -25.6960  -13.8520   20.7960 C   0  0  0  0  0  0  0  0  0  0  0  0
  -24.5690  -13.1180   21.0490 C   0  0  0  0  0  0  0  0  0  0  0  0
  -24.9940  -11.7550   21.1120 C   0  0  0  0  0  0  0  0  0  0  0  0
  -26.7390  -12.9380   20.7260 N   0  0  0  0  0  0  0  0  0  0  0  0
  -26.3120  -11.6750   20.9760 N   0  0  0  0  0  0  0  0  0  0  0  0
  -24.2170  -10.5170   21.2370 C   0  0  0  0  0  0  0  0  0  0  0  0
  -24.5470   -9.5330   22.1930 C   0  0  0  0  0  3  0  0  0  0  0  0
  -23.7700   -8.3600   22.3110 C   0  0  0  0  0  3  0  0  0  0  0  0
  -22.6490   -8.1650   21.4690 C   0  0  0  0  0  0  0  0  0  0  0  0
  -22.3380   -9.1390   20.5020 C   0  0  0  0  0  3  0  0  0  0  0  0
  -23.1160  -10.3020   20.3830 C   0  0  0  0  0  3  0  0  0  0  0  0
  -21.8530   -7.0440   21.4940 O   0  0  0  0  0  0  0  0  0  0  0  0
  -21.7340   -6.2700   22.6200 C   0  0  0  0  0  0  0  0  0  0  0  0
  -21.2930   -6.8050   23.8510 C   0  0  0  0  0  3  0  0  0  0  0  0
  -21.1200   -5.9600   24.9650 C   0  0  0  0  0  3  0  0  0  0  0  0
  -21.3780   -4.5810   24.8490 C   0  0  0  0  0  0  0  0  0  0  0  0
  -21.8120   -4.0460   23.6250 C   0  0  0  0  0  3  0  0  0  0  0  0
  -21.9870   -4.8870   22.5140 C   0  0  0  0  0  0  0  0  0  0  0  0
  -22.3840   -4.3630   21.3290 F   0  0  0  0  0  0  0  0  0  0  0  0
  -21.2040   -3.7680   25.9180 F   0  0  0  0  0  0  0  0  0  0  0  0
  -23.1620  -13.6370   21.1260 C   0  0  0  0  0  0  0  0  0  0  0  0
  -22.3130  -12.9900   21.9200 N   0  0  0  0  0  0  0  0  0  0  0  0
  -22.8170  -14.6490   20.5190 O   0  0  0  0  0  0  0  0  0  0  0  0
  -22.5970  -12.1700   22.4340 H   0  0  0  0  0  0  0  0  0  0  0  0
  -21.3640  -13.3200   22.0160 H   0  0  0  0  0  0  0  0  0  0  0  0
  -25.9100  -15.2150   20.6000 N   0  0  0  0  0  0  0  0  0  0  0  0
  -25.1400  -15.8750   20.5950 H   0  0  0  0  0  0  0  0  0  0  0  0
  -26.7930  -15.6400   20.3490 H   0  0  0  0  0  0  0  0  0  0  0  0
  -30.4700  -22.3230   21.4910 C   0  0  0  0  0  2  0  0  0  0  0  0
  -29.4690  -24.4780   20.6780 C   0  0  0  0  0  0  0  0  0  0  0  0
  -29.4010  -23.1490   20.9030 N   0  0  0  0  0  0  0  0  0  0  0  0
  -30.4690  -25.1330   20.9830 O   0  0  0  0  0  0  0  0  0  0  0  0
  -28.5610  -22.6510   20.6330 H   0  0  0  0  0  0  0  0  0  0  0  0
  -28.2480  -25.1650   20.0210 C   0  0  0  0  0  2  0  0  0  0  0  0
  -28.3940  -26.6030   19.9330 O   0  0  0  0  0  0  0  0  0  0  0  0
  -24.5110  -31.7120   23.0180 C   0  0  0  0  0  0  0  0  0  0  0  0
  -27.2190  -27.3350   19.8900 C   0  0  0  0  0  0  0  0  0  0  0  0
  -23.3230  -30.3060   21.3650 C   0  0  0  0  0  3  0  0  0  0  0  0
  -24.8000  -28.8170   19.9120 C   0  0  0  0  0  0  0  0  0  0  0  0
  -25.8440  -30.7110   21.1640 C   0  0  0  0  0  2  0  0  0  0  0  0
  -25.9510  -29.3510   20.5010 C   0  0  0  0  0  0  0  0  0  0  0  0
  -27.1640  -28.6210   20.4810 C   0  0  0  0  0  3  0  0  0  0  0  0
  -26.0450  -26.8250   19.2860 C   0  0  0  0  0  3  0  0  0  0  0  0
  -24.8420  -27.5550   19.2970 C   0  0  0  0  0  3  0  0  0  0  0  0
  -23.5390  -29.6480   19.9760 C   0  0  0  0  0  2  0  0  0  0  0  0
  -24.5770  -30.9250   21.9060 N   0  0  0  0  0  0  0  0  0  0  0  0
  -23.4280  -31.9590   23.5650 O   0  0  0  0  0  0  0  0  0  0  0  0
  -22.6970  -29.2620   22.3190 C   0  0  0  0  0  0  0  0  0  0  0  0
  -21.3710  -29.0710   22.2120 N   0  0  0  0  0  0  0  0  0  0  0  0
  -23.3980  -28.6290   23.1120 O   0  0  0  0  0  0  0  0  0  0  0  0
  -20.8660  -29.6290   21.5370 H   0  0  0  0  0  0  0  0  0  0  0  0
  -18.0140  -27.8430   22.7430 C   0  0  0  0  0  0  0  0  0  0  0  0
  -20.5750  -28.1130   22.9790 C   0  0  0  0  0  3  0  0  0  0  0  0
  -20.6790  -26.6950   22.3750 C   0  0  0  0  0  2  0  0  0  0  0  0
  -19.5610  -26.3830   21.3740 C   0  0  0  0  0  2  0  0  0  0  0  0
  -18.1890  -26.5070   22.0410 C   0  0  0  0  0  2  0  0  0  0  0  0
  -19.1350  -28.6040   23.1700 C   0  0  0  0  0  0  0  0  0  0  0  0
  -18.9170  -29.8560   23.7860 C   0  0  0  0  0  3  0  0  0  0  0  0
  -17.6120  -30.3440   23.9850 C   0  0  0  0  0  3  0  0  0  0  0  0
  -16.5060  -29.5790   23.5770 C   0  0  0  0  0  3  0  0  0  0  0  0
  -16.7080  -28.3310   22.9600 C   0  0  0  0  0  3  0  0  0  0  0  0
  -25.7880  -32.3600   23.6360 C   0  0  0  0  0  3  0  0  0  0  0  0
  -25.4450  -33.7350   24.0210 N   0  0  0  0  0  0  0  0  0  0  0  0
  -25.7550  -34.8260   23.3080 C   0  0  0  0  0  0  0  0  0  0  0  0
  -26.4330  -34.7810   22.2780 O   0  0  0  0  0  0  0  0  0  0  0  0
  -24.8450  -33.8430   24.8270 H   0  0  0  0  0  0  0  0  0  0  0  0
  -23.9820  -36.5860   23.0190 C   0  0  0  0  0  1  0  0  0  0  0  0
  -25.2300  -36.1810   23.8190 C   0  0  0  0  0  3  0  0  0  0  0  0
  -27.3380  -37.0840   24.6940 C   0  0  0  0  0  1  0  0  0  0  0  0
  -26.2350  -37.2640   23.7550 N   0  0  0  0  0  0  0  0  0  0  0  0
  -25.8040  -38.1660   23.9410 H   0  0  0  0  0  0  0  0  0  0  0  0
  -26.3560  -31.5600   24.8740 C   0  0  1  0  0  0  0  0  0  0  0  0
  -25.2930  -31.2600   25.9560 C   0  0  0  0  0  1  0  0  0  0  0  0
  -26.9670  -30.2110   24.4230 C   0  0  0  0  0  1  0  0  0  0  0  0
  -27.4970  -32.3640   25.5390 C   0  0  0  0  0  1  0  0  0  0  0  0
  1  3  1  0
  3  2  1  0
  4  1  2  0
  5  3  1  0
  6 11  2  0
  6  8  1  0
  7  9  2  0
  8 10  2  0
  9  5  1  0
 10  9  1  0
 10 22  1  0
 11  7  1  0
 12  8  1  0
 13 11  1  0
 14 20  1  0
 15 20  1  0
 16 17  1  0
 16 15  1  0
 18 17  1  0
 18 27  1  0
 18 19  1  0
 20 19  1  0
 21 14  2  0
 22 14  1  0
 23 22  1  0
 24 25  2  0
 25 26  1  0
 25 44  1  0
 26 29  1  0
 27 24  1  0
 27 28  1  0
 28 26  2  0
 29 30  1  0
 30 31  2  0
 32 35  1  0
 32 31  1  0
 33 32  2  0
 34 33  1  0
 34 29  2  0
 35 36  1  0
 36 37  1  0
 37 38  2  0
 39 38  1  0
 39 43  1  0
 40 39  2  0
 41 36  2  0
 41 40  1  0
 42 41  1  0
 44 45  1  0
 45 48  1  0
 45 47  1  0
 46 44  2  0
 49 24  1  0
 50 49  1  0
 51 49  1  0
 52  1  1  0
 53 54  1  0
 53 55  2  0
 54 52  1  0
 56 54  1  0
 57 53  1  0
 58 57  1  0
 59 70  2  0
 60 58  1  0
 60 65  1  0
 61 69  1  0
 61 71  1  0
 62 68  1  0
 62 64  1  0
 63 69  1  0
 64 63  1  0
 65 64  2  0
 66 67  1  0
 66 60  2  0
 67 62  2  0
 68 61  1  0
 69 59  1  0
 71 73  2  0
 72 71  1  0
 74 72  1  0
 75 84  2  0
 75 80  1  0
 76 72  1  0
 76 80  1  0
 77 76  1  0
 78 79  1  0
 78 77  1  0
 79 75  1  0
 80 81  2  0
 81 82  1  0
 83 82  2  0
 84 83  1  0
 85 59  1  0
 85 86  1  0
 85 95  1  0
 86 89  1  0
 87 91  1  0
 87 86  1  0
 88 87  2  0
 91 90  1  0
 93 91  1  0
 93 94  1  0
 93 92  1  0
 95 98  1  1
 95 96  1  0
 97 95  1  0
M  ISO  4  14 100  22 100  57 101  58 101
M  END
>  <TORSDO>  (48) 
F 21

>  <SCORE>  (48) 
-12.036

>  <name>  (48) 
47

>  <ligand_id>  (48) 
47

>  <original_smiles>  (48) 
[H]c1c([H])c([H])c2c(c1[H])C([H])([H])C([H])([H])C([H])([H])C2([H])N([H])C(=O)C1([H])N(C(=O)C([H])(N([H])C(=O)C([H])(N([H])C([H])([H])[H])C([H])([H])[H])C(C([H])([H])[H])(C([H])([H])[H])C([H])([H])[H])C([H])([H])c2c([H])c(OC([H])([H])C(=O)N([H])C([H])([H])C(=O)N(C([H])([H])[H])C([H])([H])c3c([H])c(Cl)c([H])c(C([H])([H])[H])c3N([H])C(=O)N3C([H])([H])C([H])([H])C([H])([H])C([H])(n4nc(-c5c([H])c([H])c(Oc6c([H])c([H])c(F)c([H])c6F)c([H])c5[H])c(C(=O)N([H])[H])c4N([H])[H])C3([H])[H])c([H])c([H])c2C1([H])[H]

>  <smiles>  (48) 
[H]c1c([H])c([H])c2c(c1[H])C([H])([H])C([H])([H])C([H])([H])C2([H])N([H])C(=O)C1([H])N(C(=O)C([H])(N([H])C(=O)C([H])(N([H])C([H])([H])[H])C([H])([H])[H])C(C([H])([H])[H])(C([H])([H])[H])C([H])([H])[H])C([H])([H])c2c([H])c(OC([H])([H])C(=O)N([H])C([H])([H])C(=O)N(C([H])([H])[H])C([H])([H])c3c([H])c(Cl)c([H])c(C([H])([H])[H])c3N([H])C(=O)N3C([H])([H])C([H])([H])C([H])([H])C([H])(n4nc(-c5c([H])c([H])c(Oc6c([H])c([H])c(F)c([H])c6F)c([H])c5[H])c(C(=O)N([H])[H])c4N([H])[H])C3([H])[H])c([H])c([H])c2C1([H])[H]

$$$$
48:0:0
     RDKit          3D

 95104  0  0  1  0  0  0  0  0999 V2000
  -29.1800  -23.8890   20.1090 C   0  0  0  0  0  0  0  0  0  0  0  0
  -27.6350  -23.7810   22.5480 C   0  0  0  0  0  2  0  0  0  0  0  0
  -28.1780  -25.1340   22.0900 C   0  0  0  0  0  2  0  0  0  0  0  0
  -28.5070  -22.5950   22.0820 C   0  0  0  0  0  2  0  0  0  0  0  0
  -28.2390  -25.1160   20.5700 C   0  0  0  0  0  3  0  0  0  0  0  0
  -29.0550  -22.6130   20.7060 N   0  0  0  0  0  0  0  0  0  0  0  0
  -30.0070  -24.1090   19.2170 O   0  0  0  0  0  0  0  0  0  0  0  0
  -29.6630  -18.7620   18.6150 C   0  0  0  0  0  3  0  0  0  0  0  0
  -29.1210  -21.1500   18.6940 C   0  0  0  0  0  3  0  0  0  0  0  0
  -30.0810  -18.7630   19.9620 C   0  0  0  0  0  0  0  0  0  0  0  0
  -29.9370  -20.0300   20.7060 C   0  0  0  0  0  0  0  0  0  0  0  0
  -29.4110  -21.2710   20.0790 C   0  0  0  0  0  0  0  0  0  0  0  0
  -29.2360  -19.9400   17.9870 C   0  0  0  0  0  0  0  0  0  0  0  0
  -30.4300  -20.0020   22.1620 C   0  0  0  0  0  1  0  0  0  0  0  0
  -28.8760  -19.9070   16.3010 Cl  0  0  0  0  0  0  0  0  0  0  0  0
  -30.8350  -17.4340   20.4490 C   0  0  0  0  0  2  0  0  0  0  0  0
  -31.0360  -14.8800   19.8250 C   0  0  0  0  0  0  0  0  0  0  0  0
  -30.7700  -12.5550   18.9320 C   0  0  0  0  0  2  0  0  0  0  0  0
  -29.7480  -12.5110   17.7750 C   0  0  0  0  0  2  0  0  0  0  0  0
  -28.3200  -12.3530   18.3140 C   0  0  0  0  0  2  0  0  0  0  0  0
  -28.0040  -13.3630   19.4460 C   0  0  0  0  0  3  0  0  0  0  0  0
  -29.1150  -13.3520   20.5140 C   0  0  0  0  0  2  0  0  0  0  0  0
  -30.3830  -13.6650   19.8350 N   0  0  0  0  0  0  0  0  0  0  0  0
  -32.1860  -14.9530   19.3890 O   0  0  0  0  0  0  0  0  0  0  0  0
  -30.3290  -16.0180   20.1770 N   0  0  0  0  0  0  0  0  0  0  0  0
  -29.3740  -15.8640   20.4640 H   0  0  0  0  0  0  0  0  0  0  0  0
  -25.7150  -14.0410   20.3840 C   0  0  0  0  0  0  0  0  0  0  0  0
  -24.6400  -13.3090   20.8020 C   0  0  0  0  0  0  0  0  0  0  0  0
  -25.0320  -11.9380   20.6900 C   0  0  0  0  0  0  0  0  0  0  0  0
  -26.6890  -13.1250   20.0340 N   0  0  0  0  0  0  0  0  0  0  0  0
  -26.2930  -11.8530   20.2880 N   0  0  0  0  0  0  0  0  0  0  0  0
  -24.2620  -10.7050   20.8930 C   0  0  0  0  0  0  0  0  0  0  0  0
  -24.6770   -9.7130   21.8130 C   0  0  0  0  0  3  0  0  0  0  0  0
  -23.9050   -8.5470   21.9990 C   0  0  0  0  0  3  0  0  0  0  0  0
  -22.7100   -8.3590   21.2670 C   0  0  0  0  0  0  0  0  0  0  0  0
  -22.3160   -9.3370   20.3380 C   0  0  0  0  0  3  0  0  0  0  0  0
  -23.0840  -10.4980   20.1490 C   0  0  0  0  0  3  0  0  0  0  0  0
  -21.9150   -7.2420   21.3620 O   0  0  0  0  0  0  0  0  0  0  0  0
  -21.8060   -6.5380   22.5360 C   0  0  0  0  0  0  0  0  0  0  0  0
  -21.3300   -7.1400   23.7220 C   0  0  0  0  0  3  0  0  0  0  0  0
  -21.1670   -6.3640   24.8890 C   0  0  0  0  0  3  0  0  0  0  0  0
  -21.4740   -4.9890   24.8680 C   0  0  0  0  0  0  0  0  0  0  0  0
  -21.9400   -4.3890   23.6860 C   0  0  0  0  0  3  0  0  0  0  0  0
  -22.1030   -5.1620   22.5220 C   0  0  0  0  0  0  0  0  0  0  0  0
  -22.5370   -4.5750   21.3810 F   0  0  0  0  0  0  0  0  0  0  0  0
  -21.3090   -4.2410   25.9830 F   0  0  0  0  0  0  0  0  0  0  0  0
  -23.2930  -13.8390   21.1940 C   0  0  0  0  0  0  0  0  0  0  0  0
  -22.6070  -13.1580   22.1050 N   0  0  0  0  0  0  0  0  0  0  0  0
  -22.8650  -14.8970   20.7290 O   0  0  0  0  0  0  0  0  0  0  0  0
  -22.9700  -12.3010   22.4940 H   0  0  0  0  0  0  0  0  0  0  0  0
  -21.7040  -13.4920   22.4180 H   0  0  0  0  0  0  0  0  0  0  0  0
  -25.9470  -15.4050   20.2450 N   0  0  0  0  0  0  0  0  0  0  0  0
  -25.2220  -16.0940   20.4080 H   0  0  0  0  0  0  0  0  0  0  0  0
  -26.8000  -15.7930   19.8640 H   0  0  0  0  0  0  0  0  0  0  0  0
  -28.5080  -26.5260   20.1090 O   0  0  0  0  0  0  0  0  0  0  0  0
  -24.6850  -31.8600   23.2090 C   0  0  0  0  0  0  0  0  0  0  0  0
  -27.3950  -27.4060   20.0620 C   0  0  0  0  0  0  0  0  0  0  0  0
  -23.5080  -30.4780   21.5390 C   0  0  0  0  0  3  0  0  0  0  0  0
  -24.9960  -28.9930   20.0720 C   0  0  0  0  0  0  0  0  0  0  0  0
  -26.0460  -30.8490   21.3580 C   0  0  0  0  0  2  0  0  0  0  0  0
  -26.1570  -29.4850   20.6770 C   0  0  0  0  0  0  0  0  0  0  0  0
  -27.3620  -28.7130   20.6560 C   0  0  0  0  0  3  0  0  0  0  0  0
  -26.2130  -26.9840   19.4170 C   0  0  0  0  0  3  0  0  0  0  0  0
  -25.0270  -27.7470   19.4260 C   0  0  0  0  0  3  0  0  0  0  0  0
  -23.7360  -29.8410   20.1470 C   0  0  0  0  0  2  0  0  0  0  0  0
  -24.7650  -31.0770   22.0920 N   0  0  0  0  0  0  0  0  0  0  0  0
  -23.5940  -32.1070   23.7460 O   0  0  0  0  0  0  0  0  0  0  0  0
  -22.8630  -29.4310   22.4770 C   0  0  0  0  0  0  0  0  0  0  0  0
  -21.5480  -29.2030   22.3220 N   0  0  0  0  0  0  0  0  0  0  0  0
  -23.5490  -28.8280   23.3050 O   0  0  0  0  0  0  0  0  0  0  0  0
  -21.0500  -29.7380   21.6250 H   0  0  0  0  0  0  0  0  0  0  0  0
  -18.2210  -27.8410   22.7090 C   0  0  0  0  0  0  0  0  0  0  0  0
  -20.7520  -28.2210   23.0610 C   0  0  0  0  0  3  0  0  0  0  0  0
  -20.9320  -26.7990   22.4790 C   0  0  0  0  0  2  0  0  0  0  0  0
  -19.8800  -26.4450   21.4230 C   0  0  0  0  0  2  0  0  0  0  0  0
  -18.4790  -26.5040   22.0330 C   0  0  0  0  0  2  0  0  0  0  0  0
  -19.2870  -28.6520   23.1780 C   0  0  0  0  0  0  0  0  0  0  0  0
  -18.9910  -29.8980   23.7720 C   0  0  0  0  0  3  0  0  0  0  0  0
  -17.6600  -30.3350   23.9050 C   0  0  0  0  0  3  0  0  0  0  0  0
  -16.6060  -29.5250   23.4460 C   0  0  0  0  0  3  0  0  0  0  0  0
  -16.8880  -28.2810   22.8530 C   0  0  0  0  0  3  0  0  0  0  0  0
  -25.9570  -32.5000   23.8490 C   0  0  0  0  0  3  0  0  0  0  0  0
  -25.6260  -33.8940   24.1810 N   0  0  0  0  0  0  0  0  0  0  0  0
  -25.9420  -34.9510   23.4250 C   0  0  0  0  0  0  0  0  0  0  0  0
  -26.6130  -34.8630   22.3940 O   0  0  0  0  0  0  0  0  0  0  0  0
  -25.0320  -34.0360   24.9850 H   0  0  0  0  0  0  0  0  0  0  0  0
  -24.1850  -36.7240   23.0800 C   0  0  0  0  0  1  0  0  0  0  0  0
  -25.4340  -36.3330   23.8860 C   0  0  0  0  0  3  0  0  0  0  0  0
  -27.5560  -37.2540   24.7170 C   0  0  0  0  0  1  0  0  0  0  0  0
  -26.4510  -37.4000   23.7720 N   0  0  0  0  0  0  0  0  0  0  0  0
  -26.0290  -38.3110   23.9140 H   0  0  0  0  0  0  0  0  0  0  0  0
  -26.4670  -31.7290   25.1300 C   0  0  1  0  0  0  0  0  0  0  0  0
  -25.3650  -31.4760   26.1870 C   0  0  0  0  0  1  0  0  0  0  0  0
  -27.0740  -30.3560   24.7480 C   0  0  0  0  0  1  0  0  0  0  0  0
  -27.6000  -32.5330   25.8110 C   0  0  0  0  0  1  0  0  0  0  0  0
  1  5  1  0
  1  6  1  0
  3  2  1  0
  4  2  1  0
  5 55  1  0
  5  3  1  0
  6  4  1  0
  7  1  2  0
  8 10  1  0
  9 12  2  0
 10 16  1  0
 10 11  2  0
 11 14  1  0
 12 11  1  0
 12  6  1  0
 13  8  2  0
 13  9  1  0
 15 13  1  0
 17 23  1  0
 17 25  1  0
 18 23  1  0
 19 20  1  0
 19 18  1  0
 21 20  1  0
 21 30  1  0
 21 22  1  0
 23 22  1  0
 24 17  2  0
 25 16  1  0
 25 26  1  0
 27 28  2  0
 28 47  1  0
 29 28  1  0
 29 32  1  0
 30 31  1  0
 30 27  1  0
 31 29  2  0
 32 33  1  0
 33 34  2  0
 35 38  1  0
 35 34  1  0
 36 35  2  0
 37 36  1  0
 37 32  2  0
 38 39  1  0
 39 40  1  0
 40 41  2  0
 42 41  1  0
 42 46  1  0
 43 42  2  0
 44 39  2  0
 44 43  1  0
 45 44  1  0
 47 48  1  0
 48 51  1  0
 48 50  1  0
 49 47  2  0
 52 27  1  0
 52 53  1  0
 54 52  1  0
 56 67  2  0
 57 55  1  0
 57 62  1  0
 58 66  1  0
 58 68  1  0
 59 65  1  0
 59 61  1  0
 60 66  1  0
 61 60  1  0
 62 61  2  0
 63 64  1  0
 63 57  2  0
 64 59  2  0
 65 58  1  0
 66 56  1  0
 68 70  2  0
 69 68  1  0
 71 69  1  0
 72 81  2  0
 72 77  1  0
 73 69  1  0
 73 77  1  0
 74 73  1  0
 75 76  1  0
 75 74  1  0
 76 72  1  0
 77 78  2  0
 78 79  1  0
 80 79  2  0
 81 80  1  0
 82 56  1  0
 82 83  1  0
 82 92  1  0
 83 86  1  0
 84 88  1  0
 84 83  1  0
 85 84  2  0
 88 87  1  0
 90 88  1  0
 90 91  1  0
 90 89  1  0
 92 95  1  1
 92 93  1  0
 94 92  1  0
M  ISO  4   5 101  17 100  25 100  55 101
M  END
>  <TORSDO>  (49) 
F 18

>  <SCORE>  (49) 
-13.817

>  <name>  (49) 
48

>  <ligand_id>  (49) 
48

>  <original_smiles>  (49) 
[H]c1c([H])c([H])c2c(c1[H])C([H])([H])C([H])([H])C([H])([H])C2([H])N([H])C(=O)C1([H])N(C(=O)C([H])(N([H])C(=O)C([H])(N([H])C([H])([H])[H])C([H])([H])[H])C(C([H])([H])[H])(C([H])([H])[H])C([H])([H])[H])C([H])([H])c2c([H])c(OC3([H])C(=O)N(c4c([H])c(Cl)c([H])c(C([H])([H])N([H])C(=O)N5C([H])([H])C([H])([H])C([H])([H])C([H])(n6nc(-c7c([H])c([H])c(Oc8c([H])c([H])c(F)c([H])c8F)c([H])c7[H])c(C(=O)N([H])[H])c6N([H])[H])C5([H])[H])c4C([H])([H])[H])C([H])([H])C([H])([H])C3([H])[H])c([H])c([H])c2C1([H])[H]

>  <smiles>  (49) 
[H]c1c([H])c([H])c2c(c1[H])C([H])([H])C([H])([H])C([H])([H])C2([H])N([H])C(=O)C1([H])N(C(=O)C([H])(N([H])C(=O)C([H])(N([H])C([H])([H])[H])C([H])([H])[H])C(C([H])([H])[H])(C([H])([H])[H])C([H])([H])[H])C([H])([H])c2c([H])c(OC3([H])C(=O)N(c4c([H])c(Cl)c([H])c(C([H])([H])N([H])C(=O)N5C([H])([H])C([H])([H])C([H])([H])C([H])(n6nc(-c7c([H])c([H])c(Oc8c([H])c([H])c(F)c([H])c8F)c([H])c7[H])c(C(=O)N([H])[H])c6N([H])[H])C5([H])[H])c4C([H])([H])[H])C([H])([H])C([H])([H])C3([H])[H])c([H])c([H])c2C1([H])[H]

$$$$
49:0:0
     RDKit          3D

 95103  0  0  1  0  0  0  0  0999 V2000
  -31.3060  -19.6340   19.1520 C   0  0  0  0  0  3  0  0  0  0  0  0
  -31.3100  -18.2480   19.4980 C   0  0  0  0  0  3  0  0  0  0  0  0
  -29.6840  -18.7050   21.2000 C   0  0  0  0  0  3  0  0  0  0  0  0
  -30.5240  -20.6090   19.8390 C   0  0  0  0  0  0  0  0  0  0  0  0
  -29.6900  -20.1010   20.8840 C   0  0  0  0  0  0  0  0  0  0  0  0
  -30.5040  -17.7480   20.5520 C   0  0  0  0  0  0  0  0  0  0  0  0
  -31.2660  -15.2870   20.9710 C   0  0  0  0  0  0  0  0  0  0  0  0
  -31.2410  -12.8510   20.4670 C   0  0  0  0  0  2  0  0  0  0  0  0
  -30.5380  -12.6620   19.1040 C   0  0  0  0  0  2  0  0  0  0  0  0
  -29.0080  -12.5710   19.2780 C   0  0  0  0  0  2  0  0  0  0  0  0
  -28.4400  -13.6870   20.1950 C   0  0  0  0  0  3  0  0  0  0  0  0
  -29.2730  -13.8170   21.4910 C   0  0  0  0  0  2  0  0  0  0  0  0
  -30.6730  -14.0580   21.0980 N   0  0  0  0  0  0  0  0  0  0  0  0
  -32.4730  -15.4000   20.7350 O   0  0  0  0  0  0  0  0  0  0  0  0
  -30.4080  -16.3530   20.9860 N   0  0  0  0  0  0  0  0  0  0  0  0
  -29.4910  -16.0850   21.3090 H   0  0  0  0  0  0  0  0  0  0  0  0
  -26.0040  -14.4280   20.5450 C   0  0  0  0  0  0  0  0  0  0  0  0
  -24.8510  -13.7200   20.7530 C   0  0  0  0  0  0  0  0  0  0  0  0
  -25.2360  -12.3450   20.7940 C   0  0  0  0  0  0  0  0  0  0  0  0
  -27.0200  -13.4890   20.4720 N   0  0  0  0  0  0  0  0  0  0  0  0
  -26.5530  -12.2300   20.6810 N   0  0  0  0  0  0  0  0  0  0  0  0
  -24.4190  -11.1260   20.8760 C   0  0  0  0  0  0  0  0  0  0  0  0
  -24.7000  -10.1110   21.8170 C   0  0  0  0  0  3  0  0  0  0  0  0
  -23.8900   -8.9570   21.8880 C   0  0  0  0  0  3  0  0  0  0  0  0
  -22.7840   -8.8120   21.0180 C   0  0  0  0  0  0  0  0  0  0  0  0
  -22.5220   -9.8150   20.0680 C   0  0  0  0  0  3  0  0  0  0  0  0
  -23.3320  -10.9600   19.9940 C   0  0  0  0  0  3  0  0  0  0  0  0
  -21.9570   -7.7140   20.9980 O   0  0  0  0  0  0  0  0  0  0  0  0
  -21.8020   -6.9110   22.0990 C   0  0  0  0  0  0  0  0  0  0  0  0
  -21.3440   -7.4190   23.3340 C   0  0  0  0  0  3  0  0  0  0  0  0
  -21.1320   -6.5470   24.4190 C   0  0  0  0  0  3  0  0  0  0  0  0
  -21.3680   -5.1670   24.2710 C   0  0  0  0  0  0  0  0  0  0  0  0
  -21.8190   -4.6580   23.0400 C   0  0  0  0  0  3  0  0  0  0  0  0
  -22.0320   -5.5280   21.9560 C   0  0  0  0  0  0  0  0  0  0  0  0
  -22.4470   -5.0300   20.7670 F   0  0  0  0  0  0  0  0  0  0  0  0
  -21.1590   -4.3260   25.3110 F   0  0  0  0  0  0  0  0  0  0  0  0
  -23.4570  -14.2770   20.8150 C   0  0  0  0  0  0  0  0  0  0  0  0
  -22.5740  -13.6330   21.5700 N   0  0  0  0  0  0  0  0  0  0  0  0
  -23.1570  -15.3170   20.2320 O   0  0  0  0  0  0  0  0  0  0  0  0
  -22.8260  -12.7890   22.0640 H   0  0  0  0  0  0  0  0  0  0  0  0
  -21.6320  -13.9880   21.6570 H   0  0  0  0  0  0  0  0  0  0  0  0
  -26.2720  -15.7860   20.3900 N   0  0  0  0  0  0  0  0  0  0  0  0
  -25.5370  -16.4850   20.3850 H   0  0  0  0  0  0  0  0  0  0  0  0
  -27.1830  -16.1700   20.1780 H   0  0  0  0  0  0  0  0  0  0  0  0
  -29.6840  -21.5230   22.9780 C   0  0  0  0  0  1  0  0  0  0  0  0
  -28.8630  -21.0220   21.7830 C   0  0  2  0  0  0  0  0  0  0  0  0
  -27.8180  -20.3550   22.2720 F   0  0  0  0  0  0  0  0  0  0  0  0
  -28.3710  -22.0580   21.1090 F   0  0  0  0  0  0  0  0  0  0  0  0
  -30.7980  -22.1470   19.5900 C   0  0  0  0  0  2  0  0  0  0  0  0
  -29.8780  -24.4940   19.1820 C   0  0  0  0  0  0  0  0  0  0  0  0
  -29.7480  -23.1250   19.1380 N   0  0  0  0  0  0  0  0  0  0  0  0
  -30.9290  -25.0100   19.5730 O   0  0  0  0  0  0  0  0  0  0  0  0
  -28.8710  -22.7400   18.8170 H   0  0  0  0  0  0  0  0  0  0  0  0
  -28.6920  -25.4390   18.7400 C   0  0  0  0  0  2  0  0  0  0  0  0
  -28.7840  -26.8700   19.1400 O   0  0  0  0  0  0  0  0  0  0  0  0
  -24.7030  -31.5060   22.8890 C   0  0  0  0  0  0  0  0  0  0  0  0
  -27.5930  -27.6170   19.2130 C   0  0  0  0  0  0  0  0  0  0  0  0
  -23.5670  -30.2140   21.1180 C   0  0  0  0  0  3  0  0  0  0  0  0
  -25.0930  -28.9950   19.4700 C   0  0  0  0  0  0  0  0  0  0  0  0
  -26.0610  -30.7850   20.9120 C   0  0  0  0  0  2  0  0  0  0  0  0
  -26.2370  -29.5100   20.0930 C   0  0  0  0  0  0  0  0  0  0  0  0
  -27.4880  -28.8340   19.9570 C   0  0  0  0  0  3  0  0  0  0  0  0
  -26.4170  -27.1610   18.5690 C   0  0  0  0  0  3  0  0  0  0  0  0
  -25.1850  -27.8250   18.7020 C   0  0  0  0  0  3  0  0  0  0  0  0
  -23.7870  -29.7370   19.6600 C   0  0  0  0  0  2  0  0  0  0  0  0
  -24.7970  -30.8480   21.6970 N   0  0  0  0  0  0  0  0  0  0  0  0
  -23.6200  -31.6140   23.4820 O   0  0  0  0  0  0  0  0  0  0  0  0
  -23.0340  -29.0300   21.9620 C   0  0  0  0  0  0  0  0  0  0  0  0
  -21.7340  -28.7210   21.8160 N   0  0  0  0  0  0  0  0  0  0  0  0
  -23.7880  -28.3980   22.7060 O   0  0  0  0  0  0  0  0  0  0  0  0
  -21.1780  -29.2940   21.1960 H   0  0  0  0  0  0  0  0  0  0  0  0
  -18.5320  -27.0640   22.1220 C   0  0  0  0  0  0  0  0  0  0  0  0
  -21.0310  -27.6210   22.4810 C   0  0  0  0  0  3  0  0  0  0  0  0
  -21.3270  -26.2720   21.7840 C   0  0  0  0  0  2  0  0  0  0  0  0
  -20.2900  -25.9040   20.7190 C   0  0  0  0  0  2  0  0  0  0  0  0
  -18.8910  -25.8150   21.3350 C   0  0  0  0  0  2  0  0  0  0  0  0
  -19.5360  -27.9200   22.6460 C   0  0  0  0  0  0  0  0  0  0  0  0
  -19.1460  -29.0870   23.3380 C   0  0  0  0  0  3  0  0  0  0  0  0
  -17.7850  -29.3990   23.5140 C   0  0  0  0  0  3  0  0  0  0  0  0
  -16.7950  -28.5410   23.0050 C   0  0  0  0  0  3  0  0  0  0  0  0
  -17.1690  -27.3750   22.3130 C   0  0  0  0  0  3  0  0  0  0  0  0
  -25.9470  -32.1730   23.5520 C   0  0  0  0  0  3  0  0  0  0  0  0
  -26.5360  -31.3350   24.7500 C   0  0  1  0  0  0  0  0  0  0  0  0
  -25.4810  -30.9370   25.8090 C   0  0  0  0  0  1  0  0  0  0  0  0
  -27.2000  -30.0350   24.2360 C   0  0  0  0  0  1  0  0  0  0  0  0
  -27.6450  -32.1450   25.4610 C   0  0  0  0  0  1  0  0  0  0  0  0
  -25.5440  -33.5110   24.0080 N   0  0  0  0  0  0  0  0  0  0  0  0
  -25.7930  -34.6490   23.3440 C   0  0  0  0  0  0  0  0  0  0  0  0
  -26.4550  -34.6850   22.3040 O   0  0  0  0  0  0  0  0  0  0  0  0
  -24.9530  -33.5510   24.8240 H   0  0  0  0  0  0  0  0  0  0  0  0
  -23.9290  -36.3290   23.1750 C   0  0  0  0  0  1  0  0  0  0  0  0
  -25.2150  -35.9520   23.9280 C   0  0  0  0  0  3  0  0  0  0  0  0
  -27.2980  -36.9220   24.7930 C   0  0  0  0  0  1  0  0  0  0  0  0
  -26.1650  -37.0860   23.8880 N   0  0  0  0  0  0  0  0  0  0  0  0
  -25.6950  -37.9550   24.1240 H   0  0  0  0  0  0  0  0  0  0  0  0
  1  2  2  0
  1  4  1  0
  2  6  1  0
  4  5  2  0
  5  3  1  0
  5 46  1  0
  6 15  1  0
  6  3  2  0
  7 15  1  0
  7 13  1  0
  8 13  1  0
  9 10  1  0
  9  8  1  0
 11 10  1  0
 11 20  1  0
 11 12  1  0
 13 12  1  0
 14  7  2  0
 15 16  1  0
 17 18  2  0
 18 19  1  0
 18 37  1  0
 19 22  1  0
 20 17  1  0
 20 21  1  0
 21 19  2  0
 22 23  1  0
 23 24  2  0
 25 24  1  0
 26 25  2  0
 27 26  1  0
 27 22  2  0
 28 25  1  0
 28 29  1  0
 29 30  1  0
 30 31  2  0
 32 31  1  0
 32 36  1  0
 33 32  2  0
 34 29  2  0
 34 33  1  0
 35 34  1  0
 37 38  1  0
 38 41  1  0
 38 40  1  0
 39 37  2  0
 42 17  1  0
 43 42  1  0
 44 42  1  0
 46 47  1  0
 46 45  1  1
 48 46  1  0
 49  4  1  0
 50 52  2  0
 51 50  1  0
 51 49  1  0
 53 51  1  0
 54 55  1  0
 54 50  1  0
 55 57  1  0
 56 67  2  0
 57 62  1  0
 58 66  1  0
 58 68  1  0
 59 65  1  0
 59 61  1  0
 60 66  1  0
 61 60  1  0
 62 61  2  0
 63 64  1  0
 63 57  2  0
 64 59  2  0
 65 58  1  0
 66 56  1  0
 68 70  2  0
 69 68  1  0
 71 69  1  0
 72 81  2  0
 72 77  1  0
 73 69  1  0
 73 77  1  0
 74 73  1  0
 75 76  1  0
 75 74  1  0
 76 72  1  0
 77 78  2  0
 78 79  1  0
 80 79  2  0
 81 80  1  0
 82 56  1  0
 82 87  1  0
 82 83  1  0
 83 86  1  1
 83 84  1  0
 85 83  1  0
 87 90  1  0
 88 92  1  0
 88 87  1  0
 89 88  2  0
 92 91  1  0
 94 92  1  0
 94 95  1  0
 94 93  1  0
M  ISO  4   7 100  15 100  54 101  55 101
M  END
>  <TORSDO>  (50) 
F 20

>  <SCORE>  (50) 
-8.930

>  <name>  (50) 
49

>  <ligand_id>  (50) 
49

>  <original_smiles>  (50) 
[H]c1c([H])c([H])c2c(c1[H])C([H])([H])C([H])([H])C([H])([H])C2([H])N([H])C(=O)C1([H])N(C(=O)C([H])(N([H])C(=O)C([H])(N([H])C([H])([H])[H])C([H])([H])[H])C(C([H])([H])[H])(C([H])([H])[H])C([H])([H])[H])C([H])([H])c2c([H])c(OC([H])([H])C(=O)N([H])C([H])([H])c3c([H])c([H])c(N([H])C(=O)N4C([H])([H])C([H])([H])C([H])([H])C([H])(n5nc(-c6c([H])c([H])c(Oc7c([H])c([H])c(F)c([H])c7F)c([H])c6[H])c(C(=O)N([H])[H])c5N([H])[H])C4([H])[H])c([H])c3C(F)(F)C([H])([H])[H])c([H])c([H])c2C1([H])[H]

>  <smiles>  (50) 
[H]c1c([H])c([H])c2c(c1[H])C([H])([H])C([H])([H])C([H])([H])C2([H])N([H])C(=O)C1([H])N(C(=O)C([H])(N([H])C(=O)C([H])(N([H])C([H])([H])[H])C([H])([H])[H])C(C([H])([H])[H])(C([H])([H])[H])C([H])([H])[H])C([H])([H])c2c([H])c(OC([H])([H])C(=O)N([H])C([H])([H])c3c([H])c([H])c(N([H])C(=O)N4C([H])([H])C([H])([H])C([H])([H])C([H])(n5nc(-c6c([H])c([H])c(Oc7c([H])c([H])c(F)c([H])c7F)c([H])c6[H])c(C(=O)N([H])[H])c5N([H])[H])C4([H])[H])c([H])c3C(F)(F)C([H])([H])[H])c([H])c([H])c2C1([H])[H]

$$$$
50:0:0
     RDKit          3D

 92100  0  0  1  0  0  0  0  0999 V2000
  -29.4880  -21.2050   20.1020 C   0  0  0  0  0  0  0  0  0  0  0  0
  -29.2660  -22.4230   20.7340 N   0  0  0  0  0  0  0  0  0  0  0  0
  -29.2910  -21.1230   18.8860 O   0  0  0  0  0  0  0  0  0  0  0  0
  -29.3790  -22.4130   21.7390 H   0  0  0  0  0  0  0  0  0  0  0  0
  -31.6120  -18.7850   22.3450 C   0  0  0  0  0  3  0  0  0  0  0  0
  -31.2420  -17.5020   21.8900 C   0  0  0  0  0  3  0  0  0  0  0  0
  -29.6450  -18.5600   20.4000 C   0  0  0  0  0  3  0  0  0  0  0  0
  -30.0190  -19.9140   20.8230 C   0  0  0  0  0  0  0  0  0  0  0  0
  -31.0350  -19.9760   21.8310 C   0  0  0  0  0  0  0  0  0  0  0  0
  -30.2450  -17.3290   20.9070 C   0  0  0  0  0  0  0  0  0  0  0  0
  -31.5890  -21.2890   22.3860 C   0  0  0  0  0  1  0  0  0  0  0  0
  -30.5650  -14.7900   20.2840 C   0  0  0  0  0  0  0  0  0  0  0  0
  -30.3150  -12.5480   19.1790 C   0  0  0  0  0  2  0  0  0  0  0  0
  -29.3430  -12.6410   17.9840 C   0  0  0  0  0  2  0  0  0  0  0  0
  -27.8900  -12.4480   18.4510 C   0  0  0  0  0  2  0  0  0  0  0  0
  -27.5430  -13.3030   19.6990 C   0  0  0  0  0  3  0  0  0  0  0  0
  -28.6350  -13.2060   20.7900 C   0  0  0  0  0  2  0  0  0  0  0  0
  -29.9110  -13.5790   20.1670 N   0  0  0  0  0  0  0  0  0  0  0  0
  -31.7400  -14.8790   19.9170 O   0  0  0  0  0  0  0  0  0  0  0  0
  -29.8240  -15.9340   20.5710 N   0  0  0  0  0  0  0  0  0  0  0  0
  -28.8320  -15.7700   20.6510 H   0  0  0  0  0  0  0  0  0  0  0  0
  -25.1650  -13.8690   20.4740 C   0  0  0  0  0  0  0  0  0  0  0  0
  -24.1140  -13.0830   20.8610 C   0  0  0  0  0  0  0  0  0  0  0  0
  -24.5860  -11.7360   20.8130 C   0  0  0  0  0  0  0  0  0  0  0  0
  -26.2110  -12.9990   20.2140 N   0  0  0  0  0  0  0  0  0  0  0  0
  -25.8700  -11.7110   20.4780 N   0  0  0  0  0  0  0  0  0  0  0  0
  -23.8700  -10.4680   21.0140 C   0  0  0  0  0  0  0  0  0  0  0  0
  -24.3240   -9.5030   21.9390 C   0  0  0  0  0  3  0  0  0  0  0  0
  -23.6110   -8.3000   22.1270 C   0  0  0  0  0  3  0  0  0  0  0  0
  -22.4270   -8.0550   21.3920 C   0  0  0  0  0  0  0  0  0  0  0  0
  -21.9890   -9.0110   20.4580 C   0  0  0  0  0  3  0  0  0  0  0  0
  -22.7030  -10.2050   20.2680 C   0  0  0  0  0  3  0  0  0  0  0  0
  -21.6820   -6.9050   21.4900 O   0  0  0  0  0  0  0  0  0  0  0  0
  -21.6620   -6.1570   22.6400 C   0  0  0  0  0  0  0  0  0  0  0  0
  -21.2530   -6.7030   23.8760 C   0  0  0  0  0  3  0  0  0  0  0  0
  -21.1800   -5.8820   25.0180 C   0  0  0  0  0  3  0  0  0  0  0  0
  -21.5020   -4.5160   24.9260 C   0  0  0  0  0  0  0  0  0  0  0  0
  -21.9020   -3.9680   23.6950 C   0  0  0  0  0  3  0  0  0  0  0  0
  -21.9780   -4.7870   22.5540 C   0  0  0  0  0  0  0  0  0  0  0  0
  -22.3440   -4.2510   21.3640 F   0  0  0  0  0  0  0  0  0  0  0  0
  -21.4260   -3.7230   26.0210 F   0  0  0  0  0  0  0  0  0  0  0  0
  -22.7190  -13.5510   21.1620 C   0  0  0  0  0  0  0  0  0  0  0  0
  -22.0130  -12.8430   22.0360 N   0  0  0  0  0  0  0  0  0  0  0  0
  -22.2640  -14.5770   20.6590 O   0  0  0  0  0  0  0  0  0  0  0  0
  -22.3980  -12.0170   22.4680 H   0  0  0  0  0  0  0  0  0  0  0  0
  -21.0770  -13.1350   22.2760 H   0  0  0  0  0  0  0  0  0  0  0  0
  -25.3070  -15.2420   20.2960 N   0  0  0  0  0  0  0  0  0  0  0  0
  -24.5310  -15.8780   20.4350 H   0  0  0  0  0  0  0  0  0  0  0  0
  -26.1230  -15.6950   19.9050 H   0  0  0  0  0  0  0  0  0  0  0  0
  -29.1570  -23.8220   20.0930 C   0  0  0  0  0  3  0  0  0  0  0  0
  -28.1590  -24.9670   20.6640 C   0  0  0  0  0  3  0  0  0  0  0  0
  -28.3310  -26.4210   20.2850 O   0  0  0  0  0  0  0  0  0  0  0  0
  -24.6050  -31.9010   23.2460 C   0  0  0  0  0  0  0  0  0  0  0  0
  -27.2150  -27.2920   20.2450 C   0  0  0  0  0  0  0  0  0  0  0  0
  -23.4000  -30.5000   21.6080 C   0  0  0  0  0  3  0  0  0  0  0  0
  -24.8560  -28.9400   20.1870 C   0  0  0  0  0  0  0  0  0  0  0  0
  -25.9400  -30.8100   21.4260 C   0  0  0  0  0  2  0  0  0  0  0  0
  -26.0230  -29.4260   20.7870 C   0  0  0  0  0  0  0  0  0  0  0  0
  -27.2060  -28.6170   20.8000 C   0  0  0  0  0  3  0  0  0  0  0  0
  -26.0290  -26.8750   19.6020 C   0  0  0  0  0  3  0  0  0  0  0  0
  -24.8660  -27.6760   19.5770 C   0  0  0  0  0  3  0  0  0  0  0  0
  -23.6190  -29.8190   20.2280 C   0  0  0  0  0  2  0  0  0  0  0  0
  -24.6670  -31.0890   22.1510 N   0  0  0  0  0  0  0  0  0  0  0  0
  -23.5220  -32.1830   23.7810 O   0  0  0  0  0  0  0  0  0  0  0  0
  -22.7380  -29.4870   22.5720 C   0  0  0  0  0  0  0  0  0  0  0  0
  -21.4110  -29.3080   22.4490 N   0  0  0  0  0  0  0  0  0  0  0  0
  -23.4170  -28.8650   23.3920 O   0  0  0  0  0  0  0  0  0  0  0  0
  -20.9230  -29.8640   21.7620 H   0  0  0  0  0  0  0  0  0  0  0  0
  -18.0380  -28.1020   22.9570 C   0  0  0  0  0  0  0  0  0  0  0  0
  -20.5970  -28.3740   23.2280 C   0  0  0  0  0  3  0  0  0  0  0  0
  -20.7020  -26.9380   22.6660 C   0  0  0  0  0  2  0  0  0  0  0  0
  -19.6040  -26.6030   21.6520 C   0  0  0  0  0  2  0  0  0  0  0  0
  -18.2200  -26.7480   22.2940 C   0  0  0  0  0  2  0  0  0  0  0  0
  -19.1550  -28.8720   23.3820 C   0  0  0  0  0  0  0  0  0  0  0  0
  -18.9300  -30.1380   23.9660 C   0  0  0  0  0  3  0  0  0  0  0  0
  -17.6240  -30.6360   24.1270 C   0  0  0  0  0  3  0  0  0  0  0  0
  -16.5230  -29.8650   23.7190 C   0  0  0  0  0  3  0  0  0  0  0  0
  -16.7310  -28.5990   23.1390 C   0  0  0  0  0  3  0  0  0  0  0  0
  -25.8880  -32.5400   23.8610 C   0  0  0  0  0  3  0  0  0  0  0  0
  -26.4060  -31.7800   25.1440 C   0  0  1  0  0  0  0  0  0  0  0  0
  -25.3110  -31.5560   26.2130 C   0  0  0  0  0  1  0  0  0  0  0  0
  -26.9890  -30.3990   24.7670 C   0  0  0  0  0  1  0  0  0  0  0  0
  -27.5550  -32.5840   25.7990 C   0  0  0  0  0  1  0  0  0  0  0  0
  -25.5770  -33.9410   24.1820 N   0  0  0  0  0  0  0  0  0  0  0  0
  -25.9110  -34.9930   23.4230 C   0  0  0  0  0  0  0  0  0  0  0  0
  -26.5820  -34.8860   22.3930 O   0  0  0  0  0  0  0  0  0  0  0  0
  -24.9770  -34.0960   24.9780 H   0  0  0  0  0  0  0  0  0  0  0  0
  -24.1870  -36.7930   23.0530 C   0  0  0  0  0  1  0  0  0  0  0  0
  -25.4210  -36.3840   23.8730 C   0  0  0  0  0  3  0  0  0  0  0  0
  -27.5520  -37.2670   24.7170 C   0  0  0  0  0  1  0  0  0  0  0  0
  -26.4560  -37.4360   23.7660 N   0  0  0  0  0  0  0  0  0  0  0  0
  -26.0510  -38.3560   23.9130 H   0  0  0  0  0  0  0  0  0  0  0  0
  1  2  1  0
  1  8  1  0
  2  4  1  0
  3  1  2  0
  6  5  1  0
  7  8  2  0
  7 10  1  0
  8  9  1  0
  9  5  2  0
  9 11  1  0
 10  6  2  0
 12 20  1  0
 13 18  1  0
 14 15  1  0
 14 13  1  0
 16 15  1  0
 16 25  1  0
 16 17  1  0
 18 12  1  0
 18 17  1  0
 19 12  2  0
 20 21  1  0
 20 10  1  0
 22 23  2  0
 23 42  1  0
 24 23  1  0
 24 27  1  0
 25 22  1  0
 25 26  1  0
 26 24  2  0
 27 28  1  0
 28 29  2  0
 30 33  1  0
 30 29  1  0
 31 30  2  0
 32 31  1  0
 32 27  2  0
 33 34  1  0
 34 35  1  0
 35 36  2  0
 37 36  1  0
 37 41  1  0
 38 37  2  0
 39 34  2  0
 39 38  1  0
 40 39  1  0
 42 43  1  0
 43 46  1  0
 43 45  1  0
 44 42  2  0
 47 48  1  0
 47 22  1  0
 49 47  1  0
 50 51  2  0
 50  2  1  0
 52 51  1  0
 53 64  2  0
 54 52  1  0
 54 59  1  0
 55 63  1  0
 55 65  1  0
 56 62  1  0
 56 58  1  0
 57 63  1  0
 58 59  2  0
 58 57  1  0
 60 54  2  0
 61 60  1  0
 61 56  2  0
 62 55  1  0
 63 53  1  0
 65 67  2  0
 66 65  1  0
 68 66  1  0
 69 78  2  0
 69 74  1  0
 70 66  1  0
 70 74  1  0
 71 70  1  0
 72 73  1  0
 72 71  1  0
 73 69  1  0
 74 75  2  0
 75 76  1  0
 77 76  2  0
 78 77  1  0
 79 53  1  0
 79 84  1  0
 79 80  1  0
 80 83  1  1
 80 81  1  0
 82 80  1  0
 84 87  1  0
 85 89  1  0
 85 84  1  0
 86 85  2  0
 89 88  1  0
 91 89  1  0
 91 92  1  0
 91 90  1  0
M  ISO  4  12 100  20 100  51 101  52 101
M  END
>  <TORSDO>  (51) 
F 19

>  <SCORE>  (51) 
-14.349

>  <name>  (51) 
50

>  <ligand_id>  (51) 
50

>  <original_smiles>  (51) 
[H]c1c([H])c([H])c2c(c1[H])C([H])([H])C([H])([H])C([H])([H])C2([H])N([H])C(=O)C1([H])N(C(=O)C([H])(N([H])C(=O)C([H])(N([H])C([H])([H])[H])C([H])([H])[H])C(C([H])([H])[H])(C([H])([H])[H])C([H])([H])[H])C([H])([H])c2c([H])c(OC([H])([H])C([H])([H])N([H])C(=O)c3c([H])c(N([H])C(=O)N4C([H])([H])C([H])([H])C([H])([H])C([H])(n5nc(-c6c([H])c([H])c(Oc7c([H])c([H])c(F)c([H])c7F)c([H])c6[H])c(C(=O)N([H])[H])c5N([H])[H])C4([H])[H])c([H])c([H])c3C([H])([H])[H])c([H])c([H])c2C1([H])[H]

>  <smiles>  (51) 
[H]c1c([H])c([H])c2c(c1[H])C([H])([H])C([H])([H])C([H])([H])C2([H])N([H])C(=O)C1([H])N(C(=O)C([H])(N([H])C(=O)C([H])(N([H])C([H])([H])[H])C([H])([H])[H])C(C([H])([H])[H])(C([H])([H])[H])C([H])([H])[H])C([H])([H])c2c([H])c(OC([H])([H])C([H])([H])N([H])C(=O)c3c([H])c(N([H])C(=O)N4C([H])([H])C([H])([H])C([H])([H])C([H])(n5nc(-c6c([H])c([H])c(Oc7c([H])c([H])c(F)c([H])c7F)c([H])c6[H])c(C(=O)N([H])[H])c5N([H])[H])C4([H])[H])c([H])c([H])c3C([H])([H])[H])c([H])c([H])c2C1([H])[H]

$$$$
51:0:0
     RDKit          3D

 95102  0  0  1  0  0  0  0  0999 V2000
  -27.8320  -18.9420   20.4930 C   0  0  0  0  0  3  0  0  0  0  0  0
  -30.4810  -19.6300   19.9110 C   0  0  0  0  0  0  0  0  0  0  0  0
  -30.1240  -18.2260   19.9980 C   0  0  0  0  0  0  0  0  0  0  0  0
  -29.5010  -20.6860   20.0680 C   0  0  0  0  0  0  0  0  0  0  0  0
  -28.7900  -17.9260   20.3870 C   0  0  0  0  0  3  0  0  0  0  0  0
  -28.1590  -20.2920   20.3050 C   0  0  0  0  0  0  0  0  0  0  0  0
  -31.9450  -20.0100   19.7210 C   0  0  0  0  0  1  0  0  0  0  0  0
  -28.2600  -16.3460   20.8400 Cl  0  0  0  0  0 15  0  0  0  0  0  0
  -26.8660  -21.4310   20.4620 Cl  0  0  0  0  0  0  0  0  0  0  0  0
  -31.1810  -17.0830   19.7460 C   0  0  0  0  0  2  0  0  0  0  0  0
  -31.5100  -14.5350   19.6300 C   0  0  0  0  0  0  0  0  0  0  0  0
  -31.2170  -12.1770   18.9360 C   0  0  0  0  0  2  0  0  0  0  0  0
  -30.2180  -12.1310   17.7620 C   0  0  0  0  0  2  0  0  0  0  0  0
  -28.7650  -12.0730   18.2760 C   0  0  0  0  0  2  0  0  0  0  0  0
  -28.4640  -13.1430   19.3590 C   0  0  0  0  0  3  0  0  0  0  0  0
  -29.5700  -13.1290   20.4410 C   0  0  0  0  0  2  0  0  0  0  0  0
  -30.8610  -13.3420   19.7640 N   0  0  0  0  0  0  0  0  0  0  0  0
  -32.6380  -14.6140   19.1350 O   0  0  0  0  0  0  0  0  0  0  0  0
  -30.7930  -15.6510   19.9120 N   0  0  0  0  0  0  0  0  0  0  0  0
  -29.8720  -15.4950   20.3010 H   0  0  0  0  0  0  0  0  0  0  0  0
  -26.1770  -13.9180   20.2520 C   0  0  0  0  0  0  0  0  0  0  0  0
  -25.0850  -13.2290   20.6970 C   0  0  0  0  0  0  0  0  0  0  0  0
  -25.4270  -11.8450   20.6020 C   0  0  0  0  0  0  0  0  0  0  0  0
  -27.1320  -12.9640   19.9370 N   0  0  0  0  0  0  0  0  0  0  0  0
  -26.6830  -11.7090   20.1950 N   0  0  0  0  0  0  0  0  0  0  0  0
  -24.6080  -10.6470   20.8130 C   0  0  0  0  0  0  0  0  0  0  0  0
  -24.9490   -9.6820   21.7870 C   0  0  0  0  0  3  0  0  0  0  0  0
  -24.1350   -8.5450   21.9810 C   0  0  0  0  0  3  0  0  0  0  0  0
  -22.9650   -8.3660   21.2040 C   0  0  0  0  0  0  0  0  0  0  0  0
  -22.6480   -9.3160   20.2190 C   0  0  0  0  0  3  0  0  0  0  0  0
  -23.4600  -10.4450   20.0220 C   0  0  0  0  0  3  0  0  0  0  0  0
  -22.1260   -7.2830   21.3090 O   0  0  0  0  0  0  0  0  0  0  0  0
  -21.9270   -6.6410   22.5050 C   0  0  0  0  0  0  0  0  0  0  0  0
  -21.3930   -7.3080   23.6300 C   0  0  0  0  0  3  0  0  0  0  0  0
  -21.1420   -6.5930   24.8190 C   0  0  0  0  0  3  0  0  0  0  0  0
  -21.4100   -5.2130   24.8820 C   0  0  0  0  0  0  0  0  0  0  0  0
  -21.9340   -4.5450   23.7630 C   0  0  0  0  0  3  0  0  0  0  0  0
  -22.1880   -5.2570   22.5760 C   0  0  0  0  0  0  0  0  0  0  0  0
  -22.6760   -4.6050   21.4930 F   0  0  0  0  0  0  0  0  0  0  0  0
  -21.1630   -4.5270   26.0230 F   0  0  0  0  0  0  0  0  0  0  0  0
  -23.7590  -13.8140   21.0950 C   0  0  0  0  0  0  0  0  0  0  0  0
  -23.0400  -13.1560   21.9960 N   0  0  0  0  0  0  0  0  0  0  0  0
  -23.3750  -14.8920   20.6400 O   0  0  0  0  0  0  0  0  0  0  0  0
  -23.3620  -12.2850   22.3920 H   0  0  0  0  0  0  0  0  0  0  0  0
  -22.1510  -13.5260   22.3040 H   0  0  0  0  0  0  0  0  0  0  0  0
  -26.4230  -15.2740   20.0670 N   0  0  0  0  0  0  0  0  0  0  0  0
  -25.7170  -15.9660   20.2770 H   0  0  0  0  0  0  0  0  0  0  0  0
  -27.2900  -15.6690   19.7290 H   0  0  0  0  0  0  0  0  0  0  0  0
  -29.8260  -22.2230   20.1630 C   0  0  0  0  0  2  0  0  0  0  0  0
  -30.0320  -22.9810   18.8930 N   0  0  0  0  0  4  0  0  0  0  0  0
  -29.7890  -22.3800   18.1220 H   0  0  0  0  0  0  0  0  0  0  0  0
  -31.0280  -23.1330   18.8240 H   0  0  0  0  0  0  0  0  0  0  0  0
  -29.3530  -24.3210   18.6640 C   0  0  0  0  0  2  0  0  0  0  0  0
  -29.2070  -25.3100   19.8740 C   0  0  0  0  0  2  0  0  0  0  0  0
  -29.1910  -26.7380   19.5590 O   0  0  0  0  0  0  0  0  0  0  0  0
  -24.8880  -31.2670   23.0980 C   0  0  0  0  0  0  0  0  0  0  0  0
  -27.9770  -27.4060   19.6200 C   0  0  0  0  0  0  0  0  0  0  0  0
  -23.8550  -29.9900   21.2490 C   0  0  0  0  0  3  0  0  0  0  0  0
  -25.4770  -28.7500   19.7160 C   0  0  0  0  0  0  0  0  0  0  0  0
  -26.3560  -30.5530   21.2100 C   0  0  0  0  0  2  0  0  0  0  0  0
  -26.5730  -29.2770   20.4100 C   0  0  0  0  0  0  0  0  0  0  0  0
  -27.8260  -28.6120   20.3580 C   0  0  0  0  0  3  0  0  0  0  0  0
  -26.8610  -26.9090   18.9150 C   0  0  0  0  0  3  0  0  0  0  0  0
  -25.6160  -27.5670   18.9700 C   0  0  0  0  0  3  0  0  0  0  0  0
  -24.1700  -29.5090   19.8090 C   0  0  0  0  0  2  0  0  0  0  0  0
  -25.0460  -30.6160   21.9090 N   0  0  0  0  0  0  0  0  0  0  0  0
  -23.7710  -31.3870   23.6210 O   0  0  0  0  0  0  0  0  0  0  0  0
  -23.2600  -28.8090   22.0520 C   0  0  0  0  0  0  0  0  0  0  0  0
  -21.9600  -28.5350   21.8470 N   0  0  0  0  0  0  0  0  0  0  0  0
  -23.9680  -28.1460   22.8140 O   0  0  0  0  0  0  0  0  0  0  0  0
  -21.4510  -29.1120   21.1930 H   0  0  0  0  0  0  0  0  0  0  0  0
  -18.6860  -27.0220   22.0720 C   0  0  0  0  0  0  0  0  0  0  0  0
  -21.2060  -27.4440   22.4660 C   0  0  0  0  0  3  0  0  0  0  0  0
  -21.4450  -26.1110   21.7200 C   0  0  0  0  0  2  0  0  0  0  0  0
  -20.3980  -25.8240   20.6380 C   0  0  0  0  0  2  0  0  0  0  0  0
  -18.9960  -25.7840   21.2480 C   0  0  0  0  0  2  0  0  0  0  0  0
  -19.7240  -27.8060   22.6400 C   0  0  0  0  0  0  0  0  0  0  0  0
  -19.3810  -28.9550   23.3840 C   0  0  0  0  0  3  0  0  0  0  0  0
  -18.0340  -29.3250   23.5580 C   0  0  0  0  0  3  0  0  0  0  0  0
  -17.0100  -28.5430   22.9980 C   0  0  0  0  0  3  0  0  0  0  0  0
  -17.3390  -27.3900   22.2610 C   0  0  0  0  0  3  0  0  0  0  0  0
  -26.0980  -31.9190   23.8420 C   0  0  0  0  0  3  0  0  0  0  0  0
  -25.6810  -33.2620   24.2710 N   0  0  0  0  0  0  0  0  0  0  0  0
  -25.9940  -34.3960   23.6310 C   0  0  0  0  0  0  0  0  0  0  0  0
  -26.7300  -34.4250   22.6400 O   0  0  0  0  0  0  0  0  0  0  0  0
  -25.0350  -33.3120   25.0450 H   0  0  0  0  0  0  0  0  0  0  0  0
  -24.1760  -36.1030   23.3240 C   0  0  0  0  0  1  0  0  0  0  0  0
  -25.3930  -35.7050   24.1740 C   0  0  0  0  0  3  0  0  0  0  0  0
  -27.4080  -36.6440   25.2150 C   0  0  0  0  0  1  0  0  0  0  0  0
  -26.3580  -36.8230   24.2160 N   0  0  0  0  0  0  0  0  0  0  0  0
  -25.8850  -37.7020   24.4090 H   0  0  0  0  0  0  0  0  0  0  0  0
  -26.6030  -31.0720   25.0740 C   0  0  1  0  0  0  0  0  0  0  0  0
  -25.4770  -30.6840   26.0590 C   0  0  0  0  0  1  0  0  0  0  0  0
  -27.2840  -29.7670   24.6020 C   0  0  0  0  0  1  0  0  0  0  0  0
  -27.6710  -31.8700   25.8580 C   0  0  0  0  0  1  0  0  0  0  0  0
  2  3  1  0
  2  4  2  0
  3  5  2  0
  4 49  1  0
  4  6  1  0
  5  1  1  0
  6  9  1  0
  6  1  2  0
  7  2  1  0
 10 19  1  0
 10  3  1  0
 11 17  1  0
 11 19  1  0
 12 17  1  0
 13 14  1  0
 13 12  1  0
 15 14  1  0
 15 24  1  0
 15 16  1  0
 17 16  1  0
 18 11  2  0
 19 20  1  0
 21 22  2  0
 22 41  1  0
 23 22  1  0
 23 26  1  0
 24 25  1  0
 24 21  1  0
 25 23  2  0
 26 27  1  0
 27 28  2  0
 29 32  1  0
 29 28  1  0
 30 29  2  0
 31 30  1  0
 31 26  2  0
 32 33  1  0
 33 38  2  0
 33 34  1  0
 34 35  2  0
 35 36  1  0
 36 40  1  0
 37 36  2  0
 38 37  1  0
 39 38  1  0
 41 42  1  0
 42 45  1  0
 42 44  1  0
 43 41  2  0
 46 21  1  0
 46 47  1  0
 48 46  1  0
 50 49  1  0
 51 50  1  0
 52 50  1  0
 53 50  1  0
 53 54  1  0
 55 57  1  0
 55 54  1  0
 56 67  2  0
 57 62  1  0
 58 66  1  0
 58 68  1  0
 59 65  1  0
 59 61  1  0
 60 66  1  0
 61 60  1  0
 62 61  2  0
 63 64  1  0
 63 57  2  0
 64 59  2  0
 65 58  1  0
 66 56  1  0
 68 70  2  0
 69 68  1  0
 71 69  1  0
 72 81  2  0
 72 77  1  0
 73 69  1  0
 73 77  1  0
 74 73  1  0
 75 76  1  0
 75 74  1  0
 76 72  1  0
 77 78  2  0
 78 79  1  0
 80 79  2  0
 81 80  1  0
 82 56  1  0
 82 83  1  0
 82 92  1  0
 83 86  1  0
 84 88  1  0
 84 83  1  0
 85 84  2  0
 88 87  1  0
 88 90  1  0
 90 91  1  0
 90 89  1  0
 92 95  1  1
 92 93  1  0
 94 92  1  0
M  ISO  4  11 100  19 100  54 101  55 101
M  END
>  <TORSDO>  (52) 
F 21

>  <SCORE>  (52) 
-10.182

>  <name>  (52) 
51

>  <ligand_id>  (52) 
51

>  <original_smiles>  (52) 
[H]c1c([H])c([H])c2c(c1[H])C([H])([H])C([H])([H])C([H])([H])C2([H])N([H])C(=O)C1([H])N(C(=O)C([H])(N([H])C(=O)C([H])(N([H])C([H])([H])[H])C([H])([H])[H])C(C([H])([H])[H])(C([H])([H])[H])C([H])([H])[H])C([H])([H])c2c([H])c(OC([H])([H])C([H])([H])[N+]([H])([H])C([H])([H])c3c(Cl)c([H])c(Cl)c(C([H])([H])N([H])C(=O)N4C([H])([H])C([H])([H])C([H])([H])C([H])(n5nc(-c6c([H])c([H])c(Oc7c([H])c([H])c(F)c([H])c7F)c([H])c6[H])c(C(=O)N([H])[H])c5N([H])[H])C4([H])[H])c3C([H])([H])[H])c([H])c([H])c2C1([H])[H]

>  <smiles>  (52) 
[H]c1c([H])c([H])c2c(c1[H])C([H])([H])C([H])([H])C([H])([H])C2([H])N([H])C(=O)C1([H])N(C(=O)C([H])(N([H])C(=O)C([H])(N([H])C([H])([H])[H])C([H])([H])[H])C(C([H])([H])[H])(C([H])([H])[H])C([H])([H])[H])C([H])([H])c2c([H])c(OC([H])([H])C([H])([H])[N+]([H])([H])C([H])([H])c3c(Cl)c([H])c(Cl)c(C([H])([H])N([H])C(=O)N4C([H])([H])C([H])([H])C([H])([H])C([H])(n5nc(-c6c([H])c([H])c(Oc7c([H])c([H])c(F)c([H])c7F)c([H])c6[H])c(C(=O)N([H])[H])c5N([H])[H])C4([H])[H])c3C([H])([H])[H])c([H])c([H])c2C1([H])[H]

$$$$
52:0:0
     RDKit          3D

 96104  0  0  1  0  0  0  0  0999 V2000
  -30.2980  -18.8660   23.9850 C   0  0  0  0  0  3  0  0  0  0  0  0
  -29.7870  -20.0850   23.5160 C   0  0  0  0  0  3  0  0  0  0  0  0
  -30.6370  -18.1150   21.6820 C   0  0  0  0  0  0  0  0  0  0  0  0
  -30.7350  -17.8810   23.0820 C   0  0  0  0  0  0  0  0  0  0  0  0
  -29.6810  -20.3450   22.1350 C   0  0  0  0  0  0  0  0  0  0  0  0
  -30.0910  -19.3470   21.2030 C   0  0  0  0  0  0  0  0  0  0  0  0
  -31.3520  -16.6110   23.6620 C   0  0  0  0  0  1  0  0  0  0  0  0
  -29.9680  -19.5950   19.6970 C   0  0  0  0  0  1  0  0  0  0  0  0
  -31.3990  -14.7750   20.2550 C   0  0  0  0  0  0  0  0  0  0  0  0
  -30.9460  -12.6030   19.2050 C   0  0  0  0  0  2  0  0  0  0  0  0
  -30.0380  -12.8410   17.9830 C   0  0  0  0  0  2  0  0  0  0  0  0
  -28.5550  -12.8010   18.3990 C   0  0  0  0  0  2  0  0  0  0  0  0
  -28.2540  -13.6890   19.6390 C   0  0  0  0  0  3  0  0  0  0  0  0
  -29.2930  -13.4620   20.7630 C   0  0  0  0  0  2  0  0  0  0  0  0
  -30.6410  -13.6460   20.1970 N   0  0  0  0  0  0  0  0  0  0  0  0
  -32.5090  -14.8320   19.7190 O   0  0  0  0  0  0  0  0  0  0  0  0
  -31.2350  -17.1180   20.7200 C   0  0  0  0  0  0  0  0  0  0  0  0
  -30.8330  -15.8390   20.8520 N   0  0  0  0  0  0  0  0  0  0  0  0
  -32.0390  -17.5380   19.8790 O   0  0  0  0  0  0  0  0  0  0  0  0
  -30.0240  -15.6740   21.4260 H   0  0  0  0  0  0  0  0  0  0  0  0
  -25.9000  -14.4300   20.3710 C   0  0  0  0  0  0  0  0  0  0  0  0
  -24.7870  -13.7180   20.7290 C   0  0  0  0  0  0  0  0  0  0  0  0
  -25.1610  -12.3410   20.6630 C   0  0  0  0  0  0  0  0  0  0  0  0
  -26.8870  -13.4900   20.1160 N   0  0  0  0  0  0  0  0  0  0  0  0
  -26.4450  -12.2270   20.3460 N   0  0  0  0  0  0  0  0  0  0  0  0
  -24.3550  -11.1230   20.8290 C   0  0  0  0  0  0  0  0  0  0  0  0
  -24.7290  -10.1080   21.7370 C   0  0  0  0  0  3  0  0  0  0  0  0
  -23.9300   -8.9540   21.8900 C   0  0  0  0  0  3  0  0  0  0  0  0
  -22.7410   -8.8090   21.1350 C   0  0  0  0  0  0  0  0  0  0  0  0
  -22.3870   -9.8120   20.2150 C   0  0  0  0  0  3  0  0  0  0  0  0
  -23.1870  -10.9560   20.0600 C   0  0  0  0  0  3  0  0  0  0  0  0
  -21.9150   -7.7130   21.2010 O   0  0  0  0  0  0  0  0  0  0  0  0
  -21.7890   -6.9740   22.3500 C   0  0  0  0  0  0  0  0  0  0  0  0
  -21.3820   -7.5550   23.5710 C   0  0  0  0  0  3  0  0  0  0  0  0
  -21.1990   -6.7460   24.7100 C   0  0  0  0  0  3  0  0  0  0  0  0
  -21.4130   -5.3560   24.6290 C   0  0  0  0  0  0  0  0  0  0  0  0
  -21.8100   -4.7750   23.4130 C   0  0  0  0  0  3  0  0  0  0  0  0
  -21.9960   -5.5810   22.2770 C   0  0  0  0  0  0  0  0  0  0  0  0
  -22.3600   -5.0120   21.1020 F   0  0  0  0  0  0  0  0  0  0  0  0
  -21.2280   -4.5770   25.7210 F   0  0  0  0  0  0  0  0  0  0  0  0
  -23.4250  -14.2770   21.0210 C   0  0  0  0  0  0  0  0  0  0  0  0
  -22.6680  -13.6250   21.8970 N   0  0  0  0  0  0  0  0  0  0  0  0
  -23.0420  -15.3270   20.5060 O   0  0  0  0  0  0  0  0  0  0  0  0
  -22.9890  -12.7730   22.3340 H   0  0  0  0  0  0  0  0  0  0  0  0
  -21.7520  -13.9790   22.1310 H   0  0  0  0  0  0  0  0  0  0  0  0
  -26.1530  -15.7910   20.2230 N   0  0  0  0  0  0  0  0  0  0  0  0
  -25.4320  -16.4920   20.3510 H   0  0  0  0  0  0  0  0  0  0  0  0
  -27.0280  -16.1780   19.8920 H   0  0  0  0  0  0  0  0  0  0  0  0
  -29.1290  -21.7060   21.7130 C   0  0  0  0  0  2  0  0  0  0  0  0
  -30.2080  -22.6890   21.4630 N   0  0  0  0  0  4  0  0  0  0  0  0
  -30.3050  -22.7880   20.4660 H   0  0  0  0  0  0  0  0  0  0  0  0
  -31.0670  -22.3050   21.8210 H   0  0  0  0  0  0  0  0  0  0  0  0
  -29.9850  -24.0210   22.0710 C   0  0  0  0  0  2  0  0  0  0  0  0
  -30.5600  -25.1810   21.2260 C   0  0  0  0  0  2  0  0  0  0  0  0
  -30.2030  -26.5560   21.8190 C   0  0  0  0  0  2  0  0  0  0  0  0
  -30.1380  -27.5690   20.8100 O   0  0  0  0  0  0  0  0  0  0  0  0
  -25.0050  -31.6920   23.4520 C   0  0  0  0  0  0  0  0  0  0  0  0
  -28.8660  -28.0560   20.6490 C   0  0  0  0  0  0  0  0  0  0  0  0
  -24.3160  -30.1130   21.6750 C   0  0  0  0  0  3  0  0  0  0  0  0
  -26.2160  -28.9750   20.4060 C   0  0  0  0  0  0  0  0  0  0  0  0
  -26.7010  -31.0280   21.7530 C   0  0  0  0  0  2  0  0  0  0  0  0
  -27.1560  -29.7300   21.1220 C   0  0  0  0  0  0  0  0  0  0  0  0
  -28.4850  -29.2760   21.2430 C   0  0  0  0  0  3  0  0  0  0  0  0
  -27.9190  -27.3050   19.9260 C   0  0  0  0  0  3  0  0  0  0  0  0
  -26.5930  -27.7630   19.8000 C   0  0  0  0  0  3  0  0  0  0  0  0
  -24.8140  -29.5320   20.3220 C   0  0  0  0  0  2  0  0  0  0  0  0
  -25.3490  -30.9600   22.3550 N   0  0  0  0  0  0  0  0  0  0  0  0
  -23.8410  -31.7030   23.8750 O   0  0  0  0  0  0  0  0  0  0  0  0
  -23.8090  -28.9460   22.5520 C   0  0  0  0  0  0  0  0  0  0  0  0
  -22.5900  -28.4640   22.2580 N   0  0  0  0  0  0  0  0  0  0  0  0
  -24.5130  -28.4790   23.4530 O   0  0  0  0  0  0  0  0  0  0  0  0
  -22.0710  -28.9110   21.5150 H   0  0  0  0  0  0  0  0  0  0  0  0
  -19.5760  -26.4720   22.2870 C   0  0  0  0  0  0  0  0  0  0  0  0
  -21.9250  -27.3430   22.9210 C   0  0  0  0  0  3  0  0  0  0  0  0
  -22.4580  -25.9890   22.3970 C   0  0  0  0  0  2  0  0  0  0  0  0
  -21.6280  -25.4220   21.2400 C   0  0  0  0  0  2  0  0  0  0  0  0
  -20.1740  -25.2150   21.6740 C   0  0  0  0  0  2  0  0  0  0  0  0
  -20.4000  -27.4780   22.8590 C   0  0  0  0  0  0  0  0  0  0  0  0
  -19.7950  -28.6400   23.3840 C   0  0  0  0  0  3  0  0  0  0  0  0
  -18.3980  -28.8070   23.3460 C   0  0  0  0  0  3  0  0  0  0  0  0
  -17.5870  -27.8010   22.7920 C   0  0  0  0  0  3  0  0  0  0  0  0
  -18.1750  -26.6360   22.2700 C   0  0  0  0  0  3  0  0  0  0  0  0
  -26.0500  -32.5680   24.2150 C   0  0  0  0  0  3  0  0  0  0  0  0
  -25.4720  -33.9070   24.3800 N   0  0  0  0  0  0  0  0  0  0  0  0
  -25.7360  -34.9520   23.5840 C   0  0  0  0  0  0  0  0  0  0  0  0
  -26.5590  -34.9030   22.6660 O   0  0  0  0  0  0  0  0  0  0  0  0
  -24.7490  -34.0050   25.0780 H   0  0  0  0  0  0  0  0  0  0  0  0
  -23.7950  -36.3740   22.8540 C   0  0  0  0  0  1  0  0  0  0  0  0
  -24.9620  -36.2580   23.8480 C   0  0  0  0  0  3  0  0  0  0  0  0
  -26.7920  -37.5590   24.8430 C   0  0  0  0  0  1  0  0  0  0  0  0
  -25.8070  -37.4690   23.7680 N   0  0  0  0  0  0  0  0  0  0  0  0
  -25.2350  -38.3100   23.7900 H   0  0  0  0  0  0  0  0  0  0  0  0
  -26.4660  -31.9630   25.6120 C   0  0  1  0  0  0  0  0  0  0  0  0
  -25.2660  -31.5930   26.5140 C   0  0  0  0  0  1  0  0  0  0  0  0
  -27.3240  -30.6900   25.4190 C   0  0  0  0  0  1  0  0  0  0  0  0
  -27.3410  -32.9790   26.3840 C   0  0  0  0  0  1  0  0  0  0  0  0
  2  1  1  0
  3  4  1  0
  4  7  1  0
  4  1  2  0
  5  2  2  0
  6  3  2  0
  6  5  1  0
  8  6  1  0
  9 18  1  0
 10 15  1  0
 11 12  1  0
 11 10  1  0
 13 12  1  0
 13 24  1  0
 13 14  1  0
 15  9  1  0
 15 14  1  0
 16  9  2  0
 17 18  1  0
 17  3  1  0
 18 20  1  0
 19 17  2  0
 21 22  2  0
 22 41  1  0
 23 22  1  0
 23 26  1  0
 24 25  1  0
 24 21  1  0
 25 23  2  0
 26 27  1  0
 27 28  2  0
 29 32  1  0
 29 28  1  0
 30 29  2  0
 31 30  1  0
 31 26  2  0
 32 33  1  0
 33 34  1  0
 34 35  2  0
 36 35  1  0
 36 40  1  0
 37 36  2  0
 38 33  2  0
 38 37  1  0
 39 38  1  0
 41 42  1  0
 42 45  1  0
 42 44  1  0
 43 41  2  0
 46 47  1  0
 46 21  1  0
 48 46  1  0
 49  5  1  0
 50 49  1  0
 50 52  1  0
 50 53  1  0
 51 50  1  0
 54 55  1  0
 54 53  1  0
 56 55  1  0
 57 68  2  0
 58 56  1  0
 58 63  1  0
 59 67  1  0
 59 69  1  0
 60 62  1  0
 61 67  1  0
 62 63  2  0
 62 61  1  0
 64 58  2  0
 65 64  1  0
 65 60  2  0
 66 60  1  0
 66 59  1  0
 67 57  1  0
 69 71  2  0
 70 69  1  0
 72 70  1  0
 73 78  1  0
 74 70  1  0
 75 74  1  0
 76 77  1  0
 76 75  1  0
 77 73  1  0
 78 74  1  0
 78 79  2  0
 80 79  1  0
 81 80  2  0
 82 73  2  0
 82 81  1  0
 83 57  1  0
 83 84  1  0
 83 93  1  0
 84 87  1  0
 85 89  1  0
 85 84  1  0
 86 85  2  0
 89 88  1  0
 91 92  1  0
 91 89  1  0
 91 90  1  0
 93 96  1  1
 93 94  1  0
 95 93  1  0
M  ISO  4   9 100  18 100  55 101  56 101
M  END
>  <TORSDO>  (53) 
F 21

>  <SCORE>  (53) 
-6.521

>  <name>  (53) 
52

>  <ligand_id>  (53) 
52

>  <original_smiles>  (53) 
[H]c1c([H])c([H])c2c(c1[H])C([H])([H])C([H])([H])C([H])([H])C2([H])N([H])C(=O)C1([H])N(C(=O)C([H])(N([H])C(=O)C([H])(N([H])C([H])([H])[H])C([H])([H])[H])C(C([H])([H])[H])(C([H])([H])[H])C([H])([H])[H])C([H])([H])c2c([H])c(OC([H])([H])C([H])([H])C([H])([H])[N+]([H])([H])C([H])([H])c3c([H])c([H])c(C([H])([H])[H])c(C(=O)N([H])C(=O)N4C([H])([H])C([H])([H])C([H])([H])C([H])(n5nc(-c6c([H])c([H])c(Oc7c([H])c([H])c(F)c([H])c7F)c([H])c6[H])c(C(=O)N([H])[H])c5N([H])[H])C4([H])[H])c3C([H])([H])[H])c([H])c([H])c2C1([H])[H]

>  <smiles>  (53) 
[H]c1c([H])c([H])c2c(c1[H])C([H])([H])C([H])([H])C([H])([H])C2([H])N([H])C(=O)C1([H])N(C(=O)C([H])(N([H])C(=O)C([H])(N([H])C([H])([H])[H])C([H])([H])[H])C(C([H])([H])[H])(C([H])([H])[H])C([H])([H])[H])C([H])([H])c2c([H])c(OC([H])([H])C([H])([H])C([H])([H])[N+]([H])([H])C([H])([H])c3c([H])c([H])c(C([H])([H])[H])c(C(=O)N([H])C(=O)N4C([H])([H])C([H])([H])C([H])([H])C([H])(n5nc(-c6c([H])c([H])c(Oc7c([H])c([H])c(F)c([H])c7F)c([H])c6[H])c(C(=O)N([H])[H])c5N([H])[H])C4([H])[H])c3C([H])([H])[H])c([H])c([H])c2C1([H])[H]

$$$$
53:0:0
     RDKit          3D

 95103  0  0  1  0  0  0  0  0999 V2000
  -27.9790  -23.6160   20.0470 C   0  0  0  0  0  3  0  0  0  0  0  0
  -25.7440  -22.5250   19.5800 C   0  0  0  0  0  1  0  0  0  0  0  0
  -28.5520  -22.3590   19.7280 N   0  0  0  0  0  0  0  0  0  0  0  0
  -26.6350  -23.6260   19.9880 N   0  0  0  0  0  0  0  0  0  0  0  0
  -27.8190  -21.7050   19.5130 H   0  0  0  0  0  0  0  0  0  0  0  0
  -26.1710  -24.4750   20.2820 H   0  0  0  0  0  0  0  0  0  0  0  0
  -29.8760  -21.5890   19.5440 C   0  0  0  0  0  2  0  0  0  0  0  0
  -30.2990  -18.8390   19.5930 C   0  0  0  0  0  3  0  0  0  0  0  0
  -30.5640  -18.9790   22.3480 C   0  0  0  0  0  3  0  0  0  0  0  0
  -30.1210  -20.1520   20.2390 C   0  0  0  0  0  0  0  0  0  0  0  0
  -30.7180  -17.7230   21.7180 C   0  0  0  0  0  0  0  0  0  0  0  0
  -30.6190  -17.5910   20.3080 C   0  0  0  0  0  0  0  0  0  0  0  0
  -30.2840  -20.1610   21.6400 C   0  0  0  0  0  0  0  0  0  0  0  0
  -30.9150  -16.5270   22.6350 C   0  0  0  0  0  1  0  0  0  0  0  0
  -30.1580  -21.6300   22.5480 Cl  0  0  0  0  0  0  0  0  0  0  0  0
  -31.3950  -15.0570   19.8280 C   0  0  0  0  0  0  0  0  0  0  0  0
  -31.1460  -12.7090   18.9450 C   0  0  0  0  0  2  0  0  0  0  0  0
  -30.1690  -12.7000   17.7460 C   0  0  0  0  0  2  0  0  0  0  0  0
  -28.7020  -12.6080   18.2220 C   0  0  0  0  0  2  0  0  0  0  0  0
  -28.3880  -13.5910   19.3820 C   0  0  0  0  0  3  0  0  0  0  0  0
  -29.4740  -13.5300   20.4750 C   0  0  0  0  0  2  0  0  0  0  0  0
  -30.7550  -13.8330   19.8240 N   0  0  0  0  0  0  0  0  0  0  0  0
  -32.6010  -15.1110   19.5730 O   0  0  0  0  0  0  0  0  0  0  0  0
  -30.5740  -16.1910   19.7620 N   0  0  0  0  0  0  0  0  0  0  0  0
  -29.6260  -15.8870   19.6200 H   0  0  0  0  0  0  0  0  0  0  0  0
  -26.0840  -14.3530   20.2160 C   0  0  0  0  0  0  0  0  0  0  0  0
  -24.9790  -13.6540   20.6190 C   0  0  0  0  0  0  0  0  0  0  0  0
  -25.3390  -12.2740   20.5580 C   0  0  0  0  0  0  0  0  0  0  0  0
  -27.0480  -13.4000   19.9270 N   0  0  0  0  0  0  0  0  0  0  0  0
  -26.6100  -12.1440   20.1970 N   0  0  0  0  0  0  0  0  0  0  0  0
  -24.5290  -11.0660   20.7630 C   0  0  0  0  0  0  0  0  0  0  0  0
  -24.9110  -10.0670   21.6850 C   0  0  0  0  0  3  0  0  0  0  0  0
  -24.1040   -8.9250   21.8780 C   0  0  0  0  0  3  0  0  0  0  0  0
  -22.9020   -8.7750   21.1480 C   0  0  0  0  0  0  0  0  0  0  0  0
  -22.5360   -9.7610   20.2150 C   0  0  0  0  0  3  0  0  0  0  0  0
  -23.3430  -10.8940   20.0210 C   0  0  0  0  0  3  0  0  0  0  0  0
  -22.0690   -7.6850   21.2500 O   0  0  0  0  0  0  0  0  0  0  0  0
  -21.9420   -6.9840   22.4230 C   0  0  0  0  0  0  0  0  0  0  0  0
  -21.5580   -7.6110   23.6280 C   0  0  0  0  0  3  0  0  0  0  0  0
  -21.3720   -6.8420   24.7930 C   0  0  0  0  0  3  0  0  0  0  0  0
  -21.5610   -5.4470   24.7550 C   0  0  0  0  0  0  0  0  0  0  0  0
  -21.9370   -4.8210   23.5540 C   0  0  0  0  0  3  0  0  0  0  0  0
  -22.1260   -5.5870   22.3900 C   0  0  0  0  0  0  0  0  0  0  0  0
  -22.4690   -4.9750   21.2310 F   0  0  0  0  0  0  0  0  0  0  0  0
  -21.3730   -4.7060   25.8720 F   0  0  0  0  0  0  0  0  0  0  0  0
  -23.6320  -14.2320   20.9460 C   0  0  0  0  0  0  0  0  0  0  0  0
  -22.9060  -13.6130   21.8690 N   0  0  0  0  0  0  0  0  0  0  0  0
  -23.2340  -15.2680   20.4150 O   0  0  0  0  0  0  0  0  0  0  0  0
  -23.2410  -12.7750   22.3200 H   0  0  0  0  0  0  0  0  0  0  0  0
  -22.0050  -13.9850   22.1310 H   0  0  0  0  0  0  0  0  0  0  0  0
  -26.3400  -15.7100   20.0460 N   0  0  0  0  0  0  0  0  0  0  0  0
  -25.6190  -16.4090   20.1900 H   0  0  0  0  0  0  0  0  0  0  0  0
  -27.1910  -16.0980   19.6600 H   0  0  0  0  0  0  0  0  0  0  0  0
  -28.5970  -24.9920   20.5630 C   0  0  0  0  0  2  0  0  0  0  0  0
  -28.3910  -26.3520   19.8950 O   0  0  0  0  0  0  0  0  0  0  0  0
  -24.6280  -31.7820   23.1120 C   0  0  0  0  0  0  0  0  0  0  0  0
  -27.2590  -27.2050   20.0060 C   0  0  0  0  0  0  0  0  0  0  0  0
  -23.4380  -30.3990   21.4510 C   0  0  0  0  0  3  0  0  0  0  0  0
  -24.8980  -28.8650   20.0090 C   0  0  0  0  0  0  0  0  0  0  0  0
  -25.9810  -30.7120   21.2830 C   0  0  0  0  0  2  0  0  0  0  0  0
  -26.0680  -29.3320   20.6240 C   0  0  0  0  0  0  0  0  0  0  0  0
  -27.2510  -28.5140   20.6110 C   0  0  0  0  0  3  0  0  0  0  0  0
  -26.0770  -26.8350   19.3320 C   0  0  0  0  0  3  0  0  0  0  0  0
  -24.9090  -27.6240   19.3540 C   0  0  0  0  0  3  0  0  0  0  0  0
  -23.6610  -29.7440   20.0620 C   0  0  0  0  0  2  0  0  0  0  0  0
  -24.7020  -30.9840   22.0040 N   0  0  0  0  0  0  0  0  0  0  0  0
  -23.5400  -32.0460   23.6440 O   0  0  0  0  0  0  0  0  0  0  0  0
  -22.7770  -29.3670   22.3960 C   0  0  0  0  0  0  0  0  0  0  0  0
  -21.4470  -29.2000   22.2850 N   0  0  0  0  0  0  0  0  0  0  0  0
  -23.4610  -28.7190   23.1920 O   0  0  0  0  0  0  0  0  0  0  0  0
  -20.9490  -29.7800   21.6230 H   0  0  0  0  0  0  0  0  0  0  0  0
  -18.0770  -27.9860   22.7930 C   0  0  0  0  0  0  0  0  0  0  0  0
  -20.6370  -28.2410   23.0400 C   0  0  0  0  0  3  0  0  0  0  0  0
  -20.7330  -26.8260   22.4220 C   0  0  0  0  0  2  0  0  0  0  0  0
  -19.6190  -26.5340   21.4110 C   0  0  0  0  0  2  0  0  0  0  0  0
  -18.2470  -26.6570   22.0760 C   0  0  0  0  0  2  0  0  0  0  0  0
  -19.2000  -28.7380   23.2290 C   0  0  0  0  0  0  0  0  0  0  0  0
  -18.9860  -29.9860   23.8540 C   0  0  0  0  0  3  0  0  0  0  0  0
  -17.6820  -30.4810   24.0470 C   0  0  0  0  0  3  0  0  0  0  0  0
  -16.5740  -29.7260   23.6250 C   0  0  0  0  0  3  0  0  0  0  0  0
  -16.7720  -28.4800   23.0030 C   0  0  0  0  0  3  0  0  0  0  0  0
  -25.9030  -32.4190   23.7440 C   0  0  0  0  0  3  0  0  0  0  0  0
  -26.4270  -31.6310   25.0060 C   0  0  1  0  0  0  0  0  0  0  0  0
  -25.3380  -31.3700   26.0730 C   0  0  0  0  0  1  0  0  0  0  0  0
  -27.0190  -30.2630   24.5960 C   0  0  0  0  0  1  0  0  0  0  0  0
  -27.5730  -32.4240   25.6790 C   0  0  0  0  0  1  0  0  0  0  0  0
  -25.5780  -33.8070   24.1000 N   0  0  0  0  0  0  0  0  0  0  0  0
  -25.9050  -34.8800   23.3680 C   0  0  0  0  0  0  0  0  0  0  0  0
  -26.5800  -34.8070   22.3380 O   0  0  0  0  0  0  0  0  0  0  0  0
  -24.9800  -33.9400   24.9020 H   0  0  0  0  0  0  0  0  0  0  0  0
  -24.1610  -36.6680   23.0510 C   0  0  0  0  0  1  0  0  0  0  0  0
  -25.4050  -36.2550   23.8550 C   0  0  0  0  0  3  0  0  0  0  0  0
  -27.5290  -37.1420   24.7090 C   0  0  0  0  0  1  0  0  0  0  0  0
  -26.4280  -37.3200   23.7670 N   0  0  0  0  0  0  0  0  0  0  0  0
  -26.0130  -38.2320   23.9310 H   0  0  0  0  0  0  0  0  0  0  0  0
  1 54  1  0
  2  4  1  0
  3  1  1  0
  4  1  1  0
  4  6  1  0
  5  3  1  0
  7  3  1  0
  7 10  1  0
  8 10  2  0
  8 12  1  0
 10 13  1  0
 11  9  1  0
 11 14  1  0
 12 11  2  0
 13  9  2  0
 13 15  1  0
 17 22  1  0
 18 19  1  0
 18 17  1  0
 20 19  1  0
 20 29  1  0
 20 21  1  0
 22 16  1  0
 22 21  1  0
 23 16  2  0
 24 16  1  0
 24 12  1  0
 25 24  1  0
 26 27  2  0
 27 46  1  0
 28 27  1  0
 28 31  1  0
 29 30  1  0
 29 26  1  0
 30 28  2  0
 31 32  1  0
 32 33  2  0
 34 37  1  0
 34 33  1  0
 35 34  2  0
 36 35  1  0
 36 31  2  0
 37 38  1  0
 38 39  1  0
 39 40  2  0
 41 40  1  0
 41 45  1  0
 42 41  2  0
 43 38  2  0
 43 42  1  0
 44 43  1  0
 46 47  1  0
 47 50  1  0
 47 49  1  0
 48 46  2  0
 51 52  1  0
 51 26  1  0
 53 51  1  0
 55 57  1  0
 55 54  1  0
 56 67  2  0
 57 62  1  0
 58 66  1  0
 58 68  1  0
 59 65  1  0
 59 61  1  0
 60 66  1  0
 61 60  1  0
 62 61  2  0
 63 64  1  0
 63 57  2  0
 64 59  2  0
 65 58  1  0
 66 56  1  0
 68 70  2  0
 69 68  1  0
 71 69  1  0
 72 81  2  0
 72 77  1  0
 73 69  1  0
 73 77  1  0
 74 73  1  0
 75 76  1  0
 75 74  1  0
 76 72  1  0
 77 78  2  0
 78 79  1  0
 80 79  2  0
 81 80  1  0
 82 56  1  0
 82 87  1  0
 82 83  1  0
 83 86  1  1
 83 84  1  0
 85 83  1  0
 87 90  1  0
 88 92  1  0
 88 87  1  0
 89 88  2  0
 92 91  1  0
 94 92  1  0
 94 95  1  0
 94 93  1  0
M  ISO  4  16 100  24 100  54 101  55 101
M  END
>  <TORSDO>  (54) 
F 19

>  <SCORE>  (54) 
-12.855

>  <name>  (54) 
53

>  <ligand_id>  (54) 
53

>  <original_smiles>  (54) 
[H]c1c([H])c([H])c2c(c1[H])C([H])([H])C([H])([H])C([H])([H])C2([H])N([H])C(=O)C1([H])N(C(=O)C([H])(N([H])C(=O)C([H])(N([H])C([H])([H])[H])C([H])([H])[H])C(C([H])([H])[H])(C([H])([H])[H])C([H])([H])[H])C([H])([H])c2c([H])c(OC([H])([H])C(N([H])C([H])([H])c3c([H])c(N([H])C(=O)N4C([H])([H])C([H])([H])C([H])([H])C([H])(n5nc(-c6c([H])c([H])c(Oc7c([H])c([H])c(F)c([H])c7F)c([H])c6[H])c(C(=O)N([H])[H])c5N([H])[H])C4([H])[H])c(C([H])([H])[H])c([H])c3Cl)=[N+]([H])C([H])([H])[H])c([H])c([H])c2C1([H])[H]

>  <smiles>  (54) 
[H]c1c([H])c([H])c2c(c1[H])C([H])([H])C([H])([H])C([H])([H])C2([H])N([H])C(=O)C1([H])N(C(=O)C([H])(N([H])C(=O)C([H])(N([H])C([H])([H])[H])C([H])([H])[H])C(C([H])([H])[H])(C([H])([H])[H])C([H])([H])[H])C([H])([H])c2c([H])c(OC([H])([H])C(N([H])C([H])([H])c3c([H])c(N([H])C(=O)N4C([H])([H])C([H])([H])C([H])([H])C([H])(n5nc(-c6c([H])c([H])c(Oc7c([H])c([H])c(F)c([H])c7F)c([H])c6[H])c(C(=O)N([H])[H])c5N([H])[H])C4([H])[H])c(C([H])([H])[H])c([H])c3Cl)=[N+]([H])C([H])([H])[H])c([H])c([H])c2C1([H])[H]

$$$$
54:0:0
     RDKit          3D

 98107  0  0  1  0  0  0  0  0999 V2000
  -29.1440  -24.1330   19.5450 C   0  0  0  0  0  0  0  0  0  0  0  0
  -29.2110  -24.3760   18.2190 C   0  0  0  0  0  3  0  0  0  0  0  0
  -29.4820  -23.7200   22.4420 C   0  0  0  0  0  2  0  0  0  0  0  0
  -29.3310  -25.1540   21.9260 C   0  0  0  0  0  2  0  0  0  0  0  0
  -30.3180  -22.8910   21.4570 C   0  0  0  0  0  2  0  0  0  0  0  0
  -28.6210  -25.2120   20.5650 C   0  0  0  0  0  3  0  0  0  0  0  0
  -29.6720  -22.7830   20.1270 N   0  0  1  0  0  4  0  0  0  0  0  0
  -30.4540  -22.5360   19.5400 H   0  0  0  0  0  0  0  0  0  0  0  0
  -29.7320  -23.7870   15.9010 C   0  0  0  0  0  2  0  0  0  0  0  0
  -29.7110  -23.4650   17.2040 C   0  0  0  0  0  3  0  0  0  0  0  0
  -28.7130  -26.6240   20.1200 O   0  0  0  0  0  0  0  0  0  0  0  0
  -24.6550  -31.7760   23.1450 C   0  0  0  0  0  0  0  0  0  0  0  0
  -27.5500  -27.4030   20.0980 C   0  0  0  0  0  0  0  0  0  0  0  0
  -23.5620  -30.3630   21.4390 C   0  0  0  0  0  3  0  0  0  0  0  0
  -25.1200  -28.8990   20.0370 C   0  0  0  0  0  0  0  0  0  0  0  0
  -26.0880  -30.7930   21.3430 C   0  0  0  0  0  2  0  0  0  0  0  0
  -26.2470  -29.4320   20.6770 C   0  0  0  0  0  0  0  0  0  0  0  0
  -27.4670  -28.6960   20.6960 C   0  0  0  0  0  3  0  0  0  0  0  0
  -26.4040  -26.9170   19.4340 C   0  0  0  0  0  3  0  0  0  0  0  0
  -25.2000  -27.6470   19.4060 C   0  0  0  0  0  3  0  0  0  0  0  0
  -23.8470  -29.7210   20.0560 C   0  0  0  0  0  2  0  0  0  0  0  0
  -24.7850  -30.9930   22.0340 N   0  0  0  0  0  0  0  0  0  0  0  0
  -23.5450  -31.9980   23.6500 O   0  0  0  0  0  0  0  0  0  0  0  0
  -22.9120  -29.3020   22.3580 C   0  0  0  0  0  0  0  0  0  0  0  0
  -21.5930  -29.0920   22.2000 N   0  0  0  0  0  0  0  0  0  0  0  0
  -23.5920  -28.6710   23.1720 O   0  0  0  0  0  0  0  0  0  0  0  0
  -21.1040  -29.6550   21.5180 H   0  0  0  0  0  0  0  0  0  0  0  0
  -18.2400  -27.8030   22.6070 C   0  0  0  0  0  0  0  0  0  0  0  0
  -20.7860  -28.1130   22.9280 C   0  0  0  0  0  3  0  0  0  0  0  0
  -20.9310  -26.7020   22.3090 C   0  0  0  0  0  2  0  0  0  0  0  0
  -19.8530  -26.3860   21.2670 C   0  0  0  0  0  2  0  0  0  0  0  0
  -18.4580  -26.4800   21.8930 C   0  0  0  0  0  2  0  0  0  0  0  0
  -19.3330  -28.5760   23.0780 C   0  0  0  0  0  0  0  0  0  0  0  0
  -19.0750  -29.8140   23.7060 C   0  0  0  0  0  3  0  0  0  0  0  0
  -17.7560  -30.2810   23.8650 C   0  0  0  0  0  3  0  0  0  0  0  0
  -16.6770  -29.5040   23.4100 C   0  0  0  0  0  3  0  0  0  0  0  0
  -16.9190  -28.2660   22.7870 C   0  0  0  0  0  3  0  0  0  0  0  0
  -25.8910  -32.4450   23.8220 C   0  0  0  0  0  3  0  0  0  0  0  0
  -26.3990  -31.6660   25.0970 C   0  0  1  0  0  0  0  0  0  0  0  0
  -25.2830  -31.3580   26.1230 C   0  0  0  0  0  1  0  0  0  0  0  0
  -27.0520  -30.3230   24.6940 C   0  0  0  0  0  1  0  0  0  0  0  0
  -27.4930  -32.4910   25.8130 C   0  0  0  0  0  1  0  0  0  0  0  0
  -25.5130  -33.8210   24.1730 N   0  0  0  0  0  0  0  0  0  0  0  0
  -25.8170  -34.9030   23.4430 C   0  0  0  0  0  0  0  0  0  0  0  0
  -26.5110  -34.8500   22.4250 O   0  0  0  0  0  0  0  0  0  0  0  0
  -24.8960  -33.9330   24.9620 H   0  0  0  0  0  0  0  0  0  0  0  0
  -24.0180  -36.6260   23.0900 C   0  0  0  0  0  1  0  0  0  0  0  0
  -25.2600  -36.2590   23.9170 C   0  0  0  0  0  3  0  0  0  0  0  0
  -27.3360  -37.2240   24.8100 C   0  0  0  0  0  1  0  0  0  0  0  0
  -26.2480  -37.3580   23.8440 N   0  0  0  0  0  0  0  0  0  0  0  0
  -25.7990  -38.2570   23.9950 H   0  0  0  0  0  0  0  0  0  0  0  0
  -28.8000  -21.5450   19.9840 C   0  0  0  0  0  2  0  0  0  0  0  0
  -29.7430  -19.4740   21.2900 C   0  0  0  0  0  3  0  0  0  0  0  0
  -29.4600  -19.2230   18.9230 C   0  0  0  0  0  3  0  0  0  0  0  0
  -29.4110  -20.0850   20.0540 C   0  0  0  0  0  0  0  0  0  0  0  0
  -30.0510  -18.0850   21.4040 C   0  0  0  0  0  0  0  0  0  0  0  0
  -30.0520  -17.2100   20.2750 C   0  0  0  0  0  0  0  0  0  0  0  0
  -29.7550  -17.8260   19.0200 C   0  0  0  0  0  0  0  0  0  0  0  0
  -30.3290  -17.5250   22.7910 C   0  0  0  0  0  1  0  0  0  0  0  0
  -29.6050  -16.8860   17.5770 Cl  0  0  0  0  0  0  0  0  0  0  0  0
  -30.9410  -14.7560   20.0340 C   0  0  0  0  0  0  0  0  0  0  0  0
  -30.7410  -12.4730   19.0660 C   0  0  0  0  0  2  0  0  0  0  0  0
  -29.7140  -12.5420   17.9130 C   0  0  0  0  0  2  0  0  0  0  0  0
  -28.2750  -12.3690   18.4410 C   0  0  0  0  0  2  0  0  0  0  0  0
  -27.9820  -13.2650   19.6730 C   0  0  0  0  0  3  0  0  0  0  0  0
  -29.1120  -13.1510   20.7200 C   0  0  0  0  0  2  0  0  0  0  0  0
  -30.3750  -13.5080   20.0540 N   0  0  0  0  0  0  0  0  0  0  0  0
  -32.0550  -14.9500   19.5370 O   0  0  0  0  0  0  0  0  0  0  0  0
  -30.1480  -15.7640   20.5150 N   0  0  0  0  0  0  0  0  0  0  0  0
  -29.3880  -15.4030   21.0700 H   0  0  0  0  0  0  0  0  0  0  0  0
  -25.6980  -13.8690   20.6860 C   0  0  0  0  0  0  0  0  0  0  0  0
  -24.6340  -13.0990   21.0710 C   0  0  0  0  0  0  0  0  0  0  0  0
  -25.0250  -11.7440   20.8410 C   0  0  0  0  0  0  0  0  0  0  0  0
  -26.6710  -12.9830   20.2510 N   0  0  0  0  0  0  0  0  0  0  0  0
  -26.2760  -11.6930   20.4030 N   0  0  0  0  0  0  0  0  0  0  0  0
  -24.2590  -10.4950   20.9600 C   0  0  0  0  0  0  0  0  0  0  0  0
  -24.6510   -9.4700   21.8470 C   0  0  0  0  0  3  0  0  0  0  0  0
  -23.8890   -8.2860   21.9550 C   0  0  0  0  0  3  0  0  0  0  0  0
  -22.7190   -8.1220   21.1760 C   0  0  0  0  0  0  0  0  0  0  0  0
  -22.3450   -9.1370   20.2780 C   0  0  0  0  0  3  0  0  0  0  0  0
  -23.1080  -10.3120   20.1670 C   0  0  0  0  0  3  0  0  0  0  0  0
  -21.9310   -6.9970   21.1970 O   0  0  0  0  0  0  0  0  0  0  0  0
  -21.7430   -6.2710   22.3460 C   0  0  0  0  0  0  0  0  0  0  0  0
  -21.2090   -6.8530   23.5170 C   0  0  0  0  0  3  0  0  0  0  0  0
  -20.9670   -6.0550   24.6520 C   0  0  0  0  0  3  0  0  0  0  0  0
  -21.2480   -4.6770   24.6180 C   0  0  0  0  0  0  0  0  0  0  0  0
  -21.7760   -4.0940   23.4520 C   0  0  0  0  0  3  0  0  0  0  0  0
  -22.0190   -4.8890   22.3180 C   0  0  0  0  0  0  0  0  0  0  0  0
  -22.5070   -4.3190   21.1900 F   0  0  0  0  0  0  0  0  0  0  0  0
  -21.0090   -3.9080   25.7060 F   0  0  0  0  0  0  0  0  0  0  0  0
  -23.2940  -13.5930   21.5330 C   0  0  0  0  0  0  0  0  0  0  0  0
  -22.6350  -12.8470   22.4140 N   0  0  0  0  0  0  0  0  0  0  0  0
  -22.8440  -14.6720   21.1510 O   0  0  0  0  0  0  0  0  0  0  0  0
  -23.0150  -11.9720   22.7440 H   0  0  0  0  0  0  0  0  0  0  0  0
  -21.7400  -13.1570   22.7660 H   0  0  0  0  0  0  0  0  0  0  0  0
  -25.9130  -15.2440   20.6510 N   0  0  0  0  0  0  0  0  0  0  0  0
  -25.1930  -15.9090   20.9090 H   0  0  0  0  0  0  0  0  0  0  0  0
  -26.7450  -15.6860   20.2800 H   0  0  0  0  0  0  0  0  0  0  0  0
  1  7  1  0
  1  6  1  0
  2  1  2  0
  4  3  1  0
  5  3  1  0
  6 11  1  0
  6  4  1  0
  7  5  1  0
  7  8  1  6
  9 10  2  0
 10  2  1  0
 12 23  2  0
 13 11  1  0
 13 18  1  0
 14 22  1  0
 14 24  1  0
 15 21  1  0
 15 17  1  0
 16 22  1  0
 17 18  2  0
 17 16  1  0
 19 13  2  0
 20 19  1  0
 20 15  2  0
 21 14  1  0
 22 12  1  0
 24 26  2  0
 25 24  1  0
 27 25  1  0
 28 37  2  0
 28 33  1  0
 29 25  1  0
 29 33  1  0
 30 29  1  0
 31 32  1  0
 31 30  1  0
 32 28  1  0
 33 34  2  0
 34 35  1  0
 36 35  2  0
 37 36  1  0
 38 12  1  0
 38 43  1  0
 38 39  1  0
 39 42  1  1
 39 40  1  0
 41 39  1  0
 43 46  1  0
 44 48  1  0
 44 43  1  0
 45 44  2  0
 48 47  1  0
 50 48  1  0
 50 51  1  0
 50 49  1  0
 52 55  1  0
 52  7  1  0
 53 56  1  0
 54 58  2  0
 54 55  1  0
 55 53  2  0
 56 59  1  0
 57 69  1  0
 57 56  2  0
 58 57  1  0
 60 58  1  0
 61 67  1  0
 61 69  1  0
 62 67  1  0
 63 64  1  0
 63 62  1  0
 65 64  1  0
 65 74  1  0
 65 66  1  0
 67 66  1  0
 68 61  2  0
 69 70  1  0
 71 72  2  0
 72 91  1  0
 73 76  1  0
 73 72  1  0
 74 75  1  0
 74 71  1  0
 75 73  2  0
 76 77  1  0
 77 78  2  0
 79 82  1  0
 79 78  1  0
 80 79  2  0
 81 80  1  0
 81 76  2  0
 82 83  1  0
 83 84  1  0
 84 85  2  0
 86 85  1  0
 86 90  1  0
 87 86  2  0
 88 83  2  0
 88 87  1  0
 89 88  1  0
 91 92  1  0
 92 94  1  0
 92 95  1  0
 93 91  2  0
 96 71  1  0
 96 97  1  0
 98 96  1  0
M  ISO  4   6 101  11 101  61 100  69 100
M  END
>  <TORSDO>  (55) 
F 19

>  <SCORE>  (55) 
-12.158

>  <name>  (55) 
54

>  <ligand_id>  (55) 
54

>  <original_smiles>  (55) 
[H]C([H])=C([H])C([H])=C1C([H])(Oc2c([H])c([H])c3c(c2[H])C([H])([H])N(C(=O)C([H])(N([H])C(=O)C([H])(N([H])C([H])([H])[H])C([H])([H])[H])C(C([H])([H])[H])(C([H])([H])[H])C([H])([H])[H])C([H])(C(=O)N([H])C2([H])c4c([H])c([H])c([H])c([H])c4C([H])([H])C([H])([H])C2([H])[H])C3([H])[H])C([H])([H])C([H])([H])C([H])([H])[N+]1([H])C([H])([H])c1c([H])c(Cl)c(N([H])C(=O)N2C([H])([H])C([H])([H])C([H])([H])C([H])(n3nc(-c4c([H])c([H])c(Oc5c([H])c([H])c(F)c([H])c5F)c([H])c4[H])c(C(=O)N([H])[H])c3N([H])[H])C2([H])[H])c(C([H])([H])[H])c1[H]

>  <smiles>  (55) 
[H]C([H])=C([H])C([H])=C1C([H])(Oc2c([H])c([H])c3c(c2[H])C([H])([H])N(C(=O)C([H])(N([H])C(=O)C([H])(N([H])C([H])([H])[H])C([H])([H])[H])C(C([H])([H])[H])(C([H])([H])[H])C([H])([H])[H])C([H])(C(=O)N([H])C2([H])c4c([H])c([H])c([H])c([H])c4C([H])([H])C([H])([H])C2([H])[H])C3([H])[H])C([H])([H])C([H])([H])C([H])([H])[N+]1([H])C([H])([H])c1c([H])c(Cl)c(N([H])C(=O)N2C([H])([H])C([H])([H])C([H])([H])C([H])(n3nc(-c4c([H])c([H])c(Oc5c([H])c([H])c(F)c([H])c5F)c([H])c4[H])c(C(=O)N([H])[H])c3N([H])[H])C2([H])[H])c(C([H])([H])[H])c1[H]

$$$$
55:0:0
     RDKit          3D

 94102  0  0  1  0  0  0  0  0999 V2000
  -29.3000  -21.2270   21.1150 C   0  0  0  0  0  2  0  0  0  0  0  0
  -31.8080  -17.7550   19.9120 C   0  0  0  0  0  3  0  0  0  0  0  0
  -32.2430  -19.0860   19.8040 C   0  0  0  0  0  3  0  0  0  0  0  0
  -29.6330  -18.5540   20.6380 C   0  0  0  0  0  0  0  0  0  0  0  0
  -30.0950  -19.9440   20.5980 C   0  0  0  0  0  0  0  0  0  0  0  0
  -30.5030  -17.4150   20.3450 C   0  0  0  0  0  0  0  0  0  0  0  0
  -31.4200  -20.1630   20.1610 C   0  0  0  0  0  0  0  0  0  0  0  0
  -28.1770  -18.2850   20.9860 C   0  0  0  0  0  1  0  0  0  0  0  0
  -32.0890  -21.7560   20.0490 Cl  0  0  0  0  0  0  0  0  0  0  0  0
  -30.7720  -14.8070   20.1050 C   0  0  0  0  0  0  0  0  0  0  0  0
  -30.4330  -12.6040   18.9870 C   0  0  0  0  0  2  0  0  0  0  0  0
  -29.4560  -12.7540   17.8020 C   0  0  0  0  0  2  0  0  0  0  0  0
  -28.0030  -12.5900   18.2800 C   0  0  0  0  0  2  0  0  0  0  0  0
  -27.6900  -13.4230   19.5480 C   0  0  0  0  0  3  0  0  0  0  0  0
  -28.7920  -13.2880   20.6250 C   0  0  0  0  0  2  0  0  0  0  0  0
  -30.0710  -13.6270   19.9960 N   0  0  0  0  0  0  0  0  0  0  0  0
  -31.9480  -14.8230   19.7380 O   0  0  0  0  0  0  0  0  0  0  0  0
  -30.0990  -15.9790   20.4440 N   0  0  0  0  0  0  0  0  0  0  0  0
  -29.1510  -15.8310   20.7550 H   0  0  0  0  0  0  0  0  0  0  0  0
  -25.3190  -13.9850   20.3530 C   0  0  0  0  0  0  0  0  0  0  0  0
  -24.2730  -13.2010   20.7510 C   0  0  0  0  0  0  0  0  0  0  0  0
  -24.7460  -11.8530   20.6970 C   0  0  0  0  0  0  0  0  0  0  0  0
  -26.3650  -13.1180   20.0810 N   0  0  0  0  0  0  0  0  0  0  0  0
  -26.0280  -11.8290   20.3530 N   0  0  0  0  0  0  0  0  0  0  0  0
  -24.0340  -10.5820   20.8950 C   0  0  0  0  0  0  0  0  0  0  0  0
  -24.4580   -9.6380   21.8550 C   0  0  0  0  0  3  0  0  0  0  0  0
  -23.7450   -8.4340   22.0400 C   0  0  0  0  0  3  0  0  0  0  0  0
  -22.5930   -8.1640   21.2630 C   0  0  0  0  0  0  0  0  0  0  0  0
  -22.1870   -9.0980   20.2930 C   0  0  0  0  0  3  0  0  0  0  0  0
  -22.9010  -10.2920   20.1060 C   0  0  0  0  0  3  0  0  0  0  0  0
  -21.8510   -7.0100   21.3580 O   0  0  0  0  0  0  0  0  0  0  0  0
  -21.7420   -6.3210   22.5390 C   0  0  0  0  0  0  0  0  0  0  0  0
  -21.2210   -6.9210   23.7070 C   0  0  0  0  0  3  0  0  0  0  0  0
  -21.0590   -6.1550   24.8790 C   0  0  0  0  0  3  0  0  0  0  0  0
  -21.4110   -4.7910   24.8840 C   0  0  0  0  0  0  0  0  0  0  0  0
  -21.9250   -4.1910   23.7200 C   0  0  0  0  0  3  0  0  0  0  0  0
  -22.0860   -4.9550   22.5510 C   0  0  0  0  0  0  0  0  0  0  0  0
  -22.5620   -4.3660   21.4280 F   0  0  0  0  0  0  0  0  0  0  0  0
  -21.2490   -4.0550   26.0090 F   0  0  0  0  0  0  0  0  0  0  0  0
  -22.8800  -13.6620   21.0640 C   0  0  0  0  0  0  0  0  0  0  0  0
  -22.1810  -12.9560   21.9460 N   0  0  0  0  0  0  0  0  0  0  0  0
  -22.4200  -14.6860   20.5590 O   0  0  0  0  0  0  0  0  0  0  0  0
  -22.5650  -12.1280   22.3750 H   0  0  0  0  0  0  0  0  0  0  0  0
  -21.2490  -13.2500   22.2010 H   0  0  0  0  0  0  0  0  0  0  0  0
  -25.4680  -15.3590   20.1710 N   0  0  0  0  0  0  0  0  0  0  0  0
  -24.6860  -15.9970   20.2720 H   0  0  0  0  0  0  0  0  0  0  0  0
  -26.2650  -15.7840   19.7160 H   0  0  0  0  0  0  0  0  0  0  0  0
  -29.1180  -22.4260   20.1740 N   0  0  1  0  0  4  0  0  0  0  0  0
  -30.0330  -22.4940   19.7480 H   0  0  0  0  0  0  0  0  0  0  0  0
  -26.7060  -22.0830   19.4240 C   0  0  0  0  0  1  0  0  0  0  0  0
  -28.2050  -22.0790   19.0540 C   0  0  0  0  0  2  0  0  0  0  0  0
  -28.8990  -23.8350   20.7830 C   0  0  0  0  0  3  0  0  0  0  0  0
  -28.4720  -25.0450   19.7960 C   0  0  0  0  0  3  0  0  0  0  0  0
  -28.4930  -26.4910   20.1970 O   0  0  0  0  0  0  0  0  0  0  0  0
  -24.6620  -31.8520   23.1480 C   0  0  0  0  0  0  0  0  0  0  0  0
  -27.3620  -27.3340   20.0810 C   0  0  0  0  0  0  0  0  0  0  0  0
  -23.4970  -30.4610   21.4780 C   0  0  0  0  0  3  0  0  0  0  0  0
  -24.9820  -28.9530   20.0400 C   0  0  0  0  0  0  0  0  0  0  0  0
  -26.0340  -30.8070   21.3280 C   0  0  0  0  0  2  0  0  0  0  0  0
  -26.1370  -29.4360   20.6670 C   0  0  0  0  0  0  0  0  0  0  0  0
  -27.3240  -28.6370   20.6820 C   0  0  0  0  0  3  0  0  0  0  0  0
  -26.1830  -26.9240   19.4090 C   0  0  0  0  0  3  0  0  0  0  0  0
  -25.0100  -27.7050   19.4030 C   0  0  0  0  0  3  0  0  0  0  0  0
  -23.7360  -29.8210   20.0860 C   0  0  0  0  0  2  0  0  0  0  0  0
  -24.7500  -31.0560   22.0420 N   0  0  0  0  0  0  0  0  0  0  0  0
  -23.5680  -32.1060   23.6730 O   0  0  0  0  0  0  0  0  0  0  0  0
  -22.8360  -29.4190   22.4120 C   0  0  0  0  0  0  0  0  0  0  0  0
  -21.5080  -29.2530   22.2910 N   0  0  0  0  0  0  0  0  0  0  0  0
  -23.5180  -28.7660   23.2070 O   0  0  0  0  0  0  0  0  0  0  0  0
  -21.0130  -29.8250   21.6220 H   0  0  0  0  0  0  0  0  0  0  0  0
  -18.1220  -28.1090   22.8490 C   0  0  0  0  0  0  0  0  0  0  0  0
  -20.6930  -28.3010   23.0480 C   0  0  0  0  0  3  0  0  0  0  0  0
  -20.7450  -26.8930   22.4070 C   0  0  0  0  0  2  0  0  0  0  0  0
  -19.6050  -26.6410   21.4160 C   0  0  0  0  0  2  0  0  0  0  0  0
  -18.2470  -26.7880   22.1070 C   0  0  0  0  0  2  0  0  0  0  0  0
  -19.2690  -28.8280   23.2770 C   0  0  0  0  0  0  0  0  0  0  0  0
  -19.0970  -30.0670   23.9290 C   0  0  0  0  0  3  0  0  0  0  0  0
  -17.8100  -30.5900   24.1570 C   0  0  0  0  0  3  0  0  0  0  0  0
  -16.6770  -29.8680   23.7430 C   0  0  0  0  0  3  0  0  0  0  0  0
  -16.8340  -28.6290   23.0980 C   0  0  0  0  0  3  0  0  0  0  0  0
  -25.9280  -32.4960   23.7920 C   0  0  0  0  0  3  0  0  0  0  0  0
  -25.5930  -33.8840   24.1400 N   0  0  0  0  0  0  0  0  0  0  0  0
  -25.9220  -34.9550   23.4040 C   0  0  0  0  0  0  0  0  0  0  0  0
  -26.6110  -34.8780   22.3830 O   0  0  0  0  0  0  0  0  0  0  0  0
  -24.9780  -34.0160   24.9300 H   0  0  0  0  0  0  0  0  0  0  0  0
  -24.1850  -36.7380   23.0420 C   0  0  0  0  0  1  0  0  0  0  0  0
  -25.4090  -36.3290   23.8770 C   0  0  0  0  0  3  0  0  0  0  0  0
  -27.5100  -37.2200   24.7860 C   0  0  0  0  0  1  0  0  0  0  0  0
  -26.4330  -37.3930   23.8130 N   0  0  0  0  0  0  0  0  0  0  0  0
  -26.0140  -38.3060   23.9650 H   0  0  0  0  0  0  0  0  0  0  0  0
  -26.4420  -31.7130   25.0620 C   0  0  1  0  0  0  0  0  0  0  0  0
  -25.3410  -31.4400   26.1130 C   0  0  0  0  0  1  0  0  0  0  0  0
  -27.0520  -30.3520   24.6530 C   0  0  0  0  0  1  0  0  0  0  0  0
  -27.5700  -32.5150   25.7510 C   0  0  0  0  0  1  0  0  0  0  0  0
  2  6  1  0
  3  2  2  0
  3  7  1  0
  4  8  1  0
  5  4  1  0
  5  1  1  0
  6 18  1  0
  6  4  2  0
  7  5  2  0
  9  7  1  0
 10 18  1  0
 11 16  1  0
 12 13  1  0
 12 11  1  0
 14 13  1  0
 14 23  1  0
 14 15  1  0
 16 10  1  0
 16 15  1  0
 17 10  2  0
 18 19  1  0
 20 21  2  0
 21 40  1  0
 22 21  1  0
 22 25  1  0
 23 20  1  0
 23 24  1  0
 24 22  2  0
 25 26  1  0
 26 27  2  0
 28 31  1  0
 28 27  1  0
 29 28  2  0
 30 29  1  0
 30 25  2  0
 31 32  1  0
 32 37  2  0
 32 33  1  0
 33 34  2  0
 34 35  1  0
 35 39  1  0
 36 35  2  0
 37 36  1  0
 38 37  1  0
 40 41  1  0
 41 44  1  0
 41 43  1  0
 42 40  2  0
 45 46  1  0
 45 20  1  0
 47 45  1  0
 48 52  1  0
 48  1  1  0
 48 49  1  6
 51 50  1  0
 51 48  1  0
 53 54  1  0
 53 52  2  0
 55 66  2  0
 56 54  1  0
 56 61  1  0
 57 65  1  0
 57 67  1  0
 58 64  1  0
 58 60  1  0
 59 65  1  0
 60 61  2  0
 60 59  1  0
 62 56  2  0
 63 62  1  0
 63 58  2  0
 64 57  1  0
 65 55  1  0
 67 69  2  0
 68 67  1  0
 70 68  1  0
 71 80  2  0
 71 76  1  0
 72 68  1  0
 72 76  1  0
 73 72  1  0
 74 75  1  0
 74 73  1  0
 75 71  1  0
 76 77  2  0
 77 78  1  0
 79 78  2  0
 80 79  1  0
 81 55  1  0
 81 82  1  0
 81 91  1  0
 82 85  1  0
 83 87  1  0
 83 82  1  0
 84 83  2  0
 87 86  1  0
 89 87  1  0
 89 90  1  0
 89 88  1  0
 91 94  1  1
 91 92  1  0
 93 91  1  0
M  ISO  4  10 100  18 100  53 101  54 101
M  END
>  <TORSDO>  (56) 
F 21

>  <SCORE>  (56) 
-12.988

>  <name>  (56) 
55

>  <ligand_id>  (56) 
55

>  <original_smiles>  (56) 
[H]c1c([H])c([H])c2c(c1[H])C([H])([H])C([H])([H])C([H])([H])C2([H])N([H])C(=O)C1([H])N(C(=O)C([H])(N([H])C(=O)C([H])(N([H])C([H])([H])[H])C([H])([H])[H])C(C([H])([H])[H])(C([H])([H])[H])C([H])([H])[H])C([H])([H])c2c([H])c(OC([H])([H])C([H])([H])[N+]([H])(C([H])([H])c3c(Cl)c([H])c([H])c(N([H])C(=O)N4C([H])([H])C([H])([H])C([H])([H])C([H])(n5nc(-c6c([H])c([H])c(Oc7c([H])c([H])c(F)c([H])c7F)c([H])c6[H])c(C(=O)N([H])[H])c5N([H])[H])C4([H])[H])c3C([H])([H])[H])C([H])([H])C([H])([H])[H])c([H])c([H])c2C1([H])[H]

>  <smiles>  (56) 
[H]c1c([H])c([H])c2c(c1[H])C([H])([H])C([H])([H])C([H])([H])C2([H])N([H])C(=O)C1([H])N(C(=O)C([H])(N([H])C(=O)C([H])(N([H])C([H])([H])[H])C([H])([H])[H])C(C([H])([H])[H])(C([H])([H])[H])C([H])([H])[H])C([H])([H])c2c([H])c(OC([H])([H])C([H])([H])[N+]([H])(C([H])([H])c3c(Cl)c([H])c([H])c(N([H])C(=O)N4C([H])([H])C([H])([H])C([H])([H])C([H])(n5nc(-c6c([H])c([H])c(Oc7c([H])c([H])c(F)c([H])c7F)c([H])c6[H])c(C(=O)N([H])[H])c5N([H])[H])C4([H])[H])c3C([H])([H])[H])C([H])([H])C([H])([H])[H])c([H])c([H])c2C1([H])[H]

$$$$
56:0:0
     RDKit          3D

 95104  0  0  1  0  0  0  0  0999 V2000
  -28.0470  -22.7830   18.9960 C   0  0  0  0  0  0  0  0  0  0  0  0
  -26.9810  -22.1030   18.5390 C   0  0  0  0  0  2  0  0  0  0  0  0
  -28.1690  -24.3100   18.7830 C   0  0  0  0  0  2  0  0  0  0  0  0
  -29.5200  -24.3900   20.8880 C   0  0  0  0  0  2  0  0  0  0  0  0
  -30.1000  -23.0450   20.2910 C   0  0  0  0  0  2  0  0  0  0  0  0
  -28.3510  -25.0830   20.1140 C   0  0  0  0  0  3  0  0  0  0  0  0
  -29.1050  -22.1470   19.6720 N   0  0  0  0  0  0  0  0  0  0  0  0
  -30.5470  -18.2670   18.4060 C   0  0  0  0  0  3  0  0  0  0  0  0
  -30.4730  -19.3580   17.5270 C   0  0  0  0  0  3  0  0  0  0  0  0
  -30.2040  -18.4120   19.7620 C   0  0  0  0  0  0  0  0  0  0  0  0
  -29.7200  -19.7100   20.2040 C   0  0  0  0  0  0  0  0  0  0  0  0
  -29.6090  -20.8410   19.3010 C   0  0  0  0  0  0  0  0  0  0  0  0
  -30.0380  -20.6260   17.9580 C   0  0  0  0  0  0  0  0  0  0  0  0
  -29.3070  -19.8850   21.6590 C   0  0  0  0  0  1  0  0  0  0  0  0
  -30.0970  -21.9010   16.7850 Cl  0  0  0  0  0  0  0  0  0  0  0  0
  -30.5140  -17.1880   20.7000 C   0  0  0  0  0  2  0  0  0  0  0  0
  -30.8670  -14.7050   19.9830 C   0  0  0  0  0  0  0  0  0  0  0  0
  -30.5680  -12.4710   18.9280 C   0  0  0  0  0  2  0  0  0  0  0  0
  -29.5520  -12.5930   17.7730 C   0  0  0  0  0  2  0  0  0  0  0  0
  -28.1080  -12.4440   18.2920 C   0  0  0  0  0  2  0  0  0  0  0  0
  -27.8280  -13.3190   19.5420 C   0  0  0  0  0  3  0  0  0  0  0  0
  -28.9510  -13.1730   20.5920 C   0  0  0  0  0  2  0  0  0  0  0  0
  -30.2200  -13.5000   19.9250 N   0  0  0  0  0  0  0  0  0  0  0  0
  -32.0290  -14.8320   19.5870 O   0  0  0  0  0  0  0  0  0  0  0  0
  -30.1080  -15.7900   20.3250 N   0  0  0  0  0  0  0  0  0  0  0  0
  -29.1430  -15.5710   20.5180 H   0  0  0  0  0  0  0  0  0  0  0  0
  -25.5000  -13.9430   20.4310 C   0  0  0  0  0  0  0  0  0  0  0  0
  -24.4430  -13.1800   20.8480 C   0  0  0  0  0  0  0  0  0  0  0  0
  -24.8760  -11.8220   20.7530 C   0  0  0  0  0  0  0  0  0  0  0  0
  -26.5090  -13.0500   20.1080 N   0  0  0  0  0  0  0  0  0  0  0  0
  -26.1440  -11.7670   20.3640 N   0  0  0  0  0  0  0  0  0  0  0  0
  -24.1380  -10.5680   20.9550 C   0  0  0  0  0  0  0  0  0  0  0  0
  -24.5840   -9.5880   21.8690 C   0  0  0  0  0  3  0  0  0  0  0  0
  -23.8470   -8.3990   22.0590 C   0  0  0  0  0  3  0  0  0  0  0  0
  -22.6500   -8.1820   21.3350 C   0  0  0  0  0  0  0  0  0  0  0  0
  -22.2240   -9.1520   20.4100 C   0  0  0  0  0  3  0  0  0  0  0  0
  -22.9620  -10.3320   20.2180 C   0  0  0  0  0  3  0  0  0  0  0  0
  -21.8830   -7.0470   21.4360 O   0  0  0  0  0  0  0  0  0  0  0  0
  -21.8210   -6.3210   22.5980 C   0  0  0  0  0  0  0  0  0  0  0  0
  -21.3610   -6.8870   23.8080 C   0  0  0  0  0  3  0  0  0  0  0  0
  -21.2480   -6.0860   24.9620 C   0  0  0  0  0  3  0  0  0  0  0  0
  -21.5840   -4.7210   24.9060 C   0  0  0  0  0  0  0  0  0  0  0  0
  -22.0380   -4.1540   23.7020 C   0  0  0  0  0  3  0  0  0  0  0  0
  -22.1520   -4.9520   22.5500 C   0  0  0  0  0  0  0  0  0  0  0  0
  -22.5690   -4.3970   21.3870 F   0  0  0  0  0  0  0  0  0  0  0  0
  -21.4690   -3.9490   26.0130 F   0  0  0  0  0  0  0  0  0  0  0  0
  -23.0750  -13.6750   21.2190 C   0  0  0  0  0  0  0  0  0  0  0  0
  -22.3880  -12.9680   22.1090 N   0  0  0  0  0  0  0  0  0  0  0  0
  -22.6250  -14.7220   20.7540 O   0  0  0  0  0  0  0  0  0  0  0  0
  -22.7660  -12.1190   22.5050 H   0  0  0  0  0  0  0  0  0  0  0  0
  -21.4720  -13.2790   22.4010 H   0  0  0  0  0  0  0  0  0  0  0  0
  -25.6780  -15.3160   20.2770 N   0  0  0  0  0  0  0  0  0  0  0  0
  -24.9270  -15.9760   20.4450 H   0  0  0  0  0  0  0  0  0  0  0  0
  -26.4990  -15.7490   19.8730 H   0  0  0  0  0  0  0  0  0  0  0  0
  -28.4760  -26.5610   20.0210 O   0  0  0  0  0  0  0  0  0  0  0  0
  -24.6060  -31.8060   23.1210 C   0  0  0  0  0  0  0  0  0  0  0  0
  -27.3230  -27.3600   20.0010 C   0  0  0  0  0  0  0  0  0  0  0  0
  -23.4370  -30.4140   21.4500 C   0  0  0  0  0  3  0  0  0  0  0  0
  -24.9230  -28.9170   20.0090 C   0  0  0  0  0  0  0  0  0  0  0  0
  -25.9710  -30.7860   21.2860 C   0  0  0  0  0  2  0  0  0  0  0  0
  -26.0790  -29.4230   20.6140 C   0  0  0  0  0  0  0  0  0  0  0  0
  -27.2840  -28.6600   20.5940 C   0  0  0  0  0  3  0  0  0  0  0  0
  -26.1350  -26.8980   19.3900 C   0  0  0  0  0  3  0  0  0  0  0  0
  -24.9520  -27.6590   19.3890 C   0  0  0  0  0  3  0  0  0  0  0  0
  -23.6710  -29.7670   20.0610 C   0  0  0  0  0  2  0  0  0  0  0  0
  -24.6900  -31.0180   22.0090 N   0  0  0  0  0  0  0  0  0  0  0  0
  -23.5140  -32.0550   23.6530 O   0  0  0  0  0  0  0  0  0  0  0  0
  -22.7880  -29.3710   22.3880 C   0  0  0  0  0  0  0  0  0  0  0  0
  -21.4640  -29.1800   22.2570 N   0  0  0  0  0  0  0  0  0  0  0  0
  -23.4740  -28.7350   23.1940 O   0  0  0  0  0  0  0  0  0  0  0  0
  -20.9700  -29.7470   21.5820 H   0  0  0  0  0  0  0  0  0  0  0  0
  -18.0990  -27.9390   22.7270 C   0  0  0  0  0  0  0  0  0  0  0  0
  -20.6530  -28.2190   23.0060 C   0  0  0  0  0  3  0  0  0  0  0  0
  -20.7710  -26.8010   22.4030 C   0  0  0  0  0  2  0  0  0  0  0  0
  -19.6740  -26.4860   21.3820 C   0  0  0  0  0  2  0  0  0  0  0  0
  -18.2890  -26.6050   22.0260 C   0  0  0  0  0  2  0  0  0  0  0  0
  -19.2090  -28.7040   23.1740 C   0  0  0  0  0  0  0  0  0  0  0  0
  -18.9750  -29.9540   23.7890 C   0  0  0  0  0  3  0  0  0  0  0  0
  -17.6650  -30.4380   23.9630 C   0  0  0  0  0  3  0  0  0  0  0  0
  -16.5690  -29.6690   23.5320 C   0  0  0  0  0  3  0  0  0  0  0  0
  -16.7870  -28.4230   22.9190 C   0  0  0  0  0  3  0  0  0  0  0  0
  -25.8740  -32.4500   23.7630 C   0  0  0  0  0  3  0  0  0  0  0  0
  -25.5390  -33.8370   24.1140 N   0  0  0  0  0  0  0  0  0  0  0  0
  -25.8590  -34.9070   23.3750 C   0  0  0  0  0  0  0  0  0  0  0  0
  -26.5380  -34.8320   22.3470 O   0  0  0  0  0  0  0  0  0  0  0  0
  -24.9370  -33.9690   24.9130 H   0  0  0  0  0  0  0  0  0  0  0  0
  -24.1110  -36.6830   23.0310 C   0  0  0  0  0  1  0  0  0  0  0  0
  -25.3450  -36.2800   23.8520 C   0  0  0  0  0  3  0  0  0  0  0  0
  -27.4510  -37.1810   24.7370 C   0  0  0  0  0  1  0  0  0  0  0  0
  -26.3640  -37.3500   23.7750 N   0  0  0  0  0  0  0  0  0  0  0  0
  -25.9420  -38.2610   23.9290 H   0  0  0  0  0  0  0  0  0  0  0  0
  -26.3930  -31.6670   25.0310 C   0  0  1  0  0  0  0  0  0  0  0  0
  -25.2970  -31.3900   26.0870 C   0  0  0  0  0  1  0  0  0  0  0  0
  -27.0050  -30.3070   24.6200 C   0  0  0  0  0  1  0  0  0  0  0  0
  -27.5250  -32.4710   25.7140 C   0  0  0  0  0  1  0  0  0  0  0  0
  1  7  1  0
  2  1  2  0
  3  1  1  0
  3  6  1  0
  5  4  1  0
  6 55  1  0
  6  4  1  0
  7  5  1  0
  8 10  1  0
  9 13  1  0
  9  8  2  0
 10 11  2  0
 10 16  1  0
 11 14  1  0
 12  7  1  0
 12 11  1  0
 13 12  2  0
 15 13  1  0
 17 25  1  0
 18 23  1  0
 19 20  1  0
 19 18  1  0
 21 20  1  0
 21 30  1  0
 21 22  1  0
 23 17  1  0
 23 22  1  0
 24 17  2  0
 25 26  1  0
 25 16  1  0
 27 28  2  0
 28 47  1  0
 29 28  1  0
 29 32  1  0
 30 31  1  0
 30 27  1  0
 31 29  2  0
 32 33  1  0
 33 34  2  0
 35 38  1  0
 35 34  1  0
 36 35  2  0
 37 36  1  0
 37 32  2  0
 38 39  1  0
 39 40  1  0
 40 41  2  0
 42 41  1  0
 42 46  1  0
 43 42  2  0
 44 39  2  0
 44 43  1  0
 45 44  1  0
 47 48  1  0
 48 51  1  0
 48 50  1  0
 49 47  2  0
 52 27  1  0
 52 53  1  0
 54 52  1  0
 56 67  2  0
 57 55  1  0
 57 62  1  0
 58 66  1  0
 58 68  1  0
 59 65  1  0
 59 61  1  0
 60 66  1  0
 61 60  1  0
 62 61  2  0
 63 57  2  0
 64 63  1  0
 64 59  2  0
 65 58  1  0
 66 56  1  0
 68 70  2  0
 69 68  1  0
 71 69  1  0
 72 81  2  0
 72 77  1  0
 73 69  1  0
 73 77  1  0
 74 73  1  0
 75 76  1  0
 75 74  1  0
 76 72  1  0
 77 78  2  0
 78 79  1  0
 80 79  2  0
 81 80  1  0
 82 56  1  0
 82 83  1  0
 82 92  1  0
 83 86  1  0
 84 88  1  0
 84 83  1  0
 85 84  2  0
 88 87  1  0
 90 88  1  0
 90 91  1  0
 90 89  1  0
 92 95  1  1
 92 93  1  0
 94 92  1  0
M  ISO  4   6 101  17 100  25 100  55 101
M  END
>  <TORSDO>  (57) 
F 18

>  <SCORE>  (57) 
-14.030

>  <name>  (57) 
56

>  <ligand_id>  (57) 
56

>  <original_smiles>  (57) 
[H]C([H])=C1N(c2c(Cl)c([H])c([H])c(C([H])([H])N([H])C(=O)N3C([H])([H])C([H])([H])C([H])([H])C([H])(n4nc(-c5c([H])c([H])c(Oc6c([H])c([H])c(F)c([H])c6F)c([H])c5[H])c(C(=O)N([H])[H])c4N([H])[H])C3([H])[H])c2C([H])([H])[H])C([H])([H])C([H])([H])C([H])(Oc2c([H])c([H])c3c(c2[H])C([H])([H])N(C(=O)C([H])(N([H])C(=O)C([H])(N([H])C([H])([H])[H])C([H])([H])[H])C(C([H])([H])[H])(C([H])([H])[H])C([H])([H])[H])C([H])(C(=O)N([H])C2([H])c4c([H])c([H])c([H])c([H])c4C([H])([H])C([H])([H])C2([H])[H])C3([H])[H])C1([H])[H]

>  <smiles>  (57) 
[H]C([H])=C1N(c2c(Cl)c([H])c([H])c(C([H])([H])N([H])C(=O)N3C([H])([H])C([H])([H])C([H])([H])C([H])(n4nc(-c5c([H])c([H])c(Oc6c([H])c([H])c(F)c([H])c6F)c([H])c5[H])c(C(=O)N([H])[H])c4N([H])[H])C3([H])[H])c2C([H])([H])[H])C([H])([H])C([H])([H])C([H])(Oc2c([H])c([H])c3c(c2[H])C([H])([H])N(C(=O)C([H])(N([H])C(=O)C([H])(N([H])C([H])([H])[H])C([H])([H])[H])C(C([H])([H])[H])(C([H])([H])[H])C([H])([H])[H])C([H])(C(=O)N([H])C2([H])c4c([H])c([H])c([H])c([H])c4C([H])([H])C([H])([H])C2([H])[H])C3([H])[H])C1([H])[H]

$$$$
57:0:0
     RDKit          3D

 94102  0  0  1  0  0  0  0  0999 V2000
  -31.3490  -18.7850   22.6600 C   0  0  0  0  0  3  0  0  0  0  0  0
  -30.9480  -21.0400   21.8630 C   0  0  0  0  0  3  0  0  0  0  0  0
  -30.4990  -18.2270   21.6760 C   0  0  0  0  0  0  0  0  0  0  0  0
  -30.0450  -20.5620   20.8870 C   0  0  0  0  0  0  0  0  0  0  0  0
  -31.5830  -20.1630   22.7510 C   0  0  0  0  0  0  0  0  0  0  0  0
  -29.8340  -19.1330   20.7760 C   0  0  0  0  0  0  0  0  0  0  0  0
  -32.6400  -20.7750   23.9660 Cl  0  0  0  0  0  0  0  0  0  0  0  0
  -28.7780  -18.5120   19.5550 Cl  0  0  0  0  0  0  0  0  0  0  0  0
  -30.3260  -16.6810   21.8330 C   0  0  0  0  0  2  0  0  0  0  0  0
  -30.6660  -14.7000   20.3190 C   0  0  0  0  0  0  0  0  0  0  0  0
  -30.4000  -12.5260   19.1430 C   0  0  0  0  0  2  0  0  0  0  0  0
  -29.4350  -12.6940   17.9520 C   0  0  0  0  0  2  0  0  0  0  0  0
  -27.9760  -12.4990   18.4160 C   0  0  0  0  0  2  0  0  0  0  0  0
  -27.6360  -13.3480   19.6690 C   0  0  0  0  0  3  0  0  0  0  0  0
  -28.7100  -13.1790   20.7640 C   0  0  0  0  0  2  0  0  0  0  0  0
  -30.0090  -13.5170   20.1580 N   0  0  0  0  0  0  0  0  0  0  0  0
  -31.8310  -14.8650   19.9530 O   0  0  0  0  0  0  0  0  0  0  0  0
  -29.9170  -15.7330   20.7770 N   0  0  0  0  0  0  0  0  0  0  0  0
  -28.9290  -15.5360   20.7920 H   0  0  0  0  0  0  0  0  0  0  0  0
  -25.2580  -13.9370   20.4390 C   0  0  0  0  0  0  0  0  0  0  0  0
  -24.2040  -13.1560   20.8220 C   0  0  0  0  0  0  0  0  0  0  0  0
  -24.6760  -11.8090   20.7780 C   0  0  0  0  0  0  0  0  0  0  0  0
  -26.3020  -13.0630   20.1760 N   0  0  0  0  0  0  0  0  0  0  0  0
  -25.9600  -11.7800   20.4440 N   0  0  0  0  0  0  0  0  0  0  0  0
  -23.9640  -10.5400   20.9720 C   0  0  0  0  0  0  0  0  0  0  0  0
  -24.4140   -9.5800   21.9050 C   0  0  0  0  0  3  0  0  0  0  0  0
  -23.7010   -8.3740   22.0890 C   0  0  0  0  0  3  0  0  0  0  0  0
  -22.5280   -8.1230   21.3390 C   0  0  0  0  0  0  0  0  0  0  0  0
  -22.0990   -9.0710   20.3940 C   0  0  0  0  0  3  0  0  0  0  0  0
  -22.8100  -10.2680   20.2090 C   0  0  0  0  0  3  0  0  0  0  0  0
  -21.7890   -6.9680   21.4330 O   0  0  0  0  0  0  0  0  0  0  0  0
  -21.7430   -6.2340   22.5920 C   0  0  0  0  0  0  0  0  0  0  0  0
  -21.2740   -6.7850   23.8030 C   0  0  0  0  0  3  0  0  0  0  0  0
  -21.1730   -5.9760   24.9530 C   0  0  0  0  0  3  0  0  0  0  0  0
  -21.5330   -4.6170   24.8920 C   0  0  0  0  0  0  0  0  0  0  0  0
  -21.9970   -4.0650   23.6850 C   0  0  0  0  0  3  0  0  0  0  0  0
  -22.0980   -4.8700   22.5380 C   0  0  0  0  0  0  0  0  0  0  0  0
  -22.5250   -4.3280   21.3720 F   0  0  0  0  0  0  0  0  0  0  0  0
  -21.4300   -3.8390   25.9950 F   0  0  0  0  0  0  0  0  0  0  0  0
  -22.8080  -13.6190   21.1200 C   0  0  0  0  0  0  0  0  0  0  0  0
  -22.1030  -12.9080   21.9910 N   0  0  0  0  0  0  0  0  0  0  0  0
  -22.3530  -14.6450   20.6150 O   0  0  0  0  0  0  0  0  0  0  0  0
  -22.4880  -12.0790   22.4160 H   0  0  0  0  0  0  0  0  0  0  0  0
  -21.1660  -13.1940   22.2350 H   0  0  0  0  0  0  0  0  0  0  0  0
  -25.4070  -15.3110   20.2670 N   0  0  0  0  0  0  0  0  0  0  0  0
  -24.6260  -15.9480   20.3710 H   0  0  0  0  0  0  0  0  0  0  0  0
  -26.2320  -15.7600   19.8900 H   0  0  0  0  0  0  0  0  0  0  0  0
  -29.4050  -21.6340   19.9620 C   0  0  0  0  0  2  0  0  0  0  0  0
  -28.8960  -22.8580   20.6750 N   0  0  0  0  0  4  0  0  0  0  0  0
  -29.5540  -23.0470   21.4140 H   0  0  0  0  0  0  0  0  0  0  0  0
  -28.0220  -22.6090   21.1170 H   0  0  0  0  0  0  0  0  0  0  0  0
  -28.7330  -24.1320   19.8740 C   0  0  0  0  0  2  0  0  0  0  0  0
  -28.1820  -25.3520   20.7080 C   0  0  0  0  0  2  0  0  0  0  0  0
  -28.2920  -26.6850   20.1140 O   0  0  0  0  0  0  0  0  0  0  0  0
  -24.5290  -31.9280   23.2610 C   0  0  0  0  0  0  0  0  0  0  0  0
  -27.1470  -27.4740   20.1340 C   0  0  0  0  0  0  0  0  0  0  0  0
  -23.3140  -30.5530   21.6030 C   0  0  0  0  0  3  0  0  0  0  0  0
  -24.7640  -29.0270   20.1560 C   0  0  0  0  0  0  0  0  0  0  0  0
  -25.8440  -30.8980   21.4040 C   0  0  0  0  0  2  0  0  0  0  0  0
  -25.9300  -29.5310   20.7470 C   0  0  0  0  0  0  0  0  0  0  0  0
  -27.1250  -28.7630   20.7300 C   0  0  0  0  0  3  0  0  0  0  0  0
  -25.9640  -26.9980   19.5310 C   0  0  0  0  0  3  0  0  0  0  0  0
  -24.7780  -27.7600   19.5460 C   0  0  0  0  0  3  0  0  0  0  0  0
  -23.5240  -29.8900   20.2160 C   0  0  0  0  0  2  0  0  0  0  0  0
  -24.5820  -31.1440   22.1460 N   0  0  0  0  0  0  0  0  0  0  0  0
  -23.4480  -32.1920   23.8060 O   0  0  0  0  0  0  0  0  0  0  0  0
  -22.6600  -29.5260   22.5570 C   0  0  0  0  0  0  0  0  0  0  0  0
  -21.3360  -29.3380   22.4250 N   0  0  0  0  0  0  0  0  0  0  0  0
  -23.3420  -28.8990   23.3700 O   0  0  0  0  0  0  0  0  0  0  0  0
  -20.8440  -29.8890   21.7350 H   0  0  0  0  0  0  0  0  0  0  0  0
  -17.9790  -28.0900   22.8910 C   0  0  0  0  0  0  0  0  0  0  0  0
  -20.5310  -28.3850   23.1900 C   0  0  0  0  0  3  0  0  0  0  0  0
  -20.6570  -26.9580   22.6090 C   0  0  0  0  0  2  0  0  0  0  0  0
  -19.5720  -26.6280   21.5800 C   0  0  0  0  0  2  0  0  0  0  0  0
  -18.1810  -26.7490   22.2090 C   0  0  0  0  0  2  0  0  0  0  0  0
  -19.0810  -28.8630   23.3400 C   0  0  0  0  0  0  0  0  0  0  0  0
  -18.8390  -30.1210   23.9350 C   0  0  0  0  0  3  0  0  0  0  0  0
  -17.5240  -30.5990   24.0960 C   0  0  0  0  0  3  0  0  0  0  0  0
  -16.4370  -29.8200   23.6610 C   0  0  0  0  0  3  0  0  0  0  0  0
  -16.6640  -28.5720   23.0600 C   0  0  0  0  0  3  0  0  0  0  0  0
  -25.8150  -32.5550   23.8850 C   0  0  0  0  0  3  0  0  0  0  0  0
  -25.5110  -33.9560   24.2040 N   0  0  0  0  0  0  0  0  0  0  0  0
  -25.8620  -35.0040   23.4450 C   0  0  0  0  0  0  0  0  0  0  0  0
  -26.5480  -34.8920   22.4260 O   0  0  0  0  0  0  0  0  0  0  0  0
  -24.9120  -34.1190   25.0000 H   0  0  0  0  0  0  0  0  0  0  0  0
  -24.1710  -36.8220   23.0510 C   0  0  0  0  0  1  0  0  0  0  0  0
  -25.3850  -36.3980   23.8930 C   0  0  0  0  0  3  0  0  0  0  0  0
  -27.5090  -37.2610   24.7790 C   0  0  0  0  0  1  0  0  0  0  0  0
  -26.4340  -37.4370   23.8040 N   0  0  0  0  0  0  0  0  0  0  0  0
  -26.0350  -38.3620   23.9380 H   0  0  0  0  0  0  0  0  0  0  0  0
  -26.3230  -31.7860   25.1670 C   0  0  1  0  0  0  0  0  0  0  0  0
  -25.2260  -31.5610   26.2330 C   0  0  0  0  0  1  0  0  0  0  0  0
  -26.8990  -30.4020   24.7870 C   0  0  0  0  0  1  0  0  0  0  0  0
  -27.4740  -32.5770   25.8330 C   0  0  0  0  0  1  0  0  0  0  0  0
  1  5  1  0
  2  5  2  0
  3  9  1  0
  3  1  2  0
  4  2  1  0
  5  7  1  0
  6  4  2  0
  6  3  1  0
  8  6  1  0
 10 18  1  0
 11 16  1  0
 12 13  1  0
 12 11  1  0
 14 13  1  0
 14 23  1  0
 14 15  1  0
 16 10  1  0
 16 15  1  0
 17 10  2  0
 18 19  1  0
 18  9  1  0
 20 21  2  0
 21 40  1  0
 22 21  1  0
 22 25  1  0
 23 20  1  0
 23 24  1  0
 24 22  2  0
 25 26  1  0
 26 27  2  0
 28 31  1  0
 28 27  1  0
 29 28  2  0
 30 29  1  0
 30 25  2  0
 31 32  1  0
 32 33  1  0
 33 34  2  0
 35 34  1  0
 35 39  1  0
 36 35  2  0
 37 32  2  0
 37 36  1  0
 38 37  1  0
 40 41  1  0
 41 44  1  0
 41 43  1  0
 42 40  2  0
 45 46  1  0
 45 20  1  0
 47 45  1  0
 48 49  1  0
 48  4  1  0
 49 51  1  0
 49 50  1  0
 52 49  1  0
 52 53  1  0
 54 56  1  0
 54 53  1  0
 55 66  2  0
 56 61  1  0
 57 65  1  0
 57 67  1  0
 58 64  1  0
 58 60  1  0
 59 65  1  0
 60 59  1  0
 61 60  2  0
 62 63  1  0
 62 56  2  0
 63 58  2  0
 64 57  1  0
 65 55  1  0
 67 69  2  0
 68 67  1  0
 70 68  1  0
 71 80  2  0
 71 76  1  0
 72 68  1  0
 72 76  1  0
 73 72  1  0
 74 75  1  0
 74 73  1  0
 75 71  1  0
 76 77  2  0
 77 78  1  0
 79 78  2  0
 80 79  1  0
 81 55  1  0
 81 82  1  0
 81 91  1  0
 82 85  1  0
 83 87  1  0
 83 82  1  0
 84 83  2  0
 87 86  1  0
 89 87  1  0
 89 90  1  0
 89 88  1  0
 91 94  1  1
 91 92  1  0
 93 91  1  0
M  ISO  4  10 100  18 100  53 101  54 101
M  END
>  <TORSDO>  (58) 
F 21

>  <SCORE>  (58) 
-13.650

>  <name>  (58) 
57

>  <ligand_id>  (58) 
57

>  <original_smiles>  (58) 
[H]c1c([H])c([H])c2c(c1[H])C([H])([H])C([H])([H])C([H])([H])C2([H])N([H])C(=O)C1([H])N(C(=O)C([H])(N([H])C(=O)C([H])(N([H])C([H])([H])[H])C([H])([H])[H])C(C([H])([H])[H])(C([H])([H])[H])C([H])([H])[H])C([H])([H])c2c([H])c(OC([H])([H])C([H])([H])[N+]([H])([H])C([H])([H])c3c([H])c(Cl)c([H])c(C([H])([H])N([H])C(=O)N4C([H])([H])C([H])([H])C([H])([H])C([H])(n5nc(-c6c([H])c([H])c(Oc7c([H])c([H])c(F)c([H])c7F)c([H])c6[H])c(C(=O)N([H])[H])c5N([H])[H])C4([H])[H])c3Cl)c([H])c([H])c2C1([H])[H]

>  <smiles>  (58) 
[H]c1c([H])c([H])c2c(c1[H])C([H])([H])C([H])([H])C([H])([H])C2([H])N([H])C(=O)C1([H])N(C(=O)C([H])(N([H])C(=O)C([H])(N([H])C([H])([H])[H])C([H])([H])[H])C(C([H])([H])[H])(C([H])([H])[H])C([H])([H])[H])C([H])([H])c2c([H])c(OC([H])([H])C([H])([H])[N+]([H])([H])C([H])([H])c3c([H])c(Cl)c([H])c(C([H])([H])N([H])C(=O)N4C([H])([H])C([H])([H])C([H])([H])C([H])(n5nc(-c6c([H])c([H])c(Oc7c([H])c([H])c(F)c([H])c7F)c([H])c6[H])c(C(=O)N([H])[H])c5N([H])[H])C4([H])[H])c3Cl)c([H])c([H])c2C1([H])[H]

$$$$
58:0:0
     RDKit          3D

 93101  0  0  1  0  0  0  0  0999 V2000
  -28.5640  -21.6650   20.3170 N   0  0  0  0  0  4  0  0  0  0  0  0
  -27.6020  -21.6200   20.0250 H   0  0  0  0  0  0  0  0  0  0  0  0
  -29.1240  -21.4740   19.5020 H   0  0  0  0  0  0  0  0  0  0  0  0
  -28.7240  -20.5450   21.3060 C   0  0  0  0  0  2  0  0  0  0  0  0
  -31.7530  -17.4020   20.7750 C   0  0  0  0  0  3  0  0  0  0  0  0
  -32.1290  -18.7410   20.9840 C   0  0  0  0  0  3  0  0  0  0  0  0
  -29.4160  -18.0830   20.7800 C   0  0  0  0  0  3  0  0  0  0  0  0
  -29.7860  -19.4480   21.0120 C   0  0  0  0  0  0  0  0  0  0  0  0
  -30.3900  -17.0370   20.6740 C   0  0  0  0  0  0  0  0  0  0  0  0
  -31.1630  -19.7520   21.1210 C   0  0  0  0  0  0  0  0  0  0  0  0
  -31.7110  -21.3520   21.4740 Cl  0  0  0  0  0  0  0  0  0  0  0  0
  -30.6930  -14.5870   20.0590 C   0  0  0  0  0  0  0  0  0  0  0  0
  -30.3530  -12.4070   18.9380 C   0  0  0  0  0  2  0  0  0  0  0  0
  -29.3590  -12.6030   17.7750 C   0  0  0  0  0  2  0  0  0  0  0  0
  -27.9050  -12.4620   18.2700 C   0  0  0  0  0  2  0  0  0  0  0  0
  -27.6270  -13.2870   19.5550 C   0  0  0  0  0  3  0  0  0  0  0  0
  -28.7370  -13.0800   20.6100 C   0  0  0  0  0  2  0  0  0  0  0  0
  -30.0210  -13.4030   19.9720 N   0  0  0  0  0  0  0  0  0  0  0  0
  -31.8170  -14.7190   19.5650 O   0  0  0  0  0  0  0  0  0  0  0  0
  -29.9880  -15.6510   20.5380 N   0  0  0  0  0  0  0  0  0  0  0  0
  -29.0360  -15.4380   20.7950 H   0  0  0  0  0  0  0  0  0  0  0  0
  -25.2760  -13.8910   20.3950 C   0  0  0  0  0  0  0  0  0  0  0  0
  -24.2230  -13.1190   20.8070 C   0  0  0  0  0  0  0  0  0  0  0  0
  -24.6760  -11.7660   20.7380 C   0  0  0  0  0  0  0  0  0  0  0  0
  -26.3010  -13.0070   20.0990 N   0  0  0  0  0  0  0  0  0  0  0  0
  -25.9490  -11.7230   20.3660 N   0  0  0  0  0  0  0  0  0  0  0  0
  -23.9530  -10.5050   20.9480 C   0  0  0  0  0  0  0  0  0  0  0  0
  -24.4110   -9.5370   21.8690 C   0  0  0  0  0  3  0  0  0  0  0  0
  -23.6890   -8.3390   22.0660 C   0  0  0  0  0  3  0  0  0  0  0  0
  -22.4960   -8.1020   21.3420 C   0  0  0  0  0  0  0  0  0  0  0  0
  -22.0580   -9.0590   20.4070 C   0  0  0  0  0  3  0  0  0  0  0  0
  -22.7810  -10.2480   20.2100 C   0  0  0  0  0  3  0  0  0  0  0  0
  -21.7410   -6.9600   21.4520 O   0  0  0  0  0  0  0  0  0  0  0  0
  -21.7040   -6.2300   22.6140 C   0  0  0  0  0  0  0  0  0  0  0  0
  -21.2870   -6.7990   23.8380 C   0  0  0  0  0  3  0  0  0  0  0  0
  -21.1980   -5.9950   24.9920 C   0  0  0  0  0  3  0  0  0  0  0  0
  -21.5120   -4.6240   24.9230 C   0  0  0  0  0  0  0  0  0  0  0  0
  -21.9190   -4.0560   23.7040 C   0  0  0  0  0  3  0  0  0  0  0  0
  -22.0120   -4.8560   22.5520 C   0  0  0  0  0  0  0  0  0  0  0  0
  -22.3860   -4.2990   21.3750 F   0  0  0  0  0  0  0  0  0  0  0  0
  -21.4170   -3.8500   26.0300 F   0  0  0  0  0  0  0  0  0  0  0  0
  -22.8440  -13.6000   21.1520 C   0  0  0  0  0  0  0  0  0  0  0  0
  -22.1510  -12.8950   22.0400 N   0  0  0  0  0  0  0  0  0  0  0  0
  -22.3890  -14.6360   20.6690 O   0  0  0  0  0  0  0  0  0  0  0  0
  -22.5320  -12.0590   22.4600 H   0  0  0  0  0  0  0  0  0  0  0  0
  -21.2260  -13.1990   22.3070 H   0  0  0  0  0  0  0  0  0  0  0  0
  -25.4420  -15.2640   20.2250 N   0  0  0  0  0  0  0  0  0  0  0  0
  -24.6890  -15.9240   20.3770 H   0  0  0  0  0  0  0  0  0  0  0  0
  -26.2720  -15.6960   19.8390 H   0  0  0  0  0  0  0  0  0  0  0  0
  -28.8330  -23.0700   20.7940 C   0  0  0  0  0  2  0  0  0  0  0  0
  -27.8400  -24.1780   20.2730 C   0  0  0  0  0  2  0  0  0  0  0  0
  -28.4570  -25.3960   19.4990 C   0  0  0  0  0  2  0  0  0  0  0  0
  -28.3700  -26.6960   20.1320 O   0  0  0  0  0  0  0  0  0  0  0  0
  -24.5760  -31.8950   23.2250 C   0  0  0  0  0  0  0  0  0  0  0  0
  -27.1930  -27.4310   20.1040 C   0  0  0  0  0  0  0  0  0  0  0  0
  -23.3610  -30.5000   21.5850 C   0  0  0  0  0  3  0  0  0  0  0  0
  -24.8040  -28.9680   20.1390 C   0  0  0  0  0  0  0  0  0  0  0  0
  -25.8890  -30.8470   21.3770 C   0  0  0  0  0  2  0  0  0  0  0  0
  -25.9680  -29.4770   20.7260 C   0  0  0  0  0  0  0  0  0  0  0  0
  -27.1620  -28.7140   20.7090 C   0  0  0  0  0  3  0  0  0  0  0  0
  -26.0070  -26.9450   19.5090 C   0  0  0  0  0  3  0  0  0  0  0  0
  -24.8210  -27.7020   19.5290 C   0  0  0  0  0  3  0  0  0  0  0  0
  -23.5590  -29.8260   20.2010 C   0  0  0  0  0  2  0  0  0  0  0  0
  -24.6280  -31.0970   22.1190 N   0  0  0  0  0  0  0  0  0  0  0  0
  -23.4970  -32.1640   23.7710 O   0  0  0  0  0  0  0  0  0  0  0  0
  -22.7160  -29.4740   22.5460 C   0  0  0  0  0  0  0  0  0  0  0  0
  -21.3920  -29.2840   22.4200 N   0  0  0  0  0  0  0  0  0  0  0  0
  -23.4040  -28.8540   23.3600 O   0  0  0  0  0  0  0  0  0  0  0  0
  -20.8950  -29.8480   21.7440 H   0  0  0  0  0  0  0  0  0  0  0  0
  -18.0280  -28.0570   22.9080 C   0  0  0  0  0  0  0  0  0  0  0  0
  -20.5840  -28.3390   23.1890 C   0  0  0  0  0  3  0  0  0  0  0  0
  -20.6990  -26.9060   22.6160 C   0  0  0  0  0  2  0  0  0  0  0  0
  -19.6040  -26.5740   21.5980 C   0  0  0  0  0  2  0  0  0  0  0  0
  -18.2190  -26.7080   22.2380 C   0  0  0  0  0  2  0  0  0  0  0  0
  -19.1390  -28.8290   23.3410 C   0  0  0  0  0  0  0  0  0  0  0  0
  -18.9070  -30.0930   23.9280 C   0  0  0  0  0  3  0  0  0  0  0  0
  -17.5980  -30.5830   24.0900 C   0  0  0  0  0  3  0  0  0  0  0  0
  -16.5010  -29.8070   23.6750 C   0  0  0  0  0  3  0  0  0  0  0  0
  -16.7180  -28.5480   23.0880 C   0  0  0  0  0  3  0  0  0  0  0  0
  -25.8650  -32.5260   23.8400 C   0  0  0  0  0  3  0  0  0  0  0  0
  -25.5570  -33.9230   24.1750 N   0  0  0  0  0  0  0  0  0  0  0  0
  -25.8890  -34.9790   23.4180 C   0  0  0  0  0  0  0  0  0  0  0  0
  -26.5590  -34.8780   22.3860 O   0  0  0  0  0  0  0  0  0  0  0  0
  -24.9620  -34.0740   24.9760 H   0  0  0  0  0  0  0  0  0  0  0  0
  -24.1630  -36.7770   23.0690 C   0  0  0  0  0  1  0  0  0  0  0  0
  -25.4040  -36.3680   23.8790 C   0  0  0  0  0  3  0  0  0  0  0  0
  -27.5400  -37.2440   24.7140 C   0  0  0  0  0  1  0  0  0  0  0  0
  -26.4380  -37.4200   23.7710 N   0  0  0  0  0  0  0  0  0  0  0  0
  -26.0330  -38.3390   23.9260 H   0  0  0  0  0  0  0  0  0  0  0  0
  -26.3900  -31.7530   25.1110 C   0  0  1  0  0  0  0  0  0  0  0  0
  -25.3070  -31.5150   26.1900 C   0  0  0  0  0  1  0  0  0  0  0  0
  -26.9710  -30.3770   24.7130 C   0  0  0  0  0  1  0  0  0  0  0  0
  -27.5420  -32.5490   25.7680 C   0  0  0  0  0  1  0  0  0  0  0  0
  1 50  1  0
  1  4  1  0
  2  1  1  0
  3  1  1  0
  5  6  1  0
  6 10  2  0
  7  8  2  0
  8 10  1  0
  8  4  1  0
  9  5  2  0
  9  7  1  0
 10 11  1  0
 12 20  1  0
 13 18  1  0
 14 15  1  0
 14 13  1  0
 16 15  1  0
 16 25  1  0
 16 17  1  0
 18 12  1  0
 18 17  1  0
 19 12  2  0
 20  9  1  0
 20 21  1  0
 22 23  2  0
 23 42  1  0
 24 23  1  0
 24 27  1  0
 25 26  1  0
 25 22  1  0
 26 24  2  0
 27 28  1  0
 28 29  2  0
 30 33  1  0
 30 29  1  0
 31 30  2  0
 32 31  1  0
 32 27  2  0
 33 34  1  0
 34 35  1  0
 35 36  2  0
 37 36  1  0
 37 41  1  0
 38 37  2  0
 39 34  2  0
 39 38  1  0
 40 39  1  0
 42 43  1  0
 43 46  1  0
 43 45  1  0
 44 42  2  0
 47 48  1  0
 47 22  1  0
 49 47  1  0
 51 50  1  0
 52 53  1  0
 52 51  1  0
 54 65  2  0
 55 53  1  0
 55 60  1  0
 56 64  1  0
 56 66  1  0
 57 63  1  0
 57 59  1  0
 58 64  1  0
 59 58  1  0
 60 59  2  0
 61 62  1  0
 61 55  2  0
 62 57  2  0
 63 56  1  0
 64 54  1  0
 66 68  2  0
 67 66  1  0
 69 67  1  0
 70 79  2  0
 70 75  1  0
 71 67  1  0
 71 75  1  0
 72 71  1  0
 73 74  1  0
 73 72  1  0
 74 70  1  0
 75 76  2  0
 76 77  1  0
 78 77  2  0
 79 78  1  0
 80 54  1  0
 80 81  1  0
 80 90  1  0
 81 84  1  0
 82 86  1  0
 82 81  1  0
 83 82  2  0
 86 85  1  0
 88 86  1  0
 88 89  1  0
 88 87  1  0
 90 93  1  1
 90 91  1  0
 92 90  1  0
M  ISO  4  12 100  20 100  52 101  53 101
M  END
>  <TORSDO>  (59) 
F 21

>  <SCORE>  (59) 
-13.348

>  <name>  (59) 
58

>  <ligand_id>  (59) 
58

>  <original_smiles>  (59) 
[H]c1c([H])c([H])c2c(c1[H])C([H])([H])C([H])([H])C([H])([H])C2([H])N([H])C(=O)C1([H])N(C(=O)C([H])(N([H])C(=O)C([H])(N([H])C([H])([H])[H])C([H])([H])[H])C(C([H])([H])[H])(C([H])([H])[H])C([H])([H])[H])C([H])([H])c2c([H])c(OC([H])([H])C([H])([H])C([H])([H])[N+]([H])([H])C([H])([H])c3c([H])c(N([H])C(=O)N4C([H])([H])C([H])([H])C([H])([H])C([H])(n5nc(-c6c([H])c([H])c(Oc7c([H])c([H])c(F)c([H])c7F)c([H])c6[H])c(C(=O)N([H])[H])c5N([H])[H])C4([H])[H])c([H])c([H])c3Cl)c([H])c([H])c2C1([H])[H]

>  <smiles>  (59) 
[H]c1c([H])c([H])c2c(c1[H])C([H])([H])C([H])([H])C([H])([H])C2([H])N([H])C(=O)C1([H])N(C(=O)C([H])(N([H])C(=O)C([H])(N([H])C([H])([H])[H])C([H])([H])[H])C(C([H])([H])[H])(C([H])([H])[H])C([H])([H])[H])C([H])([H])c2c([H])c(OC([H])([H])C([H])([H])C([H])([H])[N+]([H])([H])C([H])([H])c3c([H])c(N([H])C(=O)N4C([H])([H])C([H])([H])C([H])([H])C([H])(n5nc(-c6c([H])c([H])c(Oc7c([H])c([H])c(F)c([H])c7F)c([H])c6[H])c(C(=O)N([H])[H])c5N([H])[H])C4([H])[H])c([H])c([H])c3Cl)c([H])c([H])c2C1([H])[H]

$$$$
59:0:0
     RDKit          3D

 95103  0  0  1  0  0  0  0  0999 V2000
  -28.3900  -19.4120   21.0650 N   0  0  0  0  0  4  0  0  0  0  0  0
  -29.3170  -19.3320   21.4500 H   0  0  0  0  0  0  0  0  0  0  0  0
  -27.7530  -19.4110   21.8480 H   0  0  0  0  0  0  0  0  0  0  0  0
  -28.1330  -18.1690   20.2700 C   0  0  0  0  0  2  0  0  0  0  0  0
  -30.6950  -18.7250   17.5410 C   0  0  0  0  0  3  0  0  0  0  0  0
  -31.8240  -18.1600   18.1500 C   0  0  0  0  0  3  0  0  0  0  0  0
  -29.4550  -18.6090   18.1850 C   0  0  0  0  0  3  0  0  0  0  0  0
  -31.6830  -17.3200   19.2740 C   0  0  0  0  0  0  0  0  0  0  0  0
  -29.3250  -17.8440   19.3660 C   0  0  0  0  0  0  0  0  0  0  0  0
  -30.3780  -16.9510   19.7310 C   0  0  0  0  0  0  0  0  0  0  0  0
  -32.9690  -16.9120   19.9790 C   0  0  0  0  0  1  0  0  0  0  0  0
  -30.6530  -14.5100   20.0080 C   0  0  0  0  0  0  0  0  0  0  0  0
  -30.1670  -12.3530   18.9400 C   0  0  0  0  0  2  0  0  0  0  0  0
  -29.1900  -12.5960   17.7750 C   0  0  0  0  0  2  0  0  0  0  0  0
  -27.7440  -12.4660   18.2830 C   0  0  0  0  0  2  0  0  0  0  0  0
  -27.4800  -13.2910   19.5710 C   0  0  0  0  0  3  0  0  0  0  0  0
  -28.6030  -13.1280   20.6240 C   0  0  0  0  0  2  0  0  0  0  0  0
  -29.8880  -13.3820   19.9650 N   0  0  0  0  0  0  0  0  0  0  0  0
  -31.7800  -14.4860   19.5260 O   0  0  0  0  0  0  0  0  0  0  0  0
  -30.0980  -15.6900   20.4070 N   0  0  0  0  0  0  0  0  0  0  0  0
  -29.1820  -15.5840   20.8160 H   0  0  0  0  0  0  0  0  0  0  0  0
  -25.1320  -13.8580   20.4420 C   0  0  0  0  0  0  0  0  0  0  0  0
  -24.0940  -13.0730   20.8640 C   0  0  0  0  0  0  0  0  0  0  0  0
  -24.5580  -11.7250   20.7840 C   0  0  0  0  0  0  0  0  0  0  0  0
  -26.1650  -12.9900   20.1320 N   0  0  0  0  0  0  0  0  0  0  0  0
  -25.8280  -11.7000   20.3960 N   0  0  0  0  0  0  0  0  0  0  0  0
  -23.8500  -10.4540   20.9950 C   0  0  0  0  0  0  0  0  0  0  0  0
  -24.3230   -9.4880   21.9100 C   0  0  0  0  0  3  0  0  0  0  0  0
  -23.6130   -8.2830   22.1080 C   0  0  0  0  0  3  0  0  0  0  0  0
  -22.4180   -8.0360   21.3940 C   0  0  0  0  0  0  0  0  0  0  0  0
  -21.9640   -8.9910   20.4680 C   0  0  0  0  0  3  0  0  0  0  0  0
  -22.6740  -10.1870   20.2670 C   0  0  0  0  0  3  0  0  0  0  0  0
  -21.6760   -6.8840   21.5040 O   0  0  0  0  0  0  0  0  0  0  0  0
  -21.6490   -6.1530   22.6650 C   0  0  0  0  0  0  0  0  0  0  0  0
  -21.2440   -6.7200   23.8940 C   0  0  0  0  0  3  0  0  0  0  0  0
  -21.1650   -5.9150   25.0480 C   0  0  0  0  0  3  0  0  0  0  0  0
  -21.4790   -4.5450   24.9760 C   0  0  0  0  0  0  0  0  0  0  0  0
  -21.8790   -3.9790   23.7520 C   0  0  0  0  0  3  0  0  0  0  0  0
  -21.9600   -4.7800   22.6000 C   0  0  0  0  0  0  0  0  0  0  0  0
  -22.3240   -4.2250   21.4200 F   0  0  0  0  0  0  0  0  0  0  0  0
  -21.3970   -3.7700   26.0830 F   0  0  0  0  0  0  0  0  0  0  0  0
  -22.7140  -13.5370   21.2270 C   0  0  0  0  0  0  0  0  0  0  0  0
  -22.0430  -12.8250   22.1250 N   0  0  0  0  0  0  0  0  0  0  0  0
  -22.2410  -14.5670   20.7490 O   0  0  0  0  0  0  0  0  0  0  0  0
  -22.4370  -11.9920   22.5360 H   0  0  0  0  0  0  0  0  0  0  0  0
  -21.1210  -13.1180   22.4140 H   0  0  0  0  0  0  0  0  0  0  0  0
  -25.2820  -15.2300   20.2730 N   0  0  0  0  0  0  0  0  0  0  0  0
  -24.4980  -15.8630   20.3840 H   0  0  0  0  0  0  0  0  0  0  0  0
  -26.0550  -15.6350   19.7650 H   0  0  0  0  0  0  0  0  0  0  0  0
  -28.2480  -20.7210   20.3520 C   0  0  0  0  0  2  0  0  0  0  0  0
  -28.7950  -21.9510   21.1220 C   0  0  0  0  0  2  0  0  0  0  0  0
  -28.7140  -23.0940   20.2600 O   0  0  0  0  0  0  0  0  0  0  0  0
  -29.2590  -24.3170   20.7770 C   0  0  0  0  0  2  0  0  0  0  0  0
  -28.1510  -25.3790   20.9530 C   0  0  0  0  0  2  0  0  0  0  0  0
  -28.4190  -26.6460   20.3090 O   0  0  0  0  0  0  0  0  0  0  0  0
  -24.6190  -31.9020   23.2450 C   0  0  0  0  0  0  0  0  0  0  0  0
  -27.2980  -27.4410   20.2300 C   0  0  0  0  0  0  0  0  0  0  0  0
  -23.4370  -30.4830   21.6000 C   0  0  0  0  0  3  0  0  0  0  0  0
  -24.9130  -28.9570   20.1880 C   0  0  0  0  0  0  0  0  0  0  0  0
  -25.9640  -30.8530   21.4280 C   0  0  0  0  0  2  0  0  0  0  0  0
  -26.0620  -29.4790   20.7970 C   0  0  0  0  0  0  0  0  0  0  0  0
  -27.2590  -28.7270   20.8180 C   0  0  0  0  0  3  0  0  0  0  0  0
  -26.1430  -26.9550   19.5800 C   0  0  0  0  0  3  0  0  0  0  0  0
  -24.9500  -27.6950   19.5720 C   0  0  0  0  0  3  0  0  0  0  0  0
  -23.6660  -29.8080   20.2210 C   0  0  0  0  0  2  0  0  0  0  0  0
  -24.6910  -31.0940   22.1490 N   0  0  0  0  0  0  0  0  0  0  0  0
  -23.5310  -32.1720   23.7710 O   0  0  0  0  0  0  0  0  0  0  0  0
  -22.7830  -29.4610   22.5560 C   0  0  0  0  0  0  0  0  0  0  0  0
  -21.4640  -29.2660   22.4120 N   0  0  0  0  0  0  0  0  0  0  0  0
  -23.4630  -28.8480   23.3850 O   0  0  0  0  0  0  0  0  0  0  0  0
  -20.9770  -29.8150   21.7170 H   0  0  0  0  0  0  0  0  0  0  0  0
  -18.0920  -28.0430   22.8620 C   0  0  0  0  0  0  0  0  0  0  0  0
  -20.6420  -28.3300   23.1780 C   0  0  0  0  0  3  0  0  0  0  0  0
  -20.7680  -26.8940   22.6180 C   0  0  0  0  0  2  0  0  0  0  0  0
  -19.6880  -26.5500   21.5880 C   0  0  0  0  0  2  0  0  0  0  0  0
  -18.2940  -26.6880   22.2050 C   0  0  0  0  0  2  0  0  0  0  0  0
  -19.1950  -28.8220   23.3040 C   0  0  0  0  0  0  0  0  0  0  0  0
  -18.9530  -30.0910   23.8740 C   0  0  0  0  0  3  0  0  0  0  0  0
  -17.6400  -30.5800   24.0120 C   0  0  0  0  0  3  0  0  0  0  0  0
  -16.5520  -29.8000   23.5850 C   0  0  0  0  0  3  0  0  0  0  0  0
  -16.7780  -28.5350   23.0150 C   0  0  0  0  0  3  0  0  0  0  0  0
  -25.8970  -32.5420   23.8720 C   0  0  0  0  0  3  0  0  0  0  0  0
  -25.5780  -33.9380   24.1960 N   0  0  0  0  0  0  0  0  0  0  0  0
  -25.9070  -34.9880   23.4310 C   0  0  0  0  0  0  0  0  0  0  0  0
  -26.5850  -34.8840   22.4050 O   0  0  0  0  0  0  0  0  0  0  0  0
  -24.9790  -34.0920   24.9930 H   0  0  0  0  0  0  0  0  0  0  0  0
  -24.1690  -36.7650   23.0500 C   0  0  0  0  0  1  0  0  0  0  0  0
  -25.4070  -36.3750   23.8750 C   0  0  0  0  0  3  0  0  0  0  0  0
  -27.5300  -37.2790   24.7160 C   0  0  0  0  0  1  0  0  0  0  0  0
  -26.4320  -37.4360   23.7650 N   0  0  0  0  0  0  0  0  0  0  0  0
  -26.0190  -38.3530   23.9060 H   0  0  0  0  0  0  0  0  0  0  0  0
  -26.4100  -31.7750   25.1530 C   0  0  1  0  0  0  0  0  0  0  0  0
  -25.3110  -31.5320   26.2150 C   0  0  0  0  0  1  0  0  0  0  0  0
  -27.0040  -30.4020   24.7620 C   0  0  0  0  0  1  0  0  0  0  0  0
  -27.5510  -32.5790   25.8210 C   0  0  0  0  0  1  0  0  0  0  0  0
  1  2  1  0
  1  3  1  0
  4  1  1  0
  5  6  2  0
  5  7  1  0
  6  8  1  0
  7  9  2  0
  8 10  2  0
  8 11  1  0
  9 10  1  0
  9  4  1  0
 10 20  1  0
 12 20  1  0
 13 18  1  0
 14 15  1  0
 14 13  1  0
 16 15  1  0
 16 25  1  0
 16 17  1  0
 18 12  1  0
 18 17  1  0
 19 12  2  0
 20 21  1  0
 22 23  2  0
 23 42  1  0
 24 23  1  0
 24 27  1  0
 25 26  1  0
 25 22  1  0
 26 24  2  0
 27 28  1  0
 28 29  2  0
 30 33  1  0
 30 29  1  0
 31 30  2  0
 32 31  1  0
 32 27  2  0
 33 34  1  0
 34 35  1  0
 35 36  2  0
 37 36  1  0
 37 41  1  0
 38 37  2  0
 39 34  2  0
 39 38  1  0
 40 39  1  0
 42 43  1  0
 43 46  1  0
 43 45  1  0
 44 42  2  0
 47 48  1  0
 47 22  1  0
 49 47  1  0
 50  1  1  0
 50 51  1  0
 52 53  1  0
 52 51  1  0
 53 54  1  0
 55 54  1  0
 56 67  2  0
 57 55  1  0
 57 62  1  0
 58 66  1  0
 58 68  1  0
 59 65  1  0
 59 61  1  0
 60 66  1  0
 61 62  2  0
 61 60  1  0
 63 57  2  0
 64 63  1  0
 64 59  2  0
 65 58  1  0
 66 56  1  0
 68 70  2  0
 69 68  1  0
 71 69  1  0
 72 81  2  0
 72 77  1  0
 73 69  1  0
 73 77  1  0
 74 73  1  0
 75 76  1  0
 75 74  1  0
 76 72  1  0
 77 78  2  0
 78 79  1  0
 80 79  2  0
 81 80  1  0
 82 56  1  0
 82 83  1  0
 82 92  1  0
 83 86  1  0
 84 88  1  0
 84 83  1  0
 85 84  2  0
 88 87  1  0
 90 88  1  0
 90 91  1  0
 90 89  1  0
 92 95  1  1
 92 93  1  0
 94 92  1  0
M  ISO  4  12 100  20 100  54 101  55 101
M  END
>  <TORSDO>  (60) 
F 23

>  <SCORE>  (60) 
-12.873

>  <name>  (60) 
59

>  <ligand_id>  (60) 
59

>  <original_smiles>  (60) 
[H]c1c([H])c([H])c2c(c1[H])C([H])([H])C([H])([H])C([H])([H])C2([H])N([H])C(=O)C1([H])N(C(=O)C([H])(N([H])C(=O)C([H])(N([H])C([H])([H])[H])C([H])([H])[H])C(C([H])([H])[H])(C([H])([H])[H])C([H])([H])[H])C([H])([H])c2c([H])c(OC([H])([H])C([H])([H])OC([H])([H])C([H])([H])[N+]([H])([H])C([H])([H])c3c([H])c([H])c([H])c(C([H])([H])[H])c3N([H])C(=O)N3C([H])([H])C([H])([H])C([H])([H])C([H])(n4nc(-c5c([H])c([H])c(Oc6c([H])c([H])c(F)c([H])c6F)c([H])c5[H])c(C(=O)N([H])[H])c4N([H])[H])C3([H])[H])c([H])c([H])c2C1([H])[H]

>  <smiles>  (60) 
[H]c1c([H])c([H])c2c(c1[H])C([H])([H])C([H])([H])C([H])([H])C2([H])N([H])C(=O)C1([H])N(C(=O)C([H])(N([H])C(=O)C([H])(N([H])C([H])([H])[H])C([H])([H])[H])C(C([H])([H])[H])(C([H])([H])[H])C([H])([H])[H])C([H])([H])c2c([H])c(OC([H])([H])C([H])([H])OC([H])([H])C([H])([H])[N+]([H])([H])C([H])([H])c3c([H])c([H])c([H])c(C([H])([H])[H])c3N([H])C(=O)N3C([H])([H])C([H])([H])C([H])([H])C([H])(n4nc(-c5c([H])c([H])c(Oc6c([H])c([H])c(F)c([H])c6F)c([H])c5[H])c(C(=O)N([H])[H])c4N([H])[H])C3([H])[H])c([H])c([H])c2C1([H])[H]

$$$$
60:0:0
     RDKit          3D

 95103  0  0  1  0  0  0  0  0999 V2000
  -27.9540  -21.1570   20.9580 C   0  0  0  0  0  2  0  0  0  0  0  0
  -29.6410  -17.7540   20.3050 C   0  0  0  0  0  3  0  0  0  0  0  0
  -29.8400  -19.8940   22.1050 C   0  0  0  0  0  3  0  0  0  0  0  0
  -30.5480  -17.6620   21.3850 C   0  0  0  0  0  0  0  0  0  0  0  0
  -28.9070  -19.9660   21.0470 C   0  0  0  0  0  0  0  0  0  0  0  0
  -30.6580  -18.7590   22.2760 C   0  0  0  0  0  0  0  0  0  0  0  0
  -28.8270  -18.8890   20.1320 C   0  0  0  0  0  0  0  0  0  0  0  0
  -31.7730  -18.7380   23.5980 Cl  0  0  0  0  0  0  0  0  0  0  0  0
  -27.7300  -18.9200   18.7980 Cl  0  0  0  0  0  0  0  0  0  0  0  0
  -31.3990  -16.4030   21.5700 C   0  0  0  0  0  2  0  0  0  0  0  0
  -31.1360  -14.4070   20.0710 C   0  0  0  0  0  0  0  0  0  0  0  0
  -30.6960  -12.2930   18.8730 C   0  0  0  0  0  2  0  0  0  0  0  0
  -29.7120  -12.4900   17.7060 C   0  0  0  0  0  2  0  0  0  0  0  0
  -28.2550  -12.3910   18.1930 C   0  0  0  0  0  2  0  0  0  0  0  0
  -27.9830  -13.2780   19.4350 C   0  0  0  0  0  3  0  0  0  0  0  0
  -29.0630  -13.0420   20.5130 C   0  0  0  0  0  2  0  0  0  0  0  0
  -30.3900  -13.2840   19.9130 N   0  0  0  0  0  0  0  0  0  0  0  0
  -32.1110  -14.6860   19.3650 O   0  0  0  0  0  0  0  0  0  0  0  0
  -30.7630  -15.1740   21.1000 N   0  0  0  0  0  0  0  0  0  0  0  0
  -29.9800  -14.8370   21.6410 H   0  0  0  0  0  0  0  0  0  0  0  0
  -25.6390  -13.9810   20.2460 C   0  0  0  0  0  0  0  0  0  0  0  0
  -24.5570  -13.2490   20.6570 C   0  0  0  0  0  0  0  0  0  0  0  0
  -24.9620  -11.8800   20.6020 C   0  0  0  0  0  0  0  0  0  0  0  0
  -26.6370  -13.0600   19.9660 N   0  0  0  0  0  0  0  0  0  0  0  0
  -26.2350  -11.7910   20.2350 N   0  0  0  0  0  0  0  0  0  0  0  0
  -24.1970  -10.6460   20.8230 C   0  0  0  0  0  0  0  0  0  0  0  0
  -24.5940   -9.6910   21.7850 C   0  0  0  0  0  3  0  0  0  0  0  0
  -23.8340   -8.5200   21.9900 C   0  0  0  0  0  3  0  0  0  0  0  0
  -22.6590   -8.2970   21.2320 C   0  0  0  0  0  0  0  0  0  0  0  0
  -22.2800   -9.2390   20.2610 C   0  0  0  0  0  3  0  0  0  0  0  0
  -23.0410  -10.4020   20.0540 C   0  0  0  0  0  3  0  0  0  0  0  0
  -21.8710   -7.1770   21.3450 O   0  0  0  0  0  0  0  0  0  0  0  0
  -21.7400   -6.5060   22.5340 C   0  0  0  0  0  0  0  0  0  0  0  0
  -21.2700   -7.1440   23.7030 C   0  0  0  0  0  3  0  0  0  0  0  0
  -21.0860   -6.4000   24.8860 C   0  0  0  0  0  3  0  0  0  0  0  0
  -21.3580   -5.0190   24.8990 C   0  0  0  0  0  0  0  0  0  0  0  0
  -21.8210   -4.3800   23.7350 C   0  0  0  0  0  3  0  0  0  0  0  0
  -22.0080   -5.1220   22.5550 C   0  0  0  0  0  0  0  0  0  0  0  0
  -22.4340   -4.4980   21.4300 F   0  0  0  0  0  0  0  0  0  0  0  0
  -21.1730   -4.3020   26.0320 F   0  0  0  0  0  0  0  0  0  0  0  0
  -23.1920  -13.7780   20.9920 C   0  0  0  0  0  0  0  0  0  0  0  0
  -22.4820  -13.1180   21.9010 N   0  0  0  0  0  0  0  0  0  0  0  0
  -22.7650  -14.8130   20.4830 O   0  0  0  0  0  0  0  0  0  0  0  0
  -22.8400  -12.2810   22.3380 H   0  0  0  0  0  0  0  0  0  0  0  0
  -21.5680  -13.4570   22.1660 H   0  0  0  0  0  0  0  0  0  0  0  0
  -25.8530  -15.3440   20.0690 N   0  0  0  0  0  0  0  0  0  0  0  0
  -25.1220  -16.0320   20.2200 H   0  0  0  0  0  0  0  0  0  0  0  0
  -26.7140  -15.7500   19.7260 H   0  0  0  0  0  0  0  0  0  0  0  0
  -28.4790  -22.3190   20.2010 N   0  0  0  0  0  4  0  0  0  0  0  0
  -27.6660  -22.8480   19.9360 H   0  0  0  0  0  0  0  0  0  0  0  0
  -28.9170  -22.0050   19.3510 H   0  0  0  0  0  0  0  0  0  0  0  0
  -29.3860  -23.2230   20.9530 C   0  0  0  0  0  2  0  0  0  0  0  0
  -29.5340  -24.6260   20.3100 C   0  0  0  0  0  2  0  0  0  0  0  0
  -28.2090  -25.4090   20.2420 C   0  0  0  0  0  2  0  0  0  0  0  0
  -28.3790  -26.7950   19.9160 O   0  0  0  0  0  0  0  0  0  0  0  0
  -24.5850  -31.8560   23.1790 C   0  0  0  0  0  0  0  0  0  0  0  0
  -27.2110  -27.5310   19.9290 C   0  0  0  0  0  0  0  0  0  0  0  0
  -23.3670  -30.5040   21.5050 C   0  0  0  0  0  3  0  0  0  0  0  0
  -24.8100  -29.0250   20.0160 C   0  0  0  0  0  0  0  0  0  0  0  0
  -25.8890  -30.8810   21.2940 C   0  0  0  0  0  2  0  0  0  0  0  0
  -25.9730  -29.5330   20.6060 C   0  0  0  0  0  0  0  0  0  0  0  0
  -27.1780  -28.7960   20.5580 C   0  0  0  0  0  3  0  0  0  0  0  0
  -26.0280  -27.0420   19.3250 C   0  0  0  0  0  3  0  0  0  0  0  0
  -24.8320  -27.7780   19.3720 C   0  0  0  0  0  3  0  0  0  0  0  0
  -23.5650  -29.8740   20.1020 C   0  0  0  0  0  2  0  0  0  0  0  0
  -24.6320  -31.0930   22.0510 N   0  0  0  0  0  0  0  0  0  0  0  0
  -23.5090  -32.1060   23.7400 O   0  0  0  0  0  0  0  0  0  0  0  0
  -22.7290  -29.4480   22.4370 C   0  0  0  0  0  0  0  0  0  0  0  0
  -21.4080  -29.2470   22.2980 N   0  0  0  0  0  0  0  0  0  0  0  0
  -23.4200  -28.8150   23.2390 O   0  0  0  0  0  0  0  0  0  0  0  0
  -20.9120  -29.8130   21.6250 H   0  0  0  0  0  0  0  0  0  0  0  0
  -18.0600  -27.9560   22.7120 C   0  0  0  0  0  0  0  0  0  0  0  0
  -20.6030  -28.2780   23.0420 C   0  0  0  0  0  3  0  0  0  0  0  0
  -20.7550  -26.8560   22.4520 C   0  0  0  0  0  2  0  0  0  0  0  0
  -19.6820  -26.5150   21.4130 C   0  0  0  0  0  2  0  0  0  0  0  0
  -18.2850  -26.6180   22.0290 C   0  0  0  0  0  2  0  0  0  0  0  0
  -19.1490  -28.7420   23.1740 C   0  0  0  0  0  0  0  0  0  0  0  0
  -18.8850  -29.9960   23.7710 C   0  0  0  0  0  3  0  0  0  0  0  0
  -17.5640  -30.4610   23.9150 C   0  0  0  0  0  3  0  0  0  0  0  0
  -16.4900  -29.6700   23.4700 C   0  0  0  0  0  3  0  0  0  0  0  0
  -16.7380  -28.4210   22.8750 C   0  0  0  0  0  3  0  0  0  0  0  0
  -25.8760  -32.4690   23.8050 C   0  0  0  0  0  3  0  0  0  0  0  0
  -25.5640  -33.8510   24.1950 N   0  0  0  0  0  0  0  0  0  0  0  0
  -25.8890  -34.9340   23.4780 C   0  0  0  0  0  0  0  0  0  0  0  0
  -26.5570  -34.8760   22.4420 O   0  0  0  0  0  0  0  0  0  0  0  0
  -24.9700  -33.9690   25.0030 H   0  0  0  0  0  0  0  0  0  0  0  0
  -24.1590  -36.7360   23.1930 C   0  0  0  0  0  1  0  0  0  0  0  0
  -25.3970  -36.2990   23.9930 C   0  0  0  0  0  3  0  0  0  0  0  0
  -27.5280  -37.1510   24.8680 C   0  0  0  0  0  1  0  0  0  0  0  0
  -26.4270  -37.3580   23.9290 N   0  0  0  0  0  0  0  0  0  0  0  0
  -26.0200  -38.2710   24.1150 H   0  0  0  0  0  0  0  0  0  0  0  0
  -26.4180  -31.6490   25.0400 C   0  0  1  0  0  0  0  0  0  0  0  0
  -25.3440  -31.3590   26.1130 C   0  0  0  0  0  1  0  0  0  0  0  0
  -27.0020  -30.2940   24.5790 C   0  0  0  0  0  1  0  0  0  0  0  0
  -27.5750  -32.4230   25.7150 C   0  0  0  0  0  1  0  0  0  0  0  0
  1  5  1  0
  2  4  1  0
  3  6  1  0
  4 10  1  0
  4  6  2  0
  5  3  2  0
  6  8  1  0
  7  2  2  0
  7  5  1  0
  9  7  1  0
 11 19  1  0
 12 17  1  0
 13 14  1  0
 13 12  1  0
 15 14  1  0
 15 24  1  0
 15 16  1  0
 17 11  1  0
 17 16  1  0
 18 11  2  0
 19 10  1  0
 19 20  1  0
 21 22  2  0
 22 41  1  0
 23 22  1  0
 23 26  1  0
 24 25  1  0
 24 21  1  0
 25 23  2  0
 26 27  1  0
 27 28  2  0
 29 32  1  0
 29 28  1  0
 30 29  2  0
 31 30  1  0
 31 26  2  0
 32 33  1  0
 33 38  2  0
 33 34  1  0
 34 35  2  0
 35 36  1  0
 36 40  1  0
 37 36  2  0
 38 37  1  0
 39 38  1  0
 41 42  1  0
 42 45  1  0
 42 44  1  0
 43 41  2  0
 46 47  1  0
 46 21  1  0
 48 46  1  0
 49 52  1  0
 49  1  1  0
 50 49  1  0
 51 49  1  0
 53 52  1  0
 54 53  1  0
 55 57  1  0
 55 54  1  0
 56 67  2  0
 57 62  1  0
 58 66  1  0
 58 68  1  0
 59 65  1  0
 59 61  1  0
 60 66  1  0
 61 60  1  0
 62 61  2  0
 63 64  1  0
 63 57  2  0
 64 59  2  0
 65 58  1  0
 66 56  1  0
 68 70  2  0
 69 68  1  0
 71 69  1  0
 72 81  2  0
 72 77  1  0
 73 69  1  0
 73 77  1  0
 74 73  1  0
 75 76  1  0
 75 74  1  0
 76 72  1  0
 77 78  2  0
 78 79  1  0
 80 79  2  0
 81 80  1  0
 82 56  1  0
 82 83  1  0
 82 92  1  0
 83 86  1  0
 84 88  1  0
 84 83  1  0
 85 84  2  0
 88 87  1  0
 90 88  1  0
 90 91  1  0
 90 89  1  0
 92 95  1  1
 92 93  1  0
 94 92  1  0
M  ISO  4  11 100  19 100  54 101  55 101
M  END
>  <TORSDO>  (61) 
F 22

>  <SCORE>  (61) 
-11.575

>  <name>  (61) 
60

>  <ligand_id>  (61) 
60

>  <original_smiles>  (61) 
[H]c1c([H])c([H])c2c(c1[H])C([H])([H])C([H])([H])C([H])([H])C2([H])N([H])C(=O)C1([H])N(C(=O)C([H])(N([H])C(=O)C([H])(N([H])C([H])([H])[H])C([H])([H])[H])C(C([H])([H])[H])(C([H])([H])[H])C([H])([H])[H])C([H])([H])c2c([H])c(OC([H])([H])C([H])([H])C([H])([H])[N+]([H])([H])C([H])([H])c3c([H])c(Cl)c(C([H])([H])N([H])C(=O)N4C([H])([H])C([H])([H])C([H])([H])C([H])(n5nc(-c6c([H])c([H])c(Oc7c([H])c([H])c(F)c([H])c7F)c([H])c6[H])c(C(=O)N([H])[H])c5N([H])[H])C4([H])[H])c([H])c3Cl)c([H])c([H])c2C1([H])[H]

>  <smiles>  (61) 
[H]c1c([H])c([H])c2c(c1[H])C([H])([H])C([H])([H])C([H])([H])C2([H])N([H])C(=O)C1([H])N(C(=O)C([H])(N([H])C(=O)C([H])(N([H])C([H])([H])[H])C([H])([H])[H])C(C([H])([H])[H])(C([H])([H])[H])C([H])([H])[H])C([H])([H])c2c([H])c(OC([H])([H])C([H])([H])C([H])([H])[N+]([H])([H])C([H])([H])c3c([H])c(Cl)c(C([H])([H])N([H])C(=O)N4C([H])([H])C([H])([H])C([H])([H])C([H])(n5nc(-c6c([H])c([H])c(Oc7c([H])c([H])c(F)c([H])c7F)c([H])c6[H])c(C(=O)N([H])[H])c5N([H])[H])C4([H])[H])c([H])c3Cl)c([H])c([H])c2C1([H])[H]

$$$$
61:0:0
     RDKit          3D

103112  0  0  1  0  0  0  0  0999 V2000
  -31.7350  -17.5620   20.9270 C   0  0  0  0  0  3  0  0  0  0  0  0
  -32.0890  -18.9110   21.1410 C   0  0  0  0  0  0  0  0  0  0  0  0
  -31.0900  -19.9240   21.1320 C   0  0  0  0  0  0  0  0  0  0  0  0
  -29.7420  -19.5870   20.8090 C   0  0  0  0  0  0  0  0  0  0  0  0
  -30.4010  -17.1690   20.6790 C   0  0  0  0  0  0  0  0  0  0  0  0
  -29.4160  -18.2010   20.6000 C   0  0  0  0  0  0  0  0  0  0  0  0
  -31.4670  -21.3570   21.5200 C   0  0  0  0  0  1  0  0  0  0  0  0
  -27.7840  -17.7220   20.2830 Cl  0  0  0  0  0  0  0  0  0  0  0  0
  -30.7130  -14.7010   20.0800 C   0  0  0  0  0  0  0  0  0  0  0  0
  -30.3700  -12.5220   18.9580 C   0  0  0  0  0  2  0  0  0  0  0  0
  -29.3690  -12.7080   17.7970 C   0  0  0  0  0  2  0  0  0  0  0  0
  -27.9230  -12.5460   18.3030 C   0  0  0  0  0  2  0  0  0  0  0  0
  -27.6370  -13.3770   19.5840 C   0  0  0  0  0  3  0  0  0  0  0  0
  -28.7550  -13.1950   20.6370 C   0  0  0  0  0  2  0  0  0  0  0  0
  -30.0370  -13.5190   19.9920 N   0  0  0  0  0  0  0  0  0  0  0  0
  -31.8370  -14.8280   19.5870 O   0  0  0  0  0  0  0  0  0  0  0  0
  -30.0160  -15.7710   20.5570 N   0  0  0  0  0  0  0  0  0  0  0  0
  -29.0600  -15.5720   20.8060 H   0  0  0  0  0  0  0  0  0  0  0  0
  -25.2850  -13.9460   20.4480 C   0  0  0  0  0  0  0  0  0  0  0  0
  -24.2400  -13.1600   20.8510 C   0  0  0  0  0  0  0  0  0  0  0  0
  -24.7020  -11.8120   20.7540 C   0  0  0  0  0  0  0  0  0  0  0  0
  -26.3180  -13.0780   20.1340 N   0  0  0  0  0  0  0  0  0  0  0  0
  -25.9750  -11.7870   20.3760 N   0  0  0  0  0  0  0  0  0  0  0  0
  -23.9880  -10.5430   20.9420 C   0  0  0  0  0  0  0  0  0  0  0  0
  -24.4550   -9.5580   21.8390 C   0  0  0  0  0  3  0  0  0  0  0  0
  -23.7390   -8.3540   22.0170 C   0  0  0  0  0  3  0  0  0  0  0  0
  -22.5430   -8.1280   21.2970 C   0  0  0  0  0  0  0  0  0  0  0  0
  -22.0930   -9.1020   20.3880 C   0  0  0  0  0  3  0  0  0  0  0  0
  -22.8100  -10.2970   20.2080 C   0  0  0  0  0  3  0  0  0  0  0  0
  -21.7950   -6.9780   21.3850 O   0  0  0  0  0  0  0  0  0  0  0  0
  -21.7710   -6.2220   22.5300 C   0  0  0  0  0  0  0  0  0  0  0  0
  -21.3580   -6.7590   23.7680 C   0  0  0  0  0  3  0  0  0  0  0  0
  -21.2820   -5.9280   24.9050 C   0  0  0  0  0  3  0  0  0  0  0  0
  -21.6100   -4.5630   24.8040 C   0  0  0  0  0  0  0  0  0  0  0  0
  -22.0170   -4.0260   23.5690 C   0  0  0  0  0  3  0  0  0  0  0  0
  -22.0940   -4.8530   22.4360 C   0  0  0  0  0  0  0  0  0  0  0  0
  -22.4660   -4.3270   21.2430 F   0  0  0  0  0  0  0  0  0  0  0  0
  -21.5310   -3.7630   25.8910 F   0  0  0  0  0  0  0  0  0  0  0  0
  -22.8610  -13.6270   21.2150 C   0  0  0  0  0  0  0  0  0  0  0  0
  -22.1870  -12.9110   22.1080 N   0  0  0  0  0  0  0  0  0  0  0  0
  -22.3900  -14.6620   20.7450 O   0  0  0  0  0  0  0  0  0  0  0  0
  -22.5820  -12.0720   22.5080 H   0  0  0  0  0  0  0  0  0  0  0  0
  -21.2640  -13.2040   22.3940 H   0  0  0  0  0  0  0  0  0  0  0  0
  -25.4330  -15.3210   20.3060 N   0  0  0  0  0  0  0  0  0  0  0  0
  -24.6710  -15.9630   20.4940 H   0  0  0  0  0  0  0  0  0  0  0  0
  -26.2780  -15.7920   20.0070 H   0  0  0  0  0  0  0  0  0  0  0  0
  -33.5610  -19.2210   21.4330 C   0  0  0  0  0  2  0  0  0  0  0  0
  -35.8450  -22.4950   19.0150 C   0  0  0  0  0  2  0  0  0  0  0  0
  -34.9310  -21.7870   18.0020 C   0  0  0  0  0  2  0  0  0  0  0  0
  -35.4910  -22.2310   20.4870 C   0  0  0  0  0  2  0  0  0  0  0  0
  -35.1070  -20.2570   18.0200 C   0  0  0  0  0  2  0  0  0  0  0  0
  -35.4410  -20.7430   20.8850 C   0  0  0  0  0  2  0  0  0  0  0  0
  -34.2490  -19.4960   19.0570 C   0  0  0  0  0  2  0  0  0  0  0  0
  -34.1810  -20.1110   20.4130 N   0  0  1  0  0  4  0  0  0  0  0  0
  -33.5350  -20.8780   20.3300 H   0  0  0  0  0  0  0  0  0  0  0  0
  -28.6450  -20.6990   20.8200 C   0  0  0  0  0  2  0  0  0  0  0  0
  -28.7770  -21.8140   19.8190 N   0  0  0  0  0  4  0  0  0  0  0  0
  -27.9900  -21.7090   19.2000 H   0  0  0  0  0  0  0  0  0  0  0  0
  -29.6020  -21.6670   19.2610 H   0  0  0  0  0  0  0  0  0  0  0  0
  -28.7590  -23.2310   20.3370 C   0  0  0  0  0  2  0  0  0  0  0  0
  -27.9530  -24.2620   19.4650 C   0  0  0  0  0  2  0  0  0  0  0  0
  -28.6730  -25.5740   18.9880 C   0  0  0  0  0  2  0  0  0  0  0  0
  -28.4990  -26.7960   19.7530 O   0  0  0  0  0  0  0  0  0  0  0  0
  -24.4720  -31.6770   23.0490 C   0  0  0  0  0  0  0  0  0  0  0  0
  -27.3010  -27.4990   19.7270 C   0  0  0  0  0  0  0  0  0  0  0  0
  -23.3330  -30.3290   21.3180 C   0  0  0  0  0  3  0  0  0  0  0  0
  -24.8530  -28.9410   19.8040 C   0  0  0  0  0  0  0  0  0  0  0  0
  -25.8460  -30.7910   21.1600 C   0  0  0  0  0  2  0  0  0  0  0  0
  -25.9870  -29.4620   20.4380 C   0  0  0  0  0  0  0  0  0  0  0  0
  -27.2090  -28.7460   20.4000 C   0  0  0  0  0  3  0  0  0  0  0  0
  -26.1450  -27.0090   19.0770 C   0  0  0  0  0  3  0  0  0  0  0  0
  -24.9290  -27.7180   19.1190 C   0  0  0  0  0  3  0  0  0  0  0  0
  -23.5740  -29.7450   19.9000 C   0  0  0  0  0  2  0  0  0  0  0  0
  -24.5690  -30.9460   21.9010 N   0  0  0  0  0  0  0  0  0  0  0  0
  -23.3780  -31.8700   23.5960 O   0  0  0  0  0  0  0  0  0  0  0  0
  -22.7170  -29.2280   22.2110 C   0  0  0  0  0  0  0  0  0  0  0  0
  -21.3930  -29.0340   22.0990 N   0  0  0  0  0  0  0  0  0  0  0  0
  -23.4280  -28.5540   22.9610 O   0  0  0  0  0  0  0  0  0  0  0  0
  -20.8790  -29.6300   21.4660 H   0  0  0  0  0  0  0  0  0  0  0  0
  -18.0450  -27.7670   22.6020 C   0  0  0  0  0  0  0  0  0  0  0  0
  -20.6090  -28.0230   22.8100 C   0  0  0  0  0  3  0  0  0  0  0  0
  -20.7020  -26.6500   22.1050 C   0  0  0  0  0  2  0  0  0  0  0  0
  -19.5670  -26.4070   21.1060 C   0  0  0  0  0  2  0  0  0  0  0  0
  -18.2070  -26.4850   21.8040 C   0  0  0  0  0  2  0  0  0  0  0  0
  -19.1730  -28.4980   23.0610 C   0  0  0  0  0  0  0  0  0  0  0  0
  -18.9670  -29.7030   23.7660 C   0  0  0  0  0  3  0  0  0  0  0  0
  -17.6670  -30.1760   24.0220 C   0  0  0  0  0  3  0  0  0  0  0  0
  -16.5540  -29.4390   23.5810 C   0  0  0  0  0  3  0  0  0  0  0  0
  -16.7440  -28.2380   22.8750 C   0  0  0  0  0  3  0  0  0  0  0  0
  -25.7270  -32.3230   23.7150 C   0  0  0  0  0  3  0  0  0  0  0  0
  -25.3780  -33.7060   24.0740 N   0  0  0  0  0  0  0  0  0  0  0  0
  -25.6940  -34.7830   23.3440 C   0  0  0  0  0  0  0  0  0  0  0  0
  -26.3870  -34.7230   22.3240 O   0  0  0  0  0  0  0  0  0  0  0  0
  -24.7690  -33.8270   24.8700 H   0  0  0  0  0  0  0  0  0  0  0  0
  -23.9220  -36.5330   23.0070 C   0  0  0  0  0  1  0  0  0  0  0  0
  -25.1650  -36.1470   23.8250 C   0  0  0  0  0  3  0  0  0  0  0  0
  -27.2620  -37.0760   24.7020 C   0  0  0  0  0  1  0  0  0  0  0  0
  -26.1690  -37.2320   23.7450 N   0  0  0  0  0  0  0  0  0  0  0  0
  -25.7350  -38.1370   23.9030 H   0  0  0  0  0  0  0  0  0  0  0  0
  -26.2340  -31.5310   24.9840 C   0  0  1  0  0  0  0  0  0  0  0  0
  -25.1250  -31.2500   26.0250 C   0  0  0  0  0  1  0  0  0  0  0  0
  -26.8510  -30.1760   24.5690 C   0  0  0  0  0  1  0  0  0  0  0  0
  -27.3580  -32.3300   25.6870 C   0  0  0  0  0  1  0  0  0  0  0  0
  1  2  1  0
  2 47  1  0
  3  2  2  0
  3  7  1  0
  4 56  1  0
  4  3  1  0
  5  1  2  0
  6  5  1  0
  6  4  2  0
  8  6  1  0
  9 17  1  0
 10 15  1  0
 11 12  1  0
 11 10  1  0
 13 12  1  0
 13 22  1  0
 13 14  1  0
 15  9  1  0
 15 14  1  0
 16  9  2  0
 17  5  1  0
 17 18  1  0
 19 20  2  0
 20 39  1  0
 21 20  1  0
 21 24  1  0
 22 23  1  0
 22 19  1  0
 23 21  2  0
 24 25  1  0
 25 26  2  0
 27 30  1  0
 27 26  1  0
 28 27  2  0
 29 28  1  0
 29 24  2  0
 30 31  1  0
 31 32  1  0
 32 33  2  0
 34 33  1  0
 34 38  1  0
 35 34  2  0
 36 31  2  0
 36 35  1  0
 37 36  1  0
 39 40  1  0
 40 43  1  0
 40 42  1  0
 41 39  2  0
 44 19  1  0
 44 45  1  0
 46 44  1  0
 48 50  1  0
 49 51  1  0
 49 48  1  0
 50 52  1  0
 51 53  1  0
 53 54  1  0
 54 52  1  0
 54 47  1  0
 54 55  1  6
 57 60  1  0
 57 56  1  0
 58 57  1  0
 59 57  1  0
 61 60  1  0
 62 61  1  0
 62 63  1  0
 64 75  2  0
 65 63  1  0
 65 70  1  0
 66 74  1  0
 66 76  1  0
 67 73  1  0
 67 69  1  0
 68 74  1  0
 69 68  1  0
 70 69  2  0
 71 72  1  0
 71 65  2  0
 72 67  2  0
 73 66  1  0
 74 64  1  0
 76 78  2  0
 77 76  1  0
 79 77  1  0
 80 89  2  0
 80 85  1  0
 81 77  1  0
 81 85  1  0
 82 81  1  0
 83 84  1  0
 83 82  1  0
 84 80  1  0
 85 86  2  0
 86 87  1  0
 88 87  2  0
 89 88  1  0
 90 64  1  0
 90 91  1  0
 90100  1  0
 91 94  1  0
 92 96  1  0
 92 91  1  0
 93 92  2  0
 96 95  1  0
 98 96  1  0
 98 99  1  0
 98 97  1  0
100103  1  1
100101  1  0
102100  1  0
M  ISO  4   9 100  17 100  62 101  63 101
M  END
>  <TORSDO>  (62) 
F 23

>  <SCORE>  (62) 
-12.979

>  <name>  (62) 
61

>  <ligand_id>  (62) 
61

>  <original_smiles>  (62) 
[H]c1c([H])c([H])c2c(c1[H])C([H])([H])C([H])([H])C([H])([H])C2([H])N([H])C(=O)C1([H])N(C(=O)C([H])(N([H])C(=O)C([H])(N([H])C([H])([H])[H])C([H])([H])[H])C(C([H])([H])[H])(C([H])([H])[H])C([H])([H])[H])C([H])([H])c2c([H])c(OC([H])([H])C([H])([H])C([H])([H])[N+]([H])([H])C([H])([H])c3c(Cl)c(N([H])C(=O)N4C([H])([H])C([H])([H])C([H])([H])C([H])(n5nc(-c6c([H])c([H])c(Oc7c([H])c([H])c(F)c([H])c7F)c([H])c6[H])c(C(=O)N([H])[H])c5N([H])[H])C4([H])[H])c([H])c(C([H])([H])[N+]4([H])C([H])([H])C([H])([H])C([H])([H])C([H])([H])C([H])([H])C4([H])[H])c3C([H])([H])[H])c([H])c([H])c2C1([H])[H]

>  <smiles>  (62) 
[H]c1c([H])c([H])c2c(c1[H])C([H])([H])C([H])([H])C([H])([H])C2([H])N([H])C(=O)C1([H])N(C(=O)C([H])(N([H])C(=O)C([H])(N([H])C([H])([H])[H])C([H])([H])[H])C(C([H])([H])[H])(C([H])([H])[H])C([H])([H])[H])C([H])([H])c2c([H])c(OC([H])([H])C([H])([H])C([H])([H])[N+]([H])([H])C([H])([H])c3c(Cl)c(N([H])C(=O)N4C([H])([H])C([H])([H])C([H])([H])C([H])(n5nc(-c6c([H])c([H])c(Oc7c([H])c([H])c(F)c([H])c7F)c([H])c6[H])c(C(=O)N([H])[H])c5N([H])[H])C4([H])[H])c([H])c(C([H])([H])[N+]4([H])C([H])([H])C([H])([H])C([H])([H])C([H])([H])C([H])([H])C4([H])[H])c3C([H])([H])[H])c([H])c([H])c2C1([H])[H]

$$$$
62:0:0
     RDKit          3D

 94102  0  0  1  0  0  0  0  0999 V2000
  -28.5580  -19.4800   20.6410 C   0  0  0  0  0  3  0  0  0  0  0  0
  -30.7890  -19.1720   18.9780 C   0  0  0  0  0  3  0  0  0  0  0  0
  -29.2940  -18.2680   20.6710 C   0  0  0  0  0  0  0  0  0  0  0  0
  -28.9360  -20.5550   19.8010 C   0  0  0  0  0  0  0  0  0  0  0  0
  -30.4490  -18.1210   19.8610 C   0  0  0  0  0  0  0  0  0  0  0  0
  -30.0460  -20.3720   18.9410 C   0  0  0  0  0  0  0  0  0  0  0  0
  -28.8480  -17.1540   21.6050 C   0  0  0  0  0  1  0  0  0  0  0  0
  -30.5470  -21.6320   17.8700 Cl  0  0  0  0  0  0  0  0  0  0  0  0
  -31.4070  -16.9290   19.9940 C   0  0  0  0  0  2  0  0  0  0  0  0
  -31.4090  -14.4970   19.4040 C   0  0  0  0  0  0  0  0  0  0  0  0
  -30.9790  -12.1940   18.6300 C   0  0  0  0  0  2  0  0  0  0  0  0
  -29.9460  -12.2210   17.4860 C   0  0  0  0  0  2  0  0  0  0  0  0
  -28.5080  -12.2100   18.0400 C   0  0  0  0  0  2  0  0  0  0  0  0
  -28.2900  -13.2540   19.1680 C   0  0  0  0  0  3  0  0  0  0  0  0
  -29.4220  -13.1720   20.2150 C   0  0  0  0  0  2  0  0  0  0  0  0
  -30.7000  -13.3420   19.5050 N   0  0  0  0  0  0  0  0  0  0  0  0
  -32.4890  -14.5670   18.8100 O   0  0  0  0  0  0  0  0  0  0  0  0
  -30.8110  -15.5900   19.9100 N   0  0  0  0  0  0  0  0  0  0  0  0
  -29.9080  -15.4560   20.3390 H   0  0  0  0  0  0  0  0  0  0  0  0
  -26.0700  -14.0920   20.1630 C   0  0  0  0  0  0  0  0  0  0  0  0
  -24.9610  -13.4260   20.6130 C   0  0  0  0  0  0  0  0  0  0  0  0
  -25.2540  -12.0340   20.4750 C   0  0  0  0  0  0  0  0  0  0  0  0
  -26.9730  -13.1110   19.7830 N   0  0  0  0  0  0  0  0  0  0  0  0
  -26.4910  -11.8660   20.0260 N   0  0  0  0  0  0  0  0  0  0  0  0
  -24.4080  -10.8530   20.6910 C   0  0  0  0  0  0  0  0  0  0  0  0
  -24.7020   -9.9090   21.6990 C   0  0  0  0  0  3  0  0  0  0  0  0
  -23.8640   -8.7910   21.9000 C   0  0  0  0  0  3  0  0  0  0  0  0
  -22.7180   -8.6090   21.0890 C   0  0  0  0  0  0  0  0  0  0  0  0
  -22.4430   -9.5390   20.0710 C   0  0  0  0  0  3  0  0  0  0  0  0
  -23.2810  -10.6480   19.8690 C   0  0  0  0  0  3  0  0  0  0  0  0
  -21.8610   -7.5400   21.1930 O   0  0  0  0  0  0  0  0  0  0  0  0
  -21.5140   -7.0110   22.4100 C   0  0  0  0  0  0  0  0  0  0  0  0
  -20.8650   -7.7820   23.4000 C   0  0  0  0  0  3  0  0  0  0  0  0
  -20.4650   -7.1800   24.6100 C   0  0  0  0  0  3  0  0  0  0  0  0
  -20.7030   -5.8100   24.8290 C   0  0  0  0  0  0  0  0  0  0  0  0
  -21.3450   -5.0400   23.8430 C   0  0  0  0  0  3  0  0  0  0  0  0
  -21.7470   -5.6390   22.6360 C   0  0  0  0  0  0  0  0  0  0  0  0
  -22.3450   -4.8880   21.6810 F   0  0  0  0  0  0  0  0  0  0  0  0
  -20.3130   -5.2300   25.9890 F   0  0  0  0  0  0  0  0  0  0  0  0
  -23.6660  -14.0410   21.0600 C   0  0  0  0  0  0  0  0  0  0  0  0
  -22.9600  -13.3890   21.9760 N   0  0  0  0  0  0  0  0  0  0  0  0
  -23.2960  -15.1330   20.6300 O   0  0  0  0  0  0  0  0  0  0  0  0
  -23.2730  -12.5020   22.3430 H   0  0  0  0  0  0  0  0  0  0  0  0
  -22.0930  -13.7810   22.3160 H   0  0  0  0  0  0  0  0  0  0  0  0
  -26.3800  -15.4420   20.0290 N   0  0  0  0  0  0  0  0  0  0  0  0
  -25.7230  -16.1770   20.2640 H   0  0  0  0  0  0  0  0  0  0  0  0
  -27.2440  -15.7960   19.6410 H   0  0  0  0  0  0  0  0  0  0  0  0
  -28.1440  -21.8770   19.8220 C   0  0  0  0  0  2  0  0  0  0  0  0
  -28.9480  -23.0180   20.3360 N   0  0  0  0  0  4  0  0  0  0  0  0
  -29.7740  -23.1050   19.7630 H   0  0  0  0  0  0  0  0  0  0  0  0
  -29.2600  -22.7510   21.2560 H   0  0  0  0  0  0  0  0  0  0  0  0
  -28.2630  -24.3440   20.4710 C   0  0  0  0  0  2  0  0  0  0  0  0
  -28.6890  -25.3960   19.4080 C   0  0  0  0  0  2  0  0  0  0  0  0
  -28.5520  -26.7620   19.8520 O   0  0  0  0  0  0  0  0  0  0  0  0
  -24.4970  -31.6610   23.0470 C   0  0  0  0  0  0  0  0  0  0  0  0
  -27.3240  -27.4010   19.8540 C   0  0  0  0  0  0  0  0  0  0  0  0
  -23.3460  -30.2410   21.3830 C   0  0  0  0  0  3  0  0  0  0  0  0
  -24.8590  -28.8010   19.9160 C   0  0  0  0  0  0  0  0  0  0  0  0
  -25.8520  -30.7190   21.1760 C   0  0  0  0  0  2  0  0  0  0  0  0
  -25.9960  -29.3660   20.5040 C   0  0  0  0  0  0  0  0  0  0  0  0
  -27.2290  -28.6750   20.4660 C   0  0  0  0  0  3  0  0  0  0  0  0
  -26.1630  -26.8470   19.2700 C   0  0  0  0  0  3  0  0  0  0  0  0
  -24.9380  -27.5420   19.2980 C   0  0  0  0  0  3  0  0  0  0  0  0
  -23.5760  -29.6000   19.9880 C   0  0  0  0  0  2  0  0  0  0  0  0
  -24.5830  -30.8890   21.9270 N   0  0  0  0  0  0  0  0  0  0  0  0
  -23.4070  -31.8690   23.6000 O   0  0  0  0  0  0  0  0  0  0  0  0
  -22.7530  -29.1680   22.3250 C   0  0  0  0  0  0  0  0  0  0  0  0
  -21.4450  -28.9030   22.1830 N   0  0  0  0  0  0  0  0  0  0  0  0
  -23.4690  -28.5740   23.1360 O   0  0  0  0  0  0  0  0  0  0  0  0
  -20.9260  -29.4390   21.5000 H   0  0  0  0  0  0  0  0  0  0  0  0
  -18.1430  -27.5070   22.6470 C   0  0  0  0  0  0  0  0  0  0  0  0
  -20.6820  -27.9040   22.9320 C   0  0  0  0  0  3  0  0  0  0  0  0
  -20.8670  -26.4920   22.3290 C   0  0  0  0  0  2  0  0  0  0  0  0
  -19.7890  -26.1270   21.3060 C   0  0  0  0  0  2  0  0  0  0  0  0
  -18.4000  -26.1830   21.9470 C   0  0  0  0  0  2  0  0  0  0  0  0
  -19.2170  -28.3240   23.0950 C   0  0  0  0  0  0  0  0  0  0  0  0
  -18.9280  -29.5620   23.7070 C   0  0  0  0  0  3  0  0  0  0  0  0
  -17.5960  -29.9850   23.8790 C   0  0  0  0  0  3  0  0  0  0  0  0
  -16.5380  -29.1670   23.4490 C   0  0  0  0  0  3  0  0  0  0  0  0
  -16.8110  -27.9310   22.8380 C   0  0  0  0  0  3  0  0  0  0  0  0
  -25.7550  -32.3400   23.6720 C   0  0  0  0  0  3  0  0  0  0  0  0
  -25.3880  -33.7180   24.0230 N   0  0  0  0  0  0  0  0  0  0  0  0
  -25.6740  -34.7950   23.2800 C   0  0  0  0  0  0  0  0  0  0  0  0
  -26.3490  -34.7370   22.2490 O   0  0  0  0  0  0  0  0  0  0  0  0
  -24.7950  -33.8360   24.8320 H   0  0  0  0  0  0  0  0  0  0  0  0
  -23.8730  -36.5150   22.9420 C   0  0  0  0  0  1  0  0  0  0  0  0
  -25.1250  -36.1530   23.7570 C   0  0  0  0  0  3  0  0  0  0  0  0
  -27.2080  -37.1200   24.6220 C   0  0  0  0  0  1  0  0  0  0  0  0
  -26.1100  -37.2530   23.6680 N   0  0  0  0  0  0  0  0  0  0  0  0
  -25.6620  -38.1510   23.8280 H   0  0  0  0  0  0  0  0  0  0  0  0
  -26.3120  -31.5740   24.9350 C   0  0  1  0  0  0  0  0  0  0  0  0
  -25.2310  -31.2420   25.9880 C   0  0  0  0  0  1  0  0  0  0  0  0
  -26.9860  -30.2480   24.5130 C   0  0  0  0  0  1  0  0  0  0  0  0
  -27.4050  -32.4250   25.6250 C   0  0  0  0  0  1  0  0  0  0  0  0
  1  3  1  0
  2  5  1  0
  3  7  1  0
  4 48  1  0
  4  1  2  0
  5  9  1  0
  5  3  2  0
  6  2  2  0
  6  4  1  0
  8  6  1  0
 10 16  1  0
 10 18  1  0
 11 16  1  0
 12 13  1  0
 12 11  1  0
 14 13  1  0
 14 23  1  0
 14 15  1  0
 16 15  1  0
 17 10  2  0
 18  9  1  0
 18 19  1  0
 20 21  2  0
 21 40  1  0
 22 21  1  0
 22 25  1  0
 23 24  1  0
 23 20  1  0
 24 22  2  0
 25 26  1  0
 26 27  2  0
 28 31  1  0
 28 27  1  0
 29 28  2  0
 30 29  1  0
 30 25  2  0
 31 32  1  0
 32 37  2  0
 32 33  1  0
 33 34  2  0
 34 35  1  0
 35 39  1  0
 36 35  2  0
 37 36  1  0
 38 37  1  0
 40 41  1  0
 41 44  1  0
 41 43  1  0
 42 40  2  0
 45 20  1  0
 45 46  1  0
 47 45  1  0
 48 49  1  0
 49 52  1  0
 49 51  1  0
 50 49  1  0
 53 54  1  0
 53 52  1  0
 54 56  1  0
 55 66  2  0
 56 61  1  0
 57 65  1  0
 57 67  1  0
 58 64  1  0
 58 60  1  0
 59 65  1  0
 60 59  1  0
 61 60  2  0
 62 63  1  0
 62 56  2  0
 63 58  2  0
 64 57  1  0
 65 55  1  0
 67 69  2  0
 68 67  1  0
 70 68  1  0
 71 80  2  0
 71 76  1  0
 72 68  1  0
 72 76  1  0
 73 72  1  0
 74 75  1  0
 74 73  1  0
 75 71  1  0
 76 77  2  0
 77 78  1  0
 79 78  2  0
 80 79  1  0
 81 55  1  0
 81 82  1  0
 81 91  1  0
 82 85  1  0
 83 87  1  0
 83 82  1  0
 84 83  2  0
 87 86  1  0
 89 87  1  0
 89 90  1  0
 89 88  1  0
 91 94  1  1
 91 92  1  0
 93 91  1  0
M  ISO  4  10 100  18 100  53 101  54 101
M  END
>  <TORSDO>  (63) 
F 21

>  <SCORE>  (63) 
-10.639

>  <name>  (63) 
62

>  <ligand_id>  (63) 
62

>  <original_smiles>  (63) 
[H]c1c([H])c([H])c2c(c1[H])C([H])([H])C([H])([H])C([H])([H])C2([H])N([H])C(=O)C1([H])N(C(=O)C([H])(N([H])C(=O)C([H])(N([H])C([H])([H])[H])C([H])([H])[H])C(C([H])([H])[H])(C([H])([H])[H])C([H])([H])[H])C([H])([H])c2c([H])c(OC([H])([H])C([H])([H])[N+]([H])([H])C([H])([H])c3c([H])c(C([H])([H])[H])c(C([H])([H])N([H])C(=O)N4C([H])([H])C([H])([H])C([H])([H])C([H])(n5nc(-c6c([H])c([H])c(Oc7c([H])c([H])c(F)c([H])c7F)c([H])c6[H])c(C(=O)N([H])[H])c5N([H])[H])C4([H])[H])c([H])c3Cl)c([H])c([H])c2C1([H])[H]

>  <smiles>  (63) 
[H]c1c([H])c([H])c2c(c1[H])C([H])([H])C([H])([H])C([H])([H])C2([H])N([H])C(=O)C1([H])N(C(=O)C([H])(N([H])C(=O)C([H])(N([H])C([H])([H])[H])C([H])([H])[H])C(C([H])([H])[H])(C([H])([H])[H])C([H])([H])[H])C([H])([H])c2c([H])c(OC([H])([H])C([H])([H])[N+]([H])([H])C([H])([H])c3c([H])c(C([H])([H])[H])c(C([H])([H])N([H])C(=O)N4C([H])([H])C([H])([H])C([H])([H])C([H])(n5nc(-c6c([H])c([H])c(Oc7c([H])c([H])c(F)c([H])c7F)c([H])c6[H])c(C(=O)N([H])[H])c5N([H])[H])C4([H])[H])c([H])c3Cl)c([H])c([H])c2C1([H])[H]

$$$$
63:0:0
     RDKit          3D

 95103  0  0  1  0  0  0  0  0999 V2000
  -29.1390  -20.8470   18.7210 C   0  0  0  0  0  2  0  0  0  0  0  0
  -28.3160  -16.8680   20.2940 C   0  0  0  0  0  3  0  0  0  0  0  0
  -27.2720  -17.6700   19.8040 C   0  0  0  0  0  3  0  0  0  0  0  0
  -29.6390  -17.3620   20.3340 C   0  0  0  0  0  0  0  0  0  0  0  0
  -28.8510  -19.4760   19.3400 C   0  0  0  0  0  0  0  0  0  0  0  0
  -27.5330  -18.9610   19.3160 C   0  0  0  0  0  0  0  0  0  0  0  0
  -29.9010  -18.6840   19.8830 C   0  0  0  0  0  0  0  0  0  0  0  0
  -26.2110  -19.8810   18.6850 Cl  0  0  0  0  0  0  0  0  0  0  0  0
  -31.5010  -19.3440   19.9860 Cl  0  0  0  0  0  0  0  0  0  0  0  0
  -30.7360  -16.4450   20.8850 C   0  0  0  0  0  2  0  0  0  0  0  0
  -30.9230  -14.0600   20.1450 C   0  0  0  0  0  0  0  0  0  0  0  0
  -30.6210  -11.7860   19.2400 C   0  0  0  0  0  2  0  0  0  0  0  0
  -29.6220  -11.7900   18.0660 C   0  0  0  0  0  2  0  0  0  0  0  0
  -28.1650  -11.7060   18.5660 C   0  0  0  0  0  2  0  0  0  0  0  0
  -27.8630  -12.7070   19.7090 C   0  0  0  0  0  3  0  0  0  0  0  0
  -28.9560  -12.6280   20.8000 C   0  0  0  0  0  2  0  0  0  0  0  0
  -30.2600  -12.8770   20.1570 N   0  0  0  0  0  0  0  0  0  0  0  0
  -31.9530  -14.2530   19.4910 O   0  0  0  0  0  0  0  0  0  0  0  0
  -30.3490  -15.0350   20.8630 N   0  0  0  0  0  0  0  0  0  0  0  0
  -29.5140  -14.7840   21.3690 H   0  0  0  0  0  0  0  0  0  0  0  0
  -25.5260  -13.4140   20.5330 C   0  0  0  0  0  0  0  0  0  0  0  0
  -24.4460  -12.6840   20.9530 C   0  0  0  0  0  0  0  0  0  0  0  0
  -24.8500  -11.3150   20.8910 C   0  0  0  0  0  0  0  0  0  0  0  0
  -26.5230  -12.4930   20.2520 N   0  0  0  0  0  0  0  0  0  0  0  0
  -26.1190  -11.2240   20.5190 N   0  0  0  0  0  0  0  0  0  0  0  0
  -24.0820  -10.0810   21.1080 C   0  0  0  0  0  0  0  0  0  0  0  0
  -24.5020   -9.1100   22.0440 C   0  0  0  0  0  3  0  0  0  0  0  0
  -23.7390   -7.9420   22.2510 C   0  0  0  0  0  3  0  0  0  0  0  0
  -22.5410   -7.7380   21.5270 C   0  0  0  0  0  0  0  0  0  0  0  0
  -22.1410   -8.6980   20.5800 C   0  0  0  0  0  3  0  0  0  0  0  0
  -22.9050   -9.8580   20.3710 C   0  0  0  0  0  3  0  0  0  0  0  0
  -21.7480   -6.6240   21.6440 O   0  0  0  0  0  0  0  0  0  0  0  0
  -21.6660   -5.9190   22.8170 C   0  0  0  0  0  0  0  0  0  0  0  0
  -21.2320   -6.5180   24.0200 C   0  0  0  0  0  3  0  0  0  0  0  0
  -21.0960   -5.7390   25.1860 C   0  0  0  0  0  3  0  0  0  0  0  0
  -21.3860   -4.3620   25.1510 C   0  0  0  0  0  0  0  0  0  0  0  0
  -21.8130   -3.7630   23.9540 C   0  0  0  0  0  3  0  0  0  0  0  0
  -21.9490   -4.5380   22.7900 C   0  0  0  0  0  0  0  0  0  0  0  0
  -22.3390   -3.9520   21.6350 F   0  0  0  0  0  0  0  0  0  0  0  0
  -21.2490   -3.6120   26.2690 F   0  0  0  0  0  0  0  0  0  0  0  0
  -23.0880  -13.2170   21.3040 C   0  0  0  0  0  0  0  0  0  0  0  0
  -22.3870  -12.5540   22.2190 N   0  0  0  0  0  0  0  0  0  0  0  0
  -22.6610  -14.2570   20.8070 O   0  0  0  0  0  0  0  0  0  0  0  0
  -22.7480  -11.7130   22.6450 H   0  0  0  0  0  0  0  0  0  0  0  0
  -21.4800  -12.8960   22.4970 H   0  0  0  0  0  0  0  0  0  0  0  0
  -25.7370  -14.7780   20.3580 N   0  0  0  0  0  0  0  0  0  0  0  0
  -25.0250  -15.4680   20.5690 H   0  0  0  0  0  0  0  0  0  0  0  0
  -26.6000  -15.1870   20.0220 H   0  0  0  0  0  0  0  0  0  0  0  0
  -29.2280  -21.9460   19.7100 N   0  0  0  0  0  4  0  0  0  0  0  0
  -30.1390  -21.9170   20.1380 H   0  0  0  0  0  0  0  0  0  0  0  0
  -28.5430  -21.8010   20.4350 H   0  0  0  0  0  0  0  0  0  0  0  0
  -29.0090  -23.2890   19.1200 C   0  0  0  0  0  2  0  0  0  0  0  0
  -29.5130  -24.4220   20.0330 C   0  0  0  0  0  2  0  0  0  0  0  0
  -29.1730  -25.8320   19.5060 C   0  0  0  0  0  2  0  0  0  0  0  0
  -28.6780  -26.6300   20.5830 O   0  0  0  0  0  0  0  0  0  0  0  0
  -24.6400  -31.8080   23.2580 C   0  0  0  0  0  0  0  0  0  0  0  0
  -27.4650  -27.2780   20.4790 C   0  0  0  0  0  0  0  0  0  0  0  0
  -23.5160  -30.3180   21.6370 C   0  0  0  0  0  3  0  0  0  0  0  0
  -25.0400  -28.7300   20.3470 C   0  0  0  0  0  0  0  0  0  0  0  0
  -26.0410  -30.6980   21.5210 C   0  0  0  0  0  2  0  0  0  0  0  0
  -26.1630  -29.3000   20.9540 C   0  0  0  0  0  0  0  0  0  0  0  0
  -27.3710  -28.5760   21.0260 C   0  0  0  0  0  3  0  0  0  0  0  0
  -26.3120  -26.7040   19.8890 C   0  0  0  0  0  3  0  0  0  0  0  0
  -25.1060  -27.4280   19.8160 C   0  0  0  0  0  3  0  0  0  0  0  0
  -23.7830  -29.5700   20.3030 C   0  0  0  0  0  2  0  0  0  0  0  0
  -24.7490  -30.9590   22.1970 N   0  0  0  0  0  0  0  0  0  0  0  0
  -23.5350  -32.0920   23.7400 O   0  0  0  0  0  0  0  0  0  0  0  0
  -22.8330  -29.3380   22.6170 C   0  0  0  0  0  0  0  0  0  0  0  0
  -21.5130  -29.1530   22.4550 N   0  0  0  0  0  0  0  0  0  0  0  0
  -23.4890  -28.7450   23.4780 O   0  0  0  0  0  0  0  0  0  0  0  0
  -21.0480  -29.6830   21.7310 H   0  0  0  0  0  0  0  0  0  0  0  0
  -18.1120  -28.0300   22.9270 C   0  0  0  0  0  0  0  0  0  0  0  0
  -20.6700  -28.2480   23.2330 C   0  0  0  0  0  3  0  0  0  0  0  0
  -20.7530  -26.8020   22.6900 C   0  0  0  0  0  2  0  0  0  0  0  0
  -19.6610  -26.4760   21.6670 C   0  0  0  0  0  2  0  0  0  0  0  0
  -18.2730  -26.6620   22.2870 C   0  0  0  0  0  2  0  0  0  0  0  0
  -19.2380  -28.7820   23.3560 C   0  0  0  0  0  0  0  0  0  0  0  0
  -19.0330  -30.0630   23.9130 C   0  0  0  0  0  3  0  0  0  0  0  0
  -17.7340  -30.5910   24.0450 C   0  0  0  0  0  3  0  0  0  0  0  0
  -16.6230  -29.8360   23.6320 C   0  0  0  0  0  3  0  0  0  0  0  0
  -16.8130  -28.5580   23.0790 C   0  0  0  0  0  3  0  0  0  0  0  0
  -25.8930  -32.4800   23.9020 C   0  0  0  0  0  3  0  0  0  0  0  0
  -25.5670  -33.8930   24.1390 N   0  0  0  0  0  0  0  0  0  0  0  0
  -25.9190  -34.9010   23.3290 C   0  0  0  0  0  0  0  0  0  0  0  0
  -26.6230  -34.7400   22.3280 O   0  0  0  0  0  0  0  0  0  0  0  0
  -24.9480  -34.0900   24.9120 H   0  0  0  0  0  0  0  0  0  0  0  0
  -24.1890  -36.6500   22.8110 C   0  0  0  0  0  1  0  0  0  0  0  0
  -25.4080  -36.3110   23.6830 C   0  0  0  0  0  3  0  0  0  0  0  0
  -27.5120  -37.2620   24.5190 C   0  0  0  0  0  1  0  0  0  0  0  0
  -26.4370  -37.3630   23.5350 N   0  0  0  0  0  0  0  0  0  0  0  0
  -26.0210  -38.2870   23.6140 H   0  0  0  0  0  0  0  0  0  0  0  0
  -26.3530  -31.7840   25.2420 C   0  0  1  0  0  0  0  0  0  0  0  0
  -25.2110  -31.5800   26.2650 C   0  0  0  0  0  1  0  0  0  0  0  0
  -26.9730  -30.4000   24.9450 C   0  0  0  0  0  1  0  0  0  0  0  0
  -27.4600  -32.6280   25.9170 C   0  0  0  0  0  1  0  0  0  0  0  0
  1  5  1  0
  1 49  1  0
  2  4  1  0
  3  2  2  0
  4 10  1  0
  5  7  1  0
  6  5  2  0
  6  3  1  0
  7  9  1  0
  7  4  2  0
  8  6  1  0
 11 17  1  0
 11 19  1  0
 12 17  1  0
 13 14  1  0
 13 12  1  0
 15 14  1  0
 15 24  1  0
 15 16  1  0
 17 16  1  0
 18 11  2  0
 19 10  1  0
 19 20  1  0
 21 22  2  0
 22 41  1  0
 23 22  1  0
 23 26  1  0
 24 25  1  0
 24 21  1  0
 25 23  2  0
 26 27  1  0
 27 28  2  0
 29 32  1  0
 29 28  1  0
 30 29  2  0
 31 30  1  0
 31 26  2  0
 32 33  1  0
 33 34  1  0
 34 35  2  0
 36 35  1  0
 36 40  1  0
 37 36  2  0
 38 33  2  0
 38 37  1  0
 39 38  1  0
 41 42  1  0
 42 45  1  0
 42 44  1  0
 43 41  2  0
 46 21  1  0
 46 47  1  0
 48 46  1  0
 49 50  1  0
 49 51  1  0
 52 49  1  0
 52 53  1  0
 54 53  1  0
 54 55  1  0
 56 67  2  0
 57 55  1  0
 57 62  1  0
 58 66  1  0
 58 68  1  0
 59 61  1  0
 60 66  1  0
 61 62  2  0
 61 60  1  0
 63 57  2  0
 64 63  1  0
 64 59  2  0
 65 59  1  0
 65 58  1  0
 66 56  1  0
 68 70  2  0
 69 68  1  0
 71 69  1  0
 72 81  2  0
 72 77  1  0
 73 69  1  0
 73 77  1  0
 74 73  1  0
 75 76  1  0
 75 74  1  0
 76 72  1  0
 77 78  2  0
 78 79  1  0
 80 79  2  0
 81 80  1  0
 82 56  1  0
 82 83  1  0
 82 92  1  0
 83 86  1  0
 84 88  1  0
 84 83  1  0
 85 84  2  0
 88 87  1  0
 90 91  1  0
 90 88  1  0
 90 89  1  0
 92 95  1  1
 92 93  1  0
 94 92  1  0
M  ISO  4  11 100  19 100  54 101  55 101
M  END
>  <TORSDO>  (64) 
F 22

>  <SCORE>  (64) 
-12.640

>  <name>  (64) 
63

>  <ligand_id>  (64) 
63

>  <original_smiles>  (64) 
[H]c1c([H])c([H])c2c(c1[H])C([H])([H])C([H])([H])C([H])([H])C2([H])N([H])C(=O)C1([H])N(C(=O)C([H])(N([H])C(=O)C([H])(N([H])C([H])([H])[H])C([H])([H])[H])C(C([H])([H])[H])(C([H])([H])[H])C([H])([H])[H])C([H])([H])c2c([H])c(OC([H])([H])C([H])([H])C([H])([H])[N+]([H])([H])C([H])([H])c3c(Cl)c([H])c([H])c(C([H])([H])N([H])C(=O)N4C([H])([H])C([H])([H])C([H])([H])C([H])(n5nc(-c6c([H])c([H])c(Oc7c([H])c([H])c(F)c([H])c7F)c([H])c6[H])c(C(=O)N([H])[H])c5N([H])[H])C4([H])[H])c3Cl)c([H])c([H])c2C1([H])[H]

>  <smiles>  (64) 
[H]c1c([H])c([H])c2c(c1[H])C([H])([H])C([H])([H])C([H])([H])C2([H])N([H])C(=O)C1([H])N(C(=O)C([H])(N([H])C(=O)C([H])(N([H])C([H])([H])[H])C([H])([H])[H])C(C([H])([H])[H])(C([H])([H])[H])C([H])([H])[H])C([H])([H])c2c([H])c(OC([H])([H])C([H])([H])C([H])([H])[N+]([H])([H])C([H])([H])c3c(Cl)c([H])c([H])c(C([H])([H])N([H])C(=O)N4C([H])([H])C([H])([H])C([H])([H])C([H])(n5nc(-c6c([H])c([H])c(Oc7c([H])c([H])c(F)c([H])c7F)c([H])c6[H])c(C(=O)N([H])[H])c5N([H])[H])C4([H])[H])c3Cl)c([H])c([H])c2C1([H])[H]

$$$$
64:0:0
     RDKit          3D

 97106  0  0  1  0  0  0  0  0999 V2000
  -30.8640  -22.3260   17.4170 C   0  0  0  0  0  2  0  0  0  0  0  0
  -29.7510  -23.3440   17.1060 C   0  0  0  0  0  2  0  0  0  0  0  0
  -31.7010  -22.6710   18.6690 C   0  0  0  0  0  2  0  0  0  0  0  0
  -28.6440  -23.5110   18.1640 C   0  0  0  0  0  2  0  0  0  0  0  0
  -31.1260  -22.1650   20.0140 C   0  0  0  0  0  2  0  0  0  0  0  0
  -29.1730  -23.7670   19.5930 C   0  0  0  0  0  3  0  0  0  0  0  0
  -29.6590  -22.4160   20.2380 N   0  0  1  0  0  4  0  0  0  0  0  0
  -29.6060  -22.5630   21.2340 H   0  0  0  0  0  0  0  0  0  0  0  0
  -28.8960  -21.0790   20.0530 C   0  0  0  0  0  2  0  0  0  0  0  0
  -29.5980  -18.4480   19.9910 C   0  0  0  0  0  3  0  0  0  0  0  0
  -30.5500  -18.6050   22.5910 C   0  0  0  0  0  3  0  0  0  0  0  0
  -29.5060  -19.7320   20.6790 C   0  0  0  0  0  0  0  0  0  0  0  0
  -29.9750  -19.7530   22.0160 C   0  0  0  0  0  0  0  0  0  0  0  0
  -30.1800  -17.2460   20.5740 C   0  0  0  0  0  0  0  0  0  0  0  0
  -30.6630  -17.3820   21.9000 C   0  0  0  0  0  0  0  0  0  0  0  0
  -29.8720  -21.0010   22.8780 C   0  0  0  0  0  1  0  0  0  0  0  0
  -31.3350  -16.0550   22.7760 Cl  0  0  0  0  0  0  0  0  0  0  0  0
  -30.8980  -14.7670   20.0090 C   0  0  0  0  0  0  0  0  0  0  0  0
  -30.6030  -12.5050   18.9680 C   0  0  0  0  0  2  0  0  0  0  0  0
  -29.6300  -12.6350   17.7780 C   0  0  0  0  0  2  0  0  0  0  0  0
  -28.1600  -12.5450   18.2460 C   0  0  0  0  0  2  0  0  0  0  0  0
  -27.8630  -13.4240   19.4870 C   0  0  0  0  0  3  0  0  0  0  0  0
  -28.9530  -13.2790   20.5680 C   0  0  0  0  0  2  0  0  0  0  0  0
  -30.2370  -13.5700   19.9230 N   0  0  0  0  0  0  0  0  0  0  0  0
  -32.1100  -14.8270   19.7880 O   0  0  0  0  0  0  0  0  0  0  0  0
  -30.1110  -15.9090   19.9340 N   0  0  0  0  0  0  0  0  0  0  0  0
  -29.2360  -15.7460   19.4660 H   0  0  0  0  0  0  0  0  0  0  0  0
  -25.5340  -14.1080   20.3150 C   0  0  0  0  0  0  0  0  0  0  0  0
  -24.4440  -13.3820   20.7030 C   0  0  0  0  0  0  0  0  0  0  0  0
  -24.8390  -12.0080   20.6320 C   0  0  0  0  0  0  0  0  0  0  0  0
  -26.5260  -13.1880   20.0220 N   0  0  0  0  0  0  0  0  0  0  0  0
  -26.1170  -11.9180   20.2800 N   0  0  0  0  0  0  0  0  0  0  0  0
  -24.0590  -10.7800   20.8130 C   0  0  0  0  0  0  0  0  0  0  0  0
  -24.4600   -9.7800   21.7250 C   0  0  0  0  0  3  0  0  0  0  0  0
  -23.6850   -8.6150   21.9000 C   0  0  0  0  0  3  0  0  0  0  0  0
  -22.4890   -8.4420   21.1620 C   0  0  0  0  0  0  0  0  0  0  0  0
  -22.1050   -9.4300   20.2380 C   0  0  0  0  0  3  0  0  0  0  0  0
  -22.8830  -10.5850   20.0620 C   0  0  0  0  0  3  0  0  0  0  0  0
  -21.6850   -7.3320   21.2460 O   0  0  0  0  0  0  0  0  0  0  0  0
  -21.6070   -6.5820   22.3930 C   0  0  0  0  0  0  0  0  0  0  0  0
  -21.2410   -7.1540   23.6310 C   0  0  0  0  0  3  0  0  0  0  0  0
  -21.1050   -6.3360   24.7700 C   0  0  0  0  0  3  0  0  0  0  0  0
  -21.3240   -4.9480   24.6740 C   0  0  0  0  0  0  0  0  0  0  0  0
  -21.6830   -4.3770   23.4420 C   0  0  0  0  0  3  0  0  0  0  0  0
  -21.8210   -5.1920   22.3030 C   0  0  0  0  0  0  0  0  0  0  0  0
  -22.1480   -4.6320   21.1120 F   0  0  0  0  0  0  0  0  0  0  0  0
  -21.1860   -4.1620   25.7670 F   0  0  0  0  0  0  0  0  0  0  0  0
  -23.0770  -13.9180   21.0240 C   0  0  0  0  0  0  0  0  0  0  0  0
  -22.3420  -13.2560   21.9070 N   0  0  0  0  0  0  0  0  0  0  0  0
  -22.6730  -14.9660   20.5180 O   0  0  0  0  0  0  0  0  0  0  0  0
  -22.6780  -12.4100   22.3470 H   0  0  0  0  0  0  0  0  0  0  0  0
  -21.4230  -13.5990   22.1520 H   0  0  0  0  0  0  0  0  0  0  0  0
  -25.7640  -15.4770   20.1630 N   0  0  0  0  0  0  0  0  0  0  0  0
  -25.0420  -16.1720   20.3280 H   0  0  0  0  0  0  0  0  0  0  0  0
  -26.6350  -15.8820   19.8460 H   0  0  0  0  0  0  0  0  0  0  0  0
  -28.2940  -24.8710   20.4010 C   0  0  0  0  0  2  0  0  0  0  0  0
  -28.4590  -26.3600   20.1260 O   0  0  0  0  0  0  0  0  0  0  0  0
  -24.7000  -31.8560   23.1470 C   0  0  0  0  0  0  0  0  0  0  0  0
  -27.3460  -27.2400   20.1210 C   0  0  0  0  0  0  0  0  0  0  0  0
  -23.5220  -30.4390   21.5130 C   0  0  0  0  0  3  0  0  0  0  0  0
  -24.9840  -28.8870   20.1080 C   0  0  0  0  0  0  0  0  0  0  0  0
  -26.0610  -30.7700   21.3260 C   0  0  0  0  0  2  0  0  0  0  0  0
  -26.1570  -29.3780   20.6910 C   0  0  0  0  0  0  0  0  0  0  0  0
  -27.3480  -28.5730   20.6730 C   0  0  0  0  0  3  0  0  0  0  0  0
  -26.1350  -26.8140   19.5330 C   0  0  0  0  0  3  0  0  0  0  0  0
  -24.9740  -27.6120   19.5310 C   0  0  0  0  0  3  0  0  0  0  0  0
  -23.7450  -29.7610   20.1380 C   0  0  0  0  0  2  0  0  0  0  0  0
  -24.7830  -31.0410   22.0530 N   0  0  0  0  0  0  0  0  0  0  0  0
  -23.6100  -32.1260   23.6730 O   0  0  0  0  0  0  0  0  0  0  0  0
  -22.8570  -29.4210   22.4710 C   0  0  0  0  0  0  0  0  0  0  0  0
  -21.5290  -29.2460   22.3430 N   0  0  0  0  0  0  0  0  0  0  0  0
  -23.5350  -28.7940   23.2890 O   0  0  0  0  0  0  0  0  0  0  0  0
  -21.0460  -29.8040   21.6520 H   0  0  0  0  0  0  0  0  0  0  0  0
  -18.1500  -28.0460   22.8330 C   0  0  0  0  0  0  0  0  0  0  0  0
  -20.7070  -28.3080   23.1090 C   0  0  0  0  0  3  0  0  0  0  0  0
  -20.8090  -26.8770   22.5290 C   0  0  0  0  0  2  0  0  0  0  0  0
  -19.7120  -26.5550   21.5120 C   0  0  0  0  0  2  0  0  0  0  0  0
  -18.3290  -26.7000   22.1540 C   0  0  0  0  0  2  0  0  0  0  0  0
  -19.2660  -28.8090   23.2680 C   0  0  0  0  0  0  0  0  0  0  0  0
  -19.0430  -30.0730   23.8570 C   0  0  0  0  0  3  0  0  0  0  0  0
  -17.7350  -30.5700   24.0200 C   0  0  0  0  0  3  0  0  0  0  0  0
  -16.6350  -29.8010   23.6040 C   0  0  0  0  0  3  0  0  0  0  0  0
  -16.8420  -28.5410   23.0160 C   0  0  0  0  0  3  0  0  0  0  0  0
  -25.9690  -32.5040   23.7800 C   0  0  0  0  0  3  0  0  0  0  0  0
  -26.4940  -31.7290   25.0530 C   0  0  1  0  0  0  0  0  0  0  0  0
  -25.4030  -31.4740   26.1180 C   0  0  0  0  0  1  0  0  0  0  0  0
  -27.0900  -30.3630   24.6430 C   0  0  0  0  0  1  0  0  0  0  0  0
  -27.6290  -32.5360   25.7340 C   0  0  0  0  0  1  0  0  0  0  0  0
  -25.6340  -33.8910   24.1320 N   0  0  0  0  0  0  0  0  0  0  0  0
  -25.9470  -34.9620   23.3910 C   0  0  0  0  0  0  0  0  0  0  0  0
  -26.6220  -34.8870   22.3620 O   0  0  0  0  0  0  0  0  0  0  0  0
  -25.0450  -34.0270   24.9390 H   0  0  0  0  0  0  0  0  0  0  0  0
  -24.1820  -36.7270   23.0720 C   0  0  0  0  0  1  0  0  0  0  0  0
  -25.4340  -36.3310   23.8750 C   0  0  0  0  0  3  0  0  0  0  0  0
  -27.5550  -37.2390   24.7230 C   0  0  0  0  0  1  0  0  0  0  0  0
  -26.4460  -37.4080   23.7850 N   0  0  0  0  0  0  0  0  0  0  0  0
  -26.0220  -38.3150   23.9570 H   0  0  0  0  0  0  0  0  0  0  0  0
  1  3  1  0
  2  1  1  0
  2  4  1  0
  3  5  1  0
  4  6  1  0
  5  7  1  0
  6  7  1  0
  6 56  1  0
  7  8  1  1
  9  7  1  0
  9 12  1  0
 10 14  2  0
 10 12  1  0
 12 13  2  0
 13 11  1  0
 13 16  1  0
 14 15  1  0
 15 11  2  0
 15 17  1  0
 19 24  1  0
 20 21  1  0
 20 19  1  0
 22 21  1  0
 22 31  1  0
 22 23  1  0
 24 18  1  0
 24 23  1  0
 25 18  2  0
 26 18  1  0
 26 14  1  0
 27 26  1  0
 28 29  2  0
 29 48  1  0
 30 29  1  0
 30 33  1  0
 31 32  1  0
 31 28  1  0
 32 30  2  0
 33 34  1  0
 34 35  2  0
 36 39  1  0
 36 35  1  0
 37 36  2  0
 38 37  1  0
 38 33  2  0
 39 40  1  0
 40 41  1  0
 41 42  2  0
 43 42  1  0
 43 47  1  0
 44 43  2  0
 45 40  2  0
 45 44  1  0
 46 45  1  0
 48 49  1  0
 49 52  1  0
 49 51  1  0
 50 48  2  0
 53 28  1  0
 53 54  1  0
 55 53  1  0
 57 56  1  0
 58 69  2  0
 59 57  1  0
 59 64  1  0
 60 68  1  0
 60 70  1  0
 61 67  1  0
 61 63  1  0
 62 68  1  0
 63 62  1  0
 64 63  2  0
 65 59  2  0
 66 65  1  0
 66 61  2  0
 67 60  1  0
 68 58  1  0
 70 72  2  0
 71 70  1  0
 73 71  1  0
 74 83  2  0
 74 79  1  0
 75 71  1  0
 75 79  1  0
 76 75  1  0
 77 78  1  0
 77 76  1  0
 78 74  1  0
 79 80  2  0
 80 81  1  0
 82 81  2  0
 83 82  1  0
 84 58  1  0
 84 89  1  0
 84 85  1  0
 85 88  1  1
 85 86  1  0
 87 85  1  0
 89 92  1  0
 90 94  1  0
 90 89  1  0
 91 90  2  0
 94 93  1  0
 96 94  1  0
 96 97  1  0
 96 95  1  0
M  ISO  4  18 100  26 100  56 101  57 101
M  END
>  <TORSDO>  (65) 
F 19

>  <SCORE>  (65) 
-12.657

>  <name>  (65) 
64

>  <ligand_id>  (65) 
64

>  <original_smiles>  (65) 
[H]c1c([H])c([H])c2c(c1[H])C([H])([H])C([H])([H])C([H])([H])C2([H])N([H])C(=O)C1([H])N(C(=O)C([H])(N([H])C(=O)C([H])(N([H])C([H])([H])[H])C([H])([H])[H])C(C([H])([H])[H])(C([H])([H])[H])C([H])([H])[H])C([H])([H])c2c([H])c(OC([H])([H])C3([H])C([H])([H])C([H])([H])C([H])([H])C([H])([H])C([H])([H])[N+]3([H])C([H])([H])c3c([H])c(N([H])C(=O)N4C([H])([H])C([H])([H])C([H])([H])C([H])(n5nc(-c6c([H])c([H])c(Oc7c([H])c([H])c(F)c([H])c7F)c([H])c6[H])c(C(=O)N([H])[H])c5N([H])[H])C4([H])[H])c(Cl)c([H])c3C([H])([H])[H])c([H])c([H])c2C1([H])[H]

>  <smiles>  (65) 
[H]c1c([H])c([H])c2c(c1[H])C([H])([H])C([H])([H])C([H])([H])C2([H])N([H])C(=O)C1([H])N(C(=O)C([H])(N([H])C(=O)C([H])(N([H])C([H])([H])[H])C([H])([H])[H])C(C([H])([H])[H])(C([H])([H])[H])C([H])([H])[H])C([H])([H])c2c([H])c(OC([H])([H])C3([H])C([H])([H])C([H])([H])C([H])([H])C([H])([H])C([H])([H])[N+]3([H])C([H])([H])c3c([H])c(N([H])C(=O)N4C([H])([H])C([H])([H])C([H])([H])C([H])(n5nc(-c6c([H])c([H])c(Oc7c([H])c([H])c(F)c([H])c7F)c([H])c6[H])c(C(=O)N([H])[H])c5N([H])[H])C4([H])[H])c(Cl)c([H])c3C([H])([H])[H])c([H])c([H])c2C1([H])[H]

$$$$
65:0:0
     RDKit          3D

 93101  0  0  1  0  0  0  0  0999 V2000
  -30.1540  -21.6520   20.2490 C   0  0  0  0  0  2  0  0  0  0  0  0
  -29.1920  -19.3100   19.5970 C   0  0  0  0  0  3  0  0  0  0  0  0
  -30.7120  -17.9470   21.5040 C   0  0  0  0  0  3  0  0  0  0  0  0
  -29.1510  -17.8840   19.6670 C   0  0  0  0  0  0  0  0  0  0  0  0
  -29.9860  -20.0990   20.4710 C   0  0  0  0  0  0  0  0  0  0  0  0
  -29.9290  -17.1630   20.6190 C   0  0  0  0  0  0  0  0  0  0  0  0
  -30.7440  -19.3720   21.4380 C   0  0  0  0  0  0  0  0  0  0  0  0
  -28.2570  -17.1370   18.6930 C   0  0  0  0  0  1  0  0  0  0  0  0
  -31.7560  -20.2020   22.5680 Cl  0  0  0  0  0  0  0  0  0  0  0  0
  -30.5820  -14.6830   20.4090 C   0  0  0  0  0  0  0  0  0  0  0  0
  -30.3620  -12.4630   19.3170 C   0  0  0  0  0  2  0  0  0  0  0  0
  -29.4010  -12.6090   18.1150 C   0  0  0  0  0  2  0  0  0  0  0  0
  -27.9330  -12.4460   18.5570 C   0  0  0  0  0  2  0  0  0  0  0  0
  -27.5880  -13.2920   19.8110 C   0  0  0  0  0  3  0  0  0  0  0  0
  -28.6590  -13.1170   20.9120 C   0  0  0  0  0  2  0  0  0  0  0  0
  -29.9650  -13.4630   20.3260 N   0  0  0  0  0  0  0  0  0  0  0  0
  -31.7370  -14.8540   20.0090 O   0  0  0  0  0  0  0  0  0  0  0  0
  -29.7820  -15.7230   20.7950 N   0  0  0  0  0  0  0  0  0  0  0  0
  -28.8540  -15.4210   21.0500 H   0  0  0  0  0  0  0  0  0  0  0  0
  -25.2030  -13.8920   20.5600 C   0  0  0  0  0  0  0  0  0  0  0  0
  -24.1370  -13.1170   20.9300 C   0  0  0  0  0  0  0  0  0  0  0  0
  -24.5960  -11.7650   20.8740 C   0  0  0  0  0  0  0  0  0  0  0  0
  -26.2430  -13.0120   20.3040 N   0  0  0  0  0  0  0  0  0  0  0  0
  -25.8820  -11.7260   20.5510 N   0  0  0  0  0  0  0  0  0  0  0  0
  -23.8660  -10.5030   21.0540 C   0  0  0  0  0  0  0  0  0  0  0  0
  -24.2890   -9.5320   21.9900 C   0  0  0  0  0  3  0  0  0  0  0  0
  -23.5590   -8.3350   22.1580 C   0  0  0  0  0  3  0  0  0  0  0  0
  -22.3960   -8.1000   21.3880 C   0  0  0  0  0  0  0  0  0  0  0  0
  -21.9930   -9.0580   20.4410 C   0  0  0  0  0  3  0  0  0  0  0  0
  -22.7230  -10.2460   20.2720 C   0  0  0  0  0  3  0  0  0  0  0  0
  -21.6410   -6.9540   21.4640 O   0  0  0  0  0  0  0  0  0  0  0  0
  -21.5590   -6.2210   22.6210 C   0  0  0  0  0  0  0  0  0  0  0  0
  -21.0390   -6.7690   23.8140 C   0  0  0  0  0  3  0  0  0  0  0  0
  -20.9080   -5.9610   24.9620 C   0  0  0  0  0  3  0  0  0  0  0  0
  -21.2870   -4.6050   24.9160 C   0  0  0  0  0  0  0  0  0  0  0  0
  -21.7990   -4.0580   23.7270 C   0  0  0  0  0  3  0  0  0  0  0  0
  -21.9320   -4.8620   22.5820 C   0  0  0  0  0  0  0  0  0  0  0  0
  -22.4080   -4.3230   21.4340 F   0  0  0  0  0  0  0  0  0  0  0  0
  -21.1530   -3.8270   26.0150 F   0  0  0  0  0  0  0  0  0  0  0  0
  -22.7450  -13.5950   21.2220 C   0  0  0  0  0  0  0  0  0  0  0  0
  -22.0210  -12.8880   22.0820 N   0  0  0  0  0  0  0  0  0  0  0  0
  -22.3070  -14.6310   20.7240 O   0  0  0  0  0  0  0  0  0  0  0  0
  -22.3880  -12.0480   22.5070 H   0  0  0  0  0  0  0  0  0  0  0  0
  -21.0870  -13.1900   22.3200 H   0  0  0  0  0  0  0  0  0  0  0  0
  -25.3670  -15.2650   20.4050 N   0  0  0  0  0  0  0  0  0  0  0  0
  -24.6010  -15.9150   20.5400 H   0  0  0  0  0  0  0  0  0  0  0  0
  -26.2120  -15.7130   20.0750 H   0  0  0  0  0  0  0  0  0  0  0  0
  -29.0100  -22.6080   20.5010 N   0  0  0  0  0  4  0  0  0  0  0  0
  -28.6440  -22.4250   21.4200 H   0  0  0  0  0  0  0  0  0  0  0  0
  -28.2840  -22.3770   19.8410 H   0  0  0  0  0  0  0  0  0  0  0  0
  -29.3350  -24.0970   20.3920 C   0  0  0  0  0  3  0  0  0  0  0  0
  -28.1100  -25.0830   20.1930 C   0  0  0  0  0  3  0  0  0  0  0  0
  -28.3330  -26.5460   20.2620 O   0  0  0  0  0  0  0  0  0  0  0  0
  -24.5940  -31.9400   23.2570 C   0  0  0  0  0  0  0  0  0  0  0  0
  -27.2060  -27.3820   20.2100 C   0  0  0  0  0  0  0  0  0  0  0  0
  -23.3900  -30.5420   21.6160 C   0  0  0  0  0  3  0  0  0  0  0  0
  -24.8390  -28.9920   20.1940 C   0  0  0  0  0  0  0  0  0  0  0  0
  -25.9300  -30.8580   21.4360 C   0  0  0  0  0  2  0  0  0  0  0  0
  -26.0080  -29.4810   20.7920 C   0  0  0  0  0  0  0  0  0  0  0  0
  -27.1940  -28.6890   20.7870 C   0  0  0  0  0  3  0  0  0  0  0  0
  -26.0110  -26.9460   19.5910 C   0  0  0  0  0  3  0  0  0  0  0  0
  -24.8440  -27.7300   19.5840 C   0  0  0  0  0  3  0  0  0  0  0  0
  -23.6040  -29.8650   20.2370 C   0  0  0  0  0  2  0  0  0  0  0  0
  -24.6580  -31.1300   22.1590 N   0  0  0  0  0  0  0  0  0  0  0  0
  -23.5100  -32.2210   23.7880 O   0  0  0  0  0  0  0  0  0  0  0  0
  -22.7240  -29.5270   22.5760 C   0  0  0  0  0  0  0  0  0  0  0  0
  -21.3990  -29.3470   22.4390 N   0  0  0  0  0  0  0  0  0  0  0  0
  -23.3970  -28.9060   23.4020 O   0  0  0  0  0  0  0  0  0  0  0  0
  -20.9150  -29.9000   21.7460 H   0  0  0  0  0  0  0  0  0  0  0  0
  -18.0150  -28.1680   22.9340 C   0  0  0  0  0  0  0  0  0  0  0  0
  -20.5750  -28.4120   23.2070 C   0  0  0  0  0  3  0  0  0  0  0  0
  -20.6690  -26.9810   22.6310 C   0  0  0  0  0  2  0  0  0  0  0  0
  -19.5660  -26.6660   21.6150 C   0  0  0  0  0  2  0  0  0  0  0  0
  -18.1850  -26.8180   22.2570 C   0  0  0  0  0  2  0  0  0  0  0  0
  -19.1380  -28.9240   23.3660 C   0  0  0  0  0  0  0  0  0  0  0  0
  -18.9250  -30.1860   23.9590 C   0  0  0  0  0  3  0  0  0  0  0  0
  -17.6230  -30.6950   24.1230 C   0  0  0  0  0  3  0  0  0  0  0  0
  -16.5150  -29.9370   23.7080 C   0  0  0  0  0  3  0  0  0  0  0  0
  -16.7120  -28.6750   23.1190 C   0  0  0  0  0  3  0  0  0  0  0  0
  -25.8780  -32.5690   23.8810 C   0  0  0  0  0  3  0  0  0  0  0  0
  -26.3870  -31.7990   25.1610 C   0  0  1  0  0  0  0  0  0  0  0  0
  -25.2890  -31.5610   26.2240 C   0  0  0  0  0  1  0  0  0  0  0  0
  -26.9730  -30.4210   24.7740 C   0  0  0  0  0  1  0  0  0  0  0  0
  -27.5340  -32.5950   25.8290 C   0  0  0  0  0  1  0  0  0  0  0  0
  -25.5710  -33.9690   24.2070 N   0  0  0  0  0  0  0  0  0  0  0  0
  -25.8910  -35.0170   23.4380 C   0  0  0  0  0  0  0  0  0  0  0  0
  -26.5460  -34.9090   22.3970 O   0  0  0  0  0  0  0  0  0  0  0  0
  -24.9880  -34.1270   25.0160 H   0  0  0  0  0  0  0  0  0  0  0  0
  -24.1580  -36.8090   23.0970 C   0  0  0  0  0  1  0  0  0  0  0  0
  -25.4090  -36.4080   23.8940 C   0  0  0  0  0  3  0  0  0  0  0  0
  -27.5490  -37.3050   24.7010 C   0  0  0  0  0  1  0  0  0  0  0  0
  -26.4410  -37.4600   23.7630 N   0  0  0  0  0  0  0  0  0  0  0  0
  -26.0340  -38.3820   23.9010 H   0  0  0  0  0  0  0  0  0  0  0  0
  1  5  1  0
  1 48  1  0
  2  4  2  0
  2  5  1  0
  4  6  1  0
  5  7  2  0
  6 18  1  0
  6  3  2  0
  7  3  1  0
  7  9  1  0
  8  4  1  0
 10 18  1  0
 11 16  1  0
 12 13  1  0
 12 11  1  0
 14 13  1  0
 14 23  1  0
 14 15  1  0
 16 10  1  0
 16 15  1  0
 17 10  2  0
 18 19  1  0
 20 21  2  0
 21 40  1  0
 22 21  1  0
 22 25  1  0
 23 24  1  0
 23 20  1  0
 24 22  2  0
 25 26  1  0
 26 27  2  0
 28 31  1  0
 28 27  1  0
 29 28  2  0
 30 29  1  0
 30 25  2  0
 31 32  1  0
 32 33  1  0
 33 34  2  0
 35 34  1  0
 35 39  1  0
 36 35  2  0
 37 32  2  0
 37 36  1  0
 38 37  1  0
 40 41  1  0
 41 44  1  0
 41 43  1  0
 42 40  2  0
 45 46  1  0
 45 20  1  0
 47 45  1  0
 48 49  1  0
 50 48  1  0
 51 48  1  0
 52 53  1  0
 52 51  2  0
 54 65  2  0
 55 53  1  0
 55 60  1  0
 56 64  1  0
 56 66  1  0
 57 63  1  0
 57 59  1  0
 58 64  1  0
 59 58  1  0
 60 59  2  0
 61 55  2  0
 62 61  1  0
 62 57  2  0
 63 56  1  0
 64 54  1  0
 66 68  2  0
 67 66  1  0
 69 67  1  0
 70 79  2  0
 70 75  1  0
 71 67  1  0
 71 75  1  0
 72 71  1  0
 73 74  1  0
 73 72  1  0
 74 70  1  0
 75 76  2  0
 76 77  1  0
 78 77  2  0
 79 78  1  0
 80 54  1  0
 80 85  1  0
 80 81  1  0
 81 84  1  1
 81 82  1  0
 83 81  1  0
 85 88  1  0
 86 90  1  0
 86 85  1  0
 87 86  2  0
 90 89  1  0
 92 90  1  0
 92 93  1  0
 92 91  1  0
M  ISO  4  10 100  18 100  52 101  53 101
M  END
>  <TORSDO>  (66) 
F 20

>  <SCORE>  (66) 
-14.207

>  <name>  (66) 
65

>  <ligand_id>  (66) 
65

>  <original_smiles>  (66) 
[H]c1c([H])c([H])c2c(c1[H])C([H])([H])C([H])([H])C([H])([H])C2([H])N([H])C(=O)C1([H])N(C(=O)C([H])(N([H])C(=O)C([H])(N([H])C([H])([H])[H])C([H])([H])[H])C(C([H])([H])[H])(C([H])([H])[H])C([H])([H])[H])C([H])([H])c2c([H])c(OC([H])([H])C([H])([H])[N+]([H])([H])C([H])([H])c3c([H])c(C([H])([H])[H])c(N([H])C(=O)N4C([H])([H])C([H])([H])C([H])([H])C([H])(n5nc(-c6c([H])c([H])c(Oc7c([H])c([H])c(F)c([H])c7F)c([H])c6[H])c(C(=O)N([H])[H])c5N([H])[H])C4([H])[H])c([H])c3Cl)c([H])c([H])c2C1([H])[H]

>  <smiles>  (66) 
[H]c1c([H])c([H])c2c(c1[H])C([H])([H])C([H])([H])C([H])([H])C2([H])N([H])C(=O)C1([H])N(C(=O)C([H])(N([H])C(=O)C([H])(N([H])C([H])([H])[H])C([H])([H])[H])C(C([H])([H])[H])(C([H])([H])[H])C([H])([H])[H])C([H])([H])c2c([H])c(OC([H])([H])C([H])([H])[N+]([H])([H])C([H])([H])c3c([H])c(C([H])([H])[H])c(N([H])C(=O)N4C([H])([H])C([H])([H])C([H])([H])C([H])(n5nc(-c6c([H])c([H])c(Oc7c([H])c([H])c(F)c([H])c7F)c([H])c6[H])c(C(=O)N([H])[H])c5N([H])[H])C4([H])[H])c([H])c3Cl)c([H])c([H])c2C1([H])[H]

$$$$
66:0:0
     RDKit          3D

 93101  0  0  1  0  0  0  0  0999 V2000
  -30.0830  -21.6370   20.0140 C   0  0  0  0  0  0  0  0  0  0  0  0
  -31.0340  -22.1120   19.3240 N   0  0  0  0  0  0  0  0  0  0  0  0
  -31.6730  -21.3800   19.0360 H   0  0  0  0  0  0  0  0  0  0  0  0
  -31.1670  -17.8480   20.4520 C   0  0  0  0  0  3  0  0  0  0  0  0
  -28.7810  -17.9610   20.5480 C   0  0  0  0  0  3  0  0  0  0  0  0
  -30.0470  -20.0990   20.2630 C   0  0  0  0  0  0  0  0  0  0  0  0
  -31.2320  -19.2720   20.3350 C   0  0  0  0  0  0  0  0  0  0  0  0
  -29.9430  -17.1460   20.5460 C   0  0  0  0  0  0  0  0  0  0  0  0
  -28.8240  -19.3800   20.4080 C   0  0  0  0  0  0  0  0  0  0  0  0
  -32.6430  -19.8520   20.3250 C   0  0  0  0  0  1  0  0  0  0  0  0
  -27.6410  -20.0400   20.3740 F   0  0  0  0  0  0  0  0  0  0  0  0
  -30.6160  -14.6510   20.2800 C   0  0  0  0  0  0  0  0  0  0  0  0
  -30.3850  -12.4440   19.1650 C   0  0  0  0  0  2  0  0  0  0  0  0
  -29.4220  -12.6080   17.9670 C   0  0  0  0  0  2  0  0  0  0  0  0
  -27.9550  -12.4430   18.4130 C   0  0  0  0  0  2  0  0  0  0  0  0
  -27.6170  -13.2750   19.6780 C   0  0  0  0  0  3  0  0  0  0  0  0
  -28.6910  -13.0850   20.7740 C   0  0  0  0  0  2  0  0  0  0  0  0
  -29.9950  -13.4340   20.1870 N   0  0  0  0  0  0  0  0  0  0  0  0
  -31.7710  -14.8130   19.8760 O   0  0  0  0  0  0  0  0  0  0  0  0
  -29.8160  -15.6920   20.6750 N   0  0  0  0  0  0  0  0  0  0  0  0
  -28.9050  -15.3760   20.9690 H   0  0  0  0  0  0  0  0  0  0  0  0
  -25.2240  -13.8630   20.4100 C   0  0  0  0  0  0  0  0  0  0  0  0
  -24.1660  -13.0850   20.7950 C   0  0  0  0  0  0  0  0  0  0  0  0
  -24.6380  -11.7360   20.7650 C   0  0  0  0  0  0  0  0  0  0  0  0
  -26.2730  -12.9890   20.1730 N   0  0  0  0  0  0  0  0  0  0  0  0
  -25.9250  -11.7050   20.4470 N   0  0  0  0  0  0  0  0  0  0  0  0
  -23.9210  -10.4700   20.9670 C   0  0  0  0  0  0  0  0  0  0  0  0
  -24.3550   -9.5200   21.9160 C   0  0  0  0  0  3  0  0  0  0  0  0
  -23.6400   -8.3170   22.1040 C   0  0  0  0  0  3  0  0  0  0  0  0
  -22.4750   -8.0580   21.3430 C   0  0  0  0  0  0  0  0  0  0  0  0
  -22.0610   -8.9980   20.3830 C   0  0  0  0  0  3  0  0  0  0  0  0
  -22.7780  -10.1910   20.1930 C   0  0  0  0  0  3  0  0  0  0  0  0
  -21.7320   -6.9070   21.4400 O   0  0  0  0  0  0  0  0  0  0  0  0
  -21.6700   -6.1850   22.6050 C   0  0  0  0  0  0  0  0  0  0  0  0
  -21.1910   -6.7500   23.8060 C   0  0  0  0  0  3  0  0  0  0  0  0
  -21.0800   -5.9530   24.9630 C   0  0  0  0  0  3  0  0  0  0  0  0
  -21.4360   -4.5920   24.9190 C   0  0  0  0  0  0  0  0  0  0  0  0
  -21.9090   -4.0270   23.7220 C   0  0  0  0  0  3  0  0  0  0  0  0
  -22.0220   -4.8210   22.5670 C   0  0  0  0  0  0  0  0  0  0  0  0
  -22.4580   -4.2660   21.4110 F   0  0  0  0  0  0  0  0  0  0  0  0
  -21.3220   -3.8250   26.0280 F   0  0  0  0  0  0  0  0  0  0  0  0
  -22.7670  -13.5540   21.0740 C   0  0  0  0  0  0  0  0  0  0  0  0
  -22.0500  -12.8560   21.9480 N   0  0  0  0  0  0  0  0  0  0  0  0
  -22.3190  -14.5750   20.5530 O   0  0  0  0  0  0  0  0  0  0  0  0
  -22.4260  -12.0300   22.3920 H   0  0  0  0  0  0  0  0  0  0  0  0
  -21.1120  -13.1520   22.1780 H   0  0  0  0  0  0  0  0  0  0  0  0
  -25.3770  -15.2340   20.2210 N   0  0  0  0  0  0  0  0  0  0  0  0
  -24.5960  -15.8750   20.3120 H   0  0  0  0  0  0  0  0  0  0  0  0
  -26.1960  -15.6670   19.8180 H   0  0  0  0  0  0  0  0  0  0  0  0
  -29.0690  -22.6910   20.4510 C   0  0  0  0  0  3  0  0  0  0  0  0
  -29.1860  -24.0560   20.2820 C   0  0  0  0  0  3  0  0  0  0  0  0
  -28.1750  -25.1500   20.7320 C   0  0  0  0  0  2  0  0  0  0  0  0
  -28.3910  -26.5280   20.2430 O   0  0  0  0  0  0  0  0  0  0  0  0
  -24.5990  -31.8800   23.2430 C   0  0  0  0  0  0  0  0  0  0  0  0
  -27.2680  -27.3600   20.2100 C   0  0  0  0  0  0  0  0  0  0  0  0
  -23.4170  -30.4780   21.5890 C   0  0  0  0  0  3  0  0  0  0  0  0
  -24.8900  -28.9400   20.1750 C   0  0  0  0  0  0  0  0  0  0  0  0
  -25.9530  -30.8170   21.4270 C   0  0  0  0  0  2  0  0  0  0  0  0
  -26.0490  -29.4410   20.7820 C   0  0  0  0  0  0  0  0  0  0  0  0
  -27.2430  -28.6640   20.7890 C   0  0  0  0  0  3  0  0  0  0  0  0
  -26.0920  -26.9100   19.5700 C   0  0  0  0  0  3  0  0  0  0  0  0
  -24.9130  -27.6780   19.5590 C   0  0  0  0  0  3  0  0  0  0  0  0
  -23.6470  -29.8040   20.2090 C   0  0  0  0  0  2  0  0  0  0  0  0
  -24.6740  -31.0750   22.1430 N   0  0  0  0  0  0  0  0  0  0  0  0
  -23.5100  -32.1510   23.7690 O   0  0  0  0  0  0  0  0  0  0  0  0
  -22.7520  -29.4560   22.5410 C   0  0  0  0  0  0  0  0  0  0  0  0
  -21.4270  -29.2750   22.4040 N   0  0  0  0  0  0  0  0  0  0  0  0
  -23.4270  -28.8270   23.3610 O   0  0  0  0  0  0  0  0  0  0  0  0
  -20.9420  -29.8330   21.7160 H   0  0  0  0  0  0  0  0  0  0  0  0
  -18.0450  -28.0930   22.8950 C   0  0  0  0  0  0  0  0  0  0  0  0
  -20.6040  -28.3340   23.1670 C   0  0  0  0  0  3  0  0  0  0  0  0
  -20.6980  -26.9090   22.5770 C   0  0  0  0  0  2  0  0  0  0  0  0
  -19.5940  -26.6020   21.5600 C   0  0  0  0  0  2  0  0  0  0  0  0
  -18.2140  -26.7500   22.2070 C   0  0  0  0  0  2  0  0  0  0  0  0
  -19.1680  -28.8450   23.3320 C   0  0  0  0  0  0  0  0  0  0  0  0
  -18.9570  -30.1030   23.9360 C   0  0  0  0  0  3  0  0  0  0  0  0
  -17.6550  -30.6100   24.1080 C   0  0  0  0  0  3  0  0  0  0  0  0
  -16.5460  -29.8550   23.6880 C   0  0  0  0  0  3  0  0  0  0  0  0
  -16.7420  -28.5990   23.0860 C   0  0  0  0  0  3  0  0  0  0  0  0
  -25.8740  -32.5160   23.8770 C   0  0  0  0  0  3  0  0  0  0  0  0
  -26.3720  -31.7550   25.1670 C   0  0  1  0  0  0  0  0  0  0  0  0
  -25.2640  -31.5260   26.2200 C   0  0  0  0  0  1  0  0  0  0  0  0
  -26.9610  -30.3740   24.7950 C   0  0  0  0  0  1  0  0  0  0  0  0
  -27.5140  -32.5550   25.8400 C   0  0  0  0  0  1  0  0  0  0  0  0
  -25.5620  -33.9170   24.1910 N   0  0  0  0  0  0  0  0  0  0  0  0
  -25.9030  -34.9630   23.4270 C   0  0  0  0  0  0  0  0  0  0  0  0
  -26.5840  -34.8500   22.4040 O   0  0  0  0  0  0  0  0  0  0  0  0
  -24.9600  -34.0790   24.9850 H   0  0  0  0  0  0  0  0  0  0  0  0
  -24.1860  -36.7580   23.0280 C   0  0  0  0  0  1  0  0  0  0  0  0
  -25.4100  -36.3550   23.8660 C   0  0  0  0  0  3  0  0  0  0  0  0
  -27.5290  -37.2430   24.7340 C   0  0  0  0  0  1  0  0  0  0  0  0
  -26.4480  -37.4060   23.7650 N   0  0  0  0  0  0  0  0  0  0  0  0
  -26.0410  -38.3280   23.8970 H   0  0  0  0  0  0  0  0  0  0  0  0
  1  6  1  0
  1 50  1  0
  2  1  2  0
  3  2  1  0
  4  8  1  0
  6  7  1  0
  6  9  2  0
  7  4  2  0
  8  5  2  0
  8 20  1  0
  9  5  1  0
 10  7  1  0
 11  9  1  0
 12 20  1  0
 13 18  1  0
 14 15  1  0
 14 13  1  0
 16 15  1  0
 16 25  1  0
 16 17  1  0
 18 12  1  0
 18 17  1  0
 19 12  2  0
 20 21  1  0
 22 23  2  0
 23 42  1  0
 24 23  1  0
 24 27  1  0
 25 22  1  0
 25 26  1  0
 26 24  2  0
 27 28  1  0
 28 29  2  0
 30 33  1  0
 30 29  1  0
 31 30  2  0
 32 31  1  0
 32 27  2  0
 33 34  1  0
 34 35  1  0
 35 36  2  0
 37 36  1  0
 37 41  1  0
 38 37  2  0
 39 34  2  0
 39 38  1  0
 40 39  1  0
 42 43  1  0
 43 46  1  0
 43 45  1  0
 44 42  2  0
 47 48  1  0
 47 22  1  0
 49 47  1  0
 51 50  2  0
 51 52  1  0
 53 52  1  0
 54 65  2  0
 55 53  1  0
 55 60  1  0
 56 64  1  0
 56 66  1  0
 57 63  1  0
 57 59  1  0
 58 64  1  0
 59 60  2  0
 59 58  1  0
 61 55  2  0
 62 61  1  0
 62 57  2  0
 63 56  1  0
 64 54  1  0
 66 68  2  0
 67 66  1  0
 69 67  1  0
 70 79  2  0
 70 75  1  0
 71 67  1  0
 71 75  1  0
 72 71  1  0
 73 74  1  0
 73 72  1  0
 74 70  1  0
 75 76  2  0
 76 77  1  0
 78 77  2  0
 79 78  1  0
 80 54  1  0
 80 85  1  0
 80 81  1  0
 81 84  1  1
 81 82  1  0
 83 81  1  0
 85 88  1  0
 86 90  1  0
 86 85  1  0
 87 86  2  0
 90 89  1  0
 92 90  1  0
 92 93  1  0
 92 91  1  0
M  ISO  4  12 100  20 100  52 101  53 101
M  END
>  <TORSDO>  (67) 
F 19

>  <SCORE>  (67) 
-14.439

>  <name>  (67) 
66

>  <ligand_id>  (67) 
66

>  <original_smiles>  (67) 
[H]N=C(C([H])=C([H])C([H])([H])Oc1c([H])c([H])c2c(c1[H])C([H])([H])N(C(=O)C([H])(N([H])C(=O)C([H])(N([H])C([H])([H])[H])C([H])([H])[H])C(C([H])([H])[H])(C([H])([H])[H])C([H])([H])[H])C([H])(C(=O)N([H])C1([H])c3c([H])c([H])c([H])c([H])c3C([H])([H])C([H])([H])C1([H])[H])C2([H])[H])c1c(F)c([H])c(N([H])C(=O)N2C([H])([H])C([H])([H])C([H])([H])C([H])(n3nc(-c4c([H])c([H])c(Oc5c([H])c([H])c(F)c([H])c5F)c([H])c4[H])c(C(=O)N([H])[H])c3N([H])[H])C2([H])[H])c([H])c1C([H])([H])[H]

>  <smiles>  (67) 
[H]N=C(C([H])=C([H])C([H])([H])Oc1c([H])c([H])c2c(c1[H])C([H])([H])N(C(=O)C([H])(N([H])C(=O)C([H])(N([H])C([H])([H])[H])C([H])([H])[H])C(C([H])([H])[H])(C([H])([H])[H])C([H])([H])[H])C([H])(C(=O)N([H])C1([H])c3c([H])c([H])c([H])c([H])c3C([H])([H])C([H])([H])C1([H])[H])C2([H])[H])c1c(F)c([H])c(N([H])C(=O)N2C([H])([H])C([H])([H])C([H])([H])C([H])(n3nc(-c4c([H])c([H])c(Oc5c([H])c([H])c(F)c([H])c5F)c([H])c4[H])c(C(=O)N([H])[H])c3N([H])[H])C2([H])[H])c([H])c1C([H])([H])[H]

$$$$
67:0:0
     RDKit          3D

 99108  0  0  1  0  0  0  0  0999 V2000
  -29.9180  -24.2230   19.5830 C   0  0  0  0  0  0  0  0  0  0  0  0
  -31.0750  -24.8610   19.8770 C   0  0  0  0  0  3  0  0  0  0  0  0
  -27.7230  -23.3610   16.8040 C   0  0  0  0  0  2  0  0  0  0  0  0
  -28.7960  -24.4550   16.7270 C   0  0  0  0  0  2  0  0  0  0  0  0
  -28.2180  -22.0540   17.4410 C   0  0  0  0  0  2  0  0  0  0  0  0
  -28.6510  -25.5490   17.7960 C   0  0  0  0  0  2  0  0  0  0  0  0
  -28.4960  -22.0820   18.9570 C   0  0  0  0  0  2  0  0  0  0  0  0
  -28.6430  -25.1090   19.2850 C   0  0  0  0  0  3  0  0  0  0  0  0
  -32.4880  -24.3170   19.9970 C   0  0  0  0  0  1  0  0  0  0  0  0
  -29.8310  -22.6550   19.3240 N   0  0  2  0  0  4  0  0  0  0  0  0
  -30.3590  -22.4980   18.4810 H   0  0  0  0  0  0  0  0  0  0  0  0
  -28.5510  -26.4060   20.0090 O   0  0  0  0  0  0  0  0  0  0  0  0
  -24.6130  -31.6850   22.9890 C   0  0  0  0  0  0  0  0  0  0  0  0
  -27.3830  -27.1940   19.9550 C   0  0  0  0  0  0  0  0  0  0  0  0
  -23.4570  -30.2350   21.3620 C   0  0  0  0  0  3  0  0  0  0  0  0
  -24.9570  -28.7250   19.9500 C   0  0  0  0  0  0  0  0  0  0  0  0
  -25.9860  -30.6340   21.1770 C   0  0  0  0  0  2  0  0  0  0  0  0
  -26.1110  -29.2550   20.5410 C   0  0  0  0  0  0  0  0  0  0  0  0
  -27.3220  -28.4990   20.5380 C   0  0  0  0  0  3  0  0  0  0  0  0
  -26.1920  -26.7180   19.3510 C   0  0  0  0  0  3  0  0  0  0  0  0
  -24.9990  -27.4610   19.3490 C   0  0  0  0  0  3  0  0  0  0  0  0
  -23.6930  -29.5590   19.9880 C   0  0  0  0  0  2  0  0  0  0  0  0
  -24.7030  -30.8700   21.8990 N   0  0  0  0  0  0  0  0  0  0  0  0
  -23.5210  -31.9320   23.5200 O   0  0  0  0  0  0  0  0  0  0  0  0
  -22.8280  -29.2030   22.3300 C   0  0  0  0  0  0  0  0  0  0  0  0
  -21.5060  -28.9960   22.2170 N   0  0  0  0  0  0  0  0  0  0  0  0
  -23.5300  -28.5930   23.1400 O   0  0  0  0  0  0  0  0  0  0  0  0
  -20.9970  -29.5410   21.5350 H   0  0  0  0  0  0  0  0  0  0  0  0
  -18.1560  -27.7500   22.7780 C   0  0  0  0  0  0  0  0  0  0  0  0
  -20.7150  -28.0420   22.9990 C   0  0  0  0  0  3  0  0  0  0  0  0
  -20.8250  -26.6160   22.4130 C   0  0  0  0  0  2  0  0  0  0  0  0
  -19.7080  -26.2850   21.4190 C   0  0  0  0  0  2  0  0  0  0  0  0
  -18.3370  -26.4070   22.0910 C   0  0  0  0  0  2  0  0  0  0  0  0
  -19.2720  -28.5240   23.1900 C   0  0  0  0  0  0  0  0  0  0  0  0
  -19.0490  -29.7810   23.7940 C   0  0  0  0  0  3  0  0  0  0  0  0
  -17.7420  -30.2640   23.9890 C   0  0  0  0  0  3  0  0  0  0  0  0
  -16.6390  -29.4860   23.5930 C   0  0  0  0  0  3  0  0  0  0  0  0
  -16.8470  -28.2320   22.9940 C   0  0  0  0  0  3  0  0  0  0  0  0
  -25.8750  -32.3650   23.6060 C   0  0  0  0  0  3  0  0  0  0  0  0
  -25.4960  -33.7300   23.9980 N   0  0  0  0  0  0  0  0  0  0  0  0
  -25.7980  -34.8340   23.3020 C   0  0  0  0  0  0  0  0  0  0  0  0
  -26.4940  -34.8130   22.2840 O   0  0  0  0  0  0  0  0  0  0  0  0
  -24.8770  -33.8170   24.7900 H   0  0  0  0  0  0  0  0  0  0  0  0
  -24.0210  -36.5850   22.9760 C   0  0  0  0  0  1  0  0  0  0  0  0
  -25.2390  -36.1740   23.8190 C   0  0  0  0  0  3  0  0  0  0  0  0
  -27.2980  -37.0810   24.8010 C   0  0  0  0  0  1  0  0  0  0  0  0
  -26.2350  -37.2680   23.8170 N   0  0  0  0  0  0  0  0  0  0  0  0
  -25.7890  -38.1620   23.9980 H   0  0  0  0  0  0  0  0  0  0  0  0
  -26.4640  -31.5760   24.8380 C   0  0  1  0  0  0  0  0  0  0  0  0
  -25.4090  -31.2210   25.9120 C   0  0  0  0  0  1  0  0  0  0  0  0
  -27.1300  -30.2570   24.3780 C   0  0  0  0  0  1  0  0  0  0  0  0
  -27.5720  -32.4160   25.5150 C   0  0  0  0  0  1  0  0  0  0  0  0
  -30.5580  -21.7150   20.2900 C   0  0  0  0  0  2  0  0  0  0  0  0
  -31.6670  -19.3760   19.8450 C   0  0  0  0  0  3  0  0  0  0  0  0
  -31.6950  -17.9480   19.8710 C   0  0  0  0  0  3  0  0  0  0  0  0
  -30.4980  -20.1330   20.1410 C   0  0  0  0  0  0  0  0  0  0  0  0
  -29.3300  -19.3670   20.4550 C   0  0  0  0  0  0  0  0  0  0  0  0
  -29.3640  -17.9290   20.5070 C   0  0  0  0  0  0  0  0  0  0  0  0
  -30.5490  -17.1830   20.2120 C   0  0  0  0  0  0  0  0  0  0  0  0
  -28.0180  -20.0800   20.7930 C   0  0  0  0  0  1  0  0  0  0  0  0
  -28.0920  -17.1830   20.9140 C   0  0  0  0  0  1  0  0  0  0  0  0
  -31.2040  -14.6930   19.6880 C   0  0  0  0  0  0  0  0  0  0  0  0
  -30.8330  -12.4810   18.6030 C   0  0  0  0  0  2  0  0  0  0  0  0
  -29.8030  -12.6660   17.4650 C   0  0  0  0  0  2  0  0  0  0  0  0
  -28.3590  -12.5730   17.9970 C   0  0  0  0  0  2  0  0  0  0  0  0
  -28.1350  -13.4330   19.2690 C   0  0  0  0  0  3  0  0  0  0  0  0
  -29.2610  -13.1900   20.3000 C   0  0  0  0  0  2  0  0  0  0  0  0
  -30.5440  -13.4920   19.6400 N   0  0  0  0  0  0  0  0  0  0  0  0
  -32.3150  -14.8410   19.1700 O   0  0  0  0  0  0  0  0  0  0  0  0
  -30.4850  -15.7200   20.2370 N   0  0  0  0  0  0  0  0  0  0  0  0
  -29.6570  -15.3710   20.6940 H   0  0  0  0  0  0  0  0  0  0  0  0
  -25.8230  -14.1450   20.1390 C   0  0  0  0  0  0  0  0  0  0  0  0
  -24.7500  -13.4240   20.5900 C   0  0  0  0  0  0  0  0  0  0  0  0
  -25.1470  -12.0520   20.5330 C   0  0  0  0  0  0  0  0  0  0  0  0
  -26.8090  -13.2170   19.8430 N   0  0  0  0  0  0  0  0  0  0  0  0
  -26.4100  -11.9530   20.1360 N   0  0  0  0  0  0  0  0  0  0  0  0
  -24.3780  -10.8260   20.7780 C   0  0  0  0  0  0  0  0  0  0  0  0
  -24.7520   -9.9090   21.7850 C   0  0  0  0  0  3  0  0  0  0  0  0
  -23.9860   -8.7450   22.0140 C   0  0  0  0  0  3  0  0  0  0  0  0
  -22.8330   -8.4910   21.2360 C   0  0  0  0  0  0  0  0  0  0  0  0
  -22.4780   -9.3940   20.2180 C   0  0  0  0  0  3  0  0  0  0  0  0
  -23.2440  -10.5490   19.9880 C   0  0  0  0  0  3  0  0  0  0  0  0
  -22.0430   -7.3740   21.3690 O   0  0  0  0  0  0  0  0  0  0  0  0
  -21.8360   -6.7820   22.5890 C   0  0  0  0  0  0  0  0  0  0  0  0
  -21.2950   -7.4940   23.6810 C   0  0  0  0  0  3  0  0  0  0  0  0
  -21.0340   -6.8280   24.8970 C   0  0  0  0  0  3  0  0  0  0  0  0
  -21.3050   -5.4520   25.0180 C   0  0  0  0  0  0  0  0  0  0  0  0
  -21.8390   -4.7400   23.9300 C   0  0  0  0  0  3  0  0  0  0  0  0
  -22.1010   -5.4030   22.7170 C   0  0  0  0  0  0  0  0  0  0  0  0
  -22.5960   -4.7080   21.6650 F   0  0  0  0  0  0  0  0  0  0  0  0
  -21.0470   -4.8110   26.1820 F   0  0  0  0  0  0  0  0  0  0  0  0
  -23.4000  -13.9660   20.9560 C   0  0  0  0  0  0  0  0  0  0  0  0
  -22.7260  -13.3350   21.9130 N   0  0  0  0  0  0  0  0  0  0  0  0
  -22.9530  -14.9830   20.4290 O   0  0  0  0  0  0  0  0  0  0  0  0
  -23.1010  -12.5130   22.3600 H   0  0  0  0  0  0  0  0  0  0  0  0
  -21.8210  -13.6810   22.2020 H   0  0  0  0  0  0  0  0  0  0  0  0
  -26.0340  -15.5050   19.9360 N   0  0  0  0  0  0  0  0  0  0  0  0
  -25.2970  -16.1880   20.0730 H   0  0  0  0  0  0  0  0  0  0  0  0
  -26.8610  -15.8970   19.5040 H   0  0  0  0  0  0  0  0  0  0  0  0
  1  2  2  0
  2  9  1  0
  3  5  1  0
  4  3  1  0
  4  6  1  0
  5  7  1  0
  6  8  1  0
  7 10  1  0
  8  1  1  0
  8 12  1  0
 10  1  1  0
 10 53  1  0
 10 11  1  6
 13 24  2  0
 14 12  1  0
 14 19  1  0
 15 23  1  0
 15 25  1  0
 16 22  1  0
 16 18  1  0
 17 23  1  0
 18 17  1  0
 19 18  2  0
 20 14  2  0
 21 20  1  0
 21 16  2  0
 22 15  1  0
 23 13  1  0
 25 27  2  0
 26 25  1  0
 28 26  1  0
 29 38  2  0
 29 34  1  0
 30 26  1  0
 30 34  1  0
 31 30  1  0
 32 33  1  0
 32 31  1  0
 33 29  1  0
 34 35  2  0
 35 36  1  0
 37 36  2  0
 38 37  1  0
 39 13  1  0
 39 40  1  0
 39 49  1  0
 40 43  1  0
 41 45  1  0
 41 40  1  0
 42 41  2  0
 45 44  1  0
 47 45  1  0
 47 48  1  0
 47 46  1  0
 49 52  1  1
 49 50  1  0
 51 49  1  0
 54 55  2  0
 54 56  1  0
 55 59  1  0
 56 53  1  0
 56 57  2  0
 57 58  1  0
 57 60  1  0
 58 61  1  0
 59 70  1  0
 59 58  2  0
 62 70  1  0
 63 68  1  0
 64 65  1  0
 64 63  1  0
 66 65  1  0
 66 75  1  0
 66 67  1  0
 68 62  1  0
 68 67  1  0
 69 62  2  0
 70 71  1  0
 72 73  2  0
 73 92  1  0
 74 73  1  0
 74 77  1  0
 75 76  1  0
 75 72  1  0
 76 74  2  0
 77 78  1  0
 78 79  2  0
 80 83  1  0
 80 79  1  0
 81 80  2  0
 82 81  1  0
 82 77  2  0
 83 84  1  0
 84 89  2  0
 84 85  1  0
 85 86  2  0
 86 87  1  0
 87 91  1  0
 88 87  2  0
 89 88  1  0
 90 89  1  0
 92 93  1  0
 93 96  1  0
 93 95  1  0
 94 92  2  0
 97 98  1  0
 97 72  1  0
 99 97  1  0
M  ISO  4   8 101  12 101  62 100  70 100
M  END
>  <TORSDO>  (68) 
F 18

>  <SCORE>  (68) 
-12.178

>  <name>  (68) 
67

>  <ligand_id>  (68) 
67

>  <original_smiles>  (68) 
[H]C(=C1C([H])(Oc2c([H])c([H])c3c(c2[H])C([H])([H])N(C(=O)C([H])(N([H])C(=O)C([H])(N([H])C([H])([H])[H])C([H])([H])[H])C(C([H])([H])[H])(C([H])([H])[H])C([H])([H])[H])C([H])(C(=O)N([H])C2([H])c4c([H])c([H])c([H])c([H])c4C([H])([H])C([H])([H])C2([H])[H])C3([H])[H])C([H])([H])C([H])([H])C([H])([H])C([H])([H])C([H])([H])[N+]1([H])C([H])([H])c1c([H])c([H])c(N([H])C(=O)N2C([H])([H])C([H])([H])C([H])([H])C([H])(n3nc(-c4c([H])c([H])c(Oc5c([H])c([H])c(F)c([H])c5F)c([H])c4[H])c(C(=O)N([H])[H])c3N([H])[H])C2([H])[H])c(C([H])([H])[H])c1C([H])([H])[H])C([H])([H])[H]

>  <smiles>  (68) 
[H]C(=C1C([H])(Oc2c([H])c([H])c3c(c2[H])C([H])([H])N(C(=O)C([H])(N([H])C(=O)C([H])(N([H])C([H])([H])[H])C([H])([H])[H])C(C([H])([H])[H])(C([H])([H])[H])C([H])([H])[H])C([H])(C(=O)N([H])C2([H])c4c([H])c([H])c([H])c([H])c4C([H])([H])C([H])([H])C2([H])[H])C3([H])[H])C([H])([H])C([H])([H])C([H])([H])C([H])([H])C([H])([H])[N+]1([H])C([H])([H])c1c([H])c([H])c(N([H])C(=O)N2C([H])([H])C([H])([H])C([H])([H])C([H])(n3nc(-c4c([H])c([H])c(Oc5c([H])c([H])c(F)c([H])c5F)c([H])c4[H])c(C(=O)N([H])[H])c3N([H])[H])C2([H])[H])c(C([H])([H])[H])c1C([H])([H])[H])C([H])([H])[H]

$$$$
68:0:0
     RDKit          3D

 96105  0  0  1  0  0  0  0  0999 V2000
  -31.0770  -23.1350   21.4750 C   0  0  0  0  0  0  0  0  0  0  0  0
  -32.4170  -23.1820   21.5610 C   0  0  0  0  0  2  0  0  0  0  0  0
  -30.1920  -24.1450   22.2020 C   0  0  0  0  0  2  0  0  0  0  0  0
  -29.8190  -25.3690   21.3390 C   0  0  0  0  0  2  0  0  0  0  0  0
  -29.1370  -23.9230   19.3420 C   0  0  0  0  0  2  0  0  0  0  0  0
  -29.2000  -22.4790   19.9720 C   0  0  0  0  0  2  0  0  0  0  0  0
  -28.7340  -25.1220   20.2710 C   0  0  0  0  0  3  0  0  0  0  0  0
  -30.4230  -22.1480   20.7380 N   0  0  0  0  0  0  0  0  0  0  0  0
  -30.6410  -18.0900   22.0790 C   0  0  0  0  0  3  0  0  0  0  0  0
  -30.4860  -20.4860   22.5070 C   0  0  0  0  0  3  0  0  0  0  0  0
  -30.6770  -18.3090   20.6840 C   0  0  0  0  0  0  0  0  0  0  0  0
  -30.6200  -19.6720   20.2090 C   0  0  0  0  0  0  0  0  0  0  0  0
  -30.5000  -20.7750   21.1230 C   0  0  0  0  0  0  0  0  0  0  0  0
  -30.5590  -19.1640   22.9770 C   0  0  0  0  0  0  0  0  0  0  0  0
  -30.7570  -19.9520   18.7170 C   0  0  0  0  0  1  0  0  0  0  0  0
  -30.5430  -18.8570   24.6740 Cl  0  0  0  0  0  0  0  0  0  0  0  0
  -30.8720  -17.0880   19.7430 C   0  0  0  0  0  2  0  0  0  0  0  0
  -31.0260  -14.5770   19.9350 C   0  0  0  0  0  0  0  0  0  0  0  0
  -30.6080  -12.3450   18.9710 C   0  0  0  0  0  2  0  0  0  0  0  0
  -29.6460  -12.4850   17.7760 C   0  0  0  0  0  2  0  0  0  0  0  0
  -28.1800  -12.4200   18.2470 C   0  0  0  0  0  2  0  0  0  0  0  0
  -27.8930  -13.3340   19.4710 C   0  0  0  0  0  3  0  0  0  0  0  0
  -28.9870  -13.1920   20.5570 C   0  0  0  0  0  2  0  0  0  0  0  0
  -30.2900  -13.4230   19.9210 N   0  0  0  0  0  0  0  0  0  0  0  0
  -32.1810  -14.6030   19.5100 O   0  0  0  0  0  0  0  0  0  0  0  0
  -30.3780  -15.7430   20.1860 N   0  0  0  0  0  0  0  0  0  0  0  0
  -29.4130  -15.6810   20.4680 H   0  0  0  0  0  0  0  0  0  0  0  0
  -25.5500  -14.0320   20.2810 C   0  0  0  0  0  0  0  0  0  0  0  0
  -24.4620  -13.3050   20.6860 C   0  0  0  0  0  0  0  0  0  0  0  0
  -24.8630  -11.9340   20.6330 C   0  0  0  0  0  0  0  0  0  0  0  0
  -26.5490  -13.1100   20.0050 N   0  0  0  0  0  0  0  0  0  0  0  0
  -26.1390  -11.8410   20.2770 N   0  0  0  0  0  0  0  0  0  0  0  0
  -24.0860  -10.7060   20.8470 C   0  0  0  0  0  0  0  0  0  0  0  0
  -24.4940   -9.7270   21.7780 C   0  0  0  0  0  3  0  0  0  0  0  0
  -23.7220   -8.5610   21.9790 C   0  0  0  0  0  3  0  0  0  0  0  0
  -22.5250   -8.3680   21.2470 C   0  0  0  0  0  0  0  0  0  0  0  0
  -22.1340   -9.3370   20.3060 C   0  0  0  0  0  3  0  0  0  0  0  0
  -22.9050  -10.4940   20.1040 C   0  0  0  0  0  3  0  0  0  0  0  0
  -21.7230   -7.2570   21.3600 O   0  0  0  0  0  0  0  0  0  0  0  0
  -21.6490   -6.5370   22.5270 C   0  0  0  0  0  0  0  0  0  0  0  0
  -21.2530   -7.1300   23.7450 C   0  0  0  0  0  3  0  0  0  0  0  0
  -21.1200   -6.3400   24.9040 C   0  0  0  0  0  3  0  0  0  0  0  0
  -21.3730   -4.9560   24.8450 C   0  0  0  0  0  0  0  0  0  0  0  0
  -21.7590   -4.3610   23.6320 C   0  0  0  0  0  3  0  0  0  0  0  0
  -21.8930   -5.1500   22.4760 C   0  0  0  0  0  0  0  0  0  0  0  0
  -22.2450   -4.5680   21.3040 F   0  0  0  0  0  0  0  0  0  0  0  0
  -21.2390   -4.1940   25.9560 F   0  0  0  0  0  0  0  0  0  0  0  0
  -23.0980  -13.8440   21.0070 C   0  0  0  0  0  0  0  0  0  0  0  0
  -22.3730  -13.1970   21.9140 N   0  0  0  0  0  0  0  0  0  0  0  0
  -22.6810  -14.8790   20.4870 O   0  0  0  0  0  0  0  0  0  0  0  0
  -22.7140  -12.3600   22.3640 H   0  0  0  0  0  0  0  0  0  0  0  0
  -21.4620  -13.5520   22.1660 H   0  0  0  0  0  0  0  0  0  0  0  0
  -25.7660  -15.3980   20.1030 N   0  0  0  0  0  0  0  0  0  0  0  0
  -25.0340  -16.0810   20.2650 H   0  0  0  0  0  0  0  0  0  0  0  0
  -26.6120  -15.8120   19.7300 H   0  0  0  0  0  0  0  0  0  0  0  0
  -28.6030  -26.4060   19.5870 O   0  0  0  0  0  0  0  0  0  0  0  0
  -24.7290  -31.3430   23.0730 C   0  0  0  0  0  0  0  0  0  0  0  0
  -27.4140  -27.1160   19.7020 C   0  0  0  0  0  0  0  0  0  0  0  0
  -23.5190  -29.9950   21.3910 C   0  0  0  0  0  3  0  0  0  0  0  0
  -24.9770  -28.5790   19.8430 C   0  0  0  0  0  0  0  0  0  0  0  0
  -26.0270  -30.4350   21.1410 C   0  0  0  0  0  2  0  0  0  0  0  0
  -26.1370  -29.0970   20.4300 C   0  0  0  0  0  0  0  0  0  0  0  0
  -27.3590  -28.3780   20.3500 C   0  0  0  0  0  3  0  0  0  0  0  0
  -26.2340  -26.6140   19.1170 C   0  0  0  0  0  3  0  0  0  0  0  0
  -25.0230  -27.3360   19.1830 C   0  0  0  0  0  3  0  0  0  0  0  0
  -23.7090  -29.3990   19.9690 C   0  0  0  0  0  2  0  0  0  0  0  0
  -24.7780  -30.6050   21.9260 N   0  0  0  0  0  0  0  0  0  0  0  0
  -23.6550  -31.5500   23.6570 O   0  0  0  0  0  0  0  0  0  0  0  0
  -22.9250  -28.9030   22.3110 C   0  0  0  0  0  0  0  0  0  0  0  0
  -21.6230  -28.6200   22.1450 N   0  0  0  0  0  0  0  0  0  0  0  0
  -23.6360  -28.3140   23.1280 O   0  0  0  0  0  0  0  0  0  0  0  0
  -21.1040  -29.1510   21.4590 H   0  0  0  0  0  0  0  0  0  0  0  0
  -18.3820  -27.0450   22.4250 C   0  0  0  0  0  0  0  0  0  0  0  0
  -20.8660  -27.5990   22.8720 C   0  0  0  0  0  3  0  0  0  0  0  0
  -21.1760  -26.1870   22.3270 C   0  0  0  0  0  2  0  0  0  0  0  0
  -20.1940  -25.7290   21.2440 C   0  0  0  0  0  2  0  0  0  0  0  0
  -18.7610  -25.7190   21.7850 C   0  0  0  0  0  2  0  0  0  0  0  0
  -19.3710  -27.9340   22.9200 C   0  0  0  0  0  0  0  0  0  0  0  0
  -18.9670  -29.1690   23.4720 C   0  0  0  0  0  3  0  0  0  0  0  0
  -17.6060  -29.5200   23.5340 C   0  0  0  0  0  3  0  0  0  0  0  0
  -16.6280  -28.6280   23.0580 C   0  0  0  0  0  3  0  0  0  0  0  0
  -17.0170  -27.3930   22.5090 C   0  0  0  0  0  3  0  0  0  0  0  0
  -26.0120  -31.9810   23.6910 C   0  0  0  0  0  3  0  0  0  0  0  0
  -25.6730  -33.3500   24.1050 N   0  0  0  0  0  0  0  0  0  0  0  0
  -26.0330  -34.4550   23.4420 C   0  0  0  0  0  0  0  0  0  0  0  0
  -26.7590  -34.4330   22.4440 O   0  0  0  0  0  0  0  0  0  0  0  0
  -25.0450  -33.4440   24.8900 H   0  0  0  0  0  0  0  0  0  0  0  0
  -24.3080  -36.2560   23.1170 C   0  0  0  0  0  1  0  0  0  0  0  0
  -25.5040  -35.8030   23.9700 C   0  0  0  0  0  3  0  0  0  0  0  0
  -27.5800  -36.6370   24.9840 C   0  0  0  0  0  1  0  0  0  0  0  0
  -26.5310  -36.8700   23.9940 N   0  0  0  0  0  0  0  0  0  0  0  0
  -26.1060  -37.7730   24.1910 H   0  0  0  0  0  0  0  0  0  0  0  0
  -26.5910  -31.1610   24.9090 C   0  0  1  0  0  0  0  0  0  0  0  0
  -25.5370  -30.8380   25.9930 C   0  0  0  0  0  1  0  0  0  0  0  0
  -27.1980  -29.8230   24.4250 C   0  0  0  0  0  1  0  0  0  0  0  0
  -27.7400  -31.9510   25.5770 C   0  0  0  0  0  1  0  0  0  0  0  0
  1  2  2  0
  1  3  1  0
  4  3  1  0
  5  6  1  0
  5  7  1  0
  6  8  1  0
  7 56  1  0
  7  4  1  0
  8 13  1  0
  8  1  1  0
  9 14  1  0
 10 14  2  0
 11  9  2  0
 12 11  1  0
 12 13  2  0
 13 10  1  0
 14 16  1  0
 15 12  1  0
 17 26  1  0
 17 11  1  0
 18 26  1  0
 19 24  1  0
 20 21  1  0
 20 19  1  0
 22 21  1  0
 22 31  1  0
 22 23  1  0
 24 18  1  0
 24 23  1  0
 25 18  2  0
 26 27  1  0
 28 29  2  0
 29 48  1  0
 30 29  1  0
 30 33  1  0
 31 32  1  0
 31 28  1  0
 32 30  2  0
 33 34  1  0
 34 35  2  0
 36 39  1  0
 36 35  1  0
 37 36  2  0
 38 37  1  0
 38 33  2  0
 39 40  1  0
 40 41  1  0
 41 42  2  0
 43 42  1  0
 43 47  1  0
 44 43  2  0
 45 40  2  0
 45 44  1  0
 46 45  1  0
 48 49  1  0
 49 52  1  0
 49 51  1  0
 50 48  2  0
 53 54  1  0
 53 28  1  0
 55 53  1  0
 56 58  1  0
 57 68  2  0
 58 63  1  0
 59 67  1  0
 59 69  1  0
 60 66  1  0
 60 62  1  0
 61 67  1  0
 62 61  1  0
 63 62  2  0
 64 65  1  0
 64 58  2  0
 65 60  2  0
 66 59  1  0
 67 57  1  0
 69 71  2  0
 70 69  1  0
 72 70  1  0
 73 82  2  0
 73 78  1  0
 74 70  1  0
 74 78  1  0
 75 74  1  0
 76 77  1  0
 76 75  1  0
 77 73  1  0
 78 79  2  0
 79 80  1  0
 81 80  2  0
 82 81  1  0
 83 57  1  0
 83 84  1  0
 83 93  1  0
 84 87  1  0
 85 89  1  0
 85 84  1  0
 86 85  2  0
 89 88  1  0
 89 91  1  0
 91 92  1  0
 91 90  1  0
 93 96  1  1
 93 94  1  0
 95 93  1  0
M  ISO  4   7 101  18 100  26 100  56 101
M  END
>  <TORSDO>  (69) 
F 18

>  <SCORE>  (69) 
-10.773

>  <name>  (69) 
68

>  <ligand_id>  (69) 
68

>  <original_smiles>  (69) 
[H]C([H])=C1N(c2c([H])c(Cl)c([H])c(C([H])([H])N([H])C(=O)N3C([H])([H])C([H])([H])C([H])([H])C([H])(n4nc(-c5c([H])c([H])c(Oc6c([H])c([H])c(F)c([H])c6F)c([H])c5[H])c(C(=O)N([H])[H])c4N([H])[H])C3([H])[H])c2C([H])([H])[H])C([H])([H])C([H])([H])C([H])(Oc2c([H])c([H])c3c(c2[H])C([H])([H])N(C(=O)C([H])(N([H])C(=O)C([H])(N([H])C([H])([H])[H])C([H])([H])[H])C(C([H])([H])[H])(C([H])([H])[H])C([H])([H])[H])C([H])(C(=O)N([H])C2([H])c4c([H])c([H])c([H])c([H])c4C([H])([H])C([H])([H])C2([H])[H])C3([H])[H])C([H])([H])C1([H])[H]

>  <smiles>  (69) 
[H]C([H])=C1N(c2c([H])c(Cl)c([H])c(C([H])([H])N([H])C(=O)N3C([H])([H])C([H])([H])C([H])([H])C([H])(n4nc(-c5c([H])c([H])c(Oc6c([H])c([H])c(F)c([H])c6F)c([H])c5[H])c(C(=O)N([H])[H])c4N([H])[H])C3([H])[H])c2C([H])([H])[H])C([H])([H])C([H])([H])C([H])(Oc2c([H])c([H])c3c(c2[H])C([H])([H])N(C(=O)C([H])(N([H])C(=O)C([H])(N([H])C([H])([H])[H])C([H])([H])[H])C(C([H])([H])[H])(C([H])([H])[H])C([H])([H])[H])C([H])(C(=O)N([H])C2([H])c4c([H])c([H])c([H])c([H])c4C([H])([H])C([H])([H])C2([H])[H])C3([H])[H])C([H])([H])C1([H])[H]

$$$$
69:0:0
     RDKit          3D

 98107  0  0  1  0  0  0  0  0999 V2000
  -29.0600  -23.8380   19.9570 C   0  0  0  0  0  3  0  0  0  0  0  0
  -30.2850  -24.1740   19.5060 C   0  0  0  0  0  2  0  0  0  0  0  0
  -27.8570  -23.3310   22.5570 C   0  0  0  0  0  2  0  0  0  0  0  0
  -28.0180  -24.7870   22.0290 C   0  0  0  0  0  2  0  0  0  0  0  0
  -28.8240  -22.2990   21.9160 C   0  0  0  0  0  2  0  0  0  0  0  0
  -28.0430  -24.9300   20.4820 C   0  0  0  0  0  3  0  0  0  0  0  0
  -28.6730  -22.4000   20.4560 N   0  0  2  0  0  4  0  0  0  0  0  0
  -27.6710  -22.5150   20.4830 H   0  0  0  0  0  0  0  0  0  0  0  0
  -32.6100  -23.6870   18.9140 C   0  0  0  0  0  2  0  0  0  0  0  0
  -31.4320  -23.2930   19.4210 C   0  0  0  0  0  3  0  0  0  0  0  0
  -28.3070  -26.3910   20.1910 O   0  0  0  0  0  0  0  0  0  0  0  0
  -24.6540  -31.8710   23.2850 C   0  0  0  0  0  0  0  0  0  0  0  0
  -27.2170  -27.2950   20.1740 C   0  0  0  0  0  0  0  0  0  0  0  0
  -23.4380  -30.4980   21.6350 C   0  0  0  0  0  3  0  0  0  0  0  0
  -24.8740  -28.9550   20.1840 C   0  0  0  0  0  0  0  0  0  0  0  0
  -25.9820  -30.7950   21.4480 C   0  0  0  0  0  2  0  0  0  0  0  0
  -26.0510  -29.4200   20.7850 C   0  0  0  0  0  0  0  0  0  0  0  0
  -27.2270  -28.6020   20.7680 C   0  0  0  0  0  3  0  0  0  0  0  0
  -26.0220  -26.9070   19.5290 C   0  0  0  0  0  3  0  0  0  0  0  0
  -24.8650  -27.7080   19.5440 C   0  0  0  0  0  3  0  0  0  0  0  0
  -23.6430  -29.8390   20.2460 C   0  0  0  0  0  2  0  0  0  0  0  0
  -24.7100  -31.0730   22.1790 N   0  0  0  0  0  0  0  0  0  0  0  0
  -23.5740  -32.1480   23.8270 O   0  0  0  0  0  0  0  0  0  0  0  0
  -22.7720  -29.4730   22.5870 C   0  0  0  0  0  0  0  0  0  0  0  0
  -21.4470  -29.2910   22.4510 N   0  0  0  0  0  0  0  0  0  0  0  0
  -23.4480  -28.8470   23.4060 O   0  0  0  0  0  0  0  0  0  0  0  0
  -20.9610  -29.8500   21.7640 H   0  0  0  0  0  0  0  0  0  0  0  0
  -18.0760  -28.0600   22.9140 C   0  0  0  0  0  0  0  0  0  0  0  0
  -20.6290  -28.3460   23.2130 C   0  0  0  0  0  3  0  0  0  0  0  0
  -20.7520  -26.9150   22.6400 C   0  0  0  0  0  2  0  0  0  0  0  0
  -19.6640  -26.5810   21.6130 C   0  0  0  0  0  2  0  0  0  0  0  0
  -18.2750  -26.7120   22.2410 C   0  0  0  0  0  2  0  0  0  0  0  0
  -19.1820  -28.8330   23.3560 C   0  0  0  0  0  0  0  0  0  0  0  0
  -18.9430  -30.0940   23.9450 C   0  0  0  0  0  3  0  0  0  0  0  0
  -17.6300  -30.5810   24.0960 C   0  0  0  0  0  3  0  0  0  0  0  0
  -16.5400  -29.8050   23.6690 C   0  0  0  0  0  3  0  0  0  0  0  0
  -16.7630  -28.5460   23.0840 C   0  0  0  0  0  3  0  0  0  0  0  0
  -25.9410  -32.4920   23.9090 C   0  0  0  0  0  3  0  0  0  0  0  0
  -26.4430  -31.7210   25.1920 C   0  0  1  0  0  0  0  0  0  0  0  0
  -25.3420  -31.5020   26.2560 C   0  0  0  0  0  1  0  0  0  0  0  0
  -27.0110  -30.3340   24.8120 C   0  0  0  0  0  1  0  0  0  0  0  0
  -27.6000  -32.5050   25.8550 C   0  0  0  0  0  1  0  0  0  0  0  0
  -25.6460  -33.8960   24.2340 N   0  0  0  0  0  0  0  0  0  0  0  0
  -25.9670  -34.9410   23.4590 C   0  0  0  0  0  0  0  0  0  0  0  0
  -26.6130  -34.8250   22.4140 O   0  0  0  0  0  0  0  0  0  0  0  0
  -25.0710  -34.0590   25.0460 H   0  0  0  0  0  0  0  0  0  0  0  0
  -24.2290  -36.7330   23.1480 C   0  0  0  0  0  1  0  0  0  0  0  0
  -25.5000  -36.3360   23.9170 C   0  0  0  0  0  3  0  0  0  0  0  0
  -27.6620  -37.2320   24.6590 C   0  0  0  0  0  1  0  0  0  0  0  0
  -26.5280  -37.3860   23.7510 N   0  0  0  0  0  0  0  0  0  0  0  0
  -26.1280  -38.3090   23.8960 H   0  0  0  0  0  0  0  0  0  0  0  0
  -28.4870  -21.0800   19.6580 C   0  0  0  0  0  2  0  0  0  0  0  0
  -29.3440  -18.5480   20.1590 C   0  0  0  0  0  3  0  0  0  0  0  0
  -31.0440  -17.5000   18.7920 C   0  0  0  0  0  3  0  0  0  0  0  0
  -29.4920  -19.8370   19.4740 C   0  0  0  0  0  0  0  0  0  0  0  0
  -30.4010  -19.8420   18.3750 C   0  0  0  0  0  0  0  0  0  0  0  0
  -30.0850  -17.3350   19.8150 C   0  0  0  0  0  0  0  0  0  0  0  0
  -31.2000  -18.7070   18.0930 C   0  0  0  0  0  0  0  0  0  0  0  0
  -30.4670  -20.9820   17.3610 C   0  0  0  0  0  1  0  0  0  0  0  0
  -32.3430  -18.7290   16.7920 Cl  0  0  0  0  0  0  0  0  0  0  0  0
  -30.5790  -14.7840   20.2050 C   0  0  0  0  0  0  0  0  0  0  0  0
  -30.3410  -12.4830   19.2770 C   0  0  0  0  0  2  0  0  0  0  0  0
  -29.3990  -12.5340   18.0540 C   0  0  0  0  0  2  0  0  0  0  0  0
  -27.9330  -12.3780   18.4980 C   0  0  0  0  0  2  0  0  0  0  0  0
  -27.5700  -13.2950   19.6970 C   0  0  0  0  0  3  0  0  0  0  0  0
  -28.6370  -13.2460   20.8120 C   0  0  0  0  0  2  0  0  0  0  0  0
  -29.9290  -13.5700   20.1980 N   0  0  0  0  0  0  0  0  0  0  0  0
  -31.7750  -14.8150   19.9060 O   0  0  0  0  0  0  0  0  0  0  0  0
  -29.8440  -15.9610   20.3650 N   0  0  0  0  0  0  0  0  0  0  0  0
  -28.9320  -15.8180   20.7700 H   0  0  0  0  0  0  0  0  0  0  0  0
  -25.1970  -13.9030   20.4530 C   0  0  0  0  0  0  0  0  0  0  0  0
  -24.1310  -13.1380   20.8380 C   0  0  0  0  0  0  0  0  0  0  0  0
  -24.5840  -11.7840   20.8080 C   0  0  0  0  0  0  0  0  0  0  0  0
  -26.2310  -13.0170   20.2070 N   0  0  0  0  0  0  0  0  0  0  0  0
  -25.8710  -11.7360   20.4850 N   0  0  0  0  0  0  0  0  0  0  0  0
  -23.8500  -10.5270   21.0110 C   0  0  0  0  0  0  0  0  0  0  0  0
  -24.2880   -9.5570   21.9410 C   0  0  0  0  0  3  0  0  0  0  0  0
  -23.5540   -8.3670   22.1320 C   0  0  0  0  0  3  0  0  0  0  0  0
  -22.3680   -8.1370   21.3930 C   0  0  0  0  0  0  0  0  0  0  0  0
  -21.9510   -9.0950   20.4520 C   0  0  0  0  0  3  0  0  0  0  0  0
  -22.6850  -10.2770   20.2600 C   0  0  0  0  0  3  0  0  0  0  0  0
  -21.6050   -6.9980   21.4930 O   0  0  0  0  0  0  0  0  0  0  0  0
  -21.5780   -6.2500   22.6430 C   0  0  0  0  0  0  0  0  0  0  0  0
  -21.1550   -6.7930   23.8760 C   0  0  0  0  0  3  0  0  0  0  0  0
  -21.0760   -5.9700   25.0180 C   0  0  0  0  0  3  0  0  0  0  0  0
  -21.4070   -4.6060   24.9270 C   0  0  0  0  0  0  0  0  0  0  0  0
  -21.8220   -4.0620   23.6990 C   0  0  0  0  0  3  0  0  0  0  0  0
  -21.9040   -4.8820   22.5590 C   0  0  0  0  0  0  0  0  0  0  0  0
  -22.2830   -4.3470   21.3730 F   0  0  0  0  0  0  0  0  0  0  0  0
  -21.3240   -3.8130   26.0210 F   0  0  0  0  0  0  0  0  0  0  0  0
  -22.7400  -13.6270   21.1220 C   0  0  0  0  0  0  0  0  0  0  0  0
  -22.0170  -12.9420   22.0020 N   0  0  0  0  0  0  0  0  0  0  0  0
  -22.3020  -14.6500   20.5980 O   0  0  0  0  0  0  0  0  0  0  0  0
  -22.3840  -12.1140   22.4480 H   0  0  0  0  0  0  0  0  0  0  0  0
  -21.0850  -13.2520   22.2350 H   0  0  0  0  0  0  0  0  0  0  0  0
  -25.3680  -15.2720   20.2650 N   0  0  0  0  0  0  0  0  0  0  0  0
  -24.6020  -15.9290   20.3760 H   0  0  0  0  0  0  0  0  0  0  0  0
  -26.2060  -15.7010   19.8920 H   0  0  0  0  0  0  0  0  0  0  0  0
  1  2  1  0
  1  7  1  0
  1  6  1  0
  4  3  1  0
  5  3  1  0
  6 11  1  0
  6  4  1  0
  7  8  1  1
  7  5  1  0
  9 10  2  0
 10  2  1  0
 12 23  2  0
 13 11  1  0
 13 18  1  0
 14 22  1  0
 14 24  1  0
 15 21  1  0
 15 17  1  0
 16 22  1  0
 17 16  1  0
 18 17  2  0
 19 20  1  0
 19 13  2  0
 20 15  2  0
 21 14  1  0
 22 12  1  0
 24 26  2  0
 25 24  1  0
 27 25  1  0
 28 37  2  0
 28 33  1  0
 29 25  1  0
 29 33  1  0
 30 29  1  0
 31 32  1  0
 31 30  1  0
 32 28  1  0
 33 34  2  0
 34 35  1  0
 36 35  2  0
 37 36  1  0
 38 12  1  0
 38 43  1  0
 38 39  1  0
 39 42  1  1
 39 40  1  0
 41 39  1  0
 43 46  1  0
 44 48  1  0
 44 43  1  0
 45 44  2  0
 48 47  1  0
 50 51  1  0
 50 48  1  0
 50 49  1  0
 52  7  1  0
 54 57  2  0
 55 52  1  0
 55 53  2  0
 56 55  1  0
 57 53  1  0
 57 69  1  0
 58 56  2  0
 58 54  1  0
 59 56  1  0
 60 58  1  0
 61 69  1  0
 62 67  1  0
 63 64  1  0
 63 62  1  0
 65 64  1  0
 65 74  1  0
 65 66  1  0
 67 61  1  0
 67 66  1  0
 68 61  2  0
 69 70  1  0
 71 72  2  0
 72 91  1  0
 73 72  1  0
 73 76  1  0
 74 71  1  0
 74 75  1  0
 75 73  2  0
 76 77  1  0
 77 78  2  0
 79 82  1  0
 79 78  1  0
 80 79  2  0
 81 80  1  0
 81 76  2  0
 82 83  1  0
 83 84  1  0
 84 85  2  0
 86 85  1  0
 86 90  1  0
 87 86  2  0
 88 83  2  0
 88 87  1  0
 89 88  1  0
 91 92  1  0
 92 95  1  0
 92 94  1  0
 93 91  2  0
 96 97  1  0
 96 71  1  0
 98 96  1  0
M  ISO  4   6 101  11 101  61 100  69 100
M  END
>  <TORSDO>  (70) 
F 19

>  <SCORE>  (70) 
-13.961

>  <name>  (70) 
69

>  <ligand_id>  (70) 
69

>  <original_smiles>  (70) 
[H]C([H])=C([H])C([H])=C1C([H])(Oc2c([H])c([H])c3c(c2[H])C([H])([H])N(C(=O)C([H])(N([H])C(=O)C([H])(N([H])C([H])([H])[H])C([H])([H])[H])C(C([H])([H])[H])(C([H])([H])[H])C([H])([H])[H])C([H])(C(=O)N([H])C2([H])c4c([H])c([H])c([H])c([H])c4C([H])([H])C([H])([H])C2([H])[H])C3([H])[H])C([H])([H])C([H])([H])C([H])([H])[N+]1([H])C([H])([H])c1c([H])c(N([H])C(=O)N2C([H])([H])C([H])([H])C([H])([H])C([H])(n3nc(-c4c([H])c([H])c(Oc5c([H])c([H])c(F)c([H])c5F)c([H])c4[H])c(C(=O)N([H])[H])c3N([H])[H])C2([H])[H])c([H])c(Cl)c1C([H])([H])[H]

>  <smiles>  (70) 
[H]C([H])=C([H])C([H])=C1C([H])(Oc2c([H])c([H])c3c(c2[H])C([H])([H])N(C(=O)C([H])(N([H])C(=O)C([H])(N([H])C([H])([H])[H])C([H])([H])[H])C(C([H])([H])[H])(C([H])([H])[H])C([H])([H])[H])C([H])(C(=O)N([H])C2([H])c4c([H])c([H])c([H])c([H])c4C([H])([H])C([H])([H])C2([H])[H])C3([H])[H])C([H])([H])C([H])([H])C([H])([H])[N+]1([H])C([H])([H])c1c([H])c(N([H])C(=O)N2C([H])([H])C([H])([H])C([H])([H])C([H])(n3nc(-c4c([H])c([H])c(Oc5c([H])c([H])c(F)c([H])c5F)c([H])c4[H])c(C(=O)N([H])[H])c3N([H])[H])C2([H])[H])c([H])c(Cl)c1C([H])([H])[H]

$$$$
70:0:0
     RDKit          3D

 96105  0  0  1  0  0  0  0  0999 V2000
  -29.8110  -21.7020   21.2220 C   0  0  0  0  0  2  0  0  0  0  0  0
  -30.9080  -17.9020   21.1380 C   0  0  0  0  0  3  0  0  0  0  0  0
  -30.9200  -19.3210   21.3040 C   0  0  0  0  0  0  0  0  0  0  0  0
  -28.8330  -19.4920   20.0930 C   0  0  0  0  0  0  0  0  0  0  0  0
  -29.8710  -20.1640   20.8090 C   0  0  0  0  0  0  0  0  0  0  0  0
  -28.8700  -18.0680   19.8730 C   0  0  0  0  0  0  0  0  0  0  0  0
  -29.8730  -17.2300   20.4530 C   0  0  0  0  0  0  0  0  0  0  0  0
  -32.0720  -19.9030   22.1040 C   0  0  0  0  0  1  0  0  0  0  0  0
  -27.6190  -20.2850   19.6060 C   0  0  0  0  0  1  0  0  0  0  0  0
  -27.7990  -17.4460   18.9890 C   0  0  0  0  0  1  0  0  0  0  0  0
  -30.5890  -14.7200   20.2500 C   0  0  0  0  0  0  0  0  0  0  0  0
  -30.3820  -12.4920   19.1680 C   0  0  0  0  0  2  0  0  0  0  0  0
  -29.4030  -12.6300   17.9810 C   0  0  0  0  0  2  0  0  0  0  0  0
  -27.9390  -12.4600   18.4430 C   0  0  0  0  0  2  0  0  0  0  0  0
  -27.6080  -13.3000   19.7030 C   0  0  0  0  0  3  0  0  0  0  0  0
  -28.6950  -13.1320   20.7860 C   0  0  0  0  0  2  0  0  0  0  0  0
  -29.9870  -13.4900   20.1780 N   0  0  0  0  0  0  0  0  0  0  0  0
  -31.7650  -14.8830   19.9100 O   0  0  0  0  0  0  0  0  0  0  0  0
  -29.7300  -15.7690   20.4660 N   0  0  0  0  0  0  0  0  0  0  0  0
  -28.7810  -15.4540   20.5890 H   0  0  0  0  0  0  0  0  0  0  0  0
  -25.2300  -13.8970   20.4760 C   0  0  0  0  0  0  0  0  0  0  0  0
  -24.1690  -13.1250   20.8580 C   0  0  0  0  0  0  0  0  0  0  0  0
  -24.6300  -11.7750   20.8070 C   0  0  0  0  0  0  0  0  0  0  0  0
  -26.2700  -13.0180   20.2130 N   0  0  0  0  0  0  0  0  0  0  0  0
  -25.9140  -11.7350   20.4750 N   0  0  0  0  0  0  0  0  0  0  0  0
  -23.9070  -10.5130   21.0010 C   0  0  0  0  0  0  0  0  0  0  0  0
  -24.3490   -9.5440   21.9260 C   0  0  0  0  0  3  0  0  0  0  0  0
  -23.6270   -8.3450   22.1050 C   0  0  0  0  0  3  0  0  0  0  0  0
  -22.4480   -8.1090   21.3590 C   0  0  0  0  0  0  0  0  0  0  0  0
  -22.0240   -9.0680   20.4230 C   0  0  0  0  0  3  0  0  0  0  0  0
  -22.7480  -10.2590   20.2420 C   0  0  0  0  0  3  0  0  0  0  0  0
  -21.6940   -6.9650   21.4510 O   0  0  0  0  0  0  0  0  0  0  0  0
  -21.6470   -6.2260   22.6060 C   0  0  0  0  0  0  0  0  0  0  0  0
  -21.2010   -6.7800   23.8260 C   0  0  0  0  0  3  0  0  0  0  0  0
  -21.1000   -5.9660   24.9730 C   0  0  0  0  0  3  0  0  0  0  0  0
  -21.4370   -4.6000   24.9000 C   0  0  0  0  0  0  0  0  0  0  0  0
  -21.8780   -4.0480   23.6840 C   0  0  0  0  0  3  0  0  0  0  0  0
  -21.9790   -4.8590   22.5400 C   0  0  0  0  0  0  0  0  0  0  0  0
  -22.3830   -4.3160   21.3670 F   0  0  0  0  0  0  0  0  0  0  0  0
  -21.3340   -3.8160   25.9980 F   0  0  0  0  0  0  0  0  0  0  0  0
  -22.7770  -13.6050   21.1570 C   0  0  0  0  0  0  0  0  0  0  0  0
  -22.0590  -12.9030   22.0250 N   0  0  0  0  0  0  0  0  0  0  0  0
  -22.3370  -14.6390   20.6560 O   0  0  0  0  0  0  0  0  0  0  0  0
  -22.4270  -12.0660   22.4530 H   0  0  0  0  0  0  0  0  0  0  0  0
  -21.1290  -13.2110   22.2690 H   0  0  0  0  0  0  0  0  0  0  0  0
  -25.3850  -15.2660   20.3070 N   0  0  0  0  0  0  0  0  0  0  0  0
  -24.6090  -15.9110   20.4140 H   0  0  0  0  0  0  0  0  0  0  0  0
  -26.2200  -15.7030   19.9460 H   0  0  0  0  0  0  0  0  0  0  0  0
  -29.0390  -24.0780   20.8050 C   0  0  0  0  0  0  0  0  0  0  0  0
  -29.0430  -23.6100   17.9430 C   0  0  0  0  0  2  0  0  0  0  0  0
  -28.9540  -25.0640   18.4230 C   0  0  0  0  0  2  0  0  0  0  0  0
  -29.8820  -22.7480   18.9070 C   0  0  0  0  0  2  0  0  0  0  0  0
  -28.3790  -25.1460   19.8430 C   0  0  0  0  0  3  0  0  0  0  0  0
  -29.4490  -22.8520   20.3090 N   0  0  0  0  0  0  0  0  0  0  0  0
  -29.0760  -24.3280   22.0140 O   0  0  0  0  0  0  0  0  0  0  0  0
  -28.4170  -26.5560   20.2980 O   0  0  0  0  0  0  0  0  0  0  0  0
  -24.6100  -31.8910   23.2490 C   0  0  0  0  0  0  0  0  0  0  0  0
  -27.2770  -27.3730   20.1960 C   0  0  0  0  0  0  0  0  0  0  0  0
  -23.4230  -30.4860   21.6000 C   0  0  0  0  0  3  0  0  0  0  0  0
  -24.8920  -28.9540   20.1760 C   0  0  0  0  0  0  0  0  0  0  0  0
  -25.9570  -30.8310   21.4260 C   0  0  0  0  0  2  0  0  0  0  0  0
  -26.0510  -29.4550   20.7800 C   0  0  0  0  0  0  0  0  0  0  0  0
  -27.2410  -28.6730   20.7880 C   0  0  0  0  0  3  0  0  0  0  0  0
  -26.0980  -26.9380   19.5430 C   0  0  0  0  0  3  0  0  0  0  0  0
  -24.9160  -27.7000   19.5500 C   0  0  0  0  0  3  0  0  0  0  0  0
  -23.6470  -29.8140   20.2200 C   0  0  0  0  0  2  0  0  0  0  0  0
  -24.6820  -31.0870   22.1490 N   0  0  0  0  0  0  0  0  0  0  0  0
  -23.5230  -32.1600   23.7810 O   0  0  0  0  0  0  0  0  0  0  0  0
  -22.7660  -29.4620   22.5560 C   0  0  0  0  0  0  0  0  0  0  0  0
  -21.4390  -29.2820   22.4290 N   0  0  0  0  0  0  0  0  0  0  0  0
  -23.4460  -28.8330   23.3710 O   0  0  0  0  0  0  0  0  0  0  0  0
  -20.9490  -29.8420   21.7460 H   0  0  0  0  0  0  0  0  0  0  0  0
  -18.0620  -28.0900   22.9360 C   0  0  0  0  0  0  0  0  0  0  0  0
  -20.6230  -28.3410   23.1980 C   0  0  0  0  0  3  0  0  0  0  0  0
  -20.7170  -26.9120   22.6130 C   0  0  0  0  0  2  0  0  0  0  0  0
  -19.6110  -26.6000   21.6010 C   0  0  0  0  0  2  0  0  0  0  0  0
  -18.2320  -26.7450   22.2510 C   0  0  0  0  0  2  0  0  0  0  0  0
  -19.1840  -28.8460   23.3660 C   0  0  0  0  0  0  0  0  0  0  0  0
  -18.9710  -30.1070   23.9660 C   0  0  0  0  0  3  0  0  0  0  0  0
  -17.6680  -30.6080   24.1420 C   0  0  0  0  0  3  0  0  0  0  0  0
  -16.5600  -29.8470   23.7290 C   0  0  0  0  0  3  0  0  0  0  0  0
  -16.7580  -28.5910   23.1310 C   0  0  0  0  0  3  0  0  0  0  0  0
  -25.8870  -32.5300   23.8770 C   0  0  0  0  0  3  0  0  0  0  0  0
  -25.5760  -33.9320   24.1890 N   0  0  0  0  0  0  0  0  0  0  0  0
  -25.9150  -34.9760   23.4200 C   0  0  0  0  0  0  0  0  0  0  0  0
  -26.5940  -34.8620   22.3960 O   0  0  0  0  0  0  0  0  0  0  0  0
  -24.9850  -34.0970   24.9900 H   0  0  0  0  0  0  0  0  0  0  0  0
  -24.1980  -36.7670   23.0180 C   0  0  0  0  0  1  0  0  0  0  0  0
  -25.4230  -36.3700   23.8570 C   0  0  0  0  0  3  0  0  0  0  0  0
  -27.5430  -37.2570   24.7220 C   0  0  0  0  0  1  0  0  0  0  0  0
  -26.4600  -37.4200   23.7540 N   0  0  0  0  0  0  0  0  0  0  0  0
  -26.0530  -38.3420   23.8880 H   0  0  0  0  0  0  0  0  0  0  0  0
  -26.3930  -31.7730   25.1660 C   0  0  1  0  0  0  0  0  0  0  0  0
  -25.2920  -31.5440   26.2260 C   0  0  0  0  0  1  0  0  0  0  0  0
  -26.9800  -30.3930   24.7900 C   0  0  0  0  0  1  0  0  0  0  0  0
  -27.5390  -32.5760   25.8290 C   0  0  0  0  0  1  0  0  0  0  0  0
  2  3  1  0
  3  8  1  0
  4  5  1  0
  5  1  1  0
  5  3  2  0
  6  4  2  0
  6  7  1  0
  7 19  1  0
  7  2  2  0
  9  4  1  0
 10  6  1  0
 11 19  1  0
 12 17  1  0
 13 14  1  0
 13 12  1  0
 15 14  1  0
 15 24  1  0
 15 16  1  0
 17 11  1  0
 17 16  1  0
 18 11  2  0
 19 20  1  0
 21 22  2  0
 22 41  1  0
 23 22  1  0
 23 26  1  0
 24 25  1  0
 24 21  1  0
 25 23  2  0
 26 27  1  0
 27 28  2  0
 29 32  1  0
 29 28  1  0
 30 29  2  0
 31 30  1  0
 31 26  2  0
 32 33  1  0
 33 34  1  0
 34 35  2  0
 36 35  1  0
 36 40  1  0
 37 36  2  0
 38 33  2  0
 38 37  1  0
 39 38  1  0
 41 42  1  0
 42 45  1  0
 42 44  1  0
 43 41  2  0
 46 47  1  0
 46 21  1  0
 48 46  1  0
 49 55  2  0
 50 51  1  0
 50 52  1  0
 51 53  1  0
 52 54  1  0
 53 56  1  0
 53 49  1  0
 54 49  1  0
 54  1  1  0
 57 68  2  0
 58 56  1  0
 58 63  1  0
 59 67  1  0
 59 69  1  0
 60 66  1  0
 60 62  1  0
 61 67  1  0
 62 63  2  0
 62 61  1  0
 64 65  1  0
 64 58  2  0
 65 60  2  0
 66 59  1  0
 67 57  1  0
 69 71  2  0
 70 69  1  0
 72 70  1  0
 73 82  2  0
 73 78  1  0
 74 70  1  0
 74 78  1  0
 75 74  1  0
 76 77  1  0
 76 75  1  0
 77 73  1  0
 78 79  2  0
 79 80  1  0
 81 80  2  0
 82 81  1  0
 83 57  1  0
 83 84  1  0
 83 93  1  0
 84 87  1  0
 85 89  1  0
 85 84  1  0
 86 85  2  0
 89 88  1  0
 91 89  1  0
 91 92  1  0
 91 90  1  0
 93 96  1  1
 93 94  1  0
 95 93  1  0
M  ISO  4  11 100  19 100  53 101  56 101
M  END
>  <TORSDO>  (71) 
F 18

>  <SCORE>  (71) 
-15.379

>  <name>  (71) 
70

>  <ligand_id>  (71) 
70

>  <original_smiles>  (71) 
[H]c1c([H])c([H])c2c(c1[H])C([H])([H])C([H])([H])C([H])([H])C2([H])N([H])C(=O)C1([H])N(C(=O)C([H])(N([H])C(=O)C([H])(N([H])C([H])([H])[H])C([H])([H])[H])C(C([H])([H])[H])(C([H])([H])[H])C([H])([H])[H])C([H])([H])c2c([H])c(OC3([H])C(=O)N(C([H])([H])c4c(C([H])([H])[H])c([H])c(N([H])C(=O)N5C([H])([H])C([H])([H])C([H])([H])C([H])(n6nc(-c7c([H])c([H])c(Oc8c([H])c([H])c(F)c([H])c8F)c([H])c7[H])c(C(=O)N([H])[H])c6N([H])[H])C5([H])[H])c(C([H])([H])[H])c4C([H])([H])[H])C([H])([H])C([H])([H])C3([H])[H])c([H])c([H])c2C1([H])[H]

>  <smiles>  (71) 
[H]c1c([H])c([H])c2c(c1[H])C([H])([H])C([H])([H])C([H])([H])C2([H])N([H])C(=O)C1([H])N(C(=O)C([H])(N([H])C(=O)C([H])(N([H])C([H])([H])[H])C([H])([H])[H])C(C([H])([H])[H])(C([H])([H])[H])C([H])([H])[H])C([H])([H])c2c([H])c(OC3([H])C(=O)N(C([H])([H])c4c(C([H])([H])[H])c([H])c(N([H])C(=O)N5C([H])([H])C([H])([H])C([H])([H])C([H])(n6nc(-c7c([H])c([H])c(Oc8c([H])c([H])c(F)c([H])c8F)c([H])c7[H])c(C(=O)N([H])[H])c6N([H])[H])C5([H])[H])c(C([H])([H])[H])c4C([H])([H])[H])C([H])([H])C([H])([H])C3([H])[H])c([H])c([H])c2C1([H])[H]

$$$$
71:0:0
     RDKit          3D

 95103  0  0  1  0  0  0  0  0999 V2000
  -29.3440  -21.9470   22.4200 C   0  0  0  0  0  2  0  0  0  0  0  0
  -31.0880  -20.1210   22.2050 C   0  0  0  0  0  3  0  0  0  0  0  0
  -29.5050  -18.6050   20.4490 C   0  0  0  0  0  3  0  0  0  0  0  0
  -31.5920  -18.9240   21.6610 C   0  0  0  0  0  0  0  0  0  0  0  0
  -29.8120  -20.6010   21.8520 C   0  0  0  0  0  0  0  0  0  0  0  0
  -30.8100  -18.1580   20.7570 C   0  0  0  0  0  0  0  0  0  0  0  0
  -29.0080  -19.8140   20.9880 C   0  0  0  0  0  0  0  0  0  0  0  0
  -33.0010  -18.5020   22.0400 C   0  0  0  0  0  1  0  0  0  0  0  0
  -27.4130  -20.3090   20.5440 Cl  0  0  0  0  0  0  0  0  0  0  0  0
  -31.4290  -16.9180   20.1070 C   0  0  0  0  0  2  0  0  0  0  0  0
  -31.1250  -14.5950   19.3920 C   0  0  0  0  0  0  0  0  0  0  0  0
  -30.7240  -12.3150   18.5490 C   0  0  0  0  0  2  0  0  0  0  0  0
  -29.6840  -12.3220   17.4160 C   0  0  0  0  0  2  0  0  0  0  0  0
  -28.2590  -12.2050   17.9940 C   0  0  0  0  0  2  0  0  0  0  0  0
  -28.0000  -13.2060   19.1520 C   0  0  0  0  0  3  0  0  0  0  0  0
  -29.1570  -13.2030   20.1800 C   0  0  0  0  0  2  0  0  0  0  0  0
  -30.4200  -13.4310   19.4600 N   0  0  0  0  0  0  0  0  0  0  0  0
  -32.1280  -14.7080   18.6840 O   0  0  0  0  0  0  0  0  0  0  0  0
  -30.6850  -15.6470   20.1050 N   0  0  0  0  0  0  0  0  0  0  0  0
  -29.8600  -15.5480   20.6750 H   0  0  0  0  0  0  0  0  0  0  0  0
  -25.7360  -13.8630   20.1880 C   0  0  0  0  0  0  0  0  0  0  0  0
  -24.6950  -13.1130   20.6690 C   0  0  0  0  0  0  0  0  0  0  0  0
  -25.0960  -11.7490   20.5320 C   0  0  0  0  0  0  0  0  0  0  0  0
  -26.7090  -12.9560   19.7930 N   0  0  0  0  0  0  0  0  0  0  0  0
  -26.3340  -11.6780   20.0590 N   0  0  0  0  0  0  0  0  0  0  0  0
  -24.3530  -10.5060   20.7770 C   0  0  0  0  0  0  0  0  0  0  0  0
  -24.7780   -9.5670   21.7440 C   0  0  0  0  0  3  0  0  0  0  0  0
  -24.0370   -8.3880   21.9710 C   0  0  0  0  0  3  0  0  0  0  0  0
  -22.8560   -8.1380   21.2320 C   0  0  0  0  0  0  0  0  0  0  0  0
  -22.4490   -9.0640   20.2540 C   0  0  0  0  0  3  0  0  0  0  0  0
  -23.1920  -10.2340   20.0250 C   0  0  0  0  0  3  0  0  0  0  0  0
  -22.0870   -7.0070   21.3650 O   0  0  0  0  0  0  0  0  0  0  0  0
  -21.8640   -6.4280   22.5890 C   0  0  0  0  0  0  0  0  0  0  0  0
  -21.3050   -7.1520   23.6650 C   0  0  0  0  0  3  0  0  0  0  0  0
  -21.0270   -6.5000   24.8840 C   0  0  0  0  0  3  0  0  0  0  0  0
  -21.3000   -5.1260   25.0250 C   0  0  0  0  0  0  0  0  0  0  0  0
  -21.8530   -4.4030   23.9540 C   0  0  0  0  0  3  0  0  0  0  0  0
  -22.1310   -5.0530   22.7380 C   0  0  0  0  0  0  0  0  0  0  0  0
  -22.6420   -4.3450   21.7030 F   0  0  0  0  0  0  0  0  0  0  0  0
  -21.0280   -4.4990   26.1940 F   0  0  0  0  0  0  0  0  0  0  0  0
  -23.3610  -13.6250   21.1310 C   0  0  0  0  0  0  0  0  0  0  0  0
  -22.7340  -12.9440   22.0840 N   0  0  0  0  0  0  0  0  0  0  0  0
  -22.8870  -14.6670   20.6800 O   0  0  0  0  0  0  0  0  0  0  0  0
  -23.1330  -12.1020   22.4750 H   0  0  0  0  0  0  0  0  0  0  0  0
  -21.8430  -13.2730   22.4290 H   0  0  0  0  0  0  0  0  0  0  0  0
  -25.9230  -15.2340   20.0360 N   0  0  0  0  0  0  0  0  0  0  0  0
  -25.1910  -15.8970   20.2690 H   0  0  0  0  0  0  0  0  0  0  0  0
  -26.7270  -15.6690   19.6000 H   0  0  0  0  0  0  0  0  0  0  0  0
  -29.2660  -23.0340   21.4090 N   0  0  0  0  0  4  0  0  0  0  0  0
  -28.5410  -23.6560   21.7330 H   0  0  0  0  0  0  0  0  0  0  0  0
  -28.9560  -22.6340   20.5390 H   0  0  0  0  0  0  0  0  0  0  0  0
  -30.5080  -23.8270   21.2040 C   0  0  0  0  0  2  0  0  0  0  0  0
  -30.3530  -25.0720   20.2870 C   0  0  0  0  0  2  0  0  0  0  0  0
  -29.3070  -26.1130   20.7440 C   0  0  0  0  0  2  0  0  0  0  0  0
  -29.2620  -27.2640   19.8840 O   0  0  0  0  0  0  0  0  0  0  0  0
  -24.6480  -31.5880   23.1450 C   0  0  0  0  0  0  0  0  0  0  0  0
  -28.0280  -27.8690   19.8600 C   0  0  0  0  0  0  0  0  0  0  0  0
  -23.7270  -30.1830   21.3290 C   0  0  0  0  0  3  0  0  0  0  0  0
  -25.4470  -29.0090   19.8560 C   0  0  0  0  0  0  0  0  0  0  0  0
  -26.1760  -30.9210   21.2930 C   0  0  0  0  0  2  0  0  0  0  0  0
  -26.4900  -29.6410   20.5480 C   0  0  0  0  0  0  0  0  0  0  0  0
  -27.7870  -29.0780   20.5490 C   0  0  0  0  0  3  0  0  0  0  0  0
  -26.9740  -27.2520   19.1570 C   0  0  0  0  0  3  0  0  0  0  0  0
  -25.6850  -27.8140   19.1520 C   0  0  0  0  0  3  0  0  0  0  0  0
  -24.0890  -29.6700   19.9100 C   0  0  0  0  0  2  0  0  0  0  0  0
  -24.8640  -30.9100   21.9820 N   0  0  0  0  0  0  0  0  0  0  0  0
  -23.5190  -31.6510   23.6480 O   0  0  0  0  0  0  0  0  0  0  0  0
  -23.1960  -28.9960   22.1640 C   0  0  0  0  0  0  0  0  0  0  0  0
  -21.9270  -28.6240   21.9370 N   0  0  0  0  0  0  0  0  0  0  0  0
  -23.9260  -28.4170   22.9740 O   0  0  0  0  0  0  0  0  0  0  0  0
  -21.3930  -29.1500   21.2580 H   0  0  0  0  0  0  0  0  0  0  0  0
  -18.7580  -26.8990   22.1320 C   0  0  0  0  0  0  0  0  0  0  0  0
  -21.2280  -27.5120   22.5800 C   0  0  0  0  0  3  0  0  0  0  0  0
  -21.5800  -26.1690   21.9000 C   0  0  0  0  0  2  0  0  0  0  0  0
  -20.5910  -25.7760   20.7980 C   0  0  0  0  0  2  0  0  0  0  0  0
  -19.1730  -25.6570   21.3640 C   0  0  0  0  0  2  0  0  0  0  0  0
  -19.7240  -27.7800   22.6910 C   0  0  0  0  0  0  0  0  0  0  0  0
  -19.2840  -28.9390   23.3640 C   0  0  0  0  0  3  0  0  0  0  0  0
  -17.9110  -29.2240   23.4890 C   0  0  0  0  0  3  0  0  0  0  0  0
  -16.9590  -28.3400   22.9480 C   0  0  0  0  0  3  0  0  0  0  0  0
  -17.3830  -27.1810   22.2750 C   0  0  0  0  0  3  0  0  0  0  0  0
  -25.8040  -32.3370   23.8820 C   0  0  0  0  0  3  0  0  0  0  0  0
  -25.3220  -33.6900   24.1920 N   0  0  0  0  0  0  0  0  0  0  0  0
  -25.6220  -34.7840   23.4790 C   0  0  0  0  0  0  0  0  0  0  0  0
  -26.3990  -34.7670   22.5210 O   0  0  0  0  0  0  0  0  0  0  0  0
  -24.6370  -33.7680   24.9280 H   0  0  0  0  0  0  0  0  0  0  0  0
  -23.7720  -36.4060   22.9610 C   0  0  0  0  0  1  0  0  0  0  0  0
  -24.9530  -36.1080   23.8970 C   0  0  0  0  0  3  0  0  0  0  0  0
  -26.8880  -37.1780   24.9640 C   0  0  0  0  0  1  0  0  0  0  0  0
  -25.8830  -37.2590   23.9090 N   0  0  0  0  0  0  0  0  0  0  0  0
  -25.3750  -38.1310   24.0210 H   0  0  0  0  0  0  0  0  0  0  0  0
  -26.2870  -31.6000   25.1910 C   0  0  1  0  0  0  0  0  0  0  0  0
  -25.1370  -31.2190   26.1500 C   0  0  0  0  0  1  0  0  0  0  0  0
  -27.0580  -30.3060   24.8380 C   0  0  0  0  0  1  0  0  0  0  0  0
  -27.2740  -32.5070   25.9640 C   0  0  0  0  0  1  0  0  0  0  0  0
  3  6  2  0
  3  7  1  0
  4  8  1  0
  4  2  2  0
  5  2  1  0
  5  1  1  0
  6  4  1  0
  7  5  2  0
  9  7  1  0
 10  6  1  0
 11 17  1  0
 11 19  1  0
 12 17  1  0
 13 14  1  0
 13 12  1  0
 15 14  1  0
 15 24  1  0
 15 16  1  0
 17 16  1  0
 18 11  2  0
 19 10  1  0
 19 20  1  0
 21 22  2  0
 22 41  1  0
 23 22  1  0
 23 26  1  0
 24 25  1  0
 24 21  1  0
 25 23  2  0
 26 27  1  0
 27 28  2  0
 29 32  1  0
 29 28  1  0
 30 29  2  0
 31 30  1  0
 31 26  2  0
 32 33  1  0
 33 38  2  0
 33 34  1  0
 34 35  2  0
 35 36  1  0
 36 40  1  0
 37 36  2  0
 38 37  1  0
 39 38  1  0
 41 42  1  0
 42 45  1  0
 42 44  1  0
 43 41  2  0
 46 21  1  0
 46 47  1  0
 48 46  1  0
 49 50  1  0
 49  1  1  0
 51 49  1  0
 52 49  1  0
 53 54  1  0
 53 52  1  0
 55 54  1  0
 56 67  2  0
 57 55  1  0
 57 62  1  0
 58 66  1  0
 58 68  1  0
 59 65  1  0
 59 61  1  0
 60 66  1  0
 61 62  2  0
 61 60  1  0
 63 57  2  0
 64 63  1  0
 64 59  2  0
 65 58  1  0
 66 56  1  0
 68 70  2  0
 69 68  1  0
 71 69  1  0
 72 81  2  0
 72 77  1  0
 73 69  1  0
 73 77  1  0
 74 73  1  0
 75 76  1  0
 75 74  1  0
 76 72  1  0
 77 78  2  0
 78 79  1  0
 80 79  2  0
 81 80  1  0
 82 56  1  0
 82 83  1  0
 82 92  1  0
 83 86  1  0
 84 88  1  0
 84 83  1  0
 85 84  2  0
 88 87  1  0
 88 90  1  0
 90 91  1  0
 90 89  1  0
 92 95  1  1
 92 93  1  0
 94 92  1  0
M  ISO  4  11 100  19 100  54 101  55 101
M  END
>  <TORSDO>  (72) 
F 22

>  <SCORE>  (72) 
-9.448

>  <name>  (72) 
71

>  <ligand_id>  (72) 
71

>  <original_smiles>  (72) 
[H]c1c([H])c([H])c2c(c1[H])C([H])([H])C([H])([H])C([H])([H])C2([H])N([H])C(=O)C1([H])N(C(=O)C([H])(N([H])C(=O)C([H])(N([H])C([H])([H])[H])C([H])([H])[H])C(C([H])([H])[H])(C([H])([H])[H])C([H])([H])[H])C([H])([H])c2c([H])c(OC([H])([H])C([H])([H])C([H])([H])[N+]([H])([H])C([H])([H])c3c([H])c(C([H])([H])[H])c(C([H])([H])N([H])C(=O)N4C([H])([H])C([H])([H])C([H])([H])C([H])(n5nc(-c6c([H])c([H])c(Oc7c([H])c([H])c(F)c([H])c7F)c([H])c6[H])c(C(=O)N([H])[H])c5N([H])[H])C4([H])[H])c([H])c3Cl)c([H])c([H])c2C1([H])[H]

>  <smiles>  (72) 
[H]c1c([H])c([H])c2c(c1[H])C([H])([H])C([H])([H])C([H])([H])C2([H])N([H])C(=O)C1([H])N(C(=O)C([H])(N([H])C(=O)C([H])(N([H])C([H])([H])[H])C([H])([H])[H])C(C([H])([H])[H])(C([H])([H])[H])C([H])([H])[H])C([H])([H])c2c([H])c(OC([H])([H])C([H])([H])C([H])([H])[N+]([H])([H])C([H])([H])c3c([H])c(C([H])([H])[H])c(C([H])([H])N([H])C(=O)N4C([H])([H])C([H])([H])C([H])([H])C([H])(n5nc(-c6c([H])c([H])c(Oc7c([H])c([H])c(F)c([H])c7F)c([H])c6[H])c(C(=O)N([H])[H])c5N([H])[H])C4([H])[H])c([H])c3Cl)c([H])c([H])c2C1([H])[H]

$$$$
72:0:0
     RDKit          3D

 96104  0  0  1  0  0  0  0  0999 V2000
  -30.5120  -21.7720   21.4680 C   0  0  0  0  0  2  0  0  0  0  0  0
  -28.1170  -19.0700   20.1150 C   0  0  0  0  0  3  0  0  0  0  0  0
  -30.7140  -19.2360   21.1300 C   0  0  0  0  0  3  0  0  0  0  0  0
  -28.8550  -17.8860   20.3180 C   0  0  0  0  0  0  0  0  0  0  0  0
  -28.6510  -20.3340   20.4320 C   0  0  0  0  0  0  0  0  0  0  0  0
  -30.1960  -17.9580   20.7870 C   0  0  0  0  0  0  0  0  0  0  0  0
  -29.9560  -20.4260   20.9760 C   0  0  0  0  0  0  0  0  0  0  0  0
  -28.1380  -16.5740   20.0500 C   0  0  0  0  0  1  0  0  0  0  0  0
  -27.7880  -21.5650   20.1990 C   0  0  0  0  0  1  0  0  0  0  0  0
  -31.1000  -16.7240   21.0120 C   0  0  0  0  0  2  0  0  0  0  0  0
  -30.9970  -14.3810   20.0770 C   0  0  0  0  0  0  0  0  0  0  0  0
  -30.6000  -12.1260   19.1440 C   0  0  0  0  0  2  0  0  0  0  0  0
  -29.6200  -12.1670   17.9540 C   0  0  0  0  0  2  0  0  0  0  0  0
  -28.1620  -12.0970   18.4440 C   0  0  0  0  0  2  0  0  0  0  0  0
  -27.8650  -13.0920   19.5970 C   0  0  0  0  0  3  0  0  0  0  0  0
  -28.9530  -13.0140   20.6930 C   0  0  0  0  0  2  0  0  0  0  0  0
  -30.2670  -13.2310   20.0580 N   0  0  0  0  0  0  0  0  0  0  0  0
  -32.0490  -14.5120   19.4470 O   0  0  0  0  0  0  0  0  0  0  0  0
  -30.4960  -15.3950   20.8010 N   0  0  0  0  0  0  0  0  0  0  0  0
  -29.6180  -15.2260   21.2640 H   0  0  0  0  0  0  0  0  0  0  0  0
  -25.5430  -13.8220   20.4400 C   0  0  0  0  0  0  0  0  0  0  0  0
  -24.4560  -13.1070   20.8620 C   0  0  0  0  0  0  0  0  0  0  0  0
  -24.8280  -11.7320   20.7720 C   0  0  0  0  0  0  0  0  0  0  0  0
  -26.5230  -12.8870   20.1420 N   0  0  0  0  0  0  0  0  0  0  0  0
  -26.0960  -11.6220   20.3930 N   0  0  0  0  0  0  0  0  0  0  0  0
  -24.0320  -10.5130   20.9680 C   0  0  0  0  0  0  0  0  0  0  0  0
  -24.4530   -9.4870   21.8410 C   0  0  0  0  0  3  0  0  0  0  0  0
  -23.6610   -8.3320   22.0260 C   0  0  0  0  0  3  0  0  0  0  0  0
  -22.4320   -8.1990   21.3370 C   0  0  0  0  0  0  0  0  0  0  0  0
  -22.0270   -9.2130   20.4520 C   0  0  0  0  0  3  0  0  0  0  0  0
  -22.8190  -10.3570   20.2650 C   0  0  0  0  0  3  0  0  0  0  0  0
  -21.6080   -7.1020   21.4360 O   0  0  0  0  0  0  0  0  0  0  0  0
  -21.5750   -6.3270   22.5660 C   0  0  0  0  0  0  0  0  0  0  0  0
  -21.2820   -6.8720   23.8360 C   0  0  0  0  0  3  0  0  0  0  0  0
  -21.1870   -6.0270   24.9600 C   0  0  0  0  0  3  0  0  0  0  0  0
  -21.3780   -4.6390   24.8180 C   0  0  0  0  0  0  0  0  0  0  0  0
  -21.6650   -4.0940   23.5540 C   0  0  0  0  0  3  0  0  0  0  0  0
  -21.7600   -4.9360   22.4320 C   0  0  0  0  0  0  0  0  0  0  0  0
  -22.0160   -4.4030   21.2130 F   0  0  0  0  0  0  0  0  0  0  0  0
  -21.2800   -3.8270   25.8960 F   0  0  0  0  0  0  0  0  0  0  0  0
  -23.1080  -13.6620   21.2280 C   0  0  0  0  0  0  0  0  0  0  0  0
  -22.3940  -12.9950   22.1270 N   0  0  0  0  0  0  0  0  0  0  0  0
  -22.7030  -14.7220   20.7510 O   0  0  0  0  0  0  0  0  0  0  0  0
  -22.7350  -12.1360   22.5320 H   0  0  0  0  0  0  0  0  0  0  0  0
  -21.4930  -13.3500   22.4130 H   0  0  0  0  0  0  0  0  0  0  0  0
  -25.7690  -15.1830   20.2550 N   0  0  0  0  0  0  0  0  0  0  0  0
  -25.0060  -15.8500   20.3230 H   0  0  0  0  0  0  0  0  0  0  0  0
  -26.5620  -15.5490   19.7440 H   0  0  0  0  0  0  0  0  0  0  0  0
  -30.5740  -22.8210   20.4180 N   0  0  0  0  0  4  0  0  0  0  0  0
  -29.7200  -22.7810   19.8890 H   0  0  0  0  0  0  0  0  0  0  0  0
  -31.3290  -22.5760   19.8000 H   0  0  0  0  0  0  0  0  0  0  0  0
  -30.7860  -24.2040   20.9430 C   0  0  0  0  0  2  0  0  0  0  0  0
  -31.4610  -24.9310   18.5550 C   0  0  0  0  0  1  0  0  0  0  0  0
  -30.7850  -25.3480   19.8770 C   0  0  0  0  0  3  0  0  0  0  0  0
  -29.4050  -26.0170   19.6100 C   0  0  0  0  0  2  0  0  0  0  0  0
  -29.1280  -27.1410   20.4640 O   0  0  0  0  0  0  0  0  0  0  0  0
  -24.6390  -31.9220   23.2940 C   0  0  0  0  0  0  0  0  0  0  0  0
  -27.8820  -27.7490   20.3750 C   0  0  0  0  0  0  0  0  0  0  0  0
  -23.6800  -30.4420   21.5590 C   0  0  0  0  0  3  0  0  0  0  0  0
  -25.3590  -29.0500   20.2360 C   0  0  0  0  0  0  0  0  0  0  0  0
  -26.1750  -31.0100   21.5540 C   0  0  0  0  0  2  0  0  0  0  0  0
  -26.4230  -29.6570   20.9140 C   0  0  0  0  0  0  0  0  0  0  0  0
  -27.6800  -29.0110   20.9860 C   0  0  0  0  0  3  0  0  0  0  0  0
  -26.7890  -27.1590   19.6920 C   0  0  0  0  0  3  0  0  0  0  0  0
  -25.5380  -27.7990   19.6240 C   0  0  0  0  0  3  0  0  0  0  0  0
  -24.0470  -29.8010   20.1950 C   0  0  0  0  0  2  0  0  0  0  0  0
  -24.8430  -31.1430   22.1950 N   0  0  0  0  0  0  0  0  0  0  0  0
  -23.5030  -32.0970   23.7570 O   0  0  0  0  0  0  0  0  0  0  0  0
  -23.0490  -29.3600   22.4630 C   0  0  0  0  0  0  0  0  0  0  0  0
  -21.7440  -29.1020   22.2710 N   0  0  0  0  0  0  0  0  0  0  0  0
  -23.7330  -28.7520   23.2910 O   0  0  0  0  0  0  0  0  0  0  0  0
  -21.2520  -29.6530   21.5810 H   0  0  0  0  0  0  0  0  0  0  0  0
  -18.4190  -27.7370   22.6230 C   0  0  0  0  0  0  0  0  0  0  0  0
  -20.9540  -28.0950   22.9780 C   0  0  0  0  0  3  0  0  0  0  0  0
  -21.1360  -26.6960   22.3470 C   0  0  0  0  0  2  0  0  0  0  0  0
  -20.0780  -26.3680   21.2880 C   0  0  0  0  0  2  0  0  0  0  0  0
  -18.6730  -26.4240   21.8970 C   0  0  0  0  0  2  0  0  0  0  0  0
  -19.4900  -28.5280   23.1150 C   0  0  0  0  0  0  0  0  0  0  0  0
  -19.2000  -29.7550   23.7470 C   0  0  0  0  0  3  0  0  0  0  0  0
  -17.8700  -30.1920   23.8990 C   0  0  0  0  0  3  0  0  0  0  0  0
  -16.8130  -29.3970   23.4230 C   0  0  0  0  0  3  0  0  0  0  0  0
  -17.0870  -28.1730   22.7880 C   0  0  0  0  0  3  0  0  0  0  0  0
  -25.8190  -32.6510   24.0100 C   0  0  0  0  0  3  0  0  0  0  0  0
  -25.4000  -34.0340   24.2630 N   0  0  0  0  0  0  0  0  0  0  0  0
  -25.7360  -35.0830   23.4980 C   0  0  0  0  0  0  0  0  0  0  0  0
  -26.5040  -34.9900   22.5360 O   0  0  0  0  0  0  0  0  0  0  0  0
  -24.7300  -34.1770   25.0050 H   0  0  0  0  0  0  0  0  0  0  0  0
  -23.9420  -36.7480   22.9240 C   0  0  0  0  0  1  0  0  0  0  0  0
  -25.1260  -36.4500   23.8590 C   0  0  0  0  0  3  0  0  0  0  0  0
  -27.1220  -37.4880   24.8410 C   0  0  0  0  0  1  0  0  0  0  0  0
  -26.0980  -37.5630   23.8010 N   0  0  0  0  0  0  0  0  0  0  0  0
  -25.6250  -38.4580   23.8890 H   0  0  0  0  0  0  0  0  0  0  0  0
  -26.2620  -31.9480   25.3510 C   0  0  1  0  0  0  0  0  0  0  0  0
  -25.0900  -31.6470   26.3140 C   0  0  0  0  0  1  0  0  0  0  0  0
  -26.9840  -30.6110   25.0540 C   0  0  0  0  0  1  0  0  0  0  0  0
  -27.2760  -32.8440   26.1010 C   0  0  0  0  0  1  0  0  0  0  0  0
  2  4  2  0
  2  5  1  0
  4  6  1  0
  5  7  2  0
  6 10  1  0
  6  3  2  0
  7  3  1  0
  7  1  1  0
  8  4  1  0
  9  5  1  0
 11 19  1  0
 12 17  1  0
 13 14  1  0
 13 12  1  0
 15 14  1  0
 15 24  1  0
 15 16  1  0
 17 11  1  0
 17 16  1  0
 18 11  2  0
 19 10  1  0
 19 20  1  0
 21 22  2  0
 22 41  1  0
 23 22  1  0
 23 26  1  0
 24 25  1  0
 24 21  1  0
 25 23  2  0
 26 27  1  0
 27 28  2  0
 29 32  1  0
 29 28  1  0
 30 29  2  0
 31 30  1  0
 31 26  2  0
 32 33  1  0
 33 34  1  0
 34 35  2  0
 36 35  1  0
 36 40  1  0
 37 36  2  0
 38 33  2  0
 38 37  1  0
 39 38  1  0
 41 42  1  0
 42 45  1  0
 42 44  1  0
 43 41  2  0
 46 47  1  0
 46 21  1  0
 48 46  1  0
 49 52  1  0
 49  1  1  0
 50 49  1  0
 51 49  1  0
 54 53  1  0
 54 52  1  0
 55 54  1  0
 55 56  1  0
 57 68  2  0
 58 56  1  0
 58 63  1  0
 59 67  1  0
 59 69  1  0
 60 62  1  0
 61 67  1  0
 62 63  2  0
 62 61  1  0
 64 58  2  0
 65 64  1  0
 65 60  2  0
 66 60  1  0
 66 59  1  0
 67 57  1  0
 69 71  2  0
 70 69  1  0
 72 70  1  0
 73 82  2  0
 73 78  1  0
 74 70  1  0
 74 78  1  0
 75 74  1  0
 76 77  1  0
 76 75  1  0
 77 73  1  0
 78 79  2  0
 79 80  1  0
 81 80  2  0
 82 81  1  0
 83 57  1  0
 83 84  1  0
 83 93  1  0
 84 87  1  0
 85 89  1  0
 85 84  1  0
 86 85  2  0
 89 88  1  0
 91 89  1  0
 91 92  1  0
 91 90  1  0
 93 96  1  1
 93 94  1  0
 95 93  1  0
M  ISO  4  11 100  19 100  55 101  56 101
M  END
>  <TORSDO>  (73) 
F 22

>  <SCORE>  (73) 
-13.022

>  <name>  (73) 
72

>  <ligand_id>  (73) 
72

>  <original_smiles>  (73) 
[H]c1c([H])c([H])c2c(c1[H])C([H])([H])C([H])([H])C([H])([H])C2([H])N([H])C(=O)C1([H])N(C(=O)C([H])(N([H])C(=O)C([H])(N([H])C([H])([H])[H])C([H])([H])[H])C(C([H])([H])[H])(C([H])([H])[H])C([H])([H])[H])C([H])([H])c2c([H])c(OC([H])([H])C([H])(C([H])([H])[H])C([H])([H])[N+]([H])([H])C([H])([H])c3c([H])c(C([H])([H])N([H])C(=O)N4C([H])([H])C([H])([H])C([H])([H])C([H])(n5nc(-c6c([H])c([H])c(Oc7c([H])c([H])c(F)c([H])c7F)c([H])c6[H])c(C(=O)N([H])[H])c5N([H])[H])C4([H])[H])c(C([H])([H])[H])c([H])c3C([H])([H])[H])c([H])c([H])c2C1([H])[H]

>  <smiles>  (73) 
[H]c1c([H])c([H])c2c(c1[H])C([H])([H])C([H])([H])C([H])([H])C2([H])N([H])C(=O)C1([H])N(C(=O)C([H])(N([H])C(=O)C([H])(N([H])C([H])([H])[H])C([H])([H])[H])C(C([H])([H])[H])(C([H])([H])[H])C([H])([H])[H])C([H])([H])c2c([H])c(OC([H])([H])C([H])(C([H])([H])[H])C([H])([H])[N+]([H])([H])C([H])([H])c3c([H])c(C([H])([H])N([H])C(=O)N4C([H])([H])C([H])([H])C([H])([H])C([H])(n5nc(-c6c([H])c([H])c(Oc7c([H])c([H])c(F)c([H])c7F)c([H])c6[H])c(C(=O)N([H])[H])c5N([H])[H])C4([H])[H])c(C([H])([H])[H])c([H])c3C([H])([H])[H])c([H])c([H])c2C1([H])[H]

$$$$
73:0:0
     RDKit          3D

 96105  0  0  1  0  0  0  0  0999 V2000
  -28.1330  -23.6740   20.2790 C   0  0  0  0  0  0  0  0  0  0  0  0
  -30.5280  -25.2760   21.8090 C   0  0  0  0  0  2  0  0  0  0  0  0
  -31.0210  -23.8240   21.7710 C   0  0  0  0  0  2  0  0  0  0  0  0
  -29.0320  -25.3920   22.1170 C   0  0  0  0  0  2  0  0  0  0  0  0
  -30.5100  -23.0120   20.5690 C   0  0  0  0  0  2  0  0  0  0  0  0
  -28.1000  -25.1700   20.9100 C   0  0  0  0  0  3  0  0  0  0  0  0
  -29.0770  -22.6860   20.5880 N   0  0  0  0  0  0  0  0  0  0  0  0
  -27.1430  -23.3570   19.6150 O   0  0  0  0  0  0  0  0  0  0  0  0
  -28.1550  -26.3850   20.0310 O   0  0  0  0  0  0  0  0  0  0  0  0
  -24.5530  -31.8970   23.1560 C   0  0  0  0  0  0  0  0  0  0  0  0
  -27.0730  -27.2870   20.0660 C   0  0  0  0  0  0  0  0  0  0  0  0
  -23.3130  -30.5040   21.5400 C   0  0  0  0  0  3  0  0  0  0  0  0
  -24.7280  -28.9380   20.0890 C   0  0  0  0  0  0  0  0  0  0  0  0
  -25.8520  -30.8050   21.3030 C   0  0  0  0  0  2  0  0  0  0  0  0
  -25.9150  -29.4170   20.6630 C   0  0  0  0  0  0  0  0  0  0  0  0
  -27.0950  -28.6060   20.6360 C   0  0  0  0  0  3  0  0  0  0  0  0
  -25.8670  -26.8700   19.4710 C   0  0  0  0  0  3  0  0  0  0  0  0
  -24.7080  -27.6730   19.4800 C   0  0  0  0  0  3  0  0  0  0  0  0
  -23.4990  -29.8240   20.1570 C   0  0  0  0  0  2  0  0  0  0  0  0
  -24.5950  -31.0830   22.0580 N   0  0  0  0  0  0  0  0  0  0  0  0
  -23.4810  -32.1800   23.7090 O   0  0  0  0  0  0  0  0  0  0  0  0
  -22.6580  -29.4940   22.5120 C   0  0  0  0  0  0  0  0  0  0  0  0
  -21.3300  -29.3240   22.4090 N   0  0  0  0  0  0  0  0  0  0  0  0
  -23.3450  -28.8640   23.3220 O   0  0  0  0  0  0  0  0  0  0  0  0
  -20.8300  -29.8850   21.7330 H   0  0  0  0  0  0  0  0  0  0  0  0
  -17.9540  -28.1370   22.9560 C   0  0  0  0  0  0  0  0  0  0  0  0
  -20.5180  -28.3910   23.1920 C   0  0  0  0  0  3  0  0  0  0  0  0
  -20.6090  -26.9570   22.6200 C   0  0  0  0  0  2  0  0  0  0  0  0
  -19.4930  -26.6350   21.6220 C   0  0  0  0  0  2  0  0  0  0  0  0
  -18.1190  -26.7850   22.2840 C   0  0  0  0  0  2  0  0  0  0  0  0
  -19.0810  -28.8980   23.3710 C   0  0  0  0  0  0  0  0  0  0  0  0
  -18.8710  -30.1620   23.9620 C   0  0  0  0  0  3  0  0  0  0  0  0
  -17.5690  -30.6650   24.1440 C   0  0  0  0  0  3  0  0  0  0  0  0
  -16.4580  -29.9010   23.7460 C   0  0  0  0  0  3  0  0  0  0  0  0
  -16.6530  -28.6400   23.1560 C   0  0  0  0  0  3  0  0  0  0  0  0
  -25.8490  -32.5220   23.7580 C   0  0  0  0  0  3  0  0  0  0  0  0
  -25.5470  -33.9160   24.1180 N   0  0  0  0  0  0  0  0  0  0  0  0
  -25.8830  -34.9830   23.3790 C   0  0  0  0  0  0  0  0  0  0  0  0
  -26.5470  -34.8940   22.3430 O   0  0  0  0  0  0  0  0  0  0  0  0
  -24.9550  -34.0560   24.9230 H   0  0  0  0  0  0  0  0  0  0  0  0
  -24.1720  -36.8000   23.0560 C   0  0  0  0  0  1  0  0  0  0  0  0
  -25.4070  -36.3660   23.8640 C   0  0  0  0  0  3  0  0  0  0  0  0
  -27.5520  -37.2090   24.7180 C   0  0  0  0  0  1  0  0  0  0  0  0
  -26.4510  -37.4110   23.7780 N   0  0  0  0  0  0  0  0  0  0  0  0
  -26.0560  -38.3310   23.9500 H   0  0  0  0  0  0  0  0  0  0  0  0
  -26.3930  -31.7310   25.0100 C   0  0  1  0  0  0  0  0  0  0  0  0
  -25.3260  -31.4870   26.1020 C   0  0  0  0  0  1  0  0  0  0  0  0
  -26.9570  -30.3550   24.5830 C   0  0  0  0  0  1  0  0  0  0  0  0
  -27.5640  -32.5080   25.6560 C   0  0  0  0  0  1  0  0  0  0  0  0
  -28.7640  -21.1990   20.8860 C   0  0  0  0  0  2  0  0  0  0  0  0
  -30.4070  -18.6980   18.3340 C   0  0  0  0  0  3  0  0  0  0  0  0
  -29.5950  -18.6120   20.9700 C   0  0  0  0  0  3  0  0  0  0  0  0
  -29.9270  -19.8890   18.9190 C   0  0  0  0  0  0  0  0  0  0  0  0
  -30.4470  -17.4600   19.0130 C   0  0  0  0  0  0  0  0  0  0  0  0
  -29.4880  -19.8980   20.2670 C   0  0  0  0  0  0  0  0  0  0  0  0
  -30.0800  -17.3600   20.3850 C   0  0  0  0  0  0  0  0  0  0  0  0
  -29.8270  -21.1070   18.0140 C   0  0  0  0  0  1  0  0  0  0  0  0
  -30.7810  -16.2480   18.1600 C   0  0  0  0  0  1  0  0  0  0  0  0
  -30.8420  -14.8830   20.9570 C   0  0  0  0  0  0  0  0  0  0  0  0
  -30.7740  -12.5300   20.1050 C   0  0  0  0  0  2  0  0  0  0  0  0
  -29.9690  -12.4880   18.7850 C   0  0  0  0  0  2  0  0  0  0  0  0
  -28.4580  -12.3660   19.0540 C   0  0  0  0  0  2  0  0  0  0  0  0
  -27.9590  -13.3030   20.1900 C   0  0  0  0  0  3  0  0  0  0  0  0
  -28.9000  -13.2950   21.4160 C   0  0  0  0  0  2  0  0  0  0  0  0
  -30.2440  -13.6370   20.9370 N   0  0  0  0  0  0  0  0  0  0  0  0
  -32.0520  -14.9770   20.7310 O   0  0  0  0  0  0  0  0  0  0  0  0
  -30.0380  -16.0220   21.0700 N   0  0  0  0  0  0  0  0  0  0  0  0
  -29.1700  -15.8290   21.5450 H   0  0  0  0  0  0  0  0  0  0  0  0
  -25.5150  -13.9020   20.6760 C   0  0  0  0  0  0  0  0  0  0  0  0
  -24.4190  -13.1330   20.9550 C   0  0  0  0  0  0  0  0  0  0  0  0
  -24.8840  -11.7830   21.0050 C   0  0  0  0  0  0  0  0  0  0  0  0
  -26.5770  -13.0220   20.5620 N   0  0  0  0  0  0  0  0  0  0  0  0
  -26.2000  -11.7430   20.8270 N   0  0  0  0  0  0  0  0  0  0  0  0
  -24.1450  -10.5240   21.1630 C   0  0  0  0  0  0  0  0  0  0  0  0
  -24.5090   -9.5720   22.1410 C   0  0  0  0  0  3  0  0  0  0  0  0
  -23.7720   -8.3750   22.2830 C   0  0  0  0  0  3  0  0  0  0  0  0
  -22.6600   -8.1240   21.4450 C   0  0  0  0  0  0  0  0  0  0  0  0
  -22.3160   -9.0640   20.4580 C   0  0  0  0  0  3  0  0  0  0  0  0
  -23.0520  -10.2520   20.3170 C   0  0  0  0  0  3  0  0  0  0  0  0
  -21.9030   -6.9780   21.4930 O   0  0  0  0  0  0  0  0  0  0  0  0
  -21.7760   -6.2430   22.6440 C   0  0  0  0  0  0  0  0  0  0  0  0
  -21.2730   -6.8070   23.8370 C   0  0  0  0  0  3  0  0  0  0  0  0
  -21.0930   -6.0010   24.9770 C   0  0  0  0  0  3  0  0  0  0  0  0
  -21.4090   -4.6290   24.9270 C   0  0  0  0  0  0  0  0  0  0  0  0
  -21.9050   -4.0640   23.7390 C   0  0  0  0  0  3  0  0  0  0  0  0
  -22.0850   -4.8680   22.5990 C   0  0  0  0  0  0  0  0  0  0  0  0
  -22.5450   -4.3130   21.4510 F   0  0  0  0  0  0  0  0  0  0  0  0
  -21.2300   -3.8510   26.0180 F   0  0  0  0  0  0  0  0  0  0  0  0
  -23.0010  -13.6120   21.0710 C   0  0  0  0  0  0  0  0  0  0  0  0
  -22.1990  -12.9500   21.8960 N   0  0  0  0  0  0  0  0  0  0  0  0
  -22.6110  -14.6100   20.4660 O   0  0  0  0  0  0  0  0  0  0  0  0
  -22.5230  -12.1420   22.4060 H   0  0  0  0  0  0  0  0  0  0  0  0
  -21.2430  -13.2540   22.0160 H   0  0  0  0  0  0  0  0  0  0  0  0
  -25.6900  -15.2700   20.4840 N   0  0  0  0  0  0  0  0  0  0  0  0
  -24.9140  -15.9210   20.5040 H   0  0  0  0  0  0  0  0  0  0  0  0
  -26.5720  -15.7090   20.2490 H   0  0  0  0  0  0  0  0  0  0  0  0
  1  7  1  0
  1  6  1  0
  2  4  1  0
  3  2  1  0
  5  7  1  0
  5  3  1  0
  6  9  1  0
  6  4  1  0
  7 50  1  0
  8  1  2  0
  9 11  1  0
 10 21  2  0
 11 16  1  0
 12 20  1  0
 12 22  1  0
 13 19  1  0
 13 15  1  0
 14 20  1  0
 15 14  1  0
 16 15  2  0
 17 18  1  0
 17 11  2  0
 18 13  2  0
 19 12  1  0
 20 10  1  0
 22 24  2  0
 23 22  1  0
 25 23  1  0
 26 35  2  0
 26 31  1  0
 27 23  1  0
 27 31  1  0
 28 27  1  0
 29 30  1  0
 29 28  1  0
 30 26  1  0
 31 32  2  0
 32 33  1  0
 34 33  2  0
 35 34  1  0
 36 10  1  0
 36 37  1  0
 36 46  1  0
 37 40  1  0
 38 42  1  0
 38 37  1  0
 39 38  2  0
 42 41  1  0
 44 42  1  0
 44 45  1  0
 44 43  1  0
 46 49  1  1
 46 47  1  0
 48 46  1  0
 51 53  2  0
 51 54  1  0
 53 55  1  0
 54 56  2  0
 55 50  1  0
 55 52  2  0
 56 52  1  0
 56 67  1  0
 57 53  1  0
 58 54  1  0
 59 67  1  0
 60 65  1  0
 61 62  1  0
 61 60  1  0
 63 62  1  0
 63 72  1  0
 63 64  1  0
 65 59  1  0
 65 64  1  0
 66 59  2  0
 67 68  1  0
 69 70  2  0
 70 71  1  0
 70 89  1  0
 71 74  1  0
 72 69  1  0
 72 73  1  0
 73 71  2  0
 74 75  1  0
 75 76  2  0
 77 80  1  0
 77 76  1  0
 78 77  2  0
 79 78  1  0
 79 74  2  0
 80 81  1  0
 81 82  1  0
 82 83  2  0
 84 83  1  0
 84 88  1  0
 85 84  2  0
 86 81  2  0
 86 85  1  0
 87 86  1  0
 89 90  1  0
 90 93  1  0
 90 92  1  0
 91 89  2  0
 94 95  1  0
 94 69  1  0
 96 94  1  0
M  ISO  4   6 101   9 101  59 100  67 100
M  END
>  <TORSDO>  (74) 
F 18

>  <SCORE>  (74) 
-13.965

>  <name>  (74) 
73

>  <ligand_id>  (74) 
73

>  <original_smiles>  (74) 
[H]c1c([H])c([H])c2c(c1[H])C([H])([H])C([H])([H])C([H])([H])C2([H])N([H])C(=O)C1([H])N(C(=O)C([H])(N([H])C(=O)C([H])(N([H])C([H])([H])[H])C([H])([H])[H])C(C([H])([H])[H])(C([H])([H])[H])C([H])([H])[H])C([H])([H])c2c([H])c(OC3([H])C(=O)N(C([H])([H])c4c([H])c(N([H])C(=O)N5C([H])([H])C([H])([H])C([H])([H])C([H])(n6nc(-c7c([H])c([H])c(Oc8c([H])c([H])c(F)c([H])c8F)c([H])c7[H])c(C(=O)N([H])[H])c6N([H])[H])C5([H])[H])c(C([H])([H])[H])c([H])c4C([H])([H])[H])C([H])([H])C([H])([H])C([H])([H])C3([H])[H])c([H])c([H])c2C1([H])[H]

>  <smiles>  (74) 
[H]c1c([H])c([H])c2c(c1[H])C([H])([H])C([H])([H])C([H])([H])C2([H])N([H])C(=O)C1([H])N(C(=O)C([H])(N([H])C(=O)C([H])(N([H])C([H])([H])[H])C([H])([H])[H])C(C([H])([H])[H])(C([H])([H])[H])C([H])([H])[H])C([H])([H])c2c([H])c(OC3([H])C(=O)N(C([H])([H])c4c([H])c(N([H])C(=O)N5C([H])([H])C([H])([H])C([H])([H])C([H])(n6nc(-c7c([H])c([H])c(Oc8c([H])c([H])c(F)c([H])c8F)c([H])c7[H])c(C(=O)N([H])[H])c6N([H])[H])C5([H])[H])c(C([H])([H])[H])c([H])c4C([H])([H])[H])C([H])([H])C([H])([H])C([H])([H])C3([H])[H])c([H])c([H])c2C1([H])[H]

$$$$
74:0:0
     RDKit          3D

 94103  0  0  1  0  0  0  0  0999 V2000
  -28.4600  -23.7280   19.9280 C   0  0  0  0  0  0  0  0  0  0  0  0
  -29.8420  -23.8340   22.4550 C   0  0  0  0  0  2  0  0  0  0  0  0
  -29.3780  -25.1950   21.9130 C   0  0  0  0  0  2  0  0  0  0  0  0
  -30.2980  -22.9500   21.2840 C   0  0  0  0  0  2  0  0  0  0  0  0
  -28.3320  -25.0980   20.7800 C   0  0  0  0  0  3  0  0  0  0  0  0
  -29.1710  -22.6200   20.4030 N   0  0  0  0  0  0  0  0  0  0  0  0
  -27.8190  -23.6520   18.8740 O   0  0  0  0  0  0  0  0  0  0  0  0
  -28.3880  -26.4180   20.0670 O   0  0  0  0  0  0  0  0  0  0  0  0
  -24.6130  -31.8320   23.1510 C   0  0  0  0  0  0  0  0  0  0  0  0
  -27.2740  -27.2780   20.1010 C   0  0  0  0  0  0  0  0  0  0  0  0
  -23.4320  -30.4310   21.4970 C   0  0  0  0  0  3  0  0  0  0  0  0
  -24.9040  -28.8900   20.0770 C   0  0  0  0  0  0  0  0  0  0  0  0
  -25.9730  -30.7640   21.3330 C   0  0  0  0  0  2  0  0  0  0  0  0
  -26.0680  -29.3840   20.6810 C   0  0  0  0  0  0  0  0  0  0  0  0
  -27.2600  -28.5930   20.6750 C   0  0  0  0  0  3  0  0  0  0  0  0
  -26.0880  -26.8410   19.4810 C   0  0  0  0  0  3  0  0  0  0  0  0
  -24.9170  -27.6250   19.4660 C   0  0  0  0  0  3  0  0  0  0  0  0
  -23.6620  -29.7610   20.1170 C   0  0  0  0  0  2  0  0  0  0  0  0
  -24.6910  -31.0280   22.0490 N   0  0  0  0  0  0  0  0  0  0  0  0
  -23.5240  -32.0990   23.6800 O   0  0  0  0  0  0  0  0  0  0  0  0
  -22.7710  -29.4060   22.4510 C   0  0  0  0  0  0  0  0  0  0  0  0
  -21.4470  -29.2210   22.3180 N   0  0  0  0  0  0  0  0  0  0  0  0
  -23.4490  -28.7820   23.2700 O   0  0  0  0  0  0  0  0  0  0  0  0
  -20.9580  -29.7770   21.6310 H   0  0  0  0  0  0  0  0  0  0  0  0
  -18.0830  -27.9660   22.7710 C   0  0  0  0  0  0  0  0  0  0  0  0
  -20.6320  -28.2730   23.0810 C   0  0  0  0  0  3  0  0  0  0  0  0
  -20.7680  -26.8410   22.5140 C   0  0  0  0  0  2  0  0  0  0  0  0
  -19.6880  -26.4930   21.4840 C   0  0  0  0  0  2  0  0  0  0  0  0
  -18.2930  -26.6160   22.1050 C   0  0  0  0  0  2  0  0  0  0  0  0
  -19.1810  -28.7510   23.2150 C   0  0  0  0  0  0  0  0  0  0  0  0
  -18.9300  -30.0110   23.7990 C   0  0  0  0  0  3  0  0  0  0  0  0
  -17.6140  -30.4890   23.9430 C   0  0  0  0  0  3  0  0  0  0  0  0
  -16.5300  -29.7030   23.5150 C   0  0  0  0  0  3  0  0  0  0  0  0
  -16.7650  -28.4430   22.9350 C   0  0  0  0  0  3  0  0  0  0  0  0
  -25.8870  -32.4740   23.7840 C   0  0  0  0  0  3  0  0  0  0  0  0
  -25.5560  -33.8640   24.1320 N   0  0  0  0  0  0  0  0  0  0  0  0
  -25.8790  -34.9340   23.3930 C   0  0  0  0  0  0  0  0  0  0  0  0
  -26.5560  -34.8540   22.3640 O   0  0  0  0  0  0  0  0  0  0  0  0
  -24.9520  -33.9990   24.9310 H   0  0  0  0  0  0  0  0  0  0  0  0
  -24.1290  -36.7120   23.0650 C   0  0  0  0  0  1  0  0  0  0  0  0
  -25.3750  -36.3100   23.8710 C   0  0  0  0  0  3  0  0  0  0  0  0
  -27.4990  -37.2060   24.7160 C   0  0  0  0  0  1  0  0  0  0  0  0
  -26.3940  -37.3770   23.7770 N   0  0  0  0  0  0  0  0  0  0  0  0
  -25.9770  -38.2900   23.9410 H   0  0  0  0  0  0  0  0  0  0  0  0
  -26.4100  -31.6950   25.0540 C   0  0  1  0  0  0  0  0  0  0  0  0
  -25.3170  -31.4350   26.1170 C   0  0  0  0  0  1  0  0  0  0  0  0
  -27.0090  -30.3280   24.6510 C   0  0  0  0  0  1  0  0  0  0  0  0
  -27.5500  -32.4960   25.7250 C   0  0  0  0  0  1  0  0  0  0  0  0
  -29.1160  -21.1850   19.8240 C   0  0  0  0  0  2  0  0  0  0  0  0
  -29.6690  -18.5240   19.9090 C   0  0  0  0  0  3  0  0  0  0  0  0
  -30.1390  -19.8750   21.8640 C   0  0  0  0  0  3  0  0  0  0  0  0
  -30.7430  -17.4860   21.8270 C   0  0  0  0  0  3  0  0  0  0  0  0
  -29.6620  -19.8460   20.5350 C   0  0  0  0  0  0  0  0  0  0  0  0
  -30.2020  -17.3170   20.5370 C   0  0  0  0  0  0  0  0  0  0  0  0
  -30.6980  -18.7350   22.4800 C   0  0  0  0  0  0  0  0  0  0  0  0
  -31.3170  -18.8700   24.0850 Cl  0  0  0  0  0  0  0  0  0  0  0  0
  -30.8630  -14.8040   20.0520 C   0  0  0  0  0  0  0  0  0  0  0  0
  -30.6430  -12.5140   19.0560 C   0  0  0  0  0  2  0  0  0  0  0  0
  -29.6580  -12.5590   17.8660 C   0  0  0  0  0  2  0  0  0  0  0  0
  -28.2000  -12.4110   18.3490 C   0  0  0  0  0  2  0  0  0  0  0  0
  -27.8690  -13.3260   19.5570 C   0  0  0  0  0  3  0  0  0  0  0  0
  -28.9620  -13.2410   20.6420 C   0  0  0  0  0  2  0  0  0  0  0  0
  -30.2360  -13.5800   19.9950 N   0  0  0  0  0  0  0  0  0  0  0  0
  -32.0650  -14.8960   19.7910 O   0  0  0  0  0  0  0  0  0  0  0  0
  -30.0390  -15.9250   20.0420 N   0  0  0  0  0  0  0  0  0  0  0  0
  -29.0780  -15.6800   19.8700 H   0  0  0  0  0  0  0  0  0  0  0  0
  -25.5240  -13.9700   20.3780 C   0  0  0  0  0  0  0  0  0  0  0  0
  -24.4540  -13.2200   20.7780 C   0  0  0  0  0  0  0  0  0  0  0  0
  -24.8840  -11.8590   20.7230 C   0  0  0  0  0  0  0  0  0  0  0  0
  -26.5370  -13.0670   20.0970 N   0  0  0  0  0  0  0  0  0  0  0  0
  -26.1620  -11.7920   20.3720 N   0  0  0  0  0  0  0  0  0  0  0  0
  -24.1340  -10.6120   20.9280 C   0  0  0  0  0  0  0  0  0  0  0  0
  -24.5570   -9.6400   21.8600 C   0  0  0  0  0  3  0  0  0  0  0  0
  -23.8080   -8.4600   22.0550 C   0  0  0  0  0  3  0  0  0  0  0  0
  -22.6210   -8.2430   21.3170 C   0  0  0  0  0  0  0  0  0  0  0  0
  -22.2160   -9.2050   20.3730 C   0  0  0  0  0  3  0  0  0  0  0  0
  -22.9660  -10.3760   20.1780 C   0  0  0  0  0  3  0  0  0  0  0  0
  -21.8470   -7.1130   21.4180 O   0  0  0  0  0  0  0  0  0  0  0  0
  -21.7710   -6.3930   22.5830 C   0  0  0  0  0  0  0  0  0  0  0  0
  -21.3520   -6.9820   23.7950 C   0  0  0  0  0  3  0  0  0  0  0  0
  -21.2200   -6.1910   24.9540 C   0  0  0  0  0  3  0  0  0  0  0  0
  -21.5030   -4.8130   24.9010 C   0  0  0  0  0  0  0  0  0  0  0  0
  -21.9150   -4.2240   23.6930 C   0  0  0  0  0  3  0  0  0  0  0  0
  -22.0480   -5.0130   22.5370 C   0  0  0  0  0  0  0  0  0  0  0  0
  -22.4260   -4.4360   21.3700 F   0  0  0  0  0  0  0  0  0  0  0  0
  -21.3720   -4.0500   26.0120 F   0  0  0  0  0  0  0  0  0  0  0  0
  -23.0780  -13.7290   21.0960 C   0  0  0  0  0  0  0  0  0  0  0  0
  -22.3640  -13.0540   21.9900 N   0  0  0  0  0  0  0  0  0  0  0  0
  -22.6450  -14.7620   20.5890 O   0  0  0  0  0  0  0  0  0  0  0  0
  -22.7260  -12.2230   22.4310 H   0  0  0  0  0  0  0  0  0  0  0  0
  -21.4430  -13.3840   22.2430 H   0  0  0  0  0  0  0  0  0  0  0  0
  -25.7110  -15.3370   20.2050 N   0  0  0  0  0  0  0  0  0  0  0  0
  -24.9550  -15.9980   20.3440 H   0  0  0  0  0  0  0  0  0  0  0  0
  -26.5360  -15.7660   19.8090 H   0  0  0  0  0  0  0  0  0  0  0  0
  1  6  1  0
  1  5  1  0
  3  2  1  0
  4  2  1  0
  5  8  1  0
  5  3  1  0
  6  4  1  0
  7  1  2  0
  8 10  1  0
  9 20  2  0
 10 15  1  0
 11 19  1  0
 11 21  1  0
 12 18  1  0
 12 14  1  0
 13 19  1  0
 14 13  1  0
 15 14  2  0
 16 10  2  0
 17 16  1  0
 17 12  2  0
 18 11  1  0
 19  9  1  0
 21 23  2  0
 22 21  1  0
 24 22  1  0
 25 34  2  0
 25 30  1  0
 26 22  1  0
 26 30  1  0
 27 26  1  0
 28 29  1  0
 28 27  1  0
 29 25  1  0
 30 31  2  0
 31 32  1  0
 33 32  2  0
 34 33  1  0
 35  9  1  0
 35 36  1  0
 35 45  1  0
 36 39  1  0
 37 41  1  0
 37 36  1  0
 38 37  2  0
 41 40  1  0
 43 41  1  0
 43 44  1  0
 43 42  1  0
 45 48  1  1
 45 46  1  0
 47 45  1  0
 49  6  1  0
 49 53  1  0
 50 53  2  0
 50 54  1  0
 51 55  2  0
 52 55  1  0
 53 51  1  0
 54 52  2  0
 55 56  1  0
 58 63  1  0
 59 60  1  0
 59 58  1  0
 61 60  1  0
 61 70  1  0
 61 62  1  0
 63 57  1  0
 63 62  1  0
 64 57  2  0
 65 57  1  0
 65 54  1  0
 66 65  1  0
 67 68  2  0
 68 87  1  0
 69 68  1  0
 69 72  1  0
 70 71  1  0
 70 67  1  0
 71 69  2  0
 72 73  1  0
 73 74  2  0
 75 78  1  0
 75 74  1  0
 76 75  2  0
 77 76  1  0
 77 72  2  0
 78 79  1  0
 79 80  1  0
 80 81  2  0
 82 81  1  0
 82 86  1  0
 83 82  2  0
 84 79  2  0
 84 83  1  0
 85 84  1  0
 87 88  1  0
 88 91  1  0
 88 90  1  0
 89 87  2  0
 92 93  1  0
 92 67  1  0
 94 92  1  0
M  ISO  4   5 101   8 101  57 100  65 100
M  END
>  <TORSDO>  (75) 
F 18

>  <SCORE>  (75) 
-13.995

>  <name>  (75) 
74

>  <ligand_id>  (75) 
74

>  <original_smiles>  (75) 
[H]c1c([H])c([H])c2c(c1[H])C([H])([H])C([H])([H])C([H])([H])C2([H])N([H])C(=O)C1([H])N(C(=O)C([H])(N([H])C(=O)C([H])(N([H])C([H])([H])[H])C([H])([H])[H])C(C([H])([H])[H])(C([H])([H])[H])C([H])([H])[H])C([H])([H])c2c([H])c(OC3([H])C(=O)N(C([H])([H])c4c([H])c(Cl)c([H])c(N([H])C(=O)N5C([H])([H])C([H])([H])C([H])([H])C([H])(n6nc(-c7c([H])c([H])c(Oc8c([H])c([H])c(F)c([H])c8F)c([H])c7[H])c(C(=O)N([H])[H])c6N([H])[H])C5([H])[H])c4[H])C([H])([H])C([H])([H])C3([H])[H])c([H])c([H])c2C1([H])[H]

>  <smiles>  (75) 
[H]c1c([H])c([H])c2c(c1[H])C([H])([H])C([H])([H])C([H])([H])C2([H])N([H])C(=O)C1([H])N(C(=O)C([H])(N([H])C(=O)C([H])(N([H])C([H])([H])[H])C([H])([H])[H])C(C([H])([H])[H])(C([H])([H])[H])C([H])([H])[H])C([H])([H])c2c([H])c(OC3([H])C(=O)N(C([H])([H])c4c([H])c(Cl)c([H])c(N([H])C(=O)N5C([H])([H])C([H])([H])C([H])([H])C([H])(n6nc(-c7c([H])c([H])c(Oc8c([H])c([H])c(F)c([H])c8F)c([H])c7[H])c(C(=O)N([H])[H])c6N([H])[H])C5([H])[H])c4[H])C([H])([H])C([H])([H])C3([H])[H])c([H])c([H])c2C1([H])[H]

$$$$
75:0:0
     RDKit          3D

 93101  0  0  1  0  0  0  0  0999 V2000
  -30.4800  -21.9400   20.3320 C   0  0  0  0  0  2  0  0  0  0  0  0
  -31.3120  -19.1860   22.8840 C   0  0  0  0  0  3  0  0  0  0  0  0
  -30.8600  -18.0120   22.2540 C   0  0  0  0  0  3  0  0  0  0  0  0
  -31.1510  -20.4380   22.2590 C   0  0  0  0  0  3  0  0  0  0  0  0
  -30.2390  -18.0700   20.9840 C   0  0  0  0  0  0  0  0  0  0  0  0
  -30.5140  -20.5470   21.0060 C   0  0  0  0  0  0  0  0  0  0  0  0
  -30.0350  -19.3560   20.3800 C   0  0  0  0  0  0  0  0  0  0  0  0
  -29.2180  -19.4600   18.8590 Cl  0  0  0  0  0  0  0  0  0  0  0  0
  -29.7890  -16.7650   20.2870 C   0  0  0  0  0  2  0  0  0  0  0  0
  -30.8520  -14.5130   20.2500 C   0  0  0  0  0  0  0  0  0  0  0  0
  -30.5290  -12.4160   18.9830 C   0  0  0  0  0  2  0  0  0  0  0  0
  -29.5260  -12.6510   17.8380 C   0  0  0  0  0  2  0  0  0  0  0  0
  -28.0760  -12.4760   18.3350 C   0  0  0  0  0  2  0  0  0  0  0  0
  -27.7900  -13.2790   19.6310 C   0  0  0  0  0  3  0  0  0  0  0  0
  -28.8850  -13.0060   20.6830 C   0  0  0  0  0  2  0  0  0  0  0  0
  -30.1840  -13.3390   20.0780 N   0  0  0  0  0  0  0  0  0  0  0  0
  -31.9310  -14.7510   19.7060 O   0  0  0  0  0  0  0  0  0  0  0  0
  -30.1890  -15.4820   20.9190 N   0  0  0  0  0  0  0  0  0  0  0  0
  -30.5690  -15.6130   21.8490 H   0  0  0  0  0  0  0  0  0  0  0  0
  -25.4200  -13.8850   20.4280 C   0  0  0  0  0  0  0  0  0  0  0  0
  -24.3590  -13.1110   20.8220 C   0  0  0  0  0  0  0  0  0  0  0  0
  -24.8140  -11.7600   20.7480 C   0  0  0  0  0  0  0  0  0  0  0  0
  -26.4520  -13.0010   20.1500 N   0  0  0  0  0  0  0  0  0  0  0  0
  -26.0940  -11.7180   20.4020 N   0  0  0  0  0  0  0  0  0  0  0  0
  -24.0920  -10.4960   20.9400 C   0  0  0  0  0  0  0  0  0  0  0  0
  -24.5140   -9.5440   21.8950 C   0  0  0  0  0  3  0  0  0  0  0  0
  -23.7950   -8.3430   22.0740 C   0  0  0  0  0  3  0  0  0  0  0  0
  -22.6400   -8.0900   21.3000 C   0  0  0  0  0  0  0  0  0  0  0  0
  -22.2380   -9.0320   20.3360 C   0  0  0  0  0  3  0  0  0  0  0  0
  -22.9550  -10.2240   20.1540 C   0  0  0  0  0  3  0  0  0  0  0  0
  -21.8910   -6.9420   21.3910 O   0  0  0  0  0  0  0  0  0  0  0  0
  -21.7720   -6.2450   22.5680 C   0  0  0  0  0  0  0  0  0  0  0  0
  -21.2320   -6.8350   23.7320 C   0  0  0  0  0  3  0  0  0  0  0  0
  -21.0710   -6.0640   24.9010 C   0  0  0  0  0  3  0  0  0  0  0  0
  -21.4360   -4.7070   24.9030 C   0  0  0  0  0  0  0  0  0  0  0  0
  -21.9640   -4.1140   23.7440 C   0  0  0  0  0  3  0  0  0  0  0  0
  -22.1300   -4.8810   22.5780 C   0  0  0  0  0  0  0  0  0  0  0  0
  -22.6240   -4.3010   21.4560 F   0  0  0  0  0  0  0  0  0  0  0  0
  -21.2720   -3.9650   26.0230 F   0  0  0  0  0  0  0  0  0  0  0  0
  -22.9730  -13.5880   21.1560 C   0  0  0  0  0  0  0  0  0  0  0  0
  -22.2750  -12.8740   22.0330 N   0  0  0  0  0  0  0  0  0  0  0  0
  -22.5220  -14.6280   20.6790 O   0  0  0  0  0  0  0  0  0  0  0  0
  -22.6520  -12.0260   22.4280 H   0  0  0  0  0  0  0  0  0  0  0  0
  -21.3450  -13.1620   22.3030 H   0  0  0  0  0  0  0  0  0  0  0  0
  -25.5960  -15.2550   20.2600 N   0  0  0  0  0  0  0  0  0  0  0  0
  -24.8690  -15.9420   20.4180 H   0  0  0  0  0  0  0  0  0  0  0  0
  -26.4570  -15.6620   19.9160 H   0  0  0  0  0  0  0  0  0  0  0  0
  -29.4570  -22.8770   20.8720 N   0  0  0  0  0  4  0  0  0  0  0  0
  -29.4140  -22.7620   21.8730 H   0  0  0  0  0  0  0  0  0  0  0  0
  -28.5640  -22.5990   20.4980 H   0  0  0  0  0  0  0  0  0  0  0  0
  -29.6900  -24.3310   20.5860 C   0  0  0  0  0  2  0  0  0  0  0  0
  -28.3760  -25.1630   20.5570 C   0  0  0  0  0  2  0  0  0  0  0  0
  -28.5500  -26.6050   20.4900 O   0  0  0  0  0  0  0  0  0  0  0  0
  -24.5770  -31.8780   23.2610 C   0  0  0  0  0  0  0  0  0  0  0  0
  -27.3820  -27.3510   20.4080 C   0  0  0  0  0  0  0  0  0  0  0  0
  -23.4510  -30.4070   21.6280 C   0  0  0  0  0  3  0  0  0  0  0  0
  -24.9720  -28.8510   20.3060 C   0  0  0  0  0  0  0  0  0  0  0  0
  -25.9830  -30.7950   21.5000 C   0  0  0  0  0  2  0  0  0  0  0  0
  -26.1130  -29.4030   20.9030 C   0  0  0  0  0  0  0  0  0  0  0  0
  -27.3220  -28.6620   20.9480 C   0  0  0  0  0  3  0  0  0  0  0  0
  -26.2110  -26.8280   19.8040 C   0  0  0  0  0  3  0  0  0  0  0  0
  -25.0170  -27.5650   19.7560 C   0  0  0  0  0  3  0  0  0  0  0  0
  -23.7150  -29.6860   20.2840 C   0  0  0  0  0  2  0  0  0  0  0  0
  -24.6850  -31.0430   22.1880 N   0  0  0  0  0  0  0  0  0  0  0  0
  -23.4740  -32.1470   23.7570 O   0  0  0  0  0  0  0  0  0  0  0  0
  -22.7860  -29.4060   22.6000 C   0  0  0  0  0  0  0  0  0  0  0  0
  -21.4730  -29.1800   22.4270 N   0  0  0  0  0  0  0  0  0  0  0  0
  -23.4490  -28.8320   23.4660 O   0  0  0  0  0  0  0  0  0  0  0  0
  -20.9950  -29.6810   21.6920 H   0  0  0  0  0  0  0  0  0  0  0  0
  -18.1350  -27.8610   22.7980 C   0  0  0  0  0  0  0  0  0  0  0  0
  -20.6560  -28.2460   23.2020 C   0  0  0  0  0  3  0  0  0  0  0  0
  -20.8520  -26.7930   22.7070 C   0  0  0  0  0  2  0  0  0  0  0  0
  -19.8270  -26.3760   21.6480 C   0  0  0  0  0  2  0  0  0  0  0  0
  -18.4070  -26.4870   22.2030 C   0  0  0  0  0  2  0  0  0  0  0  0
  -19.1920  -28.6940   23.2510 C   0  0  0  0  0  0  0  0  0  0  0  0
  -18.8890  -29.9750   23.7610 C   0  0  0  0  0  3  0  0  0  0  0  0
  -17.5570  -30.4280   23.8200 C   0  0  0  0  0  3  0  0  0  0  0  0
  -16.5100  -29.5950   23.3860 C   0  0  0  0  0  3  0  0  0  0  0  0
  -16.8000  -28.3130   22.8800 C   0  0  0  0  0  3  0  0  0  0  0  0
  -25.8300  -32.5540   23.8970 C   0  0  0  0  0  3  0  0  0  0  0  0
  -25.4760  -33.9480   24.1940 N   0  0  0  0  0  0  0  0  0  0  0  0
  -25.8140  -34.9970   23.4330 C   0  0  0  0  0  0  0  0  0  0  0  0
  -26.5200  -34.8970   22.4260 O   0  0  0  0  0  0  0  0  0  0  0  0
  -24.8360  -34.0970   24.9620 H   0  0  0  0  0  0  0  0  0  0  0  0
  -24.0560  -36.7460   22.9980 C   0  0  0  0  0  1  0  0  0  0  0  0
  -25.2800  -36.3800   23.8540 C   0  0  0  0  0  3  0  0  0  0  0  0
  -27.3630  -37.3280   24.7440 C   0  0  0  0  0  1  0  0  0  0  0  0
  -26.2910  -37.4550   23.7610 N   0  0  0  0  0  0  0  0  0  0  0  0
  -25.8580  -38.3660   23.8820 H   0  0  0  0  0  0  0  0  0  0  0  0
  -26.3500  -31.8120   25.1900 C   0  0  1  0  0  0  0  0  0  0  0  0
  -25.2490  -31.5450   26.2420 C   0  0  0  0  0  1  0  0  0  0  0  0
  -26.9860  -30.4510   24.8210 C   0  0  0  0  0  1  0  0  0  0  0  0
  -27.4550  -32.6570   25.8660 C   0  0  0  0  0  1  0  0  0  0  0  0
  1 48  1  0
  1  6  1  0
  3  2  2  0
  4  2  1  0
  5  3  1  0
  6  4  2  0
  7  5  2  0
  7  6  1  0
  8  7  1  0
  9 18  1  0
  9  5  1  0
 10 18  1  0
 11 16  1  0
 12 13  1  0
 12 11  1  0
 14 13  1  0
 14 23  1  0
 14 15  1  0
 16 10  1  0
 16 15  1  0
 17 10  2  0
 18 19  1  0
 20 21  2  0
 21 40  1  0
 22 21  1  0
 22 25  1  0
 23 24  1  0
 23 20  1  0
 24 22  2  0
 25 26  1  0
 26 27  2  0
 28 31  1  0
 28 27  1  0
 29 28  2  0
 30 29  1  0
 30 25  2  0
 31 32  1  0
 32 37  2  0
 32 33  1  0
 33 34  2  0
 34 35  1  0
 35 39  1  0
 36 35  2  0
 37 36  1  0
 38 37  1  0
 40 41  1  0
 41 44  1  0
 41 43  1  0
 42 40  2  0
 45 46  1  0
 45 20  1  0
 47 45  1  0
 48 49  1  0
 50 48  1  0
 51 48  1  0
 52 51  1  0
 53 52  1  0
 54 65  2  0
 55 53  1  0
 55 60  1  0
 56 64  1  0
 56 66  1  0
 57 59  1  0
 58 64  1  0
 59 60  2  0
 59 58  1  0
 61 55  2  0
 62 61  1  0
 62 57  2  0
 63 57  1  0
 63 56  1  0
 64 54  1  0
 66 68  2  0
 67 66  1  0
 69 67  1  0
 70 79  2  0
 70 75  1  0
 71 67  1  0
 71 75  1  0
 72 71  1  0
 73 74  1  0
 73 72  1  0
 74 70  1  0
 75 76  2  0
 76 77  1  0
 78 77  2  0
 79 78  1  0
 80 54  1  0
 80 81  1  0
 80 90  1  0
 81 84  1  0
 82 86  1  0
 82 81  1  0
 83 82  2  0
 86 85  1  0
 88 86  1  0
 88 89  1  0
 88 87  1  0
 90 93  1  1
 90 91  1  0
 92 90  1  0
M  ISO  4  10 100  18 100  52 101  53 101
M  END
>  <TORSDO>  (76) 
F 21

>  <SCORE>  (76) 
-13.341

>  <name>  (76) 
75

>  <ligand_id>  (76) 
75

>  <original_smiles>  (76) 
[H]c1c([H])c([H])c2c(c1[H])C([H])([H])C([H])([H])C([H])([H])C2([H])N([H])C(=O)C1([H])N(C(=O)C([H])(N([H])C(=O)C([H])(N([H])C([H])([H])[H])C([H])([H])[H])C(C([H])([H])[H])(C([H])([H])[H])C([H])([H])[H])C([H])([H])c2c([H])c(OC([H])([H])C([H])([H])[N+]([H])([H])C([H])([H])c3c([H])c([H])c([H])c(C([H])([H])N([H])C(=O)N4C([H])([H])C([H])([H])C([H])([H])C([H])(n5nc(-c6c([H])c([H])c(Oc7c([H])c([H])c(F)c([H])c7F)c([H])c6[H])c(C(=O)N([H])[H])c5N([H])[H])C4([H])[H])c3Cl)c([H])c([H])c2C1([H])[H]

>  <smiles>  (76) 
[H]c1c([H])c([H])c2c(c1[H])C([H])([H])C([H])([H])C([H])([H])C2([H])N([H])C(=O)C1([H])N(C(=O)C([H])(N([H])C(=O)C([H])(N([H])C([H])([H])[H])C([H])([H])[H])C(C([H])([H])[H])(C([H])([H])[H])C([H])([H])[H])C([H])([H])c2c([H])c(OC([H])([H])C([H])([H])[N+]([H])([H])C([H])([H])c3c([H])c([H])c([H])c(C([H])([H])N([H])C(=O)N4C([H])([H])C([H])([H])C([H])([H])C([H])(n5nc(-c6c([H])c([H])c(Oc7c([H])c([H])c(F)c([H])c7F)c([H])c6[H])c(C(=O)N([H])[H])c5N([H])[H])C4([H])[H])c3Cl)c([H])c([H])c2C1([H])[H]

$$$$
76:0:0
     RDKit          3D

 94100  0  0  1  0  0  0  0  0999 V2000
  -28.6440  -17.4820   19.0750 C   0  0  0  0  0  2  0  0  0  0  0  0
  -27.1640  -15.0380   18.5660 C   0  0  0  0  0  3  0  0  0  0  0  0
  -27.5360  -12.2260   18.9030 C   0  0  0  0  0  3  0  0  0  0  0  0
  -28.4340  -15.6920   19.2220 C   0  0  0  0  0  0  0  0  0  0  0  0
  -29.4900  -14.5430   19.8330 C   0  0  0  0  0  2  0  0  0  0  0  0
  -26.7380  -13.5140   18.4060 C   0  0  0  0  0  0  0  0  0  0  0  0
  -28.9370  -12.4240   19.6980 C   0  0  0  0  0  2  0  0  0  0  0  0
  -25.2660  -13.2110   17.5600 Cl  0  0  0  0  0  0  0  0  0  0  0  0
  -29.3980  -10.8380   20.3520 Cl  0  0  0  0  0  0  0  0  0  0  0  0
  -31.0840  -14.5460   21.5040 C   0  0  0  0  0  0  0  0  0  0  0  0
  -31.3040  -12.6700   20.2000 C   0  0  0  0  0  3  0  0  0  0  0  0
  -30.7960  -12.8910   18.4560 C   0  0  0  0  0  3  0  0  0  0  0  0
  -29.1380  -13.5470   17.9130 C   0  0  0  0  0  1  0  0  0  0  0  0
  -27.5670  -13.9470   20.7040 C   0  0  0  0  0  2  0  0  0  0  0  0
  -28.8710  -13.4800   21.9940 C   0  0  0  0  0  2  0  0  0  0  0  0
  -30.5190  -13.3290   21.5380 N   0  0  0  0  0  0  0  0  0  0  0  0
  -32.2690  -14.8590   21.5510 O   0  0  0  0  0  0  0  0  0  0  0  0
  -30.4290  -15.2110   20.6130 N   0  0  0  0  0  0  0  0  0  0  0  0
  -30.7670  -16.1150   20.3270 H   0  0  0  0  0  0  0  0  0  0  0  0
  -25.2140  -13.9090   21.0780 C   0  0  0  0  0  0  0  0  0  0  0  0
  -24.2540  -12.9850   21.2350 C   0  0  0  0  0  0  0  0  0  0  0  0
  -24.8670  -11.6930   21.2370 C   0  0  0  0  0  0  0  0  0  0  0  0
  -26.3570  -13.2180   21.0810 N   0  0  0  0  0  0  0  0  0  0  0  0
  -26.1910  -11.8480   21.2020 N   0  0  0  0  0  0  0  0  0  0  0  0
  -24.2240  -10.3640   21.2870 C   0  0  0  0  0  0  0  0  0  0  0  0
  -24.6030   -9.3850   22.2310 C   0  0  0  0  0  3  0  0  0  0  0  0
  -23.8840   -8.1730   22.3390 C   0  0  0  0  0  3  0  0  0  0  0  0
  -22.7720   -7.9270   21.4990 C   0  0  0  0  0  0  0  0  0  0  0  0
  -22.4220   -8.8860   20.5330 C   0  0  0  0  0  3  0  0  0  0  0  0
  -23.1420  -10.0870   20.4230 C   0  0  0  0  0  3  0  0  0  0  0  0
  -22.0190   -6.7760   21.5260 O   0  0  0  0  0  0  0  0  0  0  0  0
  -21.8850   -6.0260   22.6680 C   0  0  0  0  0  0  0  0  0  0  0  0
  -21.3580   -6.5700   23.8600 C   0  0  0  0  0  3  0  0  0  0  0  0
  -21.1770   -5.7470   24.9900 C   0  0  0  0  0  3  0  0  0  0  0  0
  -21.5110   -4.3800   24.9290 C   0  0  0  0  0  0  0  0  0  0  0  0
  -22.0290   -3.8370   23.7410 C   0  0  0  0  0  3  0  0  0  0  0  0
  -22.2130   -4.6570   22.6130 C   0  0  0  0  0  0  0  0  0  0  0  0
  -22.6940   -4.1210   21.4650 F   0  0  0  0  0  0  0  0  0  0  0  0
  -21.3320   -3.5890   26.0110 F   0  0  0  0  0  0  0  0  0  0  0  0
  -22.8310  -13.3610   21.3280 C   0  0  0  0  0  0  0  0  0  0  0  0
  -22.0930  -12.6530   22.1630 N   0  0  0  0  0  0  0  0  0  0  0  0
  -22.4060  -14.3610   20.7500 O   0  0  0  0  0  0  0  0  0  0  0  0
  -22.4760  -11.8640   22.6630 H   0  0  0  0  0  0  0  0  0  0  0  0
  -21.1270  -12.9060   22.3130 H   0  0  0  0  0  0  0  0  0  0  0  0
  -25.2120  -15.2900   20.9060 N   0  0  0  0  0  0  0  0  0  0  0  0
  -24.3460  -15.8060   20.8020 H   0  0  0  0  0  0  0  0  0  0  0  0
  -26.0330  -15.8390   20.6850 H   0  0  0  0  0  0  0  0  0  0  0  0
  -28.0780  -20.4390   19.2500 C   0  0  0  0  0  0  0  0  0  0  0  0
  -28.0850  -18.9880   19.6830 N   0  0  0  0  0  0  0  0  0  0  0  0
  -28.2440  -20.5730   18.0370 O   0  0  0  0  0  0  0  0  0  0  0  0
  -27.8360  -18.9100   20.6620 H   0  0  0  0  0  0  0  0  0  0  0  0
  -27.9790  -22.0350   20.0860 C   0  0  0  0  0  2  0  0  0  0  0  0
  -27.5490  -23.7960   19.6460 C   0  0  0  0  0  2  0  0  0  0  0  0
  -27.9350  -25.3990   20.0820 O   0  0  0  0  0  0  0  0  0  0  0  0
  -24.6480  -31.6790   23.0580 C   0  0  0  0  0  0  0  0  0  0  0  0
  -27.0630  -26.6310   20.0480 C   0  0  0  0  0  0  0  0  0  0  0  0
  -23.4510  -30.2830   21.4380 C   0  0  0  0  0  3  0  0  0  0  0  0
  -24.8680  -28.6430   20.0270 C   0  0  0  0  0  0  0  0  0  0  0  0
  -26.0310  -30.4100   21.3210 C   0  0  0  0  0  2  0  0  0  0  0  0
  -26.0680  -28.9890   20.6580 C   0  0  0  0  0  0  0  0  0  0  0  0
  -27.1680  -28.0000   20.6500 C   0  0  0  0  0  3  0  0  0  0  0  0
  -25.8470  -26.4790   19.3630 C   0  0  0  0  0  3  0  0  0  0  0  0
  -24.7880  -27.4120   19.3660 C   0  0  0  0  0  3  0  0  0  0  0  0
  -23.6770  -29.5990   20.0660 C   0  0  0  0  0  2  0  0  0  0  0  0
  -24.7350  -30.8210   21.9890 N   0  0  0  0  0  0  0  0  0  0  0  0
  -23.5560  -31.9940   23.5600 O   0  0  0  0  0  0  0  0  0  0  0  0
  -22.7360  -29.3020   22.4050 C   0  0  0  0  0  0  0  0  0  0  0  0
  -21.3990  -29.1790   22.2940 N   0  0  0  0  0  0  0  0  0  0  0  0
  -23.3910  -28.6580   23.2280 O   0  0  0  0  0  0  0  0  0  0  0  0
  -20.9240  -29.7470   21.6060 H   0  0  0  0  0  0  0  0  0  0  0  0
  -17.9870  -28.0680   22.8440 C   0  0  0  0  0  0  0  0  0  0  0  0
  -20.5570  -28.2650   23.0760 C   0  0  0  0  0  3  0  0  0  0  0  0
  -20.6110  -26.8300   22.5010 C   0  0  0  0  0  2  0  0  0  0  0  0
  -19.4880  -26.5380   21.4990 C   0  0  0  0  0  2  0  0  0  0  0  0
  -18.1200  -26.7170   22.1600 C   0  0  0  0  0  2  0  0  0  0  0  0
  -19.1300  -28.8010   23.2590 C   0  0  0  0  0  0  0  0  0  0  0  0
  -18.9500  -30.0650   23.8620 C   0  0  0  0  0  3  0  0  0  0  0  0
  -17.6590  -30.5960   24.0510 C   0  0  0  0  0  3  0  0  0  0  0  0
  -16.5310  -29.8610   23.6490 C   0  0  0  0  0  3  0  0  0  0  0  0
  -16.6960  -28.5980   23.0530 C   0  0  0  0  0  3  0  0  0  0  0  0
  -25.9160  -32.3220   23.6970 C   0  0  0  0  0  3  0  0  0  0  0  0
  -26.4260  -31.5450   24.9740 C   0  0  1  0  0  0  0  0  0  0  0  0
  -25.3310  -31.3110   26.0430 C   0  0  0  0  0  1  0  0  0  0  0  0
  -27.0010  -30.1640   24.5910 C   0  0  0  0  0  1  0  0  0  0  0  0
  -27.5800  -32.3330   25.6360 C   0  0  0  0  0  1  0  0  0  0  0  0
  -25.5870  -33.7150   24.0540 N   0  0  0  0  0  0  0  0  0  0  0  0
  -25.9380  -34.7970   23.3460 C   0  0  0  0  0  0  0  0  0  0  0  0
  -26.6330  -34.7260   22.3290 O   0  0  0  0  0  0  0  0  0  0  0  0
  -24.9690  -33.8420   24.8420 H   0  0  0  0  0  0  0  0  0  0  0  0
  -24.2190  -36.6090   23.0200 C   0  0  0  0  0  1  0  0  0  0  0  0
  -25.4440  -36.1730   23.8390 C   0  0  0  0  0  3  0  0  0  0  0  0
  -27.5640  -37.0310   24.7350 C   0  0  0  0  0  1  0  0  0  0  0  0
  -26.4780  -37.2290   23.7780 N   0  0  0  0  0  0  0  0  0  0  0  0
  -26.0690  -38.1430   23.9490 H   0  0  0  0  0  0  0  0  0  0  0  0
  1  4  1  0
  1 49  1  0
  2  4  2  0
  3  7  1  0
  4  5  1  0
  5 18  1  0
  6  2  1  0
  6  3  2  0
  7  9  1  0
  8  6  1  0
 10 16  1  0
 10 17  2  0
 11 16  1  0
 12 11  2  0
 13 12  1  0
 14 23  1  0
 14 15  1  0
 16 15  1  0
 18 10  1  0
 19 18  1  0
 20 23  1  0
 20 21  2  0
 21 22  1  0
 21 40  1  0
 22 25  1  0
 23 24  1  0
 24 22  2  0
 25 26  1  0
 26 27  2  0
 28 31  1  0
 28 27  1  0
 29 28  2  0
 30 29  1  0
 30 25  2  0
 31 32  1  0
 32 33  1  0
 33 34  2  0
 35 34  1  0
 35 39  1  0
 36 35  2  0
 37 32  2  0
 37 36  1  0
 38 37  1  0
 40 41  1  0
 41 44  1  0
 41 43  1  0
 42 40  2  0
 45 20  1  0
 46 45  1  0
 47 45  1  0
 48 49  1  0
 48 52  1  0
 49 51  1  0
 50 48  2  0
 53 54  1  0
 53 52  1  0
 55 66  2  0
 56 54  1  0
 56 61  1  0
 57 65  1  0
 57 67  1  0
 58 64  1  0
 58 60  1  0
 59 65  1  0
 60 59  1  0
 61 60  2  0
 62 63  1  0
 62 56  2  0
 63 58  2  0
 64 57  1  0
 65 55  1  0
 67 69  2  0
 68 67  1  0
 70 68  1  0
 71 80  2  0
 71 76  1  0
 72 68  1  0
 72 76  1  0
 73 72  1  0
 74 75  1  0
 74 73  1  0
 75 71  1  0
 76 77  2  0
 77 78  1  0
 79 78  2  0
 80 79  1  0
 81 55  1  0
 81 86  1  0
 81 82  1  0
 82 85  1  1
 82 83  1  0
 84 82  1  0
 86 89  1  0
 87 91  1  0
 87 86  1  0
 88 87  2  0
 91 90  1  0
 93 91  1  0
 93 94  1  0
 93 92  1  0
M  ISO  4  10 100  18 100  53 101  54 101
M  END
>  <TORSDO>  (77) 
F 20

>  <SCORE>  (77) 
-10.554

>  <name>  (77) 
76

>  <ligand_id>  (77) 
76

>  <original_smiles>  (77) 
[H]c1c([H])c([H])c2c(c1[H])C([H])([H])C([H])([H])C([H])([H])C2([H])N([H])C(=O)C1([H])N(C(=O)C([H])(N([H])C(=O)C([H])(N([H])C([H])([H])[H])C([H])([H])[H])C(C([H])([H])[H])(C([H])([H])[H])C([H])([H])[H])C([H])([H])c2c([H])c(OC([H])([H])C([H])([H])C(=O)N([H])C([H])([H])c3c([H])c(Cl)c([H])c(Cl)c3N([H])C(=O)N3C([H])([H])C([H])([H])C([H])([H])C([H])(n4nc(-c5c([H])c([H])c(Oc6c([H])c([H])c(F)c([H])c6F)c([H])c5[H])c(C(=O)N([H])[H])c4N([H])[H])C3([H])[H])c([H])c([H])c2C1([H])[H]

>  <smiles>  (77) 
[H]c1c([H])c([H])c2c(c1[H])C([H])([H])C([H])([H])C([H])([H])C2([H])N([H])C(=O)C1([H])N(C(=O)C([H])(N([H])C(=O)C([H])(N([H])C([H])([H])[H])C([H])([H])[H])C(C([H])([H])[H])(C([H])([H])[H])C([H])([H])[H])C([H])([H])c2c([H])c(OC([H])([H])C([H])([H])C(=O)N([H])C([H])([H])c3c([H])c(Cl)c([H])c(Cl)c3N([H])C(=O)N3C([H])([H])C([H])([H])C([H])([H])C([H])(n4nc(-c5c([H])c([H])c(Oc6c([H])c([H])c(F)c([H])c6F)c([H])c5[H])c(C(=O)N([H])[H])c4N([H])[H])C3([H])[H])c([H])c([H])c2C1([H])[H]

$$$$
77:0:0
     RDKit          3D

 92100  0  0  1  0  0  0  0  0999 V2000
  -29.2390  -21.1630   19.8440 C   0  0  0  0  0  2  0  0  0  0  0  0
  -30.6500  -19.9710   21.6300 C   0  0  0  0  0  3  0  0  0  0  0  0
  -31.1960  -18.8500   22.2790 C   0  0  0  0  0  3  0  0  0  0  0  0
  -29.3730  -18.4630   20.2170 C   0  0  0  0  0  3  0  0  0  0  0  0
  -29.7070  -19.8320   20.5930 C   0  0  0  0  0  0  0  0  0  0  0  0
  -30.8480  -17.5260   21.9230 C   0  0  0  0  0  0  0  0  0  0  0  0
  -29.9510  -17.2770   20.8450 C   0  0  0  0  0  0  0  0  0  0  0  0
  -31.4450  -16.4150   22.7720 C   0  0  0  0  0  1  0  0  0  0  0  0
  -30.3180  -14.7910   20.0890 C   0  0  0  0  0  0  0  0  0  0  0  0
  -30.0470  -12.6070   18.8980 C   0  0  0  0  0  2  0  0  0  0  0  0
  -29.0150  -12.7540   17.7590 C   0  0  0  0  0  2  0  0  0  0  0  0
  -27.5870  -12.5190   18.2870 C   0  0  0  0  0  2  0  0  0  0  0  0
  -27.2950  -13.3110   19.5890 C   0  0  0  0  0  3  0  0  0  0  0  0
  -28.4370  -13.1590   20.6180 C   0  0  0  0  0  2  0  0  0  0  0  0
  -29.6810  -13.5750   19.9550 N   0  0  0  0  0  0  0  0  0  0  0  0
  -31.4660  -14.9310   19.6600 O   0  0  0  0  0  0  0  0  0  0  0  0
  -29.5660  -15.8830   20.4960 N   0  0  0  0  0  0  0  0  0  0  0  0
  -28.5860  -15.6760   20.6130 H   0  0  0  0  0  0  0  0  0  0  0  0
  -24.9360  -13.8010   20.4680 C   0  0  0  0  0  0  0  0  0  0  0  0
  -23.9240  -12.9830   20.8910 C   0  0  0  0  0  0  0  0  0  0  0  0
  -24.4340  -11.6500   20.8090 C   0  0  0  0  0  0  0  0  0  0  0  0
  -25.9950  -12.9670   20.1550 N   0  0  0  0  0  0  0  0  0  0  0  0
  -25.7040  -11.6660   20.4210 N   0  0  0  0  0  0  0  0  0  0  0  0
  -23.7670  -10.3590   21.0190 C   0  0  0  0  0  0  0  0  0  0  0  0
  -24.2600   -9.4150   21.9480 C   0  0  0  0  0  3  0  0  0  0  0  0
  -23.5900   -8.1890   22.1450 C   0  0  0  0  0  3  0  0  0  0  0  0
  -22.4140   -7.8960   21.4160 C   0  0  0  0  0  0  0  0  0  0  0  0
  -21.9410   -8.8280   20.4760 C   0  0  0  0  0  3  0  0  0  0  0  0
  -22.6110  -10.0460   20.2750 C   0  0  0  0  0  3  0  0  0  0  0  0
  -21.7110   -6.7210   21.5250 O   0  0  0  0  0  0  0  0  0  0  0  0
  -21.6920   -6.0000   22.6930 C   0  0  0  0  0  0  0  0  0  0  0  0
  -21.2330   -6.5570   23.9060 C   0  0  0  0  0  3  0  0  0  0  0  0
  -21.1650   -5.7610   25.0660 C   0  0  0  0  0  3  0  0  0  0  0  0
  -21.5430   -4.4050   25.0130 C   0  0  0  0  0  0  0  0  0  0  0  0
  -21.9940   -3.8460   23.8040 C   0  0  0  0  0  3  0  0  0  0  0  0
  -22.0640   -4.6420   22.6470 C   0  0  0  0  0  0  0  0  0  0  0  0
  -22.4790   -4.0920   21.4790 F   0  0  0  0  0  0  0  0  0  0  0  0
  -21.4690   -3.6360   26.1250 F   0  0  0  0  0  0  0  0  0  0  0  0
  -22.5290  -13.4020   21.2530 C   0  0  0  0  0  0  0  0  0  0  0  0
  -21.8810  -12.6690   22.1500 N   0  0  0  0  0  0  0  0  0  0  0  0
  -22.0210  -14.4160   20.7730 O   0  0  0  0  0  0  0  0  0  0  0  0
  -22.3050  -11.8490   22.5590 H   0  0  0  0  0  0  0  0  0  0  0  0
  -20.9470  -12.9310   22.4360 H   0  0  0  0  0  0  0  0  0  0  0  0
  -25.0370  -15.1800   20.3030 N   0  0  0  0  0  0  0  0  0  0  0  0
  -24.2490  -15.7980   20.4610 H   0  0  0  0  0  0  0  0  0  0  0  0
  -25.8360  -15.6520   19.9020 H   0  0  0  0  0  0  0  0  0  0  0  0
  -28.8100  -22.4130   20.6280 N   0  0  0  0  0  4  0  0  0  0  0  0
  -27.8820  -22.2220   20.9730 H   0  0  0  0  0  0  0  0  0  0  0  0
  -29.4090  -22.4770   21.4360 H   0  0  0  0  0  0  0  0  0  0  0  0
  -28.8120  -23.7930   19.9280 C   0  0  0  0  0  3  0  0  0  0  0  0
  -28.0910  -25.0480   20.6540 C   0  0  0  0  0  3  0  0  0  0  0  0
  -28.2670  -26.4600   20.1660 O   0  0  0  0  0  0  0  0  0  0  0  0
  -24.5910  -31.9310   23.2230 C   0  0  0  0  0  0  0  0  0  0  0  0
  -27.1590  -27.3340   20.1630 C   0  0  0  0  0  0  0  0  0  0  0  0
  -23.3720  -30.5340   21.5920 C   0  0  0  0  0  3  0  0  0  0  0  0
  -24.8070  -28.9760   20.1560 C   0  0  0  0  0  0  0  0  0  0  0  0
  -25.9120  -30.8440   21.3880 C   0  0  0  0  0  2  0  0  0  0  0  0
  -25.9830  -29.4590   20.7450 C   0  0  0  0  0  0  0  0  0  0  0  0
  -27.1650  -28.6500   20.7310 C   0  0  0  0  0  3  0  0  0  0  0  0
  -25.9610  -26.9150   19.5450 C   0  0  0  0  0  3  0  0  0  0  0  0
  -24.7990  -27.7120   19.5440 C   0  0  0  0  0  3  0  0  0  0  0  0
  -23.5760  -29.8610   20.2090 C   0  0  0  0  0  2  0  0  0  0  0  0
  -24.6440  -31.1220   22.1240 N   0  0  0  0  0  0  0  0  0  0  0  0
  -23.5100  -32.2090   23.7670 O   0  0  0  0  0  0  0  0  0  0  0  0
  -22.7130  -29.5190   22.5590 C   0  0  0  0  0  0  0  0  0  0  0  0
  -21.3840  -29.3460   22.4420 N   0  0  0  0  0  0  0  0  0  0  0  0
  -23.3950  -28.8910   23.3730 O   0  0  0  0  0  0  0  0  0  0  0  0
  -20.8890  -29.9050   21.7610 H   0  0  0  0  0  0  0  0  0  0  0  0
  -18.0090  -28.1520   22.9670 C   0  0  0  0  0  0  0  0  0  0  0  0
  -20.5700  -28.4100   23.2190 C   0  0  0  0  0  3  0  0  0  0  0  0
  -20.6650  -26.9780   22.6450 C   0  0  0  0  0  2  0  0  0  0  0  0
  -19.5560  -26.6550   21.6380 C   0  0  0  0  0  2  0  0  0  0  0  0
  -18.1780  -26.8020   22.2910 C   0  0  0  0  0  2  0  0  0  0  0  0
  -19.1320  -28.9140   23.3880 C   0  0  0  0  0  0  0  0  0  0  0  0
  -18.9170  -30.1770   23.9820 C   0  0  0  0  0  3  0  0  0  0  0  0
  -17.6130  -30.6800   24.1570 C   0  0  0  0  0  3  0  0  0  0  0  0
  -16.5050  -29.9150   23.7520 C   0  0  0  0  0  3  0  0  0  0  0  0
  -16.7040  -28.6530   23.1640 C   0  0  0  0  0  3  0  0  0  0  0  0
  -25.8780  -32.5630   23.8350 C   0  0  0  0  0  3  0  0  0  0  0  0
  -26.4050  -31.7900   25.1060 C   0  0  1  0  0  0  0  0  0  0  0  0
  -25.3230  -31.5510   26.1840 C   0  0  0  0  0  1  0  0  0  0  0  0
  -26.9850  -30.4140   24.7050 C   0  0  0  0  0  1  0  0  0  0  0  0
  -27.5650  -32.5810   25.7560 C   0  0  0  0  0  1  0  0  0  0  0  0
  -25.5740  -33.9600   24.1720 N   0  0  0  0  0  0  0  0  0  0  0  0
  -25.9030  -35.0170   23.4180 C   0  0  0  0  0  0  0  0  0  0  0  0
  -26.5630  -34.9140   22.3800 O   0  0  0  0  0  0  0  0  0  0  0  0
  -24.9900  -34.1130   24.9800 H   0  0  0  0  0  0  0  0  0  0  0  0
  -24.1810  -36.8190   23.0820 C   0  0  0  0  0  1  0  0  0  0  0  0
  -25.4240  -36.4040   23.8860 C   0  0  0  0  0  3  0  0  0  0  0  0
  -27.5640  -37.2780   24.7130 C   0  0  0  0  0  1  0  0  0  0  0  0
  -26.4600  -37.4540   23.7740 N   0  0  0  0  0  0  0  0  0  0  0  0
  -26.0570  -38.3740   23.9300 H   0  0  0  0  0  0  0  0  0  0  0  0
  1  5  1  0
  1 47  1  0
  2  3  1  0
  4  5  1  0
  4  7  2  0
  5  2  2  0
  6  3  2  0
  6  8  1  0
  7  6  1  0
  9 17  1  0
 10 15  1  0
 11 12  1  0
 11 10  1  0
 13 12  1  0
 13 22  1  0
 13 14  1  0
 15  9  1  0
 15 14  1  0
 16  9  2  0
 17 18  1  0
 17  7  1  0
 19 20  2  0
 20 39  1  0
 21 20  1  0
 21 24  1  0
 22 23  1  0
 22 19  1  0
 23 21  2  0
 24 25  1  0
 25 26  2  0
 27 30  1  0
 27 26  1  0
 28 27  2  0
 29 28  1  0
 29 24  2  0
 30 31  1  0
 31 32  1  0
 32 33  2  0
 34 33  1  0
 34 38  1  0
 35 34  2  0
 36 31  2  0
 36 35  1  0
 37 36  1  0
 39 40  1  0
 40 43  1  0
 40 42  1  0
 41 39  2  0
 44 45  1  0
 44 19  1  0
 46 44  1  0
 47 48  1  0
 47 49  1  0
 50 47  1  0
 50 51  2  0
 52 51  1  0
 53 64  2  0
 54 52  1  0
 54 59  1  0
 55 63  1  0
 55 65  1  0
 56 62  1  0
 56 58  1  0
 57 63  1  0
 58 57  1  0
 59 58  2  0
 60 54  2  0
 61 60  1  0
 61 56  2  0
 62 55  1  0
 63 53  1  0
 65 67  2  0
 66 65  1  0
 68 66  1  0
 69 78  2  0
 69 74  1  0
 70 66  1  0
 70 74  1  0
 71 70  1  0
 72 73  1  0
 72 71  1  0
 73 69  1  0
 74 75  2  0
 75 76  1  0
 77 76  2  0
 78 77  1  0
 79 53  1  0
 79 84  1  0
 79 80  1  0
 80 83  1  1
 80 81  1  0
 82 80  1  0
 84 87  1  0
 85 89  1  0
 85 84  1  0
 86 85  2  0
 89 88  1  0
 91 89  1  0
 91 92  1  0
 91 90  1  0
M  ISO  4   9 100  17 100  51 101  52 101
M  END
>  <TORSDO>  (78) 
F 20

>  <SCORE>  (78) 
-12.751

>  <name>  (78) 
77

>  <ligand_id>  (78) 
77

>  <original_smiles>  (78) 
[H]c1c([H])c([H])c2c(c1[H])C([H])([H])C([H])([H])C([H])([H])C2([H])N([H])C(=O)C1([H])N(C(=O)C([H])(N([H])C(=O)C([H])(N([H])C([H])([H])[H])C([H])([H])[H])C(C([H])([H])[H])(C([H])([H])[H])C([H])([H])[H])C([H])([H])c2c([H])c(OC([H])([H])C([H])([H])[N+]([H])([H])C([H])([H])c3c([H])c([H])c(C([H])([H])[H])c(N([H])C(=O)N4C([H])([H])C([H])([H])C([H])([H])C([H])(n5nc(-c6c([H])c([H])c(Oc7c([H])c([H])c(F)c([H])c7F)c([H])c6[H])c(C(=O)N([H])[H])c5N([H])[H])C4([H])[H])c3[H])c([H])c([H])c2C1([H])[H]

>  <smiles>  (78) 
[H]c1c([H])c([H])c2c(c1[H])C([H])([H])C([H])([H])C([H])([H])C2([H])N([H])C(=O)C1([H])N(C(=O)C([H])(N([H])C(=O)C([H])(N([H])C([H])([H])[H])C([H])([H])[H])C(C([H])([H])[H])(C([H])([H])[H])C([H])([H])[H])C([H])([H])c2c([H])c(OC([H])([H])C([H])([H])[N+]([H])([H])C([H])([H])c3c([H])c([H])c(C([H])([H])[H])c(N([H])C(=O)N4C([H])([H])C([H])([H])C([H])([H])C([H])(n5nc(-c6c([H])c([H])c(Oc7c([H])c([H])c(F)c([H])c7F)c([H])c6[H])c(C(=O)N([H])[H])c5N([H])[H])C4([H])[H])c3[H])c([H])c([H])c2C1([H])[H]

$$$$
78:0:0
     RDKit          3D

 96105  0  0  1  0  0  0  0  0999 V2000
  -29.3450  -24.0090   19.7510 C   0  0  0  0  0  0  0  0  0  0  0  0
  -30.1640  -24.4330   18.7710 C   0  0  0  0  0  2  0  0  0  0  0  0
  -27.9590  -23.1880   22.1910 C   0  0  0  0  0  2  0  0  0  0  0  0
  -27.9330  -24.6810   21.8310 C   0  0  0  0  0  2  0  0  0  0  0  0
  -29.3360  -22.5820   21.8880 C   0  0  0  0  0  2  0  0  0  0  0  0
  -28.1990  -24.9420   20.3360 C   0  0  0  0  0  3  0  0  0  0  0  0
  -29.6390  -22.6090   20.4400 N   0  0  1  0  0  4  0  0  0  0  0  0
  -30.6460  -22.5570   20.4570 H   0  0  0  0  0  0  0  0  0  0  0  0
  -28.3520  -26.4320   20.1520 O   0  0  0  0  0  0  0  0  0  0  0  0
  -24.6070  -31.8600   23.2320 C   0  0  0  0  0  0  0  0  0  0  0  0
  -27.2210  -27.2860   20.1460 C   0  0  0  0  0  0  0  0  0  0  0  0
  -23.4000  -30.4650   21.5940 C   0  0  0  0  0  3  0  0  0  0  0  0
  -24.8480  -28.9120   20.1620 C   0  0  0  0  0  0  0  0  0  0  0  0
  -25.9420  -30.7780   21.4040 C   0  0  0  0  0  2  0  0  0  0  0  0
  -26.0220  -29.3970   20.7500 C   0  0  0  0  0  0  0  0  0  0  0  0
  -27.2120  -28.5980   20.7290 C   0  0  0  0  0  3  0  0  0  0  0  0
  -26.0190  -26.8670   19.5320 C   0  0  0  0  0  3  0  0  0  0  0  0
  -24.8490  -27.6510   19.5460 C   0  0  0  0  0  3  0  0  0  0  0  0
  -23.6100  -29.7890   20.2140 C   0  0  0  0  0  2  0  0  0  0  0  0
  -24.6700  -31.0510   22.1330 N   0  0  0  0  0  0  0  0  0  0  0  0
  -23.5260  -32.1340   23.7730 O   0  0  0  0  0  0  0  0  0  0  0  0
  -22.7380  -29.4470   22.5530 C   0  0  0  0  0  0  0  0  0  0  0  0
  -21.4100  -29.2700   22.4300 N   0  0  0  0  0  0  0  0  0  0  0  0
  -23.4170  -28.8200   23.3690 O   0  0  0  0  0  0  0  0  0  0  0  0
  -20.9200  -29.8290   21.7460 H   0  0  0  0  0  0  0  0  0  0  0  0
  -18.0340  -28.0710   22.9380 C   0  0  0  0  0  0  0  0  0  0  0  0
  -20.5930  -28.3320   23.2010 C   0  0  0  0  0  3  0  0  0  0  0  0
  -20.6950  -26.9010   22.6260 C   0  0  0  0  0  2  0  0  0  0  0  0
  -19.5920  -26.5800   21.6130 C   0  0  0  0  0  2  0  0  0  0  0  0
  -18.2100  -26.7230   22.2590 C   0  0  0  0  0  2  0  0  0  0  0  0
  -19.1530  -28.8330   23.3650 C   0  0  0  0  0  0  0  0  0  0  0  0
  -18.9360  -30.0940   23.9630 C   0  0  0  0  0  3  0  0  0  0  0  0
  -17.6310  -30.5930   24.1360 C   0  0  0  0  0  3  0  0  0  0  0  0
  -16.5250  -29.8290   23.7220 C   0  0  0  0  0  3  0  0  0  0  0  0
  -16.7280  -28.5680   23.1310 C   0  0  0  0  0  3  0  0  0  0  0  0
  -25.8900  -32.4920   23.8510 C   0  0  0  0  0  3  0  0  0  0  0  0
  -25.5810  -33.8890   24.1850 N   0  0  0  0  0  0  0  0  0  0  0  0
  -25.9070  -34.9460   23.4290 C   0  0  0  0  0  0  0  0  0  0  0  0
  -26.5680  -34.8450   22.3920 O   0  0  0  0  0  0  0  0  0  0  0  0
  -24.9920  -34.0390   24.9930 H   0  0  0  0  0  0  0  0  0  0  0  0
  -24.1710  -36.7380   23.0960 C   0  0  0  0  0  1  0  0  0  0  0  0
  -25.4200  -36.3340   23.8950 C   0  0  0  0  0  3  0  0  0  0  0  0
  -27.5650  -37.2150   24.7040 C   0  0  0  0  0  1  0  0  0  0  0  0
  -26.4490  -37.3910   23.7780 N   0  0  0  0  0  0  0  0  0  0  0  0
  -26.0430  -38.3100   23.9410 H   0  0  0  0  0  0  0  0  0  0  0  0
  -26.4080  -31.7210   25.1280 C   0  0  1  0  0  0  0  0  0  0  0  0
  -25.3160  -31.4850   26.1980 C   0  0  0  0  0  1  0  0  0  0  0  0
  -26.9890  -30.3430   24.7360 C   0  0  0  0  0  1  0  0  0  0  0  0
  -27.5630  -32.5130   25.7870 C   0  0  0  0  0  1  0  0  0  0  0  0
  -29.3370  -21.2590   19.7500 C   0  0  0  0  0  2  0  0  0  0  0  0
  -29.7040  -18.6090   20.2710 C   0  0  0  0  0  3  0  0  0  0  0  0
  -31.9130  -17.6530   20.4370 C   0  0  0  0  0  3  0  0  0  0  0  0
  -30.2370  -19.9530   20.0320 C   0  0  0  0  0  0  0  0  0  0  0  0
  -31.6540  -20.0500   19.9060 C   0  0  0  0  0  0  0  0  0  0  0  0
  -30.5200  -17.4050   20.4230 C   0  0  0  0  0  0  0  0  0  0  0  0
  -32.4710  -18.9180   20.1720 C   0  0  0  0  0  0  0  0  0  0  0  0
  -32.3050  -21.3420   19.4120 C   0  0  0  0  0  1  0  0  0  0  0  0
  -34.2000  -19.0240   20.1360 Cl  0  0  0  0  0  0  0  0  0  0  0  0
  -30.6440  -14.7710   20.3490 C   0  0  0  0  0  0  0  0  0  0  0  0
  -30.3280  -12.4910   19.3730 C   0  0  0  0  0  2  0  0  0  0  0  0
  -29.4080  -12.5740   18.1380 C   0  0  0  0  0  2  0  0  0  0  0  0
  -27.9360  -12.4240   18.5630 C   0  0  0  0  0  2  0  0  0  0  0  0
  -27.5670  -13.3130   19.7800 C   0  0  0  0  0  3  0  0  0  0  0  0
  -28.6330  -13.2650   20.9010 C   0  0  0  0  0  2  0  0  0  0  0  0
  -29.9330  -13.5860   20.2940 N   0  0  0  0  0  0  0  0  0  0  0  0
  -31.8280  -14.7430   20.0120 O   0  0  0  0  0  0  0  0  0  0  0  0
  -30.0040  -15.9950   20.5640 N   0  0  0  0  0  0  0  0  0  0  0  0
  -29.0170  -15.9150   20.7620 H   0  0  0  0  0  0  0  0  0  0  0  0
  -25.1800  -13.9000   20.5030 C   0  0  0  0  0  0  0  0  0  0  0  0
  -24.1130  -13.1280   20.8740 C   0  0  0  0  0  0  0  0  0  0  0  0
  -24.5740  -11.7760   20.8500 C   0  0  0  0  0  0  0  0  0  0  0  0
  -26.2250  -13.0210   20.2740 N   0  0  0  0  0  0  0  0  0  0  0  0
  -25.8660  -11.7370   20.5470 N   0  0  0  0  0  0  0  0  0  0  0  0
  -23.8410  -10.5160   21.0420 C   0  0  0  0  0  0  0  0  0  0  0  0
  -24.2740   -9.5450   21.9710 C   0  0  0  0  0  3  0  0  0  0  0  0
  -23.5410   -8.3520   22.1540 C   0  0  0  0  0  3  0  0  0  0  0  0
  -22.3620   -8.1220   21.4070 C   0  0  0  0  0  0  0  0  0  0  0  0
  -21.9500   -9.0800   20.4650 C   0  0  0  0  0  3  0  0  0  0  0  0
  -22.6840  -10.2640   20.2800 C   0  0  0  0  0  3  0  0  0  0  0  0
  -21.6000   -6.9820   21.4970 O   0  0  0  0  0  0  0  0  0  0  0  0
  -21.5600   -6.2320   22.6460 C   0  0  0  0  0  0  0  0  0  0  0  0
  -21.1560   -6.7830   23.8830 C   0  0  0  0  0  3  0  0  0  0  0  0
  -21.0640   -5.9610   25.0230 C   0  0  0  0  0  3  0  0  0  0  0  0
  -21.3640   -4.5890   24.9300 C   0  0  0  0  0  0  0  0  0  0  0  0
  -21.7590   -4.0370   23.6990 C   0  0  0  0  0  3  0  0  0  0  0  0
  -21.8530   -4.8560   22.5600 C   0  0  0  0  0  0  0  0  0  0  0  0
  -22.2160   -4.3140   21.3710 F   0  0  0  0  0  0  0  0  0  0  0  0
  -21.2650   -3.7980   26.0240 F   0  0  0  0  0  0  0  0  0  0  0  0
  -22.7150  -13.6080   21.1360 C   0  0  0  0  0  0  0  0  0  0  0  0
  -21.9820  -12.9190   22.0010 N   0  0  0  0  0  0  0  0  0  0  0  0
  -22.2820  -14.6330   20.6090 O   0  0  0  0  0  0  0  0  0  0  0  0
  -22.3450  -12.0910   22.4510 H   0  0  0  0  0  0  0  0  0  0  0  0
  -21.0420  -13.2200   22.2180 H   0  0  0  0  0  0  0  0  0  0  0  0
  -25.3410  -15.2700   20.3180 N   0  0  0  0  0  0  0  0  0  0  0  0
  -24.5670  -15.9190   20.4130 H   0  0  0  0  0  0  0  0  0  0  0  0
  -26.1800  -15.7070   19.9590 H   0  0  0  0  0  0  0  0  0  0  0  0
  1  6  1  0
  1  7  1  0
  2  1  2  0
  4  3  1  0
  5  3  1  0
  6  9  1  0
  6  4  1  0
  7  8  1  1
  7  5  1  0
 10 21  2  0
 11  9  1  0
 11 16  1  0
 12 20  1  0
 12 22  1  0
 13 19  1  0
 13 15  1  0
 14 20  1  0
 15 14  1  0
 16 15  2  0
 17 18  1  0
 17 11  2  0
 18 13  2  0
 19 12  1  0
 20 10  1  0
 22 24  2  0
 23 22  1  0
 25 23  1  0
 26 35  2  0
 26 31  1  0
 27 23  1  0
 27 31  1  0
 28 27  1  0
 29 30  1  0
 29 28  1  0
 30 26  1  0
 31 32  2  0
 32 33  1  0
 34 33  2  0
 35 34  1  0
 36 10  1  0
 36 37  1  0
 36 46  1  0
 37 40  1  0
 38 42  1  0
 38 37  1  0
 39 38  2  0
 42 41  1  0
 44 42  1  0
 44 45  1  0
 44 43  1  0
 46 49  1  1
 46 47  1  0
 48 46  1  0
 50 53  1  0
 50  7  1  0
 51 55  1  0
 53 51  2  0
 54 53  1  0
 54 56  2  0
 55 52  2  0
 55 67  1  0
 56 52  1  0
 57 54  1  0
 58 56  1  0
 59 67  1  0
 60 65  1  0
 61 62  1  0
 61 60  1  0
 63 62  1  0
 63 72  1  0
 63 64  1  0
 65 59  1  0
 65 64  1  0
 66 59  2  0
 67 68  1  0
 69 70  2  0
 70 89  1  0
 71 70  1  0
 71 74  1  0
 72 69  1  0
 72 73  1  0
 73 71  2  0
 74 75  1  0
 75 76  2  0
 77 80  1  0
 77 76  1  0
 78 77  2  0
 79 78  1  0
 79 74  2  0
 80 81  1  0
 81 82  1  0
 82 83  2  0
 84 83  1  0
 84 88  1  0
 85 84  2  0
 86 81  2  0
 86 85  1  0
 87 86  1  0
 89 90  1  0
 90 93  1  0
 90 92  1  0
 91 89  2  0
 94 95  1  0
 94 69  1  0
 96 94  1  0
M  ISO  4   6 101   9 101  59 100  67 100
M  END
>  <TORSDO>  (79) 
F 18

>  <SCORE>  (79) 
-14.702

>  <name>  (79) 
78

>  <ligand_id>  (79) 
78

>  <original_smiles>  (79) 
[H]C([H])=C1C([H])(Oc2c([H])c([H])c3c(c2[H])C([H])([H])N(C(=O)C([H])(N([H])C(=O)C([H])(N([H])C([H])([H])[H])C([H])([H])[H])C(C([H])([H])[H])(C([H])([H])[H])C([H])([H])[H])C([H])(C(=O)N([H])C2([H])c4c([H])c([H])c([H])c([H])c4C([H])([H])C([H])([H])C2([H])[H])C3([H])[H])C([H])([H])C([H])([H])C([H])([H])[N+]1([H])C([H])([H])c1c([H])c(N([H])C(=O)N2C([H])([H])C([H])([H])C([H])([H])C([H])(n3nc(-c4c([H])c([H])c(Oc5c([H])c([H])c(F)c([H])c5F)c([H])c4[H])c(C(=O)N([H])[H])c3N([H])[H])C2([H])[H])c([H])c(Cl)c1C([H])([H])[H]

>  <smiles>  (79) 
[H]C([H])=C1C([H])(Oc2c([H])c([H])c3c(c2[H])C([H])([H])N(C(=O)C([H])(N([H])C(=O)C([H])(N([H])C([H])([H])[H])C([H])([H])[H])C(C([H])([H])[H])(C([H])([H])[H])C([H])([H])[H])C([H])(C(=O)N([H])C2([H])c4c([H])c([H])c([H])c([H])c4C([H])([H])C([H])([H])C2([H])[H])C3([H])[H])C([H])([H])C([H])([H])C([H])([H])[N+]1([H])C([H])([H])c1c([H])c(N([H])C(=O)N2C([H])([H])C([H])([H])C([H])([H])C([H])(n3nc(-c4c([H])c([H])c(Oc5c([H])c([H])c(F)c([H])c5F)c([H])c4[H])c(C(=O)N([H])[H])c3N([H])[H])C2([H])[H])c([H])c(Cl)c1C([H])([H])[H]

$$$$
79:0:0
     RDKit          3D

 95104  0  0  1  0  0  0  0  0999 V2000
  -28.5740  -24.0480   20.5940 C   0  0  0  0  0  0  0  0  0  0  0  0
  -29.0670  -23.6920   17.7290 C   0  0  0  0  0  2  0  0  0  0  0  0
  -28.4210  -25.0040   18.2140 C   0  0  0  0  0  2  0  0  0  0  0  0
  -28.7760  -22.4870   18.6580 C   0  0  0  0  0  2  0  0  0  0  0  0
  -28.8160  -25.3160   19.6750 C   0  0  2  0  0  0  0  0  0  0  0  0
  -30.3440  -25.5630   19.7320 C   0  0  0  0  0  1  0  0  0  0  0  0
  -28.8080  -22.7700   20.1040 N   0  0  0  0  0  0  0  0  0  0  0  0
  -28.2780  -24.2360   21.7790 O   0  0  0  0  0  0  0  0  0  0  0  0
  -28.4360  -26.6450   20.2320 O   0  0  0  0  0  0  0  0  0  0  0  0
  -24.6240  -31.9170   23.2470 C   0  0  0  0  0  0  0  0  0  0  0  0
  -27.2400  -27.3740   20.1680 C   0  0  0  0  0  0  0  0  0  0  0  0
  -23.4140  -30.5230   21.6030 C   0  0  0  0  0  3  0  0  0  0  0  0
  -24.8590  -28.9660   20.1750 C   0  0  0  0  0  0  0  0  0  0  0  0
  -25.9500  -30.8450   21.4120 C   0  0  0  0  0  2  0  0  0  0  0  0
  -26.0250  -29.4660   20.7630 C   0  0  0  0  0  0  0  0  0  0  0  0
  -27.2100  -28.6820   20.7460 C   0  0  0  0  0  3  0  0  0  0  0  0
  -26.0410  -26.9010   19.5960 C   0  0  0  0  0  3  0  0  0  0  0  0
  -24.8680  -27.6880   19.5870 C   0  0  0  0  0  3  0  0  0  0  0  0
  -23.6230  -29.8410   20.2240 C   0  0  0  0  0  2  0  0  0  0  0  0
  -24.6820  -31.1130   22.1450 N   0  0  0  0  0  0  0  0  0  0  0  0
  -23.5420  -32.1950   23.7850 O   0  0  0  0  0  0  0  0  0  0  0  0
  -22.7510  -29.5100   22.5640 C   0  0  0  0  0  0  0  0  0  0  0  0
  -21.4230  -29.3380   22.4380 N   0  0  0  0  0  0  0  0  0  0  0  0
  -23.4280  -28.8800   23.3810 O   0  0  0  0  0  0  0  0  0  0  0  0
  -20.9370  -29.8980   21.7520 H   0  0  0  0  0  0  0  0  0  0  0  0
  -18.0410  -28.1640   22.9410 C   0  0  0  0  0  0  0  0  0  0  0  0
  -20.6020  -28.4030   23.2060 C   0  0  0  0  0  3  0  0  0  0  0  0
  -20.6920  -26.9740   22.6210 C   0  0  0  0  0  2  0  0  0  0  0  0
  -19.5840  -26.6660   21.6070 C   0  0  0  0  0  2  0  0  0  0  0  0
  -18.2050  -26.8170   22.2570 C   0  0  0  0  0  2  0  0  0  0  0  0
  -19.1670  -28.9150   23.3730 C   0  0  0  0  0  0  0  0  0  0  0  0
  -18.9590  -30.1760   23.9720 C   0  0  0  0  0  3  0  0  0  0  0  0
  -17.6590  -30.6860   24.1450 C   0  0  0  0  0  3  0  0  0  0  0  0
  -16.5480  -29.9320   23.7310 C   0  0  0  0  0  3  0  0  0  0  0  0
  -16.7400  -28.6730   23.1340 C   0  0  0  0  0  3  0  0  0  0  0  0
  -25.9090  -32.5440   23.8710 C   0  0  0  0  0  3  0  0  0  0  0  0
  -25.6090  -33.9450   24.1950 N   0  0  0  0  0  0  0  0  0  0  0  0
  -25.9560  -34.9940   23.4360 C   0  0  0  0  0  0  0  0  0  0  0  0
  -26.6320  -34.8820   22.4090 O   0  0  0  0  0  0  0  0  0  0  0  0
  -25.0100  -34.1070   24.9910 H   0  0  0  0  0  0  0  0  0  0  0  0
  -24.2530  -36.8060   23.0560 C   0  0  0  0  0  1  0  0  0  0  0  0
  -25.4770  -36.3890   23.8860 C   0  0  0  0  0  3  0  0  0  0  0  0
  -27.6070  -37.2530   24.7490 C   0  0  0  0  0  1  0  0  0  0  0  0
  -26.5230  -37.4290   23.7870 N   0  0  0  0  0  0  0  0  0  0  0  0
  -26.1240  -38.3550   23.9230 H   0  0  0  0  0  0  0  0  0  0  0  0
  -26.4150  -31.7760   25.1550 C   0  0  1  0  0  0  0  0  0  0  0  0
  -25.3160  -31.5510   26.2190 C   0  0  0  0  0  1  0  0  0  0  0  0
  -26.9900  -30.3930   24.7710 C   0  0  0  0  0  1  0  0  0  0  0  0
  -27.5680  -32.5660   25.8180 C   0  0  0  0  0  1  0  0  0  0  0  0
  -28.9060  -21.5830   21.0420 C   0  0  0  0  0  2  0  0  0  0  0  0
  -30.2820  -19.4080   21.4470 C   0  0  0  0  0  3  0  0  0  0  0  0
  -30.4930  -17.9980   21.3570 C   0  0  0  0  0  3  0  0  0  0  0  0
  -28.6280  -19.2960   19.7140 C   0  0  0  0  0  3  0  0  0  0  0  0
  -29.3130  -20.0980   20.6630 C   0  0  0  0  0  0  0  0  0  0  0  0
  -28.8410  -17.8830   19.6070 C   0  0  0  0  0  0  0  0  0  0  0  0
  -29.7500  -17.1880   20.4620 C   0  0  0  0  0  0  0  0  0  0  0  0
  -28.0310  -17.1200   18.5740 C   0  0  0  0  0  1  0  0  0  0  0  0
  -30.5700  -14.7070   20.3310 C   0  0  0  0  0  0  0  0  0  0  0  0
  -30.4020  -12.4540   19.2860 C   0  0  0  0  0  2  0  0  0  0  0  0
  -29.4450  -12.5710   18.0780 C   0  0  0  0  0  2  0  0  0  0  0  0
  -27.9740  -12.4050   18.5170 C   0  0  0  0  0  2  0  0  0  0  0  0
  -27.6180  -13.2670   19.7570 C   0  0  0  0  0  3  0  0  0  0  0  0
  -28.6860  -13.1100   20.8640 C   0  0  0  0  0  2  0  0  0  0  0  0
  -29.9880  -13.4670   20.2760 N   0  0  0  0  0  0  0  0  0  0  0  0
  -31.7410  -14.8900   19.9790 O   0  0  0  0  0  0  0  0  0  0  0  0
  -29.6960  -15.7310   20.5950 N   0  0  0  0  0  0  0  0  0  0  0  0
  -28.7700  -15.3770   20.7710 H   0  0  0  0  0  0  0  0  0  0  0  0
  -25.2300  -13.8700   20.4950 C   0  0  0  0  0  0  0  0  0  0  0  0
  -24.1650  -13.0980   20.8680 C   0  0  0  0  0  0  0  0  0  0  0  0
  -24.6250  -11.7470   20.8300 C   0  0  0  0  0  0  0  0  0  0  0  0
  -26.2730  -12.9880   20.2500 N   0  0  0  0  0  0  0  0  0  0  0  0
  -25.9130  -11.7060   20.5130 N   0  0  0  0  0  0  0  0  0  0  0  0
  -23.8990  -10.4850   21.0230 C   0  0  0  0  0  0  0  0  0  0  0  0
  -24.3290   -9.5220   21.9620 C   0  0  0  0  0  3  0  0  0  0  0  0
  -23.6020   -8.3250   22.1410 C   0  0  0  0  0  3  0  0  0  0  0  0
  -22.4340   -8.0840   21.3810 C   0  0  0  0  0  0  0  0  0  0  0  0
  -22.0240   -9.0360   20.4320 C   0  0  0  0  0  3  0  0  0  0  0  0
  -22.7500  -10.2250   20.2500 C   0  0  0  0  0  3  0  0  0  0  0  0
  -21.6790   -6.9390   21.4700 O   0  0  0  0  0  0  0  0  0  0  0  0
  -21.6150   -6.2080   22.6290 C   0  0  0  0  0  0  0  0  0  0  0  0
  -21.1440   -6.7660   23.8380 C   0  0  0  0  0  3  0  0  0  0  0  0
  -21.0290   -5.9610   24.9880 C   0  0  0  0  0  3  0  0  0  0  0  0
  -21.3740   -4.5970   24.9310 C   0  0  0  0  0  0  0  0  0  0  0  0
  -21.8370   -4.0380   23.7270 C   0  0  0  0  0  3  0  0  0  0  0  0
  -21.9540   -4.8410   22.5790 C   0  0  0  0  0  0  0  0  0  0  0  0
  -22.3810   -4.2920   21.4160 F   0  0  0  0  0  0  0  0  0  0  0  0
  -21.2550   -3.8210   26.0330 F   0  0  0  0  0  0  0  0  0  0  0  0
  -22.7690  -13.5770   21.1480 C   0  0  0  0  0  0  0  0  0  0  0  0
  -22.0430  -12.8780   22.0130 N   0  0  0  0  0  0  0  0  0  0  0  0
  -22.3310  -14.6070   20.6350 O   0  0  0  0  0  0  0  0  0  0  0  0
  -22.4100  -12.0450   22.4490 H   0  0  0  0  0  0  0  0  0  0  0  0
  -21.1070  -13.1800   22.2430 H   0  0  0  0  0  0  0  0  0  0  0  0
  -25.3910  -15.2400   20.3280 N   0  0  0  0  0  0  0  0  0  0  0  0
  -24.6200  -15.8870   20.4590 H   0  0  0  0  0  0  0  0  0  0  0  0
  -26.2370  -15.6930   20.0140 H   0  0  0  0  0  0  0  0  0  0  0  0
  1  8  2  0
  2  3  1  0
  2  4  1  0
  3  5  1  0
  4  7  1  0
  5  6  1  6
  5  9  1  0
  5  1  1  0
  7  1  1  0
  7 50  1  0
 10 21  2  0
 11  9  1  0
 11 16  1  0
 12 20  1  0
 12 22  1  0
 13 19  1  0
 13 15  1  0
 14 20  1  0
 15 14  1  0
 16 15  2  0
 17 11  2  0
 18 17  1  0
 18 13  2  0
 19 12  1  0
 20 10  1  0
 22 24  2  0
 23 22  1  0
 25 23  1  0
 26 35  2  0
 26 31  1  0
 27 23  1  0
 27 31  1  0
 28 27  1  0
 29 30  1  0
 29 28  1  0
 30 26  1  0
 31 32  2  0
 32 33  1  0
 34 33  2  0
 35 34  1  0
 36 10  1  0
 36 37  1  0
 36 46  1  0
 37 40  1  0
 38 42  1  0
 38 37  1  0
 39 38  2  0
 42 41  1  0
 44 42  1  0
 44 45  1  0
 44 43  1  0
 46 49  1  1
 46 47  1  0
 48 46  1  0
 52 51  1  0
 53 54  1  0
 54 50  1  0
 54 51  2  0
 55 53  2  0
 55 56  1  0
 56 66  1  0
 56 52  2  0
 57 55  1  0
 58 66  1  0
 59 64  1  0
 60 61  1  0
 60 59  1  0
 62 61  1  0
 62 71  1  0
 62 63  1  0
 64 58  1  0
 64 63  1  0
 65 58  2  0
 66 67  1  0
 68 69  2  0
 69 88  1  0
 70 69  1  0
 70 73  1  0
 71 68  1  0
 71 72  1  0
 72 70  2  0
 73 74  1  0
 74 75  2  0
 76 79  1  0
 76 75  1  0
 77 76  2  0
 78 77  1  0
 78 73  2  0
 79 80  1  0
 80 81  1  0
 81 82  2  0
 83 82  1  0
 83 87  1  0
 84 83  2  0
 85 80  2  0
 85 84  1  0
 86 85  1  0
 88 89  1  0
 89 92  1  0
 89 91  1  0
 90 88  2  0
 93 94  1  0
 93 68  1  0
 95 93  1  0
M  ISO  4   5 101   9 101  58 100  66 100
M  END
>  <TORSDO>  (80) 
F 18

>  <SCORE>  (80) 
-15.024

>  <name>  (80) 
79

>  <ligand_id>  (80) 
79

>  <original_smiles>  (80) 
[H]c1c([H])c([H])c2c(c1[H])C([H])([H])C([H])([H])C([H])([H])C2([H])N([H])C(=O)C1([H])N(C(=O)C([H])(N([H])C(=O)C([H])(N([H])C([H])([H])[H])C([H])([H])[H])C(C([H])([H])[H])(C([H])([H])[H])C([H])([H])[H])C([H])([H])c2c([H])c(OC3(C([H])([H])[H])C(=O)N(C([H])([H])c4c([H])c([H])c(N([H])C(=O)N5C([H])([H])C([H])([H])C([H])([H])C([H])(n6nc(-c7c([H])c([H])c(Oc8c([H])c([H])c(F)c([H])c8F)c([H])c7[H])c(C(=O)N([H])[H])c6N([H])[H])C5([H])[H])c(C([H])([H])[H])c4[H])C([H])([H])C([H])([H])C3([H])[H])c([H])c([H])c2C1([H])[H]

>  <smiles>  (80) 
[H]c1c([H])c([H])c2c(c1[H])C([H])([H])C([H])([H])C([H])([H])C2([H])N([H])C(=O)C1([H])N(C(=O)C([H])(N([H])C(=O)C([H])(N([H])C([H])([H])[H])C([H])([H])[H])C(C([H])([H])[H])(C([H])([H])[H])C([H])([H])[H])C([H])([H])c2c([H])c(OC3(C([H])([H])[H])C(=O)N(C([H])([H])c4c([H])c([H])c(N([H])C(=O)N5C([H])([H])C([H])([H])C([H])([H])C([H])(n6nc(-c7c([H])c([H])c(Oc8c([H])c([H])c(F)c([H])c8F)c([H])c7[H])c(C(=O)N([H])[H])c6N([H])[H])C5([H])[H])c(C([H])([H])[H])c4[H])C([H])([H])C([H])([H])C3([H])[H])c([H])c([H])c2C1([H])[H]

$$$$
80:0:0
     RDKit          3D

 97106  0  0  1  0  0  0  0  0999 V2000
  -29.6760  -24.2480   20.0100 C   0  0  0  0  0  0  0  0  0  0  0  0
  -30.6450  -24.5980   20.8800 C   0  0  0  0  0  2  0  0  0  0  0  0
  -28.8990  -24.7770   16.8980 C   0  0  0  0  0  2  0  0  0  0  0  0
  -29.5570  -23.4040   17.1060 C   0  0  0  0  0  2  0  0  0  0  0  0
  -29.0910  -25.7760   18.0470 C   0  0  0  0  0  2  0  0  0  0  0  0
  -28.8730  -22.5760   18.2140 C   0  0  0  0  0  2  0  0  0  0  0  0
  -28.6470  -25.2910   19.4450 C   0  0  0  0  0  3  0  0  0  0  0  0
  -29.4780  -22.7570   19.5600 N   0  0  1  0  0  4  0  0  0  0  0  0
  -28.7720  -22.3770   20.1740 H   0  0  0  0  0  0  0  0  0  0  0  0
  -28.5140  -26.5360   20.2300 O   0  0  0  0  0  0  0  0  0  0  0  0
  -24.7040  -31.7610   23.3790 C   0  0  0  0  0  0  0  0  0  0  0  0
  -27.3580  -27.3350   20.1770 C   0  0  0  0  0  0  0  0  0  0  0  0
  -23.5080  -30.4110   21.6890 C   0  0  0  0  0  3  0  0  0  0  0  0
  -24.9680  -28.9140   20.2190 C   0  0  0  0  0  0  0  0  0  0  0  0
  -26.0400  -30.7550   21.5160 C   0  0  0  0  0  2  0  0  0  0  0  0
  -26.1280  -29.3950   20.8360 C   0  0  0  0  0  0  0  0  0  0  0  0
  -27.3180  -28.6120   20.8130 C   0  0  0  0  0  3  0  0  0  0  0  0
  -26.1720  -26.9100   19.5290 C   0  0  0  0  0  3  0  0  0  0  0  0
  -24.9900  -27.6770   19.5590 C   0  0  0  0  0  3  0  0  0  0  0  0
  -23.7240  -29.7750   20.2900 C   0  0  0  0  0  2  0  0  0  0  0  0
  -24.7680  -30.9910   22.2540 N   0  0  0  0  0  0  0  0  0  0  0  0
  -23.6170  -32.0180   23.9200 O   0  0  0  0  0  0  0  0  0  0  0  0
  -22.8430  -29.3660   22.6140 C   0  0  0  0  0  0  0  0  0  0  0  0
  -21.5330  -29.1380   22.4240 N   0  0  0  0  0  0  0  0  0  0  0  0
  -23.5070  -28.7630   23.4610 O   0  0  0  0  0  0  0  0  0  0  0  0
  -21.0570  -29.6820   21.7190 H   0  0  0  0  0  0  0  0  0  0  0  0
  -18.2000  -27.7620   22.7080 C   0  0  0  0  0  0  0  0  0  0  0  0
  -20.7160  -28.1630   23.1480 C   0  0  0  0  0  3  0  0  0  0  0  0
  -20.9330  -26.7350   22.5960 C   0  0  0  0  0  2  0  0  0  0  0  0
  -19.9220  -26.3460   21.5130 C   0  0  0  0  0  2  0  0  0  0  0  0
  -18.4940  -26.4200   22.0600 C   0  0  0  0  0  2  0  0  0  0  0  0
  -19.2440  -28.5900   23.2020 C   0  0  0  0  0  0  0  0  0  0  0  0
  -18.9170  -29.8450   23.7600 C   0  0  0  0  0  3  0  0  0  0  0  0
  -17.5780  -30.2730   23.8330 C   0  0  0  0  0  3  0  0  0  0  0  0
  -16.5480  -29.4450   23.3540 C   0  0  0  0  0  3  0  0  0  0  0  0
  -16.8590  -28.1910   22.7980 C   0  0  0  0  0  3  0  0  0  0  0  0
  -25.9830  -32.3720   24.0290 C   0  0  0  0  0  3  0  0  0  0  0  0
  -25.7090  -33.7880   24.3160 N   0  0  0  0  0  0  0  0  0  0  0  0
  -26.0580  -34.8070   23.5210 C   0  0  0  0  0  0  0  0  0  0  0  0
  -26.7200  -34.6560   22.4910 O   0  0  0  0  0  0  0  0  0  0  0  0
  -25.1300  -33.9790   25.1210 H   0  0  0  0  0  0  0  0  0  0  0  0
  -24.3720  -36.6270   23.1010 C   0  0  0  0  0  1  0  0  0  0  0  0
  -25.6020  -36.2210   23.9310 C   0  0  0  0  0  3  0  0  0  0  0  0
  -27.7490  -37.0920   24.7460 C   0  0  0  0  0  1  0  0  0  0  0  0
  -26.6590  -37.2460   23.7850 N   0  0  0  0  0  0  0  0  0  0  0  0
  -26.2730  -38.1800   23.8910 H   0  0  0  0  0  0  0  0  0  0  0  0
  -26.4310  -31.6180   25.3400 C   0  0  1  0  0  0  0  0  0  0  0  0
  -25.2950  -31.4310   26.3720 C   0  0  0  0  0  1  0  0  0  0  0  0
  -26.9910  -30.2180   24.9970 C   0  0  0  0  0  1  0  0  0  0  0  0
  -27.5780  -32.3960   26.0280 C   0  0  0  0  0  1  0  0  0  0  0  0
  -30.6380  -21.7950   19.7810 C   0  0  0  0  0  2  0  0  0  0  0  0
  -30.9100  -19.4140   18.7340 C   0  0  0  0  0  3  0  0  0  0  0  0
  -29.9640  -19.5360   20.9340 C   0  0  0  0  0  3  0  0  0  0  0  0
  -30.4490  -20.2280   19.7990 C   0  0  0  0  0  0  0  0  0  0  0  0
  -30.9020  -17.9850   18.7860 C   0  0  0  0  0  0  0  0  0  0  0  0
  -29.9640  -18.1100   21.0150 C   0  0  0  0  0  0  0  0  0  0  0  0
  -30.4580  -17.2900   19.9560 C   0  0  0  0  0  0  0  0  0  0  0  0
  -31.3530  -17.2530   17.5320 C   0  0  0  0  0  1  0  0  0  0  0  0
  -29.4240  -17.4670   22.2820 C   0  0  0  0  0  1  0  0  0  0  0  0
  -31.1760  -14.7800   19.8260 C   0  0  0  0  0  0  0  0  0  0  0  0
  -30.9280  -12.4990   18.8850 C   0  0  0  0  0  2  0  0  0  0  0  0
  -29.8850  -12.5760   17.7480 C   0  0  0  0  0  2  0  0  0  0  0  0
  -28.4560  -12.4080   18.3030 C   0  0  0  0  0  2  0  0  0  0  0  0
  -28.1830  -13.3020   19.5410 C   0  0  0  0  0  3  0  0  0  0  0  0
  -29.3370  -13.2100   20.5660 C   0  0  0  0  0  2  0  0  0  0  0  0
  -30.5830  -13.5460   19.8640 N   0  0  0  0  0  0  0  0  0  0  0  0
  -32.3220  -14.9240   19.3960 O   0  0  0  0  0  0  0  0  0  0  0  0
  -30.3480  -15.8350   20.1030 N   0  0  0  0  0  0  0  0  0  0  0  0
  -29.4790  -15.5360   20.5160 H   0  0  0  0  0  0  0  0  0  0  0  0
  -25.9000  -13.8850   20.5680 C   0  0  0  0  0  0  0  0  0  0  0  0
  -24.8580  -13.1050   20.9890 C   0  0  0  0  0  0  0  0  0  0  0  0
  -25.2720  -11.7520   20.7940 C   0  0  0  0  0  0  0  0  0  0  0  0
  -26.8870  -13.0060   20.1480 N   0  0  0  0  0  0  0  0  0  0  0  0
  -26.5200  -11.7130   20.3420 N   0  0  0  0  0  0  0  0  0  0  0  0
  -24.5320  -10.4950   20.9560 C   0  0  0  0  0  0  0  0  0  0  0  0
  -24.9070   -9.5370   21.9240 C   0  0  0  0  0  3  0  0  0  0  0  0
  -24.1690   -8.3430   22.0720 C   0  0  0  0  0  3  0  0  0  0  0  0
  -23.0410   -8.0990   21.2520 C   0  0  0  0  0  0  0  0  0  0  0  0
  -22.6860   -9.0450   20.2750 C   0  0  0  0  0  3  0  0  0  0  0  0
  -23.4250  -10.2300   20.1250 C   0  0  0  0  0  3  0  0  0  0  0  0
  -22.2790   -6.9570   21.3090 O   0  0  0  0  0  0  0  0  0  0  0  0
  -21.9700   -6.3570   22.5030 C   0  0  0  0  0  0  0  0  0  0  0  0
  -21.2770   -7.0420   23.5250 C   0  0  0  0  0  3  0  0  0  0  0  0
  -20.9190   -6.3650   24.7090 C   0  0  0  0  0  3  0  0  0  0  0  0
  -21.2430   -5.0040   24.8690 C   0  0  0  0  0  0  0  0  0  0  0  0
  -21.9280   -4.3190   23.8500 C   0  0  0  0  0  3  0  0  0  0  0  0
  -22.2890   -4.9930   22.6710 C   0  0  0  0  0  0  0  0  0  0  0  0
  -22.9290   -4.3220   21.6830 F   0  0  0  0  0  0  0  0  0  0  0  0
  -20.8920   -4.3530   26.0030 F   0  0  0  0  0  0  0  0  0  0  0  0
  -23.5130  -13.5870   21.4540 C   0  0  0  0  0  0  0  0  0  0  0  0
  -22.8760  -12.8480   22.3550 N   0  0  0  0  0  0  0  0  0  0  0  0
  -23.0440  -14.6530   21.0570 O   0  0  0  0  0  0  0  0  0  0  0  0
  -23.2730  -11.9880   22.7020 H   0  0  0  0  0  0  0  0  0  0  0  0
  -21.9810  -13.1520   22.7080 H   0  0  0  0  0  0  0  0  0  0  0  0
  -26.0820  -15.2620   20.4820 N   0  0  0  0  0  0  0  0  0  0  0  0
  -25.3220  -15.9040   20.6790 H   0  0  0  0  0  0  0  0  0  0  0  0
  -26.8740  -15.7110   20.0410 H   0  0  0  0  0  0  0  0  0  0  0  0
  1  2  2  0
  3  4  1  0
  3  5  1  0
  4  6  1  0
  5  7  1  0
  6  8  1  0
  7  1  1  0
  7 10  1  0
  8 51  1  0
  8  1  1  0
  8  9  1  1
 11 22  2  0
 12 10  1  0
 12 17  1  0
 13 21  1  0
 13 23  1  0
 14 20  1  0
 14 16  1  0
 15 21  1  0
 16 15  1  0
 17 16  2  0
 18 19  1  0
 18 12  2  0
 19 14  2  0
 20 13  1  0
 21 11  1  0
 23 25  2  0
 24 23  1  0
 26 24  1  0
 27 36  2  0
 27 32  1  0
 28 24  1  0
 28 32  1  0
 29 28  1  0
 30 31  1  0
 30 29  1  0
 31 27  1  0
 32 33  2  0
 33 34  1  0
 35 34  2  0
 36 35  1  0
 37 11  1  0
 37 38  1  0
 37 47  1  0
 38 41  1  0
 39 43  1  0
 39 38  1  0
 40 39  2  0
 43 42  1  0
 45 46  1  0
 45 43  1  0
 45 44  1  0
 47 50  1  1
 47 48  1  0
 49 47  1  0
 51 54  1  0
 52 55  2  0
 52 54  1  0
 53 56  1  0
 54 53  2  0
 55 57  1  0
 56 59  1  0
 57 68  1  0
 57 56  2  0
 58 55  1  0
 60 66  1  0
 60 68  1  0
 61 66  1  0
 62 63  1  0
 62 61  1  0
 64 63  1  0
 64 73  1  0
 64 65  1  0
 66 65  1  0
 67 60  2  0
 68 69  1  0
 70 71  2  0
 71 90  1  0
 72 75  1  0
 72 71  1  0
 73 74  1  0
 73 70  1  0
 74 72  2  0
 75 76  1  0
 76 77  2  0
 78 81  1  0
 78 77  1  0
 79 78  2  0
 80 79  1  0
 80 75  2  0
 81 82  1  0
 82 87  2  0
 82 83  1  0
 83 84  2  0
 84 85  1  0
 85 89  1  0
 86 85  2  0
 87 86  1  0
 88 87  1  0
 90 91  1  0
 91 93  1  0
 91 94  1  0
 92 90  2  0
 95 70  1  0
 95 96  1  0
 97 95  1  0
M  ISO  4   7 101  10 101  60 100  68 100
M  END
>  <TORSDO>  (81) 
F 18

>  <SCORE>  (81) 
-12.139

>  <name>  (81) 
80

>  <ligand_id>  (81) 
80

>  <original_smiles>  (81) 
[H]C([H])=C1C([H])(Oc2c([H])c([H])c3c(c2[H])C([H])([H])N(C(=O)C([H])(N([H])C(=O)C([H])(N([H])C([H])([H])[H])C([H])([H])[H])C(C([H])([H])[H])(C([H])([H])[H])C([H])([H])[H])C([H])(C(=O)N([H])C2([H])c4c([H])c([H])c([H])c([H])c4C([H])([H])C([H])([H])C2([H])[H])C3([H])[H])C([H])([H])C([H])([H])C([H])([H])C([H])([H])[N+]1([H])C([H])([H])c1c([H])c(C([H])([H])[H])c(N([H])C(=O)N2C([H])([H])C([H])([H])C([H])([H])C([H])(n3nc(-c4c([H])c([H])c(Oc5c([H])c([H])c(F)c([H])c5F)c([H])c4[H])c(C(=O)N([H])[H])c3N([H])[H])C2([H])[H])c(C([H])([H])[H])c1[H]

>  <smiles>  (81) 
[H]C([H])=C1C([H])(Oc2c([H])c([H])c3c(c2[H])C([H])([H])N(C(=O)C([H])(N([H])C(=O)C([H])(N([H])C([H])([H])[H])C([H])([H])[H])C(C([H])([H])[H])(C([H])([H])[H])C([H])([H])[H])C([H])(C(=O)N([H])C2([H])c4c([H])c([H])c([H])c([H])c4C([H])([H])C([H])([H])C2([H])[H])C3([H])[H])C([H])([H])C([H])([H])C([H])([H])C([H])([H])[N+]1([H])C([H])([H])c1c([H])c(C([H])([H])[H])c(N([H])C(=O)N2C([H])([H])C([H])([H])C([H])([H])C([H])(n3nc(-c4c([H])c([H])c(Oc5c([H])c([H])c(F)c([H])c5F)c([H])c4[H])c(C(=O)N([H])[H])c3N([H])[H])C2([H])[H])c(C([H])([H])[H])c1[H]

$$$$
81:0:0
     RDKit          3D

 95103  0  0  1  0  0  0  0  0999 V2000
  -30.3610  -21.4780   20.2550 C   0  0  0  0  0  0  0  0  0  0  0  0
  -30.1430  -20.1800   20.6070 N   0  0  0  0  0  0  0  0  0  0  0  0
  -31.4220  -21.8400   19.7450 O   0  0  0  0  0  0  0  0  0  0  0  0
  -29.2360  -20.0010   21.0170 H   0  0  0  0  0  0  0  0  0  0  0  0
  -30.9400  -18.9270   20.3440 C   0  0  0  0  0  2  0  0  0  0  0  0
  -27.9390  -18.3960   18.6490 C   0  0  0  0  0  3  0  0  0  0  0  0
  -28.1590  -16.7420   20.4160 C   0  0  0  0  0  3  0  0  0  0  0  0
  -27.3620  -17.6630   19.7000 C   0  0  0  0  0  0  0  0  0  0  0  0
  -29.3390  -18.4540   18.5430 C   0  0  0  0  0  0  0  0  0  0  0  0
  -30.1190  -17.8570   19.5680 C   0  0  0  0  0  0  0  0  0  0  0  0
  -29.5630  -16.7090   20.2430 C   0  0  0  0  0  0  0  0  0  0  0  0
  -25.8930  -17.8690   20.0190 C   0  0  0  0  0  1  0  0  0  0  0  0
  -29.9570  -19.3410   17.4710 C   0  0  0  0  0  1  0  0  0  0  0  0
  -30.8660  -14.5270   20.1750 C   0  0  0  0  0  0  0  0  0  0  0  0
  -30.5980  -12.2670   19.1620 C   0  0  0  0  0  2  0  0  0  0  0  0
  -29.6440  -12.3730   17.9500 C   0  0  0  0  0  2  0  0  0  0  0  0
  -28.1740  -12.2550   18.3950 C   0  0  0  0  0  2  0  0  0  0  0  0
  -27.8410  -13.1560   19.6130 C   0  0  0  0  0  3  0  0  0  0  0  0
  -28.9040  -13.0110   20.7250 C   0  0  0  0  0  2  0  0  0  0  0  0
  -30.2220  -13.3140   20.1400 N   0  0  0  0  0  0  0  0  0  0  0  0
  -31.9610  -14.6870   19.6270 O   0  0  0  0  0  0  0  0  0  0  0  0
  -30.2390  -15.5550   20.8250 N   0  0  0  0  0  0  0  0  0  0  0  0
  -29.6740  -15.1530   21.5570 H   0  0  0  0  0  0  0  0  0  0  0  0
  -25.4570  -13.8010   20.3240 C   0  0  0  0  0  0  0  0  0  0  0  0
  -24.3800  -13.0690   20.7330 C   0  0  0  0  0  0  0  0  0  0  0  0
  -24.8140  -11.7120   20.7220 C   0  0  0  0  0  0  0  0  0  0  0  0
  -26.4880  -12.9050   20.1110 N   0  0  0  0  0  0  0  0  0  0  0  0
  -26.1030  -11.6360   20.4020 N   0  0  0  0  0  0  0  0  0  0  0  0
  -24.0580  -10.4760   20.9390 C   0  0  0  0  0  0  0  0  0  0  0  0
  -24.4850   -9.5040   21.8700 C   0  0  0  0  0  3  0  0  0  0  0  0
  -23.7300   -8.3310   22.0720 C   0  0  0  0  0  3  0  0  0  0  0  0
  -22.5320   -8.1230   21.3460 C   0  0  0  0  0  0  0  0  0  0  0  0
  -22.1240   -9.0840   20.4050 C   0  0  0  0  0  3  0  0  0  0  0  0
  -22.8800  -10.2490   20.2000 C   0  0  0  0  0  3  0  0  0  0  0  0
  -21.7480   -7.0020   21.4610 O   0  0  0  0  0  0  0  0  0  0  0  0
  -21.7160   -6.2630   22.6170 C   0  0  0  0  0  0  0  0  0  0  0  0
  -21.3530   -6.8340   23.8570 C   0  0  0  0  0  3  0  0  0  0  0  0
  -21.2680   -6.0240   25.0060 C   0  0  0  0  0  3  0  0  0  0  0  0
  -21.5320   -4.6440   24.9170 C   0  0  0  0  0  0  0  0  0  0  0  0
  -21.8870   -4.0730   23.6820 C   0  0  0  0  0  3  0  0  0  0  0  0
  -21.9770   -4.8820   22.5350 C   0  0  0  0  0  0  0  0  0  0  0  0
  -22.2990   -4.3230   21.3440 F   0  0  0  0  0  0  0  0  0  0  0  0
  -21.4410   -3.8630   26.0190 F   0  0  0  0  0  0  0  0  0  0  0  0
  -23.0010  -13.5940   21.0140 C   0  0  0  0  0  0  0  0  0  0  0  0
  -22.2720  -12.9490   21.9180 N   0  0  0  0  0  0  0  0  0  0  0  0
  -22.5800  -14.6140   20.4690 O   0  0  0  0  0  0  0  0  0  0  0  0
  -22.6240  -12.1260   22.3840 H   0  0  0  0  0  0  0  0  0  0  0  0
  -21.3470  -13.2840   22.1470 H   0  0  0  0  0  0  0  0  0  0  0  0
  -25.6240  -15.1500   20.0930 N   0  0  0  0  0  0  0  0  0  0  0  0
  -24.8540  -15.7990   20.1940 H   0  0  0  0  0  0  0  0  0  0  0  0
  -26.4710  -15.5880   19.7500 H   0  0  0  0  0  0  0  0  0  0  0  0
  -29.2120  -22.5260   20.4840 C   0  0  0  0  0  2  0  0  0  0  0  0
  -29.4790  -24.0650   20.1790 C   0  0  0  0  0  3  0  0  0  0  0  0
  -28.2240  -25.0200   20.3090 C   0  0  0  0  0  3  0  0  0  0  0  0
  -28.4010  -26.4720   20.1190 O   0  0  0  0  0  0  0  0  0  0  0  0
  -24.5980  -31.7910   23.1610 C   0  0  0  0  0  0  0  0  0  0  0  0
  -27.2530  -27.2760   20.1000 C   0  0  0  0  0  0  0  0  0  0  0  0
  -23.4030  -30.3910   21.5140 C   0  0  0  0  0  3  0  0  0  0  0  0
  -24.8670  -28.8500   20.0950 C   0  0  0  0  0  0  0  0  0  0  0  0
  -25.9400  -30.7280   21.3390 C   0  0  0  0  0  2  0  0  0  0  0  0
  -26.0300  -29.3530   20.6890 C   0  0  0  0  0  0  0  0  0  0  0  0
  -27.2260  -28.5780   20.6800 C   0  0  0  0  0  3  0  0  0  0  0  0
  -26.0650  -26.8200   19.4820 C   0  0  0  0  0  3  0  0  0  0  0  0
  -24.8840  -27.5870   19.4840 C   0  0  0  0  0  3  0  0  0  0  0  0
  -23.6250  -29.7140   20.1370 C   0  0  0  0  0  2  0  0  0  0  0  0
  -24.6650  -30.9860   22.0620 N   0  0  0  0  0  0  0  0  0  0  0  0
  -23.5120  -32.0650   23.6940 O   0  0  0  0  0  0  0  0  0  0  0  0
  -22.7420  -29.3710   22.4710 C   0  0  0  0  0  0  0  0  0  0  0  0
  -21.4130  -29.2080   22.3540 N   0  0  0  0  0  0  0  0  0  0  0  0
  -23.4210  -28.7280   23.2750 O   0  0  0  0  0  0  0  0  0  0  0  0
  -20.9240  -29.7770   21.6770 H   0  0  0  0  0  0  0  0  0  0  0  0
  -18.0260  -28.0510   22.8770 C   0  0  0  0  0  0  0  0  0  0  0  0
  -20.5900  -28.2720   23.1220 C   0  0  0  0  0  3  0  0  0  0  0  0
  -20.6660  -26.8460   22.5260 C   0  0  0  0  0  2  0  0  0  0  0  0
  -19.5480  -26.5530   21.5200 C   0  0  0  0  0  2  0  0  0  0  0  0
  -18.1760  -26.7090   22.1820 C   0  0  0  0  0  2  0  0  0  0  0  0
  -19.1600  -28.7930   23.3040 C   0  0  0  0  0  0  0  0  0  0  0  0
  -18.9660  -30.0510   23.9130 C   0  0  0  0  0  3  0  0  0  0  0  0
  -17.6700  -30.5700   24.0990 C   0  0  0  0  0  3  0  0  0  0  0  0
  -16.5510  -29.8240   23.6900 C   0  0  0  0  0  3  0  0  0  0  0  0
  -16.7300  -28.5670   23.0850 C   0  0  0  0  0  3  0  0  0  0  0  0
  -25.8770  -32.4250   23.7890 C   0  0  0  0  0  3  0  0  0  0  0  0
  -25.5620  -33.8190   24.1300 N   0  0  0  0  0  0  0  0  0  0  0  0
  -25.9060  -34.8790   23.3880 C   0  0  0  0  0  0  0  0  0  0  0  0
  -26.5900  -34.7870   22.3650 O   0  0  0  0  0  0  0  0  0  0  0  0
  -24.9540  -33.9640   24.9220 H   0  0  0  0  0  0  0  0  0  0  0  0
  -24.1850  -36.6770   23.0230 C   0  0  0  0  0  1  0  0  0  0  0  0
  -25.4110  -36.2630   23.8520 C   0  0  0  0  0  3  0  0  0  0  0  0
  -27.5310  -37.1350   24.7330 C   0  0  0  0  0  1  0  0  0  0  0  0
  -26.4460  -37.3160   23.7720 N   0  0  0  0  0  0  0  0  0  0  0  0
  -26.0390  -38.2350   23.9240 H   0  0  0  0  0  0  0  0  0  0  0  0
  -26.3970  -31.6470   25.0610 C   0  0  1  0  0  0  0  0  0  0  0  0
  -25.3040  -31.3980   26.1270 C   0  0  0  0  0  1  0  0  0  0  0  0
  -26.9860  -30.2750   24.6600 C   0  0  0  0  0  1  0  0  0  0  0  0
  -27.5440  -32.4420   25.7270 C   0  0  0  0  0  1  0  0  0  0  0  0
  1 52  1  0
  1  2  1  0
  2  4  1  0
  3  1  2  0
  5  2  1  0
  6  8  1  0
  8 12  1  0
  8  7  2  0
  9  6  2  0
  9 10  1  0
 10 11  2  0
 10  5  1  0
 11  7  1  0
 11 22  1  0
 13  9  1  0
 14 22  1  0
 15 20  1  0
 16 17  1  0
 16 15  1  0
 18 17  1  0
 18 27  1  0
 18 19  1  0
 20 14  1  0
 20 19  1  0
 21 14  2  0
 22 23  1  0
 24 25  2  0
 25 44  1  0
 26 25  1  0
 26 29  1  0
 27 24  1  0
 27 28  1  0
 28 26  2  0
 29 30  1  0
 30 31  2  0
 32 35  1  0
 32 31  1  0
 33 32  2  0
 34 33  1  0
 34 29  2  0
 35 36  1  0
 36 37  1  0
 37 38  2  0
 39 38  1  0
 39 43  1  0
 40 39  2  0
 41 36  2  0
 41 40  1  0
 42 41  1  0
 44 45  1  0
 45 48  1  0
 45 47  1  0
 46 44  2  0
 49 50  1  0
 49 24  1  0
 51 49  1  0
 53 54  2  0
 53 52  1  0
 55 54  1  0
 56 67  2  0
 57 55  1  0
 57 62  1  0
 58 66  1  0
 58 68  1  0
 59 65  1  0
 59 61  1  0
 60 66  1  0
 61 60  1  0
 62 61  2  0
 63 64  1  0
 63 57  2  0
 64 59  2  0
 65 58  1  0
 66 56  1  0
 68 70  2  0
 69 68  1  0
 71 69  1  0
 72 81  2  0
 72 77  1  0
 73 69  1  0
 73 77  1  0
 74 73  1  0
 75 76  1  0
 75 74  1  0
 76 72  1  0
 77 78  2  0
 78 79  1  0
 80 79  2  0
 81 80  1  0
 82 56  1  0
 82 83  1  0
 82 92  1  0
 83 86  1  0
 84 88  1  0
 84 83  1  0
 85 84  2  0
 88 87  1  0
 90 88  1  0
 90 91  1  0
 90 89  1  0
 92 95  1  1
 92 93  1  0
 94 92  1  0
M  ISO  4  14 100  22 100  54 101  55 101
M  END
>  <TORSDO>  (82) 
F 21

>  <SCORE>  (82) 
-13.664

>  <name>  (82) 
81

>  <ligand_id>  (82) 
81

>  <original_smiles>  (82) 
[H]c1c([H])c([H])c2c(c1[H])C([H])([H])C([H])([H])C([H])([H])C2([H])N([H])C(=O)C1([H])N(C(=O)C([H])(N([H])C(=O)C([H])(N([H])C([H])([H])[H])C([H])([H])[H])C(C([H])([H])[H])(C([H])([H])[H])C([H])([H])[H])C([H])([H])c2c([H])c(OC([H])([H])C([H])([H])C([H])([H])C(=O)N([H])C([H])([H])c3c(N([H])C(=O)N4C([H])([H])C([H])([H])C([H])([H])C([H])(n5nc(-c6c([H])c([H])c(Oc7c([H])c([H])c(F)c([H])c7F)c([H])c6[H])c(C(=O)N([H])[H])c5N([H])[H])C4([H])[H])c([H])c(C([H])([H])[H])c([H])c3C([H])([H])[H])c([H])c([H])c2C1([H])[H]

>  <smiles>  (82) 
[H]c1c([H])c([H])c2c(c1[H])C([H])([H])C([H])([H])C([H])([H])C2([H])N([H])C(=O)C1([H])N(C(=O)C([H])(N([H])C(=O)C([H])(N([H])C([H])([H])[H])C([H])([H])[H])C(C([H])([H])[H])(C([H])([H])[H])C([H])([H])[H])C([H])([H])c2c([H])c(OC([H])([H])C([H])([H])C([H])([H])C(=O)N([H])C([H])([H])c3c(N([H])C(=O)N4C([H])([H])C([H])([H])C([H])([H])C([H])(n5nc(-c6c([H])c([H])c(Oc7c([H])c([H])c(F)c([H])c7F)c([H])c6[H])c(C(=O)N([H])[H])c5N([H])[H])C4([H])[H])c([H])c(C([H])([H])[H])c([H])c3C([H])([H])[H])c([H])c([H])c2C1([H])[H]

$$$$
82:0:0
     RDKit          3D

 94101  0  0  1  0  0  0  0  0999 V2000
  -26.5030  -17.9920   18.7690 O   0  0  0  0  0  0  0  0  0  0  0  0
  -27.4160  -18.2240   21.0840 O   0  0  0  0  0  0  0  0  0  0  0  0
  -27.6740  -18.2450   19.6350 S   0  0  1  0  0  0  0  0  0  0  0  0
  -31.4610  -16.1600   18.2340 C   0  0  0  0  0  2  0  0  0  0  0  0
  -30.3460  -15.3300   17.9040 C   0  0  0  0  0  2  0  0  0  0  0  0
  -30.0890  -17.3770   19.6240 C   0  0  0  0  0  3  0  0  0  0  0  0
  -31.3670  -17.0070   19.3500 C   0  0  0  0  0  3  0  0  0  0  0  0
  -29.3610  -14.8800   18.9190 C   0  0  0  0  0  2  0  0  0  0  0  0
  -29.0180  -16.5020   19.3430 C   0  0  0  0  0  0  0  0  0  0  0  0
  -29.0340  -12.3180   19.7920 C   0  0  0  0  0  2  0  0  0  0  0  0
  -32.1760  -16.8650   20.6330 C   0  0  0  0  0  2  0  0  0  0  0  0
  -31.6900  -14.6150   21.1980 C   0  0  0  0  0  0  0  0  0  0  0  0
  -31.3590  -12.6960   19.5970 C   0  0  0  0  0  3  0  0  0  0  0  0
  -30.1790  -12.1390   18.1320 C   0  0  0  0  0  3  0  0  0  0  0  0
  -28.2980  -12.6580   18.1590 C   0  0  0  0  0  2  0  0  0  0  0  0
  -27.6290  -13.6900   19.7130 C   0  0  0  0  0  2  0  0  0  0  0  0
  -28.9530  -14.2200   21.1770 C   0  0  0  0  0  1  0  0  0  0  0  0
  -30.7130  -13.7610   20.9510 N   0  0  0  0  0  0  0  0  0  0  0  0
  -32.8300  -14.3610   20.8610 O   0  0  0  0  0  0  0  0  0  0  0  0
  -31.4040  -15.8880   21.4380 N   0  0  0  0  0  0  0  0  0  0  0  0
  -30.4270  -16.0960   21.5890 H   0  0  0  0  0  0  0  0  0  0  0  0
  -25.3910  -13.9120   20.5040 C   0  0  0  0  0  0  0  0  0  0  0  0
  -24.3720  -13.0900   20.8100 C   0  0  0  0  0  0  0  0  0  0  0  0
  -24.8730  -11.7500   20.8120 C   0  0  0  0  0  0  0  0  0  0  0  0
  -26.4300  -13.1030   20.2360 N   0  0  0  0  0  0  0  0  0  0  0  0
  -26.1620  -11.7690   20.4660 N   0  0  0  0  0  0  0  0  0  0  0  0
  -24.1340  -10.4930   21.0390 C   0  0  0  0  0  0  0  0  0  0  0  0
  -24.5000   -9.5490   22.0270 C   0  0  0  0  0  3  0  0  0  0  0  0
  -23.7010   -8.4010   22.2540 C   0  0  0  0  0  3  0  0  0  0  0  0
  -22.5230   -8.1910   21.4930 C   0  0  0  0  0  0  0  0  0  0  0  0
  -22.1830   -9.1170   20.4920 C   0  0  0  0  0  3  0  0  0  0  0  0
  -22.9830  -10.2510   20.2640 C   0  0  0  0  0  3  0  0  0  0  0  0
  -21.7010   -7.0960   21.6170 O   0  0  0  0  0  0  0  0  0  0  0  0
  -21.6060   -6.3940   22.7930 C   0  0  0  0  0  0  0  0  0  0  0  0
  -21.1960   -7.0110   23.9960 C   0  0  0  0  0  3  0  0  0  0  0  0
  -21.0400   -6.2400   25.1640 C   0  0  0  0  0  3  0  0  0  0  0  0
  -21.2920   -4.8550   25.1370 C   0  0  0  0  0  0  0  0  0  0  0  0
  -21.6930   -4.2380   23.9390 C   0  0  0  0  0  3  0  0  0  0  0  0
  -21.8500   -5.0060   22.7720 C   0  0  0  0  0  0  0  0  0  0  0  0
  -22.2180   -4.4020   21.6170 F   0  0  0  0  0  0  0  0  0  0  0  0
  -21.1380   -4.1140   26.2600 F   0  0  0  0  0  0  0  0  0  0  0  0
  -22.9850  -13.5850   20.9860 C   0  0  0  0  0  0  0  0  0  0  0  0
  -22.2360  -12.9740   21.8920 N   0  0  0  0  0  0  0  0  0  0  0  0
  -22.5970  -14.5800   20.3710 O   0  0  0  0  0  0  0  0  0  0  0  0
  -22.5850  -12.1820   22.4100 H   0  0  0  0  0  0  0  0  0  0  0  0
  -21.2890  -13.2860   22.0560 H   0  0  0  0  0  0  0  0  0  0  0  0
  -25.4770  -15.2980   20.3860 N   0  0  0  0  0  0  0  0  0  0  0  0
  -24.6650  -15.8730   20.5860 H   0  0  0  0  0  0  0  0  0  0  0  0
  -26.2570  -15.8450   20.0460 H   0  0  0  0  0  0  0  0  0  0  0  0
  -28.1010  -20.3210   19.3120 N   0  0  0  0  0  0  0  0  0  0  0  0
  -28.2840  -20.4360   18.3110 H   0  0  0  0  0  0  0  0  0  0  0  0
  -27.9600  -21.9510   20.0830 C   0  0  0  0  0  2  0  0  0  0  0  0
  -27.7930  -23.7740   19.5110 C   0  0  0  0  0  2  0  0  0  0  0  0
  -28.0210  -25.4270   20.0500 O   0  0  0  0  0  0  0  0  0  0  0  0
  -24.7010  -31.7000   23.2110 C   0  0  0  0  0  0  0  0  0  0  0  0
  -27.1710  -26.7080   20.0230 C   0  0  0  0  0  0  0  0  0  0  0  0
  -23.5520  -30.3640   21.5090 C   0  0  0  0  0  3  0  0  0  0  0  0
  -24.9990  -28.7850   20.0430 C   0  0  0  0  0  0  0  0  0  0  0  0
  -26.1320  -30.4790   21.4550 C   0  0  0  0  0  2  0  0  0  0  0  0
  -26.1820  -29.0810   20.7250 C   0  0  0  0  0  0  0  0  0  0  0  0
  -27.2670  -28.0590   20.6960 C   0  0  0  0  0  3  0  0  0  0  0  0
  -25.9770  -26.6380   19.2840 C   0  0  0  0  0  3  0  0  0  0  0  0
  -24.9350  -27.5960   19.3010 C   0  0  0  0  0  3  0  0  0  0  0  0
  -23.8120  -29.7470   20.1120 C   0  0  0  0  0  2  0  0  0  0  0  0
  -24.8210  -30.8790   22.1120 N   0  0  0  0  0  0  0  0  0  0  0  0
  -23.5920  -31.9880   23.6950 O   0  0  0  0  0  0  0  0  0  0  0  0
  -22.8200  -29.3400   22.4190 C   0  0  0  0  0  0  0  0  0  0  0  0
  -21.4940  -29.1870   22.2550 N   0  0  0  0  0  0  0  0  0  0  0  0
  -23.4560  -28.6920   23.2530 O   0  0  0  0  0  0  0  0  0  0  0  0
  -21.0310  -29.7650   21.5660 H   0  0  0  0  0  0  0  0  0  0  0  0
  -18.0920  -27.9690   22.6390 C   0  0  0  0  0  0  0  0  0  0  0  0
  -20.6440  -28.2320   22.9740 C   0  0  0  0  0  3  0  0  0  0  0  0
  -20.7580  -26.8170   22.3590 C   0  0  0  0  0  2  0  0  0  0  0  0
  -19.6800  -26.5240   21.3080 C   0  0  0  0  0  2  0  0  0  0  0  0
  -18.2860  -26.6470   21.9220 C   0  0  0  0  0  2  0  0  0  0  0  0
  -19.1970  -28.7230   23.1170 C   0  0  0  0  0  0  0  0  0  0  0  0
  -18.9540  -29.9640   23.7450 C   0  0  0  0  0  3  0  0  0  0  0  0
  -17.6400  -30.4460   23.9080 C   0  0  0  0  0  3  0  0  0  0  0  0
  -16.5510  -29.6910   23.4370 C   0  0  0  0  0  3  0  0  0  0  0  0
  -16.7800  -28.4550   22.8050 C   0  0  0  0  0  3  0  0  0  0  0  0
  -25.9450  -32.3320   23.9040 C   0  0  0  0  0  3  0  0  0  0  0  0
  -25.5930  -33.7060   24.3150 N   0  0  0  0  0  0  0  0  0  0  0  0
  -25.9420  -34.8190   23.6580 C   0  0  0  0  0  0  0  0  0  0  0  0
  -26.6490  -34.7990   22.6490 O   0  0  0  0  0  0  0  0  0  0  0  0
  -24.9720  -33.7960   25.1060 H   0  0  0  0  0  0  0  0  0  0  0  0
  -24.2180  -36.6320   23.3700 C   0  0  0  0  0  1  0  0  0  0  0  0
  -25.4240  -36.1680   24.2020 C   0  0  0  0  0  3  0  0  0  0  0  0
  -27.5140  -36.9910   25.1940 C   0  0  0  0  0  1  0  0  0  0  0  0
  -26.4540  -37.2320   24.2190 N   0  0  0  0  0  0  0  0  0  0  0  0
  -26.0360  -38.1370   24.4230 H   0  0  0  0  0  0  0  0  0  0  0  0
  -26.4320  -31.5120   25.1620 C   0  0  1  0  0  0  0  0  0  0  0  0
  -25.3120  -31.2190   26.1900 C   0  0  0  0  0  1  0  0  0  0  0  0
  -27.0440  -30.1620   24.7360 C   0  0  0  0  0  1  0  0  0  0  0  0
  -27.5590  -32.2840   25.8880 C   0  0  0  0  0  1  0  0  0  0  0  0
  1  3  2  0
  3  2  2  0
  4  7  1  0
  5  4  1  0
  5  8  1  0
  7  6  1  0
  7 11  1  0
  8  9  1  0
  9  6  2  0
  9  3  1  0
 11 20  1  0
 12 20  1  0
 13 18  1  0
 14 15  1  0
 14 13  2  0
 15 10  1  0
 16 10  1  0
 16 25  1  0
 18 17  1  0
 18 12  1  0
 19 12  2  0
 20 21  1  0
 22 23  2  0
 23 24  1  0
 23 42  1  0
 24 27  1  0
 25 26  1  0
 25 22  1  0
 26 24  2  0
 27 28  1  0
 28 29  2  0
 30 33  1  0
 30 29  1  0
 31 30  2  0
 32 31  1  0
 32 27  2  0
 33 34  1  0
 34 35  1  0
 35 36  2  0
 37 36  1  0
 37 41  1  0
 38 37  2  0
 39 34  2  0
 39 38  1  0
 40 39  1  0
 42 43  1  0
 43 46  1  0
 43 45  1  0
 44 42  2  0
 47 22  1  0
 47 48  1  0
 49 47  1  0
  3 50  1  6
 50 52  1  0
 51 50  1  0
 53 54  1  0
 53 52  1  0
 55 66  2  0
 56 54  1  0
 56 61  1  0
 57 65  1  0
 57 67  1  0
 58 64  1  0
 58 60  1  0
 59 65  1  0
 60 59  1  0
 61 60  2  0
 62 63  1  0
 62 56  2  0
 63 58  2  0
 64 57  1  0
 65 55  1  0
 67 69  2  0
 68 67  1  0
 70 68  1  0
 71 80  2  0
 71 76  1  0
 72 68  1  0
 72 76  1  0
 73 72  1  0
 74 75  1  0
 74 73  1  0
 75 71  1  0
 76 77  2  0
 77 78  1  0
 79 78  2  0
 80 79  1  0
 81 55  1  0
 81 82  1  0
 81 91  1  0
 82 85  1  0
 83 87  1  0
 83 82  1  0
 84 83  2  0
 87 86  1  0
 87 89  1  0
 89 90  1  0
 89 88  1  0
 91 94  1  1
 91 92  1  0
 93 91  1  0
M  ISO  4  12 100  20 100  53 101  54 101
M  END
>  <TORSDO>  (83) 
F 21

>  <SCORE>  (83) 
-13.860

>  <name>  (83) 
82

>  <ligand_id>  (83) 
82

>  <original_smiles>  (83) 
[H]c1c([H])c([H])c2c(c1[H])C([H])([H])C([H])([H])C([H])([H])C2([H])N([H])C(=O)C1([H])N(C(=O)C([H])(N([H])C(=O)C([H])(N([H])C([H])([H])[H])C([H])([H])[H])C(C([H])([H])[H])(C([H])([H])[H])C([H])([H])[H])C([H])([H])c2c([H])c(OC([H])([H])C([H])([H])N([H])S(=O)(=O)c3c([H])c(C([H])([H])N([H])C(=O)N4C([H])([H])C([H])([H])C([H])([H])C([H])(n5nc(-c6c([H])c([H])c(Oc7c([H])c([H])c(F)c([H])c7F)c([H])c6[H])c(C(=O)N([H])[H])c5N([H])[H])C4([H])[H])c([H])c([H])c3C([H])([H])[H])c([H])c([H])c2C1([H])[H]

>  <smiles>  (83) 
[H]c1c([H])c([H])c2c(c1[H])C([H])([H])C([H])([H])C([H])([H])C2([H])N([H])C(=O)C1([H])N(C(=O)C([H])(N([H])C(=O)C([H])(N([H])C([H])([H])[H])C([H])([H])[H])C(C([H])([H])[H])(C([H])([H])[H])C([H])([H])[H])C([H])([H])c2c([H])c(OC([H])([H])C([H])([H])N([H])S(=O)(=O)c3c([H])c(C([H])([H])N([H])C(=O)N4C([H])([H])C([H])([H])C([H])([H])C([H])(n5nc(-c6c([H])c([H])c(Oc7c([H])c([H])c(F)c([H])c7F)c([H])c6[H])c(C(=O)N([H])[H])c5N([H])[H])C4([H])[H])c([H])c([H])c3C([H])([H])[H])c([H])c([H])c2C1([H])[H]

$$$$
83:0:0
     RDKit          3D

 99108  0  0  1  0  0  0  0  0999 V2000
  -28.1500  -24.0990   19.2380 C   0  0  0  0  0  3  0  0  0  0  0  0
  -27.0700  -23.8530   18.4610 C   0  0  0  0  0  2  0  0  0  0  0  0
  -30.8320  -24.5920   20.2270 C   0  0  0  0  0  2  0  0  0  0  0  0
  -30.2600  -25.6130   19.2440 C   0  0  0  0  0  2  0  0  0  0  0  0
  -30.5510  -23.1720   19.7200 C   0  0  0  0  0  2  0  0  0  0  0  0
  -28.7260  -25.5880   19.2320 C   0  0  0  0  0  3  0  0  0  0  0  0
  -29.1030  -22.8720   19.5790 N   0  0  1  0  0  4  0  0  0  0  0  0
  -29.1110  -22.3330   18.7270 H   0  0  0  0  0  0  0  0  0  0  0  0
  -25.3810  -22.3190   17.5790 C   0  0  0  0  0  2  0  0  0  0  0  0
  -26.6520  -22.5820   17.9170 C   0  0  0  0  0  3  0  0  0  0  0  0
  -28.3240  -26.6230   20.2140 O   0  0  0  0  0  0  0  0  0  0  0  0
  -24.6880  -31.9490   23.4120 C   0  0  0  0  0  0  0  0  0  0  0  0
  -27.2190  -27.4890   20.1210 C   0  0  0  0  0  0  0  0  0  0  0  0
  -23.4420  -30.6170   21.7480 C   0  0  0  0  0  3  0  0  0  0  0  0
  -24.8550  -29.1130   20.2300 C   0  0  0  0  0  0  0  0  0  0  0  0
  -25.9790  -30.9260   21.5240 C   0  0  0  0  0  2  0  0  0  0  0  0
  -26.0380  -29.5740   20.8200 C   0  0  0  0  0  0  0  0  0  0  0  0
  -27.2160  -28.7690   20.7640 C   0  0  0  0  0  3  0  0  0  0  0  0
  -26.0060  -27.0740   19.5360 C   0  0  0  0  0  3  0  0  0  0  0  0
  -24.8420  -27.8670   19.5820 C   0  0  0  0  0  3  0  0  0  0  0  0
  -23.6230  -29.9880   20.3400 C   0  0  0  0  0  2  0  0  0  0  0  0
  -24.7240  -31.1790   22.2850 N   0  0  0  0  0  0  0  0  0  0  0  0
  -23.6180  -32.2140   23.9790 O   0  0  0  0  0  0  0  0  0  0  0  0
  -22.7920  -29.5710   22.6860 C   0  0  0  0  0  0  0  0  0  0  0  0
  -21.4710  -29.3690   22.5430 N   0  0  0  0  0  0  0  0  0  0  0  0
  -23.4750  -28.9480   23.5020 O   0  0  0  0  0  0  0  0  0  0  0  0
  -20.9780  -29.9260   21.8580 H   0  0  0  0  0  0  0  0  0  0  0  0
  -18.1230  -28.0620   22.9540 C   0  0  0  0  0  0  0  0  0  0  0  0
  -20.6630  -28.4030   23.2900 C   0  0  0  0  0  3  0  0  0  0  0  0
  -20.8270  -26.9780   22.7130 C   0  0  0  0  0  2  0  0  0  0  0  0
  -19.7620  -26.6230   21.6700 C   0  0  0  0  0  2  0  0  0  0  0  0
  -18.3600  -26.7220   22.2780 C   0  0  0  0  0  2  0  0  0  0  0  0
  -19.2040  -28.8590   23.4140 C   0  0  0  0  0  0  0  0  0  0  0  0
  -18.9290  -30.1120   24.0030 C   0  0  0  0  0  3  0  0  0  0  0  0
  -17.6050  -30.5690   24.1370 C   0  0  0  0  0  3  0  0  0  0  0  0
  -16.5370  -29.7690   23.6930 C   0  0  0  0  0  3  0  0  0  0  0  0
  -16.7970  -28.5180   23.1070 C   0  0  0  0  0  3  0  0  0  0  0  0
  -25.9880  -32.5510   24.0310 C   0  0  0  0  0  3  0  0  0  0  0  0
  -26.4990  -31.7560   25.2950 C   0  0  1  0  0  0  0  0  0  0  0  0
  -25.4110  -31.5250   26.3690 C   0  0  0  0  0  1  0  0  0  0  0  0
  -27.0550  -30.3730   24.8830 C   0  0  0  0  0  1  0  0  0  0  0  0
  -27.6690  -32.5220   25.9570 C   0  0  0  0  0  1  0  0  0  0  0  0
  -25.7050  -33.9500   24.3820 N   0  0  0  0  0  0  0  0  0  0  0  0
  -26.0480  -35.0070   23.6340 C   0  0  0  0  0  0  0  0  0  0  0  0
  -26.7050  -34.9060   22.5940 O   0  0  0  0  0  0  0  0  0  0  0  0
  -25.1220  -34.1050   25.1920 H   0  0  0  0  0  0  0  0  0  0  0  0
  -24.3550  -36.8410   23.3160 C   0  0  0  0  0  1  0  0  0  0  0  0
  -25.5920  -36.3990   24.1150 C   0  0  0  0  0  3  0  0  0  0  0  0
  -27.7440  -37.2330   24.9540 C   0  0  0  0  0  1  0  0  0  0  0  0
  -26.6450  -37.4320   24.0130 N   0  0  0  0  0  0  0  0  0  0  0  0
  -26.2570  -38.3590   24.1690 H   0  0  0  0  0  0  0  0  0  0  0  0
  -28.6440  -21.7830   20.5590 C   0  0  0  0  0  2  0  0  0  0  0  0
  -30.1230  -19.7430   21.3420 C   0  0  0  0  0  3  0  0  0  0  0  0
  -29.1210  -20.2450   20.4600 C   0  0  0  0  0  0  0  0  0  0  0  0
  -28.4780  -19.2280   19.6710 C   0  0  0  0  0  0  0  0  0  0  0  0
  -28.8470  -17.8350   19.7570 C   0  0  0  0  0  0  0  0  0  0  0  0
  -29.7670  -17.3480   20.7330 C   0  0  0  0  0  0  0  0  0  0  0  0
  -30.4160  -18.3500   21.5060 C   0  0  0  0  0  0  0  0  0  0  0  0
  -27.3010  -19.5780   18.7690 C   0  0  0  0  0  1  0  0  0  0  0  0
  -28.2140  -16.8310   18.7950 C   0  0  0  0  0  1  0  0  0  0  0  0
  -31.5290  -17.8860   22.7440 Cl  0  0  0  0  0  0  0  0  0  0  0  0
  -30.6660  -14.8870   20.8670 C   0  0  0  0  0  0  0  0  0  0  0  0
  -30.6100  -12.5910   19.9040 C   0  0  0  0  0  2  0  0  0  0  0  0
  -29.7480  -12.6390   18.6220 C   0  0  0  0  0  2  0  0  0  0  0  0
  -28.2520  -12.4550   18.9530 C   0  0  0  0  0  2  0  0  0  0  0  0
  -27.7860  -13.3480   20.1330 C   0  0  0  0  0  3  0  0  0  0  0  0
  -28.7700  -13.2670   21.3220 C   0  0  0  0  0  2  0  0  0  0  0  0
  -30.1060  -13.6340   20.8200 N   0  0  0  0  0  0  0  0  0  0  0  0
  -31.8500  -15.0690   20.5670 O   0  0  0  0  0  0  0  0  0  0  0  0
  -29.7880  -15.9180   21.0990 N   0  0  0  0  0  0  0  0  0  0  0  0
  -28.8800  -15.5640   21.3530 H   0  0  0  0  0  0  0  0  0  0  0  0
  -25.3440  -13.9310   20.6820 C   0  0  0  0  0  0  0  0  0  0  0  0
  -24.2630  -13.1500   20.9850 C   0  0  0  0  0  0  0  0  0  0  0  0
  -24.7410  -11.8040   21.0030 C   0  0  0  0  0  0  0  0  0  0  0  0
  -26.4120  -13.0600   20.5290 N   0  0  0  0  0  0  0  0  0  0  0  0
  -26.0500  -11.7760   20.7830 N   0  0  0  0  0  0  0  0  0  0  0  0
  -24.0190  -10.5370   21.1580 C   0  0  0  0  0  0  0  0  0  0  0  0
  -24.4040   -9.5830   22.1260 C   0  0  0  0  0  3  0  0  0  0  0  0
  -23.6830   -8.3780   22.2700 C   0  0  0  0  0  3  0  0  0  0  0  0
  -22.5620   -8.1190   21.4450 C   0  0  0  0  0  0  0  0  0  0  0  0
  -22.1980   -9.0620   20.4680 C   0  0  0  0  0  3  0  0  0  0  0  0
  -22.9200  -10.2580   20.3220 C   0  0  0  0  0  3  0  0  0  0  0  0
  -21.8170   -6.9660   21.4970 O   0  0  0  0  0  0  0  0  0  0  0  0
  -21.7100   -6.2290   22.6490 C   0  0  0  0  0  0  0  0  0  0  0  0
  -21.1760   -6.7770   23.8360 C   0  0  0  0  0  3  0  0  0  0  0  0
  -21.0200   -5.9640   24.9770 C   0  0  0  0  0  3  0  0  0  0  0  0
  -21.3870   -4.6050   24.9310 C   0  0  0  0  0  0  0  0  0  0  0  0
  -21.9130   -4.0580   23.7480 C   0  0  0  0  0  3  0  0  0  0  0  0
  -22.0710   -4.8680   22.6090 C   0  0  0  0  0  0  0  0  0  0  0  0
  -22.5590   -4.3310   21.4650 F   0  0  0  0  0  0  0  0  0  0  0  0
  -21.2290   -3.8220   26.0230 F   0  0  0  0  0  0  0  0  0  0  0  0
  -22.8450  -13.6140   21.1550 C   0  0  0  0  0  0  0  0  0  0  0  0
  -22.0670  -12.9190   21.9780 N   0  0  0  0  0  0  0  0  0  0  0  0
  -22.4320  -14.6280   20.5950 O   0  0  0  0  0  0  0  0  0  0  0  0
  -22.4110  -12.0990   22.4550 H   0  0  0  0  0  0  0  0  0  0  0  0
  -21.1130  -13.2120   22.1350 H   0  0  0  0  0  0  0  0  0  0  0  0
  -25.5010  -15.3020   20.5050 N   0  0  0  0  0  0  0  0  0  0  0  0
  -24.7170  -15.9410   20.5740 H   0  0  0  0  0  0  0  0  0  0  0  0
  -26.3640  -15.7630   20.2540 H   0  0  0  0  0  0  0  0  0  0  0  0
  1  2  1  0
  1  7  1  0
  4  3  1  0
  5  3  1  0
  6  1  1  0
  6  4  1  0
  6 11  1  0
  7  5  1  0
  7 52  1  0
  7  8  1  6
  9 10  2  0
 10  2  1  0
 12 23  2  0
 13 11  1  0
 13 18  1  0
 14 22  1  0
 14 24  1  0
 15 21  1  0
 15 17  1  0
 16 22  1  0
 17 16  1  0
 18 17  2  0
 19 20  1  0
 19 13  2  0
 20 15  2  0
 21 14  1  0
 22 12  1  0
 24 26  2  0
 25 24  1  0
 27 25  1  0
 28 37  2  0
 28 33  1  0
 29 25  1  0
 29 33  1  0
 30 29  1  0
 31 32  1  0
 31 30  1  0
 32 28  1  0
 33 34  2  0
 34 35  1  0
 36 35  2  0
 37 36  1  0
 38 12  1  0
 38 43  1  0
 38 39  1  0
 39 42  1  1
 39 40  1  0
 41 39  1  0
 43 46  1  0
 44 48  1  0
 44 43  1  0
 45 44  2  0
 48 47  1  0
 50 48  1  0
 50 51  1  0
 50 49  1  0
 53 58  1  0
 54 52  1  0
 54 53  2  0
 55 56  2  0
 55 54  1  0
 56 57  1  0
 57 70  1  0
 57 58  2  0
 58 61  1  0
 59 55  1  0
 60 56  1  0
 62 70  1  0
 63 68  1  0
 64 65  1  0
 64 63  1  0
 66 65  1  0
 66 75  1  0
 66 67  1  0
 68 62  1  0
 68 67  1  0
 69 62  2  0
 70 71  1  0
 72 73  2  0
 73 74  1  0
 73 92  1  0
 74 77  1  0
 75 72  1  0
 75 76  1  0
 76 74  2  0
 77 78  1  0
 78 79  2  0
 80 83  1  0
 80 79  1  0
 81 80  2  0
 82 81  1  0
 82 77  2  0
 83 84  1  0
 84 85  1  0
 85 86  2  0
 87 86  1  0
 87 91  1  0
 88 87  2  0
 89 84  2  0
 89 88  1  0
 90 89  1  0
 92 93  1  0
 93 96  1  0
 93 95  1  0
 94 92  2  0
 97 98  1  0
 97 72  1  0
 99 97  1  0
M  ISO  4   6 101  11 101  62 100  70 100
M  END
>  <TORSDO>  (84) 
F 19

>  <SCORE>  (84) 
-13.997

>  <name>  (84) 
83

>  <ligand_id>  (84) 
83

>  <original_smiles>  (84) 
[H]C([H])=C([H])C([H])=C1C([H])(Oc2c([H])c([H])c3c(c2[H])C([H])([H])N(C(=O)C([H])(N([H])C(=O)C([H])(N([H])C([H])([H])[H])C([H])([H])[H])C(C([H])([H])[H])(C([H])([H])[H])C([H])([H])[H])C([H])(C(=O)N([H])C2([H])c4c([H])c([H])c([H])c([H])c4C([H])([H])C([H])([H])C2([H])[H])C3([H])[H])C([H])([H])C([H])([H])C([H])([H])[N+]1([H])C([H])([H])c1c([H])c(Cl)c(N([H])C(=O)N2C([H])([H])C([H])([H])C([H])([H])C([H])(n3nc(-c4c([H])c([H])c(Oc5c([H])c([H])c(F)c([H])c5F)c([H])c4[H])c(C(=O)N([H])[H])c3N([H])[H])C2([H])[H])c(C([H])([H])[H])c1C([H])([H])[H]

>  <smiles>  (84) 
[H]C([H])=C([H])C([H])=C1C([H])(Oc2c([H])c([H])c3c(c2[H])C([H])([H])N(C(=O)C([H])(N([H])C(=O)C([H])(N([H])C([H])([H])[H])C([H])([H])[H])C(C([H])([H])[H])(C([H])([H])[H])C([H])([H])[H])C([H])(C(=O)N([H])C2([H])c4c([H])c([H])c([H])c([H])c4C([H])([H])C([H])([H])C2([H])[H])C3([H])[H])C([H])([H])C([H])([H])C([H])([H])[N+]1([H])C([H])([H])c1c([H])c(Cl)c(N([H])C(=O)N2C([H])([H])C([H])([H])C([H])([H])C([H])(n3nc(-c4c([H])c([H])c(Oc5c([H])c([H])c(F)c([H])c5F)c([H])c4[H])c(C(=O)N([H])[H])c3N([H])[H])C2([H])[H])c(C([H])([H])[H])c1C([H])([H])[H]

$$$$
84:0:0
     RDKit          3D

 95103  0  0  1  0  0  0  0  0999 V2000
  -29.6510  -20.4650   19.9890 C   0  0  0  0  0  2  0  0  0  0  0  0
  -30.9710  -17.5410   22.2580 C   0  0  0  0  0  3  0  0  0  0  0  0
  -30.6770  -19.5290   23.6000 C   0  0  0  0  0  3  0  0  0  0  0  0
  -30.4210  -18.1780   21.1190 C   0  0  0  0  0  0  0  0  0  0  0  0
  -30.1080  -19.5920   21.1950 C   0  0  0  0  0  0  0  0  0  0  0  0
  -31.1080  -18.2050   23.4850 C   0  0  0  0  0  0  0  0  0  0  0  0
  -30.1790  -20.2140   22.4790 C   0  0  0  0  0  0  0  0  0  0  0  0
  -31.7660  -17.3810   24.8500 Cl  0  0  0  0  0  0  0  0  0  0  0  0
  -29.6420  -21.8380   22.7590 Cl  0  0  0  0  0  0  0  0  0  0  0  0
  -30.1720  -17.2480   19.9050 C   0  0  0  0  0  2  0  0  0  0  0  0
  -30.8240  -14.7760   20.1810 C   0  0  0  0  0  0  0  0  0  0  0  0
  -30.7960  -12.3730   19.5920 C   0  0  0  0  0  2  0  0  0  0  0  0
  -29.9540  -12.1940   18.3110 C   0  0  0  0  0  2  0  0  0  0  0  0
  -28.4560  -12.0410   18.6500 C   0  0  0  0  0  2  0  0  0  0  0  0
  -27.9540  -13.1170   19.6510 C   0  0  0  0  0  3  0  0  0  0  0  0
  -28.9210  -13.2570   20.8490 C   0  0  0  0  0  2  0  0  0  0  0  0
  -30.2620  -13.5400   20.3140 N   0  0  0  0  0  0  0  0  0  0  0  0
  -31.9900  -14.9380   19.8140 O   0  0  0  0  0  0  0  0  0  0  0  0
  -29.9650  -15.8180   20.2770 N   0  0  0  0  0  0  0  0  0  0  0  0
  -29.0250  -15.5720   20.5430 H   0  0  0  0  0  0  0  0  0  0  0  0
  -25.5130  -13.7280   20.1870 C   0  0  0  0  0  0  0  0  0  0  0  0
  -24.4400  -12.9660   20.5650 C   0  0  0  0  0  0  0  0  0  0  0  0
  -24.9250  -11.6270   20.6710 C   0  0  0  0  0  0  0  0  0  0  0  0
  -26.5830  -12.8530   20.0840 N   0  0  0  0  0  0  0  0  0  0  0  0
  -26.2310  -11.5900   20.4340 N   0  0  0  0  0  0  0  0  0  0  0  0
  -24.2100  -10.3700   20.9280 C   0  0  0  0  0  0  0  0  0  0  0  0
  -24.5720   -9.5200   21.9970 C   0  0  0  0  0  3  0  0  0  0  0  0
  -23.8590   -8.3260   22.2340 C   0  0  0  0  0  3  0  0  0  0  0  0
  -22.7710   -7.9700   21.4020 C   0  0  0  0  0  0  0  0  0  0  0  0
  -22.4290   -8.8080   20.3250 C   0  0  0  0  0  3  0  0  0  0  0  0
  -23.1420   -9.9940   20.0870 C   0  0  0  0  0  3  0  0  0  0  0  0
  -22.0360   -6.8170   21.5420 O   0  0  0  0  0  0  0  0  0  0  0  0
  -21.8160   -6.2490   22.7710 C   0  0  0  0  0  0  0  0  0  0  0  0
  -21.2000   -6.9640   23.8220 C   0  0  0  0  0  3  0  0  0  0  0  0
  -20.9300   -6.3200   25.0470 C   0  0  0  0  0  3  0  0  0  0  0  0
  -21.2640   -4.9640   25.2190 C   0  0  0  0  0  0  0  0  0  0  0  0
  -21.8720   -4.2490   24.1720 C   0  0  0  0  0  3  0  0  0  0  0  0
  -22.1450   -4.8910   22.9500 C   0  0  0  0  0  0  0  0  0  0  0  0
  -22.7120   -4.1920   21.9370 F   0  0  0  0  0  0  0  0  0  0  0  0
  -20.9960   -4.3430   26.3910 F   0  0  0  0  0  0  0  0  0  0  0  0
  -23.0220  -13.4340   20.7220 C   0  0  0  0  0  0  0  0  0  0  0  0
  -22.2770  -12.8370   21.6470 N   0  0  0  0  0  0  0  0  0  0  0  0
  -22.5810  -14.3690   20.0580 O   0  0  0  0  0  0  0  0  0  0  0  0
  -22.6430  -12.0840   22.2100 H   0  0  0  0  0  0  0  0  0  0  0  0
  -21.3240  -13.1410   21.7920 H   0  0  0  0  0  0  0  0  0  0  0  0
  -25.6640  -15.0830   19.9050 N   0  0  0  0  0  0  0  0  0  0  0  0
  -24.8780  -15.7230   19.9240 H   0  0  0  0  0  0  0  0  0  0  0  0
  -26.5120  -15.5120   19.5560 H   0  0  0  0  0  0  0  0  0  0  0  0
  -30.0990  -21.9040   20.0460 N   0  0  0  0  0  4  0  0  0  0  0  0
  -31.0040  -21.9880   19.6080 H   0  0  0  0  0  0  0  0  0  0  0  0
  -30.2070  -22.1070   21.0280 H   0  0  0  0  0  0  0  0  0  0  0  0
  -29.1450  -22.9310   19.5060 C   0  0  0  0  0  2  0  0  0  0  0  0
  -29.4750  -24.4390   19.8350 C   0  0  0  0  0  2  0  0  0  0  0  0
  -28.3130  -25.4180   19.4620 C   0  0  0  0  0  2  0  0  0  0  0  0
  -28.4620  -26.8350   19.7840 O   0  0  0  0  0  0  0  0  0  0  0  0
  -24.6800  -31.8110   23.2860 C   0  0  0  0  0  0  0  0  0  0  0  0
  -27.3130  -27.6280   19.7950 C   0  0  0  0  0  0  0  0  0  0  0  0
  -23.4740  -30.5690   21.5230 C   0  0  0  0  0  3  0  0  0  0  0  0
  -24.9250  -29.1790   19.9490 C   0  0  0  0  0  0  0  0  0  0  0  0
  -26.0040  -30.9310   21.3580 C   0  0  0  0  0  2  0  0  0  0  0  0
  -26.0880  -29.6240   20.5890 C   0  0  0  0  0  0  0  0  0  0  0  0
  -27.2820  -28.8570   20.5100 C   0  0  0  0  0  3  0  0  0  0  0  0
  -26.1300  -27.2390   19.1200 C   0  0  0  0  0  3  0  0  0  0  0  0
  -24.9440  -27.9890   19.2070 C   0  0  0  0  0  3  0  0  0  0  0  0
  -23.6820  -30.0310   20.0830 C   0  0  0  0  0  2  0  0  0  0  0  0
  -24.7390  -31.1140   22.1150 N   0  0  0  0  0  0  0  0  0  0  0  0
  -23.6000  -32.0290   23.8500 O   0  0  0  0  0  0  0  0  0  0  0  0
  -22.8240  -29.4600   22.3820 C   0  0  0  0  0  0  0  0  0  0  0  0
  -21.4970  -29.2970   22.2500 N   0  0  0  0  0  0  0  0  0  0  0  0
  -23.5100  -28.7540   23.1270 O   0  0  0  0  0  0  0  0  0  0  0  0
  -21.0050  -29.9200   21.6250 H   0  0  0  0  0  0  0  0  0  0  0  0
  -18.1220  -28.0600   22.6460 C   0  0  0  0  0  0  0  0  0  0  0  0
  -20.6820  -28.2900   22.9320 C   0  0  0  0  0  3  0  0  0  0  0  0
  -20.7820  -26.9200   22.2210 C   0  0  0  0  0  2  0  0  0  0  0  0
  -19.6750  -26.6960   21.1860 C   0  0  0  0  0  2  0  0  0  0  0  0
  -18.2960  -26.7800   21.8460 C   0  0  0  0  0  2  0  0  0  0  0  0
  -19.2430  -28.7770   23.1430 C   0  0  0  0  0  0  0  0  0  0  0  0
  -19.0290  -29.9790   23.8520 C   0  0  0  0  0  3  0  0  0  0  0  0
  -17.7250  -30.4620   24.0690 C   0  0  0  0  0  3  0  0  0  0  0  0
  -16.6190  -29.7410   23.5900 C   0  0  0  0  0  3  0  0  0  0  0  0
  -16.8180  -28.5410   22.8840 C   0  0  0  0  0  3  0  0  0  0  0  0
  -25.9650  -32.3850   23.9580 C   0  0  0  0  0  3  0  0  0  0  0  0
  -25.6950  -33.7840   24.3090 N   0  0  0  0  0  0  0  0  0  0  0  0
  -26.1210  -34.8420   23.6040 C   0  0  0  0  0  0  0  0  0  0  0  0
  -26.8530  -34.7360   22.6160 O   0  0  0  0  0  0  0  0  0  0  0  0
  -25.0580  -33.9430   25.0760 H   0  0  0  0  0  0  0  0  0  0  0  0
  -24.5120  -36.7260   23.1760 C   0  0  0  0  0  1  0  0  0  0  0  0
  -25.6630  -36.2370   24.0690 C   0  0  0  0  0  3  0  0  0  0  0  0
  -27.7600  -36.9910   25.0990 C   0  0  0  0  0  1  0  0  0  0  0  0
  -26.7480  -37.2410   24.0760 N   0  0  0  0  0  0  0  0  0  0  0  0
  -26.3750  -38.1760   24.2220 H   0  0  0  0  0  0  0  0  0  0  0  0
  -26.4170  -31.5680   25.2310 C   0  0  1  0  0  0  0  0  0  0  0  0
  -25.2900  -31.3600   26.2690 C   0  0  0  0  0  1  0  0  0  0  0  0
  -26.9500  -30.1740   24.8260 C   0  0  0  0  0  1  0  0  0  0  0  0
  -27.5850  -32.2990   25.9350 C   0  0  0  0  0  1  0  0  0  0  0  0
  1 49  1  0
  1  5  1  0
  2  6  1  0
  4  5  1  0
  4  2  2  0
  5  7  2  0
  6  3  2  0
  6  8  1  0
  7  9  1  0
  7  3  1  0
 10 19  1  0
 10  4  1  0
 11 19  1  0
 11 17  1  0
 12 17  1  0
 13 14  1  0
 13 12  1  0
 15 14  1  0
 15 24  1  0
 15 16  1  0
 17 16  1  0
 18 11  2  0
 19 20  1  0
 21 22  2  0
 22 23  1  0
 22 41  1  0
 23 26  1  0
 24 21  1  0
 24 25  1  0
 25 23  2  0
 26 27  1  0
 27 28  2  0
 29 32  1  0
 29 28  1  0
 30 29  2  0
 31 30  1  0
 31 26  2  0
 32 33  1  0
 33 38  2  0
 33 34  1  0
 34 35  2  0
 35 36  1  0
 36 40  1  0
 37 36  2  0
 38 37  1  0
 39 38  1  0
 41 42  1  0
 42 45  1  0
 42 44  1  0
 43 41  2  0
 46 47  1  0
 46 21  1  0
 48 46  1  0
 49 51  1  0
 50 49  1  0
 52 53  1  0
 52 49  1  0
 54 55  1  0
 54 53  1  0
 55 57  1  0
 56 67  2  0
 57 62  1  0
 58 66  1  0
 58 68  1  0
 59 65  1  0
 59 61  1  0
 60 66  1  0
 61 60  1  0
 62 61  2  0
 63 64  1  0
 63 57  2  0
 64 59  2  0
 65 58  1  0
 66 56  1  0
 68 70  2  0
 69 68  1  0
 71 69  1  0
 72 81  2  0
 72 77  1  0
 73 69  1  0
 73 77  1  0
 74 73  1  0
 75 76  1  0
 75 74  1  0
 76 72  1  0
 77 78  2  0
 78 79  1  0
 80 79  2  0
 81 80  1  0
 82 56  1  0
 82 83  1  0
 82 92  1  0
 83 86  1  0
 84 88  1  0
 84 83  1  0
 85 84  2  0
 88 87  1  0
 88 90  1  0
 90 91  1  0
 90 89  1  0
 92 95  1  1
 92 93  1  0
 94 92  1  0
M  ISO  4  11 100  19 100  54 101  55 101
M  END
>  <TORSDO>  (85) 
F 22

>  <SCORE>  (85) 
-7.544

>  <name>  (85) 
84

>  <ligand_id>  (85) 
84

>  <original_smiles>  (85) 
[H]c1c([H])c([H])c2c(c1[H])C([H])([H])C([H])([H])C([H])([H])C2([H])N([H])C(=O)C1([H])N(C(=O)C([H])(N([H])C(=O)C([H])(N([H])C([H])([H])[H])C([H])([H])[H])C(C([H])([H])[H])(C([H])([H])[H])C([H])([H])[H])C([H])([H])c2c([H])c(OC([H])([H])C([H])([H])C([H])([H])[N+]([H])([H])C([H])([H])c3c(Cl)c([H])c(Cl)c([H])c3C([H])([H])N([H])C(=O)N3C([H])([H])C([H])([H])C([H])([H])C([H])(n4nc(-c5c([H])c([H])c(Oc6c([H])c([H])c(F)c([H])c6F)c([H])c5[H])c(C(=O)N([H])[H])c4N([H])[H])C3([H])[H])c([H])c([H])c2C1([H])[H]

>  <smiles>  (85) 
[H]c1c([H])c([H])c2c(c1[H])C([H])([H])C([H])([H])C([H])([H])C2([H])N([H])C(=O)C1([H])N(C(=O)C([H])(N([H])C(=O)C([H])(N([H])C([H])([H])[H])C([H])([H])[H])C(C([H])([H])[H])(C([H])([H])[H])C([H])([H])[H])C([H])([H])c2c([H])c(OC([H])([H])C([H])([H])C([H])([H])[N+]([H])([H])C([H])([H])c3c(Cl)c([H])c(Cl)c([H])c3C([H])([H])N([H])C(=O)N3C([H])([H])C([H])([H])C([H])([H])C([H])(n4nc(-c5c([H])c([H])c(Oc6c([H])c([H])c(F)c([H])c6F)c([H])c5[H])c(C(=O)N([H])[H])c4N([H])[H])C3([H])[H])c([H])c([H])c2C1([H])[H]

$$$$
85:0:0
     RDKit          3D

 99102  0  0  1  0  0  0  0  0999 V2000
  -26.7690  -20.8230   19.5990 C   0  0  0  0  0  3  0  0  0  0  0  0
  -28.0800  -20.9430   19.9230 C   0  0  0  0  0  2  0  0  0  0  0  0
  -26.1020  -19.5680   19.0140 C   0  0  0  0  0  2  0  0  0  0  0  0
  -26.4930  -19.3480   17.5270 C   0  0  0  0  0  2  0  0  0  0  0  0
  -27.8590  -18.6650   17.2140 C   0  0  0  0  0  2  0  0  0  0  0  0
  -29.0810  -19.1160   18.0610 C   0  0  0  0  0  2  0  0  0  0  0  0
  -28.8080  -19.0020   19.5120 N   0  0  0  0  0  2  0  0  0  0  0  0
  -27.8300  -18.7530   19.4490 H   0  0  0  0  0  0  0  0  0  0  0  0
  -28.8040  -17.0610   19.8140 C   0  0  0  0  0 15  0  0  0  0  0  0
  -32.1620  -15.0900   18.0520 C   0  0  0  0  0  2  0  0  0  0  0  0
  -31.0840  -15.9320   18.8650 C   0  0  0  0  0  3  0  0  0  0  0  0
  -30.1840  -12.9640   19.7840 C   0  0  0  0  0  3  0  0  0  0  0  0
  -29.8850  -15.2770   19.6270 C   0  0  0  0  0  1  0  0  0  0  0  0
  -31.4710  -12.4220   18.8520 C   0  0  0  0  0  0  0  0  0  0  0  0
  -32.3650  -13.5040   18.0520 C   0  0  0  0  0  0  0  0  0  0  0  0
  -29.6160  -11.6540   20.4560 C   0  0  0  0  0  1  0  0  0  0  0  0
  -31.8830  -10.9570   18.7070 C   0  0  0  0  0  1  0  0  0  0  0  0
  -33.6870  -12.9290   17.0980 Cl  0  0  0  0  0  0  0  0  0  0  0  0
  -31.6100  -16.9880   19.9020 C   0  0  0  0  0  2  0  0  0  0  0  0
  -31.3800  -15.4850   21.9740 C   0  0  0  0  0  0  0  0  0  0  0  0
  -31.5590  -14.2080   20.2530 C   0  0  0  0  0  2  0  0  0  0  0  0
  -29.6230  -14.2020   17.7940 C   0  0  0  0  0  1  0  0  0  0  0  0
  -27.9150  -14.0280   18.5690 C   0  0  0  0  0  3  0  0  0  0  0  0
  -27.7120  -14.1880   20.4190 C   0  0  0  0  0  0  0  0  0  0  0  0
  -28.9630  -14.2620   21.7850 C   0  0  0  0  0  2  0  0  0  0  0  0
  -30.6440  -14.4180   21.6230 N   0  0  0  0  0  0  0  0  0  0  0  0
  -32.5440  -15.3150   22.2800 O   0  0  0  0  0  0  0  0  0  0  0  0
  -31.1760  -16.6820   21.3380 N   0  0  0  0  0  0  0  0  0  0  0  0
  -31.4420  -17.4370   21.9480 H   0  0  0  0  0  0  0  0  0  0  0  0
  -25.3340  -14.3790   20.6550 C   0  0  0  0  0  0  0  0  0  0  0  0
  -24.3080  -13.5300   20.8630 C   0  0  0  0  0  0  0  0  0  0  0  0
  -24.8540  -12.2170   21.0160 C   0  0  0  0  0  0  0  0  0  0  0  0
  -26.4460  -13.6150   20.7450 N   0  0  0  0  0  0  0  0  0  0  0  0
  -26.1780  -12.2890   20.9650 N   0  0  0  0  0  0  0  0  0  0  0  0
  -24.1530  -10.9270   21.1540 C   0  0  0  0  0  0  0  0  0  0  0  0
  -24.4910   -9.9950   22.1590 C   0  0  0  0  0  3  0  0  0  0  0  0
  -23.7450   -8.8050   22.3190 C   0  0  0  0  0  3  0  0  0  0  0  0
  -22.6480   -8.5370   21.4680 C   0  0  0  0  0  0  0  0  0  0  0  0
  -22.3290   -9.4540   20.4540 C   0  0  0  0  0  3  0  0  0  0  0  0
  -23.0710  -10.6340   20.2970 C   0  0  0  0  0  3  0  0  0  0  0  0
  -21.8690   -7.4030   21.5290 O   0  0  0  0  0  0  0  0  0  0  0  0
  -21.7720   -6.6520   22.6710 C   0  0  0  0  0  0  0  0  0  0  0  0
  -21.3290   -7.2020   23.8930 C   0  0  0  0  0  3  0  0  0  0  0  0
  -21.1930   -6.3750   25.0280 C   0  0  0  0  0  3  0  0  0  0  0  0
  -21.4770   -4.9980   24.9350 C   0  0  0  0  0  0  0  0  0  0  0  0
  -21.9050   -4.4490   23.7120 C   0  0  0  0  0  3  0  0  0  0  0  0
  -22.0460   -5.2730   22.5840 C   0  0  0  0  0  0  0  0  0  0  0  0
  -22.4430   -4.7330   21.4030 F   0  0  0  0  0  0  0  0  0  0  0  0
  -21.3340   -4.2030   26.0190 F   0  0  0  0  0  0  0  0  0  0  0  0
  -22.8880  -13.9630   20.7980 C   0  0  0  0  0  0  0  0  0  0  0  0
  -22.0350  -13.3470   21.6010 N   0  0  0  0  0  0  0  0  0  0  0  0
  -22.5640  -14.9130   20.0940 O   0  0  0  0  0  0  0  0  0  0  0  0
  -22.3200  -12.5790   22.1880 H   0  0  0  0  0  0  0  0  0  0  0  0
  -21.0730  -13.6590   21.6360 H   0  0  0  0  0  0  0  0  0  0  0  0
  -25.3970  -15.7450   20.3670 N   0  0  0  0  0  0  0  0  0  0  0  0
  -24.5700  -16.3230   20.2490 H   0  0  0  0  0  0  0  0  0  0  0  0
  -26.2370  -16.1860   20.0240 H   0  0  0  0  0  0  0  0  0  0  0  0
  -28.5850  -22.9320   20.0920 C   0  0  0  0  0 15  0  0  0  0  0  0
  -28.1550  -24.8340   20.5330 O   0  0  0  0  0  1  0  0  0  0  0  0
  -24.8220  -31.7750   23.2870 C   0  0  0  0  0  0  0  0  0  0  0  0
  -27.3180  -26.2740   20.3920 C   0  0  0  0  0  0  0  0  0  0  0  0
  -23.7010  -30.3590   21.6350 C   0  0  0  0  0  3  0  0  0  0  0  0
  -25.1570  -28.6220   20.2850 C   0  0  0  0  0  0  0  0  0  0  0  0
  -26.2930  -30.3340   21.6610 C   0  0  0  0  0  2  0  0  0  0  0  0
  -26.3440  -28.8670   20.9830 C   0  0  0  0  0  0  0  0  0  0  0  0
  -27.3930  -27.7360   20.9850 C   0  0  0  0  0  3  0  0  0  0  0  0
  -26.0970  -26.3460   19.6500 C   0  0  0  0  0  3  0  0  0  0  0  0
  -25.0990  -27.3950   19.5910 C   0  0  0  0  0  3  0  0  0  0  0  0
  -23.9920  -29.6470   20.2830 C   0  0  0  0  0  2  0  0  0  0  0  0
  -24.9700  -30.8690   22.2430 N   0  0  0  0  0  0  0  0  0  0  0  0
  -23.7020  -32.1020   23.7260 O   0  0  0  0  0  0  0  0  0  0  0  0
  -22.9130  -29.4200   22.5920 C   0  0  0  0  0  0  0  0  0  0  0  0
  -21.5770  -29.3110   22.4430 N   0  0  0  0  0  0  0  0  0  0  0  0
  -23.5250  -28.7830   23.4530 O   0  0  0  0  0  0  0  0  0  0  0  0
  -21.1250  -29.8760   21.7370 H   0  0  0  0  0  0  0  0  0  0  0  0
  -18.1470  -28.2010   22.9390 C   0  0  0  0  0  0  0  0  0  0  0  0
  -20.7150  -28.3960   23.2050 C   0  0  0  0  0  3  0  0  0  0  0  0
  -20.7720  -26.9650   22.6190 C   0  0  0  0  0  2  0  0  0  0  0  0
  -19.6660  -26.6870   21.5960 C   0  0  0  0  0  2  0  0  0  0  0  0
  -18.2870  -26.8610   22.2370 C   0  0  0  0  0  2  0  0  0  0  0  0
  -19.2870  -28.9310   23.3790 C   0  0  0  0  0  0  0  0  0  0  0  0
  -19.0960  -30.1820   24.0030 C   0  0  0  0  0  3  0  0  0  0  0  0
  -17.8010  -30.7050   24.1870 C   0  0  0  0  0  3  0  0  0  0  0  0
  -16.6790  -29.9750   23.7580 C   0  0  0  0  0  3  0  0  0  0  0  0
  -16.8530  -28.7240   23.1400 C   0  0  0  0  0  3  0  0  0  0  0  0
  -26.0390  -32.4560   23.9780 C   0  0  0  0  0  3  0  0  0  0  0  0
  -26.4690  -31.7420   25.3220 C   0  0  1  0  0  0  0  0  0  0  0  0
  -25.3050  -31.5390   26.3230 C   0  0  0  0  0  1  0  0  0  0  0  0
  -27.0900  -30.3550   25.0510 C   0  0  0  0  0  1  0  0  0  0  0  0
  -27.5640  -32.5770   26.0290 C   0  0  0  0  0  1  0  0  0  0  0  0
  -25.6840  -33.8640   24.2760 N   0  0  0  0  0  0  0  0  0  0  0  0
  -26.0990  -34.9400   23.5920 C   0  0  0  0  0  0  0  0  0  0  0  0
  -26.8680  -34.8520   22.6320 O   0  0  0  0  0  0  0  0  0  0  0  0
  -25.0060  -34.0040   25.0100 H   0  0  0  0  0  0  0  0  0  0  0  0
  -24.4360  -36.7800   23.1200 C   0  0  0  0  0  1  0  0  0  0  0  0
  -25.5870  -36.3300   24.0360 C   0  0  0  0  0  3  0  0  0  0  0  0
  -27.6380  -37.1730   25.0930 C   0  0  0  0  0  1  0  0  0  0  0  0
  -26.6360  -37.3730   24.0510 N   0  0  0  0  0  0  0  0  0  0  0  0
  -26.2260  -38.2940   24.1790 H   0  0  0  0  0  0  0  0  0  0  0  0
  1  2  2  0
  3  1  1  0
  4  3  1  0
  5  4  1  0
  5  6  1  0
  6  7  1  0
  8  7  1  0
 10 15  1  0
 10 11  1  0
 11 13  1  0
 11 19  1  0
 12 21  1  0
 12 16  1  0
 14 12  1  0
 15 14  2  0
 17 14  1  0
 18 15  1  0
 19 28  1  0
 20 27  2  0
 21 26  1  0
 22 23  1  0
 23 24  2  0
 24 33  1  0
 24 25  1  0
 26 25  1  0
 26 20  1  0
 28 29  1  0
 28 20  1  0
 30 33  1  0
 30 31  2  0
 31 32  1  0
 32 35  1  0
 33 34  1  0
 34 32  2  0
 35 36  1  0
 36 37  2  0
 38 41  1  0
 38 37  1  0
 39 38  2  0
 40 39  1  0
 40 35  2  0
 41 42  1  0
 42 43  1  0
 43 44  2  0
 45 44  1  0
 45 49  1  0
 46 45  2  0
 47 42  2  0
 47 46  1  0
 48 47  1  0
 50 31  1  0
 50 51  1  0
 51 54  1  0
 51 53  1  0
 52 50  2  0
 55 30  1  0
 56 55  1  0
 57 55  1  0
 60 71  2  0
 61 59  1  0
 61 66  1  0
 62 70  1  0
 62 72  1  0
 63 65  1  0
 64 70  1  0
 65 66  2  0
 65 64  1  0
 67 61  2  0
 68 67  1  0
 68 63  2  0
 69 63  1  0
 69 62  1  0
 70 60  1  0
 72 74  2  0
 73 72  1  0
 75 73  1  0
 76 85  2  0
 76 81  1  0
 77 73  1  0
 77 81  1  0
 78 77  1  0
 79 80  1  0
 79 78  1  0
 80 76  1  0
 81 82  2  0
 82 83  1  0
 84 83  2  0
 85 84  1  0
 86 60  1  0
 86 91  1  0
 86 87  1  0
 87 90  1  1
 87 88  1  0
 89 87  1  0
 91 94  1  0
 92 96  1  0
 92 91  1  0
 93 92  2  0
 96 95  1  0
 96 98  1  0
 98 99  1  0
 98 97  1  0
M  ISO  4  20 100  28 100  58 101  59 101
M  END
>  <TORSDO>  (86) 
F 20

>  <SCORE>  (86) 
-9.153

>  <name>  (86) 
85

>  <ligand_id>  (86) 
85

>  <original_smiles>  (86) 
[H]C1=C(C([H])([H])Oc2c([H])c([H])c3c(c2[H])C([H])([H])N(C(=O)C([H])(N([H])C(=O)C([H])(N([H])C([H])([H])[H])C([H])([H])[H])C(C([H])([H])[H])(C([H])([H])[H])C([H])([H])[H])C([H])(C(=O)N([H])C2([H])c4c([H])c([H])c([H])c([H])c4C([H])([H])C([H])([H])C2([H])[H])C3([H])[H])[N+]([H])(C([H])([H])c2c(C([H])([H])[H])c(C([H])([H])[H])c(Cl)c([H])c2C([H])([H])N([H])C(=O)N2C([H])([H])C([H])([H])C([H])([H])C([H])(n3nc(-c4c([H])c([H])c(Oc5c([H])c([H])c(F)c([H])c5F)c([H])c4[H])c(C(=O)N([H])[H])c3N([H])[H])C2([H])[H])C([H])([H])C([H])([H])C([H])([H])C1([H])[H]

>  <smiles>  (86) 
[H]C1=C(C([H])([H])Oc2c([H])c([H])c3c(c2[H])C([H])([H])N(C(=O)C([H])(N([H])C(=O)C([H])(N([H])C([H])([H])[H])C([H])([H])[H])C(C([H])([H])[H])(C([H])([H])[H])C([H])([H])[H])C([H])(C(=O)N([H])C2([H])c4c([H])c([H])c([H])c([H])c4C([H])([H])C([H])([H])C2([H])[H])C3([H])[H])[N+]([H])(C([H])([H])c2c(C([H])([H])[H])c(C([H])([H])[H])c(Cl)c([H])c2C([H])([H])N([H])C(=O)N2C([H])([H])C([H])([H])C([H])([H])C([H])(n3nc(-c4c([H])c([H])c(Oc5c([H])c([H])c(F)c([H])c5F)c([H])c4[H])c(C(=O)N([H])[H])c3N([H])[H])C2([H])[H])C([H])([H])C([H])([H])C([H])([H])C1([H])[H]

$$$$
86:0:0
     RDKit          3D

 96105  0  0  1  0  0  0  0  0999 V2000
  -29.1430  -24.0530   21.3020 C   0  0  0  0  0  2  0  0  0  0  0  0
  -28.0980  -23.8430   19.1560 C   0  0  0  0  0  2  0  0  0  0  0  0
  -28.9970  -22.4690   21.5290 C   0  0  0  0  0  2  0  0  0  0  0  0
  -28.0540  -24.7830   20.4300 C   0  0  0  0  0  3  0  0  0  0  0  0
  -28.0290  -22.2280   19.3280 C   0  0  0  0  0  3  0  0  0  0  0  0
  -28.1280  -21.6080   17.9110 C   0  0  0  0  0  1  0  0  0  0  0  0
  -29.0140  -21.5700   20.3030 N   0  0  2  0  0  4  0  0  0  0  0  0
  -29.9250  -21.6870   19.8830 H   0  0  0  0  0  0  0  0  0  0  0  0
  -28.2500  -26.3070   20.2740 O   0  0  0  0  0  0  0  0  0  0  0  0
  -24.5950  -31.9210   23.2440 C   0  0  0  0  0  0  0  0  0  0  0  0
  -27.1660  -27.2370   20.2280 C   0  0  0  0  0  0  0  0  0  0  0  0
  -23.3890  -30.5180   21.6130 C   0  0  0  0  0  3  0  0  0  0  0  0
  -24.8320  -28.9430   20.1920 C   0  0  0  0  0  0  0  0  0  0  0  0
  -25.9350  -30.8010   21.4300 C   0  0  0  0  0  2  0  0  0  0  0  0
  -26.0090  -29.4100   20.7860 C   0  0  0  0  0  0  0  0  0  0  0  0
  -27.1820  -28.5740   20.7810 C   0  0  0  0  0  3  0  0  0  0  0  0
  -25.9620  -26.8490   19.6090 C   0  0  0  0  0  3  0  0  0  0  0  0
  -24.8180  -27.6760   19.5870 C   0  0  0  0  0  3  0  0  0  0  0  0
  -23.6020  -29.8360   20.2370 C   0  0  0  0  0  2  0  0  0  0  0  0
  -24.6590  -31.1000   22.1520 N   0  0  0  0  0  0  0  0  0  0  0  0
  -23.5120  -32.2090   23.7760 O   0  0  0  0  0  0  0  0  0  0  0  0
  -22.7180  -29.5130   22.5830 C   0  0  0  0  0  0  0  0  0  0  0  0
  -21.3950  -29.3180   22.4440 N   0  0  0  0  0  0  0  0  0  0  0  0
  -23.3900  -28.9110   23.4230 O   0  0  0  0  0  0  0  0  0  0  0  0
  -20.9080  -29.8580   21.7410 H   0  0  0  0  0  0  0  0  0  0  0  0
  -18.0270  -28.0700   22.9120 C   0  0  0  0  0  0  0  0  0  0  0  0
  -20.5770  -28.3810   23.2190 C   0  0  0  0  0  3  0  0  0  0  0  0
  -20.7110  -26.9400   22.6720 C   0  0  0  0  0  2  0  0  0  0  0  0
  -19.6320  -26.5790   21.6460 C   0  0  0  0  0  2  0  0  0  0  0  0
  -18.2380  -26.7120   22.2640 C   0  0  0  0  0  2  0  0  0  0  0  0
  -19.1240  -28.8610   23.3460 C   0  0  0  0  0  0  0  0  0  0  0  0
  -18.8690  -30.1300   23.9100 C   0  0  0  0  0  3  0  0  0  0  0  0
  -17.5520  -30.6070   24.0450 C   0  0  0  0  0  3  0  0  0  0  0  0
  -16.4710  -29.8120   23.6250 C   0  0  0  0  0  3  0  0  0  0  0  0
  -16.7090  -28.5460   23.0650 C   0  0  0  0  0  3  0  0  0  0  0  0
  -25.8790  -32.5580   23.8600 C   0  0  0  0  0  3  0  0  0  0  0  0
  -25.5680  -33.9570   24.1970 N   0  0  0  0  0  0  0  0  0  0  0  0
  -25.8720  -35.0110   23.4290 C   0  0  0  0  0  0  0  0  0  0  0  0
  -26.5130  -34.9120   22.3790 O   0  0  0  0  0  0  0  0  0  0  0  0
  -24.9990  -34.1080   25.0160 H   0  0  0  0  0  0  0  0  0  0  0  0
  -24.1220  -36.7940   23.1270 C   0  0  0  0  0  1  0  0  0  0  0  0
  -25.3920  -36.3980   23.8990 C   0  0  0  0  0  3  0  0  0  0  0  0
  -27.5400  -37.3050   24.6690 C   0  0  0  0  0  1  0  0  0  0  0  0
  -26.4140  -37.4570   23.7530 N   0  0  0  0  0  0  0  0  0  0  0  0
  -26.0050  -38.3760   23.9040 H   0  0  0  0  0  0  0  0  0  0  0  0
  -26.4000  -31.7890   25.1360 C   0  0  1  0  0  0  0  0  0  0  0  0
  -25.3090  -31.5480   26.2050 C   0  0  0  0  0  1  0  0  0  0  0  0
  -26.9830  -30.4110   24.7430 C   0  0  0  0  0  1  0  0  0  0  0  0
  -27.5490  -32.5860   25.7940 C   0  0  0  0  0  1  0  0  0  0  0  0
  -28.8900  -19.9940   20.5540 C   0  0  0  0  0  2  0  0  0  0  0  0
  -32.8440  -18.5790   19.8400 C   0  0  0  0  0  3  0  0  0  0  0  0
  -31.2700  -19.7020   21.2640 C   0  0  0  0  0  3  0  0  0  0  0  0
  -32.6000  -19.4580   20.9040 C   0  0  0  0  0  0  0  0  0  0  0  0
  -31.8060  -17.7460   19.3660 C   0  0  0  0  0  0  0  0  0  0  0  0
  -30.1940  -19.0200   20.6480 C   0  0  0  0  0  0  0  0  0  0  0  0
  -30.5490  -17.6860   20.0470 C   0  0  0  0  0  0  0  0  0  0  0  0
  -33.7030  -20.2650   21.5680 C   0  0  0  0  0  1  0  0  0  0  0  0
  -32.0840  -16.9570   18.0930 C   0  0  0  0  0  1  0  0  0  0  0  0
  -30.5890  -14.9950   20.2570 C   0  0  0  0  0  0  0  0  0  0  0  0
  -30.3790  -12.6460   19.3730 C   0  0  0  0  0  2  0  0  0  0  0  0
  -29.4530  -12.5600   18.1460 C   0  0  0  0  0  2  0  0  0  0  0  0
  -27.9970  -12.3420   18.5900 C   0  0  0  0  0  2  0  0  0  0  0  0
  -27.5770  -13.3080   19.7300 C   0  0  0  0  0  3  0  0  0  0  0  0
  -28.6340  -13.4090   20.8480 C   0  0  0  0  0  2  0  0  0  0  0  0
  -29.9000  -13.7830   20.2070 N   0  0  0  0  0  0  0  0  0  0  0  0
  -31.8080  -14.8960   20.1370 O   0  0  0  0  0  0  0  0  0  0  0  0
  -29.9450  -16.2750   20.2090 N   0  0  0  0  0  0  0  0  0  0  0  0
  -28.9460  -16.2410   20.3420 H   0  0  0  0  0  0  0  0  0  0  0  0
  -25.2040  -13.8770   20.5000 C   0  0  0  0  0  0  0  0  0  0  0  0
  -24.1450  -13.0970   20.8740 C   0  0  0  0  0  0  0  0  0  0  0  0
  -24.6110  -11.7480   20.8330 C   0  0  0  0  0  0  0  0  0  0  0  0
  -26.2480  -13.0040   20.2460 N   0  0  0  0  0  0  0  0  0  0  0  0
  -25.9010  -11.7180   20.5180 N   0  0  0  0  0  0  0  0  0  0  0  0
  -23.8920  -10.4820   21.0200 C   0  0  0  0  0  0  0  0  0  0  0  0
  -24.3120   -9.5230   21.9680 C   0  0  0  0  0  3  0  0  0  0  0  0
  -23.5860   -8.3230   22.1410 C   0  0  0  0  0  3  0  0  0  0  0  0
  -22.4270   -8.0780   21.3660 C   0  0  0  0  0  0  0  0  0  0  0  0
  -22.0280   -9.0280   20.4060 C   0  0  0  0  0  3  0  0  0  0  0  0
  -22.7540  -10.2170   20.2310 C   0  0  0  0  0  3  0  0  0  0  0  0
  -21.6730   -6.9330   21.4520 O   0  0  0  0  0  0  0  0  0  0  0  0
  -21.5900   -6.2090   22.6140 C   0  0  0  0  0  0  0  0  0  0  0  0
  -21.0760   -6.7710   23.8050 C   0  0  0  0  0  3  0  0  0  0  0  0
  -20.9390   -5.9700   24.9580 C   0  0  0  0  0  3  0  0  0  0  0  0
  -21.3060   -4.6110   24.9180 C   0  0  0  0  0  0  0  0  0  0  0  0
  -21.8140   -4.0510   23.7340 C   0  0  0  0  0  3  0  0  0  0  0  0
  -21.9500   -4.8470   22.5830 C   0  0  0  0  0  0  0  0  0  0  0  0
  -22.4190   -4.2960   21.4380 F   0  0  0  0  0  0  0  0  0  0  0  0
  -21.1680   -3.8410   26.0230 F   0  0  0  0  0  0  0  0  0  0  0  0
  -22.7480  -13.5720   21.1460 C   0  0  0  0  0  0  0  0  0  0  0  0
  -22.0150  -12.8720   22.0030 N   0  0  0  0  0  0  0  0  0  0  0  0
  -22.3140  -14.6020   20.6300 O   0  0  0  0  0  0  0  0  0  0  0  0
  -22.3740  -12.0400   22.4460 H   0  0  0  0  0  0  0  0  0  0  0  0
  -21.0790  -13.1790   22.2250 H   0  0  0  0  0  0  0  0  0  0  0  0
  -25.3590  -15.2510   20.3290 N   0  0  0  0  0  0  0  0  0  0  0  0
  -24.5850  -15.8960   20.4540 H   0  0  0  0  0  0  0  0  0  0  0  0
  -26.1980  -15.6960   19.9850 H   0  0  0  0  0  0  0  0  0  0  0  0
  1  3  1  0
  2  5  1  0
  2  4  1  0
  4  9  1  0
  4  1  1  0
  5  6  1  0
  5  7  1  0
  7 50  1  0
  7  3  1  0
  7  8  1  6
 10 21  2  0
 11  9  1  0
 11 16  1  0
 12 20  1  0
 12 22  1  0
 13 19  1  0
 13 15  1  0
 14 20  1  0
 15 14  1  0
 16 15  2  0
 17 11  2  0
 18 17  1  0
 18 13  2  0
 19 12  1  0
 20 10  1  0
 22 24  2  0
 23 22  1  0
 25 23  1  0
 26 35  2  0
 26 31  1  0
 27 23  1  0
 27 31  1  0
 28 27  1  0
 29 30  1  0
 29 28  1  0
 30 26  1  0
 31 32  2  0
 32 33  1  0
 34 33  2  0
 35 34  1  0
 36 10  1  0
 36 37  1  0
 36 46  1  0
 37 40  1  0
 38 42  1  0
 38 37  1  0
 39 38  2  0
 42 41  1  0
 44 42  1  0
 44 45  1  0
 44 43  1  0
 46 49  1  1
 46 47  1  0
 48 46  1  0
 50 55  1  0
 51 53  1  0
 53 52  2  0
 53 57  1  0
 54 51  2  0
 54 56  1  0
 55 52  1  0
 56 67  1  0
 56 55  2  0
 58 54  1  0
 60 65  1  0
 61 62  1  0
 61 60  1  0
 63 62  1  0
 63 72  1  0
 63 64  1  0
 65 59  1  0
 65 64  1  0
 66 59  2  0
 67 59  1  0
 67 68  1  0
 69 70  2  0
 70 89  1  0
 71 70  1  0
 71 74  1  0
 72 69  1  0
 72 73  1  0
 73 71  2  0
 74 75  1  0
 75 76  2  0
 77 80  1  0
 77 76  1  0
 78 77  2  0
 79 78  1  0
 79 74  2  0
 80 81  1  0
 81 82  1  0
 82 83  2  0
 84 83  1  0
 84 88  1  0
 85 84  2  0
 86 81  2  0
 86 85  1  0
 87 86  1  0
 89 90  1  0
 90 93  1  0
 90 92  1  0
 91 89  2  0
 94 95  1  0
 94 69  1  0
 96 94  1  0
M  ISO  4   4 101   9 101  59 100  67 100
M  END
>  <TORSDO>  (87) 
F 18

>  <SCORE>  (87) 
-15.179

>  <name>  (87) 
86

>  <ligand_id>  (87) 
86

>  <original_smiles>  (87) 
[H]c1c([H])c([H])c2c(c1[H])C([H])([H])C([H])([H])C([H])([H])C2([H])N([H])C(=O)C1([H])N(C(=O)C([H])(N([H])C(=O)C([H])(N([H])C([H])([H])[H])C([H])([H])[H])C(C([H])([H])[H])(C([H])([H])[H])C([H])([H])[H])C([H])([H])c2c([H])c(OC3([H])C([H])([H])C([H])([H])[N+]([H])(C([H])([H])c4c([H])c(C([H])([H])[H])c([H])c(C([H])([H])[H])c4N([H])C(=O)N4C([H])([H])C([H])([H])C([H])([H])C([H])(n5nc(-c6c([H])c([H])c(Oc7c([H])c([H])c(F)c([H])c7F)c([H])c6[H])c(C(=O)N([H])[H])c5N([H])[H])C4([H])[H])C([H])(C([H])([H])[H])C3([H])[H])c([H])c([H])c2C1([H])[H]

>  <smiles>  (87) 
[H]c1c([H])c([H])c2c(c1[H])C([H])([H])C([H])([H])C([H])([H])C2([H])N([H])C(=O)C1([H])N(C(=O)C([H])(N([H])C(=O)C([H])(N([H])C([H])([H])[H])C([H])([H])[H])C(C([H])([H])[H])(C([H])([H])[H])C([H])([H])[H])C([H])([H])c2c([H])c(OC3([H])C([H])([H])C([H])([H])[N+]([H])(C([H])([H])c4c([H])c(C([H])([H])[H])c([H])c(C([H])([H])[H])c4N([H])C(=O)N4C([H])([H])C([H])([H])C([H])([H])C([H])(n5nc(-c6c([H])c([H])c(Oc7c([H])c([H])c(F)c([H])c7F)c([H])c6[H])c(C(=O)N([H])[H])c5N([H])[H])C4([H])[H])C([H])(C([H])([H])[H])C3([H])[H])c([H])c([H])c2C1([H])[H]

$$$$
87:0:0
     RDKit          3D

 96 96  0  0  1  0  0  0  0  0999 V2000
  -28.1790  -28.3140   18.7580 C   0  0  0  0  0  2  0  0  0  0  0  0
  -26.5250  -26.7950   19.3960 C   0  0  0  0  0  3  0  0  0  0  0  0
  -26.0430  -24.5750   21.7380 C   0  0  0  0  0  2  0  0  0  0  0  0
  -26.8790  -24.4710   20.7440 C   0  0  0  0  0  2  0  0  0  0  0  0
  -26.3840  -27.2010   18.0680 C   0  0  0  0  0  1  0  0  0  0  0  0
  -26.6630  -25.7780   21.2950 C   0  0  0  0  0  3  0  0  0  0  0  0
  -26.8760  -27.1790   19.4030 C   0  0  0  0  0  2  0  0  0  0  0  0
  -25.8480  -28.5200   17.3780 C   0  0  0  0  0 15  0  0  0  0  0  0
  -27.2060  -25.9320   22.8630 C   0  0  0  0  0  1  0  0  0  0  0  0
  -27.9030  -21.9990   20.5180 C   0  0  0  0  0 15  0  0  0  0  0  0
  -29.2960  -17.6190   20.3230 C   0  0  0  0  0  2  0  0  0  0  0  0
  -30.1170  -14.6350   19.5100 C   0  0  0  0  0  2  0  0  0  0  0  0
  -29.6340  -13.4240   18.5100 C   0  0  0  0  0  2  0  0  0  0  0  0
  -28.4700  -12.5860   19.0330 C   0  0  0  0  0  2  0  0  0  0  0  0
  -27.6570  -13.5670   19.8740 C   0  0  0  0  0  3  0  0  0  0  0  0
  -28.4270  -14.6150   20.8450 C   0  0  0  0  0  2  0  0  0  0  0  0
  -29.1330  -15.8710   20.1420 N   0  0  0  0  0  0  0  0  0  0  0  0
  -30.5730  -17.3000   20.2700 O   0  0  0  0  0  1  0  0  0  0  0  0
  -28.4040  -19.5020   20.4140 N   0  0  0  0  0  1  0  0  0  0  0  0
  -27.4500  -19.1590   20.3820 H   0  0  0  0  0  0  0  0  0  0  0  0
  -25.2960  -13.8030   20.6070 C   0  0  0  0  0  0  0  0  0  0  0  0
  -24.2830  -12.9680   20.9540 C   0  0  0  0  0  0  0  0  0  0  0  0
  -24.8160  -11.6400   20.8960 C   0  0  0  0  0  0  0  0  0  0  0  0
  -26.4010  -13.0180   20.3920 N   0  0  0  0  0  0  0  0  0  0  0  0
  -26.1240  -11.6870   20.5860 N   0  0  0  0  0  0  0  0  0  0  0  0
  -24.1070  -10.3540   21.0660 C   0  0  0  0  0  0  0  0  0  0  0  0
  -24.5100   -9.3910   22.0180 C   0  0  0  0  0  3  0  0  0  0  0  0
  -23.7780   -8.1920   22.1870 C   0  0  0  0  0  3  0  0  0  0  0  0
  -22.6220   -7.9440   21.4080 C   0  0  0  0  0  0  0  0  0  0  0  0
  -22.2330   -8.8970   20.4500 C   0  0  0  0  0  3  0  0  0  0  0  0
  -22.9660  -10.0860   20.2800 C   0  0  0  0  0  3  0  0  0  0  0  0
  -21.8690   -6.7960   21.4810 O   0  0  0  0  0  0  0  0  0  0  0  0
  -21.7590   -6.0720   22.6410 C   0  0  0  0  0  0  0  0  0  0  0  0
  -21.2350   -6.6380   23.8250 C   0  0  0  0  0  3  0  0  0  0  0  0
  -21.0760   -5.8420   24.9770 C   0  0  0  0  0  3  0  0  0  0  0  0
  -21.4330   -4.4800   24.9480 C   0  0  0  0  0  0  0  0  0  0  0  0
  -21.9500   -3.9140   23.7700 C   0  0  0  0  0  3  0  0  0  0  0  0
  -22.1080   -4.7060   22.6200 C   0  0  0  0  0  0  0  0  0  0  0  0
  -22.5840   -4.1460   21.4820 F   0  0  0  0  0  0  0  0  0  0  0  0
  -21.2770   -3.7160   26.0540 F   0  0  0  0  0  0  0  0  0  0  0  0
  -22.8750  -13.4050   21.2190 C   0  0  0  0  0  0  0  0  0  0  0  0
  -22.1650  -12.6920   22.0810 N   0  0  0  0  0  0  0  0  0  0  0  0
  -22.4240  -14.4280   20.7060 O   0  0  0  0  0  0  0  0  0  0  0  0
  -22.5590  -11.8730   22.5170 H   0  0  0  0  0  0  0  0  0  0  0  0
  -21.2230  -12.9740   22.3130 H   0  0  0  0  0  0  0  0  0  0  0  0
  -25.3700  -15.1800   20.4200 N   0  0  0  0  0  0  0  0  0  0  0  0
  -24.5620  -15.7850   20.5240 H   0  0  0  0  0  0  0  0  0  0  0  0
  -26.2010  -15.6610   20.1000 H   0  0  0  0  0  0  0  0  0  0  0  0
  -30.4700  -27.4940   18.6680 C   0  0  0  0  0  0  0  0  0  0  0  0
  -29.6800  -25.4120   16.7870 C   0  0  0  0  0  3  0  0  0  0  0  0
  -30.5000  -24.9640   18.0210 C   0  0  0  0  0  3  0  0  0  0  0  0
  -29.2540  -26.9160   16.7220 C   0  0  0  0  0  2  0  0  0  0  0  0
  -30.6900  -26.0400   19.1080 C   0  0  0  0  0  3  0  0  0  0  0  0
  -29.3210  -27.6610   18.0030 N   0  0  0  0  0  0  0  0  0  0  0  0
  -31.1730  -28.4190   19.0840 O   0  0  0  0  0  0  0  0  0  0  0  0
  -29.8380  -25.7920   20.2160 O   0  0  0  0  0  0  0  0  0  0  0  0
  -24.6580  -31.7430   23.1310 C   0  0  0  0  0  0  0  0  0  0  0  0
  -28.5510  -25.9740   20.1130 C   0  0  0  0  0  1  0  0  0  0  0  0
  -23.5860  -30.0310   21.5660 C   0  0  0  0  0  3  0  0  0  0  0  0
  -24.7620  -27.4740   20.7920 C   0  0  0  0  0  2  0  0  0  0  0  0
  -26.1080  -30.0370   21.7220 C   0  0  0  0  0  2  0  0  0  0  0  0
  -26.2950  -28.3850   21.5390 C   0  0  0  0  0  2  0  0  0  0  0  0
  -28.1550  -27.6220   21.4060 C   0  0  0  0  0 15  0  0  0  0  0  0
  -26.8980  -24.9950   18.7980 C   0  0  0  0  0  1  0  0  0  0  0  0
  -24.8870  -25.6550   19.6240 C   0  0  0  0  0 15  0  0  0  0  0  0
  -23.8130  -28.8090   20.4990 C   0  0  0  0  0  2  0  0  0  0  0  0
  -24.8070  -30.6950   22.1830 N   0  0  0  0  0  0  0  0  0  0  0  0
  -23.5380  -32.1290   23.5240 O   0  0  0  0  0  0  0  0  0  0  0  0
  -22.7310  -29.4130   22.6580 C   0  0  0  0  0  0  0  0  0  0  0  0
  -21.4110  -29.3350   22.4700 N   0  0  0  0  0  0  0  0  0  0  0  0
  -23.3070  -28.8920   23.6140 O   0  0  0  0  0  0  0  0  0  0  0  0
  -21.0060  -29.7950   21.6650 H   0  0  0  0  0  0  0  0  0  0  0  0
  -18.0110  -28.1930   22.9530 C   0  0  0  0  0  0  0  0  0  0  0  0
  -20.5650  -28.4230   23.2390 C   0  0  0  0  0  3  0  0  0  0  0  0
  -20.6490  -26.9870   22.6660 C   0  0  0  0  0  2  0  0  0  0  0  0
  -19.5560  -26.6870   21.6330 C   0  0  0  0  0  2  0  0  0  0  0  0
  -18.1710  -26.8440   22.2710 C   0  0  0  0  0  2  0  0  0  0  0  0
  -19.1350  -28.9430   23.3880 C   0  0  0  0  0  0  0  0  0  0  0  0
  -18.9340  -30.2030   23.9880 C   0  0  0  0  0  3  0  0  0  0  0  0
  -17.6340  -30.7190   24.1550 C   0  0  0  0  0  3  0  0  0  0  0  0
  -16.5210  -29.9680   23.7370 C   0  0  0  0  0  3  0  0  0  0  0  0
  -16.7110  -28.7050   23.1470 C   0  0  0  0  0  3  0  0  0  0  0  0
  -25.8490  -32.5240   23.8320 C   0  0  0  0  0  3  0  0  0  0  0  0
  -26.2990  -31.8820   25.2150 C   0  0  1  0  0  0  0  0  0  0  0  0
  -25.1380  -31.6950   26.2250 C   0  0  0  0  0  1  0  0  0  0  0  0
  -26.9550  -30.5060   24.9900 C   0  0  0  0  0  1  0  0  0  0  0  0
  -27.3740  -32.7630   25.9020 C   0  0  0  0  0  1  0  0  0  0  0  0
  -25.4740  -33.9470   24.0930 N   0  0  0  0  0  0  0  0  0  0  0  0
  -25.8750  -35.0300   23.4050 C   0  0  0  0  0  0  0  0  0  0  0  0
  -26.6180  -34.9420   22.4280 O   0  0  0  0  0  0  0  0  0  0  0  0
  -24.8140  -34.0890   24.8420 H   0  0  0  0  0  0  0  0  0  0  0  0
  -24.1530  -36.8460   23.0080 C   0  0  0  0  0  1  0  0  0  0  0  0
  -25.3720  -36.4280   23.8510 C   0  0  0  0  0  3  0  0  0  0  0  0
  -27.4650  -37.3800   24.7330 C   0  0  0  0  0  1  0  0  0  0  0  0
  -26.3880  -37.5020   23.7570 N   0  0  0  0  0  0  0  0  0  0  0  0
  -25.9580  -38.4170   23.8730 H   0  0  0  0  0  0  0  0  0  0  0  0
  1  7  1  0
  2  7  1  0
  4  6  1  0
  4  3  1  0
  5  2  1  0
  6  3  1  0
  6  9  1  0
 12 17  1  0
 13 14  1  0
 13 12  1  0
 15 14  1  0
 15 24  1  0
 15 16  1  0
 17 11  1  0
 17 16  1  0
 18 11  1  0
 20 19  1  0
 21 22  2  0
 22 41  1  0
 23 22  1  0
 23 26  1  0
 24 25  1  0
 24 21  1  0
 25 23  2  0
 26 27  1  0
 27 28  2  0
 29 32  1  0
 29 28  1  0
 30 29  2  0
 31 30  1  0
 31 26  2  0
 32 33  1  0
 33 34  1  0
 34 35  2  0
 36 35  1  0
 36 40  1  0
 37 36  2  0
 38 33  2  0
 38 37  1  0
 39 38  1  0
 41 42  1  0
 42 45  1  0
 42 44  1  0
 43 41  2  0
 46 47  1  0
 46 21  1  0
 48 46  1  0
 49 55  2  0
 49 53  1  0
 50 51  2  0
 51 53  1  0
 52 50  1  0
 52 54  1  0
 53 56  1  0
 54 49  1  0
 54  1  1  0
 57 68  2  0
 58 56  1  0
 59 67  1  0
 59 69  1  0
 60 62  1  0
 61 67  1  0
 62 61  1  0
 64  2  1  0
 66 60  1  0
 66 59  1  0
 67 57  1  0
 69 71  2  0
 70 69  1  0
 72 70  1  0
 73 82  2  0
 73 78  1  0
 74 70  1  0
 74 78  1  0
 75 74  1  0
 76 77  1  0
 76 75  1  0
 77 73  1  0
 78 79  2  0
 79 80  1  0
 81 80  2  0
 82 81  1  0
 83 57  1  0
 83 88  1  0
 83 84  1  0
 84 87  1  1
 84 85  1  0
 86 84  1  0
 88 91  1  0
 89 93  1  0
 89 88  1  0
 90 89  2  0
 93 92  1  0
 95 93  1  0
 95 96  1  0
 95 94  1  0
M  ISO  4  11 100  19 100  53 101  56 101
M  END
>  <TORSDO>  (88) 
F 19

>  <SCORE>  (88) 
-14.896

>  <name>  (88) 
87

>  <ligand_id>  (88) 
87

>  <original_smiles>  (88) 
[H]c1c([H])c([H])c2c(c1[H])C([H])([H])C([H])([H])C([H])([H])C2([H])N([H])C(=O)C1([H])N(C(=O)C([H])(N([H])C(=O)C([H])(N([H])C([H])([H])[H])C([H])([H])[H])C(C([H])([H])[H])(C([H])([H])[H])C([H])([H])[H])C([H])([H])c2c([H])c(OC3([H])C(=O)N(C([H])([H])c4c(C([H])([H])[H])c([H])c(C([H])([H])N([H])C(=O)N5C([H])([H])C([H])([H])C([H])([H])C([H])(n6nc(-c7c([H])c([H])c(Oc8c([H])c([H])c(F)c([H])c8F)c([H])c7[H])c(C(=O)N([H])[H])c6N([H])[H])C5([H])[H])c([H])c4C([H])([H])[H])C([H])([H])C([H])([H])C3([H])[H])c([H])c([H])c2C1([H])[H]

>  <smiles>  (88) 
[H]c1c([H])c([H])c2c(c1[H])C([H])([H])C([H])([H])C([H])([H])C2([H])N([H])C(=O)C1([H])N(C(=O)C([H])(N([H])C(=O)C([H])(N([H])C([H])([H])[H])C([H])([H])[H])C(C([H])([H])[H])(C([H])([H])[H])C([H])([H])[H])C([H])([H])c2c([H])c(OC3([H])C(=O)N(C([H])([H])c4c(C([H])([H])[H])c([H])c(C([H])([H])N([H])C(=O)N5C([H])([H])C([H])([H])C([H])([H])C([H])(n6nc(-c7c([H])c([H])c(Oc8c([H])c([H])c(F)c([H])c8F)c([H])c7[H])c(C(=O)N([H])[H])c6N([H])[H])C5([H])[H])c([H])c4C([H])([H])[H])C([H])([H])C([H])([H])C3([H])[H])c([H])c([H])c2C1([H])[H]

$$$$
88:0:0
     RDKit          3D

 96104  0  0  1  0  0  0  0  0999 V2000
  -28.5260  -22.3390   20.3730 C   0  0  0  0  0  0  0  0  0  0  0  0
  -29.0180  -21.2190   20.7770 N   0  0  0  0  0  0  0  0  0  0  0  0
  -27.1930  -22.7370   20.8970 C   0  0  0  0  0  3  0  0  0  0  0  0
  -26.6750  -22.3300   22.0720 C   0  0  0  0  0  3  0  0  0  0  0  0
  -25.3090  -22.7630   22.5530 C   0  0  0  0  0  1  0  0  0  0  0  0
  -29.1360  -23.2720   19.3050 C   0  0  0  0  0  2  0  0  0  0  0  0
  -29.0090  -24.7330   19.5340 C   0  0  0  0  0  0  0  0  0  0  0  0
  -28.8860  -25.9500   19.5710 C   0  0  0  0  0  0  0  0  0  0  0  0
  -28.7820  -27.2640   19.4790 O   0  0  0  0  0  0  0  0  0  0  0  0
  -24.7460  -31.9230   23.0310 C   0  0  0  0  0  0  0  0  0  0  0  0
  -27.5360  -27.8570   19.5830 C   0  0  0  0  0  0  0  0  0  0  0  0
  -23.5640  -30.5680   21.3320 C   0  0  0  0  0  3  0  0  0  0  0  0
  -25.0540  -29.2110   19.7680 C   0  0  0  0  0  0  0  0  0  0  0  0
  -26.0550  -31.0800   21.0830 C   0  0  0  0  0  2  0  0  0  0  0  0
  -26.1960  -29.7550   20.3650 C   0  0  0  0  0  0  0  0  0  0  0  0
  -27.4350  -29.0810   20.2820 C   0  0  0  0  0  3  0  0  0  0  0  0
  -26.3750  -27.3310   18.9680 C   0  0  0  0  0  3  0  0  0  0  0  0
  -25.1370  -27.9940   19.0670 C   0  0  0  0  0  3  0  0  0  0  0  0
  -23.7680  -29.9920   19.9030 C   0  0  0  0  0  2  0  0  0  0  0  0
  -24.8090  -31.2050   21.8750 N   0  0  0  0  0  0  0  0  0  0  0  0
  -23.6700  -32.1010   23.6180 O   0  0  0  0  0  0  0  0  0  0  0  0
  -23.0050  -29.4510   22.2400 C   0  0  0  0  0  0  0  0  0  0  0  0
  -21.6840  -29.2190   22.1610 N   0  0  0  0  0  0  0  0  0  0  0  0
  -23.7530  -28.7960   22.9730 O   0  0  0  0  0  0  0  0  0  0  0  0
  -21.1420  -29.8090   21.5450 H   0  0  0  0  0  0  0  0  0  0  0  0
  -18.3820  -27.8670   22.7370 C   0  0  0  0  0  0  0  0  0  0  0  0
  -20.9420  -28.1900   22.8870 C   0  0  0  0  0  3  0  0  0  0  0  0
  -21.0530  -26.8180   22.1830 C   0  0  0  0  0  2  0  0  0  0  0  0
  -19.9040  -26.5460   21.2080 C   0  0  0  0  0  2  0  0  0  0  0  0
  -18.5590  -26.5870   21.9400 C   0  0  0  0  0  2  0  0  0  0  0  0
  -19.5000  -28.6290   23.1690 C   0  0  0  0  0  0  0  0  0  0  0  0
  -19.2760  -29.8290   23.8760 C   0  0  0  0  0  3  0  0  0  0  0  0
  -17.9670  -30.2680   24.1550 C   0  0  0  0  0  3  0  0  0  0  0  0
  -16.8650  -29.5020   23.7350 C   0  0  0  0  0  3  0  0  0  0  0  0
  -17.0730  -28.3040   23.0320 C   0  0  0  0  0  3  0  0  0  0  0  0
  -26.0140  -32.5840   23.6580 C   0  0  0  0  0  3  0  0  0  0  0  0
  -25.6480  -33.9460   24.0670 N   0  0  0  0  0  0  0  0  0  0  0  0
  -25.9440  -35.0530   23.3740 C   0  0  0  0  0  0  0  0  0  0  0  0
  -26.6250  -35.0360   22.3450 O   0  0  0  0  0  0  0  0  0  0  0  0
  -25.0390  -34.0280   24.8690 H   0  0  0  0  0  0  0  0  0  0  0  0
  -24.1570  -36.8030   23.1030 C   0  0  0  0  0  1  0  0  0  0  0  0
  -25.3990  -36.3930   23.9080 C   0  0  0  0  0  3  0  0  0  0  0  0
  -27.4930  -37.2990   24.8190 C   0  0  0  0  0  1  0  0  0  0  0  0
  -26.3950  -37.4860   23.8770 N   0  0  0  0  0  0  0  0  0  0  0  0
  -25.9560  -38.3820   24.0720 H   0  0  0  0  0  0  0  0  0  0  0  0
  -26.6010  -31.7700   24.8750 C   0  0  1  0  0  0  0  0  0  0  0  0
  -25.5560  -31.4250   25.9620 C   0  0  0  0  0  1  0  0  0  0  0  0
  -27.2280  -30.4450   24.3860 C   0  0  0  0  0  1  0  0  0  0  0  0
  -27.7380  -32.5790   25.5450 C   0  0  0  0  0  1  0  0  0  0  0  0
  -30.2900  -20.6460   20.3490 C   0  0  0  0  0  2  0  0  0  0  0  0
  -29.7030  -19.4000   16.7650 C   0  0  0  0  0  3  0  0  0  0  0  0
  -29.6630  -20.1650   17.9490 C   0  0  0  0  0  3  0  0  0  0  0  0
  -30.3700  -18.1670   16.7860 C   0  0  0  0  0  3  0  0  0  0  0  0
  -30.1720  -19.6600   19.1740 C   0  0  0  0  0  0  0  0  0  0  0  0
  -30.6840  -18.3220   19.2310 C   0  0  0  0  0  0  0  0  0  0  0  0
  -30.9050  -17.6670   17.9890 C   0  0  0  0  0  0  0  0  0  0  0  0
  -31.9940  -16.3490   17.8540 Cl  0  0  0  0  0  0  0  0  0  0  0  0
  -31.0480  -17.6300   20.5760 C   0  0  0  0  0  2  0  0  0  0  0  0
  -31.2600  -15.1090   20.7530 C   0  0  0  0  0  0  0  0  0  0  0  0
  -30.9140  -13.0020   19.5570 C   0  0  0  0  0  2  0  0  0  0  0  0
  -30.0110  -13.2340   18.3270 C   0  0  0  0  0  2  0  0  0  0  0  0
  -28.5240  -13.1840   18.7070 C   0  0  0  0  0  2  0  0  0  0  0  0
  -28.1660  -13.9830   19.9900 C   0  0  0  0  0  3  0  0  0  0  0  0
  -29.1880  -13.7270   21.1240 C   0  0  0  0  0  2  0  0  0  0  0  0
  -30.5340  -13.9760   20.5850 N   0  0  0  0  0  0  0  0  0  0  0  0
  -32.4820  -15.1530   20.6000 O   0  0  0  0  0  0  0  0  0  0  0  0
  -30.5410  -16.2470   20.7810 N   0  0  0  0  0  0  0  0  0  0  0  0
  -29.5470  -16.1310   20.8820 H   0  0  0  0  0  0  0  0  0  0  0  0
  -25.7600  -14.6110   20.6610 C   0  0  0  0  0  0  0  0  0  0  0  0
  -24.6500  -13.8440   20.9080 C   0  0  0  0  0  0  0  0  0  0  0  0
  -25.0720  -12.4870   20.7770 C   0  0  0  0  0  0  0  0  0  0  0  0
  -26.7870  -13.7170   20.4020 N   0  0  0  0  0  0  0  0  0  0  0  0
  -26.3750  -12.4290   20.5370 N   0  0  0  0  0  0  0  0  0  0  0  0
  -24.2970  -11.2380   20.8140 C   0  0  0  0  0  0  0  0  0  0  0  0
  -24.6890  -10.1490   21.6230 C   0  0  0  0  0  3  0  0  0  0  0  0
  -23.9190   -8.9660   21.6570 C   0  0  0  0  0  3  0  0  0  0  0  0
  -22.7390   -8.8680   20.8820 C   0  0  0  0  0  0  0  0  0  0  0  0
  -22.3660   -9.9440   20.0570 C   0  0  0  0  0  3  0  0  0  0  0  0
  -23.1390  -11.1180   20.0210 C   0  0  0  0  0  3  0  0  0  0  0  0
  -21.9420   -7.7500   20.8300 O   0  0  0  0  0  0  0  0  0  0  0  0
  -21.8680   -6.8710   21.8790 C   0  0  0  0  0  0  0  0  0  0  0  0
  -21.4990   -7.2870   23.1780 C   0  0  0  0  0  3  0  0  0  0  0  0
  -21.3730   -6.3370   24.2120 C   0  0  0  0  0  3  0  0  0  0  0  0
  -21.6020   -4.9730   23.9490 C   0  0  0  0  0  0  0  0  0  0  0  0
  -21.9620   -4.5580   22.6540 C   0  0  0  0  0  3  0  0  0  0  0  0
  -22.0930   -5.5030   21.6240 C   0  0  0  0  0  0  0  0  0  0  0  0
  -22.4210   -5.0930   20.3740 F   0  0  0  0  0  0  0  0  0  0  0  0
  -21.4710   -4.0610   24.9390 F   0  0  0  0  0  0  0  0  0  0  0  0
  -23.2560  -14.3450   21.1460 C   0  0  0  0  0  0  0  0  0  0  0  0
  -22.4720  -13.6160   21.9320 N   0  0  0  0  0  0  0  0  0  0  0  0
  -22.8680  -15.4140   20.6780 O   0  0  0  0  0  0  0  0  0  0  0  0
  -22.7980  -12.7440   22.3210 H   0  0  0  0  0  0  0  0  0  0  0  0
  -21.5370  -13.9300   22.1440 H   0  0  0  0  0  0  0  0  0  0  0  0
  -25.9650  -15.9860   20.6090 N   0  0  0  0  0  0  0  0  0  0  0  0
  -25.1950  -16.6350   20.7440 H   0  0  0  0  0  0  0  0  0  0  0  0
  -26.8250  -16.4450   20.3320 H   0  0  0  0  0  0  0  0  0  0  0  0
  1  2  2  0
  1  3  1  0
  3  4  2  0
  4  5  1  0
  6  7  1  0
  6  1  1  0
  7  8  3  0
  9  8  1  0
  9 11  1  0
 10 21  2  0
 11 16  1  0
 12 20  1  0
 12 22  1  0
 13 19  1  0
 13 15  1  0
 14 20  1  0
 15 14  1  0
 16 15  2  0
 17 18  1  0
 17 11  2  0
 18 13  2  0
 19 12  1  0
 20 10  1  0
 22 24  2  0
 23 22  1  0
 25 23  1  0
 26 35  2  0
 26 31  1  0
 27 23  1  0
 27 31  1  0
 28 27  1  0
 29 30  1  0
 29 28  1  0
 30 26  1  0
 31 32  2  0
 32 33  1  0
 34 33  2  0
 35 34  1  0
 36 10  1  0
 36 37  1  0
 36 46  1  0
 37 40  1  0
 38 42  1  0
 38 37  1  0
 39 38  2  0
 42 41  1  0
 44 42  1  0
 44 45  1  0
 44 43  1  0
 46 49  1  1
 46 47  1  0
 48 46  1  0
 50  2  1  0
 51 53  2  0
 51 52  1  0
 52 54  2  0
 53 56  1  0
 54 55  1  0
 54 50  1  0
 55 58  1  0
 56 55  2  0
 57 56  1  0
 58 67  1  0
 59 67  1  0
 60 65  1  0
 61 62  1  0
 61 60  1  0
 63 62  1  0
 63 72  1  0
 63 64  1  0
 65 59  1  0
 65 64  1  0
 66 59  2  0
 67 68  1  0
 69 70  2  0
 70 89  1  0
 71 74  1  0
 71 70  1  0
 72 73  1  0
 72 69  1  0
 73 71  2  0
 74 75  1  0
 75 76  2  0
 77 76  1  0
 78 77  2  0
 79 78  1  0
 79 74  2  0
 80 77  1  0
 80 81  1  0
 81 82  1  0
 82 83  2  0
 84 83  1  0
 84 88  1  0
 85 84  2  0
 86 81  2  0
 86 85  1  0
 87 86  1  0
 89 90  1  0
 90 93  1  0
 90 92  1  0
 91 89  2  0
 94 69  1  0
 94 95  1  0
 96 94  1  0
M  ISO  4   8 101   9 101  59 100  67 100
M  END
>  <TORSDO>  (89) 
F 22

>  <SCORE>  (89) 
-8.391

>  <name>  (89) 
88

>  <ligand_id>  (89) 
88

>  <original_smiles>  (89) 
[H]C(C(=NC([H])([H])c1c([H])c([H])c([H])c(Cl)c1C([H])([H])N([H])C(=O)N1C([H])([H])C([H])([H])C([H])([H])C([H])(n2nc(-c3c([H])c([H])c(Oc4c([H])c([H])c(F)c([H])c4F)c([H])c3[H])c(C(=O)N([H])[H])c2N([H])[H])C1([H])[H])C([H])([H])C#COc1c([H])c([H])c2c(c1[H])C([H])([H])N(C(=O)C([H])(N([H])C(=O)C([H])(N([H])C([H])([H])[H])C([H])([H])[H])C(C([H])([H])[H])(C([H])([H])[H])C([H])([H])[H])C([H])(C(=O)N([H])C1([H])c3c([H])c([H])c([H])c([H])c3C([H])([H])C([H])([H])C1([H])[H])C2([H])[H])=C([H])C([H])([H])[H]

>  <smiles>  (89) 
[H]C(C(=NC([H])([H])c1c([H])c([H])c([H])c(Cl)c1C([H])([H])N([H])C(=O)N1C([H])([H])C([H])([H])C([H])([H])C([H])(n2nc(-c3c([H])c([H])c(Oc4c([H])c([H])c(F)c([H])c4F)c([H])c3[H])c(C(=O)N([H])[H])c2N([H])[H])C1([H])[H])C([H])([H])C#COc1c([H])c([H])c2c(c1[H])C([H])([H])N(C(=O)C([H])(N([H])C(=O)C([H])(N([H])C([H])([H])[H])C([H])([H])[H])C(C([H])([H])[H])(C([H])([H])[H])C([H])([H])[H])C([H])(C(=O)N([H])C1([H])c3c([H])c([H])c([H])c([H])c3C([H])([H])C([H])([H])C1([H])[H])C2([H])[H])=C([H])C([H])([H])[H]

$$$$
89:0:0
     RDKit          3D

 98107  0  0  1  0  0  0  0  0999 V2000
  -28.5790  -23.8410   20.0520 C   0  0  0  0  0  0  0  0  0  0  0  0
  -28.1250  -23.7160   18.7890 C   0  0  0  0  0  2  0  0  0  0  0  0
  -31.2370  -24.8880   21.6980 C   0  0  0  0  0  2  0  0  0  0  0  0
  -31.2150  -23.3660   21.5640 C   0  0  0  0  0  2  0  0  0  0  0  0
  -30.3390  -25.5990   20.6850 C   0  0  0  0  0  2  0  0  0  0  0  0
  -29.8760  -22.7730   22.0170 C   0  0  0  0  0  2  0  0  0  0  0  0
  -28.8190  -25.2820   20.7070 C   0  0  0  0  0  3  0  0  0  0  0  0
  -28.8900  -22.5370   20.9220 N   0  0  2  0  0  4  0  0  0  0  0  0
  -28.0380  -22.3610   21.4360 H   0  0  0  0  0  0  0  0  0  0  0  0
  -28.3960  -26.4970   19.9470 O   0  0  0  0  0  0  0  0  0  0  0  0
  -24.6260  -31.8530   23.1980 C   0  0  0  0  0  0  0  0  0  0  0  0
  -27.2390  -27.2710   20.1450 C   0  0  0  0  0  0  0  0  0  0  0  0
  -23.4240  -30.4720   21.5390 C   0  0  0  0  0  3  0  0  0  0  0  0
  -24.8780  -28.9020   20.1280 C   0  0  0  0  0  0  0  0  0  0  0  0
  -25.9680  -30.7660   21.3770 C   0  0  0  0  0  2  0  0  0  0  0  0
  -26.0450  -29.3810   20.7380 C   0  0  0  0  0  0  0  0  0  0  0  0
  -27.2300  -28.5790   20.7310 C   0  0  0  0  0  3  0  0  0  0  0  0
  -26.0510  -26.8450   19.5200 C   0  0  0  0  0  3  0  0  0  0  0  0
  -24.8840  -27.6390   19.5110 C   0  0  0  0  0  3  0  0  0  0  0  0
  -23.6450  -29.7880   20.1630 C   0  0  0  0  0  2  0  0  0  0  0  0
  -24.6910  -31.0490   22.0960 N   0  0  0  0  0  0  0  0  0  0  0  0
  -23.5420  -32.1350   23.7310 O   0  0  0  0  0  0  0  0  0  0  0  0
  -22.7490  -29.4590   22.4930 C   0  0  0  0  0  0  0  0  0  0  0  0
  -21.4190  -29.3040   22.3660 N   0  0  0  0  0  0  0  0  0  0  0  0
  -23.4180  -28.8140   23.3050 O   0  0  0  0  0  0  0  0  0  0  0  0
  -20.9420  -29.8750   21.6820 H   0  0  0  0  0  0  0  0  0  0  0  0
  -18.0290  -28.1420   22.8500 C   0  0  0  0  0  0  0  0  0  0  0  0
  -20.5870  -28.3700   23.1270 C   0  0  0  0  0  3  0  0  0  0  0  0
  -20.6750  -26.9430   22.5390 C   0  0  0  0  0  2  0  0  0  0  0  0
  -19.5750  -26.6410   21.5180 C   0  0  0  0  0  2  0  0  0  0  0  0
  -18.1930  -26.7970   22.1620 C   0  0  0  0  0  2  0  0  0  0  0  0
  -19.1540  -28.8880   23.2880 C   0  0  0  0  0  0  0  0  0  0  0  0
  -18.9480  -30.1470   23.8910 C   0  0  0  0  0  3  0  0  0  0  0  0
  -17.6480  -30.6610   24.0570 C   0  0  0  0  0  3  0  0  0  0  0  0
  -16.5360  -29.9110   23.6350 C   0  0  0  0  0  3  0  0  0  0  0  0
  -16.7270  -28.6520   23.0370 C   0  0  0  0  0  3  0  0  0  0  0  0
  -25.9080  -32.4760   23.8280 C   0  0  0  0  0  3  0  0  0  0  0  0
  -26.4490  -31.6600   25.0650 C   0  0  1  0  0  0  0  0  0  0  0  0
  -25.3780  -31.3790   26.1430 C   0  0  0  0  0  1  0  0  0  0  0  0
  -27.0300  -30.3000   24.6130 C   0  0  0  0  0  1  0  0  0  0  0  0
  -27.6020  -32.4440   25.7320 C   0  0  0  0  0  1  0  0  0  0  0  0
  -25.5890  -33.8560   24.2190 N   0  0  0  0  0  0  0  0  0  0  0  0
  -25.9070  -34.9450   23.5070 C   0  0  0  0  0  0  0  0  0  0  0  0
  -26.5670  -34.8950   22.4660 O   0  0  0  0  0  0  0  0  0  0  0  0
  -24.9960  -33.9680   25.0290 H   0  0  0  0  0  0  0  0  0  0  0  0
  -24.1490  -36.7280   23.2650 C   0  0  0  0  0  1  0  0  0  0  0  0
  -25.4130  -36.3070   24.0330 C   0  0  0  0  0  3  0  0  0  0  0  0
  -27.5600  -37.1770   24.8450 C   0  0  0  0  0  1  0  0  0  0  0  0
  -26.4300  -37.3760   23.9420 N   0  0  0  0  0  0  0  0  0  0  0  0
  -26.0170  -38.2810   24.1520 H   0  0  0  0  0  0  0  0  0  0  0  0
  -29.0990  -21.1600   20.2180 C   0  0  0  0  0  2  0  0  0  0  0  0
  -29.0410  -19.6390   22.3570 C   0  0  0  0  0  3  0  0  0  0  0  0
  -29.5970  -17.2500   22.4270 C   0  0  0  0  0  3  0  0  0  0  0  0
  -29.5590  -18.4540   20.2970 C   0  0  0  0  0  0  0  0  0  0  0  0
  -29.2710  -19.7340   20.9620 C   0  0  0  0  0  0  0  0  0  0  0  0
  -29.7110  -17.1930   21.0240 C   0  0  0  0  0  0  0  0  0  0  0  0
  -29.2460  -18.4470   23.0770 C   0  0  0  0  0  0  0  0  0  0  0  0
  -29.0030  -18.4460   24.7860 Cl  0  0  0  0  0  0  0  0  0  0  0  0
  -30.5740  -14.7570   20.4780 C   0  0  0  0  0  0  0  0  0  0  0  0
  -30.4490  -12.4750   19.4530 C   0  0  0  0  0  2  0  0  0  0  0  0
  -29.5110  -12.5080   18.2250 C   0  0  0  0  0  2  0  0  0  0  0  0
  -28.0380  -12.3240   18.6450 C   0  0  0  0  0  2  0  0  0  0  0  0
  -27.6400  -13.2220   19.8470 C   0  0  0  0  0  3  0  0  0  0  0  0
  -28.6900  -13.1500   20.9760 C   0  0  0  0  0  2  0  0  0  0  0  0
  -29.9820  -13.5210   20.3850 N   0  0  0  0  0  0  0  0  0  0  0  0
  -31.7820  -14.8900   20.2620 O   0  0  0  0  0  0  0  0  0  0  0  0
  -29.7090  -15.8390   20.4260 N   0  0  0  0  0  0  0  0  0  0  0  0
  -28.7780  -15.5330   20.1890 H   0  0  0  0  0  0  0  0  0  0  0  0
  -25.2510  -13.8160   20.5700 C   0  0  0  0  0  0  0  0  0  0  0  0
  -24.1800  -13.0420   20.9220 C   0  0  0  0  0  0  0  0  0  0  0  0
  -24.6390  -11.6900   20.8760 C   0  0  0  0  0  0  0  0  0  0  0  0
  -26.2940  -12.9350   20.3260 N   0  0  0  0  0  0  0  0  0  0  0  0
  -25.9320  -11.6500   20.5760 N   0  0  0  0  0  0  0  0  0  0  0  0
  -23.9080  -10.4280   21.0410 C   0  0  0  0  0  0  0  0  0  0  0  0
  -24.3620   -9.4190   21.9190 C   0  0  0  0  0  3  0  0  0  0  0  0
  -23.6290   -8.2230   22.0760 C   0  0  0  0  0  3  0  0  0  0  0  0
  -22.4270   -8.0280   21.3550 C   0  0  0  0  0  0  0  0  0  0  0  0
  -21.9910   -9.0260   20.4660 C   0  0  0  0  0  3  0  0  0  0  0  0
  -22.7260  -10.2130   20.3070 C   0  0  0  0  0  3  0  0  0  0  0  0
  -21.6630   -6.8880   21.4250 O   0  0  0  0  0  0  0  0  0  0  0  0
  -21.6840   -6.0750   22.5290 C   0  0  0  0  0  0  0  0  0  0  0  0
  -21.4010   -6.5650   23.8220 C   0  0  0  0  0  3  0  0  0  0  0  0
  -21.3660   -5.6800   24.9190 C   0  0  0  0  0  3  0  0  0  0  0  0
  -21.6040   -4.3060   24.7230 C   0  0  0  0  0  0  0  0  0  0  0  0
  -21.8820   -3.8150   23.4350 C   0  0  0  0  0  3  0  0  0  0  0  0
  -21.9190   -4.6970   22.3400 C   0  0  0  0  0  0  0  0  0  0  0  0
  -22.1660   -4.2160   21.0980 F   0  0  0  0  0  0  0  0  0  0  0  0
  -21.5620   -3.4550   25.7740 F   0  0  0  0  0  0  0  0  0  0  0  0
  -22.7830  -13.5220   21.1860 C   0  0  0  0  0  0  0  0  0  0  0  0
  -22.0460  -12.8230   22.0410 N   0  0  0  0  0  0  0  0  0  0  0  0
  -22.3530  -14.5530   20.6710 O   0  0  0  0  0  0  0  0  0  0  0  0
  -22.4070  -11.9890   22.4820 H   0  0  0  0  0  0  0  0  0  0  0  0
  -21.1090  -13.1280   22.2620 H   0  0  0  0  0  0  0  0  0  0  0  0
  -25.4160  -15.1900   20.4110 N   0  0  0  0  0  0  0  0  0  0  0  0
  -24.6370  -15.8310   20.5280 H   0  0  0  0  0  0  0  0  0  0  0  0
  -26.2530  -15.6430   20.0720 H   0  0  0  0  0  0  0  0  0  0  0  0
  -30.4230  -19.1030   18.0280 C   0  0  0  0  0  2  0  0  0  0  0  0
  -29.6430  -18.3590   18.8300 C   0  0  0  0  0  3  0  0  0  0  0  0
  1  7  1  0
  1  8  1  0
  2  1  2  0
  4  3  1  0
  4  6  1  0
  5  7  1  0
  5  3  1  0
  7 10  1  0
  8  9  1  1
  8  6  1  0
 10 12  1  0
 11 22  2  0
 12 17  1  0
 13 21  1  0
 13 23  1  0
 14 20  1  0
 14 16  1  0
 15 21  1  0
 16 15  1  0
 17 16  2  0
 18 12  2  0
 19 18  1  0
 19 14  2  0
 20 13  1  0
 21 11  1  0
 23 25  2  0
 24 23  1  0
 26 24  1  0
 27 36  2  0
 27 32  1  0
 28 24  1  0
 28 32  1  0
 29 28  1  0
 30 31  1  0
 30 29  1  0
 31 27  1  0
 32 33  2  0
 33 34  1  0
 35 34  2  0
 36 35  1  0
 37 11  1  0
 37 42  1  0
 37 38  1  0
 38 41  1  1
 38 39  1  0
 40 38  1  0
 42 45  1  0
 43 47  1  0
 43 42  1  0
 44 43  2  0
 47 46  1  0
 49 47  1  0
 49 50  1  0
 49 48  1  0
 51  8  1  0
 51 55  1  0
 52 57  1  0
 53 57  2  0
 54 55  1  0
 54 56  2  0
 55 52  2  0
 56 53  1  0
 57 58  1  0
 60 65  1  0
 61 62  1  0
 61 60  1  0
 63 62  1  0
 63 72  1  0
 63 64  1  0
 65 59  1  0
 65 64  1  0
 66 59  2  0
 67 59  1  0
 67 56  1  0
 68 67  1  0
 69 70  2  0
 70 89  1  0
 71 70  1  0
 71 74  1  0
 72 69  1  0
 72 73  1  0
 73 71  2  0
 74 75  1  0
 75 76  2  0
 77 80  1  0
 77 76  1  0
 78 77  2  0
 79 78  1  0
 79 74  2  0
 80 81  1  0
 81 82  1  0
 82 83  2  0
 84 83  1  0
 84 88  1  0
 85 84  2  0
 86 81  2  0
 86 85  1  0
 87 86  1  0
 89 90  1  0
 90 93  1  0
 90 92  1  0
 91 89  2  0
 94 95  1  0
 94 69  1  0
 96 94  1  0
 97 98  2  0
 98 54  1  0
M  ISO  4   7 101  10 101  59 100  67 100
M  END
>  <TORSDO>  (90) 
F 19

>  <SCORE>  (90) 
-4.048

>  <name>  (90) 
89

>  <ligand_id>  (90) 
89

>  <original_smiles>  (90) 
[H]C([H])=C([H])c1c(N([H])C(=O)N2C([H])([H])C([H])([H])C([H])([H])C([H])(n3nc(-c4c([H])c([H])c(Oc5c([H])c([H])c(F)c([H])c5F)c([H])c4[H])c(C(=O)N([H])[H])c3N([H])[H])C2([H])[H])c([H])c(Cl)c([H])c1C([H])([H])[N+]1([H])C(=C([H])[H])C([H])(Oc2c([H])c([H])c3c(c2[H])C([H])([H])N(C(=O)C([H])(N([H])C(=O)C([H])(N([H])C([H])([H])[H])C([H])([H])[H])C(C([H])([H])[H])(C([H])([H])[H])C([H])([H])[H])C([H])(C(=O)N([H])C2([H])c4c([H])c([H])c([H])c([H])c4C([H])([H])C([H])([H])C2([H])[H])C3([H])[H])C([H])([H])C([H])([H])C([H])([H])C1([H])[H]

>  <smiles>  (90) 
[H]C([H])=C([H])c1c(N([H])C(=O)N2C([H])([H])C([H])([H])C([H])([H])C([H])(n3nc(-c4c([H])c([H])c(Oc5c([H])c([H])c(F)c([H])c5F)c([H])c4[H])c(C(=O)N([H])[H])c3N([H])[H])C2([H])[H])c([H])c(Cl)c([H])c1C([H])([H])[N+]1([H])C(=C([H])[H])C([H])(Oc2c([H])c([H])c3c(c2[H])C([H])([H])N(C(=O)C([H])(N([H])C(=O)C([H])(N([H])C([H])([H])[H])C([H])([H])[H])C(C([H])([H])[H])(C([H])([H])[H])C([H])([H])[H])C([H])(C(=O)N([H])C2([H])c4c([H])c([H])c([H])c([H])c4C([H])([H])C([H])([H])C2([H])[H])C3([H])[H])C([H])([H])C([H])([H])C([H])([H])C1([H])[H]

$$$$
90:0:0
     RDKit          3D

 96104  0  0  1  0  0  0  0  0999 V2000
  -30.8040  -18.8280   22.5980 C   0  0  0  0  0  3  0  0  0  0  0  0
  -30.0390  -18.6530   19.9560 C   0  0  0  0  0  3  0  0  0  0  0  0
  -30.5750  -20.0430   21.9010 C   0  0  0  0  0  0  0  0  0  0  0  0
  -30.6990  -17.5480   22.0140 C   0  0  0  0  0  0  0  0  0  0  0  0
  -30.1470  -19.9910   20.5350 C   0  0  0  0  0  0  0  0  0  0  0  0
  -30.3380  -17.4100   20.6540 C   0  0  0  0  0  0  0  0  0  0  0  0
  -30.9450  -16.3380   22.9030 C   0  0  0  0  0  1  0  0  0  0  0  0
  -30.9120  -14.9260   19.9980 C   0  0  0  0  0  0  0  0  0  0  0  0
  -30.6530  -12.6660   18.9500 C   0  0  0  0  0  2  0  0  0  0  0  0
  -29.6560  -12.7510   17.7730 C   0  0  0  0  0  2  0  0  0  0  0  0
  -28.2040  -12.5990   18.2690 C   0  0  0  0  0  2  0  0  0  0  0  0
  -27.8950  -13.4910   19.5010 C   0  0  0  0  0  3  0  0  0  0  0  0
  -29.0000  -13.3720   20.5720 C   0  0  0  0  0  2  0  0  0  0  0  0
  -30.2700  -13.7130   19.9200 N   0  0  0  0  0  0  0  0  0  0  0  0
  -32.1040  -15.0210   19.6920 O   0  0  0  0  0  0  0  0  0  0  0  0
  -30.1050  -16.0500   20.1130 N   0  0  0  0  0  0  0  0  0  0  0  0
  -29.1280  -15.8280   20.0000 H   0  0  0  0  0  0  0  0  0  0  0  0
  -25.5570  -14.1270   20.3440 C   0  0  0  0  0  0  0  0  0  0  0  0
  -24.4890  -13.3710   20.7470 C   0  0  0  0  0  0  0  0  0  0  0  0
  -24.9200  -12.0110   20.6780 C   0  0  0  0  0  0  0  0  0  0  0  0
  -26.5690  -13.2280   20.0490 N   0  0  0  0  0  0  0  0  0  0  0  0
  -26.1950  -11.9490   20.3140 N   0  0  0  0  0  0  0  0  0  0  0  0
  -24.1740  -10.7620   20.8780 C   0  0  0  0  0  0  0  0  0  0  0  0
  -24.5740   -9.8100   21.8420 C   0  0  0  0  0  3  0  0  0  0  0  0
  -23.8280   -8.6260   22.0280 C   0  0  0  0  0  3  0  0  0  0  0  0
  -22.6700   -8.3850   21.2520 C   0  0  0  0  0  0  0  0  0  0  0  0
  -22.2900   -9.3250   20.2780 C   0  0  0  0  0  3  0  0  0  0  0  0
  -23.0360  -10.5020   20.0900 C   0  0  0  0  0  3  0  0  0  0  0  0
  -21.8990   -7.2520   21.3470 O   0  0  0  0  0  0  0  0  0  0  0  0
  -21.7550   -6.5770   22.5320 C   0  0  0  0  0  0  0  0  0  0  0  0
  -21.2220   -7.1980   23.6820 C   0  0  0  0  0  3  0  0  0  0  0  0
  -21.0270   -6.4490   24.8600 C   0  0  0  0  0  3  0  0  0  0  0  0
  -21.3540   -5.0790   24.8870 C   0  0  0  0  0  0  0  0  0  0  0  0
  -21.8800   -4.4590   23.7400 C   0  0  0  0  0  3  0  0  0  0  0  0
  -22.0770   -5.2060   22.5660 C   0  0  0  0  0  0  0  0  0  0  0  0
  -22.5640   -4.5980   21.4560 F   0  0  0  0  0  0  0  0  0  0  0  0
  -21.1590   -4.3580   26.0140 F   0  0  0  0  0  0  0  0  0  0  0  0
  -23.1150  -13.8750   21.0810 C   0  0  0  0  0  0  0  0  0  0  0  0
  -22.4090  -13.1850   21.9690 N   0  0  0  0  0  0  0  0  0  0  0  0
  -22.6780  -14.9140   20.5890 O   0  0  0  0  0  0  0  0  0  0  0  0
  -22.7760  -12.3420   22.3870 H   0  0  0  0  0  0  0  0  0  0  0  0
  -21.4890  -13.5040   22.2370 H   0  0  0  0  0  0  0  0  0  0  0  0
  -25.7420  -15.4970   20.1800 N   0  0  0  0  0  0  0  0  0  0  0  0
  -24.9910  -16.1610   20.3370 H   0  0  0  0  0  0  0  0  0  0  0  0
  -26.5740  -15.9280   19.8000 H   0  0  0  0  0  0  0  0  0  0  0  0
  -29.4880  -22.0160   23.0860 C   0  0  0  0  0  1  0  0  0  0  0  0
  -31.7200  -21.2180   23.9130 C   0  0  0  0  0  1  0  0  0  0  0  0
  -30.8170  -21.3620   22.6690 C   0  0  1  0  0  0  0  0  0  0  0  0
  -31.5130  -22.2090   21.9170 F   0  0  0  0  0  0  0  0  0  0  0  0
  -29.9320  -21.3060   19.6340 C   0  0  0  0  0  2  0  0  0  0  0  0
  -29.3880  -23.8880   19.7500 C   0  0  0  0  0  0  0  0  0  0  0  0
  -29.1240  -22.5510   20.0190 N   0  0  0  0  0  0  0  0  0  0  0  0
  -30.4760  -24.2070   19.2560 O   0  0  0  0  0  0  0  0  0  0  0  0
  -28.2180  -22.3630   20.4260 H   0  0  0  0  0  0  0  0  0  0  0  0
  -28.2960  -25.0420   20.0220 C   0  0  0  0  0  2  0  0  0  0  0  0
  -28.5330  -26.5270   19.9220 O   0  0  0  0  0  0  0  0  0  0  0  0
  -24.6030  -31.7210   23.1440 C   0  0  0  0  0  0  0  0  0  0  0  0
  -27.3990  -27.3680   19.9190 C   0  0  0  0  0  0  0  0  0  0  0  0
  -23.4630  -30.3480   21.4400 C   0  0  0  0  0  3  0  0  0  0  0  0
  -24.9790  -28.9140   19.9590 C   0  0  0  0  0  0  0  0  0  0  0  0
  -25.9930  -30.7660   21.2860 C   0  0  0  0  0  2  0  0  0  0  0  0
  -26.1310  -29.4170   20.5790 C   0  0  0  0  0  0  0  0  0  0  0  0
  -27.3450  -28.6600   20.5410 C   0  0  0  0  0  3  0  0  0  0  0  0
  -26.2190  -26.9260   19.2800 C   0  0  0  0  0  3  0  0  0  0  0  0
  -25.0290  -27.6770   19.2970 C   0  0  0  0  0  3  0  0  0  0  0  0
  -23.7120  -29.7420   20.0350 C   0  0  0  0  0  2  0  0  0  0  0  0
  -24.7050  -30.9610   22.0140 N   0  0  0  0  0  0  0  0  0  0  0  0
  -23.5060  -31.9340   23.6830 O   0  0  0  0  0  0  0  0  0  0  0  0
  -22.8350  -29.2670   22.3530 C   0  0  0  0  0  0  0  0  0  0  0  0
  -21.5160  -29.0460   22.2140 N   0  0  0  0  0  0  0  0  0  0  0  0
  -23.5340  -28.6330   23.1470 O   0  0  0  0  0  0  0  0  0  0  0  0
  -21.0070  -29.6150   21.5520 H   0  0  0  0  0  0  0  0  0  0  0  0
  -18.1840  -27.7030   22.6490 C   0  0  0  0  0  0  0  0  0  0  0  0
  -20.7310  -28.0450   22.9390 C   0  0  0  0  0  3  0  0  0  0  0  0
  -20.8870  -26.6440   22.3040 C   0  0  0  0  0  2  0  0  0  0  0  0
  -19.8000  -26.3260   21.2710 C   0  0  0  0  0  2  0  0  0  0  0  0
  -18.4130  -26.3910   21.9170 C   0  0  0  0  0  2  0  0  0  0  0  0
  -19.2740  -28.4860   23.1170 C   0  0  0  0  0  0  0  0  0  0  0  0
  -19.0080  -29.7130   23.7630 C   0  0  0  0  0  3  0  0  0  0  0  0
  -17.6850  -30.1570   23.9470 C   0  0  0  0  0  3  0  0  0  0  0  0
  -16.6110  -29.3720   23.4970 C   0  0  0  0  0  3  0  0  0  0  0  0
  -16.8610  -28.1450   22.8540 C   0  0  0  0  0  3  0  0  0  0  0  0
  -25.8560  -32.3780   23.8010 C   0  0  0  0  0  3  0  0  0  0  0  0
  -26.3610  -31.6080   25.0840 C   0  0  1  0  0  0  0  0  0  0  0  0
  -25.2440  -31.3250   26.1170 C   0  0  0  0  0  1  0  0  0  0  0  0
  -26.9990  -30.2550   24.6950 C   0  0  0  0  0  1  0  0  0  0  0  0
  -27.4670  -32.4300   25.7870 C   0  0  0  0  0  1  0  0  0  0  0  0
  -25.5080  -33.7660   24.1360 N   0  0  0  0  0  0  0  0  0  0  0  0
  -25.8340  -34.8330   23.3940 C   0  0  0  0  0  0  0  0  0  0  0  0
  -26.5260  -34.7530   22.3760 O   0  0  0  0  0  0  0  0  0  0  0  0
  -24.8950  -33.9010   24.9260 H   0  0  0  0  0  0  0  0  0  0  0  0
  -24.0750  -36.5920   23.0220 C   0  0  0  0  0  1  0  0  0  0  0  0
  -25.3070  -36.2070   23.8550 C   0  0  0  0  0  3  0  0  0  0  0  0
  -27.4010  -37.1340   24.7400 C   0  0  0  0  0  1  0  0  0  0  0  0
  -26.3200  -37.2820   23.7720 N   0  0  0  0  0  0  0  0  0  0  0  0
  -25.8900  -38.1920   23.9160 H   0  0  0  0  0  0  0  0  0  0  0  0
  2  5  2  0
  2  6  1  0
  3  1  2  0
  3 48  1  0
  4  1  1  0
  4  7  1  0
  5  3  1  0
  6  4  2  0
  8 16  1  0
  9 14  1  0
 10 11  1  0
 10  9  1  0
 12 11  1  0
 12 21  1  0
 12 13  1  0
 14  8  1  0
 14 13  1  0
 15  8  2  0
 16  6  1  0
 17 16  1  0
 18 19  2  0
 19 38  1  0
 20 19  1  0
 20 23  1  0
 21 22  1  0
 21 18  1  0
 22 20  2  0
 23 24  1  0
 24 25  2  0
 26 29  1  0
 26 25  1  0
 27 26  2  0
 28 27  1  0
 28 23  2  0
 29 30  1  0
 30 35  2  0
 30 31  1  0
 31 32  2  0
 32 33  1  0
 33 37  1  0
 34 33  2  0
 35 34  1  0
 36 35  1  0
 38 39  1  0
 39 42  1  0
 39 41  1  0
 40 38  2  0
 43 44  1  0
 43 18  1  0
 45 43  1  0
 48 46  1  1
 48 47  1  0
 49 48  1  0
 50 52  1  0
 50  5  1  0
 51 52  1  0
 51 55  1  0
 52 54  1  0
 53 51  2  0
 56 55  1  0
 57 68  2  0
 58 56  1  0
 58 63  1  0
 59 67  1  0
 59 69  1  0
 60 66  1  0
 60 62  1  0
 61 67  1  0
 62 61  1  0
 63 62  2  0
 64 65  1  0
 64 58  2  0
 65 60  2  0
 66 59  1  0
 67 57  1  0
 69 71  2  0
 70 69  1  0
 72 70  1  0
 73 82  2  0
 73 78  1  0
 74 70  1  0
 74 78  1  0
 75 74  1  0
 76 77  1  0
 76 75  1  0
 77 73  1  0
 78 79  2  0
 79 80  1  0
 81 80  2  0
 82 81  1  0
 83 57  1  0
 83 88  1  0
 83 84  1  0
 84 87  1  1
 84 85  1  0
 86 84  1  0
 88 91  1  0
 89 93  1  0
 89 88  1  0
 90 89  2  0
 93 92  1  0
 95 93  1  0
 95 96  1  0
 95 94  1  0
M  ISO  4   8 100  16 100  55 101  56 101
M  END
>  <TORSDO>  (91) 
F 20

>  <SCORE>  (91) 
-13.083

>  <name>  (91) 
90

>  <ligand_id>  (91) 
90

>  <original_smiles>  (91) 
[H]c1c([H])c([H])c2c(c1[H])C([H])([H])C([H])([H])C([H])([H])C2([H])N([H])C(=O)C1([H])N(C(=O)C([H])(N([H])C(=O)C([H])(N([H])C([H])([H])[H])C([H])([H])[H])C(C([H])([H])[H])(C([H])([H])[H])C([H])([H])[H])C([H])([H])c2c([H])c(OC([H])([H])C(=O)N([H])C([H])([H])c3c([H])c(N([H])C(=O)N4C([H])([H])C([H])([H])C([H])([H])C([H])(n5nc(-c6c([H])c([H])c(Oc7c([H])c([H])c(F)c([H])c7F)c([H])c6[H])c(C(=O)N([H])[H])c5N([H])[H])C4([H])[H])c(C([H])([H])[H])c([H])c3C(F)(C([H])([H])[H])C([H])([H])[H])c([H])c([H])c2C1([H])[H]

>  <smiles>  (91) 
[H]c1c([H])c([H])c2c(c1[H])C([H])([H])C([H])([H])C([H])([H])C2([H])N([H])C(=O)C1([H])N(C(=O)C([H])(N([H])C(=O)C([H])(N([H])C([H])([H])[H])C([H])([H])[H])C(C([H])([H])[H])(C([H])([H])[H])C([H])([H])[H])C([H])([H])c2c([H])c(OC([H])([H])C(=O)N([H])C([H])([H])c3c([H])c(N([H])C(=O)N4C([H])([H])C([H])([H])C([H])([H])C([H])(n5nc(-c6c([H])c([H])c(Oc7c([H])c([H])c(F)c([H])c7F)c([H])c6[H])c(C(=O)N([H])[H])c5N([H])[H])C4([H])[H])c(C([H])([H])[H])c([H])c3C(F)(C([H])([H])[H])C([H])([H])[H])c([H])c([H])c2C1([H])[H]

$$$$
91:0:0
     RDKit          3D

100109  0  0  1  0  0  0  0  0999 V2000
  -29.4240  -23.2950   19.9200 C   0  0  0  0  0  0  0  0  0  0  0  0
  -30.7490  -23.5420   20.0330 C   0  0  0  0  0  3  0  0  0  0  0  0
  -26.6450  -22.6530   18.9610 C   0  0  0  0  0  2  0  0  0  0  0  0
  -26.9100  -23.6770   20.0860 C   0  0  0  0  0  2  0  0  0  0  0  0
  -27.9190  -21.9140   18.4950 C   0  0  0  0  0  2  0  0  0  0  0  0
  -28.2800  -24.3700   19.9130 C   0  0  0  0  0  3  0  0  0  0  0  0
  -28.9730  -21.8810   19.5410 N   0  0  2  0  0  4  0  0  0  0  0  0
  -29.7740  -21.4790   19.0740 H   0  0  0  0  0  0  0  0  0  0  0  0
  -31.9610  -21.7720   18.7760 C   0  0  0  0  0  2  0  0  0  0  0  0
  -31.8020  -22.5520   19.8610 C   0  0  0  0  0  3  0  0  0  0  0  0
  -28.6760  -20.8770   20.6290 C   0  0  0  0  0  2  0  0  0  0  0  0
  -31.4950  -17.5320   21.3440 C   0  0  0  0  0  3  0  0  0  0  0  0
  -29.3660  -18.3040   20.4160 C   0  0  0  0  0  0  0  0  0  0  0  0
  -29.6610  -19.6630   20.8090 C   0  0  0  0  0  0  0  0  0  0  0  0
  -30.2940  -17.2370   20.6750 C   0  0  0  0  0  0  0  0  0  0  0  0
  -31.7800  -18.8360   21.7700 C   0  0  0  0  0  0  0  0  0  0  0  0
  -30.8770  -19.8890   21.5190 C   0  0  0  0  0  0  0  0  0  0  0  0
  -28.0460  -17.9480   19.7390 C   0  0  0  0  0  1  0  0  0  0  0  0
  -33.2510  -19.1060   22.6430 Cl  0  0  0  0  0  0  0  0  0  0  0  0
  -31.2660  -21.4520   22.1610 Cl  0  0  0  0  0  0  0  0  0  0  0  0
  -30.8280  -14.8250   20.0750 C   0  0  0  0  0  0  0  0  0  0  0  0
  -30.6660  -12.5170   19.1670 C   0  0  0  0  0  2  0  0  0  0  0  0
  -29.6880  -12.5060   17.9710 C   0  0  0  0  0  2  0  0  0  0  0  0
  -28.2340  -12.3290   18.4560 C   0  0  0  0  0  2  0  0  0  0  0  0
  -27.8680  -13.3010   19.6090 C   0  0  0  0  0  3  0  0  0  0  0  0
  -28.9540  -13.2720   20.7090 C   0  0  0  0  0  2  0  0  0  0  0  0
  -30.2410  -13.5960   20.0720 N   0  0  0  0  0  0  0  0  0  0  0  0
  -31.9640  -15.0150   19.6230 O   0  0  0  0  0  0  0  0  0  0  0  0
  -29.9970  -15.8520   20.3940 N   0  0  0  0  0  0  0  0  0  0  0  0
  -29.0360  -15.5740   20.5250 H   0  0  0  0  0  0  0  0  0  0  0  0
  -25.5210  -13.9110   20.4740 C   0  0  0  0  0  0  0  0  0  0  0  0
  -24.4630  -13.1370   20.8700 C   0  0  0  0  0  0  0  0  0  0  0  0
  -24.9060  -11.7830   20.7700 C   0  0  0  0  0  0  0  0  0  0  0  0
  -26.5400  -13.0260   20.1510 N   0  0  0  0  0  0  0  0  0  0  0  0
  -26.1770  -11.7400   20.3890 N   0  0  0  0  0  0  0  0  0  0  0  0
  -24.1760  -10.5210   20.9510 C   0  0  0  0  0  0  0  0  0  0  0  0
  -24.5760   -9.5670   21.9130 C   0  0  0  0  0  3  0  0  0  0  0  0
  -23.8460   -8.3700   22.0810 C   0  0  0  0  0  3  0  0  0  0  0  0
  -22.7030   -8.1190   21.2850 C   0  0  0  0  0  0  0  0  0  0  0  0
  -22.3240   -9.0620   20.3140 C   0  0  0  0  0  3  0  0  0  0  0  0
  -23.0540  -10.2490   20.1440 C   0  0  0  0  0  3  0  0  0  0  0  0
  -21.9490   -6.9730   21.3600 O   0  0  0  0  0  0  0  0  0  0  0  0
  -21.7850   -6.2980   22.5430 C   0  0  0  0  0  0  0  0  0  0  0  0
  -21.1950   -6.9040   23.6740 C   0  0  0  0  0  3  0  0  0  0  0  0
  -20.9810   -6.1530   24.8460 C   0  0  0  0  0  3  0  0  0  0  0  0
  -21.3470   -4.7930   24.8890 C   0  0  0  0  0  0  0  0  0  0  0  0
  -21.9280   -4.1850   23.7620 C   0  0  0  0  0  3  0  0  0  0  0  0
  -22.1440   -4.9350   22.5920 C   0  0  0  0  0  0  0  0  0  0  0  0
  -22.6850   -4.3390   21.5030 F   0  0  0  0  0  0  0  0  0  0  0  0
  -21.1350   -4.0690   26.0120 F   0  0  0  0  0  0  0  0  0  0  0  0
  -23.0880  -13.6190   21.2330 C   0  0  0  0  0  0  0  0  0  0  0  0
  -22.3920  -12.8930   22.1010 N   0  0  0  0  0  0  0  0  0  0  0  0
  -22.6360  -14.6690   20.7790 O   0  0  0  0  0  0  0  0  0  0  0  0
  -22.7680  -12.0400   22.4900 H   0  0  0  0  0  0  0  0  0  0  0  0
  -21.4710  -13.1940   22.3860 H   0  0  0  0  0  0  0  0  0  0  0  0
  -25.6930  -15.2840   20.3340 N   0  0  0  0  0  0  0  0  0  0  0  0
  -24.9430  -15.9450   20.5090 H   0  0  0  0  0  0  0  0  0  0  0  0
  -26.5020  -15.7120   19.9030 H   0  0  0  0  0  0  0  0  0  0  0  0
  -28.4190  -25.6350   20.8570 C   0  0  0  0  0  2  0  0  0  0  0  0
  -28.4180  -26.9460   20.2100 O   0  0  0  0  0  0  0  0  0  0  0  0
  -24.5560  -32.0880   23.3720 C   0  0  0  0  0  0  0  0  0  0  0  0
  -27.2470  -27.6950   20.2310 C   0  0  0  0  0  0  0  0  0  0  0  0
  -23.3630  -30.7090   21.7020 C   0  0  0  0  0  3  0  0  0  0  0  0
  -24.8360  -29.2100   20.2400 C   0  0  0  0  0  0  0  0  0  0  0  0
  -25.8880  -31.0890   21.5110 C   0  0  0  0  0  2  0  0  0  0  0  0
  -25.9920  -29.7310   20.8360 C   0  0  0  0  0  0  0  0  0  0  0  0
  -27.1980  -28.9860   20.8200 C   0  0  0  0  0  3  0  0  0  0  0  0
  -26.0760  -27.1990   19.6200 C   0  0  0  0  0  3  0  0  0  0  0  0
  -24.8780  -27.9440   19.6210 C   0  0  0  0  0  3  0  0  0  0  0  0
  -23.5830  -30.0580   20.3080 C   0  0  0  0  0  2  0  0  0  0  0  0
  -24.6190  -31.3120   22.2530 N   0  0  0  0  0  0  0  0  0  0  0  0
  -23.4770  -32.3390   23.9240 O   0  0  0  0  0  0  0  0  0  0  0  0
  -22.7280  -29.6610   22.6450 C   0  0  0  0  0  0  0  0  0  0  0  0
  -21.4190  -29.4150   22.4750 N   0  0  0  0  0  0  0  0  0  0  0  0
  -23.4110  -29.0680   23.4820 O   0  0  0  0  0  0  0  0  0  0  0  0
  -20.9250  -29.9610   21.7830 H   0  0  0  0  0  0  0  0  0  0  0  0
  -18.0980  -28.0340   22.8290 C   0  0  0  0  0  0  0  0  0  0  0  0
  -20.6230  -28.4340   23.2160 C   0  0  0  0  0  3  0  0  0  0  0  0
  -20.8270  -27.0090   22.6540 C   0  0  0  0  0  2  0  0  0  0  0  0
  -19.7920  -26.6200   21.5950 C   0  0  0  0  0  2  0  0  0  0  0  0
  -18.3760  -26.6910   22.1750 C   0  0  0  0  0  2  0  0  0  0  0  0
  -19.1520  -28.8570   23.3040 C   0  0  0  0  0  0  0  0  0  0  0  0
  -18.8400  -30.1130   23.8660 C   0  0  0  0  0  3  0  0  0  0  0  0
  -17.5040  -30.5390   23.9770 C   0  0  0  0  0  3  0  0  0  0  0  0
  -16.4620  -29.7110   23.5260 C   0  0  0  0  0  3  0  0  0  0  0  0
  -16.7590  -28.4610   22.9550 C   0  0  0  0  0  3  0  0  0  0  0  0
  -25.8360  -32.7190   24.0000 C   0  0  0  0  0  3  0  0  0  0  0  0
  -26.3270  -31.9700   25.3000 C   0  0  1  0  0  0  0  0  0  0  0  0
  -25.2110  -31.7350   26.3480 C   0  0  0  0  0  1  0  0  0  0  0  0
  -26.9350  -30.5940   24.9370 C   0  0  0  0  0  1  0  0  0  0  0  0
  -27.4520  -32.7880   25.9780 C   0  0  0  0  0  1  0  0  0  0  0  0
  -25.5380  -34.1260   24.3000 N   0  0  0  0  0  0  0  0  0  0  0  0
  -25.8860  -35.1600   23.5240 C   0  0  0  0  0  0  0  0  0  0  0  0
  -26.5630  -35.0290   22.4990 O   0  0  0  0  0  0  0  0  0  0  0  0
  -24.9250  -34.3000   25.0830 H   0  0  0  0  0  0  0  0  0  0  0  0
  -24.1700  -36.9540   23.1210 C   0  0  0  0  0  1  0  0  0  0  0  0
  -25.4040  -36.5620   23.9470 C   0  0  0  0  0  3  0  0  0  0  0  0
  -27.5380  -37.4630   24.7670 C   0  0  0  0  0  1  0  0  0  0  0  0
  -26.4440  -37.6060   23.8100 N   0  0  0  0  0  0  0  0  0  0  0  0
  -26.0450  -38.5320   23.9220 H   0  0  0  0  0  0  0  0  0  0  0  0
  1  2  2  0
  3  4  1  0
  5  3  1  0
  5  7  1  0
  6  1  1  0
  6  4  1  0
  6 59  1  0
  7  1  1  0
  7 11  1  0
  7  8  1  6
  9 10  2  0
 10  2  1  0
 11 14  1  0
 12 16  1  0
 13 15  1  0
 13 14  2  0
 14 17  1  0
 15 12  2  0
 16 19  1  0
 17 16  2  0
 17 20  1  0
 18 13  1  0
 21 29  1  0
 22 27  1  0
 23 24  1  0
 23 22  1  0
 25 24  1  0
 25 34  1  0
 25 26  1  0
 27 21  1  0
 27 26  1  0
 28 21  2  0
 29 30  1  0
 29 15  1  0
 31 32  2  0
 32 51  1  0
 33 32  1  0
 33 36  1  0
 34 35  1  0
 34 31  1  0
 35 33  2  0
 36 37  1  0
 37 38  2  0
 39 42  1  0
 39 38  1  0
 40 39  2  0
 41 40  1  0
 41 36  2  0
 42 43  1  0
 43 48  2  0
 43 44  1  0
 44 45  2  0
 45 46  1  0
 46 50  1  0
 47 46  2  0
 48 47  1  0
 49 48  1  0
 51 52  1  0
 52 55  1  0
 52 54  1  0
 53 51  2  0
 56 31  1  0
 56 57  1  0
 58 56  1  0
 60 62  1  0
 60 59  1  0
 61 72  2  0
 62 67  1  0
 63 71  1  0
 63 73  1  0
 64 70  1  0
 64 66  1  0
 65 71  1  0
 66 65  1  0
 67 66  2  0
 68 69  1  0
 68 62  2  0
 69 64  2  0
 70 63  1  0
 71 61  1  0
 73 75  2  0
 74 73  1  0
 76 74  1  0
 77 86  2  0
 77 82  1  0
 78 74  1  0
 78 82  1  0
 79 78  1  0
 80 81  1  0
 80 79  1  0
 81 77  1  0
 82 83  2  0
 83 84  1  0
 85 84  2  0
 86 85  1  0
 87 61  1  0
 87 92  1  0
 87 88  1  0
 88 91  1  1
 88 89  1  0
 90 88  1  0
 92 95  1  0
 93 97  1  0
 93 92  1  0
 94 93  2  0
 97 96  1  0
 99100  1  0
 99 97  1  0
 99 98  1  0
M  ISO  4  21 100  29 100  59 101  60 101
M  END
>  <TORSDO>  (92) 
F 20

>  <SCORE>  (92) 
-13.650

>  <name>  (92) 
91

>  <ligand_id>  (92) 
91

>  <original_smiles>  (92) 
[H]C([H])=C([H])C([H])=C1C([H])(C([H])([H])Oc2c([H])c([H])c3c(c2[H])C([H])([H])N(C(=O)C([H])(N([H])C(=O)C([H])(N([H])C([H])([H])[H])C([H])([H])[H])C(C([H])([H])[H])(C([H])([H])[H])C([H])([H])[H])C([H])(C(=O)N([H])C2([H])c4c([H])c([H])c([H])c([H])c4C([H])([H])C([H])([H])C2([H])[H])C3([H])[H])C([H])([H])C([H])([H])C([H])([H])[N+]1([H])C([H])([H])c1c(Cl)c(Cl)c([H])c(N([H])C(=O)N2C([H])([H])C([H])([H])C([H])([H])C([H])(n3nc(-c4c([H])c([H])c(Oc5c([H])c([H])c(F)c([H])c5F)c([H])c4[H])c(C(=O)N([H])[H])c3N([H])[H])C2([H])[H])c1C([H])([H])[H]

>  <smiles>  (92) 
[H]C([H])=C([H])C([H])=C1C([H])(C([H])([H])Oc2c([H])c([H])c3c(c2[H])C([H])([H])N(C(=O)C([H])(N([H])C(=O)C([H])(N([H])C([H])([H])[H])C([H])([H])[H])C(C([H])([H])[H])(C([H])([H])[H])C([H])([H])[H])C([H])(C(=O)N([H])C2([H])c4c([H])c([H])c([H])c([H])c4C([H])([H])C([H])([H])C2([H])[H])C3([H])[H])C([H])([H])C([H])([H])C([H])([H])[N+]1([H])C([H])([H])c1c(Cl)c(Cl)c([H])c(N([H])C(=O)N2C([H])([H])C([H])([H])C([H])([H])C([H])(n3nc(-c4c([H])c([H])c(Oc5c([H])c([H])c(F)c([H])c5F)c([H])c4[H])c(C(=O)N([H])[H])c3N([H])[H])C2([H])[H])c1C([H])([H])[H]

$$$$
92:0:0
     RDKit          3D

 98107  0  0  1  0  0  0  0  0999 V2000
  -30.7500  -22.3210   20.9100 C   0  0  0  0  0  2  0  0  0  0  0  0
  -30.9930  -19.9770   19.9810 C   0  0  0  0  0  3  0  0  0  0  0  0
  -31.2330  -18.5890   20.0870 C   0  0  0  0  0  0  0  0  0  0  0  0
  -30.8360  -20.7910   21.1200 C   0  0  0  0  0  0  0  0  0  0  0  0
  -30.8810  -20.1700   22.4000 C   0  0  0  0  0  0  0  0  0  0  0  0
  -30.9820  -18.7510   22.5080 C   0  0  0  0  0  0  0  0  0  0  0  0
  -31.2210  -17.9490   21.3550 C   0  0  0  0  0  0  0  0  0  0  0  0
  -31.5700  -17.8350   18.8100 C   0  0  0  0  0  1  0  0  0  0  0  0
  -30.9190  -21.0090   23.6770 C   0  0  0  0  0  1  0  0  0  0  0  0
  -30.9030  -18.1010   23.8860 C   0  0  0  0  0  1  0  0  0  0  0  0
  -31.6460  -16.4640   21.4980 C   0  0  0  0  0  2  0  0  0  0  0  0
  -31.1680  -14.4530   20.1010 C   0  0  0  0  0  0  0  0  0  0  0  0
  -30.6480  -12.3340   18.9420 C   0  0  0  0  0  2  0  0  0  0  0  0
  -29.6710  -12.5480   17.7720 C   0  0  0  0  0  2  0  0  0  0  0  0
  -28.2150  -12.4780   18.2650 C   0  0  0  0  0  2  0  0  0  0  0  0
  -27.9640  -13.3570   19.5190 C   0  0  0  0  0  3  0  0  0  0  0  0
  -29.0550  -13.1390   20.5920 C   0  0  0  0  0  2  0  0  0  0  0  0
  -30.3680  -13.3570   19.9640 N   0  0  0  0  0  0  0  0  0  0  0  0
  -32.2260  -14.5680   19.4800 O   0  0  0  0  0  0  0  0  0  0  0  0
  -30.7610  -15.4150   20.9510 N   0  0  0  0  0  0  0  0  0  0  0  0
  -29.8680  -15.2820   21.4020 H   0  0  0  0  0  0  0  0  0  0  0  0
  -25.6490  -14.0770   20.3790 C   0  0  0  0  0  0  0  0  0  0  0  0
  -24.5550  -13.3570   20.7790 C   0  0  0  0  0  0  0  0  0  0  0  0
  -24.9280  -11.9820   20.6760 C   0  0  0  0  0  0  0  0  0  0  0  0
  -26.6230  -13.1420   20.0610 N   0  0  0  0  0  0  0  0  0  0  0  0
  -26.1950  -11.8760   20.2970 N   0  0  0  0  0  0  0  0  0  0  0  0
  -24.1320  -10.7610   20.8580 C   0  0  0  0  0  0  0  0  0  0  0  0
  -24.5270   -9.7520   21.7650 C   0  0  0  0  0  3  0  0  0  0  0  0
  -23.7370   -8.5950   21.9380 C   0  0  0  0  0  3  0  0  0  0  0  0
  -22.5350   -8.4410   21.2070 C   0  0  0  0  0  0  0  0  0  0  0  0
  -22.1580   -9.4380   20.2900 C   0  0  0  0  0  3  0  0  0  0  0  0
  -22.9470  -10.5850   20.1140 C   0  0  0  0  0  3  0  0  0  0  0  0
  -21.7180   -7.3390   21.2910 O   0  0  0  0  0  0  0  0  0  0  0  0
  -21.6150   -6.6050   22.4460 C   0  0  0  0  0  0  0  0  0  0  0  0
  -21.2100   -7.1900   23.6670 C   0  0  0  0  0  3  0  0  0  0  0  0
  -21.0510   -6.3850   24.8140 C   0  0  0  0  0  3  0  0  0  0  0  0
  -21.2860   -4.9990   24.7400 C   0  0  0  0  0  0  0  0  0  0  0  0
  -21.6830   -4.4150   23.5240 C   0  0  0  0  0  3  0  0  0  0  0  0
  -21.8440   -5.2160   22.3800 C   0  0  0  0  0  0  0  0  0  0  0  0
  -22.2060   -4.6460   21.2040 F   0  0  0  0  0  0  0  0  0  0  0  0
  -21.1250   -4.2240   25.8380 F   0  0  0  0  0  0  0  0  0  0  0  0
  -23.2070  -13.9100   21.1430 C   0  0  0  0  0  0  0  0  0  0  0  0
  -22.4800  -13.2270   22.0220 N   0  0  0  0  0  0  0  0  0  0  0  0
  -22.8100  -14.9790   20.6830 O   0  0  0  0  0  0  0  0  0  0  0  0
  -22.8170  -12.3630   22.4210 H   0  0  0  0  0  0  0  0  0  0  0  0
  -21.5740  -13.5750   22.3010 H   0  0  0  0  0  0  0  0  0  0  0  0
  -25.8920  -15.4400   20.2390 N   0  0  0  0  0  0  0  0  0  0  0  0
  -25.1720  -16.1360   20.4010 H   0  0  0  0  0  0  0  0  0  0  0  0
  -26.7520  -15.8340   19.8790 H   0  0  0  0  0  0  0  0  0  0  0  0
  -29.3520  -24.4510   21.1510 C   0  0  0  0  0  0  0  0  0  0  0  0
  -30.1100  -25.0940   22.0630 C   0  0  0  0  0  2  0  0  0  0  0  0
  -28.4140  -23.1160   18.6370 C   0  0  0  0  0  2  0  0  0  0  0  0
  -28.5520  -24.6470   18.7630 C   0  0  0  0  0  2  0  0  0  0  0  0
  -28.4370  -22.3610   19.9900 C   0  0  0  0  0  2  0  0  0  0  0  0
  -28.3520  -25.1370   20.2050 C   0  0  0  0  0  3  0  0  0  0  0  0
  -29.3860  -22.9280   20.9910 N   0  0  1  0  0  4  0  0  0  0  0  0
  -29.0250  -22.5530   21.8560 H   0  0  0  0  0  0  0  0  0  0  0  0
  -28.4360  -26.5860   20.2370 O   0  0  0  0  0  0  0  0  0  0  0  0
  -24.5580  -31.7960   23.1650 C   0  0  0  0  0  0  0  0  0  0  0  0
  -27.2570  -27.3190   20.1680 C   0  0  0  0  0  0  0  0  0  0  0  0
  -23.3740  -30.3550   21.5490 C   0  0  0  0  0  3  0  0  0  0  0  0
  -24.8470  -28.8170   20.1500 C   0  0  0  0  0  0  0  0  0  0  0  0
  -25.8970  -30.7430   21.3400 C   0  0  0  0  0  2  0  0  0  0  0  0
  -26.0010  -29.3590   20.7270 C   0  0  0  0  0  0  0  0  0  0  0  0
  -27.2100  -28.6220   20.7300 C   0  0  0  0  0  3  0  0  0  0  0  0
  -26.0820  -26.8100   19.5640 C   0  0  0  0  0  3  0  0  0  0  0  0
  -24.8820  -27.5440   19.5650 C   0  0  0  0  0  3  0  0  0  0  0  0
  -23.5900  -29.6590   20.1800 C   0  0  0  0  0  2  0  0  0  0  0  0
  -24.6280  -30.9850   22.0720 N   0  0  0  0  0  0  0  0  0  0  0  0
  -23.4740  -32.0530   23.7060 O   0  0  0  0  0  0  0  0  0  0  0  0
  -22.7450  -29.3350   22.5270 C   0  0  0  0  0  0  0  0  0  0  0  0
  -21.4320  -29.0940   22.3820 N   0  0  0  0  0  0  0  0  0  0  0  0
  -23.4360  -28.7620   23.3730 O   0  0  0  0  0  0  0  0  0  0  0  0
  -20.9300  -29.6090   21.6730 H   0  0  0  0  0  0  0  0  0  0  0  0
  -18.1100  -27.7450   22.8190 C   0  0  0  0  0  0  0  0  0  0  0  0
  -20.6390  -28.1480   23.1670 C   0  0  0  0  0  3  0  0  0  0  0  0
  -20.8360  -26.6980   22.6590 C   0  0  0  0  0  2  0  0  0  0  0  0
  -19.7900  -26.2750   21.6220 C   0  0  0  0  0  2  0  0  0  0  0  0
  -18.3820  -26.3800   22.2090 C   0  0  0  0  0  2  0  0  0  0  0  0
  -19.1710  -28.5830   23.2550 C   0  0  0  0  0  0  0  0  0  0  0  0
  -18.8640  -29.8590   23.7750 C   0  0  0  0  0  3  0  0  0  0  0  0
  -17.5280  -30.2940   23.8740 C   0  0  0  0  0  3  0  0  0  0  0  0
  -16.4830  -29.4540   23.4540 C   0  0  0  0  0  3  0  0  0  0  0  0
  -16.7740  -28.1830   22.9290 C   0  0  0  0  0  3  0  0  0  0  0  0
  -25.8320  -32.4620   23.7740 C   0  0  0  0  0  3  0  0  0  0  0  0
  -26.3920  -31.7000   25.0380 C   0  0  1  0  0  0  0  0  0  0  0  0
  -25.3210  -31.4150   26.1160 C   0  0  0  0  0  1  0  0  0  0  0  0
  -27.0200  -30.3500   24.6230 C   0  0  0  0  0  1  0  0  0  0  0  0
  -27.5230  -32.5280   25.6930 C   0  0  0  0  0  1  0  0  0  0  0  0
  -25.4850  -33.8480   24.1190 N   0  0  0  0  0  0  0  0  0  0  0  0
  -25.8020  -34.9190   23.3780 C   0  0  0  0  0  0  0  0  0  0  0  0
  -26.4870  -34.8450   22.3550 O   0  0  0  0  0  0  0  0  0  0  0  0
  -24.8870  -33.9770   24.9230 H   0  0  0  0  0  0  0  0  0  0  0  0
  -24.0400  -36.6790   23.0170 C   0  0  0  0  0  1  0  0  0  0  0  0
  -25.2740  -36.2890   23.8480 C   0  0  0  0  0  3  0  0  0  0  0  0
  -27.3740  -37.2070   24.7360 C   0  0  0  0  0  1  0  0  0  0  0  0
  -26.2830  -37.3680   23.7750 N   0  0  0  0  0  0  0  0  0  0  0  0
  -25.8520  -38.2730   23.9350 H   0  0  0  0  0  0  0  0  0  0  0  0
  1 56  1  0
  1  4  1  0
  2  3  2  0
  2  4  1  0
  3  7  1  0
  4  5  2  0
  5  6  1  0
  5  9  1  0
  6 10  1  0
  7 11  1  0
  7  6  2  0
  8  3  1  0
 12 20  1  0
 13 18  1  0
 14 15  1  0
 14 13  1  0
 16 15  1  0
 16 25  1  0
 16 17  1  0
 18 12  1  0
 18 17  1  0
 19 12  2  0
 20 21  1  0
 20 11  1  0
 22 23  2  0
 23 42  1  0
 24 23  1  0
 24 27  1  0
 25 26  1  0
 25 22  1  0
 26 24  2  0
 27 28  1  0
 28 29  2  0
 30 33  1  0
 30 29  1  0
 31 30  2  0
 32 31  1  0
 32 27  2  0
 33 34  1  0
 34 35  1  0
 35 36  2  0
 37 36  1  0
 37 41  1  0
 38 37  2  0
 39 34  2  0
 39 38  1  0
 40 39  1  0
 42 43  1  0
 43 46  1  0
 43 45  1  0
 44 42  2  0
 47 22  1  0
 47 48  1  0
 49 47  1  0
 50 51  2  0
 52 53  1  0
 52 54  1  0
 53 55  1  0
 54 56  1  0
 55 58  1  0
 55 50  1  0
 56 50  1  0
 56 57  1  1
 59 70  2  0
 60 58  1  0
 60 65  1  0
 61 69  1  0
 61 71  1  0
 62 68  1  0
 62 64  1  0
 63 69  1  0
 64 65  2  0
 64 63  1  0
 66 67  1  0
 66 60  2  0
 67 62  2  0
 68 61  1  0
 69 59  1  0
 71 73  2  0
 72 71  1  0
 74 72  1  0
 75 84  2  0
 75 80  1  0
 76 72  1  0
 76 80  1  0
 77 76  1  0
 78 79  1  0
 78 77  1  0
 79 75  1  0
 80 81  2  0
 81 82  1  0
 83 82  2  0
 84 83  1  0
 85 59  1  0
 85 90  1  0
 85 86  1  0
 86 89  1  1
 86 87  1  0
 88 86  1  0
 90 93  1  0
 91 95  1  0
 91 90  1  0
 92 91  2  0
 95 94  1  0
 97 95  1  0
 97 98  1  0
 97 96  1  0
M  ISO  4  12 100  20 100  55 101  58 101
M  END
>  <TORSDO>  (93) 
F 19

>  <SCORE>  (93) 
-13.449

>  <name>  (93) 
92

>  <ligand_id>  (93) 
92

>  <original_smiles>  (93) 
[H]C([H])=C1C([H])(Oc2c([H])c([H])c3c(c2[H])C([H])([H])N(C(=O)C([H])(N([H])C(=O)C([H])(N([H])C([H])([H])[H])C([H])([H])[H])C(C([H])([H])[H])(C([H])([H])[H])C([H])([H])[H])C([H])(C(=O)N([H])C2([H])c4c([H])c([H])c([H])c([H])c4C([H])([H])C([H])([H])C2([H])[H])C3([H])[H])C([H])([H])C([H])([H])C([H])([H])[N+]1([H])C([H])([H])c1c([H])c(C([H])([H])[H])c(C([H])([H])N([H])C(=O)N2C([H])([H])C([H])([H])C([H])([H])C([H])(n3nc(-c4c([H])c([H])c(Oc5c([H])c([H])c(F)c([H])c5F)c([H])c4[H])c(C(=O)N([H])[H])c3N([H])[H])C2([H])[H])c(C([H])([H])[H])c1C([H])([H])[H]

>  <smiles>  (93) 
[H]C([H])=C1C([H])(Oc2c([H])c([H])c3c(c2[H])C([H])([H])N(C(=O)C([H])(N([H])C(=O)C([H])(N([H])C([H])([H])[H])C([H])([H])[H])C(C([H])([H])[H])(C([H])([H])[H])C([H])([H])[H])C([H])(C(=O)N([H])C2([H])c4c([H])c([H])c([H])c([H])c4C([H])([H])C([H])([H])C2([H])[H])C3([H])[H])C([H])([H])C([H])([H])C([H])([H])[N+]1([H])C([H])([H])c1c([H])c(C([H])([H])[H])c(C([H])([H])N([H])C(=O)N2C([H])([H])C([H])([H])C([H])([H])C([H])(n3nc(-c4c([H])c([H])c(Oc5c([H])c([H])c(F)c([H])c5F)c([H])c4[H])c(C(=O)N([H])[H])c3N([H])[H])C2([H])[H])c(C([H])([H])[H])c1C([H])([H])[H]

$$$$
93:0:0
     RDKit          3D

 99108  0  0  1  0  0  0  0  0999 V2000
  -30.6290  -23.5560   19.0640 C   0  0  0  0  0  3  0  0  0  0  0  0
  -31.7970  -24.2430   19.0610 C   0  0  0  0  0  2  0  0  0  0  0  0
  -29.5760  -23.8160   18.0100 C   0  0  0  0  0  2  0  0  0  0  0  0
  -28.7810  -25.0830   18.4310 C   0  0  0  0  0  2  0  0  0  0  0  0
  -29.2800  -24.2540   20.8930 C   0  0  0  0  0  2  0  0  0  0  0  0
  -28.3590  -25.1430   19.9330 C   0  0  0  0  0  3  0  0  0  0  0  0
  -29.8910  -23.0200   20.2380 N   0  0  2  0  0  4  0  0  0  0  0  0
  -29.1030  -22.5080   19.8720 H   0  0  0  0  0  0  0  0  0  0  0  0
  -33.6410  -25.5080   19.9860 C   0  0  0  0  0  2  0  0  0  0  0  0
  -32.7110  -24.5530   20.1480 C   0  0  0  0  0  3  0  0  0  0  0  0
  -28.3410  -26.5790   20.2920 O   0  0  0  0  0  0  0  0  0  0  0  0
  -24.5650  -31.9100   23.2320 C   0  0  0  0  0  0  0  0  0  0  0  0
  -27.1950  -27.3770   20.1880 C   0  0  0  0  0  0  0  0  0  0  0  0
  -23.3640  -30.5130   21.5850 C   0  0  0  0  0  3  0  0  0  0  0  0
  -24.8210  -28.9690   20.1590 C   0  0  0  0  0  0  0  0  0  0  0  0
  -25.9010  -30.8380   21.4100 C   0  0  0  0  0  2  0  0  0  0  0  0
  -25.9810  -29.4640   20.7620 C   0  0  0  0  0  0  0  0  0  0  0  0
  -27.1680  -28.6790   20.7690 C   0  0  0  0  0  3  0  0  0  0  0  0
  -26.0150  -26.9340   19.5410 C   0  0  0  0  0  3  0  0  0  0  0  0
  -24.8390  -27.7090   19.5380 C   0  0  0  0  0  3  0  0  0  0  0  0
  -23.5780  -29.8340   20.2050 C   0  0  0  0  0  2  0  0  0  0  0  0
  -24.6270  -31.1050   22.1310 N   0  0  0  0  0  0  0  0  0  0  0  0
  -23.4810  -32.1870   23.7640 O   0  0  0  0  0  0  0  0  0  0  0  0
  -22.7040  -29.4950   22.5410 C   0  0  0  0  0  0  0  0  0  0  0  0
  -21.3850  -29.2880   22.3850 N   0  0  0  0  0  0  0  0  0  0  0  0
  -23.3760  -28.8950   23.3860 O   0  0  0  0  0  0  0  0  0  0  0  0
  -20.9050  -29.8210   21.6730 H   0  0  0  0  0  0  0  0  0  0  0  0
  -18.0250  -28.0230   22.7930 C   0  0  0  0  0  0  0  0  0  0  0  0
  -20.5650  -28.3490   23.1480 C   0  0  0  0  0  3  0  0  0  0  0  0
  -20.7220  -26.9100   22.6060 C   0  0  0  0  0  2  0  0  0  0  0  0
  -19.6650  -26.5410   21.5610 C   0  0  0  0  0  2  0  0  0  0  0  0
  -18.2580  -26.6650   22.1530 C   0  0  0  0  0  2  0  0  0  0  0  0
  -19.1110  -28.8200   23.2460 C   0  0  0  0  0  0  0  0  0  0  0  0
  -18.8410  -30.0900   23.8000 C   0  0  0  0  0  3  0  0  0  0  0  0
  -17.5190  -30.5630   23.9110 C   0  0  0  0  0  3  0  0  0  0  0  0
  -16.4480  -29.7610   23.4770 C   0  0  0  0  0  3  0  0  0  0  0  0
  -16.7020  -28.4940   22.9230 C   0  0  0  0  0  3  0  0  0  0  0  0
  -25.8480  -32.5390   23.8580 C   0  0  0  0  0  3  0  0  0  0  0  0
  -26.3710  -31.7540   25.1230 C   0  0  1  0  0  0  0  0  0  0  0  0
  -25.2800  -31.4850   26.1880 C   0  0  0  0  0  1  0  0  0  0  0  0
  -26.9690  -30.3880   24.7100 C   0  0  0  0  0  1  0  0  0  0  0  0
  -27.5100  -32.5520   25.8000 C   0  0  0  0  0  1  0  0  0  0  0  0
  -25.5310  -33.9310   24.2050 N   0  0  0  0  0  0  0  0  0  0  0  0
  -25.8300  -34.9930   23.4440 C   0  0  0  0  0  0  0  0  0  0  0  0
  -26.4670  -34.9040   22.3920 O   0  0  0  0  0  0  0  0  0  0  0  0
  -24.9470  -34.0710   25.0160 H   0  0  0  0  0  0  0  0  0  0  0  0
  -24.0540  -36.7560   23.1790 C   0  0  0  0  0  1  0  0  0  0  0  0
  -25.3400  -36.3730   23.9280 C   0  0  0  0  0  3  0  0  0  0  0  0
  -27.4900  -37.3000   24.6660 C   0  0  0  0  0  1  0  0  0  0  0  0
  -26.3480  -37.4430   23.7680 N   0  0  0  0  0  0  0  0  0  0  0  0
  -25.9300  -38.3560   23.9290 H   0  0  0  0  0  0  0  0  0  0  0  0
  -30.5680  -21.9780   21.1380 C   0  0  0  0  0  2  0  0  0  0  0  0
  -30.2780  -19.7530   19.6550 C   0  0  0  0  0  3  0  0  0  0  0  0
  -30.5720  -20.3940   20.8920 C   0  0  0  0  0  0  0  0  0  0  0  0
  -30.9210  -19.4900   21.9550 C   0  0  0  0  0  0  0  0  0  0  0  0
  -30.8250  -18.0560   21.8200 C   0  0  0  0  0  0  0  0  0  0  0  0
  -30.4330  -17.4260   20.5950 C   0  0  0  0  0  0  0  0  0  0  0  0
  -30.2120  -18.3280   19.5060 C   0  0  0  0  0  0  0  0  0  0  0  0
  -31.4430  -20.0500   23.2840 C   0  0  0  0  0  1  0  0  0  0  0  0
  -31.1180  -17.1580   23.0210 C   0  0  0  0  0  1  0  0  0  0  0  0
  -29.8000  -17.7140   17.9440 Cl  0  0  0  0  0  0  0  0  0  0  0  0
  -30.7700  -14.8380   20.1920 C   0  0  0  0  0  0  0  0  0  0  0  0
  -30.4610  -12.5530   19.2030 C   0  0  0  0  0  2  0  0  0  0  0  0
  -29.5160  -12.6500   17.9860 C   0  0  0  0  0  2  0  0  0  0  0  0
  -28.0420  -12.5090   18.4170 C   0  0  0  0  0  2  0  0  0  0  0  0
  -27.6960  -13.3780   19.6560 C   0  0  0  0  0  3  0  0  0  0  0  0
  -28.7830  -13.3320   20.7570 C   0  0  0  0  0  2  0  0  0  0  0  0
  -30.0840  -13.6340   20.1420 N   0  0  0  0  0  0  0  0  0  0  0  0
  -31.9280  -14.9030   19.7880 O   0  0  0  0  0  0  0  0  0  0  0  0
  -30.0720  -15.9810   20.5470 N   0  0  0  0  0  0  0  0  0  0  0  0
  -29.1130  -15.8010   20.7990 H   0  0  0  0  0  0  0  0  0  0  0  0
  -25.3250  -13.9670   20.4410 C   0  0  0  0  0  0  0  0  0  0  0  0
  -24.2600  -13.1990   20.8290 C   0  0  0  0  0  0  0  0  0  0  0  0
  -24.7080  -11.8430   20.7660 C   0  0  0  0  0  0  0  0  0  0  0  0
  -26.3580  -13.0830   20.1740 N   0  0  0  0  0  0  0  0  0  0  0  0
  -25.9930  -11.7980   20.4280 N   0  0  0  0  0  0  0  0  0  0  0  0
  -23.9670  -10.5870   20.9600 C   0  0  0  0  0  0  0  0  0  0  0  0
  -24.3880   -9.6210   21.9010 C   0  0  0  0  0  3  0  0  0  0  0  0
  -23.6490   -8.4310   22.0860 C   0  0  0  0  0  3  0  0  0  0  0  0
  -22.4710   -8.2020   21.3330 C   0  0  0  0  0  0  0  0  0  0  0  0
  -22.0700   -9.1580   20.3830 C   0  0  0  0  0  3  0  0  0  0  0  0
  -22.8090  -10.3380   20.1940 C   0  0  0  0  0  3  0  0  0  0  0  0
  -21.7010   -7.0700   21.4270 O   0  0  0  0  0  0  0  0  0  0  0  0
  -21.6150   -6.3500   22.5930 C   0  0  0  0  0  0  0  0  0  0  0  0
  -21.1240   -6.9230   23.7880 C   0  0  0  0  0  3  0  0  0  0  0  0
  -20.9890   -6.1300   24.9450 C   0  0  0  0  0  3  0  0  0  0  0  0
  -21.3330   -4.7660   24.9100 C   0  0  0  0  0  0  0  0  0  0  0  0
  -21.8160   -4.1920   23.7190 C   0  0  0  0  0  3  0  0  0  0  0  0
  -21.9540   -4.9820   22.5660 C   0  0  0  0  0  0  0  0  0  0  0  0
  -22.3990   -4.4190   21.4160 F   0  0  0  0  0  0  0  0  0  0  0  0
  -21.1970   -4.0030   26.0190 F   0  0  0  0  0  0  0  0  0  0  0  0
  -22.8740  -13.6850   21.1440 C   0  0  0  0  0  0  0  0  0  0  0  0
  -22.1600  -12.9920   22.0210 N   0  0  0  0  0  0  0  0  0  0  0  0
  -22.4330  -14.7180   20.6390 O   0  0  0  0  0  0  0  0  0  0  0  0
  -22.5290  -12.1570   22.4550 H   0  0  0  0  0  0  0  0  0  0  0  0
  -21.2250  -13.2910   22.2610 H   0  0  0  0  0  0  0  0  0  0  0  0
  -25.4980  -15.3390   20.2770 N   0  0  0  0  0  0  0  0  0  0  0  0
  -24.7400  -15.9980   20.4040 H   0  0  0  0  0  0  0  0  0  0  0  0
  -26.3480  -15.7800   19.9510 H   0  0  0  0  0  0  0  0  0  0  0  0
  1  2  1  0
  1  7  1  0
  2 10  1  0
  3  4  1  0
  3  1  1  0
  4  6  1  0
  6 11  1  0
  6  5  1  0
  7  5  1  0
  7 52  1  0
  7  8  1  6
  9 10  2  0
 12 23  2  0
 13 11  1  0
 13 18  1  0
 14 22  1  0
 14 24  1  0
 15 21  1  0
 15 17  1  0
 16 22  1  0
 17 18  2  0
 17 16  1  0
 19 13  2  0
 20 19  1  0
 20 15  2  0
 21 14  1  0
 22 12  1  0
 24 26  2  0
 25 24  1  0
 27 25  1  0
 28 37  2  0
 28 33  1  0
 29 25  1  0
 29 33  1  0
 30 29  1  0
 31 32  1  0
 31 30  1  0
 32 28  1  0
 33 34  2  0
 34 35  1  0
 36 35  2  0
 37 36  1  0
 38 12  1  0
 38 43  1  0
 38 39  1  0
 39 42  1  1
 39 40  1  0
 41 39  1  0
 43 46  1  0
 44 48  1  0
 44 43  1  0
 45 44  2  0
 48 47  1  0
 50 48  1  0
 50 51  1  0
 50 49  1  0
 53 54  1  0
 54 52  1  0
 54 55  2  0
 55 59  1  0
 56 55  1  0
 56 60  1  0
 57 56  2  0
 58 53  2  0
 58 57  1  0
 61 58  1  0
 62 70  1  0
 63 68  1  0
 64 65  1  0
 64 63  1  0
 66 65  1  0
 66 75  1  0
 66 67  1  0
 68 62  1  0
 68 67  1  0
 69 62  2  0
 70 57  1  0
 70 71  1  0
 72 73  2  0
 73 92  1  0
 74 73  1  0
 74 77  1  0
 75 76  1  0
 75 72  1  0
 76 74  2  0
 77 78  1  0
 78 79  2  0
 80 83  1  0
 80 79  1  0
 81 80  2  0
 82 81  1  0
 82 77  2  0
 83 84  1  0
 84 85  1  0
 85 86  2  0
 87 86  1  0
 87 91  1  0
 88 87  2  0
 89 84  2  0
 89 88  1  0
 90 89  1  0
 92 93  1  0
 93 96  1  0
 93 95  1  0
 94 92  2  0
 97 98  1  0
 97 72  1  0
 99 97  1  0
M  ISO  4   6 101  11 101  62 100  70 100
M  END
>  <TORSDO>  (94) 
F 19

>  <SCORE>  (94) 
-14.082

>  <name>  (94) 
93

>  <ligand_id>  (94) 
93

>  <original_smiles>  (94) 
[H]C([H])=C([H])C([H])=C1C([H])([H])C([H])([H])C([H])(Oc2c([H])c([H])c3c(c2[H])C([H])([H])N(C(=O)C([H])(N([H])C(=O)C([H])(N([H])C([H])([H])[H])C([H])([H])[H])C(C([H])([H])[H])(C([H])([H])[H])C([H])([H])[H])C([H])(C(=O)N([H])C2([H])c4c([H])c([H])c([H])c([H])c4C([H])([H])C([H])([H])C2([H])[H])C3([H])[H])C([H])([H])[N+]1([H])C([H])([H])c1c([H])c(Cl)c(N([H])C(=O)N2C([H])([H])C([H])([H])C([H])([H])C([H])(n3nc(-c4c([H])c([H])c(Oc5c([H])c([H])c(F)c([H])c5F)c([H])c4[H])c(C(=O)N([H])[H])c3N([H])[H])C2([H])[H])c(C([H])([H])[H])c1C([H])([H])[H]

>  <smiles>  (94) 
[H]C([H])=C([H])C([H])=C1C([H])([H])C([H])([H])C([H])(Oc2c([H])c([H])c3c(c2[H])C([H])([H])N(C(=O)C([H])(N([H])C(=O)C([H])(N([H])C([H])([H])[H])C([H])([H])[H])C(C([H])([H])[H])(C([H])([H])[H])C([H])([H])[H])C([H])(C(=O)N([H])C2([H])c4c([H])c([H])c([H])c([H])c4C([H])([H])C([H])([H])C2([H])[H])C3([H])[H])C([H])([H])[N+]1([H])C([H])([H])c1c([H])c(Cl)c(N([H])C(=O)N2C([H])([H])C([H])([H])C([H])([H])C([H])(n3nc(-c4c([H])c([H])c(Oc5c([H])c([H])c(F)c([H])c5F)c([H])c4[H])c(C(=O)N([H])[H])c3N([H])[H])C2([H])[H])c(C([H])([H])[H])c1C([H])([H])[H]

$$$$
94:0:0
     RDKit          3D

 95104  0  0  1  0  0  0  0  0999 V2000
  -28.7070  -23.9790   19.5670 C   0  0  0  0  0  0  0  0  0  0  0  0
  -29.5070  -23.6880   22.3380 C   0  0  0  0  0  2  0  0  0  0  0  0
  -29.6750  -25.0460   21.6510 C   0  0  0  0  0  2  0  0  0  0  0  0
  -29.6630  -22.5180   21.3440 C   0  0  0  0  0  2  0  0  0  0  0  0
  -28.5870  -25.1900   20.5800 C   0  0  0  0  0  3  0  0  0  0  0  0
  -29.0360  -22.7050   20.0210 N   0  0  0  0  0  0  0  0  0  0  0  0
  -28.4450  -24.1940   18.3770 O   0  0  0  0  0  0  0  0  0  0  0  0
  -28.6620  -26.5500   20.0130 O   0  0  0  0  0  0  0  0  0  0  0  0
  -24.5850  -31.6580   23.0620 C   0  0  0  0  0  0  0  0  0  0  0  0
  -27.4910  -27.3070   20.0130 C   0  0  0  0  0  0  0  0  0  0  0  0
  -23.4830  -30.2240   21.3810 C   0  0  0  0  0  3  0  0  0  0  0  0
  -25.0370  -28.7550   19.9810 C   0  0  0  0  0  0  0  0  0  0  0  0
  -26.0060  -30.6770   21.2510 C   0  0  0  0  0  2  0  0  0  0  0  0
  -26.1670  -29.3140   20.5980 C   0  0  0  0  0  0  0  0  0  0  0  0
  -27.3970  -28.6010   20.6020 C   0  0  0  0  0  3  0  0  0  0  0  0
  -26.3430  -26.7830   19.3860 C   0  0  0  0  0  3  0  0  0  0  0  0
  -25.1250  -27.4910   19.3720 C   0  0  0  0  0  3  0  0  0  0  0  0
  -23.7590  -29.5610   20.0030 C   0  0  0  0  0  2  0  0  0  0  0  0
  -24.7080  -30.8710   21.9550 N   0  0  0  0  0  0  0  0  0  0  0  0
  -23.4810  -31.8740   23.5840 O   0  0  0  0  0  0  0  0  0  0  0  0
  -22.8490  -29.1710   22.3220 C   0  0  0  0  0  0  0  0  0  0  0  0
  -21.5240  -28.9750   22.2060 N   0  0  0  0  0  0  0  0  0  0  0  0
  -23.5480  -28.5320   23.1110 O   0  0  0  0  0  0  0  0  0  0  0  0
  -21.0170  -29.5380   21.5390 H   0  0  0  0  0  0  0  0  0  0  0  0
  -18.1690  -27.7270   22.7310 C   0  0  0  0  0  0  0  0  0  0  0  0
  -20.7310  -27.9980   22.9560 C   0  0  0  0  0  3  0  0  0  0  0  0
  -20.8340  -26.5900   22.3240 C   0  0  0  0  0  2  0  0  0  0  0  0
  -19.7130  -26.3010   21.3220 C   0  0  0  0  0  2  0  0  0  0  0  0
  -18.3430  -26.4090   21.9970 C   0  0  0  0  0  2  0  0  0  0  0  0
  -19.2920  -28.4810   23.1680 C   0  0  0  0  0  0  0  0  0  0  0  0
  -19.0730  -29.7190   23.8110 C   0  0  0  0  0  3  0  0  0  0  0  0
  -17.7670  -30.2010   24.0230 C   0  0  0  0  0  3  0  0  0  0  0  0
  -16.6610  -29.4440   23.6020 C   0  0  0  0  0  3  0  0  0  0  0  0
  -16.8640  -28.2080   22.9620 C   0  0  0  0  0  3  0  0  0  0  0  0
  -25.8240  -32.3440   23.7180 C   0  0  0  0  0  3  0  0  0  0  0  0
  -25.4320  -33.7100   24.0940 N   0  0  0  0  0  0  0  0  0  0  0  0
  -25.7080  -34.8080   23.3750 C   0  0  0  0  0  0  0  0  0  0  0  0
  -26.3890  -34.7790   22.3460 O   0  0  0  0  0  0  0  0  0  0  0  0
  -24.8320  -33.8030   24.9000 H   0  0  0  0  0  0  0  0  0  0  0  0
  -23.8890  -36.5110   23.0670 C   0  0  0  0  0  1  0  0  0  0  0  0
  -25.1420  -36.1490   23.8810 C   0  0  0  0  0  3  0  0  0  0  0  0
  -27.2110  -37.1180   24.7760 C   0  0  0  0  0  1  0  0  0  0  0  0
  -26.1150  -37.2600   23.8190 N   0  0  0  0  0  0  0  0  0  0  0  0
  -25.6570  -38.1490   23.9960 H   0  0  0  0  0  0  0  0  0  0  0  0
  -26.3720  -31.5630   24.9740 C   0  0  1  0  0  0  0  0  0  0  0  0
  -25.2860  -31.2280   26.0210 C   0  0  0  0  0  1  0  0  0  0  0  0
  -27.0390  -30.2370   24.5400 C   0  0  0  0  0  1  0  0  0  0  0  0
  -27.4690  -32.3990   25.6740 C   0  0  0  0  0  1  0  0  0  0  0  0
  -28.9100  -21.4780   19.1270 C   0  0  0  0  0  2  0  0  0  0  0  0
  -29.5110  -19.4500   20.7410 C   0  0  0  0  0  3  0  0  0  0  0  0
  -30.0210  -17.6910   18.6380 C   0  0  0  0  0  3  0  0  0  0  0  0
  -29.8290  -18.0820   20.9990 C   0  0  0  0  0  0  0  0  0  0  0  0
  -29.4530  -20.0080   19.4340 C   0  0  0  0  0  0  0  0  0  0  0  0
  -30.0780  -17.1450   19.9460 C   0  0  0  0  0  0  0  0  0  0  0  0
  -29.7190  -19.0670   18.3870 C   0  0  0  0  0  0  0  0  0  0  0  0
  -29.8640  -17.6600   22.4610 C   0  0  0  0  0  1  0  0  0  0  0  0
  -29.5880  -19.5320   16.7300 Cl  0  0  0  0  0  0  0  0  0  0  0  0
  -30.9590  -14.6950   19.6670 C   0  0  0  0  0  0  0  0  0  0  0  0
  -30.6940  -12.4350   18.6500 C   0  0  0  0  0  2  0  0  0  0  0  0
  -29.6340  -12.5370   17.5280 C   0  0  0  0  0  2  0  0  0  0  0  0
  -28.2020  -12.4070   18.0860 C   0  0  0  0  0  2  0  0  0  0  0  0
  -27.9710  -13.2630   19.3580 C   0  0  0  0  0  3  0  0  0  0  0  0
  -29.1250  -13.1020   20.3690 C   0  0  0  0  0  2  0  0  0  0  0  0
  -30.3740  -13.4530   19.6730 N   0  0  0  0  0  0  0  0  0  0  0  0
  -32.0490  -14.8860   19.1140 O   0  0  0  0  0  0  0  0  0  0  0  0
  -30.2170  -15.7090   20.2300 N   0  0  0  0  0  0  0  0  0  0  0  0
  -29.4890  -15.3530   20.8290 H   0  0  0  0  0  0  0  0  0  0  0  0
  -25.6920  -13.8830   20.3640 C   0  0  0  0  0  0  0  0  0  0  0  0
  -24.6490  -13.1220   20.8150 C   0  0  0  0  0  0  0  0  0  0  0  0
  -25.0570  -11.7620   20.6550 C   0  0  0  0  0  0  0  0  0  0  0  0
  -26.6740  -12.9890   19.9680 N   0  0  0  0  0  0  0  0  0  0  0  0
  -26.3010  -11.7040   20.1960 N   0  0  0  0  0  0  0  0  0  0  0  0
  -24.3140  -10.5120   20.8540 C   0  0  0  0  0  0  0  0  0  0  0  0
  -24.6900   -9.5750   21.8430 C   0  0  0  0  0  3  0  0  0  0  0  0
  -23.9460   -8.3890   22.0240 C   0  0  0  0  0  3  0  0  0  0  0  0
  -22.8100   -8.1340   21.2180 C   0  0  0  0  0  0  0  0  0  0  0  0
  -22.4550   -9.0590   20.2200 C   0  0  0  0  0  3  0  0  0  0  0  0
  -23.2000  -10.2340   20.0370 C   0  0  0  0  0  3  0  0  0  0  0  0
  -22.0400   -7.0000   21.3090 O   0  0  0  0  0  0  0  0  0  0  0  0
  -21.7690   -6.4090   22.5170 C   0  0  0  0  0  0  0  0  0  0  0  0
  -21.1110   -7.1030   23.5560 C   0  0  0  0  0  3  0  0  0  0  0  0
  -20.7910   -6.4360   24.7560 C   0  0  0  0  0  3  0  0  0  0  0  0
  -21.1150   -5.0750   24.9140 C   0  0  0  0  0  0  0  0  0  0  0  0
  -21.7640   -4.3800   23.8770 C   0  0  0  0  0  3  0  0  0  0  0  0
  -22.0870   -5.0460   22.6810 C   0  0  0  0  0  0  0  0  0  0  0  0
  -22.6940   -4.3660   21.6780 F   0  0  0  0  0  0  0  0  0  0  0  0
  -20.8020   -4.4310   26.0620 F   0  0  0  0  0  0  0  0  0  0  0  0
  -23.3100  -13.6200   21.2740 C   0  0  0  0  0  0  0  0  0  0  0  0
  -22.6820  -12.9220   22.2130 N   0  0  0  0  0  0  0  0  0  0  0  0
  -22.8350  -14.6680   20.8380 O   0  0  0  0  0  0  0  0  0  0  0  0
  -23.0810  -12.0750   22.5910 H   0  0  0  0  0  0  0  0  0  0  0  0
  -21.7870  -13.2390   22.5600 H   0  0  0  0  0  0  0  0  0  0  0  0
  -25.8790  -15.2560   20.2310 N   0  0  0  0  0  0  0  0  0  0  0  0
  -25.1110  -15.9030   20.3740 H   0  0  0  0  0  0  0  0  0  0  0  0
  -26.6620  -15.6780   19.7460 H   0  0  0  0  0  0  0  0  0  0  0  0
  1  6  1  0
  1  5  1  0
  3  2  1  0
  4  2  1  0
  5  8  1  0
  5  3  1  0
  6  4  1  0
  7  1  2  0
  8 10  1  0
  9 20  2  0
 10 15  1  0
 11 19  1  0
 11 21  1  0
 12 18  1  0
 12 14  1  0
 13 19  1  0
 14 15  2  0
 14 13  1  0
 16 10  2  0
 17 16  1  0
 17 12  2  0
 18 11  1  0
 19  9  1  0
 21 23  2  0
 22 21  1  0
 24 22  1  0
 25 34  2  0
 25 30  1  0
 26 22  1  0
 26 30  1  0
 27 26  1  0
 28 29  1  0
 28 27  1  0
 29 25  1  0
 30 31  2  0
 31 32  1  0
 33 32  2  0
 34 33  1  0
 35  9  1  0
 35 36  1  0
 35 45  1  0
 36 39  1  0
 37 41  1  0
 37 36  1  0
 38 37  2  0
 41 40  1  0
 43 41  1  0
 43 44  1  0
 43 42  1  0
 45 48  1  1
 45 46  1  0
 47 45  1  0
 49 53  1  0
 49  6  1  0
 50 52  1  0
 51 54  1  0
 52 56  1  0
 53 50  2  0
 54 66  1  0
 54 52  2  0
 55 51  2  0
 55 53  1  0
 57 55  1  0
 58 64  1  0
 58 66  1  0
 59 64  1  0
 60 61  1  0
 60 59  1  0
 62 61  1  0
 62 71  1  0
 62 63  1  0
 64 63  1  0
 65 58  2  0
 66 67  1  0
 68 69  2  0
 69 88  1  0
 70 69  1  0
 70 73  1  0
 71 72  1  0
 71 68  1  0
 72 70  2  0
 73 74  1  0
 74 75  2  0
 76 79  1  0
 76 75  1  0
 77 76  2  0
 78 77  1  0
 78 73  2  0
 79 80  1  0
 80 85  2  0
 80 81  1  0
 81 82  2  0
 82 83  1  0
 83 87  1  0
 84 83  2  0
 85 84  1  0
 86 85  1  0
 88 89  1  0
 89 92  1  0
 89 91  1  0
 90 88  2  0
 93 68  1  0
 93 94  1  0
 95 93  1  0
M  ISO  4   5 101   8 101  58 100  66 100
M  END
>  <TORSDO>  (95) 
F 18

>  <SCORE>  (95) 
-12.922

>  <name>  (95) 
94

>  <ligand_id>  (95) 
94

>  <original_smiles>  (95) 
[H]c1c([H])c([H])c2c(c1[H])C([H])([H])C([H])([H])C([H])([H])C2([H])N([H])C(=O)C1([H])N(C(=O)C([H])(N([H])C(=O)C([H])(N([H])C([H])([H])[H])C([H])([H])[H])C(C([H])([H])[H])(C([H])([H])[H])C([H])([H])[H])C([H])([H])c2c([H])c(OC3([H])C(=O)N(C([H])([H])c4c([H])c(C([H])([H])[H])c(N([H])C(=O)N5C([H])([H])C([H])([H])C([H])([H])C([H])(n6nc(-c7c([H])c([H])c(Oc8c([H])c([H])c(F)c([H])c8F)c([H])c7[H])c(C(=O)N([H])[H])c6N([H])[H])C5([H])[H])c([H])c4Cl)C([H])([H])C([H])([H])C3([H])[H])c([H])c([H])c2C1([H])[H]

>  <smiles>  (95) 
[H]c1c([H])c([H])c2c(c1[H])C([H])([H])C([H])([H])C([H])([H])C2([H])N([H])C(=O)C1([H])N(C(=O)C([H])(N([H])C(=O)C([H])(N([H])C([H])([H])[H])C([H])([H])[H])C(C([H])([H])[H])(C([H])([H])[H])C([H])([H])[H])C([H])([H])c2c([H])c(OC3([H])C(=O)N(C([H])([H])c4c([H])c(C([H])([H])[H])c(N([H])C(=O)N5C([H])([H])C([H])([H])C([H])([H])C([H])(n6nc(-c7c([H])c([H])c(Oc8c([H])c([H])c(F)c([H])c8F)c([H])c7[H])c(C(=O)N([H])[H])c6N([H])[H])C5([H])[H])c([H])c4Cl)C([H])([H])C([H])([H])C3([H])[H])c([H])c([H])c2C1([H])[H]

$$$$
95:0:0
     RDKit          3D

 98107  0  0  1  0  0  0  0  0999 V2000
  -28.8140  -22.5400   21.5990 C   0  0  0  0  0  2  0  0  0  0  0  0
  -29.0110  -19.1850   19.5860 C   0  0  0  0  0  3  0  0  0  0  0  0
  -29.9580  -18.4470   20.3100 C   0  0  0  0  0  0  0  0  0  0  0  0
  -30.3760  -18.9290   21.5740 C   0  0  0  0  0  0  0  0  0  0  0  0
  -29.9290  -20.2270   22.0120 C   0  0  0  0  0  0  0  0  0  0  0  0
  -29.0290  -21.0320   21.2080 C   0  0  0  0  0  0  0  0  0  0  0  0
  -28.5520  -20.4410   20.0000 C   0  0  0  0  0  0  0  0  0  0  0  0
  -31.4110  -18.1290   22.3860 C   0  0  0  0  0  1  0  0  0  0  0  0
  -30.5340  -20.7900   23.3070 C   0  0  0  0  0  1  0  0  0  0  0  0
  -27.4820  -21.1880   18.8820 Cl  0  0  0  0  0  0  0  0  0  0  0  0
  -30.6290  -17.2860   19.5600 C   0  0  0  0  0  2  0  0  0  0  0  0
  -30.8520  -14.8320   19.4450 C   0  0  0  0  0  0  0  0  0  0  0  0
  -30.5950  -12.5170   18.6790 C   0  0  0  0  0  2  0  0  0  0  0  0
  -29.5530  -12.4550   17.5440 C   0  0  0  0  0  2  0  0  0  0  0  0
  -28.1350  -12.3010   18.1190 C   0  0  0  0  0  2  0  0  0  0  0  0
  -27.8330  -13.3210   19.2480 C   0  0  0  0  0  3  0  0  0  0  0  0
  -28.9720  -13.3940   20.2880 C   0  0  0  0  0  2  0  0  0  0  0  0
  -30.2280  -13.6350   19.5580 N   0  0  0  0  0  0  0  0  0  0  0  0
  -31.9660  -14.9460   18.9230 O   0  0  0  0  0  0  0  0  0  0  0  0
  -30.1300  -15.9200   19.7690 N   0  0  0  0  0  0  0  0  0  0  0  0
  -29.2280  -15.7880   20.1930 H   0  0  0  0  0  0  0  0  0  0  0  0
  -25.5510  -13.9440   20.2580 C   0  0  0  0  0  0  0  0  0  0  0  0
  -24.5120  -13.1750   20.7190 C   0  0  0  0  0  0  0  0  0  0  0  0
  -24.9300  -11.8200   20.5720 C   0  0  0  0  0  0  0  0  0  0  0  0
  -26.5400  -13.0510   19.8740 N   0  0  0  0  0  0  0  0  0  0  0  0
  -26.1760  -11.7670   20.1230 N   0  0  0  0  0  0  0  0  0  0  0  0
  -24.2010  -10.5650   20.7860 C   0  0  0  0  0  0  0  0  0  0  0  0
  -24.6360   -9.6050   21.7260 C   0  0  0  0  0  3  0  0  0  0  0  0
  -23.9030   -8.4140   21.9230 C   0  0  0  0  0  3  0  0  0  0  0  0
  -22.7220   -8.1760   21.1810 C   0  0  0  0  0  0  0  0  0  0  0  0
  -22.3120   -9.1220   20.2240 C   0  0  0  0  0  3  0  0  0  0  0  0
  -23.0440  -10.3040   20.0250 C   0  0  0  0  0  3  0  0  0  0  0  0
  -21.9600   -7.0360   21.2900 O   0  0  0  0  0  0  0  0  0  0  0  0
  -21.7860   -6.3980   22.4920 C   0  0  0  0  0  0  0  0  0  0  0  0
  -21.2550   -7.0650   23.6170 C   0  0  0  0  0  3  0  0  0  0  0  0
  -21.0250   -6.3550   24.8120 C   0  0  0  0  0  3  0  0  0  0  0  0
  -21.3160   -4.9790   24.8820 C   0  0  0  0  0  0  0  0  0  0  0  0
  -21.8430   -4.3140   23.7620 C   0  0  0  0  0  3  0  0  0  0  0  0
  -22.0740   -5.0200   22.5700 C   0  0  0  0  0  0  0  0  0  0  0  0
  -22.5580   -4.3700   21.4850 F   0  0  0  0  0  0  0  0  0  0  0  0
  -21.0920   -4.2940   26.0290 F   0  0  0  0  0  0  0  0  0  0  0  0
  -23.1680  -13.6670   21.1680 C   0  0  0  0  0  0  0  0  0  0  0  0
  -22.5400  -12.9590   22.1030 N   0  0  0  0  0  0  0  0  0  0  0  0
  -22.6860  -14.7090   20.7270 O   0  0  0  0  0  0  0  0  0  0  0  0
  -22.9490  -12.1170   22.4800 H   0  0  0  0  0  0  0  0  0  0  0  0
  -21.6420  -13.2690   22.4430 H   0  0  0  0  0  0  0  0  0  0  0  0
  -25.7250  -15.3160   20.1250 N   0  0  0  0  0  0  0  0  0  0  0  0
  -24.9830  -15.9780   20.3410 H   0  0  0  0  0  0  0  0  0  0  0  0
  -26.5340  -15.7650   19.7110 H   0  0  0  0  0  0  0  0  0  0  0  0
  -27.4550  -24.8230   18.0710 C   0  0  0  0  0  2  0  0  0  0  0  0
  -26.6470  -23.6980   18.7660 C   0  0  0  0  0  2  0  0  0  0  0  0
  -29.1690  -24.5350   19.9590 C   0  0  0  0  0  2  0  0  0  0  0  0
  -28.4780  -25.5490   18.9850 C   0  0  0  0  0  3  0  0  0  0  0  0
  -26.8050  -23.6650   20.3080 C   0  0  0  0  0  3  0  0  0  0  0  0
  -25.8970  -22.6040   20.9510 C   0  0  0  0  0  1  0  0  0  0  0  0
  -28.2380  -23.6560   20.7450 N   0  0  1  0  0  4  0  0  0  0  0  0
  -28.1290  -24.2930   21.5240 H   0  0  0  0  0  0  0  0  0  0  0  0
  -28.2280  -26.8630   19.5750 O   0  0  0  0  0  0  0  0  0  0  0  0
  -24.6110  -31.8750   23.1700 C   0  0  0  0  0  0  0  0  0  0  0  0
  -27.0250  -27.5620   19.6650 C   0  0  0  0  0  0  0  0  0  0  0  0
  -23.3030  -30.5470   21.5560 C   0  0  0  0  0  3  0  0  0  0  0  0
  -24.6460  -29.1080   19.9480 C   0  0  0  0  0  0  0  0  0  0  0  0
  -25.8080  -30.9250   21.1970 C   0  0  0  0  0  2  0  0  0  0  0  0
  -25.8490  -29.5890   20.4750 C   0  0  0  0  0  0  0  0  0  0  0  0
  -27.0350  -28.8260   20.3230 C   0  0  0  0  0  3  0  0  0  0  0  0
  -25.7870  -27.1170   19.1620 C   0  0  0  0  0  3  0  0  0  0  0  0
  -24.6100  -27.8650   19.3060 C   0  0  0  0  0  3  0  0  0  0  0  0
  -23.4090  -29.9600   20.1300 C   0  0  0  0  0  2  0  0  0  0  0  0
  -24.5950  -31.1300   22.0290 N   0  0  0  0  0  0  0  0  0  0  0  0
  -23.5660  -32.1020   23.7990 O   0  0  0  0  0  0  0  0  0  0  0  0
  -22.7290  -29.4610   22.4910 C   0  0  0  0  0  0  0  0  0  0  0  0
  -21.4200  -29.1930   22.3630 N   0  0  0  0  0  0  0  0  0  0  0  0
  -23.4600  -28.8690   23.2880 O   0  0  0  0  0  0  0  0  0  0  0  0
  -20.8890  -29.7360   21.6980 H   0  0  0  0  0  0  0  0  0  0  0  0
  -18.1540  -27.6810   22.7540 C   0  0  0  0  0  0  0  0  0  0  0  0
  -20.6650  -28.1840   23.1110 C   0  0  0  0  0  3  0  0  0  0  0  0
  -20.9290  -26.7670   22.5590 C   0  0  0  0  0  2  0  0  0  0  0  0
  -19.8920  -26.3060   21.5270 C   0  0  0  0  0  2  0  0  0  0  0  0
  -18.4830  -26.3380   22.1250 C   0  0  0  0  0  2  0  0  0  0  0  0
  -19.1790  -28.5480   23.2100 C   0  0  0  0  0  0  0  0  0  0  0  0
  -18.8180  -29.7990   23.7630 C   0  0  0  0  0  3  0  0  0  0  0  0
  -17.4660  -30.1840   23.8540 C   0  0  0  0  0  3  0  0  0  0  0  0
  -16.4590  -29.3010   23.4220 C   0  0  0  0  0  3  0  0  0  0  0  0
  -16.8010  -28.0540   22.8760 C   0  0  0  0  0  3  0  0  0  0  0  0
  -25.9310  -32.4730   23.7320 C   0  0  0  0  0  3  0  0  0  0  0  0
  -26.5230  -31.6540   24.9440 C   0  0  1  0  0  0  0  0  0  0  0  0
  -25.4900  -31.3590   26.0570 C   0  0  0  0  0  1  0  0  0  0  0  0
  -27.0740  -30.2950   24.4650 C   0  0  0  0  0  1  0  0  0  0  0  0
  -27.7170  -32.4130   25.5680 C   0  0  0  0  0  1  0  0  0  0  0  0
  -25.6480  -33.8550   24.1380 N   0  0  0  0  0  0  0  0  0  0  0  0
  -25.9290  -34.9350   23.3980 C   0  0  0  0  0  0  0  0  0  0  0  0
  -26.5270  -34.8710   22.3210 O   0  0  0  0  0  0  0  0  0  0  0  0
  -25.1100  -33.9830   24.9820 H   0  0  0  0  0  0  0  0  0  0  0  0
  -24.1830  -36.7310   23.2220 C   0  0  0  0  0  1  0  0  0  0  0  0
  -25.4770  -36.3090   23.9360 C   0  0  0  0  0  3  0  0  0  0  0  0
  -27.6620  -37.1640   24.6530 C   0  0  0  0  0  1  0  0  0  0  0  0
  -26.5000  -37.3690   23.7900 N   0  0  0  0  0  0  0  0  0  0  0  0
  -26.1080  -38.2820   23.9980 H   0  0  0  0  0  0  0  0  0  0  0  0
  2  7  2  0
  2  3  1  0
  3  4  2  0
  4  5  1  0
  4  8  1  0
  5  9  1  0
  6  1  1  0
  6  5  2  0
  7  6  1  0
 10  7  1  0
 11 20  1  0
 11  3  1  0
 12 18  1  0
 12 20  1  0
 13 18  1  0
 14 15  1  0
 14 13  1  0
 16 15  1  0
 16 25  1  0
 16 17  1  0
 18 17  1  0
 19 12  2  0
 20 21  1  0
 22 23  2  0
 23 42  1  0
 24 23  1  0
 24 27  1  0
 25 26  1  0
 25 22  1  0
 26 24  2  0
 27 28  1  0
 28 29  2  0
 30 33  1  0
 30 29  1  0
 31 30  2  0
 32 31  1  0
 32 27  2  0
 33 34  1  0
 34 39  2  0
 34 35  1  0
 35 36  2  0
 36 37  1  0
 37 41  1  0
 38 37  2  0
 39 38  1  0
 40 39  1  0
 42 43  1  0
 43 46  1  0
 43 45  1  0
 44 42  2  0
 47 22  1  0
 47 48  1  0
 49 47  1  0
 50 51  1  0
 50 53  1  0
 51 54  1  0
 52 56  1  0
 53 58  1  0
 53 52  1  0
 54 56  1  0
 54 55  1  0
 56 57  1  1
 56  1  1  0
 58 60  1  0
 59 70  2  0
 60 65  1  0
 61 69  1  0
 61 71  1  0
 62 68  1  0
 62 64  1  0
 63 69  1  0
 64 63  1  0
 65 64  2  0
 66 67  1  0
 66 60  2  0
 67 62  2  0
 68 61  1  0
 69 59  1  0
 71 73  2  0
 72 71  1  0
 74 72  1  0
 75 84  2  0
 75 80  1  0
 76 72  1  0
 76 80  1  0
 77 76  1  0
 78 79  1  0
 78 77  1  0
 79 75  1  0
 80 81  2  0
 81 82  1  0
 83 82  2  0
 84 83  1  0
 85 59  1  0
 85 90  1  0
 85 86  1  0
 86 89  1  1
 86 87  1  0
 88 86  1  0
 90 93  1  0
 91 95  1  0
 91 90  1  0
 92 91  2  0
 95 94  1  0
 97 95  1  0
 97 98  1  0
 97 96  1  0
M  ISO  4  12 100  20 100  53 101  58 101
M  END
>  <TORSDO>  (96) 
F 19

>  <SCORE>  (96) 
-12.818

>  <name>  (96) 
95

>  <ligand_id>  (96) 
95

>  <original_smiles>  (96) 
[H]c1c([H])c([H])c2c(c1[H])C([H])([H])C([H])([H])C([H])([H])C2([H])N([H])C(=O)C1([H])N(C(=O)C([H])(N([H])C(=O)C([H])(N([H])C([H])([H])[H])C([H])([H])[H])C(C([H])([H])[H])(C([H])([H])[H])C([H])([H])[H])C([H])([H])c2c([H])c(OC3([H])C([H])([H])C([H])([H])C([H])(C([H])([H])[H])[N+]([H])(C([H])([H])c4c(Cl)c([H])c(C([H])([H])N([H])C(=O)N5C([H])([H])C([H])([H])C([H])([H])C([H])(n6nc(-c7c([H])c([H])c(Oc8c([H])c([H])c(F)c([H])c8F)c([H])c7[H])c(C(=O)N([H])[H])c6N([H])[H])C5([H])[H])c(C([H])([H])[H])c4C([H])([H])[H])C3([H])[H])c([H])c([H])c2C1([H])[H]

>  <smiles>  (96) 
[H]c1c([H])c([H])c2c(c1[H])C([H])([H])C([H])([H])C([H])([H])C2([H])N([H])C(=O)C1([H])N(C(=O)C([H])(N([H])C(=O)C([H])(N([H])C([H])([H])[H])C([H])([H])[H])C(C([H])([H])[H])(C([H])([H])[H])C([H])([H])[H])C([H])([H])c2c([H])c(OC3([H])C([H])([H])C([H])([H])C([H])(C([H])([H])[H])[N+]([H])(C([H])([H])c4c(Cl)c([H])c(C([H])([H])N([H])C(=O)N5C([H])([H])C([H])([H])C([H])([H])C([H])(n6nc(-c7c([H])c([H])c(Oc8c([H])c([H])c(F)c([H])c8F)c([H])c7[H])c(C(=O)N([H])[H])c6N([H])[H])C5([H])[H])c(C([H])([H])[H])c4C([H])([H])[H])C3([H])[H])c([H])c([H])c2C1([H])[H]

$$$$
96:0:0
     RDKit          3D

 93101  0  0  1  0  0  0  0  0999 V2000
  -28.9790  -21.1200   19.9710 C   0  0  0  0  0  2  0  0  0  0  0  0
  -31.4440  -17.6000   21.2950 C   0  0  0  0  0  3  0  0  0  0  0  0
  -31.8660  -18.9320   21.4570 C   0  0  0  0  0  3  0  0  0  0  0  0
  -29.3480  -18.4300   20.3640 C   0  0  0  0  0  0  0  0  0  0  0  0
  -29.7710  -19.8290   20.5160 C   0  0  0  0  0  0  0  0  0  0  0  0
  -30.1890  -17.2930   20.7310 C   0  0  0  0  0  0  0  0  0  0  0  0
  -31.0670  -20.0210   21.0660 C   0  0  0  0  0  0  0  0  0  0  0  0
  -27.9820  -18.1150   19.7730 C   0  0  0  0  0  1  0  0  0  0  0  0
  -31.7500  -21.5970   21.2560 Cl  0  0  0  0  0  0  0  0  0  0  0  0
  -30.5580  -14.7310   20.3340 C   0  0  0  0  0  0  0  0  0  0  0  0
  -30.3120  -12.4840   19.2660 C   0  0  0  0  0  2  0  0  0  0  0  0
  -29.3430  -12.5690   18.0670 C   0  0  0  0  0  2  0  0  0  0  0  0
  -27.8860  -12.3880   18.5320 C   0  0  0  0  0  2  0  0  0  0  0  0
  -27.5410  -13.2700   19.7610 C   0  0  0  0  0  3  0  0  0  0  0  0
  -28.6210  -13.1720   20.8600 C   0  0  0  0  0  2  0  0  0  0  0  0
  -29.9070  -13.5220   20.2420 N   0  0  0  0  0  0  0  0  0  0  0  0
  -31.7350  -14.8180   19.9750 O   0  0  0  0  0  0  0  0  0  0  0  0
  -29.8000  -15.8640   20.6070 N   0  0  0  0  0  0  0  0  0  0  0  0
  -28.8170  -15.6730   20.7160 H   0  0  0  0  0  0  0  0  0  0  0  0
  -25.1690  -13.8570   20.5380 C   0  0  0  0  0  0  0  0  0  0  0  0
  -24.1120  -13.0810   20.9300 C   0  0  0  0  0  0  0  0  0  0  0  0
  -24.5750  -11.7300   20.8800 C   0  0  0  0  0  0  0  0  0  0  0  0
  -26.2080  -12.9790   20.2770 N   0  0  0  0  0  0  0  0  0  0  0  0
  -25.8590  -11.6940   20.5450 N   0  0  0  0  0  0  0  0  0  0  0  0
  -23.8510  -10.4650   21.0740 C   0  0  0  0  0  0  0  0  0  0  0  0
  -24.3070   -9.4850   21.9820 C   0  0  0  0  0  3  0  0  0  0  0  0
  -23.5830   -8.2880   22.1660 C   0  0  0  0  0  3  0  0  0  0  0  0
  -22.3890   -8.0610   21.4380 C   0  0  0  0  0  0  0  0  0  0  0  0
  -21.9520   -9.0300   20.5170 C   0  0  0  0  0  3  0  0  0  0  0  0
  -22.6790  -10.2190   20.3320 C   0  0  0  0  0  3  0  0  0  0  0  0
  -21.6360   -6.9180   21.5320 O   0  0  0  0  0  0  0  0  0  0  0  0
  -21.6230   -6.1530   22.6720 C   0  0  0  0  0  0  0  0  0  0  0  0
  -21.2450   -6.6870   23.9230 C   0  0  0  0  0  3  0  0  0  0  0  0
  -21.1790   -5.8510   25.0550 C   0  0  0  0  0  3  0  0  0  0  0  0
  -21.4850   -4.4820   24.9380 C   0  0  0  0  0  0  0  0  0  0  0  0
  -21.8580   -3.9460   23.6920 C   0  0  0  0  0  3  0  0  0  0  0  0
  -21.9250   -4.7800   22.5620 C   0  0  0  0  0  0  0  0  0  0  0  0
  -22.2640   -4.2560   21.3590 F   0  0  0  0  0  0  0  0  0  0  0  0
  -21.4160   -3.6760   26.0230 F   0  0  0  0  0  0  0  0  0  0  0  0
  -22.7210  -13.5550   21.2330 C   0  0  0  0  0  0  0  0  0  0  0  0
  -22.0110  -12.8500   22.1080 N   0  0  0  0  0  0  0  0  0  0  0  0
  -22.2720  -14.5850   20.7310 O   0  0  0  0  0  0  0  0  0  0  0  0
  -22.3880  -12.0160   22.5310 H   0  0  0  0  0  0  0  0  0  0  0  0
  -21.0790  -13.1470   22.3560 H   0  0  0  0  0  0  0  0  0  0  0  0
  -25.3240  -15.2270   20.3510 N   0  0  0  0  0  0  0  0  0  0  0  0
  -24.5290  -15.8570   20.4100 H   0  0  0  0  0  0  0  0  0  0  0  0
  -26.1180  -15.6370   19.8770 H   0  0  0  0  0  0  0  0  0  0  0  0
  -28.8850  -22.4370   20.7600 N   0  0  0  0  0  4  0  0  0  0  0  0
  -29.7230  -22.4960   21.3200 H   0  0  0  0  0  0  0  0  0  0  0  0
  -28.1120  -22.3360   21.3990 H   0  0  0  0  0  0  0  0  0  0  0  0
  -28.7360  -23.7760   20.0030 C   0  0  0  0  0  3  0  0  0  0  0  0
  -28.2250  -25.0760   20.8140 C   0  0  0  0  0  3  0  0  0  0  0  0
  -28.3520  -26.4570   20.2470 O   0  0  0  0  0  0  0  0  0  0  0  0
  -24.5990  -31.8790   23.2580 C   0  0  0  0  0  0  0  0  0  0  0  0
  -27.2300  -27.3050   20.2390 C   0  0  0  0  0  0  0  0  0  0  0  0
  -23.4000  -30.4700   21.6180 C   0  0  0  0  0  3  0  0  0  0  0  0
  -24.8600  -28.9110   20.2040 C   0  0  0  0  0  0  0  0  0  0  0  0
  -25.9370  -30.7980   21.4330 C   0  0  0  0  0  2  0  0  0  0  0  0
  -26.0260  -29.4130   20.7980 C   0  0  0  0  0  0  0  0  0  0  0  0
  -27.2160  -28.6220   20.8020 C   0  0  0  0  0  3  0  0  0  0  0  0
  -26.0450  -26.8580   19.6190 C   0  0  0  0  0  3  0  0  0  0  0  0
  -24.8720  -27.6390   19.6070 C   0  0  0  0  0  3  0  0  0  0  0  0
  -23.6210  -29.7850   20.2420 C   0  0  0  0  0  2  0  0  0  0  0  0
  -24.6650  -31.0680   22.1620 N   0  0  0  0  0  0  0  0  0  0  0  0
  -23.5150  -32.1540   23.7920 O   0  0  0  0  0  0  0  0  0  0  0  0
  -22.7390  -29.4580   22.5840 C   0  0  0  0  0  0  0  0  0  0  0  0
  -21.4120  -29.2800   22.4550 N   0  0  0  0  0  0  0  0  0  0  0  0
  -23.4170  -28.8350   23.4040 O   0  0  0  0  0  0  0  0  0  0  0  0
  -20.9270  -29.8340   21.7630 H   0  0  0  0  0  0  0  0  0  0  0  0
  -18.0320  -28.0860   22.9510 C   0  0  0  0  0  0  0  0  0  0  0  0
  -20.5910  -28.3440   23.2250 C   0  0  0  0  0  3  0  0  0  0  0  0
  -20.6950  -26.9130   22.6500 C   0  0  0  0  0  2  0  0  0  0  0  0
  -19.5940  -26.5920   21.6330 C   0  0  0  0  0  2  0  0  0  0  0  0
  -18.2110  -26.7370   22.2750 C   0  0  0  0  0  2  0  0  0  0  0  0
  -19.1520  -28.8470   23.3830 C   0  0  0  0  0  0  0  0  0  0  0  0
  -18.9350  -30.1110   23.9750 C   0  0  0  0  0  3  0  0  0  0  0  0
  -17.6300  -30.6150   24.1370 C   0  0  0  0  0  3  0  0  0  0  0  0
  -16.5260  -29.8480   23.7260 C   0  0  0  0  0  3  0  0  0  0  0  0
  -16.7270  -28.5870   23.1390 C   0  0  0  0  0  3  0  0  0  0  0  0
  -25.8810  -32.5130   23.8820 C   0  0  0  0  0  3  0  0  0  0  0  0
  -26.3890  -31.7510   25.1670 C   0  0  1  0  0  0  0  0  0  0  0  0
  -25.2890  -31.5240   26.2310 C   0  0  0  0  0  1  0  0  0  0  0  0
  -26.9670  -30.3700   24.7830 C   0  0  0  0  0  1  0  0  0  0  0  0
  -27.5420  -32.5430   25.8270 C   0  0  0  0  0  1  0  0  0  0  0  0
  -25.5710  -33.9130   24.2030 N   0  0  0  0  0  0  0  0  0  0  0  0
  -25.9070  -34.9630   23.4400 C   0  0  0  0  0  0  0  0  0  0  0  0
  -26.5810  -34.8520   22.4120 O   0  0  0  0  0  0  0  0  0  0  0  0
  -24.9760  -34.0720   25.0030 H   0  0  0  0  0  0  0  0  0  0  0  0
  -24.1840  -36.7570   23.0680 C   0  0  0  0  0  1  0  0  0  0  0  0
  -25.4200  -36.3560   23.8870 C   0  0  0  0  0  3  0  0  0  0  0  0
  -27.5520  -37.2400   24.7250 C   0  0  0  0  0  1  0  0  0  0  0  0
  -26.4540  -37.4070   23.7760 N   0  0  0  0  0  0  0  0  0  0  0  0
  -26.0470  -38.3250   23.9220 H   0  0  0  0  0  0  0  0  0  0  0  0
  1  5  1  0
  1 48  1  0
  2  3  1  0
  4  5  2  0
  4  6  1  0
  5  7  1  0
  6  2  2  0
  7  9  1  0
  7  3  2  0
  8  4  1  0
 10 18  1  0
 11 16  1  0
 12 13  1  0
 12 11  1  0
 14 13  1  0
 14 23  1  0
 14 15  1  0
 16 10  1  0
 16 15  1  0
 17 10  2  0
 18 19  1  0
 18  6  1  0
 20 21  2  0
 21 40  1  0
 22 21  1  0
 22 25  1  0
 23 20  1  0
 23 24  1  0
 24 22  2  0
 25 26  1  0
 26 27  2  0
 28 31  1  0
 28 27  1  0
 29 28  2  0
 30 29  1  0
 30 25  2  0
 31 32  1  0
 32 33  1  0
 33 34  2  0
 35 34  1  0
 35 39  1  0
 36 35  2  0
 37 32  2  0
 37 36  1  0
 38 37  1  0
 40 41  1  0
 41 44  1  0
 41 43  1  0
 42 40  2  0
 45 46  1  0
 45 20  1  0
 47 45  1  0
 48 49  1  0
 48 50  1  0
 51 48  1  0
 51 52  2  0
 53 52  1  0
 54 65  2  0
 55 53  1  0
 55 60  1  0
 56 64  1  0
 56 66  1  0
 57 63  1  0
 57 59  1  0
 58 64  1  0
 59 60  2  0
 59 58  1  0
 61 55  2  0
 62 61  1  0
 62 57  2  0
 63 56  1  0
 64 54  1  0
 66 68  2  0
 67 66  1  0
 69 67  1  0
 70 79  2  0
 70 75  1  0
 71 67  1  0
 71 75  1  0
 72 71  1  0
 73 74  1  0
 73 72  1  0
 74 70  1  0
 75 76  2  0
 76 77  1  0
 78 77  2  0
 79 78  1  0
 80 54  1  0
 80 85  1  0
 80 81  1  0
 81 84  1  1
 81 82  1  0
 83 81  1  0
 85 88  1  0
 86 90  1  0
 86 85  1  0
 87 86  2  0
 90 89  1  0
 92 90  1  0
 92 93  1  0
 92 91  1  0
M  ISO  4  10 100  18 100  52 101  53 101
M  END
>  <TORSDO>  (97) 
F 20

>  <SCORE>  (97) 
-14.177

>  <name>  (97) 
96

>  <ligand_id>  (97) 
96

>  <original_smiles>  (97) 
[H]c1c([H])c([H])c2c(c1[H])C([H])([H])C([H])([H])C([H])([H])C2([H])N([H])C(=O)C1([H])N(C(=O)C([H])(N([H])C(=O)C([H])(N([H])C([H])([H])[H])C([H])([H])[H])C(C([H])([H])[H])(C([H])([H])[H])C([H])([H])[H])C([H])([H])c2c([H])c(OC([H])([H])C([H])([H])[N+]([H])([H])C([H])([H])c3c(Cl)c([H])c([H])c(N([H])C(=O)N4C([H])([H])C([H])([H])C([H])([H])C([H])(n5nc(-c6c([H])c([H])c(Oc7c([H])c([H])c(F)c([H])c7F)c([H])c6[H])c(C(=O)N([H])[H])c5N([H])[H])C4([H])[H])c3C([H])([H])[H])c([H])c([H])c2C1([H])[H]

>  <smiles>  (97) 
[H]c1c([H])c([H])c2c(c1[H])C([H])([H])C([H])([H])C([H])([H])C2([H])N([H])C(=O)C1([H])N(C(=O)C([H])(N([H])C(=O)C([H])(N([H])C([H])([H])[H])C([H])([H])[H])C(C([H])([H])[H])(C([H])([H])[H])C([H])([H])[H])C([H])([H])c2c([H])c(OC([H])([H])C([H])([H])[N+]([H])([H])C([H])([H])c3c(Cl)c([H])c([H])c(N([H])C(=O)N4C([H])([H])C([H])([H])C([H])([H])C([H])(n5nc(-c6c([H])c([H])c(Oc7c([H])c([H])c(F)c([H])c7F)c([H])c6[H])c(C(=O)N([H])[H])c5N([H])[H])C4([H])[H])c3C([H])([H])[H])c([H])c([H])c2C1([H])[H]

$$$$
