0:0:0
     RDKit          3D

 93100  0  0  1  0  0  0  0  0999 V2000
  -29.7940  -21.5660   19.6070 C   0  0  0  0  0  2  0  0  0  0  0  0
  -27.8660  -19.9330   20.0890 C   0  0  0  0  0  3  0  0  0  0  0  0
  -27.3630  -18.6360   20.3050 C   0  0  0  0  0  3  0  0  0  0  0  0
  -30.1250  -19.0090   20.0200 C   0  0  0  0  0  3  0  0  0  0  0  0
  -29.2550  -20.1420   19.9190 C   0  0  0  0  0  0  0  0  0  0  0  0
  -29.6240  -17.6900   20.2630 C   0  0  0  0  0  0  0  0  0  0  0  0
  -28.2210  -17.5170   20.3790 C   0  0  0  0  0  3  0  0  0  0  0  0
  -27.5130  -15.9540   20.6040 Cl  0  0  0  0  0 15  0  0  0  0  0  0
  -30.5850  -16.5010   20.4940 C   0  0  0  0  0  2  0  0  0  0  0  0
  -31.1350  -14.2170   19.7890 C   0  0  0  0  0  0  0  0  0  0  0  0
  -30.8450  -11.8350   19.2380 C   0  0  0  0  0  2  0  0  0  0  0  0
  -29.9050  -11.7430   18.0110 C   0  0  0  0  0  2  0  0  0  0  0  0
  -28.4300  -11.7210   18.4500 C   0  0  0  0  0  2  0  0  0  0  0  0
  -28.0800  -12.8350   19.4660 C   0  0  0  0  0  3  0  0  0  0  0  0
  -29.1370  -12.9220   20.5930 C   0  0  0  0  0  2  0  0  0  0  0  0
  -30.4590  -13.0490   19.9650 N   0  0  0  0  0  0  0  0  0  0  0  0
  -32.3080  -14.2670   19.4220 O   0  0  0  0  0  0  0  0  0  0  0  0
  -30.3640  -15.3120   19.6600 N   0  0  0  0  0  0  0  0  0  0  0  0
  -30.3450  -15.5820   18.6850 H   0  0  0  0  0  0  0  0  0  0  0  0
  -25.7660  -13.6330   20.2350 C   0  0  0  0  0  0  0  0  0  0  0  0
  -24.6500  -12.9620   20.6430 C   0  0  0  0  0  0  0  0  0  0  0  0
  -24.9990  -11.5740   20.6210 C   0  0  0  0  0  0  0  0  0  0  0  0
  -26.7340  -12.6730   20.0000 N   0  0  0  0  0  0  0  0  0  0  0  0
  -26.2730  -11.4280   20.2830 N   0  0  0  0  0  0  0  0  0  0  0  0
  -24.1810  -10.3760   20.8500 C   0  0  0  0  0  0  0  0  0  0  0  0
  -24.5420   -9.3980   21.8020 C   0  0  0  0  0  3  0  0  0  0  0  0
  -23.7200   -8.2660   22.0110 C   0  0  0  0  0  3  0  0  0  0  0  0
  -22.5240   -8.1080   21.2660 C   0  0  0  0  0  0  0  0  0  0  0  0
  -22.1830   -9.0800   20.3030 C   0  0  0  0  0  3  0  0  0  0  0  0
  -23.0070  -10.2020   20.0930 C   0  0  0  0  0  3  0  0  0  0  0  0
  -21.6690   -7.0380   21.3910 O   0  0  0  0  0  0  0  0  0  0  0  0
  -21.5630   -6.3370   22.5670 C   0  0  0  0  0  0  0  0  0  0  0  0
  -21.1910   -6.9610   23.7760 C   0  0  0  0  0  3  0  0  0  0  0  0
  -21.0150   -6.1930   24.9430 C   0  0  0  0  0  3  0  0  0  0  0  0
  -21.2160   -4.7980   24.9080 C   0  0  0  0  0  0  0  0  0  0  0  0
  -21.5870   -4.1720   23.7040 C   0  0  0  0  0  3  0  0  0  0  0  0
  -21.7560   -4.9390   22.5360 C   0  0  0  0  0  0  0  0  0  0  0  0
  -22.0960   -4.3320   21.3750 F   0  0  0  0  0  0  0  0  0  0  0  0
  -21.0370   -4.0560   26.0260 F   0  0  0  0  0  0  0  0  0  0  0  0
  -23.3070  -13.5510   20.9560 C   0  0  0  0  0  0  0  0  0  0  0  0
  -22.5660  -12.9320   21.8630 N   0  0  0  0  0  0  0  0  0  0  0  0
  -22.9250  -14.5920   20.4240 O   0  0  0  0  0  0  0  0  0  0  0  0
  -22.8970  -12.0990   22.3280 H   0  0  0  0  0  0  0  0  0  0  0  0
  -21.6540  -13.3000   22.0980 H   0  0  0  0  0  0  0  0  0  0  0  0
  -26.0330  -14.9850   20.0270 N   0  0  0  0  0  0  0  0  0  0  0  0
  -25.3370  -15.7220   20.1080 H   0  0  0  0  0  0  0  0  0  0  0  0
  -26.9400  -15.3250   19.7460 H   0  0  0  0  0  0  0  0  0  0  0  0
  -29.1630  -24.0290   19.9210 C   0  0  0  0  0  0  0  0  0  0  0  0
  -29.0500  -22.7050   20.2040 N   0  0  0  0  0  0  0  0  0  0  0  0
  -29.9690  -24.4490   19.0910 O   0  0  0  0  0  0  0  0  0  0  0  0
  -28.3980  -22.4820   20.9410 H   0  0  0  0  0  0  0  0  0  0  0  0
  -28.2040  -25.0150   20.6690 C   0  0  0  0  0  2  0  0  0  0  0  0
  -28.4640  -26.4370   20.4550 O   0  0  0  0  0  0  0  0  0  0  0  0
  -24.5530  -31.7560   23.2780 C   0  0  0  0  0  0  0  0  0  0  0  0
  -27.3290  -27.2380   20.3790 C   0  0  0  0  0  0  0  0  0  0  0  0
  -23.4300  -30.3410   21.5820 C   0  0  0  0  0  3  0  0  0  0  0  0
  -24.9540  -28.7890   20.2480 C   0  0  0  0  0  0  0  0  0  0  0  0
  -25.9680  -30.6820   21.5210 C   0  0  0  0  0  2  0  0  0  0  0  0
  -26.0870  -29.3040   20.8930 C   0  0  0  0  0  0  0  0  0  0  0  0
  -27.2800  -28.5370   20.9520 C   0  0  0  0  0  3  0  0  0  0  0  0
  -26.1800  -26.7540   19.7190 C   0  0  0  0  0  3  0  0  0  0  0  0
  -25.0040  -27.5180   19.6480 C   0  0  0  0  0  3  0  0  0  0  0  0
  -23.7130  -29.6560   20.2180 C   0  0  0  0  0  2  0  0  0  0  0  0
  -24.6650  -30.9430   22.1870 N   0  0  0  0  0  0  0  0  0  0  0  0
  -23.4450  -32.0330   23.7570 O   0  0  0  0  0  0  0  0  0  0  0  0
  -22.7210  -29.3340   22.5190 C   0  0  0  0  0  0  0  0  0  0  0  0
  -21.4010  -29.1700   22.3380 N   0  0  0  0  0  0  0  0  0  0  0  0
  -23.3620  -28.6990   23.3600 O   0  0  0  0  0  0  0  0  0  0  0  0
  -20.9440  -29.7350   21.6350 H   0  0  0  0  0  0  0  0  0  0  0  0
  -17.9930  -28.0150   22.7100 C   0  0  0  0  0  0  0  0  0  0  0  0
  -20.5420  -28.2410   23.0760 C   0  0  0  0  0  3  0  0  0  0  0  0
  -20.6470  -26.8100   22.4980 C   0  0  0  0  0  2  0  0  0  0  0  0
  -19.5800  -26.5040   21.4420 C   0  0  0  0  0  2  0  0  0  0  0  0
  -18.1790  -26.6640   22.0340 C   0  0  0  0  0  2  0  0  0  0  0  0
  -19.1050  -28.7600   23.1840 C   0  0  0  0  0  0  0  0  0  0  0  0
  -18.8800  -30.0230   23.7750 C   0  0  0  0  0  3  0  0  0  0  0  0
  -17.5770  -30.5410   23.8960 C   0  0  0  0  0  3  0  0  0  0  0  0
  -16.4800  -29.7930   23.4380 C   0  0  0  0  0  3  0  0  0  0  0  0
  -16.6870  -28.5320   22.8510 C   0  0  0  0  0  3  0  0  0  0  0  0
  -25.8060  -32.3870   23.9590 C   0  0  0  0  0  3  0  0  0  0  0  0
  -26.2370  -31.6420   25.2810 C   0  0  1  0  0  0  0  0  0  0  0  0
  -25.0710  -31.4310   26.2730 C   0  0  0  0  0  1  0  0  0  0  0  0
  -26.8460  -30.2560   24.9630 C   0  0  0  0  0  1  0  0  0  0  0  0
  -27.3450  -32.4480   26.0010 C   0  0  0  0  0  1  0  0  0  0  0  0
  -25.4940  -33.7960   24.2350 N   0  0  0  0  0  0  0  0  0  0  0  0
  -25.8770  -34.8270   23.4710 C   0  0  0  0  0  0  0  0  0  0  0  0
  -26.5990  -34.6900   22.4790 O   0  0  0  0  0  0  0  0  0  0  0  0
  -24.8580  -33.9760   24.9990 H   0  0  0  0  0  0  0  0  0  0  0  0
  -24.1850  -36.6240   22.9830 C   0  0  0  0  0  1  0  0  0  0  0  0
  -25.3810  -36.2320   23.8660 C   0  0  0  0  0  3  0  0  0  0  0  0
  -27.4850  -37.1170   24.7690 C   0  0  0  0  0  1  0  0  0  0  0  0
  -26.4280  -37.2720   23.7740 N   0  0  0  0  0  0  0  0  0  0  0  0
  -26.0280  -38.1990   23.8770 H   0  0  0  0  0  0  0  0  0  0  0  0
  1  5  1  0
  1 49  1  0
  2  3  1  0
  3  7  2  0
  4  6  2  0
  5  4  1  0
  5  2  2  0
  6  7  1  0
  6  9  1  0
 10 16  1  0
 11 16  1  0
 12 13  1  0
 12 11  1  0
 14 13  1  0
 14 23  1  0
 14 15  1  0
 16 15  1  0
 17 10  2  0
 18 10  1  0
 18  9  1  0
 19 18  1  0
 20 21  2  0
 21 40  1  0
 22 21  1  0
 22 25  1  0
 23 20  1  0
 23 24  1  0
 24 22  2  0
 25 26  1  0
 26 27  2  0
 28 31  1  0
 28 27  1  0
 29 28  2  0
 30 29  1  0
 30 25  2  0
 31 32  1  0
 32 33  1  0
 33 34  2  0
 35 34  1  0
 35 39  1  0
 36 35  2  0
 37 32  2  0
 37 36  1  0
 38 37  1  0
 40 41  1  0
 41 44  1  0
 41 43  1  0
 42 40  2  0
 45 46  1  0
 45 20  1  0
 47 45  1  0
 48 49  1  0
 48 52  1  0
 49 51  1  0
 50 48  2  0
 53 52  1  0
 54 65  2  0
 55 53  1  0
 55 60  1  0
 56 64  1  0
 56 66  1  0
 57 59  1  0
 58 64  1  0
 59 60  2  0
 59 58  1  0
 61 55  2  0
 62 61  1  0
 62 57  2  0
 63 57  1  0
 63 56  1  0
 64 54  1  0
 66 68  2  0
 67 66  1  0
 69 67  1  0
 70 79  2  0
 70 75  1  0
 71 67  1  0
 71 75  1  0
 72 71  1  0
 73 74  1  0
 73 72  1  0
 74 70  1  0
 75 76  2  0
 76 77  1  0
 78 77  2  0
 79 78  1  0
 80 54  1  0
 80 85  1  0
 80 81  1  0
 81 84  1  1
 81 82  1  0
 83 81  1  0
 85 88  1  0
 86 90  1  0
 86 85  1  0
 87 86  2  0
 90 89  1  0
 92 90  1  0
 92 93  1  0
 92 91  1  0
M  ISO  4  10 100  18 100  52 101  53 101
M  END
>  <TORSDO>  (1) 
F 20

>  <SCORE>  (1) 
-13.216

>  <name>  (1) 
0

>  <ligand_id>  (1) 
0

>  <original_smiles>  (1) 
[H]c1c([H])c([H])c2c(c1[H])C([H])([H])C([H])([H])C([H])([H])C2([H])N([H])C(=O)C1([H])N(C(=O)C([H])(N([H])C(=O)C([H])(N([H])C([H])([H])[H])C([H])([H])[H])C(C([H])([H])[H])(C([H])([H])[H])C([H])([H])[H])C([H])([H])c2c([H])c(OC([H])([H])C(=O)N([H])C([H])([H])c3c([H])c([H])c(Cl)c(C([H])([H])N([H])C(=O)N4C([H])([H])C([H])([H])C([H])([H])C([H])(n5nc(-c6c([H])c([H])c(Oc7c([H])c([H])c(F)c([H])c7F)c([H])c6[H])c(C(=O)N([H])[H])c5N([H])[H])C4([H])[H])c3[H])c([H])c([H])c2C1([H])[H]

>  <smiles>  (1) 
[H]c1c([H])c([H])c2c(c1[H])C([H])([H])C([H])([H])C([H])([H])C2([H])N([H])C(=O)C1([H])N(C(=O)C([H])(N([H])C(=O)C([H])(N([H])C([H])([H])[H])C([H])([H])[H])C(C([H])([H])[H])(C([H])([H])[H])C([H])([H])[H])C([H])([H])c2c([H])c(OC([H])([H])C(=O)N([H])C([H])([H])c3c([H])c([H])c(Cl)c(C([H])([H])N([H])C(=O)N4C([H])([H])C([H])([H])C([H])([H])C([H])(n5nc(-c6c([H])c([H])c(Oc7c([H])c([H])c(F)c([H])c7F)c([H])c6[H])c(C(=O)N([H])[H])c5N([H])[H])C4([H])[H])c3[H])c([H])c([H])c2C1([H])[H]

$$$$
1:0:0
     RDKit          3D

 96104  0  0  1  0  0  0  0  0999 V2000
  -28.8400  -21.5970   18.9790 C   0  0  0  0  0  3  0  0  0  0  0  0
  -29.4160  -22.0380   17.6550 C   0  0  0  0  0  1  0  0  0  0  0  0
  -28.3330  -22.5870   19.8080 N   0  0  0  0  0  0  0  0  0  0  0  0
  -28.8900  -20.2210   19.1340 N   0  0  0  0  0  0  0  0  0  0  0  0
  -27.9580  -22.3210   20.7110 H   0  0  0  0  0  0  0  0  0  0  0  0
  -29.2900  -19.7700   18.3190 H   0  0  0  0  0  0  0  0  0  0  0  0
  -26.7060  -24.0110   18.6200 C   0  0  0  0  0  1  0  0  0  0  0  0
  -28.0500  -24.0340   19.3750 C   0  0  0  0  0  3  0  0  0  0  0  0
  -28.1180  -25.2200   20.4610 C   0  0  0  0  0  2  0  0  0  0  0  0
  -28.2070  -26.6640   20.0790 O   0  0  0  0  0  0  0  0  0  0  0  0
  -24.5410  -32.0110   23.3200 C   0  0  0  0  0  0  0  0  0  0  0  0
  -27.0800  -27.5010   20.1310 C   0  0  0  0  0  0  0  0  0  0  0  0
  -23.3030  -30.6570   21.6650 C   0  0  0  0  0  3  0  0  0  0  0  0
  -24.7220  -29.1240   20.1910 C   0  0  0  0  0  0  0  0  0  0  0  0
  -25.8380  -30.9780   21.4340 C   0  0  0  0  0  2  0  0  0  0  0  0
  -25.9070  -29.6070   20.7680 C   0  0  0  0  0  0  0  0  0  0  0  0
  -27.0910  -28.8070   20.7180 C   0  0  0  0  0  3  0  0  0  0  0  0
  -25.8740  -27.0770   19.5410 C   0  0  0  0  0  3  0  0  0  0  0  0
  -24.7080  -27.8680   19.5700 C   0  0  0  0  0  3  0  0  0  0  0  0
  -23.4920  -30.0070   20.2700 C   0  0  0  0  0  2  0  0  0  0  0  0
  -24.5830  -31.2300   22.2000 N   0  0  0  0  0  0  0  0  0  0  0  0
  -23.4690  -32.2790   23.8820 O   0  0  0  0  0  0  0  0  0  0  0  0
  -22.6510  -29.6230   22.6160 C   0  0  0  0  0  0  0  0  0  0  0  0
  -21.3310  -29.4080   22.4710 N   0  0  0  0  0  0  0  0  0  0  0  0
  -23.3330  -29.0170   23.4460 O   0  0  0  0  0  0  0  0  0  0  0  0
  -20.8290  -29.9590   21.7870 H   0  0  0  0  0  0  0  0  0  0  0  0
  -17.9950  -28.0780   22.8910 C   0  0  0  0  0  0  0  0  0  0  0  0
  -20.5320  -28.4430   23.2320 C   0  0  0  0  0  3  0  0  0  0  0  0
  -20.7040  -27.0090   22.6750 C   0  0  0  0  0  2  0  0  0  0  0  0
  -19.6450  -26.6330   21.6320 C   0  0  0  0  0  2  0  0  0  0  0  0
  -18.2420  -26.7300   22.2360 C   0  0  0  0  0  2  0  0  0  0  0  0
  -19.0690  -28.8880   23.3470 C   0  0  0  0  0  0  0  0  0  0  0  0
  -18.7820  -30.1450   23.9200 C   0  0  0  0  0  3  0  0  0  0  0  0
  -17.4550  -30.5990   24.0370 C   0  0  0  0  0  3  0  0  0  0  0  0
  -16.3950  -29.7870   23.5970 C   0  0  0  0  0  3  0  0  0  0  0  0
  -16.6650  -28.5280   23.0340 C   0  0  0  0  0  3  0  0  0  0  0  0
  -25.8370  -32.6290   23.9340 C   0  0  0  0  0  3  0  0  0  0  0  0
  -26.3490  -31.8540   25.2090 C   0  0  1  0  0  0  0  0  0  0  0  0
  -25.2550  -31.6110   26.2740 C   0  0  0  0  0  1  0  0  0  0  0  0
  -26.9360  -30.4790   24.8120 C   0  0  0  0  0  1  0  0  0  0  0  0
  -27.4880  -32.6510   25.8880 C   0  0  0  0  0  1  0  0  0  0  0  0
  -25.5460  -34.0310   24.2670 N   0  0  0  0  0  0  0  0  0  0  0  0
  -25.8620  -35.0780   23.4950 C   0  0  0  0  0  0  0  0  0  0  0  0
  -26.5040  -34.9660   22.4460 O   0  0  0  0  0  0  0  0  0  0  0  0
  -24.9770  -34.1930   25.0850 H   0  0  0  0  0  0  0  0  0  0  0  0
  -24.1350  -36.8800   23.1960 C   0  0  0  0  0  1  0  0  0  0  0  0
  -25.4020  -36.4690   23.9630 C   0  0  0  0  0  3  0  0  0  0  0  0
  -27.5650  -37.3570   24.7140 C   0  0  0  0  0  1  0  0  0  0  0  0
  -26.4330  -37.5170   23.8070 N   0  0  0  0  0  0  0  0  0  0  0  0
  -26.0320  -38.4380   23.9620 H   0  0  0  0  0  0  0  0  0  0  0  0
  -28.4760  -19.1220   20.0850 C   0  0  0  0  0  2  0  0  0  0  0  0
  -31.5450  -19.3440   22.2860 C   0  0  0  0  0  3  0  0  0  0  0  0
  -31.7690  -18.0470   22.7490 C   0  0  0  0  0  3  0  0  0  0  0  0
  -30.4580  -19.5750   21.4420 C   0  0  0  0  0  3  0  0  0  0  0  0
  -30.9460  -16.9780   22.3390 C   0  0  0  0  0  0  0  0  0  0  0  0
  -29.6280  -18.5320   20.9560 C   0  0  0  0  0  0  0  0  0  0  0  0
  -29.9130  -17.1440   21.3470 C   0  0  0  0  0  0  0  0  0  0  0  0
  -31.2040  -15.6760   23.0840 C   0  0  0  0  0  1  0  0  0  0  0  0
  -29.7850  -14.9140   20.1050 C   0  0  0  0  0  0  0  0  0  0  0  0
  -29.5280  -12.7440   18.8890 C   0  0  0  0  0  2  0  0  0  0  0  0
  -28.4490  -12.8360   17.7920 C   0  0  0  0  0  2  0  0  0  0  0  0
  -27.0670  -12.4920   18.3730 C   0  0  0  0  0  2  0  0  0  0  0  0
  -26.7760  -13.2420   19.7020 C   0  0  0  0  0  3  0  0  0  0  0  0
  -27.9750  -13.2000   20.6840 C   0  0  0  0  0  2  0  0  0  0  0  0
  -29.1630  -13.6900   19.9710 N   0  0  0  0  0  0  0  0  0  0  0  0
  -30.8090  -15.1410   19.4580 O   0  0  0  0  0  0  0  0  0  0  0  0
  -29.2260  -15.9230   20.8700 N   0  0  0  0  0  0  0  0  0  0  0  0
  -28.2860  -15.7700   21.2040 H   0  0  0  0  0  0  0  0  0  0  0  0
  -24.4220  -13.5090   20.6860 C   0  0  0  0  0  0  0  0  0  0  0  0
  -23.5070  -12.6010   21.1440 C   0  0  0  0  0  0  0  0  0  0  0  0
  -24.1280  -11.3200   21.0260 C   0  0  0  0  0  0  0  0  0  0  0  0
  -25.5370  -12.7730   20.3200 N   0  0  0  0  0  0  0  0  0  0  0  0
  -25.3740  -11.4510   20.5850 N   0  0  0  0  0  0  0  0  0  0  0  0
  -23.5850   -9.9730   21.2560 C   0  0  0  0  0  0  0  0  0  0  0  0
  -24.1310   -9.1090   22.2310 C   0  0  0  0  0  3  0  0  0  0  0  0
  -23.5760   -7.8270   22.4450 C   0  0  0  0  0  3  0  0  0  0  0  0
  -22.4620   -7.3990   21.6830 C   0  0  0  0  0  0  0  0  0  0  0  0
  -21.9380   -8.2530   20.6970 C   0  0  0  0  0  3  0  0  0  0  0  0
  -22.4950   -9.5260   20.4810 C   0  0  0  0  0  3  0  0  0  0  0  0
  -21.8710   -6.1650   21.8060 O   0  0  0  0  0  0  0  0  0  0  0  0
  -21.8340   -5.5030   23.0080 C   0  0  0  0  0  0  0  0  0  0  0  0
  -21.2030   -6.0550   24.1450 C   0  0  0  0  0  3  0  0  0  0  0  0
  -21.1270   -5.3090   25.3400 C   0  0  0  0  0  3  0  0  0  0  0  0
  -21.6710   -4.0110   25.3950 C   0  0  0  0  0  0  0  0  0  0  0  0
  -22.2930   -3.4580   24.2610 C   0  0  0  0  0  3  0  0  0  0  0  0
  -22.3710   -4.2020   23.0710 C   0  0  0  0  0  0  0  0  0  0  0  0
  -22.9540   -3.6550   21.9780 F   0  0  0  0  0  0  0  0  0  0  0  0
  -21.5890   -3.2920   26.5390 F   0  0  0  0  0  0  0  0  0  0  0  0
  -22.0970  -12.8960   21.5700 C   0  0  0  0  0  0  0  0  0  0  0  0
  -21.5590  -12.1240   22.5070 N   0  0  0  0  0  0  0  0  0  0  0  0
  -21.4780  -13.8520   21.1060 O   0  0  0  0  0  0  0  0  0  0  0  0
  -22.0710  -11.3560   22.9150 H   0  0  0  0  0  0  0  0  0  0  0  0
  -20.6200  -12.3130   22.8270 H   0  0  0  0  0  0  0  0  0  0  0  0
  -24.3900  -14.8900   20.5310 N   0  0  0  0  0  0  0  0  0  0  0  0
  -23.5500  -15.4240   20.7260 H   0  0  0  0  0  0  0  0  0  0  0  0
  -25.1230  -15.4410   20.1060 H   0  0  0  0  0  0  0  0  0  0  0  0
  1  2  1  0
  1  4  1  0
  1  3  1  0
  3  5  1  0
  4 51  1  0
  6  4  1  0
  8  7  1  0
  8  3  1  0
  8  9  1  0
 10 12  1  0
 10  9  1  0
 11 22  2  0
 12 17  1  0
 13 21  1  0
 13 23  1  0
 14 20  1  0
 14 16  1  0
 15 21  1  0
 16 15  1  0
 17 16  2  0
 18 19  1  0
 18 12  2  0
 19 14  2  0
 20 13  1  0
 21 11  1  0
 23 25  2  0
 24 23  1  0
 26 24  1  0
 27 36  2  0
 27 32  1  0
 28 24  1  0
 28 32  1  0
 29 28  1  0
 30 31  1  0
 30 29  1  0
 31 27  1  0
 32 33  2  0
 33 34  1  0
 35 34  2  0
 36 35  1  0
 37 11  1  0
 37 42  1  0
 37 38  1  0
 38 41  1  1
 38 39  1  0
 40 38  1  0
 42 45  1  0
 43 47  1  0
 43 42  1  0
 44 43  2  0
 47 46  1  0
 49 50  1  0
 49 47  1  0
 49 48  1  0
 51 56  1  0
 52 53  1  0
 54 52  2  0
 55 53  2  0
 55 58  1  0
 56 57  2  0
 56 54  1  0
 57 55  1  0
 59 67  1  0
 60 65  1  0
 61 62  1  0
 61 60  1  0
 63 62  1  0
 63 72  1  0
 63 64  1  0
 65 59  1  0
 65 64  1  0
 66 59  2  0
 67 68  1  0
 67 57  1  0
 69 70  2  0
 70 89  1  0
 71 70  1  0
 71 74  1  0
 72 73  1  0
 72 69  1  0
 73 71  2  0
 74 75  1  0
 75 76  2  0
 77 80  1  0
 77 76  1  0
 78 77  2  0
 79 78  1  0
 79 74  2  0
 80 81  1  0
 81 86  2  0
 81 82  1  0
 82 83  2  0
 83 84  1  0
 84 88  1  0
 85 84  2  0
 86 85  1  0
 87 86  1  0
 89 90  1  0
 90 93  1  0
 90 92  1  0
 91 89  2  0
 94 69  1  0
 94 95  1  0
 96 94  1  0
M  ISO  4   9 101  10 101  59 100  67 100
M  END
>  <TORSDO>  (2) 
F 20

>  <SCORE>  (2) 
-10.305

>  <name>  (2) 
1

>  <ligand_id>  (2) 
1

>  <original_smiles>  (2) 
[H]c1c([H])c(C([H])([H])[H])c(N([H])C(=O)N2C([H])([H])C([H])([H])C([H])([H])C([H])(n3nc(-c4c([H])c([H])c(Oc5c([H])c([H])c(F)c([H])c5F)c([H])c4[H])c(C(=O)N([H])[H])c3N([H])[H])C2([H])[H])c(C([H])([H])[N+]([H])=C(N([H])C([H])(C([H])([H])[H])C([H])([H])Oc2c([H])c([H])c3c(c2[H])C([H])([H])N(C(=O)C([H])(N([H])C(=O)C([H])(N([H])C([H])([H])[H])C([H])([H])[H])C(C([H])([H])[H])(C([H])([H])[H])C([H])([H])[H])C([H])(C(=O)N([H])C2([H])c4c([H])c([H])c([H])c([H])c4C([H])([H])C([H])([H])C2([H])[H])C3([H])[H])C([H])([H])[H])c1[H]

>  <smiles>  (2) 
[H]c1c([H])c(C([H])([H])[H])c(N([H])C(=O)N2C([H])([H])C([H])([H])C([H])([H])C([H])(n3nc(-c4c([H])c([H])c(Oc5c([H])c([H])c(F)c([H])c5F)c([H])c4[H])c(C(=O)N([H])[H])c3N([H])[H])C2([H])[H])c(C([H])([H])[N+]([H])=C(N([H])C([H])(C([H])([H])[H])C([H])([H])Oc2c([H])c([H])c3c(c2[H])C([H])([H])N(C(=O)C([H])(N([H])C(=O)C([H])(N([H])C([H])([H])[H])C([H])([H])[H])C(C([H])([H])[H])(C([H])([H])[H])C([H])([H])[H])C([H])(C(=O)N([H])C2([H])c4c([H])c([H])c([H])c([H])c4C([H])([H])C([H])([H])C2([H])[H])C3([H])[H])C([H])([H])[H])c1[H]

$$$$
2:0:0
     RDKit          3D

 95103  0  0  1  0  0  0  0  0999 V2000
  -28.8730  -19.4660   20.7770 C   0  0  0  0  0  3  0  0  0  0  0  0
  -28.7940  -18.0410   20.7480 C   0  0  0  0  0  3  0  0  0  0  0  0
  -31.1760  -17.8980   20.5490 C   0  0  0  0  0  3  0  0  0  0  0  0
  -30.1080  -20.1650   20.6830 C   0  0  0  0  0  0  0  0  0  0  0  0
  -31.2790  -19.3260   20.6320 C   0  0  0  0  0  0  0  0  0  0  0  0
  -29.9420  -17.2120   20.6070 C   0  0  0  0  0  0  0  0  0  0  0  0
  -30.5800  -14.7300   20.1160 C   0  0  0  0  0  0  0  0  0  0  0  0
  -30.3150  -12.5340   18.9650 C   0  0  0  0  0  2  0  0  0  0  0  0
  -29.2970  -12.6910   17.8130 C   0  0  0  0  0  2  0  0  0  0  0  0
  -27.8530  -12.5140   18.3240 C   0  0  0  0  0  2  0  0  0  0  0  0
  -27.5680  -13.3430   19.6040 C   0  0  0  0  0  3  0  0  0  0  0  0
  -28.6860  -13.1430   20.6520 C   0  0  0  0  0  2  0  0  0  0  0  0
  -29.9600  -13.5110   20.0170 N   0  0  0  0  0  0  0  0  0  0  0  0
  -31.7120  -14.9060   19.6540 O   0  0  0  0  0  0  0  0  0  0  0  0
  -29.7990  -15.7540   20.5960 N   0  0  0  0  0  0  0  0  0  0  0  0
  -28.8990  -15.4220   20.9070 H   0  0  0  0  0  0  0  0  0  0  0  0
  -25.2240  -13.9280   20.4720 C   0  0  0  0  0  0  0  0  0  0  0  0
  -24.1790  -13.1470   20.8820 C   0  0  0  0  0  0  0  0  0  0  0  0
  -24.6350  -11.7950   20.7890 C   0  0  0  0  0  0  0  0  0  0  0  0
  -26.2490  -13.0520   20.1530 N   0  0  0  0  0  0  0  0  0  0  0  0
  -25.9040  -11.7640   20.4070 N   0  0  0  0  0  0  0  0  0  0  0  0
  -23.9200  -10.5290   20.9870 C   0  0  0  0  0  0  0  0  0  0  0  0
  -24.3820   -9.5530   21.8990 C   0  0  0  0  0  3  0  0  0  0  0  0
  -23.6650   -8.3520   22.0840 C   0  0  0  0  0  3  0  0  0  0  0  0
  -22.4730   -8.1160   21.3590 C   0  0  0  0  0  0  0  0  0  0  0  0
  -22.0310   -9.0790   20.4360 C   0  0  0  0  0  3  0  0  0  0  0  0
  -22.7470  -10.2740   20.2490 C   0  0  0  0  0  3  0  0  0  0  0  0
  -21.7280   -6.9660   21.4550 O   0  0  0  0  0  0  0  0  0  0  0  0
  -21.6840   -6.2310   22.6130 C   0  0  0  0  0  0  0  0  0  0  0  0
  -21.1950   -6.7730   23.8220 C   0  0  0  0  0  3  0  0  0  0  0  0
  -21.1040   -5.9610   24.9710 C   0  0  0  0  0  3  0  0  0  0  0  0
  -21.4930   -4.6090   24.9100 C   0  0  0  0  0  0  0  0  0  0  0  0
  -21.9760   -4.0670   23.7060 C   0  0  0  0  0  3  0  0  0  0  0  0
  -22.0680   -4.8760   22.5600 C   0  0  0  0  0  0  0  0  0  0  0  0
  -22.5150   -4.3440   21.3970 F   0  0  0  0  0  0  0  0  0  0  0  0
  -21.3970   -3.8270   26.0120 F   0  0  0  0  0  0  0  0  0  0  0  0
  -22.8000  -13.6170   21.2440 C   0  0  0  0  0  0  0  0  0  0  0  0
  -22.1200  -12.9000   22.1320 N   0  0  0  0  0  0  0  0  0  0  0  0
  -22.3350  -14.6540   20.7740 O   0  0  0  0  0  0  0  0  0  0  0  0
  -22.5070  -12.0570   22.5310 H   0  0  0  0  0  0  0  0  0  0  0  0
  -21.1990  -13.2000   22.4210 H   0  0  0  0  0  0  0  0  0  0  0  0
  -25.3830  -15.3040   20.3210 N   0  0  0  0  0  0  0  0  0  0  0  0
  -24.6250  -15.9570   20.4950 H   0  0  0  0  0  0  0  0  0  0  0  0
  -26.1960  -15.7400   19.9100 H   0  0  0  0  0  0  0  0  0  0  0  0
  -33.2120  -20.2750   19.2890 C   0  0  0  0  0  1  0  0  0  0  0  0
  -32.7040  -19.8920   20.6790 C   0  0  2  0  0  0  0  0  0  0  0  0
  -33.5450  -18.9720   21.1590 F   0  0  0  0  0  0  0  0  0  0  0  0
  -32.8020  -20.9360   21.5040 F   0  0  0  0  0  0  0  0  0  0  0  0
  -30.2130  -21.7510   20.7560 C   0  0  0  0  0  2  0  0  0  0  0  0
  -29.2670  -24.1020   20.5060 C   0  0  0  0  0  0  0  0  0  0  0  0
  -28.3270  -22.2680   19.1350 C   0  0  0  0  0  1  0  0  0  0  0  0
  -29.2230  -22.7490   20.1890 N   0  0  0  0  0  0  0  0  0  0  0  0
  -30.1140  -24.5380   21.2970 O   0  0  0  0  0  0  0  0  0  0  0  0
  -28.2370  -25.1370   19.8890 C   0  0  0  0  0  2  0  0  0  0  0  0
  -28.3760  -26.5600   20.2920 O   0  0  0  0  0  0  0  0  0  0  0  0
  -24.5800  -31.9230   23.2470 C   0  0  0  0  0  0  0  0  0  0  0  0
  -27.2460  -27.3920   20.2080 C   0  0  0  0  0  0  0  0  0  0  0  0
  -23.3930  -30.5160   21.6030 C   0  0  0  0  0  3  0  0  0  0  0  0
  -24.8600  -28.9770   20.1850 C   0  0  0  0  0  0  0  0  0  0  0  0
  -25.9290  -30.8560   21.4310 C   0  0  0  0  0  2  0  0  0  0  0  0
  -26.0220  -29.4790   20.7840 C   0  0  0  0  0  0  0  0  0  0  0  0
  -27.2170  -28.7000   20.7840 C   0  0  0  0  0  3  0  0  0  0  0  0
  -26.0580  -26.9460   19.5770 C   0  0  0  0  0  3  0  0  0  0  0  0
  -24.8790  -27.7140   19.5760 C   0  0  0  0  0  3  0  0  0  0  0  0
  -23.6170  -29.8400   20.2250 C   0  0  0  0  0  2  0  0  0  0  0  0
  -24.6520  -31.1150   22.1510 N   0  0  0  0  0  0  0  0  0  0  0  0
  -23.4930  -32.1970   23.7770 O   0  0  0  0  0  0  0  0  0  0  0  0
  -22.7320  -29.4970   22.5600 C   0  0  0  0  0  0  0  0  0  0  0  0
  -21.4050  -29.3140   22.4290 N   0  0  0  0  0  0  0  0  0  0  0  0
  -23.4100  -28.8710   23.3800 O   0  0  0  0  0  0  0  0  0  0  0  0
  -20.9160  -29.8730   21.7430 H   0  0  0  0  0  0  0  0  0  0  0  0
  -18.0290  -28.1250   22.9420 C   0  0  0  0  0  0  0  0  0  0  0  0
  -20.5900  -28.3750   23.1980 C   0  0  0  0  0  3  0  0  0  0  0  0
  -20.6830  -26.9460   22.6140 C   0  0  0  0  0  2  0  0  0  0  0  0
  -19.5760  -26.6340   21.6020 C   0  0  0  0  0  2  0  0  0  0  0  0
  -18.1980  -26.7810   22.2550 C   0  0  0  0  0  2  0  0  0  0  0  0
  -19.1530  -28.8800   23.3710 C   0  0  0  0  0  0  0  0  0  0  0  0
  -18.9440  -30.1390   23.9740 C   0  0  0  0  0  3  0  0  0  0  0  0
  -17.6430  -30.6470   24.1480 C   0  0  0  0  0  3  0  0  0  0  0  0
  -16.5320  -29.8900   23.7360 C   0  0  0  0  0  3  0  0  0  0  0  0
  -16.7260  -28.6290   23.1410 C   0  0  0  0  0  3  0  0  0  0  0  0
  -25.8580  -32.5640   23.8730 C   0  0  0  0  0  3  0  0  0  0  0  0
  -26.3750  -31.7960   25.1520 C   0  0  1  0  0  0  0  0  0  0  0  0
  -25.2760  -31.5470   26.2110 C   0  0  0  0  0  1  0  0  0  0  0  0
  -26.9750  -30.4240   24.7680 C   0  0  0  0  0  1  0  0  0  0  0  0
  -27.5090  -32.6060   25.8240 C   0  0  0  0  0  1  0  0  0  0  0  0
  -25.5380  -33.9600   24.2020 N   0  0  0  0  0  0  0  0  0  0  0  0
  -25.8500  -35.0130   23.4360 C   0  0  0  0  0  0  0  0  0  0  0  0
  -26.5070  -34.9130   22.3960 O   0  0  0  0  0  0  0  0  0  0  0  0
  -24.9440  -34.1060   25.0050 H   0  0  0  0  0  0  0  0  0  0  0  0
  -24.0990  -36.7900   23.1030 C   0  0  0  0  0  1  0  0  0  0  0  0
  -25.3570  -36.3980   23.8960 C   0  0  0  0  0  3  0  0  0  0  0  0
  -27.4900  -37.3130   24.7010 C   0  0  0  0  0  1  0  0  0  0  0  0
  -26.3770  -37.4610   23.7670 N   0  0  0  0  0  0  0  0  0  0  0  0
  -25.9630  -38.3780   23.9190 H   0  0  0  0  0  0  0  0  0  0  0  0
  2  1  1  0
  3  6  1  0
  3  5  2  0
  4 49  1  0
  4  1  2  0
  5 46  1  0
  5  4  1  0
  6  2  2  0
  7 15  1  0
  8 13  1  0
  9 10  1  0
  9  8  1  0
 11 10  1  0
 11 20  1  0
 11 12  1  0
 13  7  1  0
 13 12  1  0
 14  7  2  0
 15  6  1  0
 15 16  1  0
 17 18  2  0
 18 37  1  0
 19 18  1  0
 19 22  1  0
 20 21  1  0
 20 17  1  0
 21 19  2  0
 22 23  1  0
 23 24  2  0
 25 28  1  0
 25 24  1  0
 26 25  2  0
 27 26  1  0
 27 22  2  0
 28 29  1  0
 29 30  1  0
 30 31  2  0
 32 31  1  0
 32 36  1  0
 33 32  2  0
 34 29  2  0
 34 33  1  0
 35 34  1  0
 37 38  1  0
 38 41  1  0
 38 40  1  0
 39 37  2  0
 42 17  1  0
 42 43  1  0
 44 42  1  0
 46 45  1  6
 46 47  1  0
 46 48  1  0
 50 53  2  0
 51 52  1  0
 52 50  1  0
 52 49  1  0
 54 55  1  0
 54 50  1  0
 56 67  2  0
 57 55  1  0
 57 62  1  0
 58 66  1  0
 58 68  1  0
 59 65  1  0
 59 61  1  0
 60 66  1  0
 61 62  2  0
 61 60  1  0
 63 57  2  0
 64 63  1  0
 64 59  2  0
 65 58  1  0
 66 56  1  0
 68 70  2  0
 69 68  1  0
 71 69  1  0
 72 81  2  0
 72 77  1  0
 73 69  1  0
 73 77  1  0
 74 73  1  0
 75 76  1  0
 75 74  1  0
 76 72  1  0
 77 78  2  0
 78 79  1  0
 80 79  2  0
 81 80  1  0
 82 56  1  0
 82 87  1  0
 82 83  1  0
 83 86  1  1
 83 84  1  0
 85 83  1  0
 87 90  1  0
 88 92  1  0
 88 87  1  0
 89 88  2  0
 92 91  1  0
 94 92  1  0
 94 95  1  0
 94 93  1  0
M  ISO  4   7 100  15 100  54 101  55 101
M  END
>  <TORSDO>  (3) 
F 20

>  <SCORE>  (3) 
-14.157

>  <name>  (3) 
2

>  <ligand_id>  (3) 
2

>  <original_smiles>  (3) 
[H]c1c([H])c([H])c2c(c1[H])C([H])([H])C([H])([H])C([H])([H])C2([H])N([H])C(=O)C1([H])N(C(=O)C([H])(N([H])C(=O)C([H])(N([H])C([H])([H])[H])C([H])([H])[H])C(C([H])([H])[H])(C([H])([H])[H])C([H])([H])[H])C([H])([H])c2c([H])c(OC([H])([H])C(=O)N(C([H])([H])[H])C([H])([H])c3c([H])c([H])c(N([H])C(=O)N4C([H])([H])C([H])([H])C([H])([H])C([H])(n5nc(-c6c([H])c([H])c(Oc7c([H])c([H])c(F)c([H])c7F)c([H])c6[H])c(C(=O)N([H])[H])c5N([H])[H])C4([H])[H])c([H])c3C(F)(F)C([H])([H])[H])c([H])c([H])c2C1([H])[H]

>  <smiles>  (3) 
[H]c1c([H])c([H])c2c(c1[H])C([H])([H])C([H])([H])C([H])([H])C2([H])N([H])C(=O)C1([H])N(C(=O)C([H])(N([H])C(=O)C([H])(N([H])C([H])([H])[H])C([H])([H])[H])C(C([H])([H])[H])(C([H])([H])[H])C([H])([H])[H])C([H])([H])c2c([H])c(OC([H])([H])C(=O)N(C([H])([H])[H])C([H])([H])c3c([H])c([H])c(N([H])C(=O)N4C([H])([H])C([H])([H])C([H])([H])C([H])(n5nc(-c6c([H])c([H])c(Oc7c([H])c([H])c(F)c([H])c7F)c([H])c6[H])c(C(=O)N([H])[H])c5N([H])[H])C4([H])[H])c([H])c3C(F)(F)C([H])([H])[H])c([H])c([H])c2C1([H])[H]

$$$$
3:0:0
     RDKit          3D

 94 94  0  0  1  0  0  0  0  0999 V2000
  -27.8320  -20.0580   19.7470 C   0  0  0  0  0  2  0  0  0  0  0  0
  -28.5380  -18.6180   19.8640 N   0  0  0  0  0  0  0  0  0  0  0  0
  -26.6450  -19.9130   19.4420 O   0  0  0  0  0  1  0  0  0  0  0  0
  -29.5020  -18.7810   20.1130 H   0  0  0  0  0  0  0  0  0  0  0  0
  -28.2370  -22.0120   19.9460 C   0  0  0  0  0  2  0  0  0  0  0  0
  -29.6810  -22.1380   20.3720 C   0  0  0  0  0  1  0  0  0  0  0  0
  -27.5600  -23.3840   19.8420 N   0  0  0  0  0  2  0  0  0  0  0  0
  -28.0120  -25.1320   20.0250 O   0  0  0  0  0  0  0  0  0  0  0  0
  -24.6460  -31.6750   23.0150 C   0  0  0  0  0  0  0  0  0  0  0  0
  -27.1380  -26.4570   20.0230 C   0  0  0  0  0  0  0  0  0  0  0  0
  -23.5130  -30.2910   21.3440 C   0  0  0  0  0  3  0  0  0  0  0  0
  -24.9750  -28.6360   19.9450 C   0  0  0  0  0  0  0  0  0  0  0  0
  -26.0990  -30.3630   21.3130 C   0  0  0  0  0  2  0  0  0  0  0  0
  -26.1550  -28.9220   20.6410 C   0  0  0  0  0  0  0  0  0  0  0  0
  -27.2220  -27.8560   20.6510 C   0  0  0  0  0  3  0  0  0  0  0  0
  -25.9460  -26.4340   19.2660 C   0  0  0  0  0  3  0  0  0  0  0  0
  -24.9210  -27.4240   19.2360 C   0  0  0  0  0  3  0  0  0  0  0  0
  -23.7890  -29.6150   19.9710 C   0  0  0  0  0  2  0  0  0  0  0  0
  -24.7810  -30.8150   21.9430 N   0  0  0  0  0  0  0  0  0  0  0  0
  -23.5330  -31.9770   23.4820 O   0  0  0  0  0  0  0  0  0  0  0  0
  -22.7630  -29.3050   22.2820 C   0  0  0  0  0  0  0  0  0  0  0  0
  -21.4230  -29.2150   22.1730 N   0  0  0  0  0  0  0  0  0  0  0  0
  -23.3990  -28.6210   23.0880 O   0  0  0  0  0  0  0  0  0  0  0  0
  -20.9570  -29.8210   21.5120 H   0  0  0  0  0  0  0  0  0  0  0  0
  -17.9870  -28.1770   22.7530 C   0  0  0  0  0  0  0  0  0  0  0  0
  -20.5690  -28.2810   22.9180 C   0  0  0  0  0  3  0  0  0  0  0  0
  -20.5590  -26.8850   22.2520 C   0  0  0  0  0  2  0  0  0  0  0  0
  -19.4000  -26.6940   21.2680 C   0  0  0  0  0  2  0  0  0  0  0  0
  -18.0570  -26.8710   21.9790 C   0  0  0  0  0  2  0  0  0  0  0  0
  -19.1660  -28.8470   23.1800 C   0  0  0  0  0  0  0  0  0  0  0  0
  -19.0390  -30.0720   23.8710 C   0  0  0  0  0  3  0  0  0  0  0  0
  -17.7720  -30.6260   24.1340 C   0  0  0  0  0  3  0  0  0  0  0  0
  -16.6100  -29.9520   23.7170 C   0  0  0  0  0  3  0  0  0  0  0  0
  -16.7200  -28.7280   23.0330 C   0  0  0  0  0  3  0  0  0  0  0  0
  -25.8770  -32.3360   23.7030 C   0  0  0  0  0  3  0  0  0  0  0  0
  -26.3340  -31.5720   25.0070 C   0  0  1  0  0  0  0  0  0  0  0  0
  -25.1980  -31.3450   26.0330 C   0  0  0  0  0  1  0  0  0  0  0  0
  -26.9210  -30.1890   24.6570 C   0  0  0  0  0  1  0  0  0  0  0  0
  -27.4590  -32.3660   25.7120 C   0  0  0  0  0  1  0  0  0  0  0  0
  -25.5250  -33.7310   24.0460 N   0  0  0  0  0  0  0  0  0  0  0  0
  -25.8970  -34.8180   23.3550 C   0  0  0  0  0  0  0  0  0  0  0  0
  -26.6260  -34.7540   22.3620 O   0  0  0  0  0  0  0  0  0  0  0  0
  -24.8820  -33.8520   24.8140 H   0  0  0  0  0  0  0  0  0  0  0  0
  -24.1960  -36.6440   22.9760 C   0  0  0  0  0  1  0  0  0  0  0  0
  -25.3850  -36.1930   23.8400 C   0  0  0  0  0  3  0  0  0  0  0  0
  -27.4650  -37.0540   24.8310 C   0  0  0  0  0  1  0  0  0  0  0  0
  -26.4230  -37.2490   23.8270 N   0  0  0  0  0  0  0  0  0  0  0  0
  -26.0060  -38.1640   23.9770 H   0  0  0  0  0  0  0  0  0  0  0  0
  -28.2400  -16.7780   19.8120 C   0  0  0  0  0  1  0  0  0  0  0  0
  -29.5710  -11.8050   20.7710 C   0  0  0  0  0  1  0  0  0  0  0  0
  -29.1230  -12.6110   19.7540 C   0  0  0  0  0  2  0  0  0  0  0  0
  -28.8680  -12.9200   20.4510 C   0  0  0  0  0  2  0  0  0  0  0  0
  -29.4180  -14.3280   18.8480 C   0  0  0  0  0  3  0  0  0  0  0  0
  -29.0960  -14.9880   19.6330 C   0  0  0  0  0  2  0  0  0  0  0  0
  -30.1260  -15.4830   18.8730 C   0  0  0  0  0  3  0  0  0  0  0  0
  -31.0310  -16.4330   19.7040 C   0  0  0  0  0  2  0  0  0  0  0  0
  -31.5680  -15.0240   21.3830 C   0  0  0  0  0  0  0  0  0  0  0  0
  -31.4500  -13.0800   19.5840 C   0  0  0  0  0 15  0  0  0  0  0  0
  -30.1750  -12.3460   17.7660 C   0  0  0  0  0 15  0  0  0  0  0  0
  -27.8390  -12.8140   18.0060 C   0  0  0  0  0 15  0  0  0  0  0  0
  -27.0680  -13.9160   19.8600 C   0  0  0  0  0  1  0  0  0  0  0  0
  -28.6640  -14.6080   21.7900 C   0  0  0  0  0 15  0  0  0  0  0  0
  -30.6930  -14.1010   21.2560 N   0  0  0  0  0  1  0  0  0  0  0  0
  -32.7160  -14.8450   21.0340 O   0  0  0  0  0  0  0  0  0  0  0  0
  -31.0180  -16.1910   21.1410 N   0  0  0  0  0  0  0  0  0  0  0  0
  -30.1170  -16.3150   21.5760 H   0  0  0  0  0  0  0  0  0  0  0  0
  -25.0240  -13.8590   20.8520 C   0  0  0  0  0  0  0  0  0  0  0  0
  -24.0940  -12.9360   21.0930 C   0  0  0  0  0  0  0  0  0  0  0  0
  -24.6850  -11.6380   20.9650 C   0  0  0  0  0  0  0  0  0  0  0  0
  -26.0450  -13.1470   20.4170 N   0  0  0  0  0  0  0  0  0  0  0  0
  -25.9480  -11.7780   20.5590 N   0  0  0  0  0  0  0  0  0  0  0  0
  -24.0360  -10.3240   21.1070 C   0  0  0  0  0  0  0  0  0  0  0  0
  -24.4530   -9.3560   22.0490 C   0  0  0  0  0  3  0  0  0  0  0  0
  -23.7180   -8.1580   22.2170 C   0  0  0  0  0  3  0  0  0  0  0  0
  -22.5560   -7.9230   21.4440 C   0  0  0  0  0  0  0  0  0  0  0  0
  -22.1640   -8.8760   20.4910 C   0  0  0  0  0  3  0  0  0  0  0  0
  -22.8960  -10.0610   20.3220 C   0  0  0  0  0  3  0  0  0  0  0  0
  -21.7890   -6.7850   21.5130 O   0  0  0  0  0  0  0  0  0  0  0  0
  -21.7020   -6.0410   22.6610 C   0  0  0  0  0  0  0  0  0  0  0  0
  -21.2220   -6.5860   23.8710 C   0  0  0  0  0  3  0  0  0  0  0  0
  -21.0930   -5.7660   25.0080 C   0  0  0  0  0  3  0  0  0  0  0  0
  -21.4280   -4.4000   24.9350 C   0  0  0  0  0  0  0  0  0  0  0  0
  -21.8970   -3.8540   23.7280 C   0  0  0  0  0  3  0  0  0  0  0  0
  -22.0320   -4.6720   22.5930 C   0  0  0  0  0  0  0  0  0  0  0  0
  -22.4690   -4.1400   21.4260 F   0  0  0  0  0  0  0  0  0  0  0  0
  -21.2930   -3.6100   26.0230 F   0  0  0  0  0  0  0  0  0  0  0  0
  -22.6910  -13.3340   21.2840 C   0  0  0  0  0  0  0  0  0  0  0  0
  -21.9720  -12.6230   22.1300 N   0  0  0  0  0  0  0  0  0  0  0  0
  -22.2630  -14.3400   20.7150 O   0  0  0  0  0  0  0  0  0  0  0  0
  -22.3520  -11.8150   22.6020 H   0  0  0  0  0  0  0  0  0  0  0  0
  -21.0130  -12.8830   22.3130 H   0  0  0  0  0  0  0  0  0  0  0  0
  -25.0540  -15.2580   20.8680 N   0  0  0  0  0  0  0  0  0  0  0  0
  -24.1990  -15.7870   21.0260 H   0  0  0  0  0  0  0  0  0  0  0  0
  -25.8240  -15.8400   20.5790 H   0  0  0  0  0  0  0  0  0  0  0  0
  1  2  1  0
  2  4  1  0
  3  1  1  0
  5  6  1  0
  7  5  1  0
  7  8  1  0
  9 20  2  0
 10  8  1  0
 10 15  1  0
 11 19  1  0
 11 21  1  0
 12 18  1  0
 12 14  1  0
 13 19  1  0
 14 15  2  0
 14 13  1  0
 16 10  2  0
 17 16  1  0
 17 12  2  0
 18 11  1  0
 19  9  1  0
 21 23  2  0
 22 21  1  0
 24 22  1  0
 25 34  2  0
 25 30  1  0
 26 22  1  0
 26 30  1  0
 27 26  1  0
 28 29  1  0
 28 27  1  0
 29 25  1  0
 30 31  2  0
 31 32  1  0
 33 32  2  0
 34 33  1  0
 35  9  1  0
 35 40  1  0
 35 36  1  0
 36 39  1  1
 36 37  1  0
 38 36  1  0
 40 43  1  0
 41 45  1  0
 41 40  1  0
 42 41  2  0
 45 44  1  0
 47 45  1  0
 47 48  1  0
 47 46  1  0
 49  2  1  0
 51 52  1  0
 52 50  1  0
 53 55  1  0
 53 54  1  0
 53 51  1  0
 55 54  1  0
 55 56  1  0
 56 65  1  0
 61 70  1  0
 63 57  1  0
 64 57  2  0
 65 57  1  0
 65 66  1  0
 67 92  1  0
 67 68  2  0
 68 87  1  0
 69 68  1  0
 69 72  1  0
 70 71  1  0
 70 67  1  0
 71 69  2  0
 72 73  1  0
 73 74  2  0
 75 78  1  0
 75 74  1  0
 76 75  2  0
 77 76  1  0
 77 72  2  0
 78 79  1  0
 79 80  1  0
 80 81  2  0
 82 81  1  0
 82 86  1  0
 83 82  2  0
 84 79  2  0
 84 83  1  0
 85 84  1  0
 87 88  1  0
 88 91  1  0
 88 90  1  0
 89 87  2  0
 92 93  1  0
 94 92  1  0
M  ISO  4   7 101   8 101  57 100  65 100
M  END
>  <TORSDO>  (4) 
F 20

>  <SCORE>  (4) 
-14.490

>  <name>  (4) 
3

>  <ligand_id>  (4) 
3

>  <original_smiles>  (4) 
[H]c1c([H])c([H])c(C([H])([H])N([H])C(=O)N2C([H])([H])C([H])([H])C([H])([H])C([H])(n3nc(-c4c([H])c([H])c(Oc5c([H])c([H])c(F)c([H])c5F)c([H])c4[H])c(C(=O)N([H])[H])c3N([H])[H])C2([H])[H])c(C([H])([H])N([H])C(=O)C(=NOc2c([H])c([H])c3c(c2[H])C([H])([H])N(C(=O)C([H])(N([H])C(=O)C([H])(N([H])C([H])([H])[H])C([H])([H])[H])C(C([H])([H])[H])(C([H])([H])[H])C([H])([H])[H])C([H])(C(=O)N([H])C2([H])c4c([H])c([H])c([H])c([H])c4C([H])([H])C([H])([H])C2([H])[H])C3([H])[H])C([H])([H])[H])c1[H]

>  <smiles>  (4) 
[H]c1c([H])c([H])c(C([H])([H])N([H])C(=O)N2C([H])([H])C([H])([H])C([H])([H])C([H])(n3nc(-c4c([H])c([H])c(Oc5c([H])c([H])c(F)c([H])c5F)c([H])c4[H])c(C(=O)N([H])[H])c3N([H])[H])C2([H])[H])c(C([H])([H])N([H])C(=O)C(=NOc2c([H])c([H])c3c(c2[H])C([H])([H])N(C(=O)C([H])(N([H])C(=O)C([H])(N([H])C([H])([H])[H])C([H])([H])[H])C(C([H])([H])[H])(C([H])([H])[H])C([H])([H])[H])C([H])(C(=O)N([H])C2([H])c4c([H])c([H])c([H])c([H])c4C([H])([H])C([H])([H])C2([H])[H])C3([H])[H])C([H])([H])[H])c1[H]

$$$$
4:0:0
     RDKit          3D

 97106  0  0  1  0  0  0  0  0999 V2000
  -29.2480  -22.1390   22.2680 C   0  0  0  0  0  0  0  0  0  0  0  0
  -29.2360  -23.0340   20.0480 C   0  0  0  0  0  0  0  0  0  0  0  0
  -29.5600  -23.5200   22.8530 C   0  0  0  0  0  2  0  0  0  0  0  0
  -28.8760  -24.6160   22.0390 C   0  0  0  0  0  2  0  0  0  0  0  0
  -29.2360  -24.5150   20.5480 C   0  0  0  0  0  3  0  0  0  0  0  0
  -29.2120  -21.9710   20.9170 N   0  0  0  0  0  0  0  0  0  0  0  0
  -29.0630  -21.2120   23.0640 O   0  0  0  0  0  0  0  0  0  0  0  0
  -29.2560  -22.8610   18.8250 O   0  0  0  0  0  0  0  0  0  0  0  0
  -28.9900  -20.5880   20.3910 C   0  0  0  0  0  2  0  0  0  0  0  0
  -32.3560  -18.6650   20.8940 C   0  0  0  0  0  3  0  0  0  0  0  0
  -31.9180  -17.3350   20.9330 C   0  0  0  0  0  3  0  0  0  0  0  0
  -31.4540  -19.7250   20.6840 C   0  0  0  0  0  0  0  0  0  0  0  0
  -30.0540  -19.4620   20.5810 C   0  0  0  0  0  0  0  0  0  0  0  0
  -29.6230  -18.0900   20.5890 C   0  0  0  0  0  0  0  0  0  0  0  0
  -30.5580  -17.0210   20.7360 C   0  0  0  0  0  0  0  0  0  0  0  0
  -32.0680  -21.1080   20.5350 C   0  0  0  0  0  1  0  0  0  0  0  0
  -28.1440  -17.7520   20.4020 C   0  0  0  0  0  1  0  0  0  0  0  0
  -30.7460  -14.6300   20.0540 C   0  0  0  0  0  0  0  0  0  0  0  0
  -30.3550  -12.4750   18.9140 C   0  0  0  0  0  2  0  0  0  0  0  0
  -29.3480  -12.6750   17.7630 C   0  0  0  0  0  2  0  0  0  0  0  0
  -27.9040  -12.5260   18.2770 C   0  0  0  0  0  2  0  0  0  0  0  0
  -27.6350  -13.3660   19.5550 C   0  0  0  0  0  3  0  0  0  0  0  0
  -28.7540  -13.1670   20.6030 C   0  0  0  0  0  2  0  0  0  0  0  0
  -30.0440  -13.4660   19.9580 N   0  0  0  0  0  0  0  0  0  0  0  0
  -31.8250  -14.7880   19.4750 O   0  0  0  0  0  0  0  0  0  0  0  0
  -30.1430  -15.6440   20.7140 N   0  0  0  0  0  0  0  0  0  0  0  0
  -29.2190  -15.4410   21.0610 H   0  0  0  0  0  0  0  0  0  0  0  0
  -25.2910  -13.9630   20.4310 C   0  0  0  0  0  0  0  0  0  0  0  0
  -24.2430  -13.1850   20.8460 C   0  0  0  0  0  0  0  0  0  0  0  0
  -24.6910  -11.8340   20.7460 C   0  0  0  0  0  0  0  0  0  0  0  0
  -26.3130  -13.0840   20.1100 N   0  0  0  0  0  0  0  0  0  0  0  0
  -25.9590  -11.7960   20.3550 N   0  0  0  0  0  0  0  0  0  0  0  0
  -23.9690  -10.5700   20.9420 C   0  0  0  0  0  0  0  0  0  0  0  0
  -24.4120   -9.6020   21.8700 C   0  0  0  0  0  3  0  0  0  0  0  0
  -23.6890   -8.4040   22.0550 C   0  0  0  0  0  3  0  0  0  0  0  0
  -22.5090   -8.1650   21.3130 C   0  0  0  0  0  0  0  0  0  0  0  0
  -22.0850   -9.1220   20.3730 C   0  0  0  0  0  3  0  0  0  0  0  0
  -22.8080  -10.3110   20.1870 C   0  0  0  0  0  3  0  0  0  0  0  0
  -21.7570   -7.0190   21.4070 O   0  0  0  0  0  0  0  0  0  0  0  0
  -21.6800   -6.3040   22.5740 C   0  0  0  0  0  0  0  0  0  0  0  0
  -21.1980   -6.8780   23.7700 C   0  0  0  0  0  3  0  0  0  0  0  0
  -21.0710   -6.0870   24.9310 C   0  0  0  0  0  3  0  0  0  0  0  0
  -21.4150   -4.7230   24.8940 C   0  0  0  0  0  0  0  0  0  0  0  0
  -21.8900   -4.1480   23.7020 C   0  0  0  0  0  3  0  0  0  0  0  0
  -22.0190   -4.9350   22.5450 C   0  0  0  0  0  0  0  0  0  0  0  0
  -22.4570   -4.3710   21.3940 F   0  0  0  0  0  0  0  0  0  0  0  0
  -21.2850   -3.9600   26.0050 F   0  0  0  0  0  0  0  0  0  0  0  0
  -22.8700  -13.6630   21.2220 C   0  0  0  0  0  0  0  0  0  0  0  0
  -22.1860  -12.9340   22.0970 N   0  0  0  0  0  0  0  0  0  0  0  0
  -22.4140  -14.7160   20.7760 O   0  0  0  0  0  0  0  0  0  0  0  0
  -22.5690  -12.0810   22.4770 H   0  0  0  0  0  0  0  0  0  0  0  0
  -21.2690  -13.2330   22.3920 H   0  0  0  0  0  0  0  0  0  0  0  0
  -25.4490  -15.3360   20.2790 N   0  0  0  0  0  0  0  0  0  0  0  0
  -24.6840  -15.9840   20.4370 H   0  0  0  0  0  0  0  0  0  0  0  0
  -26.2550  -15.7720   19.8540 H   0  0  0  0  0  0  0  0  0  0  0  0
  -28.2940  -25.4210   19.7020 C   0  0  0  0  0  2  0  0  0  0  0  0
  -28.3240  -26.8160   20.0830 O   0  0  0  0  0  0  0  0  0  0  0  0
  -24.5150  -31.9540   23.2230 C   0  0  0  0  0  0  0  0  0  0  0  0
  -27.1470  -27.5510   20.0510 C   0  0  0  0  0  0  0  0  0  0  0  0
  -23.2990  -30.5690   21.5770 C   0  0  0  0  0  3  0  0  0  0  0  0
  -24.7450  -29.0660   20.1100 C   0  0  0  0  0  0  0  0  0  0  0  0
  -25.8240  -30.9370   21.3620 C   0  0  0  0  0  2  0  0  0  0  0  0
  -25.9080  -29.5760   20.7000 C   0  0  0  0  0  0  0  0  0  0  0  0
  -27.1080  -28.8240   20.6730 C   0  0  0  0  0  3  0  0  0  0  0  0
  -25.9660  -27.0800   19.4270 C   0  0  0  0  0  3  0  0  0  0  0  0
  -24.7710  -27.8180   19.4710 C   0  0  0  0  0  3  0  0  0  0  0  0
  -23.4970  -29.9160   20.1830 C   0  0  0  0  0  2  0  0  0  0  0  0
  -24.5650  -31.1680   22.1120 N   0  0  0  0  0  0  0  0  0  0  0  0
  -23.4380  -32.2130   23.7790 O   0  0  0  0  0  0  0  0  0  0  0  0
  -22.6670  -29.5280   22.5280 C   0  0  0  0  0  0  0  0  0  0  0  0
  -21.3540  -29.2960   22.3750 N   0  0  0  0  0  0  0  0  0  0  0  0
  -23.3560  -28.9310   23.3600 O   0  0  0  0  0  0  0  0  0  0  0  0
  -20.8560  -29.8330   21.6790 H   0  0  0  0  0  0  0  0  0  0  0  0
  -18.0280  -27.9370   22.7650 C   0  0  0  0  0  0  0  0  0  0  0  0
  -20.5550  -28.3330   23.1340 C   0  0  0  0  0  3  0  0  0  0  0  0
  -20.7540  -26.8970   22.5960 C   0  0  0  0  0  2  0  0  0  0  0  0
  -19.7130  -26.4950   21.5470 C   0  0  0  0  0  2  0  0  0  0  0  0
  -18.3000  -26.5830   22.1310 C   0  0  0  0  0  2  0  0  0  0  0  0
  -19.0870  -28.7650   23.2210 C   0  0  0  0  0  0  0  0  0  0  0  0
  -18.7800  -30.0280   23.7730 C   0  0  0  0  0  3  0  0  0  0  0  0
  -17.4460  -30.4650   23.8730 C   0  0  0  0  0  3  0  0  0  0  0  0
  -16.4000  -29.6350   23.4340 C   0  0  0  0  0  3  0  0  0  0  0  0
  -16.6920  -28.3730   22.8850 C   0  0  0  0  0  3  0  0  0  0  0  0
  -25.8030  -32.5860   23.8360 C   0  0  0  0  0  3  0  0  0  0  0  0
  -26.3250  -31.8190   25.1130 C   0  0  1  0  0  0  0  0  0  0  0  0
  -25.2320  -31.5740   26.1800 C   0  0  0  0  0  1  0  0  0  0  0  0
  -26.9170  -30.4460   24.7200 C   0  0  0  0  0  1  0  0  0  0  0  0
  -27.4700  -32.6220   25.7740 C   0  0  0  0  0  1  0  0  0  0  0  0
  -25.4980  -33.9860   24.1600 N   0  0  0  0  0  0  0  0  0  0  0  0
  -25.8050  -35.0310   23.3790 C   0  0  0  0  0  0  0  0  0  0  0  0
  -26.4460  -34.9180   22.3310 O   0  0  0  0  0  0  0  0  0  0  0  0
  -24.9250  -34.1480   24.9750 H   0  0  0  0  0  0  0  0  0  0  0  0
  -24.0440  -36.8000   23.0670 C   0  0  0  0  0  1  0  0  0  0  0  0
  -25.3220  -36.4220   23.8340 C   0  0  0  0  0  3  0  0  0  0  0  0
  -27.4770  -37.3430   24.5660 C   0  0  0  0  0  1  0  0  0  0  0  0
  -26.3390  -37.4820   23.6620 N   0  0  0  0  0  0  0  0  0  0  0  0
  -25.9290  -38.4010   23.8080 H   0  0  0  0  0  0  0  0  0  0  0  0
  1  3  1  0
  1  7  2  0
  2  5  1  0
  2  6  1  0
  4  3  1  0
  5 56  1  0
  5  4  1  0
  6  1  1  0
  8  2  2  0
  9 13  1  0
  9  6  1  0
 10 11  1  0
 12 10  2  0
 13 14  2  0
 13 12  1  0
 14 15  1  0
 15 11  2  0
 16 12  1  0
 17 14  1  0
 18 26  1  0
 19 24  1  0
 20 21  1  0
 20 19  1  0
 22 21  1  0
 22 31  1  0
 22 23  1  0
 24 18  1  0
 24 23  1  0
 25 18  2  0
 26 15  1  0
 26 27  1  0
 28 29  2  0
 29 48  1  0
 30 29  1  0
 30 33  1  0
 31 32  1  0
 31 28  1  0
 32 30  2  0
 33 34  1  0
 34 35  2  0
 36 39  1  0
 36 35  1  0
 37 36  2  0
 38 37  1  0
 38 33  2  0
 39 40  1  0
 40 41  1  0
 41 42  2  0
 43 42  1  0
 43 47  1  0
 44 43  2  0
 45 40  2  0
 45 44  1  0
 46 45  1  0
 48 49  1  0
 49 52  1  0
 49 51  1  0
 50 48  2  0
 53 28  1  0
 53 54  1  0
 55 53  1  0
 56 57  1  0
 58 69  2  0
 59 57  1  0
 59 64  1  0
 60 68  1  0
 60 70  1  0
 61 67  1  0
 61 63  1  0
 62 68  1  0
 63 62  1  0
 64 63  2  0
 65 66  1  0
 65 59  2  0
 66 61  2  0
 67 60  1  0
 68 58  1  0
 70 72  2  0
 71 70  1  0
 73 71  1  0
 74 83  2  0
 74 79  1  0
 75 71  1  0
 75 79  1  0
 76 75  1  0
 77 78  1  0
 77 76  1  0
 78 74  1  0
 79 80  2  0
 80 81  1  0
 82 81  2  0
 83 82  1  0
 84 58  1  0
 84 89  1  0
 84 85  1  0
 85 88  1  1
 85 86  1  0
 87 85  1  0
 89 92  1  0
 90 94  1  0
 90 89  1  0
 91 90  2  0
 94 93  1  0
 96 97  1  0
 96 94  1  0
 96 95  1  0
M  ISO  4  18 100  26 100  56 101  57 101
M  END
>  <TORSDO>  (5) 
F 19

>  <SCORE>  (5) 
-14.391

>  <name>  (5) 
4

>  <ligand_id>  (5) 
4

>  <original_smiles>  (5) 
[H]c1c([H])c([H])c2c(c1[H])C([H])([H])C([H])([H])C([H])([H])C2([H])N([H])C(=O)C1([H])N(C(=O)C([H])(N([H])C(=O)C([H])(N([H])C([H])([H])[H])C([H])([H])[H])C(C([H])([H])[H])(C([H])([H])[H])C([H])([H])[H])C([H])([H])c2c([H])c(OC([H])([H])C3([H])C(=O)N(C([H])([H])c4c(C([H])([H])[H])c([H])c([H])c(N([H])C(=O)N5C([H])([H])C([H])([H])C([H])([H])C([H])(n6nc(-c7c([H])c([H])c(Oc8c([H])c([H])c(F)c([H])c8F)c([H])c7[H])c(C(=O)N([H])[H])c6N([H])[H])C5([H])[H])c4C([H])([H])[H])C(=O)C([H])([H])C3([H])[H])c([H])c([H])c2C1([H])[H]

>  <smiles>  (5) 
[H]c1c([H])c([H])c2c(c1[H])C([H])([H])C([H])([H])C([H])([H])C2([H])N([H])C(=O)C1([H])N(C(=O)C([H])(N([H])C(=O)C([H])(N([H])C([H])([H])[H])C([H])([H])[H])C(C([H])([H])[H])(C([H])([H])[H])C([H])([H])[H])C([H])([H])c2c([H])c(OC([H])([H])C3([H])C(=O)N(C([H])([H])c4c(C([H])([H])[H])c([H])c([H])c(N([H])C(=O)N5C([H])([H])C([H])([H])C([H])([H])C([H])(n6nc(-c7c([H])c([H])c(Oc8c([H])c([H])c(F)c([H])c8F)c([H])c7[H])c(C(=O)N([H])[H])c6N([H])[H])C5([H])[H])c4C([H])([H])[H])C(=O)C([H])([H])C3([H])[H])c([H])c([H])c2C1([H])[H]

$$$$
5:0:0
     RDKit          3D

 96104  0  0  1  0  0  0  0  0999 V2000
  -29.7330  -21.9060   19.0220 C   0  0  0  0  0  0  0  0  0  0  0  0
  -30.7560  -21.0610   19.2240 N   0  0  0  0  0  0  0  0  0  0  0  0
  -28.5420  -21.6280   19.1910 O   0  0  0  0  0  0  0  0  0  0  0  0
  -31.6580  -21.4350   18.9590 H   0  0  0  0  0  0  0  0  0  0  0  0
  -29.8100  -17.9040   21.0830 C   0  0  0  0  0  3  0  0  0  0  0  0
  -32.2180  -18.0070   20.7500 C   0  0  0  0  0  3  0  0  0  0  0  0
  -29.6600  -19.1250   20.3960 C   0  0  0  0  0  3  0  0  0  0  0  0
  -32.0700  -19.2240   20.0610 C   0  0  0  0  0  3  0  0  0  0  0  0
  -31.0910  -17.3450   21.2720 C   0  0  0  0  0  0  0  0  0  0  0  0
  -30.7950  -19.8020   19.8850 C   0  0  0  0  0  0  0  0  0  0  0  0
  -31.2590  -16.0340   22.0220 C   0  0  0  0  0  2  0  0  0  0  0  0
  -30.7630  -14.3040   20.3160 C   0  0  0  0  0  0  0  0  0  0  0  0
  -30.2740  -12.3210   18.9360 C   0  0  0  0  0  2  0  0  0  0  0  0
  -29.2790  -12.6280   17.8040 C   0  0  0  0  0  2  0  0  0  0  0  0
  -27.8300  -12.4810   18.3010 C   0  0  0  0  0  2  0  0  0  0  0  0
  -27.5750  -13.2550   19.6210 C   0  0  0  0  0  3  0  0  0  0  0  0
  -28.6690  -12.9390   20.6640 C   0  0  0  0  0  2  0  0  0  0  0  0
  -29.9880  -13.2190   20.0640 N   0  0  0  0  0  0  0  0  0  0  0  0
  -31.7230  -14.6320   19.6110 O   0  0  0  0  0  0  0  0  0  0  0  0
  -30.4760  -14.9450   21.4520 N   0  0  0  0  0  0  0  0  0  0  0  0
  -29.7040  -14.5920   21.9970 H   0  0  0  0  0  0  0  0  0  0  0  0
  -25.2030  -13.8690   20.4150 C   0  0  0  0  0  0  0  0  0  0  0  0
  -24.1460  -13.0970   20.8200 C   0  0  0  0  0  0  0  0  0  0  0  0
  -24.6020  -11.7440   20.7650 C   0  0  0  0  0  0  0  0  0  0  0  0
  -26.2370  -12.9850   20.1440 N   0  0  0  0  0  0  0  0  0  0  0  0
  -25.8790  -11.7020   20.4090 N   0  0  0  0  0  0  0  0  0  0  0  0
  -23.8800  -10.4820   20.9770 C   0  0  0  0  0  0  0  0  0  0  0  0
  -24.3360   -9.5180   21.9030 C   0  0  0  0  0  3  0  0  0  0  0  0
  -23.6150   -8.3210   22.1020 C   0  0  0  0  0  3  0  0  0  0  0  0
  -22.4250   -8.0800   21.3750 C   0  0  0  0  0  0  0  0  0  0  0  0
  -21.9890   -9.0330   20.4370 C   0  0  0  0  0  3  0  0  0  0  0  0
  -22.7110  -10.2220   20.2370 C   0  0  0  0  0  3  0  0  0  0  0  0
  -21.6740   -6.9340   21.4830 O   0  0  0  0  0  0  0  0  0  0  0  0
  -21.6460   -6.1980   22.6410 C   0  0  0  0  0  0  0  0  0  0  0  0
  -21.2450   -6.7620   23.8720 C   0  0  0  0  0  3  0  0  0  0  0  0
  -21.1640   -5.9530   25.0220 C   0  0  0  0  0  3  0  0  0  0  0  0
  -21.4730   -4.5810   24.9430 C   0  0  0  0  0  0  0  0  0  0  0  0
  -21.8670   -4.0180   23.7180 C   0  0  0  0  0  3  0  0  0  0  0  0
  -21.9500   -4.8240   22.5680 C   0  0  0  0  0  0  0  0  0  0  0  0
  -22.3090   -4.2720   21.3850 F   0  0  0  0  0  0  0  0  0  0  0  0
  -21.3880   -3.8020   26.0460 F   0  0  0  0  0  0  0  0  0  0  0  0
  -22.7610  -13.5770   21.1490 C   0  0  0  0  0  0  0  0  0  0  0  0
  -22.0640  -12.8740   22.0350 N   0  0  0  0  0  0  0  0  0  0  0  0
  -22.3070  -14.6090   20.6570 O   0  0  0  0  0  0  0  0  0  0  0  0
  -22.4450  -12.0390   22.4540 H   0  0  0  0  0  0  0  0  0  0  0  0
  -21.1360  -13.1750   22.2970 H   0  0  0  0  0  0  0  0  0  0  0  0
  -25.3660  -15.2390   20.2380 N   0  0  0  0  0  0  0  0  0  0  0  0
  -24.6080  -15.8980   20.3770 H   0  0  0  0  0  0  0  0  0  0  0  0
  -26.2140  -15.6740   19.8960 H   0  0  0  0  0  0  0  0  0  0  0  0
  -30.1140  -23.3040   18.5170 C   0  0  0  0  0  2  0  0  0  0  0  0
  -29.4430  -24.6670   20.4900 C   0  0  0  0  0  0  0  0  0  0  0  0
  -29.3430  -24.3460   19.1930 N   0  0  0  0  0  0  0  0  0  0  0  0
  -30.2720  -24.1490   21.2420 O   0  0  0  0  0  0  0  0  0  0  0  0
  -28.6360  -24.8260   18.6530 H   0  0  0  0  0  0  0  0  0  0  0  0
  -28.4560  -25.7080   21.0180 C   0  0  0  0  0  2  0  0  0  0  0  0
  -28.3850  -26.7870   20.0940 O   0  0  0  0  0  0  0  0  0  0  0  0
  -24.5710  -31.8850   23.2480 C   0  0  0  0  0  0  0  0  0  0  0  0
  -27.2100  -27.4840   20.1510 C   0  0  0  0  0  0  0  0  0  0  0  0
  -23.3550  -30.4790   21.6110 C   0  0  0  0  0  3  0  0  0  0  0  0
  -24.8040  -28.9420   20.1860 C   0  0  0  0  0  0  0  0  0  0  0  0
  -25.8730  -30.8550   21.3930 C   0  0  0  0  0  2  0  0  0  0  0  0
  -25.9600  -29.4840   20.7610 C   0  0  0  0  0  0  0  0  0  0  0  0
  -27.1700  -28.7610   20.7420 C   0  0  0  0  0  3  0  0  0  0  0  0
  -26.0430  -26.9380   19.5810 C   0  0  0  0  0  3  0  0  0  0  0  0
  -24.8360  -27.6640   19.5970 C   0  0  0  0  0  3  0  0  0  0  0  0
  -23.5560  -29.7930   20.2330 C   0  0  0  0  0  2  0  0  0  0  0  0
  -24.6180  -31.0870   22.1430 N   0  0  0  0  0  0  0  0  0  0  0  0
  -23.4940  -32.1550   23.7950 O   0  0  0  0  0  0  0  0  0  0  0  0
  -22.7130  -29.4590   22.5780 C   0  0  0  0  0  0  0  0  0  0  0  0
  -21.3890  -29.2760   22.4590 N   0  0  0  0  0  0  0  0  0  0  0  0
  -23.4030  -28.8330   23.3880 O   0  0  0  0  0  0  0  0  0  0  0  0
  -20.8930  -29.8340   21.7770 H   0  0  0  0  0  0  0  0  0  0  0  0
  -18.0180  -28.0820   22.9700 C   0  0  0  0  0  0  0  0  0  0  0  0
  -20.5760  -28.3400   23.2340 C   0  0  0  0  0  3  0  0  0  0  0  0
  -20.6770  -26.9080   22.6580 C   0  0  0  0  0  2  0  0  0  0  0  0
  -19.5720  -26.5840   21.6480 C   0  0  0  0  0  2  0  0  0  0  0  0
  -18.1930  -26.7310   22.2970 C   0  0  0  0  0  2  0  0  0  0  0  0
  -19.1390  -28.8450   23.3950 C   0  0  0  0  0  0  0  0  0  0  0  0
  -18.9220  -30.1100   23.9820 C   0  0  0  0  0  3  0  0  0  0  0  0
  -17.6190  -30.6130   24.1490 C   0  0  0  0  0  3  0  0  0  0  0  0
  -16.5130  -29.8470   23.7410 C   0  0  0  0  0  3  0  0  0  0  0  0
  -16.7140  -28.5830   23.1570 C   0  0  0  0  0  3  0  0  0  0  0  0
  -25.8630  -32.5150   23.8590 C   0  0  0  0  0  3  0  0  0  0  0  0
  -25.5560  -33.9110   24.1940 N   0  0  0  0  0  0  0  0  0  0  0  0
  -25.8830  -34.9640   23.4310 C   0  0  0  0  0  0  0  0  0  0  0  0
  -26.5470  -34.8620   22.3950 O   0  0  0  0  0  0  0  0  0  0  0  0
  -24.9690  -34.0660   25.0000 H   0  0  0  0  0  0  0  0  0  0  0  0
  -24.1530  -36.7550   23.0820 C   0  0  0  0  0  1  0  0  0  0  0  0
  -25.3950  -36.3510   23.8900 C   0  0  0  0  0  3  0  0  0  0  0  0
  -27.5330  -37.2360   24.7140 C   0  0  0  0  0  1  0  0  0  0  0  0
  -26.4270  -37.4050   23.7750 N   0  0  0  0  0  0  0  0  0  0  0  0
  -26.0210  -38.3240   23.9260 H   0  0  0  0  0  0  0  0  0  0  0  0
  -26.3940  -31.7390   25.1260 C   0  0  1  0  0  0  0  0  0  0  0  0
  -25.3130  -31.4930   26.2040 C   0  0  0  0  0  1  0  0  0  0  0  0
  -26.9750  -30.3630   24.7180 C   0  0  0  0  0  1  0  0  0  0  0  0
  -27.5490  -32.5320   25.7820 C   0  0  0  0  0  1  0  0  0  0  0  0
  1  3  2  0
  1  2  1  0
  2 10  1  0
  4  2  1  0
  5  9  1  0
  6  9  2  0
  7  5  2  0
  8  6  1  0
  9 11  1  0
 10  8  2  0
 10  7  1  0
 12 20  1  0
 13 18  1  0
 14 15  1  0
 14 13  1  0
 16 15  1  0
 16 25  1  0
 16 17  1  0
 18 12  1  0
 18 17  1  0
 19 12  2  0
 20 21  1  0
 20 11  1  0
 22 23  2  0
 23 42  1  0
 24 23  1  0
 24 27  1  0
 25 26  1  0
 25 22  1  0
 26 24  2  0
 27 28  1  0
 28 29  2  0
 30 33  1  0
 30 29  1  0
 31 30  2  0
 32 31  1  0
 32 27  2  0
 33 34  1  0
 34 35  1  0
 35 36  2  0
 37 36  1  0
 37 41  1  0
 38 37  2  0
 39 34  2  0
 39 38  1  0
 40 39  1  0
 42 43  1  0
 43 46  1  0
 43 45  1  0
 44 42  2  0
 47 48  1  0
 47 22  1  0
 49 47  1  0
 50  1  1  0
 50 52  1  0
 51 55  1  0
 51 53  2  0
 52 51  1  0
 54 52  1  0
 56 58  1  0
 56 55  1  0
 57 68  2  0
 58 63  1  0
 59 67  1  0
 59 69  1  0
 60 66  1  0
 60 62  1  0
 61 67  1  0
 62 61  1  0
 63 62  2  0
 64 65  1  0
 64 58  2  0
 65 60  2  0
 66 59  1  0
 67 57  1  0
 69 71  2  0
 70 69  1  0
 72 70  1  0
 73 82  2  0
 73 78  1  0
 74 70  1  0
 74 78  1  0
 75 74  1  0
 76 77  1  0
 76 75  1  0
 77 73  1  0
 78 79  2  0
 79 80  1  0
 81 80  2  0
 82 81  1  0
 83 57  1  0
 83 84  1  0
 83 93  1  0
 84 87  1  0
 85 89  1  0
 85 84  1  0
 86 85  2  0
 89 88  1  0
 91 89  1  0
 91 92  1  0
 91 90  1  0
 93 96  1  1
 93 94  1  0
 95 93  1  0
M  ISO  4  12 100  20 100  55 101  56 101
M  END
>  <TORSDO>  (6) 
F 21

>  <SCORE>  (6) 
-13.450

>  <name>  (6) 
5

>  <ligand_id>  (6) 
5

>  <original_smiles>  (6) 
[H]c1c([H])c([H])c2c(c1[H])C([H])([H])C([H])([H])C([H])([H])C2([H])N([H])C(=O)C1([H])N(C(=O)C([H])(N([H])C(=O)C([H])(N([H])C([H])([H])[H])C([H])([H])[H])C(C([H])([H])[H])(C([H])([H])[H])C([H])([H])[H])C([H])([H])c2c([H])c(OC([H])([H])C(=O)N([H])C([H])([H])C(=O)N([H])c3c([H])c([H])c(C([H])([H])N([H])C(=O)N4C([H])([H])C([H])([H])C([H])([H])C([H])(n5nc(-c6c([H])c([H])c(Oc7c([H])c([H])c(F)c([H])c7F)c([H])c6[H])c(C(=O)N([H])[H])c5N([H])[H])C4([H])[H])c([H])c3[H])c([H])c([H])c2C1([H])[H]

>  <smiles>  (6) 
[H]c1c([H])c([H])c2c(c1[H])C([H])([H])C([H])([H])C([H])([H])C2([H])N([H])C(=O)C1([H])N(C(=O)C([H])(N([H])C(=O)C([H])(N([H])C([H])([H])[H])C([H])([H])[H])C(C([H])([H])[H])(C([H])([H])[H])C([H])([H])[H])C([H])([H])c2c([H])c(OC([H])([H])C(=O)N([H])C([H])([H])C(=O)N([H])c3c([H])c([H])c(C([H])([H])N([H])C(=O)N4C([H])([H])C([H])([H])C([H])([H])C([H])(n5nc(-c6c([H])c([H])c(Oc7c([H])c([H])c(F)c([H])c7F)c([H])c6[H])c(C(=O)N([H])[H])c5N([H])[H])C4([H])[H])c([H])c3[H])c([H])c([H])c2C1([H])[H]

$$$$
6:0:0
     RDKit          3D

 93101  0  0  1  0  0  0  0  0999 V2000
  -30.4600  -21.7630   20.1770 C   0  0  0  0  0  2  0  0  0  0  0  0
  -31.3090  -17.8910   20.2090 C   0  0  0  0  0  3  0  0  0  0  0  0
  -28.9930  -18.1190   20.7720 C   0  0  0  0  0  3  0  0  0  0  0  0
  -31.4190  -19.3140   20.1070 C   0  0  0  0  0  0  0  0  0  0  0  0
  -30.3020  -20.1900   20.3230 C   0  0  0  0  0  0  0  0  0  0  0  0
  -30.0870  -17.2410   20.5250 C   0  0  0  0  0  0  0  0  0  0  0  0
  -29.0890  -19.5440   20.6840 C   0  0  0  0  0  0  0  0  0  0  0  0
  -32.7950  -19.8730   19.7690 C   0  0  0  0  0  1  0  0  0  0  0  0
  -27.9940  -20.2940   20.9550 F   0  0  0  0  0  0  0  0  0  0  0  0
  -30.6400  -14.7100   20.1640 C   0  0  0  0  0  0  0  0  0  0  0  0
  -30.3650  -12.5030   19.0440 C   0  0  0  0  0  2  0  0  0  0  0  0
  -29.3650  -12.6500   17.8760 C   0  0  0  0  0  2  0  0  0  0  0  0
  -27.9160  -12.4680   18.3680 C   0  0  0  0  0  2  0  0  0  0  0  0
  -27.6070  -13.3050   19.6370 C   0  0  0  0  0  3  0  0  0  0  0  0
  -28.7160  -13.1410   20.7020 C   0  0  0  0  0  2  0  0  0  0  0  0
  -29.9980  -13.4990   20.0750 N   0  0  0  0  0  0  0  0  0  0  0  0
  -31.7840  -14.8440   19.7210 O   0  0  0  0  0  0  0  0  0  0  0  0
  -29.8970  -15.7790   20.6070 N   0  0  0  0  0  0  0  0  0  0  0  0
  -28.9940  -15.4960   20.9560 H   0  0  0  0  0  0  0  0  0  0  0  0
  -25.2450  -13.8730   20.4770 C   0  0  0  0  0  0  0  0  0  0  0  0
  -24.1970  -13.0860   20.8710 C   0  0  0  0  0  0  0  0  0  0  0  0
  -24.6620  -11.7370   20.7840 C   0  0  0  0  0  0  0  0  0  0  0  0
  -26.2810  -13.0040   20.1740 N   0  0  0  0  0  0  0  0  0  0  0  0
  -25.9370  -11.7140   20.4200 N   0  0  0  0  0  0  0  0  0  0  0  0
  -23.9450  -10.4690   20.9730 C   0  0  0  0  0  0  0  0  0  0  0  0
  -24.3840   -9.5080   21.9120 C   0  0  0  0  0  3  0  0  0  0  0  0
  -23.6720   -8.3020   22.0890 C   0  0  0  0  0  3  0  0  0  0  0  0
  -22.5030   -8.0510   21.3300 C   0  0  0  0  0  0  0  0  0  0  0  0
  -22.0830   -9.0010   20.3830 C   0  0  0  0  0  3  0  0  0  0  0  0
  -22.7980  -10.1980   20.2030 C   0  0  0  0  0  3  0  0  0  0  0  0
  -21.7600   -6.8990   21.4190 O   0  0  0  0  0  0  0  0  0  0  0  0
  -21.6690   -6.1890   22.5890 C   0  0  0  0  0  0  0  0  0  0  0  0
  -21.1550   -6.7650   23.7710 C   0  0  0  0  0  3  0  0  0  0  0  0
  -21.0120   -5.9790   24.9330 C   0  0  0  0  0  3  0  0  0  0  0  0
  -21.3740   -4.6190   24.9110 C   0  0  0  0  0  0  0  0  0  0  0  0
  -21.8790   -4.0430   23.7340 C   0  0  0  0  0  3  0  0  0  0  0  0
  -22.0230   -4.8250   22.5740 C   0  0  0  0  0  0  0  0  0  0  0  0
  -22.4920   -4.2600   21.4360 F   0  0  0  0  0  0  0  0  0  0  0  0
  -21.2290   -3.8610   26.0250 F   0  0  0  0  0  0  0  0  0  0  0  0
  -22.8120  -13.5510   21.2130 C   0  0  0  0  0  0  0  0  0  0  0  0
  -22.1240  -12.8310   22.0930 N   0  0  0  0  0  0  0  0  0  0  0  0
  -22.3500  -14.5860   20.7360 O   0  0  0  0  0  0  0  0  0  0  0  0
  -22.5120  -11.9920   22.4990 H   0  0  0  0  0  0  0  0  0  0  0  0
  -21.1950  -13.1220   22.3630 H   0  0  0  0  0  0  0  0  0  0  0  0
  -25.3990  -15.2500   20.3320 N   0  0  0  0  0  0  0  0  0  0  0  0
  -24.6400  -15.8980   20.5050 H   0  0  0  0  0  0  0  0  0  0  0  0
  -26.2290  -15.6990   19.9670 H   0  0  0  0  0  0  0  0  0  0  0  0
  -29.4110  -24.1110   20.1990 C   0  0  0  0  0  0  0  0  0  0  0  0
  -29.3340  -22.7460   20.3730 N   0  0  0  0  0  0  0  0  0  0  0  0
  -30.4680  -24.6270   19.8230 O   0  0  0  0  0  0  0  0  0  0  0  0
  -28.4490  -22.3510   20.6680 H   0  0  0  0  0  0  0  0  0  0  0  0
  -28.1700  -25.0590   20.4750 C   0  0  0  0  0  2  0  0  0  0  0  0
  -28.3650  -26.5080   20.1700 O   0  0  0  0  0  0  0  0  0  0  0  0
  -24.6290  -31.8920   23.2290 C   0  0  0  0  0  0  0  0  0  0  0  0
  -27.2330  -27.3430   20.1540 C   0  0  0  0  0  0  0  0  0  0  0  0
  -23.4170  -30.4960   21.5950 C   0  0  0  0  0  3  0  0  0  0  0  0
  -24.8600  -28.9500   20.1580 C   0  0  0  0  0  0  0  0  0  0  0  0
  -25.9540  -30.8200   21.3950 C   0  0  0  0  0  2  0  0  0  0  0  0
  -26.0310  -29.4410   20.7480 C   0  0  0  0  0  0  0  0  0  0  0  0
  -27.2190  -28.6500   20.7340 C   0  0  0  0  0  3  0  0  0  0  0  0
  -26.0410  -26.9100   19.5320 C   0  0  0  0  0  3  0  0  0  0  0  0
  -24.8660  -27.6900   19.5390 C   0  0  0  0  0  3  0  0  0  0  0  0
  -23.6220  -29.8240   20.2120 C   0  0  0  0  0  2  0  0  0  0  0  0
  -24.6850  -31.0870   22.1280 N   0  0  0  0  0  0  0  0  0  0  0  0
  -23.5490  -32.1670   23.7730 O   0  0  0  0  0  0  0  0  0  0  0  0
  -22.7620  -29.4760   22.5570 C   0  0  0  0  0  0  0  0  0  0  0  0
  -21.4380  -29.2910   22.4340 N   0  0  0  0  0  0  0  0  0  0  0  0
  -23.4460  -28.8540   23.3740 O   0  0  0  0  0  0  0  0  0  0  0  0
  -20.9430  -29.8390   21.7440 H   0  0  0  0  0  0  0  0  0  0  0  0
  -18.0660  -28.0900   22.9470 C   0  0  0  0  0  0  0  0  0  0  0  0
  -20.6240  -28.3520   23.2100 C   0  0  0  0  0  3  0  0  0  0  0  0
  -20.7260  -26.9220   22.6310 C   0  0  0  0  0  2  0  0  0  0  0  0
  -19.6200  -26.6020   21.6200 C   0  0  0  0  0  2  0  0  0  0  0  0
  -18.2400  -26.7440   22.2690 C   0  0  0  0  0  2  0  0  0  0  0  0
  -19.1850  -28.8530   23.3750 C   0  0  0  0  0  0  0  0  0  0  0  0
  -18.9650  -30.1160   23.9680 C   0  0  0  0  0  3  0  0  0  0  0  0
  -17.6600  -30.6130   24.1430 C   0  0  0  0  0  3  0  0  0  0  0  0
  -16.5550  -29.8460   23.7330 C   0  0  0  0  0  3  0  0  0  0  0  0
  -16.7590  -28.5880   23.1400 C   0  0  0  0  0  3  0  0  0  0  0  0
  -25.9170  -32.5250   23.8430 C   0  0  0  0  0  3  0  0  0  0  0  0
  -26.4480  -31.7460   25.1080 C   0  0  1  0  0  0  0  0  0  0  0  0
  -25.3680  -31.5010   26.1870 C   0  0  0  0  0  1  0  0  0  0  0  0
  -27.0290  -30.3710   24.7010 C   0  0  0  0  0  1  0  0  0  0  0  0
  -27.6050  -32.5370   25.7620 C   0  0  0  0  0  1  0  0  0  0  0  0
  -25.6060  -33.9180   24.1890 N   0  0  0  0  0  0  0  0  0  0  0  0
  -25.9060  -34.9780   23.4280 C   0  0  0  0  0  0  0  0  0  0  0  0
  -26.5470  -34.8870   22.3770 O   0  0  0  0  0  0  0  0  0  0  0  0
  -25.0360  -34.0620   25.0110 H   0  0  0  0  0  0  0  0  0  0  0  0
  -24.1490  -36.7540   23.1380 C   0  0  0  0  0  1  0  0  0  0  0  0
  -25.4190  -36.3590   23.9090 C   0  0  0  0  0  3  0  0  0  0  0  0
  -27.5740  -37.2590   24.6700 C   0  0  0  0  0  1  0  0  0  0  0  0
  -26.4330  -37.4270   23.7730 N   0  0  0  0  0  0  0  0  0  0  0  0
  -26.0200  -38.3390   23.9530 H   0  0  0  0  0  0  0  0  0  0  0  0
  1  5  1  0
  1 49  1  0
  2  6  1  0
  4  2  2  0
  4  5  1  0
  5  7  2  0
  6 18  1  0
  6  3  2  0
  7  3  1  0
  7  9  1  0
  8  4  1  0
 10 18  1  0
 11 16  1  0
 12 13  1  0
 12 11  1  0
 14 13  1  0
 14 23  1  0
 14 15  1  0
 16 10  1  0
 16 15  1  0
 17 10  2  0
 18 19  1  0
 20 21  2  0
 21 40  1  0
 22 21  1  0
 22 25  1  0
 23 24  1  0
 23 20  1  0
 24 22  2  0
 25 26  1  0
 26 27  2  0
 28 31  1  0
 28 27  1  0
 29 28  2  0
 30 29  1  0
 30 25  2  0
 31 32  1  0
 32 33  1  0
 33 34  2  0
 35 34  1  0
 35 39  1  0
 36 35  2  0
 37 32  2  0
 37 36  1  0
 38 37  1  0
 40 41  1  0
 41 44  1  0
 41 43  1  0
 42 40  2  0
 45 20  1  0
 45 46  1  0
 47 45  1  0
 48 49  1  0
 48 52  1  0
 49 51  1  0
 50 48  2  0
 53 52  1  0
 54 65  2  0
 55 53  1  0
 55 60  1  0
 56 64  1  0
 56 66  1  0
 57 63  1  0
 57 59  1  0
 58 64  1  0
 59 58  1  0
 60 59  2  0
 61 62  1  0
 61 55  2  0
 62 57  2  0
 63 56  1  0
 64 54  1  0
 66 68  2  0
 67 66  1  0
 69 67  1  0
 70 79  2  0
 70 75  1  0
 71 67  1  0
 71 75  1  0
 72 71  1  0
 73 74  1  0
 73 72  1  0
 74 70  1  0
 75 76  2  0
 76 77  1  0
 78 77  2  0
 79 78  1  0
 80 54  1  0
 80 85  1  0
 80 81  1  0
 81 84  1  1
 81 82  1  0
 83 81  1  0
 85 88  1  0
 86 90  1  0
 86 85  1  0
 87 86  2  0
 90 89  1  0
 92 90  1  0
 92 93  1  0
 92 91  1  0
M  ISO  4  10 100  18 100  52 101  53 101
M  END
>  <TORSDO>  (7) 
F 19

>  <SCORE>  (7) 
-14.307

>  <name>  (7) 
6

>  <ligand_id>  (7) 
6

>  <original_smiles>  (7) 
[H]c1c([H])c([H])c2c(c1[H])C([H])([H])C([H])([H])C([H])([H])C2([H])N([H])C(=O)C1([H])N(C(=O)C([H])(N([H])C(=O)C([H])(N([H])C([H])([H])[H])C([H])([H])[H])C(C([H])([H])[H])(C([H])([H])[H])C([H])([H])[H])C([H])([H])c2c([H])c(OC([H])([H])C(=O)N([H])C([H])([H])c3c(F)c([H])c(N([H])C(=O)N4C([H])([H])C([H])([H])C([H])([H])C([H])(n5nc(-c6c([H])c([H])c(Oc7c([H])c([H])c(F)c([H])c7F)c([H])c6[H])c(C(=O)N([H])[H])c5N([H])[H])C4([H])[H])c([H])c3C([H])([H])[H])c([H])c([H])c2C1([H])[H]

>  <smiles>  (7) 
[H]c1c([H])c([H])c2c(c1[H])C([H])([H])C([H])([H])C([H])([H])C2([H])N([H])C(=O)C1([H])N(C(=O)C([H])(N([H])C(=O)C([H])(N([H])C([H])([H])[H])C([H])([H])[H])C(C([H])([H])[H])(C([H])([H])[H])C([H])([H])[H])C([H])([H])c2c([H])c(OC([H])([H])C(=O)N([H])C([H])([H])c3c(F)c([H])c(N([H])C(=O)N4C([H])([H])C([H])([H])C([H])([H])C([H])(n5nc(-c6c([H])c([H])c(Oc7c([H])c([H])c(F)c([H])c7F)c([H])c6[H])c(C(=O)N([H])[H])c5N([H])[H])C4([H])[H])c([H])c3C([H])([H])[H])c([H])c([H])c2C1([H])[H]

$$$$
7:0:0
     RDKit          3D

 93101  0  0  1  0  0  0  0  0999 V2000
  -29.9710  -21.9500   19.8140 C   0  0  0  0  0  2  0  0  0  0  0  0
  -30.8730  -18.2030   21.9240 C   0  0  0  0  0  3  0  0  0  0  0  0
  -31.0920  -19.4360   22.5710 C   0  0  0  0  0  3  0  0  0  0  0  0
  -30.0330  -19.4110   19.9890 C   0  0  0  0  0  3  0  0  0  0  0  0
  -30.3500  -18.1800   20.6160 C   0  0  0  0  0  0  0  0  0  0  0  0
  -30.8020  -20.6640   21.9320 C   0  0  0  0  0  0  0  0  0  0  0  0
  -30.2480  -20.6640   20.6230 C   0  0  0  0  0  0  0  0  0  0  0  0
  -31.1450  -21.9520   22.6650 C   0  0  0  0  0  1  0  0  0  0  0  0
  -30.1690  -16.8760   19.8320 C   0  0  0  0  0  2  0  0  0  0  0  0
  -30.8550  -14.5350   20.3070 C   0  0  0  0  0  0  0  0  0  0  0  0
  -30.5370  -12.3430   19.2470 C   0  0  0  0  0  2  0  0  0  0  0  0
  -29.5800  -12.5500   18.0530 C   0  0  0  0  0  2  0  0  0  0  0  0
  -28.1110  -12.4320   18.5040 C   0  0  0  0  0  2  0  0  0  0  0  0
  -27.7990  -13.2820   19.7660 C   0  0  0  0  0  3  0  0  0  0  0  0
  -28.8730  -13.0750   20.8610 C   0  0  0  0  0  2  0  0  0  0  0  0
  -30.1920  -13.3470   20.2660 N   0  0  0  0  0  0  0  0  0  0  0  0
  -31.9970  -14.6790   19.8640 O   0  0  0  0  0  0  0  0  0  0  0  0
  -30.0810  -15.6050   20.5780 N   0  0  0  0  0  0  0  0  0  0  0  0
  -29.1810  -15.3920   20.9760 H   0  0  0  0  0  0  0  0  0  0  0  0
  -25.4290  -13.9210   20.5380 C   0  0  0  0  0  0  0  0  0  0  0  0
  -24.3530  -13.1620   20.9170 C   0  0  0  0  0  0  0  0  0  0  0  0
  -24.7880  -11.8030   20.8490 C   0  0  0  0  0  0  0  0  0  0  0  0
  -26.4510  -13.0250   20.2680 N   0  0  0  0  0  0  0  0  0  0  0  0
  -26.0700  -11.7450   20.5100 N   0  0  0  0  0  0  0  0  0  0  0  0
  -24.0410  -10.5520   21.0310 C   0  0  0  0  0  0  0  0  0  0  0  0
  -24.4690   -9.5630   21.9440 C   0  0  0  0  0  3  0  0  0  0  0  0
  -23.7240   -8.3750   22.1140 C   0  0  0  0  0  3  0  0  0  0  0  0
  -22.5370   -8.1700   21.3730 C   0  0  0  0  0  0  0  0  0  0  0  0
  -22.1280   -9.1480   20.4480 C   0  0  0  0  0  3  0  0  0  0  0  0
  -22.8740  -10.3250   20.2750 C   0  0  0  0  0  3  0  0  0  0  0  0
  -21.7640   -7.0360   21.4540 O   0  0  0  0  0  0  0  0  0  0  0  0
  -21.7120   -6.2810   22.5980 C   0  0  0  0  0  0  0  0  0  0  0  0
  -21.2790   -6.8220   23.8280 C   0  0  0  0  0  3  0  0  0  0  0  0
  -21.1730   -5.9930   24.9630 C   0  0  0  0  0  3  0  0  0  0  0  0
  -21.4910   -4.6240   24.8680 C   0  0  0  0  0  0  0  0  0  0  0  0
  -21.9180   -4.0840   23.6430 C   0  0  0  0  0  3  0  0  0  0  0  0
  -22.0250   -4.9100   22.5100 C   0  0  0  0  0  0  0  0  0  0  0  0
  -22.4160   -4.3790   21.3270 F   0  0  0  0  0  0  0  0  0  0  0  0
  -21.3830   -3.8270   25.9560 F   0  0  0  0  0  0  0  0  0  0  0  0
  -22.9720  -13.6620   21.2290 C   0  0  0  0  0  0  0  0  0  0  0  0
  -22.2500  -12.9610   22.0990 N   0  0  0  0  0  0  0  0  0  0  0  0
  -22.5420  -14.7060   20.7420 O   0  0  0  0  0  0  0  0  0  0  0  0
  -22.6100  -12.1160   22.5160 H   0  0  0  0  0  0  0  0  0  0  0  0
  -21.3250  -13.2760   22.3510 H   0  0  0  0  0  0  0  0  0  0  0  0
  -25.6140  -15.2910   20.3820 N   0  0  0  0  0  0  0  0  0  0  0  0
  -24.8590  -15.9550   20.5210 H   0  0  0  0  0  0  0  0  0  0  0  0
  -26.4600  -15.7260   20.0350 H   0  0  0  0  0  0  0  0  0  0  0  0
  -29.1590  -24.3040   20.0440 C   0  0  0  0  0  0  0  0  0  0  0  0
  -29.2330  -23.0320   20.4860 N   0  0  0  0  0  0  0  0  0  0  0  0
  -29.6870  -24.6580   18.9860 O   0  0  0  0  0  0  0  0  0  0  0  0
  -28.7600  -22.7980   21.3480 H   0  0  0  0  0  0  0  0  0  0  0  0
  -28.3850  -25.3250   20.9100 C   0  0  0  0  0  2  0  0  0  0  0  0
  -28.5300  -26.6780   20.4190 O   0  0  0  0  0  0  0  0  0  0  0  0
  -24.6060  -31.8800   23.3130 C   0  0  0  0  0  0  0  0  0  0  0  0
  -27.3660  -27.4170   20.3720 C   0  0  0  0  0  0  0  0  0  0  0  0
  -23.4550  -30.4460   21.6580 C   0  0  0  0  0  3  0  0  0  0  0  0
  -24.9600  -28.9040   20.2930 C   0  0  0  0  0  0  0  0  0  0  0  0
  -25.9830  -30.8270   21.5210 C   0  0  0  0  0  2  0  0  0  0  0  0
  -26.0990  -29.4490   20.9010 C   0  0  0  0  0  0  0  0  0  0  0  0
  -27.3080  -28.7150   20.9330 C   0  0  0  0  0  3  0  0  0  0  0  0
  -26.2140  -26.8910   19.7480 C   0  0  0  0  0  3  0  0  0  0  0  0
  -25.0140  -27.6250   19.7110 C   0  0  0  0  0  3  0  0  0  0  0  0
  -23.7070  -29.7500   20.2940 C   0  0  0  0  0  2  0  0  0  0  0  0
  -24.6980  -31.0670   22.2230 N   0  0  0  0  0  0  0  0  0  0  0  0
  -23.5100  -32.1480   23.8230 O   0  0  0  0  0  0  0  0  0  0  0  0
  -22.7880  -29.4310   22.6170 C   0  0  0  0  0  0  0  0  0  0  0  0
  -21.4730  -29.2220   22.4470 N   0  0  0  0  0  0  0  0  0  0  0  0
  -23.4550  -28.8350   23.4670 O   0  0  0  0  0  0  0  0  0  0  0  0
  -20.9980  -29.7550   21.7330 H   0  0  0  0  0  0  0  0  0  0  0  0
  -18.1120  -27.9470   22.8210 C   0  0  0  0  0  0  0  0  0  0  0  0
  -20.6470  -28.2820   23.2050 C   0  0  0  0  0  3  0  0  0  0  0  0
  -20.8150  -26.8400   22.6780 C   0  0  0  0  0  2  0  0  0  0  0  0
  -19.7720  -26.4580   21.6230 C   0  0  0  0  0  2  0  0  0  0  0  0
  -18.3570  -26.5830   22.1960 C   0  0  0  0  0  2  0  0  0  0  0  0
  -19.1900  -28.7510   23.2820 C   0  0  0  0  0  0  0  0  0  0  0  0
  -18.9100  -30.0240   23.8230 C   0  0  0  0  0  3  0  0  0  0  0  0
  -17.5860  -30.4950   23.9110 C   0  0  0  0  0  3  0  0  0  0  0  0
  -16.5240  -29.6870   23.4690 C   0  0  0  0  0  3  0  0  0  0  0  0
  -16.7880  -28.4160   22.9300 C   0  0  0  0  0  3  0  0  0  0  0  0
  -25.8700  -32.5310   23.9570 C   0  0  0  0  0  3  0  0  0  0  0  0
  -26.3570  -31.7890   25.2630 C   0  0  1  0  0  0  0  0  0  0  0  0
  -25.2340  -31.5610   26.3020 C   0  0  0  0  0  1  0  0  0  0  0  0
  -26.9620  -30.4100   24.9120 C   0  0  0  0  0  1  0  0  0  0  0  0
  -27.4790  -32.6060   25.9450 C   0  0  0  0  0  1  0  0  0  0  0  0
  -25.5470  -33.9330   24.2460 N   0  0  0  0  0  0  0  0  0  0  0  0
  -25.8930  -34.9700   23.4700 C   0  0  0  0  0  0  0  0  0  0  0  0
  -26.5890  -34.8460   22.4590 O   0  0  0  0  0  0  0  0  0  0  0  0
  -24.9330  -34.1050   25.0290 H   0  0  0  0  0  0  0  0  0  0  0  0
  -24.1640  -36.7420   23.0300 C   0  0  0  0  0  1  0  0  0  0  0  0
  -25.3860  -36.3650   23.8810 C   0  0  0  0  0  3  0  0  0  0  0  0
  -27.4910  -37.2870   24.7480 C   0  0  0  0  0  1  0  0  0  0  0  0
  -26.4150  -37.4220   23.7690 N   0  0  0  0  0  0  0  0  0  0  0  0
  -25.9980  -38.3430   23.8820 H   0  0  0  0  0  0  0  0  0  0  0  0
  1 49  1  0
  1  7  1  0
  2  3  1  0
  4  5  1  0
  4  7  2  0
  5  2  2  0
  6  3  2  0
  6  8  1  0
  7  6  1  0
  9 18  1  0
  9  5  1  0
 10 18  1  0
 11 16  1  0
 12 13  1  0
 12 11  1  0
 14 13  1  0
 14 23  1  0
 14 15  1  0
 16 10  1  0
 16 15  1  0
 17 10  2  0
 18 19  1  0
 20 21  2  0
 21 40  1  0
 22 21  1  0
 22 25  1  0
 23 24  1  0
 23 20  1  0
 24 22  2  0
 25 26  1  0
 26 27  2  0
 28 31  1  0
 28 27  1  0
 29 28  2  0
 30 29  1  0
 30 25  2  0
 31 32  1  0
 32 33  1  0
 33 34  2  0
 35 34  1  0
 35 39  1  0
 36 35  2  0
 37 32  2  0
 37 36  1  0
 38 37  1  0
 40 41  1  0
 41 44  1  0
 41 43  1  0
 42 40  2  0
 45 46  1  0
 45 20  1  0
 47 45  1  0
 48 49  1  0
 48 52  1  0
 49 51  1  0
 50 48  2  0
 53 52  1  0
 54 65  2  0
 55 53  1  0
 55 60  1  0
 56 64  1  0
 56 66  1  0
 57 63  1  0
 57 59  1  0
 58 64  1  0
 59 60  2  0
 59 58  1  0
 61 55  2  0
 62 61  1  0
 62 57  2  0
 63 56  1  0
 64 54  1  0
 66 68  2  0
 67 66  1  0
 69 67  1  0
 70 79  2  0
 70 75  1  0
 71 67  1  0
 71 75  1  0
 72 71  1  0
 73 74  1  0
 73 72  1  0
 74 70  1  0
 75 76  2  0
 76 77  1  0
 78 77  2  0
 79 78  1  0
 80 54  1  0
 80 85  1  0
 80 81  1  0
 81 84  1  1
 81 82  1  0
 83 81  1  0
 85 88  1  0
 86 90  1  0
 86 85  1  0
 87 86  2  0
 90 89  1  0
 92 90  1  0
 92 93  1  0
 92 91  1  0
M  ISO  4  10 100  18 100  52 101  53 101
M  END
>  <TORSDO>  (8) 
F 20

>  <SCORE>  (8) 
-13.850

>  <name>  (8) 
7

>  <ligand_id>  (8) 
7

>  <original_smiles>  (8) 
[H]c1c([H])c([H])c2c(c1[H])C([H])([H])C([H])([H])C([H])([H])C2([H])N([H])C(=O)C1([H])N(C(=O)C([H])(N([H])C(=O)C([H])(N([H])C([H])([H])[H])C([H])([H])[H])C(C([H])([H])[H])(C([H])([H])[H])C([H])([H])[H])C([H])([H])c2c([H])c(OC([H])([H])C(=O)N([H])C([H])([H])c3c([H])c(C([H])([H])N([H])C(=O)N4C([H])([H])C([H])([H])C([H])([H])C([H])(n5nc(-c6c([H])c([H])c(Oc7c([H])c([H])c(F)c([H])c7F)c([H])c6[H])c(C(=O)N([H])[H])c5N([H])[H])C4([H])[H])c([H])c([H])c3C([H])([H])[H])c([H])c([H])c2C1([H])[H]

>  <smiles>  (8) 
[H]c1c([H])c([H])c2c(c1[H])C([H])([H])C([H])([H])C([H])([H])C2([H])N([H])C(=O)C1([H])N(C(=O)C([H])(N([H])C(=O)C([H])(N([H])C([H])([H])[H])C([H])([H])[H])C(C([H])([H])[H])(C([H])([H])[H])C([H])([H])[H])C([H])([H])c2c([H])c(OC([H])([H])C(=O)N([H])C([H])([H])c3c([H])c(C([H])([H])N([H])C(=O)N4C([H])([H])C([H])([H])C([H])([H])C([H])(n5nc(-c6c([H])c([H])c(Oc7c([H])c([H])c(F)c([H])c7F)c([H])c6[H])c(C(=O)N([H])[H])c5N([H])[H])C4([H])[H])c([H])c([H])c3C([H])([H])[H])c([H])c([H])c2C1([H])[H]

$$$$
8:0:0
     RDKit          3D

 92100  0  0  1  0  0  0  0  0999 V2000
  -28.5040  -21.1420   20.5080 C   0  0  0  0  0  2  0  0  0  0  0  0
  -31.8610  -19.1770   20.7070 C   0  0  0  0  0  3  0  0  0  0  0  0
  -30.9020  -20.2040   20.6140 C   0  0  0  0  0  3  0  0  0  0  0  0
  -31.4980  -17.8160   20.6860 C   0  0  0  0  0  3  0  0  0  0  0  0
  -29.5300  -19.9090   20.4950 C   0  0  0  0  0  0  0  0  0  0  0  0
  -29.1710  -18.4860   20.4650 C   0  0  0  0  0  0  0  0  0  0  0  0
  -30.1500  -17.3970   20.5550 C   0  0  0  0  0  0  0  0  0  0  0  0
  -27.6980  -18.1420   20.3320 C   0  0  0  0  0  1  0  0  0  0  0  0
  -30.5920  -14.7900   20.3310 C   0  0  0  0  0  0  0  0  0  0  0  0
  -30.3780  -12.5250   19.2910 C   0  0  0  0  0  2  0  0  0  0  0  0
  -29.4300  -12.6080   18.0750 C   0  0  0  0  0  2  0  0  0  0  0  0
  -27.9650  -12.4250   18.5160 C   0  0  0  0  0  2  0  0  0  0  0  0
  -27.5980  -13.2970   19.7450 C   0  0  0  0  0  3  0  0  0  0  0  0
  -28.6670  -13.2090   20.8570 C   0  0  0  0  0  2  0  0  0  0  0  0
  -29.9550  -13.5710   20.2520 N   0  0  0  0  0  0  0  0  0  0  0  0
  -31.7800  -14.8600   20.0010 O   0  0  0  0  0  0  0  0  0  0  0  0
  -29.8230  -15.9330   20.5600 N   0  0  0  0  0  0  0  0  0  0  0  0
  -28.8500  -15.7220   20.7160 H   0  0  0  0  0  0  0  0  0  0  0  0
  -25.2080  -13.8670   20.4810 C   0  0  0  0  0  0  0  0  0  0  0  0
  -24.1510  -13.0840   20.8580 C   0  0  0  0  0  0  0  0  0  0  0  0
  -24.6260  -11.7360   20.8270 C   0  0  0  0  0  0  0  0  0  0  0  0
  -26.2590  -12.9950   20.2430 N   0  0  0  0  0  0  0  0  0  0  0  0
  -25.9160  -11.7100   20.5150 N   0  0  0  0  0  0  0  0  0  0  0  0
  -23.9090  -10.4690   21.0200 C   0  0  0  0  0  0  0  0  0  0  0  0
  -24.3530   -9.5040   21.9520 C   0  0  0  0  0  3  0  0  0  0  0  0
  -23.6360   -8.3020   22.1330 C   0  0  0  0  0  3  0  0  0  0  0  0
  -22.4600   -8.0570   21.3850 C   0  0  0  0  0  0  0  0  0  0  0  0
  -22.0360   -9.0100   20.4440 C   0  0  0  0  0  3  0  0  0  0  0  0
  -22.7530  -10.2030   20.2590 C   0  0  0  0  0  3  0  0  0  0  0  0
  -21.7150   -6.9060   21.4760 O   0  0  0  0  0  0  0  0  0  0  0  0
  -21.6810   -6.1600   22.6270 C   0  0  0  0  0  0  0  0  0  0  0  0
  -21.2600   -6.7110   23.8570 C   0  0  0  0  0  3  0  0  0  0  0  0
  -21.1730   -5.8920   25.0010 C   0  0  0  0  0  3  0  0  0  0  0  0
  -21.4960   -4.5240   24.9160 C   0  0  0  0  0  0  0  0  0  0  0  0
  -21.9090   -3.9730   23.6900 C   0  0  0  0  0  3  0  0  0  0  0  0
  -21.9980   -4.7890   22.5490 C   0  0  0  0  0  0  0  0  0  0  0  0
  -22.3760   -4.2490   21.3650 F   0  0  0  0  0  0  0  0  0  0  0  0
  -21.4060   -3.7360   26.0120 F   0  0  0  0  0  0  0  0  0  0  0  0
  -22.7510  -13.5510   21.1320 C   0  0  0  0  0  0  0  0  0  0  0  0
  -22.0320  -12.8520   22.0030 N   0  0  0  0  0  0  0  0  0  0  0  0
  -22.3040  -14.5710   20.6100 O   0  0  0  0  0  0  0  0  0  0  0  0
  -22.4060  -12.0260   22.4470 H   0  0  0  0  0  0  0  0  0  0  0  0
  -21.0930  -13.1470   22.2320 H   0  0  0  0  0  0  0  0  0  0  0  0
  -25.3550  -15.2360   20.2900 N   0  0  0  0  0  0  0  0  0  0  0  0
  -24.5710  -15.8740   20.3730 H   0  0  0  0  0  0  0  0  0  0  0  0
  -26.1630  -15.6600   19.8590 H   0  0  0  0  0  0  0  0  0  0  0  0
  -28.4250  -23.7750   20.4300 C   0  0  0  0  0  0  0  0  0  0  0  0
  -29.3850  -22.4620   18.5700 C   0  0  0  0  0  1  0  0  0  0  0  0
  -28.8140  -22.5290   19.9180 N   0  0  0  0  0  0  0  0  0  0  0  0
  -27.9390  -23.8580   21.5630 O   0  0  0  0  0  0  0  0  0  0  0  0
  -28.5350  -25.1340   19.5720 C   0  0  0  0  0  2  0  0  0  0  0  0
  -28.3890  -26.4620   20.2590 O   0  0  0  0  0  0  0  0  0  0  0  0
  -24.6410  -31.8750   23.2370 C   0  0  0  0  0  0  0  0  0  0  0  0
  -27.2560  -27.2990   20.1680 C   0  0  0  0  0  0  0  0  0  0  0  0
  -23.4370  -30.4760   21.5960 C   0  0  0  0  0  3  0  0  0  0  0  0
  -24.8880  -28.9290   20.1600 C   0  0  0  0  0  0  0  0  0  0  0  0
  -25.9770  -30.7960   21.4080 C   0  0  0  0  0  2  0  0  0  0  0  0
  -26.0560  -29.4160   20.7550 C   0  0  0  0  0  0  0  0  0  0  0  0
  -27.2370  -28.6120   20.7510 C   0  0  0  0  0  3  0  0  0  0  0  0
  -26.0580  -26.8650   19.5580 C   0  0  0  0  0  3  0  0  0  0  0  0
  -24.8950  -27.6620   19.5520 C   0  0  0  0  0  3  0  0  0  0  0  0
  -23.6490  -29.8000   20.2140 C   0  0  0  0  0  2  0  0  0  0  0  0
  -24.7040  -31.0670   22.1370 N   0  0  0  0  0  0  0  0  0  0  0  0
  -23.5580  -32.1520   23.7740 O   0  0  0  0  0  0  0  0  0  0  0  0
  -22.7780  -29.4590   22.5600 C   0  0  0  0  0  0  0  0  0  0  0  0
  -21.4510  -29.2810   22.4410 N   0  0  0  0  0  0  0  0  0  0  0  0
  -23.4600  -28.8320   23.3740 O   0  0  0  0  0  0  0  0  0  0  0  0
  -20.9580  -29.8410   21.7590 H   0  0  0  0  0  0  0  0  0  0  0  0
  -18.0760  -28.0790   22.9510 C   0  0  0  0  0  0  0  0  0  0  0  0
  -20.6340  -28.3420   23.2140 C   0  0  0  0  0  3  0  0  0  0  0  0
  -20.7360  -26.9110   22.6370 C   0  0  0  0  0  2  0  0  0  0  0  0
  -19.6320  -26.5880   21.6250 C   0  0  0  0  0  2  0  0  0  0  0  0
  -18.2510  -26.7310   22.2720 C   0  0  0  0  0  2  0  0  0  0  0  0
  -19.1950  -28.8420   23.3780 C   0  0  0  0  0  0  0  0  0  0  0  0
  -18.9770  -30.1030   23.9750 C   0  0  0  0  0  3  0  0  0  0  0  0
  -17.6710  -30.6020   24.1450 C   0  0  0  0  0  3  0  0  0  0  0  0
  -16.5670  -29.8360   23.7360 C   0  0  0  0  0  3  0  0  0  0  0  0
  -16.7700  -28.5770   23.1430 C   0  0  0  0  0  3  0  0  0  0  0  0
  -25.9240  -32.5100   23.8590 C   0  0  0  0  0  3  0  0  0  0  0  0
  -26.4440  -31.7420   25.1350 C   0  0  1  0  0  0  0  0  0  0  0  0
  -25.3510  -31.5080   26.2050 C   0  0  0  0  0  1  0  0  0  0  0  0
  -27.0260  -30.3620   24.7440 C   0  0  0  0  0  1  0  0  0  0  0  0
  -27.5960  -32.5380   25.7930 C   0  0  0  0  0  1  0  0  0  0  0  0
  -25.6120  -33.9080   24.1890 N   0  0  0  0  0  0  0  0  0  0  0  0
  -25.9370  -34.9630   23.4310 C   0  0  0  0  0  0  0  0  0  0  0  0
  -26.5970  -34.8620   22.3930 O   0  0  0  0  0  0  0  0  0  0  0  0
  -25.0220  -34.0630   24.9940 H   0  0  0  0  0  0  0  0  0  0  0  0
  -24.2020  -36.7540   23.0960 C   0  0  0  0  0  1  0  0  0  0  0  0
  -25.4520  -36.3500   23.8940 C   0  0  0  0  0  3  0  0  0  0  0  0
  -27.5930  -37.2370   24.7030 C   0  0  0  0  0  1  0  0  0  0  0  0
  -26.4810  -37.4050   23.7720 N   0  0  0  0  0  0  0  0  0  0  0  0
  -26.0760  -38.3240   23.9280 H   0  0  0  0  0  0  0  0  0  0  0  0
  3  2  2  0
  4  2  1  0
  5  1  1  0
  5  3  1  0
  6  5  2  0
  6  7  1  0
  7 17  1  0
  7  4  2  0
  8  6  1  0
  9 17  1  0
 10 15  1  0
 11 12  1  0
 11 10  1  0
 13 12  1  0
 13 22  1  0
 13 14  1  0
 15  9  1  0
 15 14  1  0
 16  9  2  0
 17 18  1  0
 19 20  2  0
 20 39  1  0
 21 20  1  0
 21 24  1  0
 22 19  1  0
 22 23  1  0
 23 21  2  0
 24 25  1  0
 25 26  2  0
 27 30  1  0
 27 26  1  0
 28 27  2  0
 29 28  1  0
 29 24  2  0
 30 31  1  0
 31 32  1  0
 32 33  2  0
 34 33  1  0
 34 38  1  0
 35 34  2  0
 36 31  2  0
 36 35  1  0
 37 36  1  0
 39 40  1  0
 40 43  1  0
 40 42  1  0
 41 39  2  0
 44 45  1  0
 44 19  1  0
 46 44  1  0
 47 50  2  0
 48 49  1  0
 49 47  1  0
 49  1  1  0
 51 52  1  0
 51 47  1  0
 53 64  2  0
 54 52  1  0
 54 59  1  0
 55 63  1  0
 55 65  1  0
 56 62  1  0
 56 58  1  0
 57 63  1  0
 58 57  1  0
 59 58  2  0
 60 54  2  0
 61 60  1  0
 61 56  2  0
 62 55  1  0
 63 53  1  0
 65 67  2  0
 66 65  1  0
 68 66  1  0
 69 78  2  0
 69 74  1  0
 70 66  1  0
 70 74  1  0
 71 70  1  0
 72 73  1  0
 72 71  1  0
 73 69  1  0
 74 75  2  0
 75 76  1  0
 77 76  2  0
 78 77  1  0
 79 53  1  0
 79 84  1  0
 79 80  1  0
 80 83  1  1
 80 81  1  0
 82 80  1  0
 84 87  1  0
 85 89  1  0
 85 84  1  0
 86 85  2  0
 89 88  1  0
 91 89  1  0
 91 92  1  0
 91 90  1  0
M  ISO  4   9 100  17 100  51 101  52 101
M  END
>  <TORSDO>  (9) 
F 19

>  <SCORE>  (9) 
-14.580

>  <name>  (9) 
8

>  <ligand_id>  (9) 
8

>  <original_smiles>  (9) 
[H]c1c([H])c(N([H])C(=O)N2C([H])([H])C([H])([H])C([H])([H])C([H])(n3nc(-c4c([H])c([H])c(Oc5c([H])c([H])c(F)c([H])c5F)c([H])c4[H])c(C(=O)N([H])[H])c3N([H])[H])C2([H])[H])c(C([H])([H])[H])c(C([H])([H])N(C(=O)C([H])([H])Oc2c([H])c([H])c3c(c2[H])C([H])([H])N(C(=O)C([H])(N([H])C(=O)C([H])(N([H])C([H])([H])[H])C([H])([H])[H])C(C([H])([H])[H])(C([H])([H])[H])C([H])([H])[H])C([H])(C(=O)N([H])C2([H])c4c([H])c([H])c([H])c([H])c4C([H])([H])C([H])([H])C2([H])[H])C3([H])[H])C([H])([H])[H])c1[H]

>  <smiles>  (9) 
[H]c1c([H])c(N([H])C(=O)N2C([H])([H])C([H])([H])C([H])([H])C([H])(n3nc(-c4c([H])c([H])c(Oc5c([H])c([H])c(F)c([H])c5F)c([H])c4[H])c(C(=O)N([H])[H])c3N([H])[H])C2([H])[H])c(C([H])([H])[H])c(C([H])([H])N(C(=O)C([H])([H])Oc2c([H])c([H])c3c(c2[H])C([H])([H])N(C(=O)C([H])(N([H])C(=O)C([H])(N([H])C([H])([H])[H])C([H])([H])[H])C(C([H])([H])[H])(C([H])([H])[H])C([H])([H])[H])C([H])(C(=O)N([H])C2([H])c4c([H])c([H])c([H])c([H])c4C([H])([H])C([H])([H])C2([H])[H])C3([H])[H])C([H])([H])[H])c1[H]

$$$$
9:0:0
     RDKit          3D

 91 99  0  0  1  0  0  0  0  0999 V2000
  -28.1140  -21.9560   18.3550 O   0  0  0  0  0  0  0  0  0  0  0  0
  -27.3040  -21.8940   20.7140 O   0  0  0  0  0  0  0  0  0  0  0  0
  -28.4530  -21.9450   19.7910 S   0  0  1  0  0  0  0  0  0  0  0  0
  -29.6170  -18.1930   21.4190 C   0  0  0  0  0  3  0  0  0  0  0  0
  -29.3090  -19.5910   21.3030 C   0  0  0  0  0  3  0  0  0  0  0  0
  -29.8830  -19.5040   18.9860 C   0  0  0  0  0  3  0  0  0  0  0  0
  -30.2050  -18.0970   19.0920 C   0  0  0  0  0  0  0  0  0  0  0  0
  -30.0430  -17.3760   20.3250 C   0  0  0  0  0  0  0  0  0  0  0  0
  -29.3850  -20.2900   20.0680 C   0  0  0  0  0  0  0  0  0  0  0  0
  -30.6390  -17.3790   17.8230 C   0  0  0  0  0  1  0  0  0  0  0  0
  -30.8510  -14.8330   20.0590 C   0  0  0  0  0  0  0  0  0  0  0  0
  -30.6450  -12.5410   19.0680 C   0  0  0  0  0  2  0  0  0  0  0  0
  -29.6510  -12.6170   17.8860 C   0  0  0  0  0  2  0  0  0  0  0  0
  -28.2020  -12.4350   18.3800 C   0  0  0  0  0  2  0  0  0  0  0  0
  -27.8820  -13.3150   19.6160 C   0  0  0  0  0  3  0  0  0  0  0  0
  -28.9920  -13.2160   20.6870 C   0  0  0  0  0  2  0  0  0  0  0  0
  -30.2640  -13.5850   20.0480 N   0  0  0  0  0  0  0  0  0  0  0  0
  -31.9810  -14.9840   19.5860 O   0  0  0  0  0  0  0  0  0  0  0  0
  -30.0830  -15.8940   20.5190 N   0  0  0  0  0  0  0  0  0  0  0  0
  -29.3030  -15.5530   21.0620 H   0  0  0  0  0  0  0  0  0  0  0  0
  -25.5460  -13.9060   20.4980 C   0  0  0  0  0  0  0  0  0  0  0  0
  -24.4920  -13.1320   20.8980 C   0  0  0  0  0  0  0  0  0  0  0  0
  -24.9310  -11.7770   20.7890 C   0  0  0  0  0  0  0  0  0  0  0  0
  -26.5620  -13.0250   20.1670 N   0  0  0  0  0  0  0  0  0  0  0  0
  -26.2010  -11.7370   20.4010 N   0  0  0  0  0  0  0  0  0  0  0  0
  -24.1990  -10.5170   20.9710 C   0  0  0  0  0  0  0  0  0  0  0  0
  -24.6180   -9.5490   21.9110 C   0  0  0  0  0  3  0  0  0  0  0  0
  -23.8850   -8.3550   22.0820 C   0  0  0  0  0  3  0  0  0  0  0  0
  -22.7190   -8.1190   21.3160 C   0  0  0  0  0  0  0  0  0  0  0  0
  -22.3190   -9.0750   20.3650 C   0  0  0  0  0  3  0  0  0  0  0  0
  -23.0530  -10.2610   20.1900 C   0  0  0  0  0  3  0  0  0  0  0  0
  -21.9600   -6.9770   21.3970 O   0  0  0  0  0  0  0  0  0  0  0  0
  -21.8090   -6.2950   22.5770 C   0  0  0  0  0  0  0  0  0  0  0  0
  -21.2640   -6.9060   23.7270 C   0  0  0  0  0  3  0  0  0  0  0  0
  -21.0640   -6.1480   24.8980 C   0  0  0  0  0  3  0  0  0  0  0  0
  -21.3990   -4.7810   24.9190 C   0  0  0  0  0  0  0  0  0  0  0  0
  -21.9360   -4.1700   23.7720 C   0  0  0  0  0  3  0  0  0  0  0  0
  -22.1380   -4.9240   22.6040 C   0  0  0  0  0  0  0  0  0  0  0  0
  -22.6370   -4.3270   21.4960 F   0  0  0  0  0  0  0  0  0  0  0  0
  -21.1980   -4.0500   26.0400 F   0  0  0  0  0  0  0  0  0  0  0  0
  -23.1200  -13.6170   21.2690 C   0  0  0  0  0  0  0  0  0  0  0  0
  -22.4350  -12.9030   22.1580 N   0  0  0  0  0  0  0  0  0  0  0  0
  -22.6650  -14.6620   20.8060 O   0  0  0  0  0  0  0  0  0  0  0  0
  -22.8130  -12.0560   22.5550 H   0  0  0  0  0  0  0  0  0  0  0  0
  -21.5160  -13.2120   22.4450 H   0  0  0  0  0  0  0  0  0  0  0  0
  -25.7190  -15.2800   20.3660 N   0  0  0  0  0  0  0  0  0  0  0  0
  -24.9690  -15.9360   20.5540 H   0  0  0  0  0  0  0  0  0  0  0  0
  -26.5510  -15.7260   20.0020 H   0  0  0  0  0  0  0  0  0  0  0  0
  -29.2680  -23.6840   20.1170 C   0  0  0  0  0  2  0  0  0  0  0  0
  -28.2690  -24.9480   19.8570 C   0  0  0  0  0  2  0  0  0  0  0  0
  -28.5300  -26.4110   20.1550 O   0  0  0  0  0  0  0  0  0  0  0  0
  -24.7570  -31.7790   23.3100 C   0  0  0  0  0  0  0  0  0  0  0  0
  -27.4420  -27.3260   20.1000 C   0  0  0  0  0  0  0  0  0  0  0  0
  -23.6010  -30.4730   21.5670 C   0  0  0  0  0  3  0  0  0  0  0  0
  -25.0900  -28.9940   20.0990 C   0  0  0  0  0  0  0  0  0  0  0  0
  -26.1510  -30.7780   21.4770 C   0  0  0  0  0  2  0  0  0  0  0  0
  -26.2480  -29.4320   20.7560 C   0  0  0  0  0  0  0  0  0  0  0  0
  -27.4240  -28.6120   20.7440 C   0  0  0  0  0  3  0  0  0  0  0  0
  -26.2560  -26.9660   19.4140 C   0  0  0  0  0  3  0  0  0  0  0  0
  -25.1010  -27.7710   19.4160 C   0  0  0  0  0  3  0  0  0  0  0  0
  -23.8570  -29.8730   20.1590 C   0  0  0  0  0  2  0  0  0  0  0  0
  -24.8550  -31.0260   22.1760 N   0  0  0  0  0  0  0  0  0  0  0  0
  -23.6590  -32.0310   23.8280 O   0  0  0  0  0  0  0  0  0  0  0  0
  -22.9070  -29.4100   22.4540 C   0  0  0  0  0  0  0  0  0  0  0  0
  -21.5850  -29.2380   22.2780 N   0  0  0  0  0  0  0  0  0  0  0  0
  -23.5600  -28.7440   23.2620 O   0  0  0  0  0  0  0  0  0  0  0  0
  -21.1140  -29.8300   21.6070 H   0  0  0  0  0  0  0  0  0  0  0  0
  -18.1940  -28.0200   22.6280 C   0  0  0  0  0  0  0  0  0  0  0  0
  -20.7450  -28.2630   22.9780 C   0  0  0  0  0  3  0  0  0  0  0  0
  -20.8620  -26.8630   22.3290 C   0  0  0  0  0  2  0  0  0  0  0  0
  -19.7870  -26.5960   21.2720 C   0  0  0  0  0  2  0  0  0  0  0  0
  -18.3890  -26.7090   21.8840 C   0  0  0  0  0  2  0  0  0  0  0  0
  -19.3010  -28.7590   23.1260 C   0  0  0  0  0  0  0  0  0  0  0  0
  -19.0640  -29.9870   23.7780 C   0  0  0  0  0  3  0  0  0  0  0  0
  -17.7550  -30.4800   23.9360 C   0  0  0  0  0  3  0  0  0  0  0  0
  -16.6620  -29.7390   23.4530 C   0  0  0  0  0  3  0  0  0  0  0  0
  -16.8830  -28.5100   22.8050 C   0  0  0  0  0  3  0  0  0  0  0  0
  -26.0210  -32.3790   24.0000 C   0  0  0  0  0  3  0  0  0  0  0  0
  -26.4640  -31.5770   25.2860 C   0  0  1  0  0  0  0  0  0  0  0  0
  -25.3200  -31.3460   26.3010 C   0  0  0  0  0  1  0  0  0  0  0  0
  -27.0360  -30.1940   24.9000 C   0  0  0  0  0  1  0  0  0  0  0  0
  -27.5980  -32.3390   26.0130 C   0  0  0  0  0  1  0  0  0  0  0  0
  -25.7210  -33.7760   24.3440 N   0  0  0  0  0  0  0  0  0  0  0  0
  -26.0690  -34.8360   23.6020 C   0  0  0  0  0  0  0  0  0  0  0  0
  -26.7450  -34.7390   22.5740 O   0  0  0  0  0  0  0  0  0  0  0  0
  -25.1260  -33.9250   25.1450 H   0  0  0  0  0  0  0  0  0  0  0  0
  -24.3490  -36.6420   23.2730 C   0  0  0  0  0  1  0  0  0  0  0  0
  -25.5920  -36.2230   24.0740 C   0  0  0  0  0  3  0  0  0  0  0  0
  -27.7330  -37.0950   24.9040 C   0  0  0  0  0  1  0  0  0  0  0  0
  -26.6300  -37.2720   23.9640 N   0  0  0  0  0  0  0  0  0  0  0  0
  -26.2280  -38.1940   24.1170 H   0  0  0  0  0  0  0  0  0  0  0  0
  1  3  2  0
  3  9  1  0
  3 49  1  1
  3  2  2  0
  5  4  1  0
  6  7  2  0
  6  9  1  0
  7  8  1  0
  8 19  1  0
  8  4  2  0
  9  5  2  0
 10  7  1  0
 11 19  1  0
 12 17  1  0
 13 14  1  0
 13 12  1  0
 15 14  1  0
 15 24  1  0
 15 16  1  0
 17 11  1  0
 17 16  1  0
 18 11  2  0
 19 20  1  0
 21 22  2  0
 22 41  1  0
 23 22  1  0
 23 26  1  0
 24 25  1  0
 24 21  1  0
 25 23  2  0
 26 27  1  0
 27 28  2  0
 29 32  1  0
 29 28  1  0
 30 29  2  0
 31 30  1  0
 31 26  2  0
 32 33  1  0
 33 38  2  0
 33 34  1  0
 34 35  2  0
 35 36  1  0
 36 40  1  0
 37 36  2  0
 38 37  1  0
 39 38  1  0
 41 42  1  0
 42 45  1  0
 42 44  1  0
 43 41  2  0
 46 21  1  0
 46 47  1  0
 48 46  1  0
 50 49  1  0
 50 51  1  0
 52 63  2  0
 53 51  1  0
 53 58  1  0
 54 62  1  0
 54 64  1  0
 55 61  1  0
 55 57  1  0
 56 62  1  0
 57 56  1  0
 58 57  2  0
 59 60  1  0
 59 53  2  0
 60 55  2  0
 61 54  1  0
 62 52  1  0
 64 66  2  0
 65 64  1  0
 67 65  1  0
 68 77  2  0
 68 73  1  0
 69 65  1  0
 69 73  1  0
 70 69  1  0
 71 72  1  0
 71 70  1  0
 72 68  1  0
 73 74  2  0
 74 75  1  0
 76 75  2  0
 77 76  1  0
 78 52  1  0
 78 83  1  0
 78 79  1  0
 79 82  1  1
 79 80  1  0
 81 79  1  0
 83 86  1  0
 84 88  1  0
 84 83  1  0
 85 84  2  0
 88 87  1  0
 90 88  1  0
 90 91  1  0
 90 89  1  0
M  ISO  4  11 100  19 100  50 101  51 101
M  END
>  <TORSDO>  (10) 
F 19

>  <SCORE>  (10) 
-13.019

>  <name>  (10) 
9

>  <ligand_id>  (10) 
9

>  <original_smiles>  (10) 
[H]c1c([H])c([H])c2c(c1[H])C([H])([H])C([H])([H])C([H])([H])C2([H])N([H])C(=O)C1([H])N(C(=O)C([H])(N([H])C(=O)C([H])(N([H])C([H])([H])[H])C([H])([H])[H])C(C([H])([H])[H])(C([H])([H])[H])C([H])([H])[H])C([H])([H])c2c([H])c(OC([H])([H])C([H])([H])S(=O)(=O)c3c([H])c([H])c(N([H])C(=O)N4C([H])([H])C([H])([H])C([H])([H])C([H])(n5nc(-c6c([H])c([H])c(Oc7c([H])c([H])c(F)c([H])c7F)c([H])c6[H])c(C(=O)N([H])[H])c5N([H])[H])C4([H])[H])c(C([H])([H])[H])c3[H])c([H])c([H])c2C1([H])[H]

>  <smiles>  (10) 
[H]c1c([H])c([H])c2c(c1[H])C([H])([H])C([H])([H])C([H])([H])C2([H])N([H])C(=O)C1([H])N(C(=O)C([H])(N([H])C(=O)C([H])(N([H])C([H])([H])[H])C([H])([H])[H])C(C([H])([H])[H])(C([H])([H])[H])C([H])([H])[H])C([H])([H])c2c([H])c(OC([H])([H])C([H])([H])S(=O)(=O)c3c([H])c([H])c(N([H])C(=O)N4C([H])([H])C([H])([H])C([H])([H])C([H])(n5nc(-c6c([H])c([H])c(Oc7c([H])c([H])c(F)c([H])c7F)c([H])c6[H])c(C(=O)N([H])[H])c5N([H])[H])C4([H])[H])c(C([H])([H])[H])c3[H])c([H])c([H])c2C1([H])[H]

$$$$
10:0:0
     RDKit          3D

 94103  0  0  1  0  0  0  0  0999 V2000
  -29.9930  -23.1550   19.6240 C   0  0  0  0  0  0  0  0  0  0  0  0
  -29.8630  -24.6710   19.9290 C   0  0  0  0  0  2  0  0  0  0  0  0
  -27.6290  -24.2960   20.8610 C   0  0  0  0  0  2  0  0  0  0  0  0
  -27.6520  -22.8150   20.3810 C   0  0  0  0  0  2  0  0  0  0  0  0
  -28.4170  -25.2190   19.9070 C   0  0  0  0  0  3  0  0  0  0  0  0
  -28.9360  -22.3210   19.8230 N   0  0  0  0  0  0  0  0  0  0  0  0
  -31.0620  -22.7510   19.1580 O   0  0  0  0  0  0  0  0  0  0  0  0
  -28.4100  -26.6340   20.2680 O   0  0  0  0  0  0  0  0  0  0  0  0
  -24.5820  -31.8720   23.2640 C   0  0  0  0  0  0  0  0  0  0  0  0
  -27.2420  -27.3900   20.2030 C   0  0  0  0  0  0  0  0  0  0  0  0
  -23.3920  -30.4780   21.6070 C   0  0  0  0  0  3  0  0  0  0  0  0
  -24.8550  -28.9410   20.1860 C   0  0  0  0  0  0  0  0  0  0  0  0
  -25.9240  -30.8210   21.4370 C   0  0  0  0  0  2  0  0  0  0  0  0
  -26.0110  -29.4490   20.7900 C   0  0  0  0  0  0  0  0  0  0  0  0
  -27.2040  -28.6830   20.7920 C   0  0  0  0  0  3  0  0  0  0  0  0
  -26.0650  -26.9150   19.5790 C   0  0  0  0  0  3  0  0  0  0  0  0
  -24.8800  -27.6760   19.5750 C   0  0  0  0  0  3  0  0  0  0  0  0
  -23.6120  -29.8040   20.2260 C   0  0  0  0  0  2  0  0  0  0  0  0
  -24.6500  -31.0740   22.1600 N   0  0  0  0  0  0  0  0  0  0  0  0
  -23.4960  -32.1440   23.7960 O   0  0  0  0  0  0  0  0  0  0  0  0
  -22.7290  -29.4560   22.5600 C   0  0  0  0  0  0  0  0  0  0  0  0
  -21.4050  -29.2750   22.4220 N   0  0  0  0  0  0  0  0  0  0  0  0
  -23.4040  -28.8270   23.3790 O   0  0  0  0  0  0  0  0  0  0  0  0
  -20.9200  -29.8330   21.7330 H   0  0  0  0  0  0  0  0  0  0  0  0
  -18.0200  -28.1070   22.9190 C   0  0  0  0  0  0  0  0  0  0  0  0
  -20.5810  -28.3350   23.1820 C   0  0  0  0  0  3  0  0  0  0  0  0
  -20.6660  -26.9100   22.5860 C   0  0  0  0  0  2  0  0  0  0  0  0
  -19.5570  -26.6140   21.5720 C   0  0  0  0  0  2  0  0  0  0  0  0
  -18.1800  -26.7650   22.2240 C   0  0  0  0  0  2  0  0  0  0  0  0
  -19.1480  -28.8510   23.3550 C   0  0  0  0  0  0  0  0  0  0  0  0
  -18.9460  -30.1070   23.9650 C   0  0  0  0  0  3  0  0  0  0  0  0
  -17.6470  -30.6210   24.1430 C   0  0  0  0  0  3  0  0  0  0  0  0
  -16.5330  -29.8730   23.7230 C   0  0  0  0  0  3  0  0  0  0  0  0
  -16.7200  -28.6180   23.1170 C   0  0  0  0  0  3  0  0  0  0  0  0
  -25.8620  -32.5030   23.8970 C   0  0  0  0  0  3  0  0  0  0  0  0
  -25.5610  -33.9080   24.2020 N   0  0  0  0  0  0  0  0  0  0  0  0
  -25.9110  -34.9460   23.4300 C   0  0  0  0  0  0  0  0  0  0  0  0
  -26.5950  -34.8210   22.4100 O   0  0  0  0  0  0  0  0  0  0  0  0
  -24.9590  -34.0820   24.9940 H   0  0  0  0  0  0  0  0  0  0  0  0
  -24.2140  -36.7540   23.0100 C   0  0  0  0  0  1  0  0  0  0  0  0
  -25.4280  -36.3450   23.8590 C   0  0  0  0  0  3  0  0  0  0  0  0
  -27.5430  -37.2230   24.7450 C   0  0  0  0  0  1  0  0  0  0  0  0
  -26.4750  -37.3850   23.7620 N   0  0  0  0  0  0  0  0  0  0  0  0
  -26.0750  -38.3120   23.8760 H   0  0  0  0  0  0  0  0  0  0  0  0
  -26.3530  -31.7470   25.1930 C   0  0  1  0  0  0  0  0  0  0  0  0
  -25.2410  -31.5280   26.2450 C   0  0  0  0  0  1  0  0  0  0  0  0
  -26.9380  -30.3620   24.8290 C   0  0  0  0  0  1  0  0  0  0  0  0
  -27.4940  -32.5470   25.8640 C   0  0  0  0  0  1  0  0  0  0  0  0
  -28.8430  -21.0330   19.0650 C   0  0  0  0  0  2  0  0  0  0  0  0
  -29.6350  -19.3800   20.9660 C   0  0  0  0  0  3  0  0  0  0  0  0
  -29.9270  -18.0470   21.3800 C   0  0  0  0  0  3  0  0  0  0  0  0
  -29.3870  -18.5810   18.6990 C   0  0  0  0  0  3  0  0  0  0  0  0
  -29.3380  -19.6640   19.6110 C   0  0  0  0  0  0  0  0  0  0  0  0
  -29.9460  -16.9620   20.4620 C   0  0  0  0  0  0  0  0  0  0  0  0
  -29.6760  -17.2570   19.1040 C   0  0  0  0  0  0  0  0  0  0  0  0
  -29.6100  -16.2640   18.1850 F   0  0  0  0  0  0  0  0  0  0  0  0
  -30.7820  -14.5910   20.3530 C   0  0  0  0  0  0  0  0  0  0  0  0
  -30.5210  -12.3860   19.2650 C   0  0  0  0  0  2  0  0  0  0  0  0
  -29.5590  -12.5620   18.0690 C   0  0  0  0  0  2  0  0  0  0  0  0
  -28.0910  -12.4200   18.5190 C   0  0  0  0  0  2  0  0  0  0  0  0
  -27.7680  -13.2650   19.7790 C   0  0  0  0  0  3  0  0  0  0  0  0
  -28.8390  -13.0640   20.8750 C   0  0  0  0  0  2  0  0  0  0  0  0
  -30.1520  -13.3810   20.2890 N   0  0  0  0  0  0  0  0  0  0  0  0
  -31.8970  -14.7800   19.8580 O   0  0  0  0  0  0  0  0  0  0  0  0
  -30.0790  -15.5990   20.9270 N   0  0  0  0  0  0  0  0  0  0  0  0
  -29.3270  -15.2880   21.5210 H   0  0  0  0  0  0  0  0  0  0  0  0
  -25.3900  -13.8790   20.5460 C   0  0  0  0  0  0  0  0  0  0  0  0
  -24.3220  -13.1100   20.9210 C   0  0  0  0  0  0  0  0  0  0  0  0
  -24.7680  -11.7540   20.8530 C   0  0  0  0  0  0  0  0  0  0  0  0
  -26.4220  -12.9910   20.2770 N   0  0  0  0  0  0  0  0  0  0  0  0
  -26.0510  -11.7080   20.5190 N   0  0  0  0  0  0  0  0  0  0  0  0
  -24.0320  -10.4950   21.0330 C   0  0  0  0  0  0  0  0  0  0  0  0
  -24.4550   -9.5180   21.9610 C   0  0  0  0  0  3  0  0  0  0  0  0
  -23.7200   -8.3250   22.1290 C   0  0  0  0  0  3  0  0  0  0  0  0
  -22.5480   -8.1000   21.3670 C   0  0  0  0  0  0  0  0  0  0  0  0
  -22.1450   -9.0660   20.4280 C   0  0  0  0  0  3  0  0  0  0  0  0
  -22.8800  -10.2500   20.2590 C   0  0  0  0  0  3  0  0  0  0  0  0
  -21.7840   -6.9600   21.4450 O   0  0  0  0  0  0  0  0  0  0  0  0
  -21.6970   -6.2300   22.6030 C   0  0  0  0  0  0  0  0  0  0  0  0
  -21.1860   -6.7840   23.7980 C   0  0  0  0  0  3  0  0  0  0  0  0
  -21.0470   -5.9790   24.9460 C   0  0  0  0  0  3  0  0  0  0  0  0
  -21.4090   -4.6190   24.9000 C   0  0  0  0  0  0  0  0  0  0  0  0
  -21.9140   -4.0640   23.7110 C   0  0  0  0  0  3  0  0  0  0  0  0
  -22.0540   -4.8660   22.5650 C   0  0  0  0  0  0  0  0  0  0  0  0
  -22.5190   -4.3210   21.4150 F   0  0  0  0  0  0  0  0  0  0  0  0
  -21.2700   -3.8420   26.0000 F   0  0  0  0  0  0  0  0  0  0  0  0
  -22.9350  -13.5940   21.2330 C   0  0  0  0  0  0  0  0  0  0  0  0
  -22.2200  -12.8870   22.1010 N   0  0  0  0  0  0  0  0  0  0  0  0
  -22.4970  -14.6350   20.7430 O   0  0  0  0  0  0  0  0  0  0  0  0
  -22.5870  -12.0450   22.5170 H   0  0  0  0  0  0  0  0  0  0  0  0
  -21.2900  -13.1940   22.3530 H   0  0  0  0  0  0  0  0  0  0  0  0
  -25.5660  -15.2510   20.3950 N   0  0  0  0  0  0  0  0  0  0  0  0
  -24.8100  -15.9120   20.5280 H   0  0  0  0  0  0  0  0  0  0  0  0
  -26.4170  -15.6870   20.0610 H   0  0  0  0  0  0  0  0  0  0  0  0
  1  6  1  0
  1  2  1  0
  4  3  1  0
  5  2  1  0
  5  8  1  0
  5  3  1  0
  6  4  1  0
  7  1  2  0
  9 20  2  0
 10  8  1  0
 10 15  1  0
 11 19  1  0
 11 21  1  0
 12 18  1  0
 12 14  1  0
 13 19  1  0
 14 15  2  0
 14 13  1  0
 16 10  2  0
 17 16  1  0
 17 12  2  0
 18 11  1  0
 19  9  1  0
 21 23  2  0
 22 21  1  0
 24 22  1  0
 25 34  2  0
 25 30  1  0
 26 22  1  0
 26 30  1  0
 27 26  1  0
 28 29  1  0
 28 27  1  0
 29 25  1  0
 30 31  2  0
 31 32  1  0
 33 32  2  0
 34 33  1  0
 35  9  1  0
 35 36  1  0
 35 45  1  0
 36 39  1  0
 37 41  1  0
 37 36  1  0
 38 37  2  0
 41 40  1  0
 43 41  1  0
 43 44  1  0
 43 42  1  0
 45 48  1  1
 45 46  1  0
 47 45  1  0
 49 53  1  0
 49  6  1  0
 50 51  1  0
 52 55  2  0
 52 53  1  0
 53 50  2  0
 54 65  1  0
 54 51  2  0
 55 54  1  0
 56 55  1  0
 57 65  1  0
 58 63  1  0
 59 60  1  0
 59 58  1  0
 61 60  1  0
 61 70  1  0
 61 62  1  0
 63 57  1  0
 63 62  1  0
 64 57  2  0
 65 66  1  0
 67 68  2  0
 68 87  1  0
 69 68  1  0
 69 72  1  0
 70 71  1  0
 70 67  1  0
 71 69  2  0
 72 73  1  0
 73 74  2  0
 75 78  1  0
 75 74  1  0
 76 75  2  0
 77 76  1  0
 77 72  2  0
 78 79  1  0
 79 80  1  0
 80 81  2  0
 82 81  1  0
 82 86  1  0
 83 82  2  0
 84 79  2  0
 84 83  1  0
 85 84  1  0
 87 88  1  0
 88 91  1  0
 88 90  1  0
 89 87  2  0
 92 93  1  0
 92 67  1  0
 94 92  1  0
M  ISO  4   5 101   8 101  57 100  65 100
M  END
>  <TORSDO>  (11) 
F 18

>  <SCORE>  (11) 
-14.317

>  <name>  (11) 
10

>  <ligand_id>  (11) 
10

>  <original_smiles>  (11) 
[H]c1c([H])c([H])c2c(c1[H])C([H])([H])C([H])([H])C([H])([H])C2([H])N([H])C(=O)C1([H])N(C(=O)C([H])(N([H])C(=O)C([H])(N([H])C([H])([H])[H])C([H])([H])[H])C(C([H])([H])[H])(C([H])([H])[H])C([H])([H])[H])C([H])([H])c2c([H])c(OC3([H])C([H])([H])C(=O)N(C([H])([H])c4c([H])c([H])c(N([H])C(=O)N5C([H])([H])C([H])([H])C([H])([H])C([H])(n6nc(-c7c([H])c([H])c(Oc8c([H])c([H])c(F)c([H])c8F)c([H])c7[H])c(C(=O)N([H])[H])c6N([H])[H])C5([H])[H])c(F)c4[H])C([H])([H])C3([H])[H])c([H])c([H])c2C1([H])[H]

>  <smiles>  (11) 
[H]c1c([H])c([H])c2c(c1[H])C([H])([H])C([H])([H])C([H])([H])C2([H])N([H])C(=O)C1([H])N(C(=O)C([H])(N([H])C(=O)C([H])(N([H])C([H])([H])[H])C([H])([H])[H])C(C([H])([H])[H])(C([H])([H])[H])C([H])([H])[H])C([H])([H])c2c([H])c(OC3([H])C([H])([H])C(=O)N(C([H])([H])c4c([H])c([H])c(N([H])C(=O)N5C([H])([H])C([H])([H])C([H])([H])C([H])(n6nc(-c7c([H])c([H])c(Oc8c([H])c([H])c(F)c([H])c8F)c([H])c7[H])c(C(=O)N([H])[H])c6N([H])[H])C5([H])[H])c(F)c4[H])C([H])([H])C3([H])[H])c([H])c([H])c2C1([H])[H]

$$$$
11:0:0
     RDKit          3D

 97106  0  0  1  0  0  0  0  0999 V2000
  -28.0520  -21.2420   21.1450 C   0  0  0  0  0  0  0  0  0  0  0  0
  -27.1710  -22.4800   21.4210 C   0  0  0  0  0  2  0  0  0  0  0  0
  -27.2810  -23.6570   20.4370 C   0  0  0  0  0  2  0  0  0  0  0  0
  -29.3680  -22.6250   19.5640 C   0  0  0  0  0  2  0  0  0  0  0  0
  -28.7330  -24.0020   20.1290 C   0  0  0  0  0  3  0  0  0  0  0  0
  -29.1460  -21.3150   20.3340 N   0  0  0  0  0  0  0  0  0  0  0  0
  -27.7360  -20.2090   21.7430 O   0  0  0  0  0  0  0  0  0  0  0  0
  -29.6940  -18.7480   20.1180 C   0  0  0  0  0  3  0  0  0  0  0  0
  -31.9440  -17.9240   20.4730 C   0  0  0  0  0  3  0  0  0  0  0  0
  -31.4750  -20.3400   20.6360 C   0  0  0  0  0  0  0  0  0  0  0  0
  -30.0950  -20.1460   20.3130 C   0  0  0  0  0  0  0  0  0  0  0  0
  -30.5940  -17.6050   20.2160 C   0  0  0  0  0  0  0  0  0  0  0  0
  -32.3730  -19.2480   20.6660 C   0  0  0  0  0  0  0  0  0  0  0  0
  -33.6870  -19.4480   20.9430 F   0  0  0  0  0  0  0  0  0  0  0  0
  -30.9220  -15.0140   19.9150 C   0  0  0  0  0  0  0  0  0  0  0  0
  -30.6450  -12.7220   18.9590 C   0  0  0  0  0  2  0  0  0  0  0  0
  -29.6580  -12.7770   17.7740 C   0  0  0  0  0  2  0  0  0  0  0  0
  -28.2060  -12.6280   18.2700 C   0  0  0  0  0  2  0  0  0  0  0  0
  -27.8920  -13.5330   19.4920 C   0  0  0  0  0  3  0  0  0  0  0  0
  -29.0030  -13.4770   20.5640 C   0  0  0  0  0  2  0  0  0  0  0  0
  -30.2680  -13.8030   19.8970 N   0  0  0  0  0  0  0  0  0  0  0  0
  -32.0940  -15.0650   19.5310 O   0  0  0  0  0  0  0  0  0  0  0  0
  -30.1820  -16.1740   20.1270 N   0  0  0  0  0  0  0  0  0  0  0  0
  -29.1930  -16.0080   20.2380 H   0  0  0  0  0  0  0  0  0  0  0  0
  -25.5610  -14.1420   20.3680 C   0  0  0  0  0  0  0  0  0  0  0  0
  -24.5040  -13.3760   20.7790 C   0  0  0  0  0  0  0  0  0  0  0  0
  -24.9410  -12.0190   20.6920 C   0  0  0  0  0  0  0  0  0  0  0  0
  -26.5730  -13.2520   20.0520 N   0  0  0  0  0  0  0  0  0  0  0  0
  -26.2130  -11.9680   20.3110 N   0  0  0  0  0  0  0  0  0  0  0  0
  -24.2040  -10.7640   20.8910 C   0  0  0  0  0  0  0  0  0  0  0  0
  -24.6220   -9.7990   21.8330 C   0  0  0  0  0  3  0  0  0  0  0  0
  -23.8830   -8.6120   22.0200 C   0  0  0  0  0  3  0  0  0  0  0  0
  -22.7090   -8.3800   21.2640 C   0  0  0  0  0  0  0  0  0  0  0  0
  -22.3110   -9.3330   20.3080 C   0  0  0  0  0  3  0  0  0  0  0  0
  -23.0510  -10.5110   20.1200 C   0  0  0  0  0  3  0  0  0  0  0  0
  -21.9430   -7.2440   21.3600 O   0  0  0  0  0  0  0  0  0  0  0  0
  -21.8360   -6.5420   22.5350 C   0  0  0  0  0  0  0  0  0  0  0  0
  -21.3300   -7.1360   23.7130 C   0  0  0  0  0  3  0  0  0  0  0  0
  -21.1730   -6.3600   24.8780 C   0  0  0  0  0  3  0  0  0  0  0  0
  -21.5100   -4.9940   24.8680 C   0  0  0  0  0  0  0  0  0  0  0  0
  -22.0080   -4.4010   23.6950 C   0  0  0  0  0  3  0  0  0  0  0  0
  -22.1670   -5.1730   22.5310 C   0  0  0  0  0  0  0  0  0  0  0  0
  -22.6270   -4.5910   21.3970 F   0  0  0  0  0  0  0  0  0  0  0  0
  -21.3520   -4.2480   25.9860 F   0  0  0  0  0  0  0  0  0  0  0  0
  -23.1310  -13.8710   21.1320 C   0  0  0  0  0  0  0  0  0  0  0  0
  -22.4380  -13.1700   22.0230 N   0  0  0  0  0  0  0  0  0  0  0  0
  -22.6820  -14.9120   20.6540 O   0  0  0  0  0  0  0  0  0  0  0  0
  -22.8110  -12.3270   22.4310 H   0  0  0  0  0  0  0  0  0  0  0  0
  -21.5180  -13.4830   22.2980 H   0  0  0  0  0  0  0  0  0  0  0  0
  -25.7350  -15.5140   20.2110 N   0  0  0  0  0  0  0  0  0  0  0  0
  -24.9780  -16.1680   20.3760 H   0  0  0  0  0  0  0  0  0  0  0  0
  -26.5470  -15.9500   19.7950 H   0  0  0  0  0  0  0  0  0  0  0  0
  -32.0500  -21.6470   21.0470 C   0  0  0  0  0  0  0  0  0  0  0  0
  -31.8580  -22.0170   22.5130 C   0  0  0  0  0  1  0  0  0  0  0  0
  -32.6890  -22.3920   20.2990 O   0  0  0  0  0  0  0  0  0  0  0  0
  -28.8180  -25.3510   19.2310 C   0  0  0  0  0  2  0  0  0  0  0  0
  -28.6660  -26.7360   19.7900 O   0  0  0  0  0  0  0  0  0  0  0  0
  -24.6880  -31.7980   23.0800 C   0  0  0  0  0  0  0  0  0  0  0  0
  -27.4860  -27.5120   19.7590 C   0  0  0  0  0  0  0  0  0  0  0  0
  -23.5360  -30.4210   21.3830 C   0  0  0  0  0  3  0  0  0  0  0  0
  -25.0420  -29.0190   19.8570 C   0  0  0  0  0  0  0  0  0  0  0  0
  -26.0550  -30.8740   21.1850 C   0  0  0  0  0  2  0  0  0  0  0  0
  -26.1920  -29.5320   20.4680 C   0  0  0  0  0  0  0  0  0  0  0  0
  -27.4110  -28.7880   20.4100 C   0  0  0  0  0  3  0  0  0  0  0  0
  -26.3080  -27.0570   19.1290 C   0  0  0  0  0  3  0  0  0  0  0  0
  -25.1010  -27.7900   19.1790 C   0  0  0  0  0  3  0  0  0  0  0  0
  -23.7640  -29.8310   19.9660 C   0  0  0  0  0  2  0  0  0  0  0  0
  -24.7790  -31.0490   21.9400 N   0  0  0  0  0  0  0  0  0  0  0  0
  -23.5990  -31.9910   23.6400 O   0  0  0  0  0  0  0  0  0  0  0  0
  -22.9410  -29.3260   22.2980 C   0  0  0  0  0  0  0  0  0  0  0  0
  -21.6260  -29.0810   22.1750 N   0  0  0  0  0  0  0  0  0  0  0  0
  -23.6630  -28.6990   23.0790 O   0  0  0  0  0  0  0  0  0  0  0  0
  -21.1020  -29.6440   21.5200 H   0  0  0  0  0  0  0  0  0  0  0  0
  -18.3240  -27.6710   22.6370 C   0  0  0  0  0  0  0  0  0  0  0  0
  -20.8670  -28.0610   22.9030 C   0  0  0  0  0  3  0  0  0  0  0  0
  -21.0440  -26.6680   22.2570 C   0  0  0  0  0  2  0  0  0  0  0  0
  -19.9520  -26.3350   21.2350 C   0  0  0  0  0  2  0  0  0  0  0  0
  -18.5690  -26.3690   21.8940 C   0  0  0  0  0  2  0  0  0  0  0  0
  -19.4010  -28.4720   23.0970 C   0  0  0  0  0  0  0  0  0  0  0  0
  -19.1160  -29.6900   23.7510 C   0  0  0  0  0  3  0  0  0  0  0  0
  -17.7860  -30.1040   23.9540 C   0  0  0  0  0  3  0  0  0  0  0  0
  -16.7230  -29.2980   23.5110 C   0  0  0  0  0  3  0  0  0  0  0  0
  -16.9940  -28.0840   22.8560 C   0  0  0  0  0  3  0  0  0  0  0  0
  -25.9420  -32.4640   23.7230 C   0  0  0  0  0  3  0  0  0  0  0  0
  -26.4860  -31.6800   24.9810 C   0  0  1  0  0  0  0  0  0  0  0  0
  -25.4000  -31.3720   26.0400 C   0  0  0  0  0  1  0  0  0  0  0  0
  -27.1250  -30.3380   24.5530 C   0  0  0  0  0  1  0  0  0  0  0  0
  -27.6100  -32.5000   25.6600 C   0  0  0  0  0  1  0  0  0  0  0  0
  -25.5780  -33.8380   24.0940 N   0  0  0  0  0  0  0  0  0  0  0  0
  -25.8680  -34.9240   23.3660 C   0  0  0  0  0  0  0  0  0  0  0  0
  -26.5410  -34.8770   22.3320 O   0  0  0  0  0  0  0  0  0  0  0  0
  -24.9770  -33.9460   24.8980 H   0  0  0  0  0  0  0  0  0  0  0  0
  -24.0690  -36.6580   23.0650 C   0  0  0  0  0  1  0  0  0  0  0  0
  -25.3280  -36.2800   23.8610 C   0  0  0  0  0  3  0  0  0  0  0  0
  -27.4260  -37.2350   24.7100 C   0  0  0  0  0  1  0  0  0  0  0  0
  -26.3190  -37.3750   23.7690 N   0  0  0  0  0  0  0  0  0  0  0  0
  -25.8760  -38.2760   23.9340 H   0  0  0  0  0  0  0  0  0  0  0  0
  1  2  1  0
  1  7  2  0
  3  2  1  0
  4  5  1  0
  4  6  1  0
  5 56  1  0
  5  3  1  0
  6  1  1  0
  8 12  2  0
  8 11  1  0
  9 13  2  0
 10 13  1  0
 10 53  1  0
 11  6  1  0
 11 10  2  0
 12  9  1  0
 13 14  1  0
 15 23  1  0
 16 21  1  0
 17 18  1  0
 17 16  1  0
 19 18  1  0
 19 28  1  0
 19 20  1  0
 21 15  1  0
 21 20  1  0
 22 15  2  0
 23 12  1  0
 23 24  1  0
 25 26  2  0
 26 45  1  0
 27 26  1  0
 27 30  1  0
 28 29  1  0
 28 25  1  0
 29 27  2  0
 30 31  1  0
 31 32  2  0
 33 36  1  0
 33 32  1  0
 34 33  2  0
 35 34  1  0
 35 30  2  0
 36 37  1  0
 37 38  1  0
 38 39  2  0
 40 39  1  0
 40 44  1  0
 41 40  2  0
 42 37  2  0
 42 41  1  0
 43 42  1  0
 45 46  1  0
 46 49  1  0
 46 48  1  0
 47 45  2  0
 50 25  1  0
 50 51  1  0
 52 50  1  0
 53 54  1  0
 55 53  2  0
 56 57  1  0
 58 69  2  0
 59 57  1  0
 59 64  1  0
 60 68  1  0
 60 70  1  0
 61 67  1  0
 61 63  1  0
 62 68  1  0
 63 62  1  0
 64 63  2  0
 65 66  1  0
 65 59  2  0
 66 61  2  0
 67 60  1  0
 68 58  1  0
 70 72  2  0
 71 70  1  0
 73 71  1  0
 74 83  2  0
 74 79  1  0
 75 71  1  0
 75 79  1  0
 76 75  1  0
 77 78  1  0
 77 76  1  0
 78 74  1  0
 79 80  2  0
 80 81  1  0
 82 81  2  0
 83 82  1  0
 84 58  1  0
 84 89  1  0
 84 85  1  0
 85 88  1  1
 85 86  1  0
 87 85  1  0
 89 92  1  0
 90 94  1  0
 90 89  1  0
 91 90  2  0
 94 93  1  0
 96 94  1  0
 96 97  1  0
 96 95  1  0
M  ISO  4  15 100  23 100  56 101  57 101
M  END
>  <TORSDO>  (12) 
F 19

>  <SCORE>  (12) 
-12.021

>  <name>  (12) 
11

>  <ligand_id>  (12) 
11

>  <original_smiles>  (12) 
[H]c1c([H])c([H])c2c(c1[H])C([H])([H])C([H])([H])C([H])([H])C2([H])N([H])C(=O)C1([H])N(C(=O)C([H])(N([H])C(=O)C([H])(N([H])C([H])([H])[H])C([H])([H])[H])C(C([H])([H])[H])(C([H])([H])[H])C([H])([H])[H])C([H])([H])c2c([H])c(OC([H])([H])C3([H])C([H])([H])N(c4c([H])c(N([H])C(=O)N5C([H])([H])C([H])([H])C([H])([H])C([H])(n6nc(-c7c([H])c([H])c(Oc8c([H])c([H])c(F)c([H])c8F)c([H])c7[H])c(C(=O)N([H])[H])c6N([H])[H])C5([H])[H])c([H])c(F)c4C(=O)C([H])([H])[H])C(=O)C([H])([H])C3([H])[H])c([H])c([H])c2C1([H])[H]

>  <smiles>  (12) 
[H]c1c([H])c([H])c2c(c1[H])C([H])([H])C([H])([H])C([H])([H])C2([H])N([H])C(=O)C1([H])N(C(=O)C([H])(N([H])C(=O)C([H])(N([H])C([H])([H])[H])C([H])([H])[H])C(C([H])([H])[H])(C([H])([H])[H])C([H])([H])[H])C([H])([H])c2c([H])c(OC([H])([H])C3([H])C([H])([H])N(c4c([H])c(N([H])C(=O)N5C([H])([H])C([H])([H])C([H])([H])C([H])(n6nc(-c7c([H])c([H])c(Oc8c([H])c([H])c(F)c([H])c8F)c([H])c7[H])c(C(=O)N([H])[H])c6N([H])[H])C5([H])[H])c([H])c(F)c4C(=O)C([H])([H])[H])C(=O)C([H])([H])C3([H])[H])c([H])c([H])c2C1([H])[H]

$$$$
12:0:0
     RDKit          3D

 93101  0  0  1  0  0  0  0  0999 V2000
  -28.7870  -23.5040   19.6530 C   0  0  0  0  0  0  0  0  0  0  0  0
  -29.1310  -22.7610   20.7170 N   0  0  0  0  0  0  0  0  0  0  0  0
  -27.9010  -23.1640   18.8640 O   0  0  0  0  0  0  0  0  0  0  0  0
  -29.8430  -23.1370   21.3260 H   0  0  0  0  0  0  0  0  0  0  0  0
  -28.6900  -21.3900   21.0120 C   0  0  0  0  0  2  0  0  0  0  0  0
  -30.9730  -20.6470   20.1300 C   0  0  0  0  0  3  0  0  0  0  0  0
  -31.8410  -19.6630   19.6350 C   0  0  0  0  0  3  0  0  0  0  0  0
  -29.2870  -18.9380   20.5310 C   0  0  0  0  0  3  0  0  0  0  0  0
  -29.6720  -20.3030   20.5530 C   0  0  0  0  0  0  0  0  0  0  0  0
  -31.4300  -18.3180   19.5430 C   0  0  0  0  0  0  0  0  0  0  0  0
  -30.1480  -17.9290   20.0270 C   0  0  0  0  0  0  0  0  0  0  0  0
  -32.3890  -17.3600   18.8640 C   0  0  0  0  0  1  0  0  0  0  0  0
  -29.5970  -16.4980   19.8770 C   0  0  0  0  0  2  0  0  0  0  0  0
  -29.9740  -15.5260   20.8690 O   0  0  0  0  0  0  0  0  0  0  0  0
  -30.7380  -14.4760   20.4780 C   0  0  0  0  0  0  0  0  0  0  0  0
  -30.3880  -12.2820   19.3820 C   0  0  0  0  0  2  0  0  0  0  0  0
  -29.4900  -12.5240   18.1540 C   0  0  0  0  0  2  0  0  0  0  0  0
  -28.0010  -12.4240   18.5410 C   0  0  0  0  0  2  0  0  0  0  0  0
  -27.6460  -13.2660   19.7980 C   0  0  0  0  0  3  0  0  0  0  0  0
  -28.6710  -13.0620   20.9350 C   0  0  0  0  0  2  0  0  0  0  0  0
  -30.0160  -13.2790   20.3920 N   0  0  0  0  0  0  0  0  0  0  0  0
  -31.8780  -14.6310   20.0490 O   0  0  0  0  0  0  0  0  0  0  0  0
  -25.2400  -13.8930   20.4490 C   0  0  0  0  0  0  0  0  0  0  0  0
  -24.1610  -13.1330   20.8110 C   0  0  0  0  0  0  0  0  0  0  0  0
  -24.6140  -11.7780   20.8130 C   0  0  0  0  0  0  0  0  0  0  0  0
  -26.2840  -13.0030   20.2530 N   0  0  0  0  0  0  0  0  0  0  0  0
  -25.9100  -11.7270   20.5310 N   0  0  0  0  0  0  0  0  0  0  0  0
  -23.8760  -10.5240   21.0120 C   0  0  0  0  0  0  0  0  0  0  0  0
  -24.2950   -9.5630   21.9590 C   0  0  0  0  0  3  0  0  0  0  0  0
  -23.5580   -8.3730   22.1460 C   0  0  0  0  0  3  0  0  0  0  0  0
  -22.3890   -8.1360   21.3830 C   0  0  0  0  0  0  0  0  0  0  0  0
  -21.9890   -9.0860   20.4260 C   0  0  0  0  0  3  0  0  0  0  0  0
  -22.7260  -10.2670   20.2400 C   0  0  0  0  0  3  0  0  0  0  0  0
  -21.6250   -6.9970   21.4750 O   0  0  0  0  0  0  0  0  0  0  0  0
  -21.5720   -6.2570   22.6300 C   0  0  0  0  0  0  0  0  0  0  0  0
  -21.1740   -6.8220   23.8600 C   0  0  0  0  0  3  0  0  0  0  0  0
  -21.0680   -6.0100   25.0070 C   0  0  0  0  0  3  0  0  0  0  0  0
  -21.3490   -4.6340   24.9230 C   0  0  0  0  0  0  0  0  0  0  0  0
  -21.7410   -4.0670   23.6980 C   0  0  0  0  0  3  0  0  0  0  0  0
  -21.8490   -4.8770   22.5530 C   0  0  0  0  0  0  0  0  0  0  0  0
  -22.2050   -4.3230   21.3690 F   0  0  0  0  0  0  0  0  0  0  0  0
  -21.2410   -3.8510   26.0220 F   0  0  0  0  0  0  0  0  0  0  0  0
  -22.7610  -13.6230   21.0510 C   0  0  0  0  0  0  0  0  0  0  0  0
  -22.0140  -12.9480   21.9170 N   0  0  0  0  0  0  0  0  0  0  0  0
  -22.3390  -14.6400   20.5010 O   0  0  0  0  0  0  0  0  0  0  0  0
  -22.3680  -12.1240   22.3800 H   0  0  0  0  0  0  0  0  0  0  0  0
  -21.0750  -13.2580   22.1190 H   0  0  0  0  0  0  0  0  0  0  0  0
  -25.4190  -15.2590   20.2530 N   0  0  0  0  0  0  0  0  0  0  0  0
  -24.6560  -15.9230   20.3370 H   0  0  0  0  0  0  0  0  0  0  0  0
  -26.2860  -15.6870   19.9580 H   0  0  0  0  0  0  0  0  0  0  0  0
  -29.6100  -24.7770   19.4010 C   0  0  0  0  0  2  0  0  0  0  0  0
  -28.8020  -26.0240   18.9820 C   0  0  0  0  0  2  0  0  0  0  0  0
  -28.3970  -26.7590   20.1370 O   0  0  0  0  0  0  0  0  0  0  0  0
  -24.5760  -31.8750   23.2190 C   0  0  0  0  0  0  0  0  0  0  0  0
  -27.2130  -27.4600   20.1030 C   0  0  0  0  0  0  0  0  0  0  0  0
  -23.3580  -30.4730   21.5810 C   0  0  0  0  0  3  0  0  0  0  0  0
  -24.8050  -28.9390   20.1460 C   0  0  0  0  0  0  0  0  0  0  0  0
  -25.8810  -30.8400   21.3660 C   0  0  0  0  0  2  0  0  0  0  0  0
  -25.9630  -29.4700   20.7270 C   0  0  0  0  0  0  0  0  0  0  0  0
  -27.1650  -28.7320   20.7150 C   0  0  0  0  0  3  0  0  0  0  0  0
  -26.0340  -26.9280   19.5370 C   0  0  0  0  0  3  0  0  0  0  0  0
  -24.8320  -27.6640   19.5550 C   0  0  0  0  0  3  0  0  0  0  0  0
  -23.5600  -29.7940   20.1990 C   0  0  0  0  0  2  0  0  0  0  0  0
  -24.6230  -31.0780   22.1140 N   0  0  0  0  0  0  0  0  0  0  0  0
  -23.5000  -32.1450   23.7670 O   0  0  0  0  0  0  0  0  0  0  0  0
  -22.7190  -29.4490   22.5450 C   0  0  0  0  0  0  0  0  0  0  0  0
  -21.3940  -29.2690   22.4320 N   0  0  0  0  0  0  0  0  0  0  0  0
  -23.4110  -28.8210   23.3510 O   0  0  0  0  0  0  0  0  0  0  0  0
  -20.8960  -29.8290   21.7540 H   0  0  0  0  0  0  0  0  0  0  0  0
  -18.0240  -28.0790   22.9530 C   0  0  0  0  0  0  0  0  0  0  0  0
  -20.5840  -28.3300   23.2060 C   0  0  0  0  0  3  0  0  0  0  0  0
  -20.6790  -26.9000   22.6270 C   0  0  0  0  0  2  0  0  0  0  0  0
  -19.5690  -26.5820   21.6200 C   0  0  0  0  0  2  0  0  0  0  0  0
  -18.1930  -26.7300   22.2740 C   0  0  0  0  0  2  0  0  0  0  0  0
  -19.1470  -28.8380   23.3770 C   0  0  0  0  0  0  0  0  0  0  0  0
  -18.9360  -30.1010   23.9700 C   0  0  0  0  0  3  0  0  0  0  0  0
  -17.6350  -30.6060   24.1440 C   0  0  0  0  0  3  0  0  0  0  0  0
  -16.5260  -29.8450   23.7380 C   0  0  0  0  0  3  0  0  0  0  0  0
  -16.7210  -28.5830   23.1480 C   0  0  0  0  0  3  0  0  0  0  0  0
  -25.8680  -32.5060   23.8270 C   0  0  0  0  0  3  0  0  0  0  0  0
  -25.5590  -33.9000   24.1700 N   0  0  0  0  0  0  0  0  0  0  0  0
  -25.8820  -34.9590   23.4150 C   0  0  0  0  0  0  0  0  0  0  0  0
  -26.5450  -34.8640   22.3780 O   0  0  0  0  0  0  0  0  0  0  0  0
  -24.9680  -34.0470   24.9750 H   0  0  0  0  0  0  0  0  0  0  0  0
  -24.1460  -36.7480   23.0820 C   0  0  0  0  0  1  0  0  0  0  0  0
  -25.3930  -36.3410   23.8840 C   0  0  0  0  0  3  0  0  0  0  0  0
  -27.5300  -37.2260   24.7070 C   0  0  0  0  0  1  0  0  0  0  0  0
  -26.4200  -37.3990   23.7730 N   0  0  0  0  0  0  0  0  0  0  0  0
  -26.0120  -38.3160   23.9310 H   0  0  0  0  0  0  0  0  0  0  0  0
  -26.4070  -31.7270   25.0890 C   0  0  1  0  0  0  0  0  0  0  0  0
  -25.3310  -31.4750   26.1710 C   0  0  0  0  0  1  0  0  0  0  0  0
  -26.9890  -30.3540   24.6760 C   0  0  0  0  0  1  0  0  0  0  0  0
  -27.5610  -32.5210   25.7440 C   0  0  0  0  0  1  0  0  0  0  0  0
  1  2  1  0
  2  5  1  0
  2  4  1  0
  3  1  2  0
  6  9  1  0
  7  6  2  0
  8  9  2  0
  9  5  1  0
 10  7  1  0
 10 11  2  0
 11  8  1  0
 12 10  1  0
 13 11  1  0
 13 14  1  0
 15 14  1  0
 16 21  1  0
 17 18  1  0
 17 16  1  0
 19 18  1  0
 19 26  1  0
 19 20  1  0
 21 15  1  0
 21 20  1  0
 22 15  2  0
 23 24  2  0
 24 25  1  0
 24 43  1  0
 25 28  1  0
 26 23  1  0
 26 27  1  0
 27 25  2  0
 28 29  1  0
 29 30  2  0
 31 34  1  0
 31 30  1  0
 32 31  2  0
 33 32  1  0
 33 28  2  0
 34 35  1  0
 35 36  1  0
 36 37  2  0
 38 37  1  0
 38 42  1  0
 39 38  2  0
 40 35  2  0
 40 39  1  0
 41 40  1  0
 43 44  1  0
 44 47  1  0
 44 46  1  0
 45 43  2  0
 48 49  1  0
 48 23  1  0
 50 48  1  0
 51  1  1  0
 52 51  1  0
 52 53  1  0
 54 65  2  0
 55 53  1  0
 55 60  1  0
 56 64  1  0
 56 66  1  0
 57 63  1  0
 57 59  1  0
 58 64  1  0
 59 58  1  0
 60 59  2  0
 61 62  1  0
 61 55  2  0
 62 57  2  0
 63 56  1  0
 64 54  1  0
 66 68  2  0
 67 66  1  0
 69 67  1  0
 70 79  2  0
 70 75  1  0
 71 67  1  0
 71 75  1  0
 72 71  1  0
 73 74  1  0
 73 72  1  0
 74 70  1  0
 75 76  2  0
 76 77  1  0
 78 77  2  0
 79 78  1  0
 80 54  1  0
 80 81  1  0
 80 90  1  0
 81 84  1  0
 82 86  1  0
 82 81  1  0
 83 82  2  0
 86 85  1  0
 88 86  1  0
 88 89  1  0
 88 87  1  0
 90 93  1  1
 90 91  1  0
 92 90  1  0
M  ISO  4  14 100  15 100  52 101  53 101
M  END
>  <TORSDO>  (13) 
F 22

>  <SCORE>  (13) 
-13.266

>  <name>  (13) 
12

>  <ligand_id>  (13) 
12

>  <original_smiles>  (13) 
[H]c1c([H])c([H])c2c(c1[H])C([H])([H])C([H])([H])C([H])([H])C2([H])N([H])C(=O)C1([H])N(C(=O)C([H])(N([H])C(=O)C([H])(N([H])C([H])([H])[H])C([H])([H])[H])C(C([H])([H])[H])(C([H])([H])[H])C([H])([H])[H])C([H])([H])c2c([H])c(OC([H])([H])C([H])([H])C(=O)N([H])C([H])([H])c3c([H])c([H])c(C([H])([H])[H])c(C([H])([H])OC(=O)N4C([H])([H])C([H])([H])C([H])([H])C([H])(n5nc(-c6c([H])c([H])c(Oc7c([H])c([H])c(F)c([H])c7F)c([H])c6[H])c(C(=O)N([H])[H])c5N([H])[H])C4([H])[H])c3[H])c([H])c([H])c2C1([H])[H]

>  <smiles>  (13) 
[H]c1c([H])c([H])c2c(c1[H])C([H])([H])C([H])([H])C([H])([H])C2([H])N([H])C(=O)C1([H])N(C(=O)C([H])(N([H])C(=O)C([H])(N([H])C([H])([H])[H])C([H])([H])[H])C(C([H])([H])[H])(C([H])([H])[H])C([H])([H])[H])C([H])([H])c2c([H])c(OC([H])([H])C([H])([H])C(=O)N([H])C([H])([H])c3c([H])c([H])c(C([H])([H])[H])c(C([H])([H])OC(=O)N4C([H])([H])C([H])([H])C([H])([H])C([H])(n5nc(-c6c([H])c([H])c(Oc7c([H])c([H])c(F)c([H])c7F)c([H])c6[H])c(C(=O)N([H])[H])c5N([H])[H])C4([H])[H])c3[H])c([H])c([H])c2C1([H])[H]

$$$$
13:0:0
     RDKit          3D

 92100  0  0  1  0  0  0  0  0999 V2000
  -28.7150  -22.8310   21.0850 C   0  0  0  0  0  0  0  0  0  0  0  0
  -31.0460  -22.0010   20.9700 C   0  0  0  0  0  1  0  0  0  0  0  0
  -29.6080  -21.8080   21.1880 N   0  0  0  0  0  0  0  0  0  0  0  0
  -27.5090  -22.6450   21.2860 O   0  0  0  0  0  0  0  0  0  0  0  0
  -29.2130  -20.4370   21.6010 C   0  0  0  0  0  2  0  0  0  0  0  0
  -30.1160  -18.4800   18.4010 C   0  0  0  0  0  3  0  0  0  0  0  0
  -29.7790  -19.5370   19.2650 C   0  0  0  0  0  3  0  0  0  0  0  0
  -30.2350  -17.1690   18.8970 C   0  0  0  0  0  3  0  0  0  0  0  0
  -29.6790  -17.9670   21.1290 C   0  0  0  0  0  3  0  0  0  0  0  0
  -29.5750  -19.2940   20.6410 C   0  0  0  0  0  0  0  0  0  0  0  0
  -30.0180  -16.8920   20.2690 C   0  0  0  0  0  0  0  0  0  0  0  0
  -30.7330  -14.5230   20.2220 C   0  0  0  0  0  0  0  0  0  0  0  0
  -30.3940  -12.3780   19.0710 C   0  0  0  0  0  2  0  0  0  0  0  0
  -29.4250  -12.6130   17.8910 C   0  0  0  0  0  2  0  0  0  0  0  0
  -27.9580  -12.4960   18.3500 C   0  0  0  0  0  2  0  0  0  0  0  0
  -27.6620  -13.2940   19.6480 C   0  0  0  0  0  3  0  0  0  0  0  0
  -28.7460  -13.0490   20.7240 C   0  0  0  0  0  2  0  0  0  0  0  0
  -30.0610  -13.3450   20.1270 N   0  0  0  0  0  0  0  0  0  0  0  0
  -31.8480  -14.7010   19.7230 O   0  0  0  0  0  0  0  0  0  0  0  0
  -30.0500  -15.5500   20.7700 N   0  0  0  0  0  0  0  0  0  0  0  0
  -29.2880  -15.2900   21.3770 H   0  0  0  0  0  0  0  0  0  0  0  0
  -25.2740  -13.8810   20.4110 C   0  0  0  0  0  0  0  0  0  0  0  0
  -24.2190  -13.1030   20.8070 C   0  0  0  0  0  0  0  0  0  0  0  0
  -24.6880  -11.7530   20.7600 C   0  0  0  0  0  0  0  0  0  0  0  0
  -26.3180  -13.0070   20.1550 N   0  0  0  0  0  0  0  0  0  0  0  0
  -25.9700  -11.7220   20.4200 N   0  0  0  0  0  0  0  0  0  0  0  0
  -23.9720  -10.4870   20.9650 C   0  0  0  0  0  0  0  0  0  0  0  0
  -24.4260   -9.5270   21.8960 C   0  0  0  0  0  3  0  0  0  0  0  0
  -23.7130   -8.3230   22.0870 C   0  0  0  0  0  3  0  0  0  0  0  0
  -22.5340   -8.0690   21.3460 C   0  0  0  0  0  0  0  0  0  0  0  0
  -22.1020   -9.0190   20.4050 C   0  0  0  0  0  3  0  0  0  0  0  0
  -22.8130  -10.2150   20.2110 C   0  0  0  0  0  3  0  0  0  0  0  0
  -21.7870   -6.9200   21.4490 O   0  0  0  0  0  0  0  0  0  0  0  0
  -21.7480   -6.1880   22.6090 C   0  0  0  0  0  0  0  0  0  0  0  0
  -21.3230   -6.7530   23.8310 C   0  0  0  0  0  3  0  0  0  0  0  0
  -21.2290   -5.9480   24.9840 C   0  0  0  0  0  3  0  0  0  0  0  0
  -21.5510   -4.5790   24.9170 C   0  0  0  0  0  0  0  0  0  0  0  0
  -21.9670   -4.0140   23.7000 C   0  0  0  0  0  3  0  0  0  0  0  0
  -22.0640   -4.8170   22.5490 C   0  0  0  0  0  0  0  0  0  0  0  0
  -22.4460   -4.2610   21.3740 F   0  0  0  0  0  0  0  0  0  0  0  0
  -21.4550   -3.8040   26.0230 F   0  0  0  0  0  0  0  0  0  0  0  0
  -22.8250  -13.5690   21.1140 C   0  0  0  0  0  0  0  0  0  0  0  0
  -22.1230  -12.8650   21.9950 N   0  0  0  0  0  0  0  0  0  0  0  0
  -22.3650  -14.5940   20.6090 O   0  0  0  0  0  0  0  0  0  0  0  0
  -22.5090  -12.0410   22.4320 H   0  0  0  0  0  0  0  0  0  0  0  0
  -21.1890  -13.1600   22.2420 H   0  0  0  0  0  0  0  0  0  0  0  0
  -25.4310  -15.2510   20.2290 N   0  0  0  0  0  0  0  0  0  0  0  0
  -24.6740  -15.9110   20.3590 H   0  0  0  0  0  0  0  0  0  0  0  0
  -26.2770  -15.6870   19.8820 H   0  0  0  0  0  0  0  0  0  0  0  0
  -29.1980  -24.2660   20.7260 C   0  0  0  0  0  2  0  0  0  0  0  0
  -28.0230  -25.2310   20.4160 C   0  0  0  0  0  2  0  0  0  0  0  0
  -28.3280  -26.6300   20.1880 O   0  0  0  0  0  0  0  0  0  0  0  0
  -24.5860  -31.8970   23.2160 C   0  0  0  0  0  0  0  0  0  0  0  0
  -27.2000  -27.4340   20.1240 C   0  0  0  0  0  0  0  0  0  0  0  0
  -23.3730  -30.5020   21.5790 C   0  0  0  0  0  3  0  0  0  0  0  0
  -24.8190  -28.9770   20.1390 C   0  0  0  0  0  0  0  0  0  0  0  0
  -25.9030  -30.8540   21.3730 C   0  0  0  0  0  2  0  0  0  0  0  0
  -25.9850  -29.4870   20.7230 C   0  0  0  0  0  0  0  0  0  0  0  0
  -27.1820  -28.7250   20.7120 C   0  0  0  0  0  3  0  0  0  0  0  0
  -26.0120  -26.9630   19.5110 C   0  0  0  0  0  3  0  0  0  0  0  0
  -24.8290  -27.7160   19.5280 C   0  0  0  0  0  3  0  0  0  0  0  0
  -23.5760  -29.8350   20.1950 C   0  0  0  0  0  2  0  0  0  0  0  0
  -24.6400  -31.0970   22.1140 N   0  0  0  0  0  0  0  0  0  0  0  0
  -23.5080  -32.1670   23.7620 O   0  0  0  0  0  0  0  0  0  0  0  0
  -22.7280  -29.4720   22.5360 C   0  0  0  0  0  0  0  0  0  0  0  0
  -21.4040  -29.2850   22.4160 N   0  0  0  0  0  0  0  0  0  0  0  0
  -23.4180  -28.8440   23.3440 O   0  0  0  0  0  0  0  0  0  0  0  0
  -20.9030  -29.8500   21.7430 H   0  0  0  0  0  0  0  0  0  0  0  0
  -18.0390  -28.0770   22.9280 C   0  0  0  0  0  0  0  0  0  0  0  0
  -20.5960  -28.3420   23.1890 C   0  0  0  0  0  3  0  0  0  0  0  0
  -20.6990  -26.9110   22.6130 C   0  0  0  0  0  2  0  0  0  0  0  0
  -19.5960  -26.5850   21.6020 C   0  0  0  0  0  2  0  0  0  0  0  0
  -18.2160  -26.7270   22.2520 C   0  0  0  0  0  2  0  0  0  0  0  0
  -19.1560  -28.8410   23.3550 C   0  0  0  0  0  0  0  0  0  0  0  0
  -18.9370  -30.1050   23.9450 C   0  0  0  0  0  3  0  0  0  0  0  0
  -17.6320  -30.6060   24.1100 C   0  0  0  0  0  3  0  0  0  0  0  0
  -16.5290  -29.8370   23.7010 C   0  0  0  0  0  3  0  0  0  0  0  0
  -16.7320  -28.5740   23.1170 C   0  0  0  0  0  3  0  0  0  0  0  0
  -25.8750  -32.5290   23.8280 C   0  0  0  0  0  3  0  0  0  0  0  0
  -26.4030  -31.7570   25.1000 C   0  0  1  0  0  0  0  0  0  0  0  0
  -25.3190  -31.5190   26.1770 C   0  0  0  0  0  1  0  0  0  0  0  0
  -26.9860  -30.3800   24.7020 C   0  0  0  0  0  1  0  0  0  0  0  0
  -27.5540  -32.5560   25.7570 C   0  0  0  0  0  1  0  0  0  0  0  0
  -25.5670  -33.9260   24.1590 N   0  0  0  0  0  0  0  0  0  0  0  0
  -25.8990  -34.9780   23.4000 C   0  0  0  0  0  0  0  0  0  0  0  0
  -26.5680  -34.8750   22.3670 O   0  0  0  0  0  0  0  0  0  0  0  0
  -24.9720  -34.0810   24.9590 H   0  0  0  0  0  0  0  0  0  0  0  0
  -24.1730  -36.7710   23.0410 C   0  0  0  0  0  1  0  0  0  0  0  0
  -25.4100  -36.3650   23.8590 C   0  0  0  0  0  3  0  0  0  0  0  0
  -27.5410  -37.2470   24.6990 C   0  0  0  0  0  1  0  0  0  0  0  0
  -26.4430  -37.4170   23.7510 N   0  0  0  0  0  0  0  0  0  0  0  0
  -26.0370  -38.3370   23.9000 H   0  0  0  0  0  0  0  0  0  0  0  0
  1  3  1  0
  1  4  2  0
  2  3  1  0
  3  5  1  0
  6  8  2  0
  6  7  1  0
  7 10  2  0
  8 11  1  0
 10  9  1  0
 10  5  1  0
 11 20  1  0
 11  9  2  0
 12 20  1  0
 13 18  1  0
 14 15  1  0
 14 13  1  0
 16 15  1  0
 16 25  1  0
 16 17  1  0
 18 12  1  0
 18 17  1  0
 19 12  2  0
 20 21  1  0
 22 23  2  0
 23 42  1  0
 24 23  1  0
 24 27  1  0
 25 22  1  0
 25 26  1  0
 26 24  2  0
 27 28  1  0
 28 29  2  0
 30 33  1  0
 30 29  1  0
 31 30  2  0
 32 31  1  0
 32 27  2  0
 33 34  1  0
 34 35  1  0
 35 36  2  0
 37 36  1  0
 37 41  1  0
 38 37  2  0
 39 34  2  0
 39 38  1  0
 40 39  1  0
 42 43  1  0
 43 46  1  0
 43 45  1  0
 44 42  2  0
 47 48  1  0
 47 22  1  0
 49 47  1  0
 50  1  1  0
 51 50  1  0
 52 51  1  0
 53 64  2  0
 54 52  1  0
 54 59  1  0
 55 63  1  0
 55 65  1  0
 56 62  1  0
 56 58  1  0
 57 63  1  0
 58 57  1  0
 59 58  2  0
 60 61  1  0
 60 54  2  0
 61 56  2  0
 62 55  1  0
 63 53  1  0
 65 67  2  0
 66 65  1  0
 68 66  1  0
 69 78  2  0
 69 74  1  0
 70 66  1  0
 70 74  1  0
 71 70  1  0
 72 73  1  0
 72 71  1  0
 73 69  1  0
 74 75  2  0
 75 76  1  0
 77 76  2  0
 78 77  1  0
 79 53  1  0
 79 84  1  0
 79 80  1  0
 80 83  1  1
 80 81  1  0
 82 80  1  0
 84 87  1  0
 85 89  1  0
 85 84  1  0
 86 85  2  0
 89 88  1  0
 91 89  1  0
 91 92  1  0
 91 90  1  0
M  ISO  4  12 100  20 100  51 101  52 101
M  END
>  <TORSDO>  (14) 
F 20

>  <SCORE>  (14) 
-13.731

>  <name>  (14) 
13

>  <ligand_id>  (14) 
13

>  <original_smiles>  (14) 
[H]c1c([H])c(N([H])C(=O)N2C([H])([H])C([H])([H])C([H])([H])C([H])(n3nc(-c4c([H])c([H])c(Oc5c([H])c([H])c(F)c([H])c5F)c([H])c4[H])c(C(=O)N([H])[H])c3N([H])[H])C2([H])[H])c([H])c(C([H])([H])N(C(=O)C([H])([H])C([H])([H])Oc2c([H])c([H])c3c(c2[H])C([H])([H])N(C(=O)C([H])(N([H])C(=O)C([H])(N([H])C([H])([H])[H])C([H])([H])[H])C(C([H])([H])[H])(C([H])([H])[H])C([H])([H])[H])C([H])(C(=O)N([H])C2([H])c4c([H])c([H])c([H])c([H])c4C([H])([H])C([H])([H])C2([H])[H])C3([H])[H])C([H])([H])[H])c1[H]

>  <smiles>  (14) 
[H]c1c([H])c(N([H])C(=O)N2C([H])([H])C([H])([H])C([H])([H])C([H])(n3nc(-c4c([H])c([H])c(Oc5c([H])c([H])c(F)c([H])c5F)c([H])c4[H])c(C(=O)N([H])[H])c3N([H])[H])C2([H])[H])c([H])c(C([H])([H])N(C(=O)C([H])([H])C([H])([H])Oc2c([H])c([H])c3c(c2[H])C([H])([H])N(C(=O)C([H])(N([H])C(=O)C([H])(N([H])C([H])([H])[H])C([H])([H])[H])C(C([H])([H])[H])(C([H])([H])[H])C([H])([H])[H])C([H])(C(=O)N([H])C2([H])c4c([H])c([H])c([H])c([H])c4C([H])([H])C([H])([H])C2([H])[H])C3([H])[H])C([H])([H])[H])c1[H]

$$$$
14:0:0
     RDKit          3D

 95103  0  0  1  0  0  0  0  0999 V2000
  -30.0170  -22.6510   20.2810 C   0  0  0  0  0  0  0  0  0  0  0  0
  -29.7870  -21.4420   20.8200 N   0  0  0  0  0  0  0  0  0  0  0  0
  -30.9160  -22.8360   19.4590 O   0  0  0  0  0  0  0  0  0  0  0  0
  -29.0370  -21.3520   21.4900 H   0  0  0  0  0  0  0  0  0  0  0  0
  -29.1000  -23.6840   20.7550 C   0  0  0  0  0  3  0  0  0  0  0  0
  -29.3920  -24.9940   20.5900 C   0  0  0  0  0  3  0  0  0  0  0  0
  -28.5150  -26.1570   21.0340 C   0  0  0  0  0  2  0  0  0  0  0  0
  -28.3630  -27.1290   19.9980 O   0  0  0  0  0  0  0  0  0  0  0  0
  -24.5470  -32.1320   23.3680 C   0  0  0  0  0  0  0  0  0  0  0  0
  -27.1990  -27.8550   20.0810 C   0  0  0  0  0  0  0  0  0  0  0  0
  -23.3300  -30.7650   21.7010 C   0  0  0  0  0  3  0  0  0  0  0  0
  -24.7800  -29.3040   20.1930 C   0  0  0  0  0  0  0  0  0  0  0  0
  -25.8400  -31.1760   21.4640 C   0  0  0  0  0  2  0  0  0  0  0  0
  -25.9370  -29.8280   20.7840 C   0  0  0  0  0  0  0  0  0  0  0  0
  -27.1510  -29.1070   20.7340 C   0  0  0  0  0  3  0  0  0  0  0  0
  -26.0320  -27.3410   19.4810 C   0  0  0  0  0  3  0  0  0  0  0  0
  -24.8200  -28.0570   19.5420 C   0  0  0  0  0  3  0  0  0  0  0  0
  -23.5240  -30.1390   20.2940 C   0  0  0  0  0  2  0  0  0  0  0  0
  -24.5920  -31.3710   22.2370 N   0  0  0  0  0  0  0  0  0  0  0  0
  -23.4750  -32.3650   23.9420 O   0  0  0  0  0  0  0  0  0  0  0  0
  -22.7170  -29.7000   22.6390 C   0  0  0  0  0  0  0  0  0  0  0  0
  -21.4050  -29.4550   22.4910 N   0  0  0  0  0  0  0  0  0  0  0  0
  -23.4200  -29.0990   23.4550 O   0  0  0  0  0  0  0  0  0  0  0  0
  -20.8940  -30.0040   21.8130 H   0  0  0  0  0  0  0  0  0  0  0  0
  -18.1110  -28.0130   22.8510 C   0  0  0  0  0  0  0  0  0  0  0  0
  -20.6260  -28.4660   23.2360 C   0  0  0  0  0  3  0  0  0  0  0  0
  -20.8620  -27.0400   22.6860 C   0  0  0  0  0  2  0  0  0  0  0  0
  -19.8350  -26.6220   21.6280 C   0  0  0  0  0  2  0  0  0  0  0  0
  -18.4170  -26.6730   22.2040 C   0  0  0  0  0  2  0  0  0  0  0  0
  -19.1480  -28.8620   23.3210 C   0  0  0  0  0  0  0  0  0  0  0  0
  -18.8080  -30.1120   23.8820 C   0  0  0  0  0  3  0  0  0  0  0  0
  -17.4650  -30.5170   23.9800 C   0  0  0  0  0  3  0  0  0  0  0  0
  -16.4400  -29.6680   23.5250 C   0  0  0  0  0  3  0  0  0  0  0  0
  -16.7640  -28.4190   22.9680 C   0  0  0  0  0  3  0  0  0  0  0  0
  -25.8360  -32.7640   23.9790 C   0  0  0  0  0  3  0  0  0  0  0  0
  -25.5400  -34.1710   24.2840 N   0  0  0  0  0  0  0  0  0  0  0  0
  -25.8660  -35.2030   23.4980 C   0  0  0  0  0  0  0  0  0  0  0  0
  -26.5220  -35.0760   22.4590 O   0  0  0  0  0  0  0  0  0  0  0  0
  -24.9610  -34.3470   25.0920 H   0  0  0  0  0  0  0  0  0  0  0  0
  -24.1280  -36.9850   23.1410 C   0  0  0  0  0  1  0  0  0  0  0  0
  -25.3900  -36.6020   23.9310 C   0  0  0  0  0  3  0  0  0  0  0  0
  -27.5440  -37.5090   24.6820 C   0  0  0  0  0  1  0  0  0  0  0  0
  -26.4190  -37.6520   23.7640 N   0  0  0  0  0  0  0  0  0  0  0  0
  -26.0150  -38.5740   23.9010 H   0  0  0  0  0  0  0  0  0  0  0  0
  -26.3480  -32.0110   25.2690 C   0  0  1  0  0  0  0  0  0  0  0  0
  -25.2530  -31.7870   26.3350 C   0  0  0  0  0  1  0  0  0  0  0  0
  -26.9330  -30.6300   24.8920 C   0  0  0  0  0  1  0  0  0  0  0  0
  -27.4960  -32.8150   25.9250 C   0  0  0  0  0  1  0  0  0  0  0  0
  -30.5310  -20.2180   20.4830 C   0  0  0  0  0  2  0  0  0  0  0  0
  -31.1590  -19.8600   22.9140 C   0  0  0  0  0  3  0  0  0  0  0  0
  -31.4210  -19.0580   24.0390 C   0  0  0  0  0  3  0  0  0  0  0  0
  -30.9650  -17.0680   22.7190 C   0  0  0  0  0  3  0  0  0  0  0  0
  -30.7930  -19.2830   21.6750 C   0  0  0  0  0  0  0  0  0  0  0  0
  -30.7190  -17.8610   21.5690 C   0  0  0  0  0  0  0  0  0  0  0  0
  -31.3090  -17.6610   23.9460 C   0  0  0  0  0  0  0  0  0  0  0  0
  -31.5920  -16.6750   25.3330 Cl  0  0  0  0  0  0  0  0  0  0  0  0
  -30.3920  -17.1790   20.2350 C   0  0  0  0  0  2  0  0  0  0  0  0
  -30.7220  -14.7670   19.6230 C   0  0  0  0  0  0  0  0  0  0  0  0
  -30.2860  -12.6280   18.4800 C   0  0  0  0  0  2  0  0  0  0  0  0
  -29.2220  -12.8630   17.3880 C   0  0  0  0  0  2  0  0  0  0  0  0
  -27.8030  -12.7230   17.9680 C   0  0  0  0  0  2  0  0  0  0  0  0
  -27.6070  -13.5580   19.2610 C   0  0  0  0  0  3  0  0  0  0  0  0
  -28.7670  -13.3050   20.2520 C   0  0  0  0  0  2  0  0  0  0  0  0
  -30.0350  -13.5960   19.5580 N   0  0  0  0  0  0  0  0  0  0  0  0
  -31.7600  -14.9770   18.9910 O   0  0  0  0  0  0  0  0  0  0  0  0
  -30.1040  -15.7420   20.3070 N   0  0  0  0  0  0  0  0  0  0  0  0
  -29.2550  -15.4840   20.7860 H   0  0  0  0  0  0  0  0  0  0  0  0
  -25.3220  -14.1980   20.2610 C   0  0  0  0  0  0  0  0  0  0  0  0
  -24.2760  -13.4370   20.7130 C   0  0  0  0  0  0  0  0  0  0  0  0
  -24.6860  -12.0770   20.5620 C   0  0  0  0  0  0  0  0  0  0  0  0
  -26.3060  -13.3010   19.8730 N   0  0  0  0  0  0  0  0  0  0  0  0
  -25.9320  -12.0170   20.1090 N   0  0  0  0  0  0  0  0  0  0  0  0
  -23.9450  -10.8260   20.7700 C   0  0  0  0  0  0  0  0  0  0  0  0
  -24.4410   -9.8050   21.6100 C   0  0  0  0  0  3  0  0  0  0  0  0
  -23.7010   -8.6190   21.8080 C   0  0  0  0  0  3  0  0  0  0  0  0
  -22.4520   -8.4460   21.1660 C   0  0  0  0  0  0  0  0  0  0  0  0
  -21.9750   -9.4570   20.3110 C   0  0  0  0  0  3  0  0  0  0  0  0
  -22.7150  -10.6330   20.1120 C   0  0  0  0  0  3  0  0  0  0  0  0
  -21.6770   -7.3170   21.2780 O   0  0  0  0  0  0  0  0  0  0  0  0
  -21.6930   -6.5440   22.4110 C   0  0  0  0  0  0  0  0  0  0  0  0
  -21.3740   -7.0740   23.6810 C   0  0  0  0  0  3  0  0  0  0  0  0
  -21.3310   -6.2290   24.8080 C   0  0  0  0  0  3  0  0  0  0  0  0
  -21.5990   -4.8540   24.6670 C   0  0  0  0  0  0  0  0  0  0  0  0
  -21.9130   -4.3230   23.4030 C   0  0  0  0  0  3  0  0  0  0  0  0
  -21.9550   -5.1660   22.2790 C   0  0  0  0  0  0  0  0  0  0  0  0
  -22.2350   -4.6440   21.0600 F   0  0  0  0  0  0  0  0  0  0  0  0
  -21.5530   -4.0400   25.7470 F   0  0  0  0  0  0  0  0  0  0  0  0
  -22.9360  -13.9380   21.1670 C   0  0  0  0  0  0  0  0  0  0  0  0
  -22.2920  -13.2280   22.0880 N   0  0  0  0  0  0  0  0  0  0  0  0
  -22.4720  -14.9940   20.7410 O   0  0  0  0  0  0  0  0  0  0  0  0
  -22.6820  -12.3740   22.4570 H   0  0  0  0  0  0  0  0  0  0  0  0
  -21.3970  -13.5500   22.4300 H   0  0  0  0  0  0  0  0  0  0  0  0
  -25.5110  -15.5700   20.1340 N   0  0  0  0  0  0  0  0  0  0  0  0
  -24.7810  -16.2390   20.3570 H   0  0  0  0  0  0  0  0  0  0  0  0
  -26.3370  -16.0030   19.7440 H   0  0  0  0  0  0  0  0  0  0  0  0
  1  5  1  0
  1  2  1  0
  2  4  1  0
  3  1  2  0
  6  5  2  0
  6  7  1  0
  8 10  1  0
  8  7  1  0
  9 20  2  0
 10 15  1  0
 11 19  1  0
 11 21  1  0
 12 18  1  0
 12 14  1  0
 13 19  1  0
 14 13  1  0
 15 14  2  0
 16 17  1  0
 16 10  2  0
 17 12  2  0
 18 11  1  0
 19  9  1  0
 21 23  2  0
 22 21  1  0
 24 22  1  0
 25 34  2  0
 25 30  1  0
 26 22  1  0
 26 30  1  0
 27 26  1  0
 28 29  1  0
 28 27  1  0
 29 25  1  0
 30 31  2  0
 31 32  1  0
 33 32  2  0
 34 33  1  0
 35  9  1  0
 35 36  1  0
 35 45  1  0
 36 39  1  0
 37 41  1  0
 37 36  1  0
 38 37  2  0
 41 40  1  0
 43 44  1  0
 43 41  1  0
 43 42  1  0
 45 48  1  1
 45 46  1  0
 47 45  1  0
 49  2  1  0
 49 53  1  0
 50 51  1  0
 52 55  1  0
 53 50  2  0
 54 53  1  0
 54 52  2  0
 55 51  2  0
 55 56  1  0
 57 66  1  0
 57 54  1  0
 58 66  1  0
 59 64  1  0
 60 61  1  0
 60 59  1  0
 62 61  1  0
 62 71  1  0
 62 63  1  0
 64 58  1  0
 64 63  1  0
 65 58  2  0
 66 67  1  0
 68 69  2  0
 69 88  1  0
 70 69  1  0
 70 73  1  0
 71 72  1  0
 71 68  1  0
 72 70  2  0
 73 74  1  0
 74 75  2  0
 76 79  1  0
 76 75  1  0
 77 76  2  0
 78 77  1  0
 78 73  2  0
 79 80  1  0
 80 81  1  0
 81 82  2  0
 83 82  1  0
 83 87  1  0
 84 83  2  0
 85 80  2  0
 85 84  1  0
 86 85  1  0
 88 89  1  0
 89 92  1  0
 89 91  1  0
 90 88  2  0
 93 68  1  0
 93 94  1  0
 95 93  1  0
M  ISO  4   7 101   8 101  58 100  66 100
M  END
>  <TORSDO>  (15) 
F 21

>  <SCORE>  (15) 
-6.052

>  <name>  (15) 
14

>  <ligand_id>  (15) 
14

>  <original_smiles>  (15) 
[H]C(C(=O)N([H])C([H])([H])c1c([H])c([H])c(Cl)c([H])c1C([H])([H])N([H])C(=O)N1C([H])([H])C([H])([H])C([H])([H])C([H])(n2nc(-c3c([H])c([H])c(Oc4c([H])c([H])c(F)c([H])c4F)c([H])c3[H])c(C(=O)N([H])[H])c2N([H])[H])C1([H])[H])=C([H])C([H])([H])Oc1c([H])c([H])c2c(c1[H])C([H])([H])N(C(=O)C([H])(N([H])C(=O)C([H])(N([H])C([H])([H])[H])C([H])([H])[H])C(C([H])([H])[H])(C([H])([H])[H])C([H])([H])[H])C([H])(C(=O)N([H])C1([H])c3c([H])c([H])c([H])c([H])c3C([H])([H])C([H])([H])C1([H])[H])C2([H])[H]

>  <smiles>  (15) 
[H]C(C(=O)N([H])C([H])([H])c1c([H])c([H])c(Cl)c([H])c1C([H])([H])N([H])C(=O)N1C([H])([H])C([H])([H])C([H])([H])C([H])(n2nc(-c3c([H])c([H])c(Oc4c([H])c([H])c(F)c([H])c4F)c([H])c3[H])c(C(=O)N([H])[H])c2N([H])[H])C1([H])[H])=C([H])C([H])([H])Oc1c([H])c([H])c2c(c1[H])C([H])([H])N(C(=O)C([H])(N([H])C(=O)C([H])(N([H])C([H])([H])[H])C([H])([H])[H])C(C([H])([H])[H])(C([H])([H])[H])C([H])([H])[H])C([H])(C(=O)N([H])C1([H])c3c([H])c([H])c([H])c([H])c3C([H])([H])C([H])([H])C1([H])[H])C2([H])[H]

$$$$
15:0:0
     RDKit          3D

 94102  0  0  1  0  0  0  0  0999 V2000
  -30.3400  -22.0800   20.5160 C   0  0  0  0  0  0  0  0  0  0  0  0
  -29.5930  -23.0220   19.8990 N   0  0  0  0  0  0  0  0  0  0  0  0
  -31.1250  -22.3640   21.4230 O   0  0  0  0  0  0  0  0  0  0  0  0
  -28.9670  -22.6970   19.1770 H   0  0  0  0  0  0  0  0  0  0  0  0
  -30.0880  -19.1500   18.0670 C   0  0  0  0  0  3  0  0  0  0  0  0
  -30.0640  -20.4400   18.6270 C   0  0  0  0  0  3  0  0  0  0  0  0
  -30.3050  -18.0260   18.8830 C   0  0  0  0  0  3  0  0  0  0  0  0
  -30.2140  -20.6390   20.0180 C   0  0  0  0  0  0  0  0  0  0  0  0
  -30.4550  -18.1650   20.2810 C   0  0  0  0  0  0  0  0  0  0  0  0
  -30.3610  -19.4800   20.8600 C   0  0  0  0  0  0  0  0  0  0  0  0
  -30.4210  -19.6310   22.3840 C   0  0  0  0  0  1  0  0  0  0  0  0
  -30.8330  -16.9110   21.1190 C   0  0  0  0  0  2  0  0  0  0  0  0
  -30.9690  -14.5420   20.2270 C   0  0  0  0  0  0  0  0  0  0  0  0
  -30.6150  -12.3560   19.1280 C   0  0  0  0  0  2  0  0  0  0  0  0
  -29.6300  -12.5250   17.9530 C   0  0  0  0  0  2  0  0  0  0  0  0
  -28.1760  -12.3940   18.4430 C   0  0  0  0  0  2  0  0  0  0  0  0
  -27.8820  -13.2760   19.6850 C   0  0  0  0  0  3  0  0  0  0  0  0
  -28.9720  -13.0820   20.7620 C   0  0  0  0  0  2  0  0  0  0  0  0
  -30.2750  -13.3720   20.1360 N   0  0  0  0  0  0  0  0  0  0  0  0
  -32.1050  -14.6750   19.7750 O   0  0  0  0  0  0  0  0  0  0  0  0
  -30.2880  -15.5920   20.7270 N   0  0  0  0  0  0  0  0  0  0  0  0
  -29.3350  -15.4080   20.9980 H   0  0  0  0  0  0  0  0  0  0  0  0
  -25.5290  -13.9240   20.4960 C   0  0  0  0  0  0  0  0  0  0  0  0
  -24.4550  -13.1690   20.8900 C   0  0  0  0  0  0  0  0  0  0  0  0
  -24.8820  -11.8080   20.8150 C   0  0  0  0  0  0  0  0  0  0  0  0
  -26.5430  -13.0230   20.2120 N   0  0  0  0  0  0  0  0  0  0  0  0
  -26.1600  -11.7440   20.4630 N   0  0  0  0  0  0  0  0  0  0  0  0
  -24.1340  -10.5590   21.0060 C   0  0  0  0  0  0  0  0  0  0  0  0
  -24.5560   -9.5810   21.9340 C   0  0  0  0  0  3  0  0  0  0  0  0
  -23.8090   -8.3980   22.1160 C   0  0  0  0  0  3  0  0  0  0  0  0
  -22.6280   -8.1830   21.3660 C   0  0  0  0  0  0  0  0  0  0  0  0
  -22.2270   -9.1490   20.4270 C   0  0  0  0  0  3  0  0  0  0  0  0
  -22.9730  -10.3240   20.2440 C   0  0  0  0  0  3  0  0  0  0  0  0
  -21.8560   -7.0510   21.4550 O   0  0  0  0  0  0  0  0  0  0  0  0
  -21.7720   -6.3260   22.6180 C   0  0  0  0  0  0  0  0  0  0  0  0
  -21.2890   -6.8940   23.8160 C   0  0  0  0  0  3  0  0  0  0  0  0
  -21.1530   -6.0950   24.9700 C   0  0  0  0  0  3  0  0  0  0  0  0
  -21.4920   -4.7300   24.9260 C   0  0  0  0  0  0  0  0  0  0  0  0
  -21.9650   -4.1600   23.7310 C   0  0  0  0  0  3  0  0  0  0  0  0
  -22.1030   -4.9560   22.5780 C   0  0  0  0  0  0  0  0  0  0  0  0
  -22.5420   -4.3990   21.4240 F   0  0  0  0  0  0  0  0  0  0  0  0
  -21.3540   -3.9610   26.0300 F   0  0  0  0  0  0  0  0  0  0  0  0
  -23.0810  -13.6720   21.2220 C   0  0  0  0  0  0  0  0  0  0  0  0
  -22.3670  -12.9680   22.0940 N   0  0  0  0  0  0  0  0  0  0  0  0
  -22.6470  -14.7190   20.7420 O   0  0  0  0  0  0  0  0  0  0  0  0
  -22.7330  -12.1180   22.4970 H   0  0  0  0  0  0  0  0  0  0  0  0
  -21.4460  -13.2820   22.3630 H   0  0  0  0  0  0  0  0  0  0  0  0
  -25.7190  -15.2930   20.3400 N   0  0  0  0  0  0  0  0  0  0  0  0
  -24.9800  -15.9660   20.5060 H   0  0  0  0  0  0  0  0  0  0  0  0
  -26.5610  -15.7150   19.9650 H   0  0  0  0  0  0  0  0  0  0  0  0
  -29.6630  -24.4910   20.1120 C   0  0  0  0  0  2  0  0  0  0  0  0
  -27.4760  -24.6130   21.3850 C   0  0  0  0  0  1  0  0  0  0  0  0
  -28.2690  -25.1870   20.1870 C   0  0  0  0  0  3  0  0  0  0  0  0
  -28.3810  -26.6410   20.2810 O   0  0  0  0  0  0  0  0  0  0  0  0
  -24.5960  -31.9500   23.2390 C   0  0  0  0  0  0  0  0  0  0  0  0
  -27.2290  -27.4230   20.2160 C   0  0  0  0  0  0  0  0  0  0  0  0
  -23.3940  -30.5310   21.6150 C   0  0  0  0  0  3  0  0  0  0  0  0
  -24.8490  -28.9820   20.2010 C   0  0  0  0  0  0  0  0  0  0  0  0
  -25.9290  -30.8690   21.4290 C   0  0  0  0  0  2  0  0  0  0  0  0
  -26.0100  -29.4900   20.7920 C   0  0  0  0  0  0  0  0  0  0  0  0
  -27.2030  -28.7200   20.7960 C   0  0  0  0  0  3  0  0  0  0  0  0
  -26.0480  -26.9540   19.5930 C   0  0  0  0  0  3  0  0  0  0  0  0
  -24.8660  -27.7130   19.5990 C   0  0  0  0  0  3  0  0  0  0  0  0
  -23.6070  -29.8410   20.2450 C   0  0  0  0  0  2  0  0  0  0  0  0
  -24.6580  -31.1310   22.1510 N   0  0  0  0  0  0  0  0  0  0  0  0
  -23.5130  -32.2310   23.7720 O   0  0  0  0  0  0  0  0  0  0  0  0
  -22.7370  -29.5220   22.5840 C   0  0  0  0  0  0  0  0  0  0  0  0
  -21.4140  -29.3370   22.4480 N   0  0  0  0  0  0  0  0  0  0  0  0
  -23.4140  -28.9060   23.4100 O   0  0  0  0  0  0  0  0  0  0  0  0
  -20.9320  -29.8810   21.7470 H   0  0  0  0  0  0  0  0  0  0  0  0
  -18.0280  -28.1790   22.9600 C   0  0  0  0  0  0  0  0  0  0  0  0
  -20.5900  -28.4100   23.2260 C   0  0  0  0  0  3  0  0  0  0  0  0
  -20.6770  -26.9770   22.6530 C   0  0  0  0  0  2  0  0  0  0  0  0
  -19.5690  -26.6650   21.6450 C   0  0  0  0  0  2  0  0  0  0  0  0
  -18.1900  -26.8240   22.2920 C   0  0  0  0  0  2  0  0  0  0  0  0
  -19.1560  -28.9300   23.3830 C   0  0  0  0  0  0  0  0  0  0  0  0
  -18.9530  -30.1980   23.9690 C   0  0  0  0  0  3  0  0  0  0  0  0
  -17.6550  -30.7120   24.1400 C   0  0  0  0  0  3  0  0  0  0  0  0
  -16.5400  -29.9550   23.7400 C   0  0  0  0  0  3  0  0  0  0  0  0
  -16.7290  -28.6920   23.1500 C   0  0  0  0  0  3  0  0  0  0  0  0
  -25.8810  -32.5880   23.8510 C   0  0  0  0  0  3  0  0  0  0  0  0
  -26.3960  -31.8300   25.1350 C   0  0  1  0  0  0  0  0  0  0  0  0
  -25.3020  -31.5970   26.2010 C   0  0  0  0  0  1  0  0  0  0  0  0
  -26.9900  -30.4530   24.7600 C   0  0  0  0  0  1  0  0  0  0  0  0
  -27.5370  -32.6380   25.7980 C   0  0  0  0  0  1  0  0  0  0  0  0
  -25.5740  -33.9900   24.1640 N   0  0  0  0  0  0  0  0  0  0  0  0
  -25.9040  -35.0360   23.3950 C   0  0  0  0  0  0  0  0  0  0  0  0
  -26.5700  -34.9200   22.3630 O   0  0  0  0  0  0  0  0  0  0  0  0
  -24.9770  -34.1500   24.9630 H   0  0  0  0  0  0  0  0  0  0  0  0
  -24.1770  -36.8270   23.0170 C   0  0  0  0  0  1  0  0  0  0  0  0
  -25.4130  -36.4270   23.8410 C   0  0  0  0  0  3  0  0  0  0  0  0
  -27.5340  -37.3180   24.6880 C   0  0  0  0  0  1  0  0  0  0  0  0
  -26.4440  -37.4800   23.7290 N   0  0  0  0  0  0  0  0  0  0  0  0
  -26.0390  -38.4030   23.8590 H   0  0  0  0  0  0  0  0  0  0  0  0
  1  3  2  0
  2 51  1  0
  2  1  1  0
  4  2  1  0
  5  6  2  0
  5  7  1  0
  6  8  1  0
  7  9  2  0
  8  1  1  0
  8 10  2  0
  9 10  1  0
  9 12  1  0
 10 11  1  0
 13 21  1  0
 14 19  1  0
 15 16  1  0
 15 14  1  0
 17 16  1  0
 17 26  1  0
 17 18  1  0
 19 13  1  0
 19 18  1  0
 20 13  2  0
 21 22  1  0
 21 12  1  0
 23 24  2  0
 24 43  1  0
 25 24  1  0
 25 28  1  0
 26 27  1  0
 26 23  1  0
 27 25  2  0
 28 29  1  0
 29 30  2  0
 31 34  1  0
 31 30  1  0
 32 31  2  0
 33 32  1  0
 33 28  2  0
 34 35  1  0
 35 36  1  0
 36 37  2  0
 38 37  1  0
 38 42  1  0
 39 38  2  0
 40 35  2  0
 40 39  1  0
 41 40  1  0
 43 44  1  0
 44 47  1  0
 44 46  1  0
 45 43  2  0
 48 23  1  0
 48 49  1  0
 50 48  1  0
 51 53  1  0
 53 54  1  0
 53 52  1  0
 55 66  2  0
 56 54  1  0
 56 61  1  0
 57 65  1  0
 57 67  1  0
 58 64  1  0
 58 60  1  0
 59 65  1  0
 60 61  2  0
 60 59  1  0
 62 63  1  0
 62 56  2  0
 63 58  2  0
 64 57  1  0
 65 55  1  0
 67 69  2  0
 68 67  1  0
 70 68  1  0
 71 80  2  0
 71 76  1  0
 72 68  1  0
 72 76  1  0
 73 72  1  0
 74 75  1  0
 74 73  1  0
 75 71  1  0
 76 77  2  0
 77 78  1  0
 79 78  2  0
 80 79  1  0
 81 55  1  0
 81 86  1  0
 81 82  1  0
 82 85  1  1
 82 83  1  0
 84 82  1  0
 86 89  1  0
 87 91  1  0
 87 86  1  0
 88 87  2  0
 91 90  1  0
 93 91  1  0
 93 94  1  0
 93 92  1  0
M  ISO  4  13 100  21 100  53 101  54 101
M  END
>  <TORSDO>  (16) 
F 20

>  <SCORE>  (16) 
-13.663

>  <name>  (16) 
15

>  <ligand_id>  (16) 
15

>  <original_smiles>  (16) 
[H]c1c([H])c(C(=O)N([H])C([H])([H])C([H])(Oc2c([H])c([H])c3c(c2[H])C([H])([H])N(C(=O)C([H])(N([H])C(=O)C([H])(N([H])C([H])([H])[H])C([H])([H])[H])C(C([H])([H])[H])(C([H])([H])[H])C([H])([H])[H])C([H])(C(=O)N([H])C2([H])c4c([H])c([H])c([H])c([H])c4C([H])([H])C([H])([H])C2([H])[H])C3([H])[H])C([H])([H])[H])c(C([H])([H])[H])c(C([H])([H])N([H])C(=O)N2C([H])([H])C([H])([H])C([H])([H])C([H])(n3nc(-c4c([H])c([H])c(Oc5c([H])c([H])c(F)c([H])c5F)c([H])c4[H])c(C(=O)N([H])[H])c3N([H])[H])C2([H])[H])c1[H]

>  <smiles>  (16) 
[H]c1c([H])c(C(=O)N([H])C([H])([H])C([H])(Oc2c([H])c([H])c3c(c2[H])C([H])([H])N(C(=O)C([H])(N([H])C(=O)C([H])(N([H])C([H])([H])[H])C([H])([H])[H])C(C([H])([H])[H])(C([H])([H])[H])C([H])([H])[H])C([H])(C(=O)N([H])C2([H])c4c([H])c([H])c([H])c([H])c4C([H])([H])C([H])([H])C2([H])[H])C3([H])[H])C([H])([H])[H])c(C([H])([H])[H])c(C([H])([H])N([H])C(=O)N2C([H])([H])C([H])([H])C([H])([H])C([H])(n3nc(-c4c([H])c([H])c(Oc5c([H])c([H])c(F)c([H])c5F)c([H])c4[H])c(C(=O)N([H])[H])c3N([H])[H])C2([H])[H])c1[H]

$$$$
16:0:0
     RDKit          3D

 92100  0  0  1  0  0  0  0  0999 V2000
  -28.6750  -22.1820   21.3300 C   0  0  0  0  0  2  0  0  0  0  0  0
  -29.2980  -20.3530   19.5890 C   0  0  0  0  0  3  0  0  0  0  0  0
  -29.7430  -19.9620   21.9440 C   0  0  0  0  0  3  0  0  0  0  0  0
  -29.8910  -19.1060   19.2790 C   0  0  0  0  0  3  0  0  0  0  0  0
  -30.3310  -18.7160   21.6350 C   0  0  0  0  0  3  0  0  0  0  0  0
  -29.2470  -20.8120   20.9270 C   0  0  0  0  0  0  0  0  0  0  0  0
  -30.4450  -18.2930   20.2950 C   0  0  0  0  0  0  0  0  0  0  0  0
  -31.2980  -17.0700   19.9400 C   0  0  0  0  0  2  0  0  0  0  0  0
  -31.2460  -14.6420   19.4530 C   0  0  0  0  0  0  0  0  0  0  0  0
  -30.9020  -12.3120   18.7190 C   0  0  0  0  0  2  0  0  0  0  0  0
  -29.8680  -12.2700   17.5760 C   0  0  0  0  0  2  0  0  0  0  0  0
  -28.4400  -12.1740   18.1460 C   0  0  0  0  0  2  0  0  0  0  0  0
  -28.1670  -13.2190   19.2610 C   0  0  0  0  0  3  0  0  0  0  0  0
  -29.3120  -13.2500   20.2980 C   0  0  0  0  0  2  0  0  0  0  0  0
  -30.5750  -13.4650   19.5750 N   0  0  0  0  0  0  0  0  0  0  0  0
  -32.3170  -14.7260   18.8470 O   0  0  0  0  0  0  0  0  0  0  0  0
  -30.6500  -15.7480   19.9430 N   0  0  0  0  0  0  0  0  0  0  0  0
  -29.7530  -15.6520   20.3950 H   0  0  0  0  0  0  0  0  0  0  0  0
  -25.9250  -13.9250   20.3060 C   0  0  0  0  0  0  0  0  0  0  0  0
  -24.8580  -13.1970   20.7600 C   0  0  0  0  0  0  0  0  0  0  0  0
  -25.2150  -11.8240   20.5900 C   0  0  0  0  0  0  0  0  0  0  0  0
  -26.8690  -12.9980   19.8930 N   0  0  0  0  0  0  0  0  0  0  0  0
  -26.4510  -11.7270   20.1180 N   0  0  0  0  0  0  0  0  0  0  0  0
  -24.4310  -10.5990   20.7940 C   0  0  0  0  0  0  0  0  0  0  0  0
  -24.8070   -9.6310   21.7510 C   0  0  0  0  0  3  0  0  0  0  0  0
  -24.0260   -8.4710   21.9410 C   0  0  0  0  0  3  0  0  0  0  0  0
  -22.8530   -8.2730   21.1730 C   0  0  0  0  0  0  0  0  0  0  0  0
  -22.4980   -9.2280   20.2040 C   0  0  0  0  0  3  0  0  0  0  0  0
  -23.2790  -10.3780   20.0130 C   0  0  0  0  0  3  0  0  0  0  0  0
  -22.0440   -7.1670   21.2720 O   0  0  0  0  0  0  0  0  0  0  0  0
  -21.7940   -6.5650   22.4780 C   0  0  0  0  0  0  0  0  0  0  0  0
  -21.1780   -7.2590   23.5430 C   0  0  0  0  0  3  0  0  0  0  0  0
  -20.8740   -6.5820   24.7410 C   0  0  0  0  0  3  0  0  0  0  0  0
  -21.1760   -5.2140   24.8740 C   0  0  0  0  0  0  0  0  0  0  0  0
  -21.7840   -4.5210   23.8130 C   0  0  0  0  0  3  0  0  0  0  0  0
  -22.0900   -5.1950   22.6170 C   0  0  0  0  0  0  0  0  0  0  0  0
  -22.6570   -4.5170   21.5910 F   0  0  0  0  0  0  0  0  0  0  0  0
  -20.8770   -4.5610   26.0220 F   0  0  0  0  0  0  0  0  0  0  0  0
  -23.5430  -13.7410   21.2360 C   0  0  0  0  0  0  0  0  0  0  0  0
  -22.8860  -13.0390   22.1530 N   0  0  0  0  0  0  0  0  0  0  0  0
  -23.1110  -14.8200   20.8290 O   0  0  0  0  0  0  0  0  0  0  0  0
  -23.2480  -12.1640   22.4990 H   0  0  0  0  0  0  0  0  0  0  0  0
  -22.0030  -13.3780   22.5110 H   0  0  0  0  0  0  0  0  0  0  0  0
  -26.1630  -15.2920   20.1930 N   0  0  0  0  0  0  0  0  0  0  0  0
  -25.4710  -15.9880   20.4500 H   0  0  0  0  0  0  0  0  0  0  0  0
  -27.0150  -15.6980   19.8260 H   0  0  0  0  0  0  0  0  0  0  0  0
  -28.3090  -24.5250   20.5840 C   0  0  0  0  0  0  0  0  0  0  0  0
  -28.7950  -23.2850   20.3650 N   0  0  0  0  0  0  0  0  0  0  0  0
  -27.7300  -24.8080   21.6350 O   0  0  0  0  0  0  0  0  0  0  0  0
  -29.2960  -23.1070   19.5060 H   0  0  0  0  0  0  0  0  0  0  0  0
  -28.4890  -25.6000   19.4810 C   0  0  0  0  0  2  0  0  0  0  0  0
  -28.4230  -26.9510   19.9950 O   0  0  0  0  0  0  0  0  0  0  0  0
  -24.6800  -31.9470   23.4100 C   0  0  0  0  0  0  0  0  0  0  0  0
  -27.2310  -27.6570   20.0320 C   0  0  0  0  0  0  0  0  0  0  0  0
  -23.4280  -30.6420   21.7240 C   0  0  0  0  0  3  0  0  0  0  0  0
  -24.8380  -29.1770   20.1830 C   0  0  0  0  0  0  0  0  0  0  0  0
  -25.9480  -31.0030   21.4790 C   0  0  0  0  0  2  0  0  0  0  0  0
  -26.0130  -29.6650   20.7680 C   0  0  0  0  0  0  0  0  0  0  0  0
  -27.2080  -28.9130   20.6860 C   0  0  0  0  0  3  0  0  0  0  0  0
  -26.0310  -27.1860   19.4490 C   0  0  0  0  0  3  0  0  0  0  0  0
  -24.8430  -27.9370   19.5210 C   0  0  0  0  0  3  0  0  0  0  0  0
  -23.6000  -30.0380   20.3040 C   0  0  0  0  0  2  0  0  0  0  0  0
  -24.7060  -31.2070   22.2640 N   0  0  0  0  0  0  0  0  0  0  0  0
  -23.6130  -32.1920   23.9910 O   0  0  0  0  0  0  0  0  0  0  0  0
  -22.7960  -29.5710   22.6430 C   0  0  0  0  0  0  0  0  0  0  0  0
  -21.4890  -29.3230   22.4610 N   0  0  0  0  0  0  0  0  0  0  0  0
  -23.4800  -28.9690   23.4740 O   0  0  0  0  0  0  0  0  0  0  0  0
  -20.9940  -29.8630   21.7650 H   0  0  0  0  0  0  0  0  0  0  0  0
  -18.1960  -27.8610   22.7250 C   0  0  0  0  0  0  0  0  0  0  0  0
  -20.6950  -28.3300   23.1860 C   0  0  0  0  0  3  0  0  0  0  0  0
  -20.9580  -26.9060   22.6430 C   0  0  0  0  0  2  0  0  0  0  0  0
  -19.9680  -26.4840   21.5530 C   0  0  0  0  0  2  0  0  0  0  0  0
  -18.5330  -26.5220   22.0880 C   0  0  0  0  0  2  0  0  0  0  0  0
  -19.2120  -28.7170   23.2250 C   0  0  0  0  0  0  0  0  0  0  0  0
  -18.8470  -29.9660   23.7730 C   0  0  0  0  0  3  0  0  0  0  0  0
  -17.4980  -30.3600   23.8290 C   0  0  0  0  0  3  0  0  0  0  0  0
  -16.4950  -29.5040   23.3450 C   0  0  0  0  0  3  0  0  0  0  0  0
  -16.8440  -28.2550   22.7980 C   0  0  0  0  0  3  0  0  0  0  0  0
  -25.9850  -32.5390   24.0300 C   0  0  0  0  0  3  0  0  0  0  0  0
  -26.4950  -31.7310   25.2850 C   0  0  1  0  0  0  0  0  0  0  0  0
  -25.4000  -31.4690   26.3430 C   0  0  0  0  0  1  0  0  0  0  0  0
  -27.0690  -30.3620   24.8500 C   0  0  0  0  0  1  0  0  0  0  0  0
  -27.6510  -32.4980   25.9720 C   0  0  0  0  0  1  0  0  0  0  0  0
  -25.7110  -33.9360   24.3900 N   0  0  0  0  0  0  0  0  0  0  0  0
  -26.0560  -34.9950   23.6430 C   0  0  0  0  0  0  0  0  0  0  0  0
  -26.7110  -34.8950   22.6020 O   0  0  0  0  0  0  0  0  0  0  0  0
  -25.1380  -34.0910   25.2050 H   0  0  0  0  0  0  0  0  0  0  0  0
  -24.3580  -36.8220   23.3340 C   0  0  0  0  0  1  0  0  0  0  0  0
  -25.6000  -36.3850   24.1270 C   0  0  0  0  0  3  0  0  0  0  0  0
  -27.7540  -37.2210   24.9520 C   0  0  0  0  0  1  0  0  0  0  0  0
  -26.6490  -37.4210   24.0180 N   0  0  0  0  0  0  0  0  0  0  0  0
  -26.2610  -38.3470   24.1800 H   0  0  0  0  0  0  0  0  0  0  0  0
  2  6  1  0
  4  2  2  0
  4  7  1  0
  5  3  1  0
  6  1  1  0
  6  3  2  0
  7  5  2  0
  8 17  1  0
  8  7  1  0
  9 15  1  0
  9 17  1  0
 10 15  1  0
 11 12  1  0
 11 10  1  0
 13 12  1  0
 13 22  1  0
 13 14  1  0
 15 14  1  0
 16  9  2  0
 17 18  1  0
 19 20  2  0
 20 39  1  0
 21 20  1  0
 21 24  1  0
 22 23  1  0
 22 19  1  0
 23 21  2  0
 24 25  1  0
 25 26  2  0
 27 30  1  0
 27 26  1  0
 28 27  2  0
 29 28  1  0
 29 24  2  0
 30 31  1  0
 31 36  2  0
 31 32  1  0
 32 33  2  0
 33 34  1  0
 34 38  1  0
 35 34  2  0
 36 35  1  0
 37 36  1  0
 39 40  1  0
 40 42  1  0
 40 43  1  0
 41 39  2  0
 44 19  1  0
 44 45  1  0
 46 44  1  0
 47 49  2  0
 48 47  1  0
 48  1  1  0
 50 48  1  0
 51 52  1  0
 51 47  1  0
 52 54  1  0
 53 64  2  0
 54 59  1  0
 55 63  1  0
 55 65  1  0
 56 62  1  0
 56 58  1  0
 57 63  1  0
 58 57  1  0
 59 58  2  0
 60 61  1  0
 60 54  2  0
 61 56  2  0
 62 55  1  0
 63 53  1  0
 65 67  2  0
 66 65  1  0
 68 66  1  0
 69 78  2  0
 69 74  1  0
 70 66  1  0
 70 74  1  0
 71 70  1  0
 72 73  1  0
 72 71  1  0
 73 69  1  0
 74 75  2  0
 75 76  1  0
 77 76  2  0
 78 77  1  0
 79 53  1  0
 79 84  1  0
 79 80  1  0
 80 83  1  1
 80 81  1  0
 82 80  1  0
 84 87  1  0
 85 89  1  0
 85 84  1  0
 86 85  2  0
 89 88  1  0
 91 89  1  0
 91 92  1  0
 91 90  1  0
M  ISO  4   9 100  17 100  51 101  52 101
M  END
>  <TORSDO>  (17) 
F 20

>  <SCORE>  (17) 
-12.266

>  <name>  (17) 
16

>  <ligand_id>  (17) 
16

>  <original_smiles>  (17) 
[H]c1c([H])c([H])c2c(c1[H])C([H])([H])C([H])([H])C([H])([H])C2([H])N([H])C(=O)C1([H])N(C(=O)C([H])(N([H])C(=O)C([H])(N([H])C([H])([H])[H])C([H])([H])[H])C(C([H])([H])[H])(C([H])([H])[H])C([H])([H])[H])C([H])([H])c2c([H])c(OC([H])([H])C(=O)N([H])C([H])([H])c3c([H])c([H])c(C([H])([H])N([H])C(=O)N4C([H])([H])C([H])([H])C([H])([H])C([H])(n5nc(-c6c([H])c([H])c(Oc7c([H])c([H])c(F)c([H])c7F)c([H])c6[H])c(C(=O)N([H])[H])c5N([H])[H])C4([H])[H])c([H])c3[H])c([H])c([H])c2C1([H])[H]

>  <smiles>  (17) 
[H]c1c([H])c([H])c2c(c1[H])C([H])([H])C([H])([H])C([H])([H])C2([H])N([H])C(=O)C1([H])N(C(=O)C([H])(N([H])C(=O)C([H])(N([H])C([H])([H])[H])C([H])([H])[H])C(C([H])([H])[H])(C([H])([H])[H])C([H])([H])[H])C([H])([H])c2c([H])c(OC([H])([H])C(=O)N([H])C([H])([H])c3c([H])c([H])c(C([H])([H])N([H])C(=O)N4C([H])([H])C([H])([H])C([H])([H])C([H])(n5nc(-c6c([H])c([H])c(Oc7c([H])c([H])c(F)c([H])c7F)c([H])c6[H])c(C(=O)N([H])[H])c5N([H])[H])C4([H])[H])c([H])c3[H])c([H])c([H])c2C1([H])[H]

$$$$
17:0:0
     RDKit          3D

 95104  0  0  1  0  0  0  0  0999 V2000
  -28.2530  -22.7890   20.3540 C   0  0  0  0  0  0  0  0  0  0  0  0
  -27.7370  -24.1600   19.8330 C   0  0  0  0  0  2  0  0  0  0  0  0
  -30.1640  -24.8280   19.5110 C   0  0  0  0  0  2  0  0  0  0  0  0
  -30.2610  -23.3170   19.1260 C   0  0  0  0  0  2  0  0  0  0  0  0
  -28.7830  -25.2980   20.0510 C   0  0  0  0  0  3  0  0  0  0  0  0
  -29.5230  -22.4280   20.0430 N   0  0  0  0  0  0  0  0  0  0  0  0
  -27.5240  -22.0990   21.0730 O   0  0  0  0  0  0  0  0  0  0  0  0
  -28.5540  -26.6350   19.5020 O   0  0  0  0  0  0  0  0  0  0  0  0
  -24.5660  -31.4940   23.0020 C   0  0  0  0  0  0  0  0  0  0  0  0
  -27.3450  -27.2990   19.6550 C   0  0  0  0  0  0  0  0  0  0  0  0
  -23.3950  -30.1200   21.3140 C   0  0  0  0  0  3  0  0  0  0  0  0
  -24.8890  -28.7250   19.7880 C   0  0  0  0  0  0  0  0  0  0  0  0
  -25.9010  -30.6020   21.0870 C   0  0  0  0  0  2  0  0  0  0  0  0
  -26.0380  -29.2630   20.3810 C   0  0  0  0  0  0  0  0  0  0  0  0
  -27.2700  -28.5590   20.3110 C   0  0  0  0  0  3  0  0  0  0  0  0
  -26.1780  -26.7970   19.0450 C   0  0  0  0  0  3  0  0  0  0  0  0
  -24.9560  -27.4940   19.1160 C   0  0  0  0  0  3  0  0  0  0  0  0
  -23.6100  -29.5250   19.8980 C   0  0  0  0  0  2  0  0  0  0  0  0
  -24.6400  -30.7530   21.8590 N   0  0  0  0  0  0  0  0  0  0  0  0
  -23.4850  -31.6820   23.5780 O   0  0  0  0  0  0  0  0  0  0  0  0
  -22.8180  -29.0190   22.2320 C   0  0  0  0  0  0  0  0  0  0  0  0
  -21.5070  -28.7550   22.1040 N   0  0  0  0  0  0  0  0  0  0  0  0
  -23.5460  -28.4060   23.0170 O   0  0  0  0  0  0  0  0  0  0  0  0
  -20.9770  -29.3050   21.4440 H   0  0  0  0  0  0  0  0  0  0  0  0
  -18.2380  -27.2710   22.5170 C   0  0  0  0  0  0  0  0  0  0  0  0
  -20.7600  -27.7320   22.8370 C   0  0  0  0  0  3  0  0  0  0  0  0
  -20.9890  -26.3290   22.2260 C   0  0  0  0  0  2  0  0  0  0  0  0
  -19.9320  -25.9450   21.1860 C   0  0  0  0  0  2  0  0  0  0  0  0
  -18.5340  -25.9600   21.8090 C   0  0  0  0  0  2  0  0  0  0  0  0
  -19.2830  -28.1100   22.9860 C   0  0  0  0  0  0  0  0  0  0  0  0
  -18.9500  -29.3350   23.6060 C   0  0  0  0  0  3  0  0  0  0  0  0
  -17.6060  -29.7220   23.7610 C   0  0  0  0  0  3  0  0  0  0  0  0
  -16.5760  -28.8810   23.3090 C   0  0  0  0  0  3  0  0  0  0  0  0
  -16.8910  -27.6560   22.6930 C   0  0  0  0  0  3  0  0  0  0  0  0
  -25.8320  -32.1610   23.6270 C   0  0  0  0  0  3  0  0  0  0  0  0
  -25.4620  -33.5230   24.0310 N   0  0  0  0  0  0  0  0  0  0  0  0
  -25.7330  -34.6280   23.3240 C   0  0  0  0  0  0  0  0  0  0  0  0
  -26.3940  -34.6080   22.2810 O   0  0  0  0  0  0  0  0  0  0  0  0
  -24.8730  -33.6090   24.8480 H   0  0  0  0  0  0  0  0  0  0  0  0
  -23.9110  -36.3440   23.0850 C   0  0  0  0  0  1  0  0  0  0  0  0
  -25.1860  -35.9660   23.8550 C   0  0  0  0  0  3  0  0  0  0  0  0
  -27.2880  -36.9210   24.6910 C   0  0  0  0  0  1  0  0  0  0  0  0
  -26.1620  -37.0750   23.7750 N   0  0  0  0  0  0  0  0  0  0  0  0
  -25.7120  -37.9660   23.9710 H   0  0  0  0  0  0  0  0  0  0  0  0
  -26.4180  -31.3550   24.8510 C   0  0  1  0  0  0  0  0  0  0  0  0
  -25.3670  -31.0110   25.9310 C   0  0  0  0  0  1  0  0  0  0  0  0
  -27.0580  -30.0290   24.3780 C   0  0  0  0  0  1  0  0  0  0  0  0
  -27.5460  -32.1740   25.5250 C   0  0  0  0  0  1  0  0  0  0  0  0
  -30.3000  -21.4130   20.8110 C   0  0  0  0  0  2  0  0  0  0  0  0
  -29.2090  -19.1040   20.9810 C   0  0  0  0  0  3  0  0  0  0  0  0
  -31.3400  -17.8000   19.7170 C   0  0  0  0  0  3  0  0  0  0  0  0
  -30.2520  -19.8990   20.4580 C   0  0  0  0  0  0  0  0  0  0  0  0
  -29.2290  -17.6880   20.8980 C   0  0  0  0  0  0  0  0  0  0  0  0
  -31.3120  -19.2230   19.7940 C   0  0  0  0  0  0  0  0  0  0  0  0
  -30.3160  -17.0030   20.2900 C   0  0  0  0  0  0  0  0  0  0  0  0
  -28.0770  -16.9150   21.5160 C   0  0  0  0  0  1  0  0  0  0  0  0
  -32.4610  -20.0100   19.1920 C   0  0  0  0  0  1  0  0  0  0  0  0
  -30.9590  -14.5980   19.5840 C   0  0  0  0  0  0  0  0  0  0  0  0
  -30.5950  -12.4200   18.4510 C   0  0  0  0  0  2  0  0  0  0  0  0
  -29.5390  -12.6130   17.3390 C   0  0  0  0  0  2  0  0  0  0  0  0
  -28.1090  -12.4770   17.9070 C   0  0  0  0  0  2  0  0  0  0  0  0
  -27.8950  -13.3130   19.1970 C   0  0  0  0  0  3  0  0  0  0  0  0
  -29.0470  -13.0650   20.1960 C   0  0  0  0  0  2  0  0  0  0  0  0
  -30.3130  -13.3950   19.5180 N   0  0  0  0  0  0  0  0  0  0  0  0
  -32.0240  -14.8040   18.9980 O   0  0  0  0  0  0  0  0  0  0  0  0
  -30.2820  -15.5540   20.2760 N   0  0  0  0  0  0  0  0  0  0  0  0
  -29.5080  -15.1660   20.7900 H   0  0  0  0  0  0  0  0  0  0  0  0
  -25.5870  -13.9510   20.1490 C   0  0  0  0  0  0  0  0  0  0  0  0
  -24.5450  -13.1930   20.6100 C   0  0  0  0  0  0  0  0  0  0  0  0
  -24.9780  -11.8350   20.5190 C   0  0  0  0  0  0  0  0  0  0  0  0
  -26.5880  -13.0560   19.7990 N   0  0  0  0  0  0  0  0  0  0  0  0
  -26.2280  -11.7760   20.0800 N   0  0  0  0  0  0  0  0  0  0  0  0
  -24.2530  -10.5810   20.7660 C   0  0  0  0  0  0  0  0  0  0  0  0
  -24.6750   -9.6660   21.7550 C   0  0  0  0  0  3  0  0  0  0  0  0
  -23.9480   -8.4770   21.9880 C   0  0  0  0  0  3  0  0  0  0  0  0
  -22.7860   -8.1950   21.2300 C   0  0  0  0  0  0  0  0  0  0  0  0
  -22.3830   -9.1000   20.2330 C   0  0  0  0  0  3  0  0  0  0  0  0
  -23.1080  -10.2800   19.9990 C   0  0  0  0  0  3  0  0  0  0  0  0
  -22.0350   -7.0530   21.3660 O   0  0  0  0  0  0  0  0  0  0  0  0
  -21.8590   -6.4480   22.5850 C   0  0  0  0  0  0  0  0  0  0  0  0
  -21.3020   -7.1370   23.6850 C   0  0  0  0  0  3  0  0  0  0  0  0
  -21.0760   -6.4590   24.8980 C   0  0  0  0  0  3  0  0  0  0  0  0
  -21.3940   -5.0930   25.0130 C   0  0  0  0  0  0  0  0  0  0  0  0
  -21.9450   -4.4050   23.9170 C   0  0  0  0  0  3  0  0  0  0  0  0
  -22.1740   -5.0810   22.7070 C   0  0  0  0  0  0  0  0  0  0  0  0
  -22.6830   -4.4070   21.6470 F   0  0  0  0  0  0  0  0  0  0  0  0
  -21.1710   -4.4400   26.1780 F   0  0  0  0  0  0  0  0  0  0  0  0
  -23.1900  -13.6900   21.0230 C   0  0  0  0  0  0  0  0  0  0  0  0
  -22.5520  -13.0170   21.9760 N   0  0  0  0  0  0  0  0  0  0  0  0
  -22.7060  -14.7120   20.5370 O   0  0  0  0  0  0  0  0  0  0  0  0
  -22.9550  -12.1950   22.3960 H   0  0  0  0  0  0  0  0  0  0  0  0
  -21.6480  -13.3370   22.2940 H   0  0  0  0  0  0  0  0  0  0  0  0
  -25.7620  -15.3190   19.9800 N   0  0  0  0  0  0  0  0  0  0  0  0
  -25.0430  -15.9930   20.2190 H   0  0  0  0  0  0  0  0  0  0  0  0
  -26.5920  -15.7560   19.6030 H   0  0  0  0  0  0  0  0  0  0  0  0
  1  7  2  0
  2  5  1  0
  2  1  1  0
  3  5  1  0
  4  3  1  0
  4  6  1  0
  5  8  1  0
  6  1  1  0
  6 49  1  0
  8 10  1  0
  9 20  2  0
 10 15  1  0
 11 19  1  0
 11 21  1  0
 12 18  1  0
 12 14  1  0
 13 19  1  0
 14 13  1  0
 15 14  2  0
 16 17  1  0
 16 10  2  0
 17 12  2  0
 18 11  1  0
 19  9  1  0
 21 23  2  0
 22 21  1  0
 24 22  1  0
 25 34  2  0
 25 30  1  0
 26 22  1  0
 26 30  1  0
 27 26  1  0
 28 29  1  0
 28 27  1  0
 29 25  1  0
 30 31  2  0
 31 32  1  0
 33 32  2  0
 34 33  1  0
 35  9  1  0
 35 36  1  0
 35 45  1  0
 36 39  1  0
 37 41  1  0
 37 36  1  0
 38 37  2  0
 41 40  1  0
 43 41  1  0
 43 44  1  0
 43 42  1  0
 45 48  1  1
 45 46  1  0
 47 45  1  0
 51 54  2  0
 51 55  1  0
 52 49  1  0
 52 50  2  0
 53 50  1  0
 53 56  1  0
 54 52  1  0
 55 53  2  0
 57 54  1  0
 58 66  1  0
 59 64  1  0
 60 61  1  0
 60 59  1  0
 62 61  1  0
 62 71  1  0
 62 63  1  0
 64 58  1  0
 64 63  1  0
 65 58  2  0
 66 55  1  0
 66 67  1  0
 68 69  2  0
 69 88  1  0
 70 69  1  0
 70 73  1  0
 71 72  1  0
 71 68  1  0
 72 70  2  0
 73 74  1  0
 74 75  2  0
 76 79  1  0
 76 75  1  0
 77 76  2  0
 78 77  1  0
 78 73  2  0
 79 80  1  0
 80 85  2  0
 80 81  1  0
 81 82  2  0
 82 83  1  0
 83 87  1  0
 84 83  2  0
 85 84  1  0
 86 85  1  0
 88 89  1  0
 89 92  1  0
 89 91  1  0
 90 88  2  0
 93 68  1  0
 93 94  1  0
 95 93  1  0
M  ISO  4   5 101   8 101  58 100  66 100
M  END
>  <TORSDO>  (18) 
F 18

>  <SCORE>  (18) 
-11.097

>  <name>  (18) 
17

>  <ligand_id>  (18) 
17

>  <original_smiles>  (18) 
[H]c1c([H])c([H])c2c(c1[H])C([H])([H])C([H])([H])C([H])([H])C2([H])N([H])C(=O)C1([H])N(C(=O)C([H])(N([H])C(=O)C([H])(N([H])C([H])([H])[H])C([H])([H])[H])C(C([H])([H])[H])(C([H])([H])[H])C([H])([H])[H])C([H])([H])c2c([H])c(OC3([H])C([H])([H])C(=O)N(C([H])([H])c4c([H])c(C([H])([H])[H])c(N([H])C(=O)N5C([H])([H])C([H])([H])C([H])([H])C([H])(n6nc(-c7c([H])c([H])c(Oc8c([H])c([H])c(F)c([H])c8F)c([H])c7[H])c(C(=O)N([H])[H])c6N([H])[H])C5([H])[H])c([H])c4C([H])([H])[H])C([H])([H])C3([H])[H])c([H])c([H])c2C1([H])[H]

>  <smiles>  (18) 
[H]c1c([H])c([H])c2c(c1[H])C([H])([H])C([H])([H])C([H])([H])C2([H])N([H])C(=O)C1([H])N(C(=O)C([H])(N([H])C(=O)C([H])(N([H])C([H])([H])[H])C([H])([H])[H])C(C([H])([H])[H])(C([H])([H])[H])C([H])([H])[H])C([H])([H])c2c([H])c(OC3([H])C([H])([H])C(=O)N(C([H])([H])c4c([H])c(C([H])([H])[H])c(N([H])C(=O)N5C([H])([H])C([H])([H])C([H])([H])C([H])(n6nc(-c7c([H])c([H])c(Oc8c([H])c([H])c(F)c([H])c8F)c([H])c7[H])c(C(=O)N([H])[H])c6N([H])[H])C5([H])[H])c([H])c4C([H])([H])[H])C([H])([H])C3([H])[H])c([H])c([H])c2C1([H])[H]

$$$$
18:0:0
     RDKit          3D

 95103  0  0  1  0  0  0  0  0999 V2000
  -28.1150  -22.4150   20.7450 C   0  0  0  0  0  0  0  0  0  0  0  0
  -27.7480  -20.3680   22.0010 C   0  0  0  0  0  1  0  0  0  0  0  0
  -28.2290  -21.0450   20.7860 N   0  0  0  0  0  0  0  0  0  0  0  0
  -27.6090  -23.0160   21.6980 O   0  0  0  0  0  0  0  0  0  0  0  0
  -28.6010  -23.1250   19.5540 C   0  0  0  0  0  3  0  0  0  0  0  0
  -28.6230  -24.4830   19.4090 C   0  0  0  0  0  3  0  0  0  0  0  0
  -28.1980  -25.5850   20.3910 C   0  0  0  0  0  2  0  0  0  0  0  0
  -28.3490  -26.9290   19.8730 O   0  0  0  0  0  0  0  0  0  0  0  0
  -24.6970  -31.9310   23.4260 C   0  0  0  0  0  0  0  0  0  0  0  0
  -27.2140  -27.7110   19.9460 C   0  0  0  0  0  0  0  0  0  0  0  0
  -23.4340  -30.6630   21.7200 C   0  0  0  0  0  3  0  0  0  0  0  0
  -24.8340  -29.2330   20.1360 C   0  0  0  0  0  0  0  0  0  0  0  0
  -25.9560  -31.0240   21.4710 C   0  0  0  0  0  2  0  0  0  0  0  0
  -26.0160  -29.7060   20.7250 C   0  0  0  0  0  0  0  0  0  0  0  0
  -27.2120  -28.9560   20.6230 C   0  0  0  0  0  3  0  0  0  0  0  0
  -26.0200  -27.2630   19.3450 C   0  0  0  0  0  3  0  0  0  0  0  0
  -24.8310  -28.0110   19.4440 C   0  0  0  0  0  3  0  0  0  0  0  0
  -23.5960  -30.0910   20.2860 C   0  0  0  0  0  2  0  0  0  0  0  0
  -24.7160  -31.2170   22.2650 N   0  0  0  0  0  0  0  0  0  0  0  0
  -23.6350  -32.1660   24.0180 O   0  0  0  0  0  0  0  0  0  0  0  0
  -22.8090  -29.5730   22.6200 C   0  0  0  0  0  0  0  0  0  0  0  0
  -21.4940  -29.3460   22.4600 N   0  0  0  0  0  0  0  0  0  0  0  0
  -23.5050  -28.9360   23.4160 O   0  0  0  0  0  0  0  0  0  0  0  0
  -20.9940  -29.9130   21.7910 H   0  0  0  0  0  0  0  0  0  0  0  0
  -18.1850  -27.9350   22.7720 C   0  0  0  0  0  0  0  0  0  0  0  0
  -20.7040  -28.3400   23.1700 C   0  0  0  0  0  3  0  0  0  0  0  0
  -20.9220  -26.9340   22.5690 C   0  0  0  0  0  2  0  0  0  0  0  0
  -19.8910  -26.5740   21.4930 C   0  0  0  0  0  2  0  0  0  0  0  0
  -18.4750  -26.6170   22.0740 C   0  0  0  0  0  2  0  0  0  0  0  0
  -19.2340  -28.7540   23.2730 C   0  0  0  0  0  0  0  0  0  0  0  0
  -18.9120  -29.9850   23.8830 C   0  0  0  0  0  3  0  0  0  0  0  0
  -17.5730  -30.4010   23.9990 C   0  0  0  0  0  3  0  0  0  0  0  0
  -16.5380  -29.5810   23.5170 C   0  0  0  0  0  3  0  0  0  0  0  0
  -16.8440  -28.3500   22.9120 C   0  0  0  0  0  3  0  0  0  0  0  0
  -26.0060  -32.5090   24.0500 C   0  0  0  0  0  3  0  0  0  0  0  0
  -25.7390  -33.9050   24.4210 N   0  0  0  0  0  0  0  0  0  0  0  0
  -26.0790  -34.9680   23.6790 C   0  0  0  0  0  0  0  0  0  0  0  0
  -26.7240  -34.8730   22.6320 O   0  0  0  0  0  0  0  0  0  0  0  0
  -25.1640  -34.0530   25.2380 H   0  0  0  0  0  0  0  0  0  0  0  0
  -24.3740  -36.7960   23.4150 C   0  0  0  0  0  1  0  0  0  0  0  0
  -25.6310  -36.3540   24.1800 C   0  0  0  0  0  3  0  0  0  0  0  0
  -27.8070  -37.1800   24.9610 C   0  0  0  0  0  1  0  0  0  0  0  0
  -26.6800  -37.3900   24.0560 N   0  0  0  0  0  0  0  0  0  0  0  0
  -26.2960  -38.3130   24.2350 H   0  0  0  0  0  0  0  0  0  0  0  0
  -26.5160  -31.6880   25.2970 C   0  0  1  0  0  0  0  0  0  0  0  0
  -25.4210  -31.4180   26.3550 C   0  0  0  0  0  1  0  0  0  0  0  0
  -27.0910  -30.3220   24.8540 C   0  0  0  0  0  1  0  0  0  0  0  0
  -27.6700  -32.4510   25.9900 C   0  0  0  0  0  1  0  0  0  0  0  0
  -28.8110  -20.0750   19.8140 C   0  0  0  0  0  2  0  0  0  0  0  0
  -31.1170  -21.0200   19.9170 C   0  0  0  0  0  3  0  0  0  0  0  0
  -32.5110  -20.9870   20.0770 C   0  0  0  0  0  3  0  0  0  0  0  0
  -32.3940  -18.5830   20.3870 C   0  0  0  0  0  3  0  0  0  0  0  0
  -30.3280  -19.8470   19.9920 C   0  0  0  0  0  0  0  0  0  0  0  0
  -30.9880  -18.5830   20.2200 C   0  0  0  0  0  0  0  0  0  0  0  0
  -33.1520  -19.7640   20.3120 C   0  0  0  0  0  0  0  0  0  0  0  0
  -34.8630  -19.7120   20.5070 Cl  0  0  0  0  0  0  0  0  0  0  0  0
  -30.3170  -17.1940   20.3400 C   0  0  0  0  0  2  0  0  0  0  0  0
  -31.7870  -15.0850   20.2670 C   0  0  0  0  0  0  0  0  0  0  0  0
  -31.5520  -12.7080   19.6870 C   0  0  0  0  0  2  0  0  0  0  0  0
  -30.7060  -12.6090   18.4010 C   0  0  0  0  0  2  0  0  0  0  0  0
  -29.2070  -12.5530   18.7530 C   0  0  0  0  0  2  0  0  0  0  0  0
  -28.7780  -13.6510   19.7640 C   0  0  0  0  0  3  0  0  0  0  0  0
  -29.7600  -13.7490   20.9540 C   0  0  0  0  0  2  0  0  0  0  0  0
  -31.1060  -13.9150   20.3980 N   0  0  0  0  0  0  0  0  0  0  0  0
  -33.0000  -15.1140   20.0640 O   0  0  0  0  0  0  0  0  0  0  0  0
  -31.0930  -16.1020   19.7160 N   0  0  0  0  0  0  0  0  0  0  0  0
  -31.6600  -16.5010   18.9820 H   0  0  0  0  0  0  0  0  0  0  0  0
  -26.4130  -14.4130   20.4140 C   0  0  0  0  0  0  0  0  0  0  0  0
  -25.2840  -13.7130   20.7480 C   0  0  0  0  0  0  0  0  0  0  0  0
  -25.6550  -12.3340   20.7270 C   0  0  0  0  0  0  0  0  0  0  0  0
  -27.4010  -13.4630   20.2080 N   0  0  0  0  0  0  0  0  0  0  0  0
  -26.9490  -12.2080   20.4580 N   0  0  0  0  0  0  0  0  0  0  0  0
  -24.8390  -11.1240   20.8900 C   0  0  0  0  0  0  0  0  0  0  0  0
  -25.1370  -10.1600   21.8790 C   0  0  0  0  0  3  0  0  0  0  0  0
  -24.3290   -9.0140   22.0270 C   0  0  0  0  0  3  0  0  0  0  0  0
  -23.2060   -8.8220   21.1870 C   0  0  0  0  0  0  0  0  0  0  0  0
  -22.9280   -9.7720   20.1870 C   0  0  0  0  0  3  0  0  0  0  0  0
  -23.7370  -10.9110   20.0370 C   0  0  0  0  0  3  0  0  0  0  0  0
  -22.3790   -7.7260   21.2430 O   0  0  0  0  0  0  0  0  0  0  0  0
  -22.1110   -7.0860   22.4260 C   0  0  0  0  0  0  0  0  0  0  0  0
  -21.5400   -7.7610   23.5260 C   0  0  0  0  0  3  0  0  0  0  0  0
  -21.2170   -7.0500   24.6990 C   0  0  0  0  0  3  0  0  0  0  0  0
  -21.4550   -5.6640   24.7710 C   0  0  0  0  0  0  0  0  0  0  0  0
  -22.0170   -4.9880   23.6730 C   0  0  0  0  0  3  0  0  0  0  0  0
  -22.3420   -5.6970   22.5040 C   0  0  0  0  0  0  0  0  0  0  0  0
  -22.8650   -5.0370   21.4430 F   0  0  0  0  0  0  0  0  0  0  0  0
  -21.1380   -4.9790   25.8940 F   0  0  0  0  0  0  0  0  0  0  0  0
  -23.9150  -14.2840   20.9770 C   0  0  0  0  0  0  0  0  0  0  0  0
  -23.1220  -13.6520   21.8340 N   0  0  0  0  0  0  0  0  0  0  0  0
  -23.5560  -15.3250   20.4260 O   0  0  0  0  0  0  0  0  0  0  0  0
  -23.4230  -12.8110   22.3020 H   0  0  0  0  0  0  0  0  0  0  0  0
  -22.1980  -14.0160   22.0270 H   0  0  0  0  0  0  0  0  0  0  0  0
  -26.6770  -15.7680   20.2460 N   0  0  0  0  0  0  0  0  0  0  0  0
  -25.9540  -16.4730   20.3330 H   0  0  0  0  0  0  0  0  0  0  0  0
  -27.5620  -16.1410   19.9290 H   0  0  0  0  0  0  0  0  0  0  0  0
  1  3  1  0
  1  4  2  0
  3  2  1  0
  5  1  1  0
  6  5  2  0
  6  7  1  0
  8 10  1  0
  8  7  1  0
  9 20  2  0
 10 15  1  0
 11 19  1  0
 11 21  1  0
 12 18  1  0
 12 14  1  0
 13 19  1  0
 14 13  1  0
 15 14  2  0
 16 17  1  0
 16 10  2  0
 17 12  2  0
 18 11  1  0
 19  9  1  0
 21 23  2  0
 22 21  1  0
 24 22  1  0
 25 34  2  0
 25 30  1  0
 26 22  1  0
 26 30  1  0
 27 26  1  0
 28 29  1  0
 28 27  1  0
 29 25  1  0
 30 31  2  0
 31 32  1  0
 33 32  2  0
 34 33  1  0
 35  9  1  0
 35 36  1  0
 35 45  1  0
 36 39  1  0
 37 41  1  0
 37 36  1  0
 38 37  2  0
 41 40  1  0
 43 41  1  0
 43 44  1  0
 43 42  1  0
 45 48  1  1
 45 46  1  0
 47 45  1  0
 49 53  1  0
 49  3  1  0
 50 53  2  0
 50 51  1  0
 51 55  2  0
 53 54  1  0
 54 57  1  0
 54 52  2  0
 55 52  1  0
 55 56  1  0
 58 64  1  0
 59 64  1  0
 60 61  1  0
 60 59  1  0
 62 61  1  0
 62 71  1  0
 62 63  1  0
 64 63  1  0
 65 58  2  0
 66 58  1  0
 66 57  1  0
 67 66  1  0
 68 69  2  0
 69 88  1  0
 70 69  1  0
 70 73  1  0
 71 68  1  0
 71 72  1  0
 72 70  2  0
 73 74  1  0
 74 75  2  0
 76 79  1  0
 76 75  1  0
 77 76  2  0
 78 77  1  0
 78 73  2  0
 79 80  1  0
 80 85  2  0
 80 81  1  0
 81 82  2  0
 82 83  1  0
 83 87  1  0
 84 83  2  0
 85 84  1  0
 86 85  1  0
 88 89  1  0
 89 92  1  0
 89 91  1  0
 90 88  2  0
 93 94  1  0
 93 68  1  0
 95 93  1  0
M  ISO  4   7 101   8 101  58 100  66 100
M  END
>  <TORSDO>  (19) 
F 21

>  <SCORE>  (19) 
-9.733

>  <name>  (19) 
18

>  <ligand_id>  (19) 
18

>  <original_smiles>  (19) 
[H]C(C(=O)N(C([H])([H])[H])C([H])([H])c1c([H])c([H])c(Cl)c([H])c1C([H])([H])N([H])C(=O)N1C([H])([H])C([H])([H])C([H])([H])C([H])(n2nc(-c3c([H])c([H])c(Oc4c([H])c([H])c(F)c([H])c4F)c([H])c3[H])c(C(=O)N([H])[H])c2N([H])[H])C1([H])[H])=C([H])C([H])([H])Oc1c([H])c([H])c2c(c1[H])C([H])([H])N(C(=O)C([H])(N([H])C(=O)C([H])(N([H])C([H])([H])[H])C([H])([H])[H])C(C([H])([H])[H])(C([H])([H])[H])C([H])([H])[H])C([H])(C(=O)N([H])C1([H])c3c([H])c([H])c([H])c([H])c3C([H])([H])C([H])([H])C1([H])[H])C2([H])[H]

>  <smiles>  (19) 
[H]C(C(=O)N(C([H])([H])[H])C([H])([H])c1c([H])c([H])c(Cl)c([H])c1C([H])([H])N([H])C(=O)N1C([H])([H])C([H])([H])C([H])([H])C([H])(n2nc(-c3c([H])c([H])c(Oc4c([H])c([H])c(F)c([H])c4F)c([H])c3[H])c(C(=O)N([H])[H])c2N([H])[H])C1([H])[H])=C([H])C([H])([H])Oc1c([H])c([H])c2c(c1[H])C([H])([H])N(C(=O)C([H])(N([H])C(=O)C([H])(N([H])C([H])([H])[H])C([H])([H])[H])C(C([H])([H])[H])(C([H])([H])[H])C([H])([H])[H])C([H])(C(=O)N([H])C1([H])c3c([H])c([H])c([H])c([H])c3C([H])([H])C([H])([H])C1([H])[H])C2([H])[H]

$$$$
19:0:0
     RDKit          3D

 94102  0  0  1  0  0  0  0  0999 V2000
  -28.2110  -23.0980   20.1210 C   0  0  0  0  0  0  0  0  0  0  0  0
  -28.9300  -21.9290   20.6000 N   0  0  0  0  0  0  0  0  0  0  0  0
  -27.5050  -22.9520   19.1200 O   0  0  0  0  0  0  0  0  0  0  0  0
  -28.7900  -20.3090   20.3820 C   0  0  0  0  0  2  0  0  0  0  0  0
  -30.6610  -20.1550   18.8260 C   0  0  0  0  0  3  0  0  0  0  0  0
  -31.6430  -19.7580   17.9210 C   0  0  0  0  0  3  0  0  0  0  0  0
  -31.1970  -17.4740   18.5260 C   0  0  0  0  0  3  0  0  0  0  0  0
  -29.8910  -19.2850   19.6460 C   0  0  0  0  0  0  0  0  0  0  0  0
  -30.2430  -17.7610   19.5530 C   0  0  0  0  0  0  0  0  0  0  0  0
  -31.8850  -18.4080   17.7460 C   0  0  0  0  0  0  0  0  0  0  0  0
  -32.7870  -17.9990   16.8190 F   0  0  0  0  0  0  0  0  0  0  0  0
  -30.5110  -15.0750   20.1570 C   0  0  0  0  0  0  0  0  0  0  0  0
  -30.3460  -12.6920   19.2620 C   0  0  0  0  0  2  0  0  0  0  0  0
  -29.3840  -12.6000   18.0560 C   0  0  0  0  0  2  0  0  0  0  0  0
  -27.9450  -12.3580   18.5380 C   0  0  0  0  0  2  0  0  0  0  0  0
  -27.5560  -13.2950   19.7090 C   0  0  0  0  0  3  0  0  0  0  0  0
  -28.6460  -13.3850   20.7970 C   0  0  0  0  0  2  0  0  0  0  0  0
  -29.8760  -13.8220   20.1300 N   0  0  0  0  0  0  0  0  0  0  0  0
  -31.7320  -15.0130   19.9620 O   0  0  0  0  0  0  0  0  0  0  0  0
  -29.8330  -16.3720   20.1830 N   0  0  0  0  0  0  0  0  0  0  0  0
  -28.8780  -16.3130   20.5040 H   0  0  0  0  0  0  0  0  0  0  0  0
  -25.2150  -13.8390   20.5620 C   0  0  0  0  0  0  0  0  0  0  0  0
  -24.1690  -13.0520   20.9560 C   0  0  0  0  0  0  0  0  0  0  0  0
  -24.6420  -11.7050   20.8920 C   0  0  0  0  0  0  0  0  0  0  0  0
  -26.2510  -12.9720   20.2660 N   0  0  0  0  0  0  0  0  0  0  0  0
  -25.9210  -11.6810   20.5320 N   0  0  0  0  0  0  0  0  0  0  0  0
  -23.9300  -10.4360   21.0840 C   0  0  0  0  0  0  0  0  0  0  0  0
  -24.3890   -9.4620   21.9980 C   0  0  0  0  0  3  0  0  0  0  0  0
  -23.6730   -8.2590   22.1800 C   0  0  0  0  0  3  0  0  0  0  0  0
  -22.4850   -8.0220   21.4480 C   0  0  0  0  0  0  0  0  0  0  0  0
  -22.0460   -8.9860   20.5230 C   0  0  0  0  0  3  0  0  0  0  0  0
  -22.7620  -10.1800   20.3390 C   0  0  0  0  0  3  0  0  0  0  0  0
  -21.7350   -6.8750   21.5450 O   0  0  0  0  0  0  0  0  0  0  0  0
  -21.7110   -6.1260   22.6950 C   0  0  0  0  0  0  0  0  0  0  0  0
  -21.2950   -6.6670   23.9310 C   0  0  0  0  0  3  0  0  0  0  0  0
  -21.2200   -5.8420   25.0720 C   0  0  0  0  0  3  0  0  0  0  0  0
  -21.5500   -4.4780   24.9770 C   0  0  0  0  0  0  0  0  0  0  0  0
  -21.9590   -3.9350   23.7460 C   0  0  0  0  0  3  0  0  0  0  0  0
  -22.0380   -4.7580   22.6080 C   0  0  0  0  0  0  0  0  0  0  0  0
  -22.4140   -4.2240   21.4210 F   0  0  0  0  0  0  0  0  0  0  0  0
  -21.4700   -3.6830   26.0710 F   0  0  0  0  0  0  0  0  0  0  0  0
  -22.7810  -13.5190   21.2760 C   0  0  0  0  0  0  0  0  0  0  0  0
  -22.0820  -12.8120   22.1570 N   0  0  0  0  0  0  0  0  0  0  0  0
  -22.3240  -14.5490   20.7790 O   0  0  0  0  0  0  0  0  0  0  0  0
  -22.4600  -11.9810   22.5840 H   0  0  0  0  0  0  0  0  0  0  0  0
  -21.1470  -13.1050   22.4030 H   0  0  0  0  0  0  0  0  0  0  0  0
  -25.3630  -15.2140   20.3960 N   0  0  0  0  0  0  0  0  0  0  0  0
  -24.5890  -15.8570   20.5340 H   0  0  0  0  0  0  0  0  0  0  0  0
  -26.1890  -15.6710   20.0320 H   0  0  0  0  0  0  0  0  0  0  0  0
  -30.0580  -22.2330   21.4900 C   0  0  0  0  0  2  0  0  0  0  0  0
  -29.9590  -23.2780   23.7900 C   0  0  0  0  0  2  0  0  0  0  0  0
  -29.6940  -22.2510   22.9640 C   0  0  0  0  0  3  0  0  0  0  0  0
  -28.0650  -24.6190   20.8740 C   0  0  0  0  0  2  0  0  0  0  0  0
  -28.1880  -26.0640   20.2420 O   0  0  0  0  0  0  0  0  0  0  0  0
  -24.6010  -31.8790   23.2350 C   0  0  0  0  0  0  0  0  0  0  0  0
  -27.1470  -27.0770   20.2820 C   0  0  0  0  0  0  0  0  0  0  0  0
  -23.4040  -30.4770   21.6030 C   0  0  0  0  0  3  0  0  0  0  0  0
  -24.8480  -28.8750   20.2000 C   0  0  0  0  0  0  0  0  0  0  0  0
  -25.9640  -30.7130   21.4540 C   0  0  0  0  0  2  0  0  0  0  0  0
  -26.0290  -29.3080   20.8190 C   0  0  0  0  0  0  0  0  0  0  0  0
  -27.1840  -28.4270   20.8370 C   0  0  0  0  0  3  0  0  0  0  0  0
  -25.9430  -26.7500   19.6320 C   0  0  0  0  0  3  0  0  0  0  0  0
  -24.8190  -27.6110   19.5890 C   0  0  0  0  0  3  0  0  0  0  0  0
  -23.6290  -29.7860   20.2310 C   0  0  0  0  0  2  0  0  0  0  0  0
  -24.6760  -31.0450   22.1530 N   0  0  0  0  0  0  0  0  0  0  0  0
  -23.5130  -32.1750   23.7550 O   0  0  0  0  0  0  0  0  0  0  0  0
  -22.7110  -29.4830   22.5680 C   0  0  0  0  0  0  0  0  0  0  0  0
  -21.3850  -29.3070   22.4260 N   0  0  0  0  0  0  0  0  0  0  0  0
  -23.3710  -28.8720   23.4120 O   0  0  0  0  0  0  0  0  0  0  0  0
  -20.9070  -29.8490   21.7210 H   0  0  0  0  0  0  0  0  0  0  0  0
  -18.0060  -28.0920   22.8990 C   0  0  0  0  0  0  0  0  0  0  0  0
  -20.5570  -28.3770   23.2000 C   0  0  0  0  0  3  0  0  0  0  0  0
  -20.6790  -26.9360   22.6500 C   0  0  0  0  0  2  0  0  0  0  0  0
  -19.5950  -26.5890   21.6260 C   0  0  0  0  0  2  0  0  0  0  0  0
  -18.2020  -26.7330   22.2450 C   0  0  0  0  0  2  0  0  0  0  0  0
  -19.1100  -28.8680   23.3310 C   0  0  0  0  0  0  0  0  0  0  0  0
  -18.8730  -30.1350   23.9060 C   0  0  0  0  0  3  0  0  0  0  0  0
  -17.5610  -30.6280   24.0470 C   0  0  0  0  0  3  0  0  0  0  0  0
  -16.4690  -29.8490   23.6300 C   0  0  0  0  0  3  0  0  0  0  0  0
  -16.6910  -28.5810   23.0620 C   0  0  0  0  0  3  0  0  0  0  0  0
  -25.8790  -32.5170   23.8640 C   0  0  0  0  0  3  0  0  0  0  0  0
  -25.5690  -33.9190   24.1860 N   0  0  0  0  0  0  0  0  0  0  0  0
  -25.9000  -34.9720   23.4260 C   0  0  0  0  0  0  0  0  0  0  0  0
  -26.5620  -34.8630   22.3910 O   0  0  0  0  0  0  0  0  0  0  0  0
  -24.9890  -34.0800   24.9950 H   0  0  0  0  0  0  0  0  0  0  0  0
  -24.1750  -36.7700   23.0770 C   0  0  0  0  0  1  0  0  0  0  0  0
  -25.4200  -36.3640   23.8820 C   0  0  0  0  0  3  0  0  0  0  0  0
  -27.5620  -37.2460   24.7010 C   0  0  0  0  0  1  0  0  0  0  0  0
  -26.4550  -37.4150   23.7600 N   0  0  0  0  0  0  0  0  0  0  0  0
  -26.0540  -38.3350   23.9060 H   0  0  0  0  0  0  0  0  0  0  0  0
  -26.3800  -31.7590   25.1540 C   0  0  1  0  0  0  0  0  0  0  0  0
  -25.2730  -31.5400   26.2140 C   0  0  0  0  0  1  0  0  0  0  0  0
  -26.9610  -30.3720   24.7920 C   0  0  0  0  0  1  0  0  0  0  0  0
  -27.5290  -32.5540   25.8200 C   0  0  0  0  0  1  0  0  0  0  0  0
  1  2  1  0
  1 53  1  0
  2 50  1  0
  3  1  2  0
  4  2  1  0
  5  8  1  0
  6  5  2  0
  7  9  1  0
  8  4  1  0
  9  8  2  0
  9 20  1  0
 10  6  1  0
 10  7  2  0
 11 10  1  0
 12 20  1  0
 13 18  1  0
 14 15  1  0
 14 13  1  0
 16 15  1  0
 16 25  1  0
 16 17  1  0
 18 12  1  0
 18 17  1  0
 19 12  2  0
 20 21  1  0
 22 23  2  0
 23 42  1  0
 24 23  1  0
 24 27  1  0
 25 26  1  0
 25 22  1  0
 26 24  2  0
 27 28  1  0
 28 29  2  0
 30 33  1  0
 30 29  1  0
 31 30  2  0
 32 31  1  0
 32 27  2  0
 33 34  1  0
 34 35  1  0
 35 36  2  0
 37 36  1  0
 37 41  1  0
 38 37  2  0
 39 34  2  0
 39 38  1  0
 40 39  1  0
 42 43  1  0
 43 46  1  0
 43 45  1  0
 44 42  2  0
 47 48  1  0
 47 22  1  0
 49 47  1  0
 50 52  1  0
 52 51  2  0
 54 56  1  0
 54 53  1  0
 55 66  2  0
 56 61  1  0
 57 65  1  0
 57 67  1  0
 58 64  1  0
 58 60  1  0
 59 65  1  0
 60 61  2  0
 60 59  1  0
 62 56  2  0
 63 62  1  0
 63 58  2  0
 64 57  1  0
 65 55  1  0
 67 69  2  0
 68 67  1  0
 70 68  1  0
 71 80  2  0
 71 76  1  0
 72 68  1  0
 72 76  1  0
 73 72  1  0
 74 75  1  0
 74 73  1  0
 75 71  1  0
 76 77  2  0
 77 78  1  0
 79 78  2  0
 80 79  1  0
 81 55  1  0
 81 82  1  0
 81 91  1  0
 82 85  1  0
 83 87  1  0
 83 82  1  0
 84 83  2  0
 87 86  1  0
 89 87  1  0
 89 90  1  0
 89 88  1  0
 91 94  1  1
 91 92  1  0
 93 91  1  0
M  ISO  4  12 100  20 100  53 101  54 101
M  END
>  <TORSDO>  (20) 
F 21

>  <SCORE>  (20) 
-14.225

>  <name>  (20) 
19

>  <ligand_id>  (20) 
19

>  <original_smiles>  (20) 
[H]C([H])=C([H])C([H])([H])N(C(=O)C([H])([H])Oc1c([H])c([H])c2c(c1[H])C([H])([H])N(C(=O)C([H])(N([H])C(=O)C([H])(N([H])C([H])([H])[H])C([H])([H])[H])C(C([H])([H])[H])(C([H])([H])[H])C([H])([H])[H])C([H])(C(=O)N([H])C1([H])c3c([H])c([H])c([H])c([H])c3C([H])([H])C([H])([H])C1([H])[H])C2([H])[H])C([H])([H])c1c([H])c([H])c(F)c([H])c1N([H])C(=O)N1C([H])([H])C([H])([H])C([H])([H])C([H])(n2nc(-c3c([H])c([H])c(Oc4c([H])c([H])c(F)c([H])c4F)c([H])c3[H])c(C(=O)N([H])[H])c2N([H])[H])C1([H])[H]

>  <smiles>  (20) 
[H]C([H])=C([H])C([H])([H])N(C(=O)C([H])([H])Oc1c([H])c([H])c2c(c1[H])C([H])([H])N(C(=O)C([H])(N([H])C(=O)C([H])(N([H])C([H])([H])[H])C([H])([H])[H])C(C([H])([H])[H])(C([H])([H])[H])C([H])([H])[H])C([H])(C(=O)N([H])C1([H])c3c([H])c([H])c([H])c([H])c3C([H])([H])C([H])([H])C1([H])[H])C2([H])[H])C([H])([H])c1c([H])c([H])c(F)c([H])c1N([H])C(=O)N1C([H])([H])C([H])([H])C([H])([H])C([H])(n2nc(-c3c([H])c([H])c(Oc4c([H])c([H])c(F)c([H])c4F)c([H])c3[H])c(C(=O)N([H])[H])c2N([H])[H])C1([H])[H]

$$$$
20:0:0
     RDKit          3D

100109  0  0  1  0  0  0  0  0999 V2000
  -31.7440  -18.5330   21.8720 C   0  0  0  0  0  3  0  0  0  0  0  0
  -30.7380  -20.6370   21.2660 C   0  0  0  0  0  3  0  0  0  0  0  0
  -30.8900  -17.8130   21.0040 C   0  0  0  0  0  0  0  0  0  0  0  0
  -31.6750  -19.9200   22.0150 C   0  0  0  0  0  0  0  0  0  0  0  0
  -29.8790  -19.9900   20.3470 C   0  0  0  0  0  0  0  0  0  0  0  0
  -29.9310  -18.5530   20.2240 C   0  0  0  0  0  0  0  0  0  0  0  0
  -32.6100  -20.6280   22.9710 C   0  0  0  0  0  1  0  0  0  0  0  0
  -30.7430  -14.4760   19.5810 C   0  0  0  0  0  0  0  0  0  0  0  0
  -30.1510  -12.4470   18.3020 C   0  0  0  0  0  2  0  0  0  0  0  0
  -29.0190  -12.7010   17.2930 C   0  0  0  0  0  2  0  0  0  0  0  0
  -27.6400  -12.5420   17.9600 C   0  0  0  0  0  2  0  0  0  0  0  0
  -27.5300  -13.3040   19.3060 C   0  0  0  0  0  3  0  0  0  0  0  0
  -28.7550  -13.0430   20.2070 C   0  0  0  0  0  2  0  0  0  0  0  0
  -29.9560  -13.3770   19.4260 N   0  0  0  0  0  0  0  0  0  0  0  0
  -31.7760  -14.6310   18.9200 O   0  0  0  0  0  0  0  0  0  0  0  0
  -31.0700  -16.2970   21.0640 C   0  0  0  0  0  0  0  0  0  0  0  0
  -30.2710  -15.4630   20.3720 N   0  0  0  0  0  0  0  0  0  0  0  0
  -32.0430  -15.8510   21.6870 O   0  0  0  0  0  0  0  0  0  0  0  0
  -29.2770  -15.5790   20.4570 H   0  0  0  0  0  0  0  0  0  0  0  0
  -25.3060  -13.8660   20.4610 C   0  0  0  0  0  0  0  0  0  0  0  0
  -24.3060  -13.0730   20.9570 C   0  0  0  0  0  0  0  0  0  0  0  0
  -24.7220  -11.7260   20.7320 C   0  0  0  0  0  0  0  0  0  0  0  0
  -26.2760  -12.9980   19.9870 N   0  0  0  0  0  0  0  0  0  0  0  0
  -25.9380  -11.7010   20.2010 N   0  0  0  0  0  0  0  0  0  0  0  0
  -24.0090  -10.4590   20.9360 C   0  0  0  0  0  0  0  0  0  0  0  0
  -24.5040   -9.4620   21.8030 C   0  0  0  0  0  3  0  0  0  0  0  0
  -23.7890   -8.2590   21.9960 C   0  0  0  0  0  3  0  0  0  0  0  0
  -22.5630   -8.0490   21.3210 C   0  0  0  0  0  0  0  0  0  0  0  0
  -22.0870   -9.0340   20.4380 C   0  0  0  0  0  3  0  0  0  0  0  0
  -22.8030  -10.2270   20.2440 C   0  0  0  0  0  3  0  0  0  0  0  0
  -21.8140   -6.9020   21.4300 O   0  0  0  0  0  0  0  0  0  0  0  0
  -21.7490   -6.1920   22.6020 C   0  0  0  0  0  0  0  0  0  0  0  0
  -21.2800   -6.7750   23.8010 C   0  0  0  0  0  3  0  0  0  0  0  0
  -21.1610   -5.9890   24.9650 C   0  0  0  0  0  3  0  0  0  0  0  0
  -21.5030   -4.6240   24.9320 C   0  0  0  0  0  0  0  0  0  0  0  0
  -21.9640   -4.0430   23.7400 C   0  0  0  0  0  3  0  0  0  0  0  0
  -22.0830   -4.8230   22.5770 C   0  0  0  0  0  0  0  0  0  0  0  0
  -22.5060   -4.2520   21.4240 F   0  0  0  0  0  0  0  0  0  0  0  0
  -21.3830   -3.8690   26.0500 F   0  0  0  0  0  0  0  0  0  0  0  0
  -22.9890  -13.5390   21.5080 C   0  0  0  0  0  0  0  0  0  0  0  0
  -22.4260  -12.7980   22.4580 N   0  0  0  0  0  0  0  0  0  0  0  0
  -22.4720  -14.5890   21.1310 O   0  0  0  0  0  0  0  0  0  0  0  0
  -22.8600  -11.9450   22.7820 H   0  0  0  0  0  0  0  0  0  0  0  0
  -21.5500  -13.0850   22.8700 H   0  0  0  0  0  0  0  0  0  0  0  0
  -25.4630  -15.2430   20.3460 N   0  0  0  0  0  0  0  0  0  0  0  0
  -24.7270  -15.8910   20.6030 H   0  0  0  0  0  0  0  0  0  0  0  0
  -26.1790  -15.6700   19.7740 H   0  0  0  0  0  0  0  0  0  0  0  0
  -28.9520  -17.8320   19.2840 C   0  0  0  0  0  2  0  0  0  0  0  0
  -26.6860  -18.3900   20.3780 C   0  0  0  0  0  1  0  0  0  0  0  0
  -27.6870  -17.2950   19.9870 C   0  0  0  0  0  2  0  0  0  0  0  0
  -28.9040  -20.8680   19.5210 C   0  0  0  0  0  2  0  0  0  0  0  0
  -29.9220  -23.1470   18.8350 C   0  0  0  0  0  0  0  0  0  0  0  0
  -30.5720  -22.6210   17.7790 C   0  0  0  0  0  2  0  0  0  0  0  0
  -30.0000  -24.6210   19.2670 C   0  0  0  0  0  2  0  0  0  0  0  0
  -27.7150  -24.4590   20.2450 C   0  0  0  0  0  2  0  0  0  0  0  0
  -27.6440  -22.9780   19.8170 C   0  0  0  0  0  2  0  0  0  0  0  0
  -28.6100  -25.2840   19.2920 C   0  0  0  0  0  3  0  0  0  0  0  0
  -28.9910  -22.3530   19.7380 N   0  0  1  0  0  4  0  0  0  0  0  0
  -29.3480  -22.4170   20.6800 H   0  0  0  0  0  0  0  0  0  0  0  0
  -28.6620  -26.6900   19.6610 O   0  0  0  0  0  0  0  0  0  0  0  0
  -24.5150  -31.4080   23.0680 C   0  0  0  0  0  0  0  0  0  0  0  0
  -27.4640  -27.3920   19.6590 C   0  0  0  0  0  0  0  0  0  0  0  0
  -23.4180  -30.0610   21.3130 C   0  0  0  0  0  3  0  0  0  0  0  0
  -24.9800  -28.7600   19.7760 C   0  0  0  0  0  0  0  0  0  0  0  0
  -25.9170  -30.6030   21.1680 C   0  0  0  0  0  2  0  0  0  0  0  0
  -26.1020  -29.2980   20.4160 C   0  0  0  0  0  0  0  0  0  0  0  0
  -27.3470  -28.6230   20.3540 C   0  0  0  0  0  3  0  0  0  0  0  0
  -26.3160  -26.8970   18.9900 C   0  0  0  0  0  3  0  0  0  0  0  0
  -25.0820  -27.5620   19.0590 C   0  0  0  0  0  3  0  0  0  0  0  0
  -23.6790  -29.5220   19.8860 C   0  0  0  0  0  2  0  0  0  0  0  0
  -24.6350  -30.7010   21.9090 N   0  0  0  0  0  0  0  0  0  0  0  0
  -23.4150  -31.5600   23.6180 O   0  0  0  0  0  0  0  0  0  0  0  0
  -22.8420  -28.9170   22.1800 C   0  0  0  0  0  0  0  0  0  0  0  0
  -21.5410  -28.6300   22.0060 N   0  0  0  0  0  0  0  0  0  0  0  0
  -23.5630  -28.2970   22.9660 O   0  0  0  0  0  0  0  0  0  0  0  0
  -21.0130  -29.1970   21.3560 H   0  0  0  0  0  0  0  0  0  0  0  0
  -18.3020  -27.0520   22.2600 C   0  0  0  0  0  0  0  0  0  0  0  0
  -20.7980  -27.5690   22.6850 C   0  0  0  0  0  3  0  0  0  0  0  0
  -21.0860  -26.1850   22.0570 C   0  0  0  0  0  2  0  0  0  0  0  0
  -20.0790  -25.7930   20.9720 C   0  0  0  0  0  2  0  0  0  0  0  0
  -18.6590  -25.7610   21.5430 C   0  0  0  0  0  2  0  0  0  0  0  0
  -19.3060  -27.9090   22.7830 C   0  0  0  0  0  0  0  0  0  0  0  0
  -18.9210  -29.1140   23.4080 C   0  0  0  0  0  3  0  0  0  0  0  0
  -17.5630  -29.4660   23.5180 C   0  0  0  0  0  3  0  0  0  0  0  0
  -16.5710  -28.6070   23.0140 C   0  0  0  0  0  3  0  0  0  0  0  0
  -16.9410  -27.4010   22.3900 C   0  0  0  0  0  3  0  0  0  0  0  0
  -25.7500  -32.0790   23.7460 C   0  0  0  0  0  3  0  0  0  0  0  0
  -26.2190  -31.3360   25.0560 C   0  0  1  0  0  0  0  0  0  0  0  0
  -25.0820  -31.1040   26.0790 C   0  0  0  0  0  1  0  0  0  0  0  0
  -26.8300  -29.9580   24.7110 C   0  0  0  0  0  1  0  0  0  0  0  0
  -27.3310  -32.1530   25.7520 C   0  0  0  0  0  1  0  0  0  0  0  0
  -25.3880  -33.4720   24.0380 N   0  0  0  0  0  0  0  0  0  0  0  0
  -25.7930  -34.5290   23.3230 C   0  0  0  0  0  0  0  0  0  0  0  0
  -26.5800  -34.4350   22.3760 O   0  0  0  0  0  0  0  0  0  0  0  0
  -24.6990  -33.6180   24.7610 H   0  0  0  0  0  0  0  0  0  0  0  0
  -24.0990  -36.3030   22.7690 C   0  0  0  0  0  1  0  0  0  0  0  0
  -25.2400  -35.9110   23.7210 C   0  0  0  0  0  3  0  0  0  0  0  0
  -27.2510  -36.8150   24.8010 C   0  0  0  0  0  1  0  0  0  0  0  0
  -26.2670  -36.9750   23.7330 N   0  0  0  0  0  0  0  0  0  0  0  0
  -25.8370  -37.8900   23.8340 H   0  0  0  0  0  0  0  0  0  0  0  0
  1  4  1  0
  2  4  2  0
  3 16  1  0
  3  1  2  0
  4  7  1  0
  5  2  1  0
  6  5  2  0
  6  3  1  0
  8 17  1  0
  9 14  1  0
 10 11  1  0
 10  9  1  0
 12 11  1  0
 12 23  1  0
 12 13  1  0
 14  8  1  0
 14 13  1  0
 15  8  2  0
 16 18  2  0
 17 19  1  0
 17 16  1  0
 20 21  2  0
 21 40  1  0
 22 25  1  0
 22 21  1  0
 23 24  1  0
 23 20  1  0
 24 22  2  0
 25 26  1  0
 26 27  2  0
 28 31  1  0
 28 27  1  0
 29 28  2  0
 30 29  1  0
 30 25  2  0
 31 32  1  0
 32 33  1  0
 33 34  2  0
 35 34  1  0
 35 39  1  0
 36 35  2  0
 37 32  2  0
 37 36  1  0
 38 37  1  0
 40 41  1  0
 41 43  1  0
 41 44  1  0
 42 40  2  0
 45 20  1  0
 45 46  1  0
 47 45  1  0
 48 50  1  0
 48  6  1  0
 50 49  1  0
 51 58  1  0
 51  5  1  0
 52 54  1  0
 52 58  1  0
 53 52  2  0
 54 57  1  0
 56 55  1  0
 57 60  1  0
 57 55  1  0
 58 56  1  0
 58 59  1  1
 61 72  2  0
 62 60  1  0
 62 67  1  0
 63 71  1  0
 63 73  1  0
 64 70  1  0
 64 66  1  0
 65 71  1  0
 66 65  1  0
 67 66  2  0
 68 69  1  0
 68 62  2  0
 69 64  2  0
 70 63  1  0
 71 61  1  0
 73 75  2  0
 74 73  1  0
 76 74  1  0
 77 86  2  0
 77 82  1  0
 78 74  1  0
 78 82  1  0
 79 78  1  0
 80 81  1  0
 80 79  1  0
 81 77  1  0
 82 83  2  0
 83 84  1  0
 85 84  2  0
 86 85  1  0
 87 61  1  0
 87 92  1  0
 87 88  1  0
 88 91  1  1
 88 89  1  0
 90 88  1  0
 92 95  1  0
 93 97  1  0
 93 92  1  0
 94 93  2  0
 97 96  1  0
 97 99  1  0
 99100  1  0
 99 98  1  0
M  ISO  4   8 100  17 100  57 101  60 101
M  END
>  <TORSDO>  (21) 
F 20

>  <SCORE>  (21) 
-11.779

>  <name>  (21) 
20

>  <ligand_id>  (21) 
20

>  <original_smiles>  (21) 
[H]C([H])=C1C([H])([H])C([H])(Oc2c([H])c([H])c3c(c2[H])C([H])([H])N(C(=O)C([H])(N([H])C(=O)C([H])(N([H])C([H])([H])[H])C([H])([H])[H])C(C([H])([H])[H])(C([H])([H])[H])C([H])([H])[H])C([H])(C(=O)N([H])C2([H])c4c([H])c([H])c([H])c([H])c4C([H])([H])C([H])([H])C2([H])[H])C3([H])[H])C([H])([H])C([H])([H])[N+]1([H])C([H])([H])c1c([H])c(C([H])([H])[H])c([H])c(C(=O)N([H])C(=O)N2C([H])([H])C([H])([H])C([H])([H])C([H])(n3nc(-c4c([H])c([H])c(Oc5c([H])c([H])c(F)c([H])c5F)c([H])c4[H])c(C(=O)N([H])[H])c3N([H])[H])C2([H])[H])c1C([H])([H])C([H])([H])C([H])([H])[H]

>  <smiles>  (21) 
[H]C([H])=C1C([H])([H])C([H])(Oc2c([H])c([H])c3c(c2[H])C([H])([H])N(C(=O)C([H])(N([H])C(=O)C([H])(N([H])C([H])([H])[H])C([H])([H])[H])C(C([H])([H])[H])(C([H])([H])[H])C([H])([H])[H])C([H])(C(=O)N([H])C2([H])c4c([H])c([H])c([H])c([H])c4C([H])([H])C([H])([H])C2([H])[H])C3([H])[H])C([H])([H])C([H])([H])[N+]1([H])C([H])([H])c1c([H])c(C([H])([H])[H])c([H])c(C(=O)N([H])C(=O)N2C([H])([H])C([H])([H])C([H])([H])C([H])(n3nc(-c4c([H])c([H])c(Oc5c([H])c([H])c(F)c([H])c5F)c([H])c4[H])c(C(=O)N([H])[H])c3N([H])[H])C2([H])[H])c1C([H])([H])C([H])([H])C([H])([H])[H]

$$$$
21:0:0
     RDKit          3D

 96101  0  0  1  0  0  0  0  0999 V2000
  -25.9950  -22.8890   20.4030 C   0  0  0  0  0  0  0  0  0  0  0  0
  -25.2080  -24.0010   19.8860 N   0  0  0  0  0  0  0  0  0  0  0  0
  -26.0580  -22.8230   21.6310 O   0  0  0  0  0  0  0  0  0  0  0  0
  -25.2490  -24.0770   18.8790 H   0  0  0  0  0  0  0  0  0  0  0  0
  -26.6930  -20.0690   17.6990 C   0  0  0  0  0  3  0  0  0  0  0  0
  -26.2130  -21.2090   18.3950 C   0  0  0  0  0  3  0  0  0  0  0  0
  -27.7750  -19.2620   18.1370 C   0  0  0  0  0  3  0  0  0  0  0  0
  -26.7740  -21.6560   19.6120 C   0  0  0  0  0  0  0  0  0  0  0  0
  -28.4990  -19.5320   19.3150 C   0  0  0  0  0  0  0  0  0  0  0  0
  -27.9500  -20.7670   20.0330 C   0  0  0  0  0  0  0  0  0  0  0  0
  -28.6620  -21.1580   21.3150 C   0  0  0  0  0  1  0  0  0  0  0  0
  -29.8770  -18.5480   19.5990 C   0  0  0  0  0  2  0  0  0  0  0  0
  -31.1830  -15.9310   19.6290 C   0  0  0  0  0  0  0  0  0  0  0  0
  -31.4800  -13.4160   19.1480 C   0  0  0  0  0  2  0  0  0  0  0  0
  -30.5840  -13.0180   17.9470 C   0  0  0  0  0  2  0  0  0  0  0  0
  -29.1190  -12.8060   18.3870 C   0  0  0  0  0  2  0  0  0  0  0  0
  -28.6350  -13.9210   19.3480 C   0  0  0  0  0  3  0  0  0  0  0  0
  -29.6330  -14.1540   20.4890 C   0  0  0  0  0  2  0  0  0  0  0  0
  -30.8480  -14.5920   19.8250 N   0  0  0  0  0  0  0  0  0  0  0  0
  -32.3870  -16.1280   19.3750 O   0  0  0  0  0  0  0  0  0  0  0  0
  -30.1130  -16.9320   19.5830 N   0  0  0  0  0  0  0  0  0  0  0  0
  -29.2310  -16.4640   19.7240 H   0  0  0  0  0  0  0  0  0  0  0  0
  -26.3390  -14.6330   20.1820 C   0  0  0  0  0  0  0  0  0  0  0  0
  -25.2470  -13.9130   20.5760 C   0  0  0  0  0  0  0  0  0  0  0  0
  -25.6290  -12.5380   20.4930 C   0  0  0  0  0  0  0  0  0  0  0  0
  -27.3060  -13.6940   19.8700 N   0  0  0  0  0  0  0  0  0  0  0  0
  -26.8980  -12.4290   20.1290 N   0  0  0  0  0  0  0  0  0  0  0  0
  -24.8400  -11.3160   20.6720 C   0  0  0  0  0  0  0  0  0  0  0  0
  -25.1950  -10.3410   21.6300 C   0  0  0  0  0  3  0  0  0  0  0  0
  -24.4070   -9.1810   21.7930 C   0  0  0  0  0  3  0  0  0  0  0  0
  -23.2520   -8.9920   20.9980 C   0  0  0  0  0  0  0  0  0  0  0  0
  -22.9200   -9.9540   20.0280 C   0  0  0  0  0  3  0  0  0  0  0  0
  -23.7060  -11.1050   19.8630 C   0  0  0  0  0  3  0  0  0  0  0  0
  -22.4410   -7.8870   21.0710 O   0  0  0  0  0  0  0  0  0  0  0  0
  -22.1830   -7.2610   22.2640 C   0  0  0  0  0  0  0  0  0  0  0  0
  -21.6060   -7.9470   23.3550 C   0  0  0  0  0  3  0  0  0  0  0  0
  -21.2930   -7.2490   24.5390 C   0  0  0  0  0  3  0  0  0  0  0  0
  -21.5490   -5.8680   24.6310 C   0  0  0  0  0  0  0  0  0  0  0  0
  -22.1190   -5.1830   23.5430 C   0  0  0  0  0  3  0  0  0  0  0  0
  -22.4330   -5.8790   22.3630 C   0  0  0  0  0  0  0  0  0  0  0  0
  -22.9630   -5.2100   21.3110 F   0  0  0  0  0  0  0  0  0  0  0  0
  -21.2420   -5.1950   25.7650 F   0  0  0  0  0  0  0  0  0  0  0  0
  -23.8920  -14.4640   20.9020 C   0  0  0  0  0  0  0  0  0  0  0  0
  -23.1610  -13.8010   21.7910 N   0  0  0  0  0  0  0  0  0  0  0  0
  -23.4940  -15.5160   20.4030 O   0  0  0  0  0  0  0  0  0  0  0  0
  -23.4980  -12.9500   22.2130 H   0  0  0  0  0  0  0  0  0  0  0  0
  -22.2500  -14.1510   22.0540 H   0  0  0  0  0  0  0  0  0  0  0  0
  -26.5780  -15.9970   20.0340 N   0  0  0  0  0  0  0  0  0  0  0  0
  -25.8320  -16.6690   20.1760 H   0  0  0  0  0  0  0  0  0  0  0  0
  -27.3610  -16.3930   19.5330 H   0  0  0  0  0  0  0  0  0  0  0  0
  -24.0660  -24.9730   20.5580 C   0  0  0  0  0  2  0  0  0  0  0  0
  -23.4510  -26.6040   20.2020 C   0  0  0  0  0  2  0  0  0  0  0  0
  -20.7740  -27.9740   19.1870 C   0  0  0  0  0  1  0  0  0  0  0  0
  -19.5110  -26.3660   22.6530 C   0  0  0  0  0  2  0  0  0  0  0  0
  -21.2750  -27.0430   20.3700 C   0  0  0  0  0  1  0  0  0  0  0  0
  -25.1010  -27.2760   20.5080 O   0  0  0  0  0  0  0  0  0  0  0  0
  -24.6420  -32.0280   23.4430 C   0  0  0  0  0  0  0  0  0  0  0  0
  -26.2080  -27.8670   19.7840 C   0  0  0  0  0  3  0  0  0  0  0  0
  -23.4410  -30.9980   21.6000 C   0  0  0  0  0  3  0  0  0  0  0  0
  -24.7280  -29.9840   19.6650 C   0  0  0  0  0  0  0  0  0  0  0  0
  -25.9460  -31.2910   21.4210 C   0  0  0  0  0  2  0  0  0  0  0  0
  -25.8700  -30.1070   20.4640 C   0  0  0  0  0  3  0  0  0  0  0  0
  -26.7710  -29.0250   20.4210 C   0  0  0  0  0  2  0  0  0  0  0  0
  -25.7160  -28.0820   18.5240 C   0  0  0  0  0  2  0  0  0  0  0  0
  -24.7010  -29.0470   18.6030 C   0  0  0  0  0  3  0  0  0  0  0  0
  -23.5670  -30.8330   20.0560 C   0  0  0  0  0  2  0  0  0  0  0  0
  -24.6970  -31.4950   22.1930 N   0  0  0  0  0  0  0  0  0  0  0  0
  -23.5680  -32.1600   24.0510 O   0  0  0  0  0  0  0  0  0  0  0  0
  -23.0760  -29.7140   22.3650 C   0  0  0  0  0  0  0  0  0  0  0  0
  -21.8390  -29.6100   22.6970 N   0  0  0  0  0  0  0  0  0  0  0  0
  -23.8760  -28.8760   22.7620 O   0  0  0  0  0  0  0  0  0  0  0  0
  -21.1990  -30.3430   22.4280 H   0  0  0  0  0  0  0  0  0  0  0  0
  -18.4400  -28.5740   22.2720 C   0  0  0  0  0  0  0  0  0  0  0  0
  -21.2430  -28.4440   23.2570 C   0  0  0  0  0  2  0  0  0  0  0  0
  -21.6950  -26.4650   22.6880 C   0  0  0  0  0 15  0  0  0  0  0  0
  -20.0570  -25.7380   21.4310 C   0  0  0  0  0  1  0  0  0  0  0  0
  -18.5810  -27.0700   21.2620 C   0  0  0  0  0  2  0  0  0  0  0  0
  -19.6230  -29.1690   23.0790 C   0  0  0  0  0  0  0  0  0  0  0  0
  -19.3170  -30.1270   24.1060 C   0  0  0  0  0  3  0  0  0  0  0  0
  -18.0120  -30.4930   24.5000 C   0  0  0  0  0  3  0  0  0  0  0  0
  -16.9210  -29.8550   23.8960 C   0  0  0  0  0  3  0  0  0  0  0  0
  -17.1390  -28.9200   22.8390 C   0  0  0  0  0  3  0  0  0  0  0  0
  -25.9300  -32.5160   24.1460 C   0  0  0  0  0  3  0  0  0  0  0  0
  -25.6840  -33.9050   24.5460 N   0  0  0  0  0  0  0  0  0  0  0  0
  -26.0580  -34.9730   23.8320 C   0  0  0  0  0  0  0  0  0  0  0  0
  -26.7270  -34.8840   22.7990 O   0  0  0  0  0  0  0  0  0  0  0  0
  -25.0950  -34.0480   25.3530 H   0  0  0  0  0  0  0  0  0  0  0  0
  -24.4160  -36.8580   23.5480 C   0  0  0  0  0  1  0  0  0  0  0  0
  -25.6270  -36.3570   24.3500 C   0  0  0  0  0  3  0  0  0  0  0  0
  -27.7940  -37.0910   25.2380 C   0  0  0  0  0  1  0  0  0  0  0  0
  -26.7100  -37.3630   24.2980 N   0  0  0  0  0  0  0  0  0  0  0  0
  -26.3470  -38.2920   24.4930 H   0  0  0  0  0  0  0  0  0  0  0  0
  -26.3280  -31.6350   25.3900 C   0  0  1  0  0  0  0  0  0  0  0  0
  -25.1730  -31.4020   26.3910 C   0  0  0  0  0  1  0  0  0  0  0  0
  -26.8470  -30.2480   24.9460 C   0  0  0  0  0  1  0  0  0  0  0  0
  -27.4910  -32.3180   26.1440 C   0  0  0  0  0  1  0  0  0  0  0  0
  1  3  2  0
  2  1  1  0
  2 51  1  0
  4  2  1  0
  5  7  2  0
  5  6  1  0
  6  8  2  0
  7  9  1  0
  8 10  1  0
  8  1  1  0
  9 12  1  0
  9 10  2  0
 10 11  1  0
 13 19  1  0
 14 19  1  0
 15 16  1  0
 15 14  1  0
 17 16  1  0
 17 26  1  0
 17 18  1  0
 19 18  1  0
 20 13  2  0
 21 12  1  0
 21 13  1  0
 21 22  1  0
 23 24  2  0
 24 43  1  0
 25 24  1  0
 25 28  1  0
 26 27  1  0
 26 23  1  0
 27 25  2  0
 28 29  1  0
 29 30  2  0
 31 34  1  0
 31 30  1  0
 32 31  2  0
 33 32  1  0
 33 28  2  0
 34 35  1  0
 35 40  2  0
 35 36  1  0
 36 37  2  0
 37 38  1  0
 38 42  1  0
 39 38  2  0
 40 39  1  0
 41 40  1  0
 43 44  1  0
 44 47  1  0
 44 46  1  0
 45 43  2  0
 48 49  1  0
 48 23  1  0
 50 48  1  0
 52 56  1  0
 52 51  1  0
 53 55  1  0
 57 68  2  0
 58 63  1  0
 58 56  1  0
 59 67  1  0
 59 69  1  0
 60 66  1  0
 60 62  1  0
 61 67  1  0
 62 63  1  0
 62 61  1  0
 64 65  1  0
 64 58  1  0
 65 60  2  0
 66 59  1  0
 67 57  1  0
 69 70  1  0
 69 71  2  0
 70 74  1  0
 72 70  1  0
 73 82  2  0
 73 78  1  0
 76 54  1  0
 77 73  1  0
 77 54  1  0
 78 74  1  0
 78 79  2  0
 79 80  1  0
 81 80  2  0
 82 81  1  0
 83 57  1  0
 83 84  1  0
 83 93  1  0
 84 87  1  0
 85 89  1  0
 85 84  1  0
 86 85  2  0
 89 88  1  0
 91 89  1  0
 91 92  1  0
 91 90  1  0
 93 96  1  1
 93 94  1  0
 95 93  1  0
M  ISO  4  13 100  21 100  52 101  56 101
M  END
>  <TORSDO>  (22) 
F 21

>  <SCORE>  (22) 
-13.324

>  <name>  (22) 
21

>  <ligand_id>  (22) 
21

>  <original_smiles>  (22) 
[H]c1c([H])c(C(=O)N([H])C([H])([H])C([H])(Oc2c([H])c([H])c3c(c2[H])C([H])([H])N(C(=O)C([H])(N([H])C(=O)C([H])(N([H])C([H])([H])[H])C([H])([H])[H])C(C([H])([H])[H])(C([H])([H])[H])C([H])([H])[H])C([H])(C(=O)N([H])C2([H])c4c([H])c([H])c([H])c([H])c4C([H])([H])C([H])([H])C2([H])[H])C3([H])[H])C([H])(C([H])([H])[H])C([H])([H])[H])c(C([H])([H])[H])c(C([H])([H])N([H])C(=O)N2C([H])([H])C([H])([H])C([H])([H])C([H])(n3nc(-c4c([H])c([H])c(Oc5c([H])c([H])c(F)c([H])c5F)c([H])c4[H])c(C(=O)N([H])[H])c3N([H])[H])C2([H])[H])c1[H]

>  <smiles>  (22) 
[H]c1c([H])c(C(=O)N([H])C([H])([H])C([H])(Oc2c([H])c([H])c3c(c2[H])C([H])([H])N(C(=O)C([H])(N([H])C(=O)C([H])(N([H])C([H])([H])[H])C([H])([H])[H])C(C([H])([H])[H])(C([H])([H])[H])C([H])([H])[H])C([H])(C(=O)N([H])C2([H])c4c([H])c([H])c([H])c([H])c4C([H])([H])C([H])([H])C2([H])[H])C3([H])[H])C([H])(C([H])([H])[H])C([H])([H])[H])c(C([H])([H])[H])c(C([H])([H])N([H])C(=O)N2C([H])([H])C([H])([H])C([H])([H])C([H])(n3nc(-c4c([H])c([H])c(Oc5c([H])c([H])c(F)c([H])c5F)c([H])c4[H])c(C(=O)N([H])[H])c3N([H])[H])C2([H])[H])c1[H]

$$$$
22:0:0
     RDKit          3D

 94 96  0  0  1  0  0  0  0  0999 V2000
  -17.8570  -24.8650   21.0690 C   0  0  0  0  0  3  0  0  0  0  0  0
  -17.6550  -26.2590   20.0010 C   0  0  0  0  0  2  0  0  0  0  0  0
  -19.2580  -24.2560   21.9010 C   0  0  0  0  0  3  0  0  0  0  0  0
  -20.0150  -26.3300   21.9830 C   0  0  0  0  0  1  0  0  0  0  0  0
  -18.9710  -27.4550   20.2710 C   0  0  0  0  0  2  0  0  0  0  0  0
  -20.8880  -24.7250   21.9580 C   0  0  0  0  0  2  0  0  0  0  0  0
  -24.3890  -24.4740   22.0500 O   0  0  0  0  0  0  0  0  0  0  0  0
  -23.3910  -22.4490   23.1210 O   0  0  0  0  0  0  0  0  0  0  0  0
  -23.6110  -23.2310   21.8880 S   0  0  0  0  0  0  0  0  0  0  0  0
  -27.4370  -20.2130   20.9180 C   0  0  0  0  0  1  0  0  0  0  0  0
  -26.1570  -21.5800   20.9510 C   0  0  0  0  0  1  0  0  0  0  0  0
  -29.2330  -19.1200   20.3870 C   0  0  0  0  0  2  0  0  0  0  0  0
  -31.0820  -16.8930   19.3600 C   0  0  0  0  0  2  0  0  0  0  0  0
  -30.8180  -15.8630   18.1380 C   0  0  0  0  0  2  0  0  0  0  0  0
  -29.6170  -14.9540   18.4020 C   0  0  0  0  0  2  0  0  0  0  0  0
  -28.7200  -15.8020   19.2940 C   0  0  0  0  0  3  0  0  0  0  0  0
  -29.3360  -16.3340   20.5880 C   0  0  0  0  0  2  0  0  0  0  0  0
  -29.8110  -17.6280   20.1440 N   0  0  0  0  0  0  0  0  0  0  0  0
  -30.4750  -19.4580   20.1110 O   0  0  0  0  0  1  0  0  0  0  0  0
  -26.3830  -16.0850   19.9050 C   0  0  0  0  0  0  0  0  0  0  0  0
  -25.4410  -15.2140   20.3250 C   0  0  0  0  0  0  0  0  0  0  0  0
  -26.0750  -13.9320   20.3480 C   0  0  0  0  0  0  0  0  0  0  0  0
  -27.4840  -15.2990   19.6770 N   0  0  0  0  0  0  0  0  0  0  0  0
  -27.3520  -14.0140   20.0300 N   0  0  0  0  0  0  0  0  0  0  0  0
  -25.5160  -12.6120   20.5630 C   0  0  0  0  0  0  0  0  0  0  0  0
  -25.8240  -11.8590   21.7140 C   0  0  0  0  0  3  0  0  0  0  0  0
  -25.2490  -10.5860   21.8910 C   0  0  0  0  0  3  0  0  0  0  0  0
  -24.3640  -10.0700   20.9140 C   0  0  0  0  0  0  0  0  0  0  0  0
  -24.0920  -10.8180   19.7560 C   0  0  0  0  0  3  0  0  0  0  0  0
  -24.6690  -12.0810   19.5770 C   0  0  0  0  0  3  0  0  0  0  0  0
  -23.7690   -8.8380   20.9910 O   0  0  0  0  0  0  0  0  0  0  0  0
  -23.0890   -8.4440   22.1130 C   0  0  0  0  0  0  0  0  0  0  0  0
  -22.0210   -9.2010   22.6430 C   0  0  0  0  0  3  0  0  0  0  0  0
  -21.3060   -8.7190   23.7580 C   0  0  0  0  0  3  0  0  0  0  0  0
  -21.6530   -7.4820   24.3350 C   0  0  0  0  0  0  0  0  0  0  0  0
  -22.7150   -6.7290   23.8060 C   0  0  0  0  0  3  0  0  0  0  0  0
  -23.4300   -7.2090   22.6960 C   0  0  0  0  0  0  0  0  0  0  0  0
  -24.4420   -6.4720   22.1740 F   0  0  0  0  0  0  0  0  0  0  0  0
  -20.9600   -7.0130   25.4000 F   0  0  0  0  0  0  0  0  0  0  0  0
  -24.0110  -15.5550   20.5610 C   0  0  0  0  0  0  0  0  0  0  0  0
  -23.3740  -14.8710   21.4990 N   0  0  0  0  0  0  0  0  0  0  0  0
  -23.4700  -16.4730   19.9460 O   0  0  0  0  0  0  0  0  0  0  0  0
  -23.8360  -14.1350   22.0140 H   0  0  0  0  0  0  0  0  0  0  0  0
  -22.4090  -15.0840   21.7090 H   0  0  0  0  0  0  0  0  0  0  0  0
  -26.3910  -17.4600   19.6760 N   0  0  0  0  0  0  0  0  0  0  0  0
  -25.5100  -17.9620   19.6900 H   0  0  0  0  0  0  0  0  0  0  0  0
  -27.0680  -17.8810   19.0550 H   0  0  0  0  0  0  0  0  0  0  0  0
  -19.6980  -28.3270   18.9040 C   0  0  0  0  0  2  0  0  0  0  0  0
  -22.6600  -28.6710   18.7690 C   0  0  0  0  0  0  0  0  0  0  0  0
  -21.2270  -29.0020   18.7340 N   0  0  0  0  0  0  0  0  0  0  0  0
  -23.0840  -27.8390   17.9620 O   0  0  0  0  0  0  0  0  0  0  0  0
  -21.1670  -29.9290   19.1270 H   0  0  0  0  0  0  0  0  0  0  0  0
  -23.8110  -29.2710   19.8900 C   0  0  0  0  0  2  0  0  0  0  0  0
  -25.3530  -28.9330   20.0220 O   0  0  0  0  0  0  0  0  0  0  0  0
  -26.9660  -31.8590   25.7910 C   0  0  0  0  0  0  0  0  0  0  0  0
  -26.1000  -30.0460   20.1070 C   0  0  0  0  0  3  0  0  0  0  0  0
  -24.8790  -32.0940   24.5330 C   0  0  0  0  0  3  0  0  0  0  0  0
  -25.1170  -31.8310   21.9600 C   0  0  0  0  0  3  0  0  0  0  0  0
  -27.1310  -31.8180   23.3330 C   0  0  0  0  0  2  0  0  0  0  0  0
  -26.3660  -31.2680   22.1680 C   0  0  0  0  0  0  0  0  0  0  0  0
  -26.8790  -30.3170   21.2560 C   0  0  0  0  0  3  0  0  0  0  0  0
  -25.2020  -30.9930   19.6730 C   0  0  0  0  0  3  0  0  0  0  0  0
  -24.6650  -31.8620   20.6370 C   0  0  0  0  0  3  0  0  0  0  0  0
  -24.4500  -32.5690   23.1100 C   0  0  0  0  0  2  0  0  0  0  0  0
  -26.3570  -31.9350   24.5860 N   0  0  0  0  0  0  0  0  0  0  0  0
  -26.3230  -31.9520   26.8460 O   0  0  0  0  0  0  0  0  0  0  0  0
  -24.2300  -30.7790   25.0150 C   0  0  0  0  0  0  0  0  0  0  0  0
  -22.9210  -30.5590   24.8690 N   0  0  0  0  0  0  0  0  0  0  0  0
  -24.9430  -29.8980   25.5060 O   0  0  0  0  0  0  0  0  0  0  0  0
  -22.2910  -31.2750   24.5370 H   0  0  0  0  0  0  0  0  0  0  0  0
  -20.7320  -27.7230   23.3030 C   0  0  0  0  0  3  0  0  0  0  0  0
  -22.4460  -29.1670   24.9970 C   0  0  0  0  0  3  0  0  0  0  0  0
  -23.9810  -28.1910   24.8390 C   0  0  0  0  0  1  0  0  0  0  0  0
  -24.6460  -26.9490   23.4270 C   0  0  0  0  0  1  0  0  0  0  0  0
  -23.5290  -26.3200   22.2220 C   0  0  0  0  0  1  0  0  0  0  0  0
  -20.9590  -28.9780   24.2550 C   0  0  0  0  0  0  0  0  0  0  0  0
  -20.1610  -30.2260   24.4130 C   0  0  0  0  0  3  0  0  0  0  0  0
  -19.0690  -30.6190   23.6210 C   0  0  0  0  0  3  0  0  0  0  0  0
  -18.7970  -29.6710   22.6280 C   0  0  0  0  0  3  0  0  0  0  0  0
  -19.5620  -28.3990   22.5030 C   0  0  0  0  0  3  0  0  0  0  0  0
  -28.5050  -31.6810   25.8800 C   0  0  0  0  0  3  0  0  0  0  0  0
  -28.9350  -32.4380   27.0570 N   0  0  0  0  0  0  0  0  0  0  0  0
  -29.4260  -33.6820   27.0120 C   0  0  0  0  0  0  0  0  0  0  0  0
  -29.6510  -34.2790   25.9560 O   0  0  0  0  0  0  0  0  0  0  0  0
  -28.7320  -32.0330   27.9590 H   0  0  0  0  0  0  0  0  0  0  0  0
  -28.5880  -35.3500   28.6960 C   0  0  0  0  0  1  0  0  0  0  0  0
  -29.7210  -34.3690   28.3570 C   0  0  0  0  0  3  0  0  0  0  0  0
  -32.1670  -34.1700   28.3370 C   0  0  0  0  0  1  0  0  0  0  0  0
  -31.0200  -35.0740   28.3790 N   0  0  0  0  0  0  0  0  0  0  0  0
  -31.1020  -35.6530   29.2110 H   0  0  0  0  0  0  0  0  0  0  0  0
  -28.9550  -30.1740   25.9680 C   0  0  1  0  0  0  0  0  0  0  0  0
  -28.1990  -29.3640   27.0450 C   0  0  0  0  0  1  0  0  0  0  0  0
  -28.7630  -29.4370   24.6200 C   0  0  0  0  0  1  0  0  0  0  0  0
  -30.4660  -30.1160   26.2820 C   0  0  0  0  0  1  0  0  0  0  0  0
  1  3  2  0
  2  5  1  0
  2  1  1  0
  3  6  1  0
  6  4  1  0
  9  7  2  0
  9  8  2  0
 10 11  1  0
 13 18  1  0
 14 15  1  0
 14 13  1  0
 16 15  1  0
 16 23  1  0
 16 17  1  0
 18 12  1  0
 18 17  1  0
 19 12  1  0
 20 21  2  0
 21 22  1  0
 21 40  1  0
 22 25  1  0
 23 20  1  0
 23 24  1  0
 24 22  2  0
 25 26  1  0
 26 27  2  0
 28 31  1  0
 28 27  1  0
 29 28  2  0
 30 29  1  0
 30 25  2  0
 31 32  1  0
 32 33  2  0
 32 37  1  0
 33 34  1  0
 34 35  2  0
 35 39  1  0
 36 35  1  0
 37 36  2  0
 38 37  1  0
 40 41  1  0
 41 44  1  0
 41 43  1  0
 42 40  2  0
 45 46  1  0
 45 20  1  0
 47 45  1  0
 48  5  1  0
 49 53  1  0
 50 49  1  0
 50 48  1  0
 50 52  1  0
 51 49  2  0
 53 54  1  0
 55 66  2  0
 56 54  1  0
 56 61  1  0
 57 65  1  0
 57 67  1  0
 58 63  1  0
 58 60  1  0
 58 64  1  0
 59 65  1  0
 60 59  1  0
 61 60  2  0
 62 56  1  0
 62 63  2  0
 64 57  1  0
 65 55  1  0
 67 69  2  0
 68 72  1  0
 68 67  1  0
 70 68  1  0
 71 76  1  0
 72 73  1  0
 75 74  1  0
 76 77  2  0
 76 72  1  0
 78 77  1  0
 79 78  2  0
 80 79  1  0
 80 71  2  0
 81 55  1  0
 81 91  1  0
 81 82  1  0
 82 85  1  0
 83 82  1  0
 83 87  1  0
 84 83  2  0
 87 89  1  0
 87 86  1  0
 88 89  1  0
 89 90  1  0
 91 94  1  1
 91 92  1  0
 93 91  1  0
M  ISO  4  10 100  12 100  53 101  54 101
M  END
>  <TORSDO>  (23) 
F 21

>  <SCORE>  (23) 
9.405

>  <name>  (23) 
22

>  <ligand_id>  (23) 
22

>  <original_smiles>  (23) 
[H]C(C(=O)N1C([H])([H])C([H])([H])C([H])([H])C([H])(n2nc(-c3c([H])c([H])c(Oc4c([H])c([H])c(F)c([H])c4F)c([H])c3[H])c(C(=O)N([H])[H])c2N([H])[H])C1([H])[H])=C([H])S(=O)(=O)c1c([H])c([H])c([H])c(C([H])([H])N([H])C(=O)C([H])([H])Oc2c([H])c([H])c3c(c2[H])C([H])([H])N(C(=O)C([H])(N([H])C(=O)C([H])(N([H])C([H])([H])[H])C([H])([H])[H])C(C([H])([H])[H])(C([H])([H])[H])C([H])([H])[H])C([H])(C(=O)N([H])C2([H])c4c([H])c([H])c([H])c([H])c4C([H])([H])C([H])([H])C2([H])[H])C3([H])[H])c1[H]

>  <smiles>  (23) 
[H]C(C(=O)N1C([H])([H])C([H])([H])C([H])([H])C([H])(n2nc(-c3c([H])c([H])c(Oc4c([H])c([H])c(F)c([H])c4F)c([H])c3[H])c(C(=O)N([H])[H])c2N([H])[H])C1([H])[H])=C([H])S(=O)(=O)c1c([H])c([H])c([H])c(C([H])([H])N([H])C(=O)C([H])([H])Oc2c([H])c([H])c3c(c2[H])C([H])([H])N(C(=O)C([H])(N([H])C(=O)C([H])(N([H])C([H])([H])[H])C([H])([H])[H])C(C([H])([H])[H])(C([H])([H])[H])C([H])([H])[H])C([H])(C(=O)N([H])C2([H])c4c([H])c([H])c([H])c([H])c4C([H])([H])C([H])([H])C2([H])[H])C3([H])[H])c1[H]

$$$$
23:0:0
     RDKit          3D

 96105  0  0  1  0  0  0  0  0999 V2000
  -28.1340  -22.6090   18.9480 C   0  0  0  0  0  0  0  0  0  0  0  0
  -27.5640  -21.7790   19.8410 C   0  0  0  0  0  2  0  0  0  0  0  0
  -27.3620  -23.4070   17.9010 C   0  0  0  0  0  2  0  0  0  0  0  0
  -27.6620  -24.9320   17.9440 C   0  0  0  0  0  2  0  0  0  0  0  0
  -29.7650  -24.5090   19.2650 C   0  0  0  0  0  2  0  0  0  0  0  0
  -28.4460  -25.3400   19.2110 C   0  0  0  0  0  3  0  0  0  0  0  0
  -29.5770  -23.0460   18.9270 N   0  0  1  0  0  4  0  0  0  0  0  0
  -29.8110  -23.0230   17.9440 H   0  0  0  0  0  0  0  0  0  0  0  0
  -28.6000  -26.7960   19.3140 O   0  0  0  0  0  0  0  0  0  0  0  0
  -24.8270  -31.3750   23.3500 C   0  0  0  0  0  0  0  0  0  0  0  0
  -27.4360  -27.5500   19.4510 C   0  0  0  0  0  0  0  0  0  0  0  0
  -23.5810  -30.1440   21.6140 C   0  0  0  0  0  3  0  0  0  0  0  0
  -24.9940  -28.9380   19.8700 C   0  0  0  0  0  0  0  0  0  0  0  0
  -26.0700  -30.6770   21.2980 C   0  0  0  0  0  2  0  0  0  0  0  0
  -26.1740  -29.4200   20.4520 C   0  0  0  0  0  0  0  0  0  0  0  0
  -27.3990  -28.7290   20.2450 C   0  0  0  0  0  3  0  0  0  0  0  0
  -26.2330  -27.1410   18.8260 C   0  0  0  0  0  3  0  0  0  0  0  0
  -25.0200  -27.8030   19.0540 C   0  0  0  0  0  3  0  0  0  0  0  0
  -23.7160  -29.6950   20.1380 C   0  0  0  0  0  2  0  0  0  0  0  0
  -24.8490  -30.7430   22.1420 N   0  0  0  0  0  0  0  0  0  0  0  0
  -23.7760  -31.4920   23.9960 O   0  0  0  0  0  0  0  0  0  0  0  0
  -23.0700  -28.9510   22.4570 C   0  0  0  0  0  0  0  0  0  0  0  0
  -21.8130  -28.5390   22.2160 N   0  0  0  0  0  0  0  0  0  0  0  0
  -23.8040  -28.4020   23.2830 O   0  0  0  0  0  0  0  0  0  0  0  0
  -21.2720  -29.0490   21.5320 H   0  0  0  0  0  0  0  0  0  0  0  0
  -18.8020  -26.5370   22.1850 C   0  0  0  0  0  0  0  0  0  0  0  0
  -21.1400  -27.4110   22.8600 C   0  0  0  0  0  3  0  0  0  0  0  0
  -21.6820  -26.0600   22.3360 C   0  0  0  0  0  2  0  0  0  0  0  0
  -20.8690  -25.5000   21.1630 C   0  0  0  0  0  2  0  0  0  0  0  0
  -19.4100  -25.2870   21.5740 C   0  0  0  0  0  2  0  0  0  0  0  0
  -19.6150  -27.5420   22.7750 C   0  0  0  0  0  0  0  0  0  0  0  0
  -18.9990  -28.7010   23.2990 C   0  0  0  0  0  3  0  0  0  0  0  0
  -17.6020  -28.8620   23.2380 C   0  0  0  0  0  3  0  0  0  0  0  0
  -16.8010  -27.8580   22.6680 C   0  0  0  0  0  3  0  0  0  0  0  0
  -17.4020  -26.6980   22.1470 C   0  0  0  0  0  3  0  0  0  0  0  0
  -26.1160  -32.0040   23.9650 C   0  0  0  0  0  3  0  0  0  0  0  0
  -26.6520  -31.2170   25.2250 C   0  0  1  0  0  0  0  0  0  0  0  0
  -25.5820  -30.9890   26.3190 C   0  0  0  0  0  1  0  0  0  0  0  0
  -27.2080  -29.8360   24.8110 C   0  0  0  0  0  1  0  0  0  0  0  0
  -27.8310  -31.9940   25.8550 C   0  0  0  0  0  1  0  0  0  0  0  0
  -25.8030  -33.3960   24.3160 N   0  0  0  0  0  0  0  0  0  0  0  0
  -26.1670  -34.4630   23.5920 C   0  0  0  0  0  0  0  0  0  0  0  0
  -26.8710  -34.3780   22.5840 O   0  0  0  0  0  0  0  0  0  0  0  0
  -25.1690  -33.5370   25.0890 H   0  0  0  0  0  0  0  0  0  0  0  0
  -24.4560  -36.2760   23.2350 C   0  0  0  0  0  1  0  0  0  0  0  0
  -25.6740  -35.8450   24.0660 C   0  0  0  0  0  3  0  0  0  0  0  0
  -27.7890  -36.7130   24.9720 C   0  0  0  0  0  1  0  0  0  0  0  0
  -26.7160  -36.8950   23.9970 N   0  0  0  0  0  0  0  0  0  0  0  0
  -26.3080  -37.8150   24.1440 H   0  0  0  0  0  0  0  0  0  0  0  0
  -30.6730  -22.1620   19.4650 C   0  0  0  0  0  2  0  0  0  0  0  0
  -30.0560  -18.1070   21.0710 C   0  0  0  0  0  3  0  0  0  0  0  0
  -29.6430  -19.2290   21.8080 C   0  0  0  0  0  3  0  0  0  0  0  0
  -30.7630  -19.5900   19.2730 C   0  0  0  0  0  3  0  0  0  0  0  0
  -30.6410  -18.2730   19.7990 C   0  0  0  0  0  0  0  0  0  0  0  0
  -29.8050  -20.5400   21.3120 C   0  0  0  0  0  0  0  0  0  0  0  0
  -30.3600  -20.7410   20.0100 C   0  0  0  0  0  0  0  0  0  0  0  0
  -29.3670  -21.6670   22.2450 C   0  0  0  0  0  1  0  0  0  0  0  0
  -31.1740  -17.0600   19.0100 C   0  0  0  0  0  2  0  0  0  0  0  0
  -31.5940  -14.6210   19.4850 C   0  0  0  0  0  0  0  0  0  0  0  0
  -31.3480  -12.1900   19.1320 C   0  0  0  0  0  2  0  0  0  0  0  0
  -30.4070  -11.9630   17.9310 C   0  0  0  0  0  2  0  0  0  0  0  0
  -28.9320  -11.9540   18.3830 C   0  0  0  0  0  2  0  0  0  0  0  0
  -28.5800  -13.1630   19.2920 C   0  0  0  0  0  3  0  0  0  0  0  0
  -29.6330  -13.3380   20.4090 C   0  0  0  0  0  2  0  0  0  0  0  0
  -30.9520  -13.4550   19.7680 N   0  0  0  0  0  0  0  0  0  0  0  0
  -32.7440  -14.6580   19.0330 O   0  0  0  0  0  0  0  0  0  0  0  0
  -30.8230  -15.7260   19.5360 N   0  0  0  0  0  0  0  0  0  0  0  0
  -29.8750  -15.5950   19.8510 H   0  0  0  0  0  0  0  0  0  0  0  0
  -26.2940  -14.0510   20.0590 C   0  0  0  0  0  0  0  0  0  0  0  0
  -25.1680  -13.4140   20.5010 C   0  0  0  0  0  0  0  0  0  0  0  0
  -25.4830  -12.0230   20.5260 C   0  0  0  0  0  0  0  0  0  0  0  0
  -27.2290  -13.0540   19.8350 N   0  0  0  0  0  0  0  0  0  0  0  0
  -26.7470  -11.8320   20.1740 N   0  0  0  0  0  0  0  0  0  0  0  0
  -24.6410  -10.8520   20.8050 C   0  0  0  0  0  0  0  0  0  0  0  0
  -25.0360   -9.8640   21.7330 C   0  0  0  0  0  3  0  0  0  0  0  0
  -24.2000   -8.7560   21.9960 C   0  0  0  0  0  3  0  0  0  0  0  0
  -22.9560   -8.6330   21.3340 C   0  0  0  0  0  0  0  0  0  0  0  0
  -22.5770   -9.6110   20.3960 C   0  0  0  0  0  3  0  0  0  0  0  0
  -23.4120  -10.7070   20.1300 C   0  0  0  0  0  3  0  0  0  0  0  0
  -22.0890   -7.5820   21.5080 O   0  0  0  0  0  0  0  0  0  0  0  0
  -21.9650   -6.9440   22.7170 C   0  0  0  0  0  0  0  0  0  0  0  0
  -21.6410   -7.6460   23.8980 C   0  0  0  0  0  3  0  0  0  0  0  0
  -21.4540   -6.9440   25.1050 C   0  0  0  0  0  3  0  0  0  0  0  0
  -21.5780   -5.5420   25.1320 C   0  0  0  0  0  0  0  0  0  0  0  0
  -21.8960   -4.8410   23.9560 C   0  0  0  0  0  3  0  0  0  0  0  0
  -22.0850   -5.5410   22.7510 C   0  0  0  0  0  0  0  0  0  0  0  0
  -22.3710   -4.8590   21.6150 F   0  0  0  0  0  0  0  0  0  0  0  0
  -21.3900   -4.8650   26.2900 F   0  0  0  0  0  0  0  0  0  0  0  0
  -23.8400  -14.0500   20.7980 C   0  0  0  0  0  0  0  0  0  0  0  0
  -23.1370  -13.5550   21.8090 N   0  0  0  0  0  0  0  0  0  0  0  0
  -23.4410  -15.0260   20.1670 O   0  0  0  0  0  0  0  0  0  0  0  0
  -23.4720  -12.7700   22.3470 H   0  0  0  0  0  0  0  0  0  0  0  0
  -22.2550  -13.9820   22.0580 H   0  0  0  0  0  0  0  0  0  0  0  0
  -26.5950  -15.3850   19.8090 N   0  0  0  0  0  0  0  0  0  0  0  0
  -25.9050  -16.1210   19.9120 H   0  0  0  0  0  0  0  0  0  0  0  0
  -27.4710  -15.7150   19.4250 H   0  0  0  0  0  0  0  0  0  0  0  0
  1  2  2  0
  3  4  1  0
  3  1  1  0
  4  6  1  0
  6  5  1  0
  6  9  1  0
  7  1  1  0
  7  5  1  0
  7 50  1  0
  7  8  1  6
  9 11  1  0
 10 21  2  0
 11 16  1  0
 12 20  1  0
 12 22  1  0
 13 19  1  0
 13 15  1  0
 14 20  1  0
 15 14  1  0
 16 15  2  0
 17 18  1  0
 17 11  2  0
 18 13  2  0
 19 12  1  0
 20 10  1  0
 22 24  2  0
 23 22  1  0
 25 23  1  0
 26 31  1  0
 27 23  1  0
 28 27  1  0
 29 30  1  0
 29 28  1  0
 30 26  1  0
 31 27  1  0
 31 32  2  0
 33 32  1  0
 34 33  2  0
 35 26  2  0
 35 34  1  0
 36 10  1  0
 36 41  1  0
 36 37  1  0
 37 40  1  1
 37 38  1  0
 39 37  1  0
 41 44  1  0
 42 46  1  0
 42 41  1  0
 43 42  2  0
 46 45  1  0
 48 46  1  0
 48 49  1  0
 48 47  1  0
 50 56  1  0
 51 52  1  0
 53 54  1  0
 53 56  2  0
 54 51  2  0
 55 52  2  0
 55 57  1  0
 56 55  1  0
 58 67  1  0
 58 54  1  0
 59 67  1  0
 59 65  1  0
 60 65  1  0
 61 62  1  0
 61 60  1  0
 63 62  1  0
 63 72  1  0
 63 64  1  0
 65 64  1  0
 66 59  2  0
 67 68  1  0
 69 70  2  0
 70 71  1  0
 70 89  1  0
 71 74  1  0
 72 69  1  0
 72 73  1  0
 73 71  2  0
 74 75  1  0
 75 76  2  0
 77 80  1  0
 77 76  1  0
 78 77  2  0
 79 78  1  0
 79 74  2  0
 80 81  1  0
 81 86  2  0
 81 82  1  0
 82 83  2  0
 83 84  1  0
 84 88  1  0
 85 84  2  0
 86 85  1  0
 87 86  1  0
 89 90  1  0
 90 93  1  0
 90 92  1  0
 91 89  2  0
 94 95  1  0
 94 69  1  0
 96 94  1  0
M  ISO  4   6 101   9 101  59 100  67 100
M  END
>  <TORSDO>  (24) 
F 19

>  <SCORE>  (24) 
-11.018

>  <name>  (24) 
23

>  <ligand_id>  (24) 
23

>  <original_smiles>  (24) 
[H]C([H])=C1C([H])([H])C([H])([H])C([H])(Oc2c([H])c([H])c3c(c2[H])C([H])([H])N(C(=O)C([H])(N([H])C(=O)C([H])(N([H])C([H])([H])[H])C([H])([H])[H])C(C([H])([H])[H])(C([H])([H])[H])C([H])([H])[H])C([H])(C(=O)N([H])C2([H])c4c([H])c([H])c([H])c([H])c4C([H])([H])C([H])([H])C2([H])[H])C3([H])[H])C([H])([H])[N+]1([H])C([H])([H])c1c([H])c(C([H])([H])N([H])C(=O)N2C([H])([H])C([H])([H])C([H])([H])C([H])(n3nc(-c4c([H])c([H])c(Oc5c([H])c([H])c(F)c([H])c5F)c([H])c4[H])c(C(=O)N([H])[H])c3N([H])[H])C2([H])[H])c([H])c([H])c1C([H])([H])[H]

>  <smiles>  (24) 
[H]C([H])=C1C([H])([H])C([H])([H])C([H])(Oc2c([H])c([H])c3c(c2[H])C([H])([H])N(C(=O)C([H])(N([H])C(=O)C([H])(N([H])C([H])([H])[H])C([H])([H])[H])C(C([H])([H])[H])(C([H])([H])[H])C([H])([H])[H])C([H])(C(=O)N([H])C2([H])c4c([H])c([H])c([H])c([H])c4C([H])([H])C([H])([H])C2([H])[H])C3([H])[H])C([H])([H])[N+]1([H])C([H])([H])c1c([H])c(C([H])([H])N([H])C(=O)N2C([H])([H])C([H])([H])C([H])([H])C([H])(n3nc(-c4c([H])c([H])c(Oc5c([H])c([H])c(F)c([H])c5F)c([H])c4[H])c(C(=O)N([H])[H])c3N([H])[H])C2([H])[H])c([H])c([H])c1C([H])([H])[H]

$$$$
24:0:0
     RDKit          3D

 95104  0  0  1  0  0  0  0  0999 V2000
  -28.0960  -21.5120   19.8820 C   0  0  0  0  0  0  0  0  0  0  0  0
  -27.7340  -23.0350   19.9670 C   0  0  0  0  0  2  0  0  0  0  0  0
  -29.9620  -23.4710   20.9950 C   0  0  0  0  0  2  0  0  0  0  0  0
  -30.1750  -21.9210   21.1460 C   0  0  0  0  0  2  0  0  0  0  0  0
  -28.4740  -23.8650   21.0430 C   0  0  0  0  0  3  0  0  0  0  0  0
  -29.2790  -21.0240   20.3650 N   0  0  0  0  0  0  0  0  0  0  0  0
  -27.2720  -20.7700   19.3360 O   0  0  0  0  0  0  0  0  0  0  0  0
  -31.1430  -18.6440   18.1450 C   0  0  0  0  0  3  0  0  0  0  0  0
  -29.6340  -18.4390   20.4780 C   0  0  0  0  0  3  0  0  0  0  0  0
  -30.9360  -17.3680   18.7060 C   0  0  0  0  0  0  0  0  0  0  0  0
  -29.8190  -19.7460   19.8780 C   0  0  0  0  0  0  0  0  0  0  0  0
  -30.2050  -17.2200   19.9290 C   0  0  0  0  0  0  0  0  0  0  0  0
  -30.6010  -19.8080   18.7010 C   0  0  0  0  0  0  0  0  0  0  0  0
  -31.4920  -16.2170   17.8780 C   0  0  0  0  0  1  0  0  0  0  0  0
  -30.8990  -21.3060   17.8810 Cl  0  0  0  0  0  0  0  0  0  0  0  0
  -30.7200  -14.7400   20.4970 C   0  0  0  0  0  0  0  0  0  0  0  0
  -30.5150  -12.4950   19.4740 C   0  0  0  0  0  2  0  0  0  0  0  0
  -29.5910  -12.5310   18.2360 C   0  0  0  0  0  2  0  0  0  0  0  0
  -28.1080  -12.4080   18.6340 C   0  0  0  0  0  2  0  0  0  0  0  0
  -27.7160  -13.3080   19.8360 C   0  0  0  0  0  3  0  0  0  0  0  0
  -28.7470  -13.2070   20.9790 C   0  0  0  0  0  2  0  0  0  0  0  0
  -30.0630  -13.5400   20.4160 N   0  0  0  0  0  0  0  0  0  0  0  0
  -31.9370  -14.7920   20.3200 O   0  0  0  0  0  0  0  0  0  0  0  0
  -29.9580  -15.8920   20.5360 N   0  0  0  0  0  0  0  0  0  0  0  0
  -29.0340  -15.7650   20.9210 H   0  0  0  0  0  0  0  0  0  0  0  0
  -25.3030  -13.9030   20.4890 C   0  0  0  0  0  0  0  0  0  0  0  0
  -24.2300  -13.1280   20.8370 C   0  0  0  0  0  0  0  0  0  0  0  0
  -24.6990  -11.7780   20.8400 C   0  0  0  0  0  0  0  0  0  0  0  0
  -26.3580  -13.0260   20.2960 N   0  0  0  0  0  0  0  0  0  0  0  0
  -26.0000  -11.7430   20.5740 N   0  0  0  0  0  0  0  0  0  0  0  0
  -23.9740  -10.5140   21.0250 C   0  0  0  0  0  0  0  0  0  0  0  0
  -24.3880   -9.5580   21.9780 C   0  0  0  0  0  3  0  0  0  0  0  0
  -23.6640   -8.3590   22.1520 C   0  0  0  0  0  3  0  0  0  0  0  0
  -22.5110   -8.1060   21.3710 C   0  0  0  0  0  0  0  0  0  0  0  0
  -22.1170   -9.0500   20.4050 C   0  0  0  0  0  3  0  0  0  0  0  0
  -22.8410  -10.2400   20.2310 C   0  0  0  0  0  3  0  0  0  0  0  0
  -21.7630   -6.9580   21.4520 O   0  0  0  0  0  0  0  0  0  0  0  0
  -21.6890   -6.2260   22.6100 C   0  0  0  0  0  0  0  0  0  0  0  0
  -21.2270   -6.7900   23.8190 C   0  0  0  0  0  3  0  0  0  0  0  0
  -21.1020   -5.9860   24.9690 C   0  0  0  0  0  3  0  0  0  0  0  0
  -21.4290   -4.6170   24.9110 C   0  0  0  0  0  0  0  0  0  0  0  0
  -21.8850   -4.0520   23.7070 C   0  0  0  0  0  3  0  0  0  0  0  0
  -22.0110   -4.8550   22.5590 C   0  0  0  0  0  0  0  0  0  0  0  0
  -22.4310   -4.3010   21.3950 F   0  0  0  0  0  0  0  0  0  0  0  0
  -21.3000   -3.8410   26.0130 F   0  0  0  0  0  0  0  0  0  0  0  0
  -22.8200  -13.5970   21.0530 C   0  0  0  0  0  0  0  0  0  0  0  0
  -22.0690  -12.9130   21.9080 N   0  0  0  0  0  0  0  0  0  0  0  0
  -22.3920  -14.6070   20.4960 O   0  0  0  0  0  0  0  0  0  0  0  0
  -22.4260  -12.1000   22.3870 H   0  0  0  0  0  0  0  0  0  0  0  0
  -21.1190  -13.2090   22.0860 H   0  0  0  0  0  0  0  0  0  0  0  0
  -25.4670  -15.2720   20.2920 N   0  0  0  0  0  0  0  0  0  0  0  0
  -24.6940  -15.9230   20.3720 H   0  0  0  0  0  0  0  0  0  0  0  0
  -26.3140  -15.7040   19.9410 H   0  0  0  0  0  0  0  0  0  0  0  0
  -28.0750  -25.4070   21.2360 C   0  0  0  0  0  2  0  0  0  0  0  0
  -28.2380  -26.4910   20.2530 O   0  0  0  0  0  0  0  0  0  0  0  0
  -24.5640  -31.9190   23.2450 C   0  0  0  0  0  0  0  0  0  0  0  0
  -27.1570  -27.3730   20.2010 C   0  0  0  0  0  0  0  0  0  0  0  0
  -23.3490  -30.5180   21.6120 C   0  0  0  0  0  3  0  0  0  0  0  0
  -24.7940  -28.9640   20.1810 C   0  0  0  0  0  0  0  0  0  0  0  0
  -25.8830  -30.8440   21.4110 C   0  0  0  0  0  2  0  0  0  0  0  0
  -25.9630  -29.4630   20.7730 C   0  0  0  0  0  0  0  0  0  0  0  0
  -27.1520  -28.6780   20.7780 C   0  0  0  0  0  3  0  0  0  0  0  0
  -25.9760  -26.9180   19.5850 C   0  0  0  0  0  3  0  0  0  0  0  0
  -24.8010  -27.6950   19.5780 C   0  0  0  0  0  3  0  0  0  0  0  0
  -23.5570  -29.8370   20.2310 C   0  0  0  0  0  2  0  0  0  0  0  0
  -24.6170  -31.1090   22.1470 N   0  0  0  0  0  0  0  0  0  0  0  0
  -23.4850  -32.1980   23.7870 O   0  0  0  0  0  0  0  0  0  0  0  0
  -22.6900  -29.5060   22.5770 C   0  0  0  0  0  0  0  0  0  0  0  0
  -21.3630  -29.3300   22.4570 N   0  0  0  0  0  0  0  0  0  0  0  0
  -23.3700  -28.8820   23.3970 O   0  0  0  0  0  0  0  0  0  0  0  0
  -20.8720  -29.8840   21.7680 H   0  0  0  0  0  0  0  0  0  0  0  0
  -17.9880  -28.1390   22.9700 C   0  0  0  0  0  0  0  0  0  0  0  0
  -20.5460  -28.3980   23.2350 C   0  0  0  0  0  3  0  0  0  0  0  0
  -20.6460  -26.9640   22.6660 C   0  0  0  0  0  2  0  0  0  0  0  0
  -19.5420  -26.6370   21.6550 C   0  0  0  0  0  2  0  0  0  0  0  0
  -18.1610  -26.7860   22.3010 C   0  0  0  0  0  2  0  0  0  0  0  0
  -19.1080  -28.9030   23.3930 C   0  0  0  0  0  0  0  0  0  0  0  0
  -18.8910  -30.1690   23.9800 C   0  0  0  0  0  3  0  0  0  0  0  0
  -17.5870  -30.6720   24.1470 C   0  0  0  0  0  3  0  0  0  0  0  0
  -16.4820  -29.9070   23.7370 C   0  0  0  0  0  3  0  0  0  0  0  0
  -16.6820  -28.6420   23.1550 C   0  0  0  0  0  3  0  0  0  0  0  0
  -25.8540  -32.5490   23.8590 C   0  0  0  0  0  3  0  0  0  0  0  0
  -25.5510  -33.9500   24.1820 N   0  0  0  0  0  0  0  0  0  0  0  0
  -25.8980  -34.9970   23.4210 C   0  0  0  0  0  0  0  0  0  0  0  0
  -26.5740  -34.8850   22.3940 O   0  0  0  0  0  0  0  0  0  0  0  0
  -24.9550  -34.1130   24.9800 H   0  0  0  0  0  0  0  0  0  0  0  0
  -24.1980  -36.8110   23.0350 C   0  0  0  0  0  1  0  0  0  0  0  0
  -25.4200  -36.3920   23.8690 C   0  0  0  0  0  3  0  0  0  0  0  0
  -27.5490  -37.2520   24.7380 C   0  0  0  0  0  1  0  0  0  0  0  0
  -26.4670  -37.4330   23.7740 N   0  0  0  0  0  0  0  0  0  0  0  0
  -26.0690  -38.3580   23.9120 H   0  0  0  0  0  0  0  0  0  0  0  0
  -26.3710  -31.7820   25.1380 C   0  0  1  0  0  0  0  0  0  0  0  0
  -25.2820  -31.5590   26.2120 C   0  0  0  0  0  1  0  0  0  0  0  0
  -26.9440  -30.3980   24.7530 C   0  0  0  0  0  1  0  0  0  0  0  0
  -27.5270  -32.5740   25.7910 C   0  0  0  0  0  1  0  0  0  0  0  0
  1  2  1  0
  1  6  1  0
  2  5  1  0
  3  5  1  0
  3  4  1  0
  5 54  1  0
  6  4  1  0
  7  1  2  0
  8 13  2  0
  8 10  1  0
 10 12  2  0
 11  6  1  0
 11  9  2  0
 12  9  1  0
 12 24  1  0
 13 11  1  0
 14 10  1  0
 15 13  1  0
 16 24  1  0
 17 22  1  0
 18 19  1  0
 18 17  1  0
 20 19  1  0
 20 29  1  0
 20 21  1  0
 22 16  1  0
 22 21  1  0
 23 16  2  0
 24 25  1  0
 26 27  2  0
 27 28  1  0
 27 46  1  0
 28 31  1  0
 29 26  1  0
 29 30  1  0
 30 28  2  0
 31 32  1  0
 32 33  2  0
 34 37  1  0
 34 33  1  0
 35 34  2  0
 36 35  1  0
 36 31  2  0
 37 38  1  0
 38 39  1  0
 39 40  2  0
 41 40  1  0
 41 45  1  0
 42 41  2  0
 43 38  2  0
 43 42  1  0
 44 43  1  0
 46 47  1  0
 47 50  1  0
 47 49  1  0
 48 46  2  0
 51 52  1  0
 51 26  1  0
 53 51  1  0
 55 54  1  0
 56 67  2  0
 57 55  1  0
 57 62  1  0
 58 66  1  0
 58 68  1  0
 59 65  1  0
 59 61  1  0
 60 66  1  0
 61 62  2  0
 61 60  1  0
 63 57  2  0
 64 63  1  0
 64 59  2  0
 65 58  1  0
 66 56  1  0
 68 70  2  0
 69 68  1  0
 71 69  1  0
 72 81  2  0
 72 77  1  0
 73 69  1  0
 73 77  1  0
 74 73  1  0
 75 76  1  0
 75 74  1  0
 76 72  1  0
 77 78  2  0
 78 79  1  0
 80 79  2  0
 81 80  1  0
 82 56  1  0
 82 83  1  0
 82 92  1  0
 83 86  1  0
 84 88  1  0
 84 83  1  0
 85 84  2  0
 88 87  1  0
 90 88  1  0
 90 91  1  0
 90 89  1  0
 92 95  1  1
 92 93  1  0
 94 92  1  0
M  ISO  4  16 100  24 100  54 101  55 101
M  END
>  <TORSDO>  (25) 
F 18

>  <SCORE>  (25) 
-14.773

>  <name>  (25) 
24

>  <ligand_id>  (25) 
24

>  <original_smiles>  (25) 
[H]c1c([H])c([H])c2c(c1[H])C([H])([H])C([H])([H])C([H])([H])C2([H])N([H])C(=O)C1([H])N(C(=O)C([H])(N([H])C(=O)C([H])(N([H])C([H])([H])[H])C([H])([H])[H])C(C([H])([H])[H])(C([H])([H])[H])C([H])([H])[H])C([H])([H])c2c([H])c(OC([H])([H])C3([H])C([H])([H])C(=O)N(c4c([H])c(N([H])C(=O)N5C([H])([H])C([H])([H])C([H])([H])C([H])(n6nc(-c7c([H])c([H])c(Oc8c([H])c([H])c(F)c([H])c8F)c([H])c7[H])c(C(=O)N([H])[H])c6N([H])[H])C5([H])[H])c(C([H])([H])[H])c([H])c4Cl)C([H])([H])C3([H])[H])c([H])c([H])c2C1([H])[H]

>  <smiles>  (25) 
[H]c1c([H])c([H])c2c(c1[H])C([H])([H])C([H])([H])C([H])([H])C2([H])N([H])C(=O)C1([H])N(C(=O)C([H])(N([H])C(=O)C([H])(N([H])C([H])([H])[H])C([H])([H])[H])C(C([H])([H])[H])(C([H])([H])[H])C([H])([H])[H])C([H])([H])c2c([H])c(OC([H])([H])C3([H])C([H])([H])C(=O)N(c4c([H])c(N([H])C(=O)N5C([H])([H])C([H])([H])C([H])([H])C([H])(n6nc(-c7c([H])c([H])c(Oc8c([H])c([H])c(F)c([H])c8F)c([H])c7[H])c(C(=O)N([H])[H])c6N([H])[H])C5([H])[H])c(C([H])([H])[H])c([H])c4Cl)C([H])([H])C3([H])[H])c([H])c([H])c2C1([H])[H]

$$$$
25:0:0
     RDKit          3D

 98105  0  0  1  0  0  0  0  0999 V2000
  -29.2250  -20.3200   18.0480 C   0  0  0  0  0  0  0  0  0  0  0  0
  -28.4050  -20.0070   17.0160 C   0  0  0  0  0  3  0  0  0  0  0  0
  -29.5790  -21.9180   18.3200 C   0  0  0  0  0  2  0  0  0  0  0  0
  -28.6660  -21.4680   20.4210 C   0  0  0  0  0  2  0  0  0  0  0  0
  -29.4990  -19.9960   20.3730 C   0  0  0  0  0  2  0  0  0  0  0  0
  -29.1500  -22.8250   19.6510 C   0  0  1  0  0  0  0  0  0  0  0  0
  -30.4380  -23.3140   20.3400 C   0  0  0  0  0  1  0  0  0  0  0  0
  -29.7960  -19.2070   19.0550 N   0  0  1  0  0  4  0  0  0  0  0  0
  -30.8000  -19.2370   18.9830 H   0  0  0  0  0  0  0  0  0  0  0  0
  -28.2440  -17.9700   15.6330 C   0  0  0  0  0  2  0  0  0  0  0  0
  -27.8400  -18.7170   16.6710 C   0  0  0  0  0  3  0  0  0  0  0  0
  -29.5060  -17.5400   19.0140 C   0  0  0  0  0  2  0  0  0  0  0  0
  -31.7050  -13.7780   17.5910 C   0  0  0  0  0  3  0  0  0  0  0  0
  -31.0730  -12.4430   18.2730 C   0  0  0  0  0  3  0  0  0  0  0  0
  -31.3260  -15.3260   17.9090 C   0  0  0  0  0  3  0  0  0  0  0  0
  -29.9610  -12.6650   19.4710 C   0  0  0  0  0  1  0  0  0  0  0  0
  -30.2720  -15.9220   18.9480 C   0  0  0  0  0  0  0  0  0  0  0  0
  -29.6060  -14.7600   19.8400 C   0  0  0  0  0  2  0  0  0  0  0  0
  -30.7500  -14.9570   21.7830 C   0  0  0  0  0  0  0  0  0  0  0  0
  -31.6560  -13.9640   20.0020 C   0  0  0  0  0  1  0  0  0  0  0  0
  -29.2960  -13.9220   17.8160 C   0  0  0  0  0  1  0  0  0  0  0  0
  -27.8160  -13.3210   18.7200 C   0  0  0  0  0  2  0  0  0  0  0  0
  -27.7630  -13.3130   20.5180 C   0  0  0  0  0  3  0  0  0  0  0  0
  -29.1180  -13.0940   21.7530 C   0  0  0  0  0  2  0  0  0  0  0  0
  -30.7590  -13.6790   21.5220 N   0  0  0  0  0  0  0  0  0  0  0  0
  -31.7720  -15.6360   21.8730 O   0  0  0  0  0  0  0  0  0  0  0  0
  -29.6880  -15.4130   21.1310 N   0  0  0  0  0  0  0  0  0  0  0  0
  -29.5900  -16.4120   21.1670 H   0  0  0  0  0  0  0  0  0  0  0  0
  -25.3720  -13.9450   20.8140 C   0  0  0  0  0  0  0  0  0  0  0  0
  -24.2810  -13.1710   21.0120 C   0  0  0  0  0  0  0  0  0  0  0  0
  -24.7640  -11.8280   21.0740 C   0  0  0  0  0  0  0  0  0  0  0  0
  -26.4330  -13.0440   20.8450 N   0  0  0  0  0  0  0  0  0  0  0  0
  -26.0780  -11.7680   20.9860 N   0  0  0  0  0  0  0  0  0  0  0  0
  -24.0520  -10.5700   21.1670 C   0  0  0  0  0  0  0  0  0  0  0  0
  -24.4270   -9.6010   22.1200 C   0  0  0  0  0  3  0  0  0  0  0  0
  -23.7110   -8.3940   22.2120 C   0  0  0  0  0  3  0  0  0  0  0  0
  -22.6140   -8.1600   21.3480 C   0  0  0  0  0  0  0  0  0  0  0  0
  -22.2690   -9.1200   20.3810 C   0  0  0  0  0  3  0  0  0  0  0  0
  -22.9880  -10.3200   20.2850 C   0  0  0  0  0  3  0  0  0  0  0  0
  -21.8670   -7.0110   21.3580 O   0  0  0  0  0  0  0  0  0  0  0  0
  -21.7660   -6.2400   22.4850 C   0  0  0  0  0  0  0  0  0  0  0  0
  -21.2790   -6.7580   23.7050 C   0  0  0  0  0  3  0  0  0  0  0  0
  -21.1290   -5.9090   24.8170 C   0  0  0  0  0  3  0  0  0  0  0  0
  -21.4540   -4.5440   24.7110 C   0  0  0  0  0  0  0  0  0  0  0  0
  -21.9350   -4.0260   23.4960 C   0  0  0  0  0  3  0  0  0  0  0  0
  -22.0910   -4.8720   22.3840 C   0  0  0  0  0  0  0  0  0  0  0  0
  -22.5370   -4.3690   21.2090 F   0  0  0  0  0  0  0  0  0  0  0  0
  -21.2980   -3.7230   25.7760 F   0  0  0  0  0  0  0  0  0  0  0  0
  -22.8670  -13.6510   21.0520 C   0  0  0  0  0  0  0  0  0  0  0  0
  -22.0330  -12.9840   21.8350 N   0  0  0  0  0  0  0  0  0  0  0  0
  -22.5110  -14.6580   20.4370 O   0  0  0  0  0  0  0  0  0  0  0  0
  -22.3410  -12.1710   22.3480 H   0  0  0  0  0  0  0  0  0  0  0  0
  -21.0720  -13.2830   21.9220 H   0  0  0  0  0  0  0  0  0  0  0  0
  -25.5320  -15.3190   20.5940 N   0  0  0  0  0  0  0  0  0  0  0  0
  -24.7390  -15.9470   20.5250 H   0  0  0  0  0  0  0  0  0  0  0  0
  -26.4220  -15.7760   20.4440 H   0  0  0  0  0  0  0  0  0  0  0  0
  -28.1850  -24.3720   19.5880 C   0  0  0  0  0  2  0  0  0  0  0  0
  -28.3860  -25.9720   19.9940 O   0  0  0  0  0  0  0  0  0  0  0  0
  -24.7380  -31.9100   23.1830 C   0  0  0  0  0  0  0  0  0  0  0  0
  -27.3490  -27.0530   20.0520 C   0  0  0  0  0  0  0  0  0  0  0  0
  -23.5500  -30.4760   21.5790 C   0  0  0  0  0  3  0  0  0  0  0  0
  -25.0030  -28.8850   20.1430 C   0  0  0  0  0  0  0  0  0  0  0  0
  -26.1170  -30.7170   21.3980 C   0  0  0  0  0  2  0  0  0  0  0  0
  -26.2010  -29.3070   20.7320 C   0  0  0  0  0  0  0  0  0  0  0  0
  -27.3660  -28.4090   20.6690 C   0  0  0  0  0  3  0  0  0  0  0  0
  -26.1000  -26.7800   19.4580 C   0  0  0  0  0  3  0  0  0  0  0  0
  -24.9740  -27.6400   19.5000 C   0  0  0  0  0  3  0  0  0  0  0  0
  -23.7700  -29.7880   20.2080 C   0  0  0  0  0  2  0  0  0  0  0  0
  -24.8250  -31.0620   22.1060 N   0  0  0  0  0  0  0  0  0  0  0  0
  -23.6480  -32.1860   23.7110 O   0  0  0  0  0  0  0  0  0  0  0  0
  -22.8840  -29.4780   22.5620 C   0  0  0  0  0  0  0  0  0  0  0  0
  -21.5550  -29.2960   22.4620 N   0  0  0  0  0  0  0  0  0  0  0  0
  -23.5720  -28.8670   23.3840 O   0  0  0  0  0  0  0  0  0  0  0  0
  -21.0520  -29.8410   21.7740 H   0  0  0  0  0  0  0  0  0  0  0  0
  -18.2000  -28.0220   23.0120 C   0  0  0  0  0  0  0  0  0  0  0  0
  -20.7560  -28.3540   23.2530 C   0  0  0  0  0  3  0  0  0  0  0  0
  -20.8870  -26.9150   22.7010 C   0  0  0  0  0  2  0  0  0  0  0  0
  -19.7860  -26.5490   21.7010 C   0  0  0  0  0  2  0  0  0  0  0  0
  -18.4060  -26.6690   22.3540 C   0  0  0  0  0  2  0  0  0  0  0  0
  -19.3030  -28.8190   23.4200 C   0  0  0  0  0  0  0  0  0  0  0  0
  -19.0550  -30.0830   24.0000 C   0  0  0  0  0  3  0  0  0  0  0  0
  -17.7380  -30.5480   24.1750 C   0  0  0  0  0  3  0  0  0  0  0  0
  -16.6510  -29.7490   23.7820 C   0  0  0  0  0  3  0  0  0  0  0  0
  -16.8830  -28.4870   23.2060 C   0  0  0  0  0  3  0  0  0  0  0  0
  -26.0000  -32.5880   23.7950 C   0  0  0  0  0  3  0  0  0  0  0  0
  -26.5290  -31.8530   25.0880 C   0  0  1  0  0  0  0  0  0  0  0  0
  -25.4440  -31.6260   26.1680 C   0  0  0  0  0  1  0  0  0  0  0  0
  -27.1260  -30.4720   24.7340 C   0  0  0  0  0  1  0  0  0  0  0  0
  -27.6750  -32.6740   25.7260 C   0  0  0  0  0  1  0  0  0  0  0  0
  -25.6550  -33.9850   24.1160 N   0  0  0  0  0  0  0  0  0  0  0  0
  -26.0120  -35.0520   23.3880 C   0  0  0  0  0  0  0  0  0  0  0  0
  -26.7250  -34.9640   22.3870 O   0  0  0  0  0  0  0  0  0  0  0  0
  -25.0240  -34.1270   24.8910 H   0  0  0  0  0  0  0  0  0  0  0  0
  -24.2950  -36.8500   22.9810 C   0  0  0  0  0  1  0  0  0  0  0  0
  -25.4980  -36.4360   23.8420 C   0  0  0  0  0  3  0  0  0  0  0  0
  -27.5950  -37.3150   24.7740 C   0  0  0  0  0  1  0  0  0  0  0  0
  -26.5310  -37.4960   23.7910 N   0  0  0  0  0  0  0  0  0  0  0  0
  -26.1150  -38.4120   23.9380 H   0  0  0  0  0  0  0  0  0  0  0  0
  1  3  1  0
  1  8  1  0
  2  1  2  0
  3  6  1  0
  5  4  1  0
  6  7  1  1
  6  4  1  0
  8  5  1  0
  8  9  1  6
 10 11  2  0
 11  2  1  0
 12  8  1  0
 13 15  1  0
 13 14  2  0
 14 16  1  0
 15 17  2  0
 17 12  1  0
 17 18  1  0
 18 27  1  0
 19 26  2  0
 20 25  1  0
 21 22  1  0
 23 22  1  0
 23 32  1  0
 23 24  1  0
 25 24  1  0
 25 19  1  0
 27 28  1  0
 27 19  1  0
 29 32  1  0
 29 30  2  0
 30 49  1  0
 30 31  1  0
 31 34  1  0
 32 33  1  0
 33 31  2  0
 34 35  1  0
 35 36  2  0
 37 40  1  0
 37 36  1  0
 38 37  2  0
 39 38  1  0
 39 34  2  0
 40 41  1  0
 41 42  1  0
 42 43  2  0
 44 43  1  0
 44 48  1  0
 45 44  2  0
 46 41  2  0
 46 45  1  0
 47 46  1  0
 49 50  1  0
 50 53  1  0
 50 52  1  0
 51 49  2  0
 54 29  1  0
 55 54  1  0
 56 54  1  0
 57  6  1  0
 57 58  1  0
 58 60  1  0
 59 70  2  0
 60 65  1  0
 61 69  1  0
 61 71  1  0
 62 68  1  0
 62 64  1  0
 63 69  1  0
 64 63  1  0
 65 64  2  0
 66 67  1  0
 66 60  2  0
 67 62  2  0
 68 61  1  0
 69 59  1  0
 71 73  2  0
 72 71  1  0
 74 72  1  0
 75 84  2  0
 75 80  1  0
 76 72  1  0
 76 80  1  0
 77 76  1  0
 78 79  1  0
 78 77  1  0
 79 75  1  0
 80 81  2  0
 81 82  1  0
 83 82  2  0
 84 83  1  0
 85 59  1  0
 85 90  1  0
 85 86  1  0
 86 89  1  1
 86 87  1  0
 88 86  1  0
 90 93  1  0
 91 95  1  0
 91 90  1  0
 92 91  2  0
 95 94  1  0
 97 95  1  0
 97 98  1  0
 97 96  1  0
M  ISO  4  19 100  27 100  57 101  58 101
M  END
>  <TORSDO>  (26) 
F 20

>  <SCORE>  (26) 
-12.964

>  <name>  (26) 
25

>  <ligand_id>  (26) 
25

>  <original_smiles>  (26) 
[H]C([H])=C([H])C([H])=C1C([H])([H])C(C([H])([H])[H])(C([H])([H])Oc2c([H])c([H])c3c(c2[H])C([H])([H])N(C(=O)C([H])(N([H])C(=O)C([H])(N([H])C([H])([H])[H])C([H])([H])[H])C(C([H])([H])[H])(C([H])([H])[H])C([H])([H])[H])C([H])(C(=O)N([H])C2([H])c4c([H])c([H])c([H])c([H])c4C([H])([H])C([H])([H])C2([H])[H])C3([H])[H])C([H])([H])C([H])([H])[N+]1([H])C([H])([H])c1c([H])c([H])c([H])c([H])c1N([H])C(=O)N1C([H])([H])C([H])([H])C([H])([H])C([H])(n2nc(-c3c([H])c([H])c(Oc4c([H])c([H])c(F)c([H])c4F)c([H])c3[H])c(C(=O)N([H])[H])c2N([H])[H])C1([H])[H]

>  <smiles>  (26) 
[H]C([H])=C([H])C([H])=C1C([H])([H])C(C([H])([H])[H])(C([H])([H])Oc2c([H])c([H])c3c(c2[H])C([H])([H])N(C(=O)C([H])(N([H])C(=O)C([H])(N([H])C([H])([H])[H])C([H])([H])[H])C(C([H])([H])[H])(C([H])([H])[H])C([H])([H])[H])C([H])(C(=O)N([H])C2([H])c4c([H])c([H])c([H])c([H])c4C([H])([H])C([H])([H])C2([H])[H])C3([H])[H])C([H])([H])C([H])([H])[N+]1([H])C([H])([H])c1c([H])c([H])c([H])c([H])c1N([H])C(=O)N1C([H])([H])C([H])([H])C([H])([H])C([H])(n2nc(-c3c([H])c([H])c(Oc4c([H])c([H])c(F)c([H])c4F)c([H])c3[H])c(C(=O)N([H])[H])c2N([H])[H])C1([H])[H]

$$$$
26:0:0
     RDKit          3D

 94102  0  0  1  0  0  0  0  0999 V2000
  -28.9510  -20.8290   19.0580 C   0  0  0  0  0  0  0  0  0  0  0  0
  -28.2940  -20.7250   17.5110 S   0  0  0  0  0  0  0  0  0  0  0  0
  -28.3460  -18.7490   20.3280 C   0  0  0  0  0  3  0  0  0  0  0  0
  -28.5960  -17.4260   20.7550 C   0  0  0  0  0  3  0  0  0  0  0  0
  -30.8870  -17.6180   19.9980 C   0  0  0  0  0  3  0  0  0  0  0  0
  -29.3450  -19.5280   19.6950 C   0  0  0  0  0  0  0  0  0  0  0  0
  -30.6470  -18.9550   19.5820 C   0  0  0  0  0  0  0  0  0  0  0  0
  -29.8530  -16.8180   20.5450 C   0  0  0  0  0  0  0  0  0  0  0  0
  -31.7970  -19.7350   18.9620 C   0  0  0  0  0  1  0  0  0  0  0  0
  -30.6770  -14.4660   20.2430 C   0  0  0  0  0  0  0  0  0  0  0  0
  -30.3630  -12.3240   19.0530 C   0  0  0  0  0  2  0  0  0  0  0  0
  -29.3820  -12.5640   17.8830 C   0  0  0  0  0  2  0  0  0  0  0  0
  -27.9180  -12.4220   18.3510 C   0  0  0  0  0  2  0  0  0  0  0  0
  -27.6250  -13.2220   19.6490 C   0  0  0  0  0  3  0  0  0  0  0  0
  -28.7110  -12.9530   20.7160 C   0  0  0  0  0  2  0  0  0  0  0  0
  -30.0230  -13.2760   20.1250 N   0  0  0  0  0  0  0  0  0  0  0  0
  -31.7790  -14.6690   19.7260 O   0  0  0  0  0  0  0  0  0  0  0  0
  -29.9850  -15.4300   20.8910 N   0  0  0  0  0  0  0  0  0  0  0  0
  -29.1920  -15.0490   21.3850 H   0  0  0  0  0  0  0  0  0  0  0  0
  -25.2450  -13.8250   20.4250 C   0  0  0  0  0  0  0  0  0  0  0  0
  -24.1880  -13.0510   20.8210 C   0  0  0  0  0  0  0  0  0  0  0  0
  -24.6480  -11.6990   20.7700 C   0  0  0  0  0  0  0  0  0  0  0  0
  -26.2830  -12.9450   20.1600 N   0  0  0  0  0  0  0  0  0  0  0  0
  -25.9280  -11.6610   20.4250 N   0  0  0  0  0  0  0  0  0  0  0  0
  -23.9270  -10.4350   20.9750 C   0  0  0  0  0  0  0  0  0  0  0  0
  -24.3760   -9.4710   21.9030 C   0  0  0  0  0  3  0  0  0  0  0  0
  -23.6550   -8.2720   22.0930 C   0  0  0  0  0  3  0  0  0  0  0  0
  -22.4720   -8.0300   21.3570 C   0  0  0  0  0  0  0  0  0  0  0  0
  -22.0420   -8.9840   20.4170 C   0  0  0  0  0  3  0  0  0  0  0  0
  -22.7630  -10.1740   20.2240 C   0  0  0  0  0  3  0  0  0  0  0  0
  -21.7210   -6.8830   21.4580 O   0  0  0  0  0  0  0  0  0  0  0  0
  -21.6800   -6.1490   22.6160 C   0  0  0  0  0  0  0  0  0  0  0  0
  -21.2470   -6.7100   23.8380 C   0  0  0  0  0  3  0  0  0  0  0  0
  -21.1530   -5.9030   24.9890 C   0  0  0  0  0  3  0  0  0  0  0  0
  -21.4810   -4.5360   24.9190 C   0  0  0  0  0  0  0  0  0  0  0  0
  -21.9070   -3.9740   23.7030 C   0  0  0  0  0  3  0  0  0  0  0  0
  -22.0020   -4.7790   22.5540 C   0  0  0  0  0  0  0  0  0  0  0  0
  -22.3930   -4.2280   21.3790 F   0  0  0  0  0  0  0  0  0  0  0  0
  -21.3830   -3.7580   26.0230 F   0  0  0  0  0  0  0  0  0  0  0  0
  -22.7980  -13.5260   21.1360 C   0  0  0  0  0  0  0  0  0  0  0  0
  -22.0920  -12.8260   22.0160 N   0  0  0  0  0  0  0  0  0  0  0  0
  -22.3470  -14.5550   20.6340 O   0  0  0  0  0  0  0  0  0  0  0  0
  -22.4690  -11.9940   22.4470 H   0  0  0  0  0  0  0  0  0  0  0  0
  -21.1610  -13.1280   22.2660 H   0  0  0  0  0  0  0  0  0  0  0  0
  -25.4030  -15.1970   20.2480 N   0  0  0  0  0  0  0  0  0  0  0  0
  -24.6310  -15.8440   20.3660 H   0  0  0  0  0  0  0  0  0  0  0  0
  -26.2310  -15.6320   19.8620 H   0  0  0  0  0  0  0  0  0  0  0  0
  -28.8980  -23.2620   19.5940 C   0  0  0  0  0  0  0  0  0  0  0  0
  -29.1800  -21.9460   19.8230 N   0  0  0  0  0  0  0  0  0  0  0  0
  -28.3030  -23.7060   18.6060 O   0  0  0  0  0  0  0  0  0  0  0  0
  -29.6280  -21.7540   20.7050 H   0  0  0  0  0  0  0  0  0  0  0  0
  -29.3670  -24.2850   20.6520 C   0  0  0  0  0  2  0  0  0  0  0  0
  -28.3550  -25.4210   21.0030 C   0  0  0  0  0  2  0  0  0  0  0  0
  -28.4320  -26.6240   20.2070 O   0  0  0  0  0  0  0  0  0  0  0  0
  -24.5780  -31.8480   23.2110 C   0  0  0  0  0  0  0  0  0  0  0  0
  -27.2770  -27.3820   20.2010 C   0  0  0  0  0  0  0  0  0  0  0  0
  -23.3970  -30.4290   21.5650 C   0  0  0  0  0  3  0  0  0  0  0  0
  -24.8740  -28.8830   20.1720 C   0  0  0  0  0  0  0  0  0  0  0  0
  -25.9250  -30.7960   21.3920 C   0  0  0  0  0  2  0  0  0  0  0  0
  -26.0250  -29.4170   20.7660 C   0  0  0  0  0  0  0  0  0  0  0  0
  -27.2330  -28.6760   20.7740 C   0  0  0  0  0  3  0  0  0  0  0  0
  -26.1080  -26.8630   19.6040 C   0  0  0  0  0  3  0  0  0  0  0  0
  -24.9110  -27.6040   19.5880 C   0  0  0  0  0  3  0  0  0  0  0  0
  -23.6240  -29.7370   20.1940 C   0  0  0  0  0  2  0  0  0  0  0  0
  -24.6510  -31.0420   22.1150 N   0  0  0  0  0  0  0  0  0  0  0  0
  -23.4890  -32.1180   23.7370 O   0  0  0  0  0  0  0  0  0  0  0  0
  -22.7370  -29.4150   22.5280 C   0  0  0  0  0  0  0  0  0  0  0  0
  -21.4110  -29.2430   22.4020 N   0  0  0  0  0  0  0  0  0  0  0  0
  -23.4160  -28.7850   23.3440 O   0  0  0  0  0  0  0  0  0  0  0  0
  -20.9240  -29.8010   21.7140 H   0  0  0  0  0  0  0  0  0  0  0  0
  -18.0260  -28.0970   22.9310 C   0  0  0  0  0  0  0  0  0  0  0  0
  -20.5900  -28.3110   23.1740 C   0  0  0  0  0  3  0  0  0  0  0  0
  -20.6630  -26.8840   22.5830 C   0  0  0  0  0  2  0  0  0  0  0  0
  -19.5450  -26.5890   21.5800 C   0  0  0  0  0  2  0  0  0  0  0  0
  -18.1730  -26.7520   22.2410 C   0  0  0  0  0  2  0  0  0  0  0  0
  -19.1620  -28.8360   23.3560 C   0  0  0  0  0  0  0  0  0  0  0  0
  -18.9710  -30.0980   23.9600 C   0  0  0  0  0  3  0  0  0  0  0  0
  -17.6760  -30.6190   24.1460 C   0  0  0  0  0  3  0  0  0  0  0  0
  -16.5550  -29.8760   23.7370 C   0  0  0  0  0  3  0  0  0  0  0  0
  -16.7310  -28.6180   23.1350 C   0  0  0  0  0  3  0  0  0  0  0  0
  -25.8550  -32.4890   23.8420 C   0  0  0  0  0  3  0  0  0  0  0  0
  -26.3750  -31.7190   25.1170 C   0  0  1  0  0  0  0  0  0  0  0  0
  -25.2820  -31.4680   26.1800 C   0  0  0  0  0  1  0  0  0  0  0  0
  -26.9730  -30.3490   24.7200 C   0  0  0  0  0  1  0  0  0  0  0  0
  -27.5150  -32.5220   25.7870 C   0  0  0  0  0  1  0  0  0  0  0  0
  -25.5330  -33.8840   24.1720 N   0  0  0  0  0  0  0  0  0  0  0  0
  -25.8600  -34.9400   23.4150 C   0  0  0  0  0  0  0  0  0  0  0  0
  -26.5380  -34.8420   22.3870 O   0  0  0  0  0  0  0  0  0  0  0  0
  -24.9370  -34.0360   24.9730 H   0  0  0  0  0  0  0  0  0  0  0  0
  -24.1230  -36.7180   23.0500 C   0  0  0  0  0  1  0  0  0  0  0  0
  -25.3590  -36.3230   23.8720 C   0  0  0  0  0  3  0  0  0  0  0  0
  -27.4780  -37.2210   24.7260 C   0  0  0  0  0  1  0  0  0  0  0  0
  -26.3840  -37.3830   23.7710 N   0  0  0  0  0  0  0  0  0  0  0  0
  -25.9700  -38.2990   23.9170 H   0  0  0  0  0  0  0  0  0  0  0  0
  1  6  1  0
  1 49  1  0
  2  1  2  0
  3  4  1  0
  5  8  1  0
  6  3  2  0
  7  6  1  0
  7  5  2  0
  8  4  2  0
  8 18  1  0
  9  7  1  0
 10 18  1  0
 11 16  1  0
 12 13  1  0
 12 11  1  0
 14 13  1  0
 14 23  1  0
 14 15  1  0
 16 10  1  0
 16 15  1  0
 17 10  2  0
 18 19  1  0
 20 21  2  0
 21 40  1  0
 22 21  1  0
 22 25  1  0
 23 20  1  0
 23 24  1  0
 24 22  2  0
 25 26  1  0
 26 27  2  0
 28 31  1  0
 28 27  1  0
 29 28  2  0
 30 29  1  0
 30 25  2  0
 31 32  1  0
 32 33  1  0
 33 34  2  0
 35 34  1  0
 35 39  1  0
 36 35  2  0
 37 32  2  0
 37 36  1  0
 38 37  1  0
 40 41  1  0
 41 44  1  0
 41 43  1  0
 42 40  2  0
 45 46  1  0
 45 20  1  0
 47 45  1  0
 48 49  1  0
 48 52  1  0
 49 51  1  0
 50 48  2  0
 52 53  1  0
 54 53  1  0
 55 66  2  0
 56 54  1  0
 56 61  1  0
 57 65  1  0
 57 67  1  0
 58 64  1  0
 58 60  1  0
 59 65  1  0
 60 61  2  0
 60 59  1  0
 62 56  2  0
 63 62  1  0
 63 58  2  0
 64 57  1  0
 65 55  1  0
 67 69  2  0
 68 67  1  0
 70 68  1  0
 71 80  2  0
 71 76  1  0
 72 68  1  0
 72 76  1  0
 73 72  1  0
 74 75  1  0
 74 73  1  0
 75 71  1  0
 76 77  2  0
 77 78  1  0
 79 78  2  0
 80 79  1  0
 81 55  1  0
 81 86  1  0
 81 82  1  0
 82 85  1  1
 82 83  1  0
 84 82  1  0
 86 89  1  0
 87 91  1  0
 87 86  1  0
 88 87  2  0
 91 90  1  0
 93 91  1  0
 93 94  1  0
 93 92  1  0
M  ISO  4  10 100  18 100  53 101  54 101
M  END
>  <TORSDO>  (27) 
F 20

>  <SCORE>  (27) 
-14.005

>  <name>  (27) 
26

>  <ligand_id>  (27) 
26

>  <original_smiles>  (27) 
[H]c1c([H])c([H])c2c(c1[H])C([H])([H])C([H])([H])C([H])([H])C2([H])N([H])C(=O)C1([H])N(C(=O)C([H])(N([H])C(=O)C([H])(N([H])C([H])([H])[H])C([H])([H])[H])C(C([H])([H])[H])(C([H])([H])[H])C([H])([H])[H])C([H])([H])c2c([H])c(OC([H])([H])C([H])([H])C(=O)N([H])C(=S)c3c([H])c([H])c(N([H])C(=O)N4C([H])([H])C([H])([H])C([H])([H])C([H])(n5nc(-c6c([H])c([H])c(Oc7c([H])c([H])c(F)c([H])c7F)c([H])c6[H])c(C(=O)N([H])[H])c5N([H])[H])C4([H])[H])c([H])c3C([H])([H])[H])c([H])c([H])c2C1([H])[H]

>  <smiles>  (27) 
[H]c1c([H])c([H])c2c(c1[H])C([H])([H])C([H])([H])C([H])([H])C2([H])N([H])C(=O)C1([H])N(C(=O)C([H])(N([H])C(=O)C([H])(N([H])C([H])([H])[H])C([H])([H])[H])C(C([H])([H])[H])(C([H])([H])[H])C([H])([H])[H])C([H])([H])c2c([H])c(OC([H])([H])C([H])([H])C(=O)N([H])C(=S)c3c([H])c([H])c(N([H])C(=O)N4C([H])([H])C([H])([H])C([H])([H])C([H])(n5nc(-c6c([H])c([H])c(Oc7c([H])c([H])c(F)c([H])c7F)c([H])c6[H])c(C(=O)N([H])[H])c5N([H])[H])C4([H])[H])c([H])c3C([H])([H])[H])c([H])c([H])c2C1([H])[H]

$$$$
27:0:0
     RDKit          3D

 96104  0  0  1  0  0  0  0  0999 V2000
  -29.5010  -20.5960   19.6350 C   0  0  0  0  0  0  0  0  0  0  0  0
  -29.6100  -20.4710   18.3140 N   0  0  0  0  0  4  0  0  0  0  0  0
  -29.1040  -21.7940   20.1310 N   0  0  0  0  0  0  0  0  0  0  0  0
  -29.9840  -19.6130   17.9350 H   0  0  0  0  0  0  0  0  0  0  0  0
  -29.3790  -21.2110   17.6740 H   0  0  0  0  0  0  0  0  0  0  0  0
  -28.9610  -21.8420   21.1330 H   0  0  0  0  0  0  0  0  0  0  0  0
  -30.7530  -19.7300   21.5710 C   0  0  0  0  0  3  0  0  0  0  0  0
  -30.9590  -17.3590   22.0970 C   0  0  0  0  0  3  0  0  0  0  0  0
  -29.8850  -19.4460   20.4950 C   0  0  0  0  0  0  0  0  0  0  0  0
  -29.5110  -18.0790   20.2520 C   0  0  0  0  0  0  0  0  0  0  0  0
  -30.0800  -17.0300   21.0430 C   0  0  0  0  0  0  0  0  0  0  0  0
  -31.2810  -18.7010   22.3680 C   0  0  0  0  0  0  0  0  0  0  0  0
  -28.5190  -17.6950   19.1540 C   0  0  0  0  0  1  0  0  0  0  0  0
  -32.1100  -19.0030   23.3950 F   0  0  0  0  0  0  0  0  0  0  0  0
  -30.5020  -14.6530   20.3870 C   0  0  0  0  0  0  0  0  0  0  0  0
  -30.2560  -12.5050   19.1890 C   0  0  0  0  0  2  0  0  0  0  0  0
  -29.2830  -12.7050   18.0070 C   0  0  0  0  0  2  0  0  0  0  0  0
  -27.8190  -12.5230   18.4600 C   0  0  0  0  0  2  0  0  0  0  0  0
  -27.4880  -13.3270   19.7460 C   0  0  0  0  0  3  0  0  0  0  0  0
  -28.5680  -13.1020   20.8270 C   0  0  0  0  0  2  0  0  0  0  0  0
  -29.8700  -13.4560   20.2410 N   0  0  0  0  0  0  0  0  0  0  0  0
  -31.6410  -14.8640   19.9590 O   0  0  0  0  0  0  0  0  0  0  0  0
  -29.7200  -15.6550   20.8470 N   0  0  0  0  0  0  0  0  0  0  0  0
  -28.7600  -15.4080   21.0280 H   0  0  0  0  0  0  0  0  0  0  0  0
  -25.0880  -13.8820   20.4940 C   0  0  0  0  0  0  0  0  0  0  0  0
  -24.0430  -13.0840   20.8750 C   0  0  0  0  0  0  0  0  0  0  0  0
  -24.5320  -11.7430   20.8290 C   0  0  0  0  0  0  0  0  0  0  0  0
  -26.1480  -13.0220   20.2420 N   0  0  0  0  0  0  0  0  0  0  0  0
  -25.8180  -11.7320   20.5010 N   0  0  0  0  0  0  0  0  0  0  0  0
  -23.8360  -10.4650   21.0170 C   0  0  0  0  0  0  0  0  0  0  0  0
  -24.2870   -9.5120   21.9580 C   0  0  0  0  0  3  0  0  0  0  0  0
  -23.5900   -8.2970   22.1360 C   0  0  0  0  0  3  0  0  0  0  0  0
  -22.4290   -8.0270   21.3730 C   0  0  0  0  0  0  0  0  0  0  0  0
  -21.9980   -8.9690   20.4220 C   0  0  0  0  0  3  0  0  0  0  0  0
  -22.6960  -10.1760   20.2420 C   0  0  0  0  0  3  0  0  0  0  0  0
  -21.7030   -6.8650   21.4600 O   0  0  0  0  0  0  0  0  0  0  0  0
  -21.6510   -6.1330   22.6200 C   0  0  0  0  0  0  0  0  0  0  0  0
  -21.1570   -6.6800   23.8240 C   0  0  0  0  0  3  0  0  0  0  0  0
  -21.0570   -5.8730   24.9750 C   0  0  0  0  0  3  0  0  0  0  0  0
  -21.4400   -4.5190   24.9220 C   0  0  0  0  0  0  0  0  0  0  0  0
  -21.9260   -3.9710   23.7220 C   0  0  0  0  0  3  0  0  0  0  0  0
  -22.0280   -4.7760   22.5730 C   0  0  0  0  0  0  0  0  0  0  0  0
  -22.4780   -4.2380   21.4140 F   0  0  0  0  0  0  0  0  0  0  0  0
  -21.3370   -3.7410   26.0240 F   0  0  0  0  0  0  0  0  0  0  0  0
  -22.6390  -13.5310   21.1690 C   0  0  0  0  0  0  0  0  0  0  0  0
  -21.9350  -12.8070   22.0320 N   0  0  0  0  0  0  0  0  0  0  0  0
  -22.1760  -14.5540   20.6690 O   0  0  0  0  0  0  0  0  0  0  0  0
  -22.3230  -11.9790   22.4590 H   0  0  0  0  0  0  0  0  0  0  0  0
  -20.9930  -13.0860   22.2710 H   0  0  0  0  0  0  0  0  0  0  0  0
  -25.2200  -15.2560   20.3210 N   0  0  0  0  0  0  0  0  0  0  0  0
  -24.4340  -15.8860   20.4350 H   0  0  0  0  0  0  0  0  0  0  0  0
  -26.0360  -15.7130   19.9370 H   0  0  0  0  0  0  0  0  0  0  0  0
  -28.8070  -23.0320   19.3450 C   0  0  0  0  0  2  0  0  0  0  0  0
  -28.5350  -24.3210   20.1760 C   0  0  0  0  0  2  0  0  0  0  0  0
  -28.5030  -25.6090   19.2990 C   0  0  0  0  0  2  0  0  0  0  0  0
  -28.3290  -26.8380   20.0360 O   0  0  0  0  0  0  0  0  0  0  0  0
  -24.5200  -31.9670   23.2040 C   0  0  0  0  0  0  0  0  0  0  0  0
  -27.1250  -27.5270   20.0460 C   0  0  0  0  0  0  0  0  0  0  0  0
  -23.2870  -30.5660   21.5810 C   0  0  0  0  0  3  0  0  0  0  0  0
  -24.7180  -29.0360   20.1230 C   0  0  0  0  0  0  0  0  0  0  0  0
  -25.8090  -30.9300   21.3350 C   0  0  0  0  0  2  0  0  0  0  0  0
  -25.8860  -29.5600   20.6870 C   0  0  0  0  0  0  0  0  0  0  0  0
  -27.0870  -28.8110   20.6470 C   0  0  0  0  0  3  0  0  0  0  0  0
  -25.9250  -27.0140   19.4970 C   0  0  0  0  0  3  0  0  0  0  0  0
  -24.7330  -27.7630   19.5290 C   0  0  0  0  0  3  0  0  0  0  0  0
  -23.4720  -29.8910   20.1960 C   0  0  0  0  0  2  0  0  0  0  0  0
  -24.5580  -31.1690   22.0990 N   0  0  0  0  0  0  0  0  0  0  0  0
  -23.4480  -32.2320   23.7670 O   0  0  0  0  0  0  0  0  0  0  0  0
  -22.6590  -29.5390   22.5510 C   0  0  0  0  0  0  0  0  0  0  0  0
  -21.3360  -29.3400   22.4390 N   0  0  0  0  0  0  0  0  0  0  0  0
  -23.3590  -28.9240   23.3590 O   0  0  0  0  0  0  0  0  0  0  0  0
  -20.8290  -29.8900   21.7580 H   0  0  0  0  0  0  0  0  0  0  0  0
  -17.9850  -28.0980   22.9730 C   0  0  0  0  0  0  0  0  0  0  0  0
  -20.5410  -28.3930   23.2200 C   0  0  0  0  0  3  0  0  0  0  0  0
  -20.6580  -26.9620   22.6470 C   0  0  0  0  0  2  0  0  0  0  0  0
  -19.5520  -26.6200   21.6430 C   0  0  0  0  0  2  0  0  0  0  0  0
  -18.1740  -26.7490   22.3000 C   0  0  0  0  0  2  0  0  0  0  0  0
  -19.0970  -28.8760   23.3900 C   0  0  0  0  0  0  0  0  0  0  0  0
  -18.8650  -30.1390   23.9780 C   0  0  0  0  0  3  0  0  0  0  0  0
  -17.5550  -30.6240   24.1520 C   0  0  0  0  0  3  0  0  0  0  0  0
  -16.4590  -29.8420   23.7510 C   0  0  0  0  0  3  0  0  0  0  0  0
  -16.6740  -28.5800   23.1670 C   0  0  0  0  0  3  0  0  0  0  0  0
  -25.8140  -32.6030   23.7990 C   0  0  0  0  0  3  0  0  0  0  0  0
  -26.3520  -31.8430   25.0740 C   0  0  1  0  0  0  0  0  0  0  0  0
  -25.2770  -31.6110   26.1600 C   0  0  0  0  0  1  0  0  0  0  0  0
  -26.9320  -30.4640   24.6810 C   0  0  0  0  0  1  0  0  0  0  0  0
  -27.5110  -32.6440   25.7120 C   0  0  0  0  0  1  0  0  0  0  0  0
  -25.5120  -34.0040   24.1210 N   0  0  0  0  0  0  0  0  0  0  0  0
  -25.8460  -35.0500   23.3530 C   0  0  0  0  0  0  0  0  0  0  0  0
  -26.5100  -34.9380   22.3210 O   0  0  0  0  0  0  0  0  0  0  0  0
  -24.9230  -34.1680   24.9250 H   0  0  0  0  0  0  0  0  0  0  0  0
  -24.1360  -36.8560   22.9750 C   0  0  0  0  0  1  0  0  0  0  0  0
  -25.3640  -36.4440   23.8030 C   0  0  0  0  0  3  0  0  0  0  0  0
  -27.4910  -37.3150   24.6650 C   0  0  0  0  0  1  0  0  0  0  0  0
  -26.4070  -37.4870   23.7010 N   0  0  0  0  0  0  0  0  0  0  0  0
  -26.0060  -38.4120   23.8380 H   0  0  0  0  0  0  0  0  0  0  0  0
  1  3  1  0
  1  9  1  0
  2  1  2  0
  3  6  1  0
  4  2  1  0
  5  2  1  0
  7 12  1  0
  8 12  2  0
  9  7  2  0
 10  9  1  0
 10 11  2  0
 11  8  1  0
 12 14  1  0
 13 10  1  0
 15 23  1  0
 16 21  1  0
 17 18  1  0
 17 16  1  0
 19 18  1  0
 19 28  1  0
 19 20  1  0
 21 15  1  0
 21 20  1  0
 22 15  2  0
 23 24  1  0
 23 11  1  0
 25 26  2  0
 26 45  1  0
 27 26  1  0
 27 30  1  0
 28 25  1  0
 28 29  1  0
 29 27  2  0
 30 31  1  0
 31 32  2  0
 33 36  1  0
 33 32  1  0
 34 33  2  0
 35 34  1  0
 35 30  2  0
 36 37  1  0
 37 38  1  0
 38 39  2  0
 40 39  1  0
 40 44  1  0
 41 40  2  0
 42 37  2  0
 42 41  1  0
 43 42  1  0
 45 46  1  0
 46 49  1  0
 46 48  1  0
 47 45  2  0
 50 51  1  0
 50 25  1  0
 52 50  1  0
 53  3  1  0
 53 54  1  0
 55 56  1  0
 55 54  1  0
 56 58  1  0
 57 68  2  0
 58 63  1  0
 59 67  1  0
 59 69  1  0
 60 66  1  0
 60 62  1  0
 61 67  1  0
 62 61  1  0
 63 62  2  0
 64 65  1  0
 64 58  2  0
 65 60  2  0
 66 59  1  0
 67 57  1  0
 69 71  2  0
 70 69  1  0
 72 70  1  0
 73 82  2  0
 73 78  1  0
 74 70  1  0
 74 78  1  0
 75 74  1  0
 76 77  1  0
 76 75  1  0
 77 73  1  0
 78 79  2  0
 79 80  1  0
 81 80  2  0
 82 81  1  0
 83 57  1  0
 83 88  1  0
 83 84  1  0
 84 87  1  1
 84 85  1  0
 86 84  1  0
 88 91  1  0
 89 93  1  0
 89 88  1  0
 90 89  2  0
 93 92  1  0
 95 93  1  0
 95 96  1  0
 95 94  1  0
M  ISO  4  15 100  23 100  55 101  56 101
M  END
>  <TORSDO>  (28) 
F 20

>  <SCORE>  (28) 
-13.860

>  <name>  (28) 
27

>  <ligand_id>  (28) 
27

>  <original_smiles>  (28) 
[H]c1c([H])c([H])c2c(c1[H])C([H])([H])C([H])([H])C([H])([H])C2([H])N([H])C(=O)C1([H])N(C(=O)C([H])(N([H])C(=O)C([H])(N([H])C([H])([H])[H])C([H])([H])[H])C(C([H])([H])[H])(C([H])([H])[H])C([H])([H])[H])C([H])([H])c2c([H])c(OC([H])([H])C([H])([H])C([H])([H])[N+]([H])=C(c3c([H])c(F)c([H])c(N([H])C(=O)N4C([H])([H])C([H])([H])C([H])([H])C([H])(n5nc(-c6c([H])c([H])c(Oc7c([H])c([H])c(F)c([H])c7F)c([H])c6[H])c(C(=O)N([H])[H])c5N([H])[H])C4([H])[H])c3C([H])([H])[H])N([H])[H])c([H])c([H])c2C1([H])[H]

>  <smiles>  (28) 
[H]c1c([H])c([H])c2c(c1[H])C([H])([H])C([H])([H])C([H])([H])C2([H])N([H])C(=O)C1([H])N(C(=O)C([H])(N([H])C(=O)C([H])(N([H])C([H])([H])[H])C([H])([H])[H])C(C([H])([H])[H])(C([H])([H])[H])C([H])([H])[H])C([H])([H])c2c([H])c(OC([H])([H])C([H])([H])C([H])([H])[N+]([H])=C(c3c([H])c(F)c([H])c(N([H])C(=O)N4C([H])([H])C([H])([H])C([H])([H])C([H])(n5nc(-c6c([H])c([H])c(Oc7c([H])c([H])c(F)c([H])c7F)c([H])c6[H])c(C(=O)N([H])[H])c5N([H])[H])C4([H])[H])c3C([H])([H])[H])N([H])[H])c([H])c([H])c2C1([H])[H]

$$$$
28:0:0
     RDKit          3D

100109  0  0  1  0  0  0  0  0999 V2000
  -29.2200  -20.4140   21.9460 C   0  0  0  0  0  2  0  0  0  0  0  0
  -27.9390  -22.6240   21.3440 C   0  0  0  0  0  0  0  0  0  0  0  0
  -26.7440  -22.1770   21.7660 C   0  0  0  0  0  2  0  0  0  0  0  0
  -28.1350  -24.0510   20.7880 C   0  0  0  0  0  2  0  0  0  0  0  0
  -30.4770  -24.1030   21.5640 C   0  0  0  0  0  2  0  0  0  0  0  0
  -30.3530  -22.6320   22.0680 C   0  0  0  0  0  2  0  0  0  0  0  0
  -29.1320  -24.8360   21.6640 C   0  0  0  0  0  3  0  0  0  0  0  0
  -29.2570  -21.8360   21.4200 N   0  0  1  0  0  4  0  0  0  0  0  0
  -29.5470  -21.6900   20.4660 H   0  0  0  0  0  0  0  0  0  0  0  0
  -29.1050  -26.4190   21.5990 C   0  0  0  0  0  2  0  0  0  0  0  0
  -29.0780  -27.1590   20.3520 O   0  0  0  0  0  0  0  0  0  0  0  0
  -24.7680  -31.9520   23.3720 C   0  0  0  0  0  0  0  0  0  0  0  0
  -27.9470  -27.9440   20.2150 C   0  0  0  0  0  0  0  0  0  0  0  0
  -23.7890  -30.5690   21.5620 C   0  0  0  0  0  3  0  0  0  0  0  0
  -25.4590  -29.2870   20.1220 C   0  0  0  0  0  0  0  0  0  0  0  0
  -26.2890  -31.1640   21.5460 C   0  0  0  0  0  2  0  0  0  0  0  0
  -26.5290  -29.8550   20.8250 C   0  0  0  0  0  0  0  0  0  0  0  0
  -27.7810  -29.1920   20.8660 C   0  0  0  0  0  3  0  0  0  0  0  0
  -26.8710  -27.4150   19.4700 C   0  0  0  0  0  3  0  0  0  0  0  0
  -25.6300  -28.0740   19.4370 C   0  0  0  0  0  3  0  0  0  0  0  0
  -24.1320  -30.0140   20.1530 C   0  0  0  0  0  2  0  0  0  0  0  0
  -24.9640  -31.2440   22.2180 N   0  0  0  0  0  0  0  0  0  0  0  0
  -23.6380  -32.0820   23.8650 O   0  0  0  0  0  0  0  0  0  0  0  0
  -23.1800  -29.4310   22.4140 C   0  0  0  0  0  0  0  0  0  0  0  0
  -21.8800  -29.1440   22.2140 N   0  0  0  0  0  0  0  0  0  0  0  0
  -23.8830  -28.8110   23.2250 O   0  0  0  0  0  0  0  0  0  0  0  0
  -21.3800  -29.6520   21.4980 H   0  0  0  0  0  0  0  0  0  0  0  0
  -18.6110  -27.6770   22.5490 C   0  0  0  0  0  0  0  0  0  0  0  0
  -21.1320  -28.0890   22.9000 C   0  0  0  0  0  3  0  0  0  0  0  0
  -21.3450  -26.7330   22.2030 C   0  0  0  0  0  2  0  0  0  0  0  0
  -20.2850  -26.4110   21.1470 C   0  0  0  0  0  2  0  0  0  0  0  0
  -18.8920  -26.4020   21.7800 C   0  0  0  0  0  2  0  0  0  0  0  0
  -19.6630  -28.4760   23.0670 C   0  0  0  0  0  0  0  0  0  0  0  0
  -19.3410  -29.6670   23.7620 C   0  0  0  0  0  3  0  0  0  0  0  0
  -18.0030  -30.0720   23.9190 C   0  0  0  0  0  3  0  0  0  0  0  0
  -16.9680  -29.2700   23.4060 C   0  0  0  0  0  3  0  0  0  0  0  0
  -17.2720  -28.0670   22.7450 C   0  0  0  0  0  3  0  0  0  0  0  0
  -25.9510  -32.6560   24.1090 C   0  0  0  0  0  3  0  0  0  0  0  0
  -26.3560  -31.9450   25.4590 C   0  0  1  0  0  0  0  0  0  0  0  0
  -25.1660  -31.6820   26.4090 C   0  0  0  0  0  1  0  0  0  0  0  0
  -27.0380  -30.5870   25.1750 C   0  0  0  0  0  1  0  0  0  0  0  0
  -27.3980  -32.8090   26.2150 C   0  0  0  0  0  1  0  0  0  0  0  0
  -25.5470  -34.0470   24.3560 N   0  0  0  0  0  0  0  0  0  0  0  0
  -25.9290  -35.0920   23.6090 C   0  0  0  0  0  0  0  0  0  0  0  0
  -26.7220  -34.9940   22.6680 O   0  0  0  0  0  0  0  0  0  0  0  0
  -24.8540  -34.1970   25.0760 H   0  0  0  0  0  0  0  0  0  0  0  0
  -24.1810  -36.7960   23.0050 C   0  0  0  0  0  1  0  0  0  0  0  0
  -25.3410  -36.4720   23.9630 C   0  0  0  0  0  3  0  0  0  0  0  0
  -27.3360  -37.4620   24.9910 C   0  0  0  0  0  1  0  0  0  0  0  0
  -26.3370  -37.5650   23.9300 N   0  0  0  0  0  0  0  0  0  0  0  0
  -25.8800  -38.4700   24.0120 H   0  0  0  0  0  0  0  0  0  0  0  0
  -30.5410  -18.2290   21.5100 C   0  0  0  0  0  3  0  0  0  0  0  0
  -30.8620  -17.3610   19.2870 C   0  0  0  0  0  3  0  0  0  0  0  0
  -29.7150  -19.2910   20.9950 C   0  0  0  0  0  0  0  0  0  0  0  0
  -29.9850  -18.3270   18.7610 C   0  0  0  0  0  0  0  0  0  0  0  0
  -29.3140  -19.2320   19.6320 C   0  0  0  0  0  0  0  0  0  0  0  0
  -31.0480  -17.2010   20.6710 C   0  0  0  0  0  0  0  0  0  0  0  0
  -28.1430  -20.0690   19.1030 C   0  0  0  0  0  1  0  0  0  0  0  0
  -32.1650  -14.9530   20.4840 C   0  0  0  0  0  0  0  0  0  0  0  0
  -31.6640  -12.7360   19.5050 C   0  0  0  0  0  2  0  0  0  0  0  0
  -30.7830  -12.7970   18.2490 C   0  0  0  0  0  2  0  0  0  0  0  0
  -29.2930  -12.8080   18.6330 C   0  0  0  0  0  2  0  0  0  0  0  0
  -28.9670  -13.8540   19.7280 C   0  0  0  0  0  3  0  0  0  0  0  0
  -29.9570  -13.7610   20.9110 C   0  0  0  0  0  2  0  0  0  0  0  0
  -31.3210  -13.8780   20.3750 N   0  0  0  0  0  0  0  0  0  0  0  0
  -33.2780  -14.9640   19.9590 O   0  0  0  0  0  0  0  0  0  0  0  0
  -31.7530  -16.0460   21.1860 N   0  0  0  0  0  0  0  0  0  0  0  0
  -32.4320  -16.3010   21.8860 H   0  0  0  0  0  0  0  0  0  0  0  0
  -26.6720  -14.8050   20.3750 C   0  0  0  0  0  0  0  0  0  0  0  0
  -25.4800  -14.2080   20.6690 C   0  0  0  0  0  0  0  0  0  0  0  0
  -25.7220  -12.8070   20.5870 C   0  0  0  0  0  0  0  0  0  0  0  0
  -27.5710  -13.7800   20.1390 N   0  0  0  0  0  0  0  0  0  0  0  0
  -27.0000  -12.5700   20.3290 N   0  0  0  0  0  0  0  0  0  0  0  0
  -24.8010  -11.6710   20.6910 C   0  0  0  0  0  0  0  0  0  0  0  0
  -25.0950  -10.5540   21.5020 C   0  0  0  0  0  3  0  0  0  0  0  0
  -24.1830   -9.4820   21.5980 C   0  0  0  0  0  3  0  0  0  0  0  0
  -22.9670   -9.5220   20.8780 C   0  0  0  0  0  0  0  0  0  0  0  0
  -22.6880  -10.6290   20.0560 C   0  0  0  0  0  3  0  0  0  0  0  0
  -23.6000  -11.6940   19.9580 C   0  0  0  0  0  3  0  0  0  0  0  0
  -22.0380   -8.5150   20.8920 O   0  0  0  0  0  0  0  0  0  0  0  0
  -21.9170   -7.6650   21.9620 C   0  0  0  0  0  0  0  0  0  0  0  0
  -21.6670   -8.1410   23.2660 C   0  0  0  0  0  3  0  0  0  0  0  0
  -21.4800   -7.2300   24.3250 C   0  0  0  0  0  3  0  0  0  0  0  0
  -21.5380   -5.8440   24.0810 C   0  0  0  0  0  0  0  0  0  0  0  0
  -21.7760   -5.3680   22.7780 C   0  0  0  0  0  3  0  0  0  0  0  0
  -21.9630   -6.2770   21.7220 C   0  0  0  0  0  0  0  0  0  0  0  0
  -22.1780   -5.8130   20.4660 F   0  0  0  0  0  0  0  0  0  0  0  0
  -21.3470   -4.9680   25.0920 F   0  0  0  0  0  0  0  0  0  0  0  0
  -24.1710  -14.9040   20.9070 C   0  0  0  0  0  0  0  0  0  0  0  0
  -23.3030  -14.3180   21.7240 N   0  0  0  0  0  0  0  0  0  0  0  0
  -23.9210  -15.9990   20.4050 O   0  0  0  0  0  0  0  0  0  0  0  0
  -23.5110  -13.4370   22.1670 H   0  0  0  0  0  0  0  0  0  0  0  0
  -22.4250  -14.7770   21.9190 H   0  0  0  0  0  0  0  0  0  0  0  0
  -27.0480  -16.1350   20.2590 N   0  0  0  0  0  0  0  0  0  0  0  0
  -26.3500  -16.8690   20.2920 H   0  0  0  0  0  0  0  0  0  0  0  0
  -27.8450  -16.3670   19.6800 H   0  0  0  0  0  0  0  0  0  0  0  0
  -29.8400  -18.3940   17.2470 C   0  0  1  0  0  0  0  0  0  0  0  0
  -30.6120  -19.3990   16.8390 F   0  0  0  0  0  0  0  0  0  0  0  0
  -30.2770  -17.2670   16.6930 F   0  0  0  0  0  0  0  0  0  0  0  0
  -28.5950  -18.5690   16.8030 F   0  0  0  0  0  0  0  0  0  0  0  0
  2  8  1  0
  2  3  2  0
  4  2  1  0
  4  7  1  0
  5  7  1  0
  5  6  1  0
  7 10  1  0
  8  1  1  0
  8  6  1  0
  8  9  1  6
 11 10  1  0
 12 23  2  0
 13 11  1  0
 13 18  1  0
 14 22  1  0
 14 24  1  0
 15 21  1  0
 15 17  1  0
 16 22  1  0
 17 18  2  0
 17 16  1  0
 19 13  2  0
 20 19  1  0
 20 15  2  0
 21 14  1  0
 22 12  1  0
 24 26  2  0
 25 24  1  0
 27 25  1  0
 28 37  2  0
 28 33  1  0
 29 25  1  0
 29 33  1  0
 30 29  1  0
 31 32  1  0
 31 30  1  0
 32 28  1  0
 33 34  2  0
 34 35  1  0
 36 35  2  0
 37 36  1  0
 38 12  1  0
 38 43  1  0
 38 39  1  0
 39 42  1  1
 39 40  1  0
 41 39  1  0
 43 46  1  0
 44 48  1  0
 44 43  1  0
 45 44  2  0
 48 47  1  0
 50 48  1  0
 50 51  1  0
 50 49  1  0
 53 57  1  0
 54 52  1  0
 54  1  1  0
 55 53  2  0
 55 56  1  0
 56 54  2  0
 57 67  1  0
 57 52  2  0
 58 56  1  0
 59 67  1  0
 60 65  1  0
 61 62  1  0
 61 60  1  0
 63 62  1  0
 63 72  1  0
 63 64  1  0
 65 59  1  0
 65 64  1  0
 66 59  2  0
 67 68  1  0
 69 70  2  0
 70 89  1  0
 71 70  1  0
 71 74  1  0
 72 73  1  0
 72 69  1  0
 73 71  2  0
 74 75  1  0
 75 76  2  0
 77 80  1  0
 77 76  1  0
 78 77  2  0
 79 78  1  0
 79 74  2  0
 80 81  1  0
 81 82  1  0
 82 83  2  0
 84 83  1  0
 84 88  1  0
 85 84  2  0
 86 81  2  0
 86 85  1  0
 87 86  1  0
 89 90  1  0
 90 93  1  0
 90 92  1  0
 91 89  2  0
 94 95  1  0
 94 69  1  0
 96 94  1  0
 97 55  1  0
 97 98  1  6
 99 97  1  0
100 97  1  0
M  ISO  4  10 101  11 101  59 100  67 100
M  END
>  <TORSDO>  (29) 
F 20

>  <SCORE>  (29) 
-9.672

>  <name>  (29) 
28

>  <ligand_id>  (29) 
28

>  <original_smiles>  (29) 
[H]C([H])=C1C([H])([H])C([H])(C([H])([H])Oc2c([H])c([H])c3c(c2[H])C([H])([H])N(C(=O)C([H])(N([H])C(=O)C([H])(N([H])C([H])([H])[H])C([H])([H])[H])C(C([H])([H])[H])(C([H])([H])[H])C([H])([H])[H])C([H])(C(=O)N([H])C2([H])c4c([H])c([H])c([H])c([H])c4C([H])([H])C([H])([H])C2([H])[H])C3([H])[H])C([H])([H])C([H])([H])[N+]1([H])C([H])([H])c1c([H])c(N([H])C(=O)N2C([H])([H])C([H])([H])C([H])([H])C([H])(n3nc(-c4c([H])c([H])c(Oc5c([H])c([H])c(F)c([H])c5F)c([H])c4[H])c(C(=O)N([H])[H])c3N([H])[H])C2([H])[H])c([H])c(C(F)(F)F)c1C([H])([H])[H]

>  <smiles>  (29) 
[H]C([H])=C1C([H])([H])C([H])(C([H])([H])Oc2c([H])c([H])c3c(c2[H])C([H])([H])N(C(=O)C([H])(N([H])C(=O)C([H])(N([H])C([H])([H])[H])C([H])([H])[H])C(C([H])([H])[H])(C([H])([H])[H])C([H])([H])[H])C([H])(C(=O)N([H])C2([H])c4c([H])c([H])c([H])c([H])c4C([H])([H])C([H])([H])C2([H])[H])C3([H])[H])C([H])([H])C([H])([H])[N+]1([H])C([H])([H])c1c([H])c(N([H])C(=O)N2C([H])([H])C([H])([H])C([H])([H])C([H])(n3nc(-c4c([H])c([H])c(Oc5c([H])c([H])c(F)c([H])c5F)c([H])c4[H])c(C(=O)N([H])[H])c3N([H])[H])C2([H])[H])c([H])c(C(F)(F)F)c1C([H])([H])[H]

$$$$
29:0:0
     RDKit          3D

 95104  0  0  1  0  0  0  0  0999 V2000
  -28.0290  -22.5000   19.8120 C   0  0  0  0  0  0  0  0  0  0  0  0
  -27.7000  -24.0180   19.5510 C   0  0  0  0  0  2  0  0  0  0  0  0
  -29.7670  -24.6260   20.7370 C   0  0  0  0  0  2  0  0  0  0  0  0
  -29.9090  -23.1410   21.2260 C   0  0  0  0  0  2  0  0  0  0  0  0
  -28.3100  -25.1000   20.5090 C   0  0  0  0  0  3  0  0  0  0  0  0
  -29.1650  -22.1100   20.4600 N   0  0  0  0  0  0  0  0  0  0  0  0
  -27.2480  -21.6630   19.3510 O   0  0  0  0  0  0  0  0  0  0  0  0
  -28.3200  -26.5430   20.1130 O   0  0  0  0  0  0  0  0  0  0  0  0
  -24.5900  -31.9190   23.2280 C   0  0  0  0  0  0  0  0  0  0  0  0
  -27.1720  -27.3520   20.1500 C   0  0  0  0  0  0  0  0  0  0  0  0
  -23.3700  -30.5260   21.5940 C   0  0  0  0  0  3  0  0  0  0  0  0
  -24.8060  -28.9680   20.1610 C   0  0  0  0  0  0  0  0  0  0  0  0
  -25.9080  -30.8380   21.3910 C   0  0  0  0  0  2  0  0  0  0  0  0
  -25.9790  -29.4560   20.7500 C   0  0  0  0  0  0  0  0  0  0  0  0
  -27.1640  -28.6590   20.7340 C   0  0  0  0  0  3  0  0  0  0  0  0
  -25.9790  -26.9250   19.5310 C   0  0  0  0  0  3  0  0  0  0  0  0
  -24.8100  -27.7090   19.5420 C   0  0  0  0  0  3  0  0  0  0  0  0
  -23.5720  -29.8470   20.2140 C   0  0  0  0  0  2  0  0  0  0  0  0
  -24.6420  -31.1120   22.1290 N   0  0  0  0  0  0  0  0  0  0  0  0
  -23.5110  -32.1990   23.7720 O   0  0  0  0  0  0  0  0  0  0  0  0
  -22.7110  -29.5120   22.5600 C   0  0  0  0  0  0  0  0  0  0  0  0
  -21.3840  -29.3380   22.4420 N   0  0  0  0  0  0  0  0  0  0  0  0
  -23.3940  -28.8830   23.3720 O   0  0  0  0  0  0  0  0  0  0  0  0
  -20.8920  -29.8980   21.7610 H   0  0  0  0  0  0  0  0  0  0  0  0
  -18.0090  -28.1410   22.9530 C   0  0  0  0  0  0  0  0  0  0  0  0
  -20.5680  -28.4020   23.2180 C   0  0  0  0  0  3  0  0  0  0  0  0
  -20.6700  -26.9690   22.6470 C   0  0  0  0  0  2  0  0  0  0  0  0
  -19.5670  -26.6410   21.6370 C   0  0  0  0  0  2  0  0  0  0  0  0
  -18.1850  -26.7890   22.2830 C   0  0  0  0  0  2  0  0  0  0  0  0
  -19.1290  -28.9050   23.3780 C   0  0  0  0  0  0  0  0  0  0  0  0
  -18.9110  -30.1690   23.9670 C   0  0  0  0  0  3  0  0  0  0  0  0
  -17.6070  -30.6700   24.1350 C   0  0  0  0  0  3  0  0  0  0  0  0
  -16.5010  -29.9030   23.7260 C   0  0  0  0  0  3  0  0  0  0  0  0
  -16.7030  -28.6410   23.1410 C   0  0  0  0  0  3  0  0  0  0  0  0
  -25.8790  -32.5480   23.8400 C   0  0  0  0  0  3  0  0  0  0  0  0
  -26.4040  -31.7740   25.1110 C   0  0  1  0  0  0  0  0  0  0  0  0
  -25.3190  -31.5390   26.1890 C   0  0  0  0  0  1  0  0  0  0  0  0
  -26.9800  -30.3960   24.7110 C   0  0  0  0  0  1  0  0  0  0  0  0
  -27.5610  -32.5640   25.7670 C   0  0  0  0  0  1  0  0  0  0  0  0
  -25.5760  -33.9460   24.1780 N   0  0  0  0  0  0  0  0  0  0  0  0
  -25.9160  -35.0020   23.4290 C   0  0  0  0  0  0  0  0  0  0  0  0
  -26.5870  -34.9030   22.3980 O   0  0  0  0  0  0  0  0  0  0  0  0
  -24.9810  -34.0980   24.9790 H   0  0  0  0  0  0  0  0  0  0  0  0
  -24.2040  -36.8120   23.0730 C   0  0  0  0  0  1  0  0  0  0  0  0
  -25.4340  -36.3900   23.8940 C   0  0  0  0  0  3  0  0  0  0  0  0
  -27.5660  -37.2500   24.7550 C   0  0  0  0  0  1  0  0  0  0  0  0
  -26.4740  -37.4370   23.8030 N   0  0  0  0  0  0  0  0  0  0  0  0
  -26.0730  -38.3570   23.9590 H   0  0  0  0  0  0  0  0  0  0  0  0
  -29.5870  -20.6480   20.6740 C   0  0  0  0  0  2  0  0  0  0  0  0
  -30.7880  -18.1080   17.2170 C   0  0  0  0  0  3  0  0  0  0  0  0
  -30.5020  -17.4950   18.4390 C   0  0  0  0  0  3  0  0  0  0  0  0
  -30.8330  -19.5000   17.1490 C   0  0  0  0  0  3  0  0  0  0  0  0
  -30.1970  -18.2350   19.6090 C   0  0  0  0  0  0  0  0  0  0  0  0
  -30.0980  -19.7030   19.5090 C   0  0  0  0  0  0  0  0  0  0  0  0
  -30.5270  -20.2890   18.2700 C   0  0  0  0  0  0  0  0  0  0  0  0
  -30.8070  -21.9800   18.0280 Cl  0  0  0  0  0  0  0  0  0  0  0  0
  -30.1040  -17.3520   20.9060 C   0  0  0  0  0  2  0  0  0  0  0  0
  -30.6970  -14.7750   20.5900 C   0  0  0  0  0  0  0  0  0  0  0  0
  -30.5510  -12.5290   19.5210 C   0  0  0  0  0  2  0  0  0  0  0  0
  -29.6440  -12.6280   18.2730 C   0  0  0  0  0  2  0  0  0  0  0  0
  -28.1600  -12.4550   18.6540 C   0  0  0  0  0  2  0  0  0  0  0  0
  -27.7490  -13.3240   19.8720 C   0  0  0  0  0  3  0  0  0  0  0  0
  -28.7700  -13.1920   21.0230 C   0  0  0  0  0  2  0  0  0  0  0  0
  -30.0890  -13.5500   20.4830 N   0  0  0  0  0  0  0  0  0  0  0  0
  -31.8890  -14.9210   20.3080 O   0  0  0  0  0  0  0  0  0  0  0  0
  -29.8680  -15.8510   20.8050 N   0  0  0  0  0  0  0  0  0  0  0  0
  -28.9100  -15.5820   20.9640 H   0  0  0  0  0  0  0  0  0  0  0  0
  -25.3230  -13.9080   20.4840 C   0  0  0  0  0  0  0  0  0  0  0  0
  -24.2520  -13.1300   20.8280 C   0  0  0  0  0  0  0  0  0  0  0  0
  -24.7320  -11.7840   20.8480 C   0  0  0  0  0  0  0  0  0  0  0  0
  -26.3860  -13.0360   20.3120 N   0  0  0  0  0  0  0  0  0  0  0  0
  -26.0330  -11.7560   20.5930 N   0  0  0  0  0  0  0  0  0  0  0  0
  -24.0130  -10.5180   21.0370 C   0  0  0  0  0  0  0  0  0  0  0  0
  -24.4290   -9.5690   21.9970 C   0  0  0  0  0  3  0  0  0  0  0  0
  -23.7100   -8.3670   22.1730 C   0  0  0  0  0  3  0  0  0  0  0  0
  -22.5610   -8.1050   21.3880 C   0  0  0  0  0  0  0  0  0  0  0  0
  -22.1660   -9.0420   20.4180 C   0  0  0  0  0  3  0  0  0  0  0  0
  -22.8850  -10.2360   20.2410 C   0  0  0  0  0  3  0  0  0  0  0  0
  -21.8170   -6.9540   21.4720 O   0  0  0  0  0  0  0  0  0  0  0  0
  -21.7510   -6.2220   22.6310 C   0  0  0  0  0  0  0  0  0  0  0  0
  -21.3050   -6.7880   23.8450 C   0  0  0  0  0  3  0  0  0  0  0  0
  -21.1870   -5.9820   24.9950 C   0  0  0  0  0  3  0  0  0  0  0  0
  -21.5030   -4.6130   24.9320 C   0  0  0  0  0  0  0  0  0  0  0  0
  -21.9420   -4.0460   23.7230 C   0  0  0  0  0  3  0  0  0  0  0  0
  -22.0620   -4.8480   22.5740 C   0  0  0  0  0  0  0  0  0  0  0  0
  -22.4650   -4.2930   21.4060 F   0  0  0  0  0  0  0  0  0  0  0  0
  -21.3830   -3.8370   26.0350 F   0  0  0  0  0  0  0  0  0  0  0  0
  -22.8390  -13.5940   21.0300 C   0  0  0  0  0  0  0  0  0  0  0  0
  -22.0860  -12.9110   21.8850 N   0  0  0  0  0  0  0  0  0  0  0  0
  -22.4100  -14.6010   20.4660 O   0  0  0  0  0  0  0  0  0  0  0  0
  -22.4450  -12.0990   22.3630 H   0  0  0  0  0  0  0  0  0  0  0  0
  -21.1360  -13.2050   22.0650 H   0  0  0  0  0  0  0  0  0  0  0  0
  -25.4760  -15.2760   20.2780 N   0  0  0  0  0  0  0  0  0  0  0  0
  -24.6890  -15.9130   20.3320 H   0  0  0  0  0  0  0  0  0  0  0  0
  -26.3160  -15.7180   19.9290 H   0  0  0  0  0  0  0  0  0  0  0  0
  1  6  1  0
  2  1  1  0
  2  5  1  0
  3  4  1  0
  5  8  1  0
  5  3  1  0
  6 49  1  0
  6  4  1  0
  7  1  2  0
  8 10  1  0
  9 20  2  0
 10 15  1  0
 11 19  1  0
 11 21  1  0
 12 18  1  0
 12 14  1  0
 13 19  1  0
 14 13  1  0
 15 14  2  0
 16 17  1  0
 16 10  2  0
 17 12  2  0
 18 11  1  0
 19  9  1  0
 21 23  2  0
 22 21  1  0
 24 22  1  0
 25 34  2  0
 25 30  1  0
 26 22  1  0
 26 30  1  0
 27 26  1  0
 28 29  1  0
 28 27  1  0
 29 25  1  0
 30 31  2  0
 31 32  1  0
 33 32  2  0
 34 33  1  0
 35  9  1  0
 35 40  1  0
 35 36  1  0
 36 39  1  1
 36 37  1  0
 38 36  1  0
 40 43  1  0
 41 45  1  0
 41 40  1  0
 42 41  2  0
 45 44  1  0
 47 45  1  0
 47 48  1  0
 47 46  1  0
 50 51  1  0
 51 53  2  0
 52 50  2  0
 52 55  1  0
 53 57  1  0
 54 53  1  0
 54 49  1  0
 55 54  2  0
 56 55  1  0
 58 66  1  0
 59 64  1  0
 60 61  1  0
 60 59  1  0
 62 61  1  0
 62 71  1  0
 62 63  1  0
 64 58  1  0
 64 63  1  0
 65 58  2  0
 66 57  1  0
 66 67  1  0
 68 69  2  0
 69 70  1  0
 69 88  1  0
 70 73  1  0
 71 68  1  0
 71 72  1  0
 72 70  2  0
 73 74  1  0
 74 75  2  0
 76 79  1  0
 76 75  1  0
 77 76  2  0
 78 77  1  0
 78 73  2  0
 79 80  1  0
 80 81  1  0
 81 82  2  0
 83 82  1  0
 83 87  1  0
 84 83  2  0
 85 80  2  0
 85 84  1  0
 86 85  1  0
 88 89  1  0
 89 92  1  0
 89 91  1  0
 90 88  2  0
 93 94  1  0
 93 68  1  0
 95 93  1  0
M  ISO  4   5 101   8 101  58 100  66 100
M  END
>  <TORSDO>  (30) 
F 19

>  <SCORE>  (30) 
-14.408

>  <name>  (30) 
29

>  <ligand_id>  (30) 
29

>  <original_smiles>  (30) 
[H]c1c([H])c(Cl)c(C([H])([H])N2C(=O)C([H])([H])C([H])(Oc3c([H])c([H])c4c(c3[H])C([H])([H])N(C(=O)C([H])(N([H])C(=O)C([H])(N([H])C([H])([H])[H])C([H])([H])[H])C(C([H])([H])[H])(C([H])([H])[H])C([H])([H])[H])C([H])(C(=O)N([H])C3([H])c5c([H])c([H])c([H])c([H])c5C([H])([H])C([H])([H])C3([H])[H])C4([H])[H])C([H])([H])C2([H])[H])c(C([H])([H])N([H])C(=O)N2C([H])([H])C([H])([H])C([H])([H])C([H])(n3nc(-c4c([H])c([H])c(Oc5c([H])c([H])c(F)c([H])c5F)c([H])c4[H])c(C(=O)N([H])[H])c3N([H])[H])C2([H])[H])c1[H]

>  <smiles>  (30) 
[H]c1c([H])c(Cl)c(C([H])([H])N2C(=O)C([H])([H])C([H])(Oc3c([H])c([H])c4c(c3[H])C([H])([H])N(C(=O)C([H])(N([H])C(=O)C([H])(N([H])C([H])([H])[H])C([H])([H])[H])C(C([H])([H])[H])(C([H])([H])[H])C([H])([H])[H])C([H])(C(=O)N([H])C3([H])c5c([H])c([H])c([H])c([H])c5C([H])([H])C([H])([H])C3([H])[H])C4([H])[H])C([H])([H])C2([H])[H])c(C([H])([H])N([H])C(=O)N2C([H])([H])C([H])([H])C([H])([H])C([H])(n3nc(-c4c([H])c([H])c(Oc5c([H])c([H])c(F)c([H])c5F)c([H])c4[H])c(C(=O)N([H])[H])c3N([H])[H])C2([H])[H])c1[H]

$$$$
30:0:0
     RDKit          3D

101109  0  0  1  0  0  0  0  0999 V2000
  -31.2700  -18.7430   20.5660 C   0  0  0  0  0  0  0  0  0  0  0  0
  -31.6720  -18.3710   21.7810 N   0  0  0  0  0  4  0  0  0  0  0  0
  -30.9770  -20.0300   20.3000 N   0  0  0  0  0  0  0  0  0  0  0  0
  -31.9860  -17.4280   21.9400 H   0  0  0  0  0  0  0  0  0  0  0  0
  -31.6350  -19.0070   22.5600 H   0  0  0  0  0  0  0  0  0  0  0  0
  -30.5890  -20.2240   19.3750 H   0  0  0  0  0  0  0  0  0  0  0  0
  -31.3890  -17.7300   16.9970 C   0  0  0  0  0  3  0  0  0  0  0  0
  -31.7710  -18.2340   18.2480 C   0  0  0  0  0  3  0  0  0  0  0  0
  -30.2580  -16.9140   16.9210 C   0  0  0  0  0  3  0  0  0  0  0  0
  -31.1150  -17.8170   19.4330 C   0  0  0  0  0  0  0  0  0  0  0  0
  -29.6060  -16.4830   18.0970 C   0  0  0  0  0  0  0  0  0  0  0  0
  -30.1750  -16.7340   19.3840 C   0  0  0  0  0  0  0  0  0  0  0  0
  -28.2060  -15.9230   17.9100 C   0  0  0  0  0  1  0  0  0  0  0  0
  -30.5790  -15.0500   21.1450 C   0  0  0  0  0  0  0  0  0  0  0  0
  -30.6440  -12.6700   20.6210 C   0  0  0  0  0  2  0  0  0  0  0  0
  -29.9270  -12.5540   19.2650 C   0  0  0  0  0  2  0  0  0  0  0  0
  -28.3910  -12.4200   19.4480 C   0  0  0  0  0  2  0  0  0  0  0  0
  -27.7860  -13.3960   20.5000 C   0  0  0  0  0  3  0  0  0  0  0  0
  -28.6720  -13.5180   21.7590 C   0  0  0  0  0  2  0  0  0  0  0  0
  -30.0400  -13.8130   21.3180 N   0  0  0  0  0  0  0  0  0  0  0  0
  -31.7940  -15.2610   21.2060 O   0  0  0  0  0  0  0  0  0  0  0  0
  -29.7590  -15.9590   20.5390 N   0  0  0  0  0  0  0  0  0  0  0  0
  -28.8040  -15.6400   20.5210 H   0  0  0  0  0  0  0  0  0  0  0  0
  -25.2980  -13.9300   20.8880 C   0  0  0  0  0  0  0  0  0  0  0  0
  -24.2190  -13.1230   21.1300 C   0  0  0  0  0  0  0  0  0  0  0  0
  -24.7280  -11.7900   21.1860 C   0  0  0  0  0  0  0  0  0  0  0  0
  -26.3950  -13.0810   20.8140 N   0  0  0  0  0  0  0  0  0  0  0  0
  -26.0470  -11.7940   21.0600 N   0  0  0  0  0  0  0  0  0  0  0  0
  -24.0280  -10.5070   21.3020 C   0  0  0  0  0  0  0  0  0  0  0  0
  -24.3560   -9.5760   22.3100 C   0  0  0  0  0  3  0  0  0  0  0  0
  -23.6560   -8.3560   22.4090 C   0  0  0  0  0  3  0  0  0  0  0  0
  -22.6160   -8.0560   21.5000 C   0  0  0  0  0  0  0  0  0  0  0  0
  -22.3100   -8.9760   20.4840 C   0  0  0  0  0  3  0  0  0  0  0  0
  -23.0110  -10.1900   20.3810 C   0  0  0  0  0  3  0  0  0  0  0  0
  -21.9020   -6.8820   21.5030 O   0  0  0  0  0  0  0  0  0  0  0  0
  -21.7050   -6.1640   22.6550 C   0  0  0  0  0  0  0  0  0  0  0  0
  -21.0330   -6.7160   23.7670 C   0  0  0  0  0  3  0  0  0  0  0  0
  -20.7840   -5.9230   24.9040 C   0  0  0  0  0  3  0  0  0  0  0  0
  -21.2000   -4.5780   24.9320 C   0  0  0  0  0  0  0  0  0  0  0  0
  -21.8650   -4.0260   23.8230 C   0  0  0  0  0  3  0  0  0  0  0  0
  -22.1110   -4.8150   22.6860 C   0  0  0  0  0  0  0  0  0  0  0  0
  -22.7320   -4.2690   21.6120 F   0  0  0  0  0  0  0  0  0  0  0  0
  -20.9550   -3.8130   26.0230 F   0  0  0  0  0  0  0  0  0  0  0  0
  -22.7820  -13.5500   21.2020 C   0  0  0  0  0  0  0  0  0  0  0  0
  -21.9660  -12.8450   21.9750 N   0  0  0  0  0  0  0  0  0  0  0  0
  -22.3820  -14.5490   20.6080 O   0  0  0  0  0  0  0  0  0  0  0  0
  -22.2910  -12.0370   22.4870 H   0  0  0  0  0  0  0  0  0  0  0  0
  -21.0000  -13.1230   22.0620 H   0  0  0  0  0  0  0  0  0  0  0  0
  -25.4290  -15.3040   20.7060 N   0  0  0  0  0  0  0  0  0  0  0  0
  -24.6300  -15.9290   20.7070 H   0  0  0  0  0  0  0  0  0  0  0  0
  -26.3000  -15.7780   20.5170 H   0  0  0  0  0  0  0  0  0  0  0  0
  -31.1310  -21.3120   21.0100 C   0  0  0  0  0  3  0  0  0  0  0  0
  -30.3300  -22.3100   20.1400 C   0  0  0  0  0  0  0  0  0  0  0  0
  -29.8420  -23.4260   20.7000 N   0  0  0  0  0  0  0  0  0  0  0  0
  -30.1670  -22.0530   18.9430 O   0  0  0  0  0  0  0  0  0  0  0  0
  -29.9780  -23.5560   21.6950 H   0  0  0  0  0  0  0  0  0  0  0  0
  -29.1930  -24.5130   19.9460 C   0  0  0  0  0  2  0  0  0  0  0  0
  -28.5290  -25.5830   20.8520 C   0  0  0  0  0  2  0  0  0  0  0  0
  -28.5220  -26.8840   20.2360 O   0  0  0  0  0  0  0  0  0  0  0  0
  -24.5740  -31.9970   23.2950 C   0  0  0  0  0  0  0  0  0  0  0  0
  -27.3300  -27.5770   20.2570 C   0  0  0  0  0  0  0  0  0  0  0  0
  -23.4130  -30.5630   21.6490 C   0  0  0  0  0  3  0  0  0  0  0  0
  -24.9110  -29.0400   20.2520 C   0  0  0  0  0  0  0  0  0  0  0  0
  -25.9370  -30.9620   21.4790 C   0  0  0  0  0  2  0  0  0  0  0  0
  -26.0550  -29.5870   20.8470 C   0  0  0  0  0  0  0  0  0  0  0  0
  -27.2680  -28.8640   20.8440 C   0  0  0  0  0  3  0  0  0  0  0  0
  -26.1740  -27.0460   19.6470 C   0  0  0  0  0  3  0  0  0  0  0  0
  -24.9650  -27.7690   19.6510 C   0  0  0  0  0  3  0  0  0  0  0  0
  -23.6490  -29.8740   20.2790 C   0  0  0  0  0  2  0  0  0  0  0  0
  -24.6590  -31.1900   22.1980 N   0  0  0  0  0  0  0  0  0  0  0  0
  -23.4830  -32.2510   23.8230 O   0  0  0  0  0  0  0  0  0  0  0  0
  -22.7690  -29.5360   22.6080 C   0  0  0  0  0  0  0  0  0  0  0  0
  -21.4520  -29.3200   22.4570 N   0  0  0  0  0  0  0  0  0  0  0  0
  -23.4530  -28.9380   23.4430 O   0  0  0  0  0  0  0  0  0  0  0  0
  -20.9630  -29.8490   21.7470 H   0  0  0  0  0  0  0  0  0  0  0  0
  -18.0960  -28.0480   22.8930 C   0  0  0  0  0  0  0  0  0  0  0  0
  -20.6420  -28.3700   23.2190 C   0  0  0  0  0  3  0  0  0  0  0  0
  -20.7930  -26.9360   22.6600 C   0  0  0  0  0  2  0  0  0  0  0  0
  -19.7200  -26.5780   21.6260 C   0  0  0  0  0  2  0  0  0  0  0  0
  -18.3210  -26.6950   22.2390 C   0  0  0  0  0  2  0  0  0  0  0  0
  -19.1870  -28.8410   23.3400 C   0  0  0  0  0  0  0  0  0  0  0  0
  -18.9230  -30.1060   23.9090 C   0  0  0  0  0  3  0  0  0  0  0  0
  -17.6030  -30.5780   24.0390 C   0  0  0  0  0  3  0  0  0  0  0  0
  -16.5270  -29.7800   23.6140 C   0  0  0  0  0  3  0  0  0  0  0  0
  -16.7760  -28.5180   23.0440 C   0  0  0  0  0  3  0  0  0  0  0  0
  -25.8420  -32.6550   23.9250 C   0  0  0  0  0  3  0  0  0  0  0  0
  -25.5100  -34.0560   24.2210 N   0  0  0  0  0  0  0  0  0  0  0  0
  -25.8600  -35.0970   23.4540 C   0  0  0  0  0  0  0  0  0  0  0  0
  -26.5610  -34.9810   22.4450 O   0  0  0  0  0  0  0  0  0  0  0  0
  -24.8870  -34.2190   24.9980 H   0  0  0  0  0  0  0  0  0  0  0  0
  -24.1370  -36.8760   23.0120 C   0  0  0  0  0  1  0  0  0  0  0  0
  -25.3510  -36.4890   23.8730 C   0  0  0  0  0  3  0  0  0  0  0  0
  -27.4450  -37.4010   24.7700 C   0  0  0  0  0  1  0  0  0  0  0  0
  -26.3800  -37.5480   23.7820 N   0  0  0  0  0  0  0  0  0  0  0  0
  -25.9600  -38.4650   23.9060 H   0  0  0  0  0  0  0  0  0  0  0  0
  -26.3460  -31.9110   25.2230 C   0  0  1  0  0  0  0  0  0  0  0  0
  -25.2410  -31.6690   26.2750 C   0  0  0  0  0  1  0  0  0  0  0  0
  -26.9560  -30.5380   24.8600 C   0  0  0  0  0  1  0  0  0  0  0  0
  -27.4680  -32.7380   25.8970 C   0  0  0  0  0  1  0  0  0  0  0  0
  -32.9770  -22.9910   21.8080 C   0  0  0  0  0  1  0  0  0  0  0  0
  -32.6330  -21.6900   21.0640 C   0  0  0  0  0  2  0  0  0  0  0  0
  1  2  2  0
  2  4  1  0
  2  5  1  0
  3  1  1  0
  3 52  1  0
  6  3  1  0
  7  8  1  0
  8 10  2  0
  9  7  2  0
  9 11  1  0
 10  1  1  0
 11 12  2  0
 12 10  1  0
 12 22  1  0
 13 11  1  0
 14 21  2  0
 14 20  1  0
 15 20  1  0
 16 17  1  0
 16 15  1  0
 18 17  1  0
 18 27  1  0
 18 19  1  0
 20 19  1  0
 22 14  1  0
 23 22  1  0
 24 25  2  0
 25 26  1  0
 25 44  1  0
 26 29  1  0
 27 24  1  0
 27 28  1  0
 28 26  2  0
 29 30  1  0
 30 31  2  0
 32 35  1  0
 32 31  1  0
 33 32  2  0
 34 33  1  0
 34 29  2  0
 35 36  1  0
 36 41  2  0
 36 37  1  0
 37 38  2  0
 38 39  1  0
 39 43  1  0
 40 39  2  0
 41 40  1  0
 42 41  1  0
 44 45  1  0
 45 48  1  0
 45 47  1  0
 46 44  2  0
 49 50  1  0
 49 24  1  0
 51 49  1  0
 52101  1  0
 53 54  1  0
 53 52  1  0
 54 56  1  0
 55 53  2  0
 57 54  1  0
 57 58  1  0
 59 61  1  0
 59 58  1  0
 60 71  2  0
 61 66  1  0
 62 70  1  0
 62 72  1  0
 63 69  1  0
 63 65  1  0
 64 70  1  0
 65 64  1  0
 66 65  2  0
 67 68  1  0
 67 61  2  0
 68 63  2  0
 69 62  1  0
 70 60  1  0
 72 74  2  0
 73 72  1  0
 75 73  1  0
 76 85  2  0
 76 81  1  0
 77 73  1  0
 77 81  1  0
 78 77  1  0
 79 80  1  0
 79 78  1  0
 80 76  1  0
 81 82  2  0
 82 83  1  0
 84 83  2  0
 85 84  1  0
 86 60  1  0
 86 87  1  0
 86 96  1  0
 87 90  1  0
 88 92  1  0
 88 87  1  0
 89 88  2  0
 92 91  1  0
 94 92  1  0
 94 95  1  0
 94 93  1  0
 96 99  1  1
 96 97  1  0
 98 96  1  0
101100  1  0
M  ISO  4  14 100  22 100  58 101  59 101
M  END
>  <TORSDO>  (31) 
F 22

>  <SCORE>  (31) 
-7.173

>  <name>  (31) 
30

>  <ligand_id>  (31) 
30

>  <original_smiles>  (31) 
[H]c1c([H])c(C(N([H])[H])=[N+]([H])C([H])(C(=O)N([H])C([H])([H])C([H])([H])Oc2c([H])c([H])c3c(c2[H])C([H])([H])N(C(=O)C([H])(N([H])C(=O)C([H])(N([H])C([H])([H])[H])C([H])([H])[H])C(C([H])([H])[H])(C([H])([H])[H])C([H])([H])[H])C([H])(C(=O)N([H])C2([H])c4c([H])c([H])c([H])c([H])c4C([H])([H])C([H])([H])C2([H])[H])C3([H])[H])C([H])([H])C([H])([H])[H])c(N([H])C(=O)N2C([H])([H])C([H])([H])C([H])([H])C([H])(n3nc(-c4c([H])c([H])c(Oc5c([H])c([H])c(F)c([H])c5F)c([H])c4[H])c(C(=O)N([H])[H])c3N([H])[H])C2([H])[H])c(C([H])([H])[H])c1[H]

>  <smiles>  (31) 
[H]c1c([H])c(C(N([H])[H])=[N+]([H])C([H])(C(=O)N([H])C([H])([H])C([H])([H])Oc2c([H])c([H])c3c(c2[H])C([H])([H])N(C(=O)C([H])(N([H])C(=O)C([H])(N([H])C([H])([H])[H])C([H])([H])[H])C(C([H])([H])[H])(C([H])([H])[H])C([H])([H])[H])C([H])(C(=O)N([H])C2([H])c4c([H])c([H])c([H])c([H])c4C([H])([H])C([H])([H])C2([H])[H])C3([H])[H])C([H])([H])C([H])([H])[H])c(N([H])C(=O)N2C([H])([H])C([H])([H])C([H])([H])C([H])(n3nc(-c4c([H])c([H])c(Oc5c([H])c([H])c(F)c([H])c5F)c([H])c4[H])c(C(=O)N([H])[H])c3N([H])[H])C2([H])[H])c(C([H])([H])[H])c1[H]

$$$$
31:0:0
     RDKit          3D

 95103  0  0  1  0  0  0  0  0999 V2000
  -29.9660  -20.5400   20.0140 C   0  0  0  0  0  0  0  0  0  0  0  0
  -29.4320  -21.6770   20.5370 N   0  0  0  0  0  0  0  0  0  0  0  0
  -30.3110  -20.4770   18.8340 O   0  0  0  0  0  0  0  0  0  0  0  0
  -29.0850  -21.6100   21.4820 H   0  0  0  0  0  0  0  0  0  0  0  0
  -31.0980  -18.2270   22.9120 C   0  0  0  0  0  3  0  0  0  0  0  0
  -30.9170  -16.9520   22.3430 C   0  0  0  0  0  3  0  0  0  0  0  0
  -30.0000  -18.0070   20.3520 C   0  0  0  0  0  3  0  0  0  0  0  0
  -30.1980  -19.3160   20.9010 C   0  0  0  0  0  0  0  0  0  0  0  0
  -30.7590  -19.4060   22.2110 C   0  0  0  0  0  0  0  0  0  0  0  0
  -30.3720  -16.8230   21.0520 C   0  0  0  0  0  0  0  0  0  0  0  0
  -31.0510  -20.7330   22.9050 C   0  0  0  0  0  1  0  0  0  0  0  0
  -30.8620  -14.5090   20.1350 C   0  0  0  0  0  0  0  0  0  0  0  0
  -30.5590  -12.3570   18.9380 C   0  0  0  0  0  2  0  0  0  0  0  0
  -29.5630  -12.5730   17.7760 C   0  0  0  0  0  2  0  0  0  0  0  0
  -28.1040  -12.4380   18.2650 C   0  0  0  0  0  2  0  0  0  0  0  0
  -27.8240  -13.2600   19.5510 C   0  0  0  0  0  3  0  0  0  0  0  0
  -28.9170  -12.9870   20.6070 C   0  0  0  0  0  2  0  0  0  0  0  0
  -30.2160  -13.3170   19.9990 N   0  0  0  0  0  0  0  0  0  0  0  0
  -32.0010  -14.7070   19.6980 O   0  0  0  0  0  0  0  0  0  0  0  0
  -30.0550  -15.5140   20.5630 N   0  0  0  0  0  0  0  0  0  0  0  0
  -29.1090  -15.2130   20.7370 H   0  0  0  0  0  0  0  0  0  0  0  0
  -25.4750  -13.9140   20.3730 C   0  0  0  0  0  0  0  0  0  0  0  0
  -24.4060  -13.1600   20.7790 C   0  0  0  0  0  0  0  0  0  0  0  0
  -24.8360  -11.8000   20.7120 C   0  0  0  0  0  0  0  0  0  0  0  0
  -26.4880  -13.0120   20.0830 N   0  0  0  0  0  0  0  0  0  0  0  0
  -26.1100  -11.7350   20.3440 N   0  0  0  0  0  0  0  0  0  0  0  0
  -24.0910  -10.5510   20.9180 C   0  0  0  0  0  0  0  0  0  0  0  0
  -24.5210   -9.5840   21.8520 C   0  0  0  0  0  3  0  0  0  0  0  0
  -23.7790   -8.3980   22.0460 C   0  0  0  0  0  3  0  0  0  0  0  0
  -22.5940   -8.1750   21.3060 C   0  0  0  0  0  0  0  0  0  0  0  0
  -22.1840   -9.1310   20.3600 C   0  0  0  0  0  3  0  0  0  0  0  0
  -22.9260  -10.3080   20.1650 C   0  0  0  0  0  3  0  0  0  0  0  0
  -21.8230   -7.0420   21.4080 O   0  0  0  0  0  0  0  0  0  0  0  0
  -21.7450   -6.3270   22.5760 C   0  0  0  0  0  0  0  0  0  0  0  0
  -21.2900   -6.9110   23.7780 C   0  0  0  0  0  3  0  0  0  0  0  0
  -21.1610   -6.1230   24.9400 C   0  0  0  0  0  3  0  0  0  0  0  0
  -21.4740   -4.7520   24.8970 C   0  0  0  0  0  0  0  0  0  0  0  0
  -21.9240   -4.1670   23.7000 C   0  0  0  0  0  3  0  0  0  0  0  0
  -22.0560   -4.9520   22.5420 C   0  0  0  0  0  0  0  0  0  0  0  0
  -22.4680   -4.3800   21.3860 F   0  0  0  0  0  0  0  0  0  0  0  0
  -21.3430   -3.9920   26.0110 F   0  0  0  0  0  0  0  0  0  0  0  0
  -23.0330  -13.6650   21.1180 C   0  0  0  0  0  0  0  0  0  0  0  0
  -22.3290  -12.9770   22.0100 N   0  0  0  0  0  0  0  0  0  0  0  0
  -22.5940  -14.7030   20.6250 O   0  0  0  0  0  0  0  0  0  0  0  0
  -22.6970  -12.1380   22.4340 H   0  0  0  0  0  0  0  0  0  0  0  0
  -21.4080  -13.2950   22.2740 H   0  0  0  0  0  0  0  0  0  0  0  0
  -25.6580  -15.2850   20.2080 N   0  0  0  0  0  0  0  0  0  0  0  0
  -24.9010  -15.9430   20.3540 H   0  0  0  0  0  0  0  0  0  0  0  0
  -26.4890  -15.7210   19.8300 H   0  0  0  0  0  0  0  0  0  0  0  0
  -29.6500  -23.0470   19.9870 C   0  0  0  0  0  2  0  0  0  0  0  0
  -27.1410  -23.1110   19.5320 C   0  0  0  0  0  1  0  0  0  0  0  0
  -28.6700  -24.6610   18.3140 C   0  0  0  0  0  1  0  0  0  0  0  0
  -28.4080  -23.9840   19.6780 C   0  0  2  0  0  0  0  0  0  0  0  0
  -28.1820  -25.1390   20.7430 C   0  0  0  0  0  2  0  0  0  0  0  0
  -28.3530  -26.5260   20.3080 O   0  0  0  0  0  0  0  0  0  0  0  0
  -24.6190  -31.9020   23.2120 C   0  0  0  0  0  0  0  0  0  0  0  0
  -27.2170  -27.3220   20.2620 C   0  0  0  0  0  0  0  0  0  0  0  0
  -23.4070  -30.4650   21.6080 C   0  0  0  0  0  3  0  0  0  0  0  0
  -24.8470  -28.8850   20.2170 C   0  0  0  0  0  0  0  0  0  0  0  0
  -25.9410  -30.7960   21.4050 C   0  0  0  0  0  2  0  0  0  0  0  0
  -26.0140  -29.4060   20.7940 C   0  0  0  0  0  0  0  0  0  0  0  0
  -27.2050  -28.6350   20.8020 C   0  0  0  0  0  3  0  0  0  0  0  0
  -26.0350  -26.8360   19.6680 C   0  0  0  0  0  3  0  0  0  0  0  0
  -24.8570  -27.6030   19.6440 C   0  0  0  0  0  3  0  0  0  0  0  0
  -23.6100  -29.7560   20.2430 C   0  0  0  0  0  2  0  0  0  0  0  0
  -24.6740  -31.0710   22.1320 N   0  0  0  0  0  0  0  0  0  0  0  0
  -23.5370  -32.1920   23.7430 O   0  0  0  0  0  0  0  0  0  0  0  0
  -22.7470  -29.4710   22.5940 C   0  0  0  0  0  0  0  0  0  0  0  0
  -21.4260  -29.2660   22.4490 N   0  0  0  0  0  0  0  0  0  0  0  0
  -23.4220  -28.8870   23.4470 O   0  0  0  0  0  0  0  0  0  0  0  0
  -20.9420  -29.7950   21.7370 H   0  0  0  0  0  0  0  0  0  0  0  0
  -18.0670  -27.9990   22.8910 C   0  0  0  0  0  0  0  0  0  0  0  0
  -20.6060  -28.3440   23.2360 C   0  0  0  0  0  3  0  0  0  0  0  0
  -20.7660  -26.8890   22.7370 C   0  0  0  0  0  2  0  0  0  0  0  0
  -19.7090  -26.4840   21.7050 C   0  0  0  0  0  2  0  0  0  0  0  0
  -18.3020  -26.6220   22.2920 C   0  0  0  0  0  2  0  0  0  0  0  0
  -19.1500  -28.8110   23.3190 C   0  0  0  0  0  0  0  0  0  0  0  0
  -18.8790  -30.0960   23.8380 C   0  0  0  0  0  3  0  0  0  0  0  0
  -17.5570  -30.5700   23.9330 C   0  0  0  0  0  3  0  0  0  0  0  0
  -16.4870  -29.7550   23.5210 C   0  0  0  0  0  3  0  0  0  0  0  0
  -16.7430  -28.4710   23.0070 C   0  0  0  0  0  3  0  0  0  0  0  0
  -25.9070  -32.5440   23.8170 C   0  0  0  0  0  3  0  0  0  0  0  0
  -26.4470  -31.7750   25.0840 C   0  0  1  0  0  0  0  0  0  0  0  0
  -25.3680  -31.5240   26.1620 C   0  0  0  0  0  1  0  0  0  0  0  0
  -27.0390  -30.4050   24.6800 C   0  0  0  0  0  1  0  0  0  0  0  0
  -27.5990  -32.5800   25.7310 C   0  0  0  0  0  1  0  0  0  0  0  0
  -25.5940  -33.9400   24.1540 N   0  0  0  0  0  0  0  0  0  0  0  0
  -25.9160  -34.9970   23.3950 C   0  0  0  0  0  0  0  0  0  0  0  0
  -26.5830  -34.9000   22.3610 O   0  0  0  0  0  0  0  0  0  0  0  0
  -25.0120  -34.0940   24.9630 H   0  0  0  0  0  0  0  0  0  0  0  0
  -24.1860  -36.7840   23.0400 C   0  0  0  0  0  1  0  0  0  0  0  0
  -25.4220  -36.3800   23.8600 C   0  0  0  0  0  3  0  0  0  0  0  0
  -27.5440  -37.2600   24.7180 C   0  0  0  0  0  1  0  0  0  0  0  0
  -26.4530  -37.4360   23.7650 N   0  0  0  0  0  0  0  0  0  0  0  0
  -26.0440  -38.3550   23.9170 H   0  0  0  0  0  0  0  0  0  0  0  0
  1  2  1  0
  1  8  1  0
  2  4  1  0
  3  1  2  0
  6  5  1  0
  7  8  2  0
  7 10  1  0
  8  9  1  0
  9 11  1  0
  9  5  2  0
 10  6  2  0
 12 20  1  0
 13 18  1  0
 14 15  1  0
 14 13  1  0
 16 15  1  0
 16 25  1  0
 16 17  1  0
 18 12  1  0
 18 17  1  0
 19 12  2  0
 20 21  1  0
 20 10  1  0
 22 23  2  0
 23 42  1  0
 24 23  1  0
 24 27  1  0
 25 26  1  0
 25 22  1  0
 26 24  2  0
 27 28  1  0
 28 29  2  0
 30 33  1  0
 30 29  1  0
 31 30  2  0
 32 31  1  0
 32 27  2  0
 33 34  1  0
 34 35  1  0
 35 36  2  0
 37 36  1  0
 37 41  1  0
 38 37  2  0
 39 34  2  0
 39 38  1  0
 40 39  1  0
 42 43  1  0
 43 46  1  0
 43 45  1  0
 44 42  2  0
 47 48  1  0
 47 22  1  0
 49 47  1  0
 50  2  1  0
 53 51  1  6
 52 53  1  0
 53 50  1  0
 53 54  1  0
 55 54  1  0
 56 67  2  0
 57 55  1  0
 57 62  1  0
 58 66  1  0
 58 68  1  0
 59 65  1  0
 59 61  1  0
 60 66  1  0
 61 62  2  0
 61 60  1  0
 63 57  2  0
 64 63  1  0
 64 59  2  0
 65 58  1  0
 66 56  1  0
 68 70  2  0
 69 68  1  0
 71 69  1  0
 72 81  2  0
 72 77  1  0
 73 69  1  0
 73 77  1  0
 74 73  1  0
 75 76  1  0
 75 74  1  0
 76 72  1  0
 77 78  2  0
 78 79  1  0
 80 79  2  0
 81 80  1  0
 82 56  1  0
 82 87  1  0
 82 83  1  0
 83 86  1  1
 83 84  1  0
 85 83  1  0
 87 90  1  0
 88 92  1  0
 88 87  1  0
 89 88  2  0
 92 91  1  0
 94 92  1  0
 94 95  1  0
 94 93  1  0
M  ISO  4  12 100  20 100  54 101  55 101
M  END
>  <TORSDO>  (32) 
F 20

>  <SCORE>  (32) 
-13.647

>  <name>  (32) 
31

>  <ligand_id>  (32) 
31

>  <original_smiles>  (32) 
[H]c1c([H])c([H])c2c(c1[H])C([H])([H])C([H])([H])C([H])([H])C2([H])N([H])C(=O)C1([H])N(C(=O)C([H])(N([H])C(=O)C([H])(N([H])C([H])([H])[H])C([H])([H])[H])C(C([H])([H])[H])(C([H])([H])[H])C([H])([H])[H])C([H])([H])c2c([H])c(OC([H])([H])C(C([H])([H])[H])(C([H])([H])[H])C([H])([H])N([H])C(=O)c3c([H])c(N([H])C(=O)N4C([H])([H])C([H])([H])C([H])([H])C([H])(n5nc(-c6c([H])c([H])c(Oc7c([H])c([H])c(F)c([H])c7F)c([H])c6[H])c(C(=O)N([H])[H])c5N([H])[H])C4([H])[H])c([H])c([H])c3C([H])([H])[H])c([H])c([H])c2C1([H])[H]

>  <smiles>  (32) 
[H]c1c([H])c([H])c2c(c1[H])C([H])([H])C([H])([H])C([H])([H])C2([H])N([H])C(=O)C1([H])N(C(=O)C([H])(N([H])C(=O)C([H])(N([H])C([H])([H])[H])C([H])([H])[H])C(C([H])([H])[H])(C([H])([H])[H])C([H])([H])[H])C([H])([H])c2c([H])c(OC([H])([H])C(C([H])([H])[H])(C([H])([H])[H])C([H])([H])N([H])C(=O)c3c([H])c(N([H])C(=O)N4C([H])([H])C([H])([H])C([H])([H])C([H])(n5nc(-c6c([H])c([H])c(Oc7c([H])c([H])c(F)c([H])c7F)c([H])c6[H])c(C(=O)N([H])[H])c5N([H])[H])C4([H])[H])c([H])c([H])c3C([H])([H])[H])c([H])c([H])c2C1([H])[H]

$$$$
32:0:0
     RDKit          3D

 94102  0  0  1  0  0  0  0  0999 V2000
  -28.9350  -21.3090   18.9950 C   0  0  0  0  0  0  0  0  0  0  0  0
  -30.5760  -20.8970   20.8100 C   0  0  0  0  0  1  0  0  0  0  0  0
  -29.7520  -20.4120   19.6840 N   0  0  0  0  0  0  0  0  0  0  0  0
  -28.0330  -20.8580   18.2730 O   0  0  0  0  0  0  0  0  0  0  0  0
  -29.1830  -22.7960   19.0820 C   0  0  0  0  0  3  0  0  0  0  0  0
  -28.2880  -23.7360   18.6250 C   0  0  0  0  0  3  0  0  0  0  0  0
  -28.4060  -25.2960   18.4180 C   0  0  0  0  0  2  0  0  0  0  0  0
  -28.1400  -26.2770   19.4930 O   0  0  0  0  0  0  0  0  0  0  0  0
  -24.5770  -31.5540   22.9370 C   0  0  0  0  0  0  0  0  0  0  0  0
  -26.9940  -27.0850   19.5380 C   0  0  0  0  0  0  0  0  0  0  0  0
  -23.2750  -30.2140   21.3230 C   0  0  0  0  0  3  0  0  0  0  0  0
  -24.6320  -28.6820   19.7710 C   0  0  0  0  0  0  0  0  0  0  0  0
  -25.8020  -30.5140   21.0000 C   0  0  0  0  0  2  0  0  0  0  0  0
  -25.8310  -29.1480   20.3160 C   0  0  0  0  0  0  0  0  0  0  0  0
  -27.0050  -28.3470   20.2090 C   0  0  0  0  0  3  0  0  0  0  0  0
  -25.7640  -26.6570   19.0010 C   0  0  0  0  0  3  0  0  0  0  0  0
  -24.5940  -27.4290   19.1270 C   0  0  0  0  0  3  0  0  0  0  0  0
  -23.4120  -29.5780   19.9100 C   0  0  0  0  0  2  0  0  0  0  0  0
  -24.5770  -30.7790   21.8080 N   0  0  0  0  0  0  0  0  0  0  0  0
  -23.5260  -31.8180   23.5370 O   0  0  0  0  0  0  0  0  0  0  0  0
  -22.6690  -29.1650   22.2820 C   0  0  0  0  0  0  0  0  0  0  0  0
  -21.3400  -28.9590   22.1890 N   0  0  0  0  0  0  0  0  0  0  0  0
  -23.3840  -28.5370   23.0700 O   0  0  0  0  0  0  0  0  0  0  0  0
  -20.8070  -29.5380   21.5530 H   0  0  0  0  0  0  0  0  0  0  0  0
  -17.9960  -27.6930   22.7460 C   0  0  0  0  0  0  0  0  0  0  0  0
  -20.5620  -27.9720   22.9360 C   0  0  0  0  0  3  0  0  0  0  0  0
  -20.6700  -26.5720   22.3000 C   0  0  0  0  0  2  0  0  0  0  0  0
  -19.5240  -26.2380   21.3390 C   0  0  0  0  0  2  0  0  0  0  0  0
  -18.1590  -26.3620   22.0270 C   0  0  0  0  0  2  0  0  0  0  0  0
  -19.1260  -28.4490   23.1620 C   0  0  0  0  0  0  0  0  0  0  0  0
  -18.9140  -29.6900   23.8060 C   0  0  0  0  0  3  0  0  0  0  0  0
  -17.6130  -30.1700   24.0420 C   0  0  0  0  0  3  0  0  0  0  0  0
  -16.5020  -29.4100   23.6420 C   0  0  0  0  0  3  0  0  0  0  0  0
  -16.6980  -28.1750   22.9970 C   0  0  0  0  0  3  0  0  0  0  0  0
  -25.8960  -32.1650   23.5090 C   0  0  0  0  0  3  0  0  0  0  0  0
  -26.5400  -31.2780   24.6430 C   0  0  1  0  0  0  0  0  0  0  0  0
  -25.5500  -30.8690   25.7590 C   0  0  0  0  0  1  0  0  0  0  0  0
  -27.1400  -29.9840   24.0450 C   0  0  0  0  0  1  0  0  0  0  0  0
  -27.7110  -32.0420   25.3060 C   0  0  0  0  0  1  0  0  0  0  0  0
  -25.5790  -33.5060   24.0230 N   0  0  0  0  0  0  0  0  0  0  0  0
  -25.8580  -34.6510   23.3890 C   0  0  0  0  0  0  0  0  0  0  0  0
  -26.4710  -34.6900   22.3170 O   0  0  0  0  0  0  0  0  0  0  0  0
  -25.0370  -33.5420   24.8730 H   0  0  0  0  0  0  0  0  0  0  0  0
  -24.1360  -36.4890   23.2970 C   0  0  0  0  0  1  0  0  0  0  0  0
  -25.3760  -35.9630   24.0410 C   0  0  0  0  0  3  0  0  0  0  0  0
  -27.4960  -36.7310   25.0150 C   0  0  0  0  0  1  0  0  0  0  0  0
  -26.4130  -37.0170   24.0780 N   0  0  0  0  0  0  0  0  0  0  0  0
  -26.0080  -37.9150   24.3280 H   0  0  0  0  0  0  0  0  0  0  0  0
  -29.5210  -18.8800   19.5870 C   0  0  0  0  0  2  0  0  0  0  0  0
  -30.6580  -17.8600   23.1030 C   0  0  0  0  0  3  0  0  0  0  0  0
  -29.9140  -18.3930   22.0390 C   0  0  0  0  0  3  0  0  0  0  0  0
  -31.3180  -16.6380   22.9260 C   0  0  0  0  0  3  0  0  0  0  0  0
  -29.9960  -17.8680   20.7220 C   0  0  0  0  0  0  0  0  0  0  0  0
  -30.4440  -16.4740   20.6120 C   0  0  0  0  0  0  0  0  0  0  0  0
  -31.1130  -15.9040   21.7500 C   0  0  0  0  0  0  0  0  0  0  0  0
  -31.5160  -14.6070   21.7710 F   0  0  0  0  0  0  0  0  0  0  0  0
  -30.8000  -14.4190   19.1010 C   0  0  0  0  0  0  0  0  0  0  0  0
  -30.3810  -12.1480   18.1540 C   0  0  0  0  0  2  0  0  0  0  0  0
  -29.2150  -12.1460   17.1410 C   0  0  0  0  0  2  0  0  0  0  0  0
  -27.8470  -12.0520   17.8460 C   0  0  0  0  0  2  0  0  0  0  0  0
  -27.7250  -13.0040   19.0620 C   0  0  0  0  0  3  0  0  0  0  0  0
  -28.9680  -12.9090   19.9740 C   0  0  0  0  0  2  0  0  0  0  0  0
  -30.1270  -13.2270   19.1340 N   0  0  0  0  0  0  0  0  0  0  0  0
  -31.8760  -14.5030   18.5020 O   0  0  0  0  0  0  0  0  0  0  0  0
  -30.1250  -15.5610   19.5100 N   0  0  0  0  0  0  0  0  0  0  0  0
  -29.1660  -15.6460   19.2040 H   0  0  0  0  0  0  0  0  0  0  0  0
  -25.6240  -13.7240   20.3360 C   0  0  0  0  0  0  0  0  0  0  0  0
  -24.5830  -13.0170   20.8560 C   0  0  0  0  0  0  0  0  0  0  0  0
  -24.8810  -11.6340   20.6180 C   0  0  0  0  0  0  0  0  0  0  0  0
  -26.4950  -12.7880   19.8100 N   0  0  0  0  0  0  0  0  0  0  0  0
  -26.0730  -11.5160   20.0410 N   0  0  0  0  0  0  0  0  0  0  0  0
  -24.0750  -10.4250   20.8480 C   0  0  0  0  0  0  0  0  0  0  0  0
  -24.4800   -9.4330   21.7720 C   0  0  0  0  0  3  0  0  0  0  0  0
  -23.6710   -8.3000   21.9980 C   0  0  0  0  0  3  0  0  0  0  0  0
  -22.4500   -8.1470   21.2990 C   0  0  0  0  0  0  0  0  0  0  0  0
  -22.0650   -9.1220   20.3660 C   0  0  0  0  0  3  0  0  0  0  0  0
  -22.8690  -10.2520   20.1400 C   0  0  0  0  0  3  0  0  0  0  0  0
  -21.6170   -7.0660   21.4210 O   0  0  0  0  0  0  0  0  0  0  0  0
  -21.4870   -6.3920   22.6080 C   0  0  0  0  0  0  0  0  0  0  0  0
  -20.9930   -7.0210   23.7710 C   0  0  0  0  0  3  0  0  0  0  0  0
  -20.8420   -6.2800   24.9610 C   0  0  0  0  0  3  0  0  0  0  0  0
  -21.1500   -4.9050   24.9760 C   0  0  0  0  0  0  0  0  0  0  0  0
  -21.6210   -4.2720   23.8090 C   0  0  0  0  0  3  0  0  0  0  0  0
  -21.7910   -5.0150   22.6290 C   0  0  0  0  0  0  0  0  0  0  0  0
  -22.2340   -4.4030   21.5050 F   0  0  0  0  0  0  0  0  0  0  0  0
  -20.9850   -4.1860   26.1100 F   0  0  0  0  0  0  0  0  0  0  0  0
  -23.3270  -13.5780   21.4510 C   0  0  0  0  0  0  0  0  0  0  0  0
  -22.8020  -12.9490   22.4920 N   0  0  0  0  0  0  0  0  0  0  0  0
  -22.8330  -14.6190   21.0110 O   0  0  0  0  0  0  0  0  0  0  0  0
  -23.2210  -12.1060   22.8570 H   0  0  0  0  0  0  0  0  0  0  0  0
  -21.9750  -13.3130   22.9460 H   0  0  0  0  0  0  0  0  0  0  0  0
  -25.8940  -15.0880   20.2410 N   0  0  0  0  0  0  0  0  0  0  0  0
  -25.2240  -15.7830   20.5590 H   0  0  0  0  0  0  0  0  0  0  0  0
  -26.6520  -15.4770   19.7000 H   0  0  0  0  0  0  0  0  0  0  0  0
  1  5  1  0
  1  3  1  0
  3  2  1  0
  4  1  2  0
  6  5  2  0
  7  6  1  0
  7  8  1  0
  8 10  1  0
  9 20  2  0
 10 15  1  0
 11 19  1  0
 11 21  1  0
 12 18  1  0
 12 14  1  0
 13 19  1  0
 14 13  1  0
 15 14  2  0
 16 17  1  0
 16 10  2  0
 17 12  2  0
 18 11  1  0
 19  9  1  0
 21 23  2  0
 22 21  1  0
 24 22  1  0
 25 34  2  0
 25 30  1  0
 26 22  1  0
 26 30  1  0
 27 26  1  0
 28 29  1  0
 28 27  1  0
 29 25  1  0
 30 31  2  0
 31 32  1  0
 33 32  2  0
 34 33  1  0
 35  9  1  0
 35 40  1  0
 35 36  1  0
 36 39  1  1
 36 37  1  0
 38 36  1  0
 40 43  1  0
 41 40  1  0
 41 45  1  0
 42 41  2  0
 45 44  1  0
 45 47  1  0
 47 48  1  0
 47 46  1  0
 49  3  1  0
 49 53  1  0
 51 50  2  0
 52 50  1  0
 53 51  1  0
 54 53  2  0
 54 55  1  0
 55 56  1  0
 55 52  2  0
 57 63  1  0
 57 65  1  0
 58 63  1  0
 59 60  1  0
 59 58  1  0
 61 60  1  0
 61 70  1  0
 61 62  1  0
 63 62  1  0
 64 57  2  0
 65 54  1  0
 66 65  1  0
 67 68  2  0
 68 87  1  0
 69 72  1  0
 69 68  1  0
 70 71  1  0
 70 67  1  0
 71 69  2  0
 72 73  1  0
 73 74  2  0
 75 78  1  0
 75 74  1  0
 76 75  2  0
 77 76  1  0
 77 72  2  0
 78 79  1  0
 79 84  2  0
 79 80  1  0
 80 81  2  0
 81 82  1  0
 82 86  1  0
 83 82  2  0
 84 83  1  0
 85 84  1  0
 87 88  1  0
 88 90  1  0
 88 91  1  0
 89 87  2  0
 92 67  1  0
 92 93  1  0
 94 92  1  0
M  ISO  4   7 101   8 101  57 100  65 100
M  END
>  <TORSDO>  (33) 
F 20

>  <SCORE>  (33) 
-10.195

>  <name>  (33) 
32

>  <ligand_id>  (33) 
32

>  <original_smiles>  (33) 
[H]C(C(=O)N(C([H])([H])[H])C([H])([H])c1c([H])c([H])c([H])c(F)c1N([H])C(=O)N1C([H])([H])C([H])([H])C([H])([H])C([H])(n2nc(-c3c([H])c([H])c(Oc4c([H])c([H])c(F)c([H])c4F)c([H])c3[H])c(C(=O)N([H])[H])c2N([H])[H])C1([H])[H])=C([H])C([H])([H])Oc1c([H])c([H])c2c(c1[H])C([H])([H])N(C(=O)C([H])(N([H])C(=O)C([H])(N([H])C([H])([H])[H])C([H])([H])[H])C(C([H])([H])[H])(C([H])([H])[H])C([H])([H])[H])C([H])(C(=O)N([H])C1([H])c3c([H])c([H])c([H])c([H])c3C([H])([H])C([H])([H])C1([H])[H])C2([H])[H]

>  <smiles>  (33) 
[H]C(C(=O)N(C([H])([H])[H])C([H])([H])c1c([H])c([H])c([H])c(F)c1N([H])C(=O)N1C([H])([H])C([H])([H])C([H])([H])C([H])(n2nc(-c3c([H])c([H])c(Oc4c([H])c([H])c(F)c([H])c4F)c([H])c3[H])c(C(=O)N([H])[H])c2N([H])[H])C1([H])[H])=C([H])C([H])([H])Oc1c([H])c([H])c2c(c1[H])C([H])([H])N(C(=O)C([H])(N([H])C(=O)C([H])(N([H])C([H])([H])[H])C([H])([H])[H])C(C([H])([H])[H])(C([H])([H])[H])C([H])([H])[H])C([H])(C(=O)N([H])C1([H])c3c([H])c([H])c([H])c([H])c3C([H])([H])C([H])([H])C1([H])[H])C2([H])[H]

$$$$
33:0:0
     RDKit          3D

 95104  0  0  1  0  0  0  0  0999 V2000
  -28.6500  -22.8060   21.3620 C   0  0  0  0  0  0  0  0  0  0  0  0
  -28.4000  -24.3350   18.8740 C   0  0  0  0  0  2  0  0  0  0  0  0
  -28.9950  -22.8930   18.9100 C   0  0  0  0  0  2  0  0  0  0  0  0
  -28.2750  -24.3250   21.4000 C   0  0  0  0  0  3  0  0  0  0  0  0
  -28.7380  -25.1390   20.1490 C   0  0  0  0  0  3  0  0  0  0  0  0
  -26.7600  -24.4260   21.6780 C   0  0  0  0  0  1  0  0  0  0  0  0
  -28.7780  -22.1410   20.1750 N   0  0  0  0  0  0  0  0  0  0  0  0
  -28.6900  -22.2070   22.4410 O   0  0  0  0  0  0  0  0  0  0  0  0
  -28.6220  -26.6230   20.1720 O   0  0  0  0  0  0  0  0  0  0  0  0
  -24.6940  -31.7650   23.2970 C   0  0  0  0  0  0  0  0  0  0  0  0
  -27.4410  -27.3760   20.1480 C   0  0  0  0  0  0  0  0  0  0  0  0
  -23.5430  -30.4150   21.5740 C   0  0  0  0  0  3  0  0  0  0  0  0
  -25.0480  -28.9420   20.1260 C   0  0  0  0  0  0  0  0  0  0  0  0
  -26.0730  -30.7950   21.4490 C   0  0  0  0  0  2  0  0  0  0  0  0
  -26.1930  -29.4380   20.7650 C   0  0  0  0  0  0  0  0  0  0  0  0
  -27.3900  -28.6660   20.7620 C   0  0  0  0  0  3  0  0  0  0  0  0
  -26.2720  -26.9280   19.4990 C   0  0  0  0  0  3  0  0  0  0  0  0
  -25.0900  -27.6950   19.4860 C   0  0  0  0  0  3  0  0  0  0  0  0
  -23.8000  -29.7990   20.1720 C   0  0  0  0  0  2  0  0  0  0  0  0
  -24.7860  -31.0070   22.1660 N   0  0  0  0  0  0  0  0  0  0  0  0
  -23.5960  -31.9990   23.8240 O   0  0  0  0  0  0  0  0  0  0  0  0
  -22.8800  -29.3500   22.4790 C   0  0  0  0  0  0  0  0  0  0  0  0
  -21.5640  -29.1470   22.3020 N   0  0  0  0  0  0  0  0  0  0  0  0
  -23.5500  -28.7140   23.2970 O   0  0  0  0  0  0  0  0  0  0  0  0
  -21.0880  -29.7080   21.6100 H   0  0  0  0  0  0  0  0  0  0  0  0
  -18.1960  -27.8800   22.6520 C   0  0  0  0  0  0  0  0  0  0  0  0
  -20.7400  -28.1710   23.0150 C   0  0  0  0  0  3  0  0  0  0  0  0
  -20.8910  -26.7660   22.3880 C   0  0  0  0  0  2  0  0  0  0  0  0
  -19.8250  -26.4600   21.3310 C   0  0  0  0  0  2  0  0  0  0  0  0
  -18.4220  -26.5600   21.9330 C   0  0  0  0  0  2  0  0  0  0  0  0
  -19.2880  -28.6430   23.1450 C   0  0  0  0  0  0  0  0  0  0  0  0
  -19.0290  -29.8780   23.7780 C   0  0  0  0  0  3  0  0  0  0  0  0
  -17.7110  -30.3490   23.9300 C   0  0  0  0  0  3  0  0  0  0  0  0
  -16.6340  -29.5820   23.4550 C   0  0  0  0  0  3  0  0  0  0  0  0
  -16.8770  -28.3510   22.8190 C   0  0  0  0  0  3  0  0  0  0  0  0
  -25.9580  -32.3870   23.9700 C   0  0  0  0  0  3  0  0  0  0  0  0
  -25.6490  -33.7890   24.2780 N   0  0  0  0  0  0  0  0  0  0  0  0
  -26.0210  -34.8350   23.5240 C   0  0  0  0  0  0  0  0  0  0  0  0
  -26.7310  -34.7190   22.5210 O   0  0  0  0  0  0  0  0  0  0  0  0
  -25.0250  -33.9560   25.0540 H   0  0  0  0  0  0  0  0  0  0  0  0
  -24.3250  -36.6440   23.0960 C   0  0  0  0  0  1  0  0  0  0  0  0
  -25.5300  -36.2290   23.9550 C   0  0  0  0  0  3  0  0  0  0  0  0
  -27.6280  -37.1040   24.8790 C   0  0  0  0  0  1  0  0  0  0  0  0
  -26.5750  -37.2720   23.8810 N   0  0  0  0  0  0  0  0  0  0  0  0
  -26.1670  -38.1940   24.0100 H   0  0  0  0  0  0  0  0  0  0  0  0
  -26.4170  -31.6160   25.2690 C   0  0  1  0  0  0  0  0  0  0  0  0
  -25.2750  -31.3870   26.2860 C   0  0  0  0  0  1  0  0  0  0  0  0
  -27.0100  -30.2350   24.9050 C   0  0  0  0  0  1  0  0  0  0  0  0
  -27.5420  -32.4030   25.9830 C   0  0  0  0  0  1  0  0  0  0  0  0
  -28.4700  -20.6620   20.0940 C   0  0  0  0  0  2  0  0  0  0  0  0
  -31.8350  -19.0040   19.2260 C   0  0  0  0  0  3  0  0  0  0  0  0
  -30.8350  -19.9520   19.4630 C   0  0  0  0  0  3  0  0  0  0  0  0
  -31.6300  -17.6520   19.5380 C   0  0  0  0  0  3  0  0  0  0  0  0
  -29.5970  -19.5780   20.0150 C   0  0  0  0  0  0  0  0  0  0  0  0
  -29.4140  -18.1890   20.3970 C   0  0  0  0  0  0  0  0  0  0  0  0
  -30.4360  -17.1940   20.1510 C   0  0  0  0  0  0  0  0  0  0  0  0
  -28.1220  -17.7990   21.1100 C   0  0  0  0  0  1  0  0  0  0  0  0
  -31.0140  -14.6790   20.0700 C   0  0  0  0  0  0  0  0  0  0  0  0
  -30.6740  -12.5050   18.9430 C   0  0  0  0  0  2  0  0  0  0  0  0
  -29.6850  -12.7380   17.7820 C   0  0  0  0  0  2  0  0  0  0  0  0
  -28.2280  -12.6300   18.2780 C   0  0  0  0  0  2  0  0  0  0  0  0
  -27.9680  -13.4230   19.5890 C   0  0  0  0  0  3  0  0  0  0  0  0
  -29.0730  -13.1630   20.6320 C   0  0  0  0  0  2  0  0  0  0  0  0
  -30.3560  -13.4880   19.9980 N   0  0  0  0  0  0  0  0  0  0  0  0
  -32.1710  -14.7710   19.6450 O   0  0  0  0  0  0  0  0  0  0  0  0
  -30.2770  -15.7690   20.4750 N   0  0  0  0  0  0  0  0  0  0  0  0
  -29.4160  -15.5240   20.9350 H   0  0  0  0  0  0  0  0  0  0  0  0
  -25.6330  -14.0460   20.4630 C   0  0  0  0  0  0  0  0  0  0  0  0
  -24.5730  -13.2810   20.8690 C   0  0  0  0  0  0  0  0  0  0  0  0
  -25.0000  -11.9220   20.7580 C   0  0  0  0  0  0  0  0  0  0  0  0
  -26.6410  -13.1530   20.1310 N   0  0  0  0  0  0  0  0  0  0  0  0
  -26.2680  -11.8670   20.3660 N   0  0  0  0  0  0  0  0  0  0  0  0
  -24.2550  -10.6700   20.9430 C   0  0  0  0  0  0  0  0  0  0  0  0
  -24.6550   -9.7060   21.8950 C   0  0  0  0  0  3  0  0  0  0  0  0
  -23.9100   -8.5210   22.0700 C   0  0  0  0  0  3  0  0  0  0  0  0
  -22.7520   -8.2870   21.2910 C   0  0  0  0  0  0  0  0  0  0  0  0
  -22.3710   -9.2390   20.3300 C   0  0  0  0  0  3  0  0  0  0  0  0
  -23.1160  -10.4160   20.1520 C   0  0  0  0  0  3  0  0  0  0  0  0
  -21.9840   -7.1500   21.3740 O   0  0  0  0  0  0  0  0  0  0  0  0
  -21.8200   -6.4750   22.5560 C   0  0  0  0  0  0  0  0  0  0  0  0
  -21.2710   -7.0970   23.6990 C   0  0  0  0  0  3  0  0  0  0  0  0
  -21.0540   -6.3490   24.8730 C   0  0  0  0  0  3  0  0  0  0  0  0
  -21.3770   -4.9800   24.9050 C   0  0  0  0  0  0  0  0  0  0  0  0
  -21.9200   -4.3580   23.7660 C   0  0  0  0  0  3  0  0  0  0  0  0
  -22.1380   -5.1030   22.5950 C   0  0  0  0  0  0  0  0  0  0  0  0
  -22.6420   -4.4940   21.4950 F   0  0  0  0  0  0  0  0  0  0  0  0
  -21.1620   -4.2580   26.0300 F   0  0  0  0  0  0  0  0  0  0  0  0
  -23.2070  -13.7800   21.2410 C   0  0  0  0  0  0  0  0  0  0  0  0
  -22.5130  -13.0740   22.1280 N   0  0  0  0  0  0  0  0  0  0  0  0
  -22.7610  -14.8290   20.7780 O   0  0  0  0  0  0  0  0  0  0  0  0
  -22.8810  -12.2240   22.5330 H   0  0  0  0  0  0  0  0  0  0  0  0
  -21.5970  -13.3920   22.4130 H   0  0  0  0  0  0  0  0  0  0  0  0
  -25.8100  -15.4180   20.3240 N   0  0  0  0  0  0  0  0  0  0  0  0
  -25.0450  -16.0610   20.4980 H   0  0  0  0  0  0  0  0  0  0  0  0
  -26.6140  -15.8610   19.9030 H   0  0  0  0  0  0  0  0  0  0  0  0
  1  4  1  0
  1  8  2  0
  2  3  1  0
  2  5  1  0
  3  7  1  0
  4  6  1  0
  5  9  1  0
  5  4  1  0
  7  1  1  0
 10 21  2  0
 11  9  1  0
 11 16  1  0
 12 20  1  0
 12 22  1  0
 13 19  1  0
 13 15  1  0
 14 20  1  0
 15 14  1  0
 16 15  2  0
 17 11  2  0
 18 17  1  0
 18 13  2  0
 19 12  1  0
 20 10  1  0
 22 24  2  0
 23 22  1  0
 25 23  1  0
 26 35  2  0
 26 31  1  0
 27 23  1  0
 27 31  1  0
 28 27  1  0
 29 30  1  0
 29 28  1  0
 30 26  1  0
 31 32  2  0
 32 33  1  0
 34 33  2  0
 35 34  1  0
 36 10  1  0
 36 37  1  0
 36 46  1  0
 37 40  1  0
 38 42  1  0
 38 37  1  0
 39 38  2  0
 42 41  1  0
 44 42  1  0
 44 45  1  0
 44 43  1  0
 46 49  1  1
 46 47  1  0
 48 46  1  0
 50  7  1  0
 51 52  2  0
 51 53  1  0
 52 54  1  0
 53 56  2  0
 54 50  1  0
 54 55  2  0
 55 57  1  0
 56 55  1  0
 56 66  1  0
 58 66  1  0
 59 64  1  0
 60 61  1  0
 60 59  1  0
 62 61  1  0
 62 71  1  0
 62 63  1  0
 64 58  1  0
 64 63  1  0
 65 58  2  0
 66 67  1  0
 68 69  2  0
 69 88  1  0
 70 69  1  0
 70 73  1  0
 71 72  1  0
 71 68  1  0
 72 70  2  0
 73 74  1  0
 74 75  2  0
 76 79  1  0
 76 75  1  0
 77 76  2  0
 78 77  1  0
 78 73  2  0
 79 80  1  0
 80 85  2  0
 80 81  1  0
 81 82  2  0
 82 83  1  0
 83 87  1  0
 84 83  2  0
 85 84  1  0
 86 85  1  0
 88 89  1  0
 89 92  1  0
 89 91  1  0
 90 88  2  0
 93 68  1  0
 93 94  1  0
 95 93  1  0
M  ISO  4   5 101   9 101  58 100  66 100
M  END
>  <TORSDO>  (34) 
F 18

>  <SCORE>  (34) 
-13.685

>  <name>  (34) 
33

>  <ligand_id>  (34) 
33

>  <original_smiles>  (34) 
[H]c1c([H])c(N([H])C(=O)N2C([H])([H])C([H])([H])C([H])([H])C([H])(n3nc(-c4c([H])c([H])c(Oc5c([H])c([H])c(F)c([H])c5F)c([H])c4[H])c(C(=O)N([H])[H])c3N([H])[H])C2([H])[H])c(C([H])([H])[H])c(C([H])([H])N2C(=O)C([H])(C([H])([H])[H])C([H])(Oc3c([H])c([H])c4c(c3[H])C([H])([H])N(C(=O)C([H])(N([H])C(=O)C([H])(N([H])C([H])([H])[H])C([H])([H])[H])C(C([H])([H])[H])(C([H])([H])[H])C([H])([H])[H])C([H])(C(=O)N([H])C3([H])c5c([H])c([H])c([H])c([H])c5C([H])([H])C([H])([H])C3([H])[H])C4([H])[H])C([H])([H])C2([H])[H])c1[H]

>  <smiles>  (34) 
[H]c1c([H])c(N([H])C(=O)N2C([H])([H])C([H])([H])C([H])([H])C([H])(n3nc(-c4c([H])c([H])c(Oc5c([H])c([H])c(F)c([H])c5F)c([H])c4[H])c(C(=O)N([H])[H])c3N([H])[H])C2([H])[H])c(C([H])([H])[H])c(C([H])([H])N2C(=O)C([H])(C([H])([H])[H])C([H])(Oc3c([H])c([H])c4c(c3[H])C([H])([H])N(C(=O)C([H])(N([H])C(=O)C([H])(N([H])C([H])([H])[H])C([H])([H])[H])C(C([H])([H])[H])(C([H])([H])[H])C([H])([H])[H])C([H])(C(=O)N([H])C3([H])c5c([H])c([H])c([H])c([H])c5C([H])([H])C([H])([H])C3([H])[H])C4([H])[H])C([H])([H])C2([H])[H])c1[H]

$$$$
34:0:0
     RDKit          3D

 94102  0  0  1  0  0  0  0  0999 V2000
  -28.1410  -21.4730   20.6710 C   0  0  0  0  0  0  0  0  0  0  0  0
  -28.4530  -20.1250   20.6420 N   0  0  0  0  0  0  0  0  0  0  0  0
  -27.1600  -21.7700   21.3520 O   0  0  0  0  0  0  0  0  0  0  0  0
  -27.8080  -19.6300   21.2420 H   0  0  0  0  0  0  0  0  0  0  0  0
  -28.9000  -22.5220   19.9330 C   0  0  0  0  0  3  0  0  0  0  0  0
  -28.4000  -23.8200   19.7650 C   0  0  0  0  0  3  0  0  0  0  0  0
  -28.4590  -25.2650   19.0510 C   0  0  0  0  0  2  0  0  0  0  0  0
  -28.3330  -26.5280   19.8260 O   0  0  0  0  0  0  0  0  0  0  0  0
  -24.6650  -31.7640   23.1370 C   0  0  0  0  0  0  0  0  0  0  0  0
  -27.1920  -27.3510   19.8020 C   0  0  0  0  0  0  0  0  0  0  0  0
  -23.4040  -30.4030   21.5090 C   0  0  0  0  0  3  0  0  0  0  0  0
  -24.8050  -28.9290   19.9530 C   0  0  0  0  0  0  0  0  0  0  0  0
  -25.9260  -30.7730   21.2120 C   0  0  0  0  0  2  0  0  0  0  0  0
  -25.9910  -29.4200   20.5090 C   0  0  0  0  0  0  0  0  0  0  0  0
  -27.1840  -28.6400   20.4270 C   0  0  0  0  0  3  0  0  0  0  0  0
  -25.9780  -26.9130   19.2250 C   0  0  0  0  0  3  0  0  0  0  0  0
  -24.8020  -27.6860   19.3010 C   0  0  0  0  0  3  0  0  0  0  0  0
  -23.5580  -29.7770   20.0940 C   0  0  0  0  0  2  0  0  0  0  0  0
  -24.6860  -30.9950   22.0100 N   0  0  0  0  0  0  0  0  0  0  0  0
  -23.6060  -32.0010   23.7370 O   0  0  0  0  0  0  0  0  0  0  0  0
  -22.8100  -29.3400   22.4630 C   0  0  0  0  0  0  0  0  0  0  0  0
  -21.5020  -29.0700   22.3300 N   0  0  0  0  0  0  0  0  0  0  0  0
  -23.5250  -28.7610   23.2840 O   0  0  0  0  0  0  0  0  0  0  0  0
  -20.9750  -29.5900   21.6430 H   0  0  0  0  0  0  0  0  0  0  0  0
  -18.2350  -27.5650   22.7310 C   0  0  0  0  0  0  0  0  0  0  0  0
  -20.7450  -28.0760   23.0940 C   0  0  0  0  0  3  0  0  0  0  0  0
  -21.0030  -26.6450   22.5660 C   0  0  0  0  0  2  0  0  0  0  0  0
  -19.9810  -26.1970   21.5160 C   0  0  0  0  0  2  0  0  0  0  0  0
  -18.5670  -26.2230   22.1010 C   0  0  0  0  0  2  0  0  0  0  0  0
  -19.2580  -28.4420   23.1830 C   0  0  0  0  0  0  0  0  0  0  0  0
  -18.8950  -29.6900   23.7320 C   0  0  0  0  0  3  0  0  0  0  0  0
  -17.5440  -30.0680   23.8310 C   0  0  0  0  0  3  0  0  0  0  0  0
  -16.5350  -29.1920   23.3930 C   0  0  0  0  0  3  0  0  0  0  0  0
  -16.8810  -27.9430   22.8480 C   0  0  0  0  0  3  0  0  0  0  0  0
  -25.9690  -32.3970   23.7170 C   0  0  0  0  0  3  0  0  0  0  0  0
  -26.5660  -31.5870   24.9340 C   0  0  1  0  0  0  0  0  0  0  0  0
  -25.5270  -31.2650   26.0350 C   0  0  0  0  0  1  0  0  0  0  0  0
  -27.1750  -30.2490   24.4540 C   0  0  0  0  0  1  0  0  0  0  0  0
  -27.7200  -32.3880   25.5820 C   0  0  0  0  0  1  0  0  0  0  0  0
  -25.6520  -33.7750   24.1220 N   0  0  0  0  0  0  0  0  0  0  0  0
  -25.9100  -34.8630   23.3840 C   0  0  0  0  0  0  0  0  0  0  0  0
  -26.5130  -34.8140   22.3090 O   0  0  0  0  0  0  0  0  0  0  0  0
  -25.1060  -33.8830   24.9650 H   0  0  0  0  0  0  0  0  0  0  0  0
  -24.1130  -36.6160   23.2320 C   0  0  0  0  0  1  0  0  0  0  0  0
  -25.4250  -36.2210   23.9290 C   0  0  0  0  0  3  0  0  0  0  0  0
  -27.5930  -37.1400   24.6260 C   0  0  0  0  0  1  0  0  0  0  0  0
  -26.4180  -37.3060   23.7730 N   0  0  0  0  0  0  0  0  0  0  0  0
  -26.0020  -38.2090   23.9820 H   0  0  0  0  0  0  0  0  0  0  0  0
  -29.4710  -19.1420   20.1130 C   0  0  0  0  0  2  0  0  0  0  0  0
  -31.2810  -16.6000   23.3030 C   0  0  0  0  0  3  0  0  0  0  0  0
  -31.0140  -16.0060   22.0650 C   0  0  0  0  0  3  0  0  0  0  0  0
  -31.0130  -17.9580   23.4820 C   0  0  0  0  0  3  0  0  0  0  0  0
  -30.1360  -18.1600   21.1650 C   0  0  0  0  0  0  0  0  0  0  0  0
  -30.4900  -16.7400   20.9650 C   0  0  0  0  0  0  0  0  0  0  0  0
  -30.4680  -18.7260   22.4410 C   0  0  0  0  0  0  0  0  0  0  0  0
  -30.2940  -20.4020   22.8370 Cl  0  0  0  0  0  0  0  0  0  0  0  0
  -31.0650  -14.8050   19.4300 C   0  0  0  0  0  0  0  0  0  0  0  0
  -30.6770  -12.5360   18.4970 C   0  0  0  0  0  2  0  0  0  0  0  0
  -29.6030  -12.6250   17.3910 C   0  0  0  0  0  2  0  0  0  0  0  0
  -28.1910  -12.5070   17.9990 C   0  0  0  0  0  2  0  0  0  0  0  0
  -27.9900  -13.4270   19.2330 C   0  0  0  0  0  3  0  0  0  0  0  0
  -29.1670  -13.3190   20.2210 C   0  0  0  0  0  2  0  0  0  0  0  0
  -30.3980  -13.6090   19.4740 N   0  0  0  0  0  0  0  0  0  0  0  0
  -32.1650  -14.8890   18.8770 O   0  0  0  0  0  0  0  0  0  0  0  0
  -30.3740  -15.9600   19.7380 N   0  0  0  0  0  0  0  0  0  0  0  0
  -30.2890  -16.5520   18.9210 H   0  0  0  0  0  0  0  0  0  0  0  0
  -25.7790  -14.1020   20.3380 C   0  0  0  0  0  0  0  0  0  0  0  0
  -24.7270  -13.3690   20.8080 C   0  0  0  0  0  0  0  0  0  0  0  0
  -25.0860  -11.9960   20.6200 C   0  0  0  0  0  0  0  0  0  0  0  0
  -26.7150  -13.1830   19.8920 N   0  0  0  0  0  0  0  0  0  0  0  0
  -26.3130  -11.9060   20.1200 N   0  0  0  0  0  0  0  0  0  0  0  0
  -24.3070  -10.7680   20.8310 C   0  0  0  0  0  0  0  0  0  0  0  0
  -24.7390   -9.7640   21.7260 C   0  0  0  0  0  3  0  0  0  0  0  0
  -23.9620   -8.6030   21.9240 C   0  0  0  0  0  3  0  0  0  0  0  0
  -22.7400   -8.4380   21.2300 C   0  0  0  0  0  0  0  0  0  0  0  0
  -22.3290   -9.4280   20.3230 C   0  0  0  0  0  3  0  0  0  0  0  0
  -23.1030  -10.5810   20.1220 C   0  0  0  0  0  3  0  0  0  0  0  0
  -21.9350   -7.3310   21.3420 O   0  0  0  0  0  0  0  0  0  0  0  0
  -21.7950   -6.6580   22.5280 C   0  0  0  0  0  0  0  0  0  0  0  0
  -21.3390   -7.3010   23.7010 C   0  0  0  0  0  3  0  0  0  0  0  0
  -21.1450   -6.5570   24.8820 C   0  0  0  0  0  3  0  0  0  0  0  0
  -21.3960   -5.1710   24.8910 C   0  0  0  0  0  0  0  0  0  0  0  0
  -21.8440   -4.5280   23.7240 C   0  0  0  0  0  3  0  0  0  0  0  0
  -22.0400   -5.2700   22.5450 C   0  0  0  0  0  0  0  0  0  0  0  0
  -22.4530   -4.6430   21.4180 F   0  0  0  0  0  0  0  0  0  0  0  0
  -21.2010   -4.4540   26.0220 F   0  0  0  0  0  0  0  0  0  0  0  0
  -23.4190  -13.9030   21.3160 C   0  0  0  0  0  0  0  0  0  0  0  0
  -22.8150  -13.2240   22.2840 N   0  0  0  0  0  0  0  0  0  0  0  0
  -22.9530  -14.9590   20.8870 O   0  0  0  0  0  0  0  0  0  0  0  0
  -23.2110  -12.3710   22.6470 H   0  0  0  0  0  0  0  0  0  0  0  0
  -21.9440  -13.5630   22.6670 H   0  0  0  0  0  0  0  0  0  0  0  0
  -26.0180  -15.4700   20.2320 N   0  0  0  0  0  0  0  0  0  0  0  0
  -25.3300  -16.1660   20.5000 H   0  0  0  0  0  0  0  0  0  0  0  0
  -26.8610  -15.8720   19.8430 H   0  0  0  0  0  0  0  0  0  0  0  0
  1  3  2  0
  2  1  1  0
  2  4  1  0
  5  1  1  0
  6  5  2  0
  7  6  1  0
  7  8  1  0
  9 20  2  0
 10  8  1  0
 10 15  1  0
 11 19  1  0
 11 21  1  0
 12 18  1  0
 12 14  1  0
 13 19  1  0
 14 13  1  0
 15 14  2  0
 16 17  1  0
 16 10  2  0
 17 12  2  0
 18 11  1  0
 19  9  1  0
 21 23  2  0
 22 21  1  0
 24 22  1  0
 25 34  2  0
 25 30  1  0
 26 22  1  0
 26 30  1  0
 27 26  1  0
 28 29  1  0
 28 27  1  0
 29 25  1  0
 30 31  2  0
 31 32  1  0
 33 32  2  0
 34 33  1  0
 35  9  1  0
 35 40  1  0
 35 36  1  0
 36 39  1  1
 36 37  1  0
 38 36  1  0
 40 43  1  0
 41 45  1  0
 41 40  1  0
 42 41  2  0
 45 44  1  0
 47 45  1  0
 47 48  1  0
 47 46  1  0
 49  2  1  0
 49 53  1  0
 50 52  1  0
 51 50  2  0
 53 55  1  0
 54 53  2  0
 54 51  1  0
 55 56  1  0
 55 52  2  0
 57 63  1  0
 57 65  1  0
 58 63  1  0
 59 60  1  0
 59 58  1  0
 61 60  1  0
 61 70  1  0
 61 62  1  0
 63 62  1  0
 64 57  2  0
 65 54  1  0
 66 65  1  0
 67 68  2  0
 68 87  1  0
 69 68  1  0
 69 72  1  0
 70 71  1  0
 70 67  1  0
 71 69  2  0
 72 73  1  0
 73 74  2  0
 75 78  1  0
 75 74  1  0
 76 75  2  0
 77 76  1  0
 77 72  2  0
 78 79  1  0
 79 84  2  0
 79 80  1  0
 80 81  2  0
 81 82  1  0
 82 86  1  0
 83 82  2  0
 84 83  1  0
 85 84  1  0
 87 88  1  0
 88 90  1  0
 88 91  1  0
 89 87  2  0
 92 67  1  0
 92 93  1  0
 94 92  1  0
M  ISO  4   7 101   8 101  57 100  65 100
M  END
>  <TORSDO>  (35) 
F 20

>  <SCORE>  (35) 
-10.244

>  <name>  (35) 
34

>  <ligand_id>  (35) 
34

>  <original_smiles>  (35) 
[H]C(C(=O)N([H])C([H])([H])c1c(Cl)c([H])c([H])c([H])c1N([H])C(=O)N1C([H])([H])C([H])([H])C([H])([H])C([H])(n2nc(-c3c([H])c([H])c(Oc4c([H])c([H])c(F)c([H])c4F)c([H])c3[H])c(C(=O)N([H])[H])c2N([H])[H])C1([H])[H])=C([H])C([H])([H])Oc1c([H])c([H])c2c(c1[H])C([H])([H])N(C(=O)C([H])(N([H])C(=O)C([H])(N([H])C([H])([H])[H])C([H])([H])[H])C(C([H])([H])[H])(C([H])([H])[H])C([H])([H])[H])C([H])(C(=O)N([H])C1([H])c3c([H])c([H])c([H])c([H])c3C([H])([H])C([H])([H])C1([H])[H])C2([H])[H]

>  <smiles>  (35) 
[H]C(C(=O)N([H])C([H])([H])c1c(Cl)c([H])c([H])c([H])c1N([H])C(=O)N1C([H])([H])C([H])([H])C([H])([H])C([H])(n2nc(-c3c([H])c([H])c(Oc4c([H])c([H])c(F)c([H])c4F)c([H])c3[H])c(C(=O)N([H])[H])c2N([H])[H])C1([H])[H])=C([H])C([H])([H])Oc1c([H])c([H])c2c(c1[H])C([H])([H])N(C(=O)C([H])(N([H])C(=O)C([H])(N([H])C([H])([H])[H])C([H])([H])[H])C(C([H])([H])[H])(C([H])([H])[H])C([H])([H])[H])C([H])(C(=O)N([H])C1([H])c3c([H])c([H])c([H])c([H])c3C([H])([H])C([H])([H])C1([H])[H])C2([H])[H]

$$$$
35:0:0
     RDKit          3D

 89 97  0  0  1  0  0  0  0  0999 V2000
  -26.8570  -19.5870   19.2860 C   0  0  0  0  0  3  0  0  0  0  0  0
  -27.4290  -20.3200   20.3430 C   0  0  0  0  0  3  0  0  0  0  0  0
  -27.6920  -19.0660   18.2750 C   0  0  0  0  0  3  0  0  0  0  0  0
  -28.8140  -20.5490   20.2740 C   0  0  0  0  0  3  0  0  0  0  0  0
  -29.0810  -18.9230   18.4900 C   0  0  0  0  0  0  0  0  0  0  0  0
  -29.5430  -19.0910   19.8190 C   0  0  0  0  0  3  0  0  0  0  0  0
  -29.9030  -18.2570   17.4000 C   0  0  0  0  0  1  0  0  0  0  0  0
  -30.3890  -15.9700   19.9720 C   0  0  0  0  0  0  0  0  0  0  0  0
  -30.5020  -13.3890   19.1480 C   0  0  0  0  0  2  0  0  0  0  0  0
  -29.5680  -12.9290   17.9840 C   0  0  0  0  0  2  0  0  0  0  0  0
  -28.1890  -12.5290   18.5140 C   0  0  0  0  0  2  0  0  0  0  0  0
  -27.7070  -13.5250   19.5880 C   0  0  0  0  0  3  0  0  0  0  0  0
  -28.7800  -13.8830   20.6510 C   0  0  0  0  0  2  0  0  0  0  0  0
  -29.8980  -14.5670   19.9490 N   0  0  0  0  0  0  0  0  0  0  0  0
  -31.5950  -15.8910   19.6530 O   0  0  0  0  0  0  0  0  0  0  0  0
  -29.6640  -17.3710   20.2510 N   0  0  0  0  0  0  0  0  0  0  0  0
  -28.8440  -17.1350   20.7960 H   0  0  0  0  0  0  0  0  0  0  0  0
  -25.3920  -14.0160   20.4910 C   0  0  0  0  0  0  0  0  0  0  0  0
  -24.3540  -13.2200   20.8860 C   0  0  0  0  0  0  0  0  0  0  0  0
  -24.8250  -11.8740   20.7850 C   0  0  0  0  0  0  0  0  0  0  0  0
  -26.4240  -13.1580   20.1670 N   0  0  0  0  0  0  0  0  0  0  0  0
  -26.1020  -11.8580   20.4100 N   0  0  0  0  0  0  0  0  0  0  0  0
  -24.1070  -10.6040   20.9650 C   0  0  0  0  0  0  0  0  0  0  0  0
  -24.5340   -9.6360   21.8990 C   0  0  0  0  0  3  0  0  0  0  0  0
  -23.8090   -8.4370   22.0710 C   0  0  0  0  0  3  0  0  0  0  0  0
  -22.6410   -8.1950   21.3100 C   0  0  0  0  0  0  0  0  0  0  0  0
  -22.2340   -9.1520   20.3640 C   0  0  0  0  0  3  0  0  0  0  0  0
  -22.9590  -10.3430   20.1900 C   0  0  0  0  0  3  0  0  0  0  0  0
  -21.8900   -7.0470   21.3910 O   0  0  0  0  0  0  0  0  0  0  0  0
  -21.7620   -6.3530   22.5680 C   0  0  0  0  0  0  0  0  0  0  0  0
  -21.1870   -6.9350   23.7190 C   0  0  0  0  0  3  0  0  0  0  0  0
  -21.0090   -6.1630   24.8850 C   0  0  0  0  0  3  0  0  0  0  0  0
  -21.4020   -4.8120   24.9020 C   0  0  0  0  0  0  0  0  0  0  0  0
  -21.9690   -4.2290   23.7550 C   0  0  0  0  0  3  0  0  0  0  0  0
  -22.1460   -4.9960   22.5920 C   0  0  0  0  0  0  0  0  0  0  0  0
  -22.6750   -4.4230   21.4830 F   0  0  0  0  0  0  0  0  0  0  0  0
  -21.2250   -4.0670   26.0190 F   0  0  0  0  0  0  0  0  0  0  0  0
  -22.9710  -13.6860   21.2330 C   0  0  0  0  0  0  0  0  0  0  0  0
  -22.2840  -12.9730   22.1160 N   0  0  0  0  0  0  0  0  0  0  0  0
  -22.5120  -14.7220   20.7560 O   0  0  0  0  0  0  0  0  0  0  0  0
  -22.6690  -12.1360   22.5270 H   0  0  0  0  0  0  0  0  0  0  0  0
  -21.3580  -13.2720   22.3860 H   0  0  0  0  0  0  0  0  0  0  0  0
  -25.5400  -15.3930   20.3410 N   0  0  0  0  0  0  0  0  0  0  0  0
  -24.7740  -16.0390   20.4880 H   0  0  0  0  0  0  0  0  0  0  0  0
  -26.3620  -15.8380   19.9530 H   0  0  0  0  0  0  0  0  0  0  0  0
  -28.9030  -22.4520   20.1950 C   0  0  0  0  0  0  0  0  0  0  0  0
  -30.3180  -22.7940   19.8090 C   0  0  0  0  0  1  0  0  0  0  0  0
  -28.0440  -23.6960   20.3580 N   0  0  0  0  0  0  0  0  0  0  0  0
  -28.2850  -25.4750   20.2940 O   0  0  0  0  0  0  0  0  0  0  0  0
  -24.6600  -31.8680   23.2080 C   0  0  0  0  0  0  0  0  0  0  0  0
  -27.2770  -26.7010   20.3030 C   0  0  0  0  0  0  0  0  0  0  0  0
  -23.5140  -30.4450   21.5600 C   0  0  0  0  0  3  0  0  0  0  0  0
  -24.9990  -28.7770   20.1980 C   0  0  0  0  0  0  0  0  0  0  0  0
  -26.0960  -30.5820   21.4950 C   0  0  0  0  0  2  0  0  0  0  0  0
  -26.1820  -29.1320   20.8550 C   0  0  0  0  0  0  0  0  0  0  0  0
  -27.2990  -28.1220   20.8740 C   0  0  0  0  0  3  0  0  0  0  0  0
  -26.0600  -26.5910   19.5770 C   0  0  0  0  0  3  0  0  0  0  0  0
  -24.9800  -27.5330   19.5400 C   0  0  0  0  0  3  0  0  0  0  0  0
  -23.7860  -29.7260   20.2060 C   0  0  0  0  0  2  0  0  0  0  0  0
  -24.7800  -31.0020   22.1400 N   0  0  0  0  0  0  0  0  0  0  0  0
  -23.5550  -32.1630   23.6960 O   0  0  0  0  0  0  0  0  0  0  0  0
  -22.7820  -29.4810   22.5330 C   0  0  0  0  0  0  0  0  0  0  0  0
  -21.4530  -29.3110   22.3820 N   0  0  0  0  0  0  0  0  0  0  0  0
  -23.4260  -28.8810   23.3980 O   0  0  0  0  0  0  0  0  0  0  0  0
  -20.9830  -29.8440   21.6630 H   0  0  0  0  0  0  0  0  0  0  0  0
  -18.0720  -28.0660   22.8670 C   0  0  0  0  0  0  0  0  0  0  0  0
  -20.6260  -28.3720   23.1480 C   0  0  0  0  0  3  0  0  0  0  0  0
  -20.7480  -26.9380   22.5840 C   0  0  0  0  0  2  0  0  0  0  0  0
  -19.6620  -26.5960   21.5610 C   0  0  0  0  0  2  0  0  0  0  0  0
  -18.2720  -26.7220   22.1910 C   0  0  0  0  0  2  0  0  0  0  0  0
  -19.1740  -28.8470   23.3030 C   0  0  0  0  0  0  0  0  0  0  0  0
  -18.9270  -30.0980   23.9060 C   0  0  0  0  0  3  0  0  0  0  0  0
  -17.6110  -30.5730   24.0690 C   0  0  0  0  0  3  0  0  0  0  0  0
  -16.5210  -29.7910   23.6420 C   0  0  0  0  0  3  0  0  0  0  0  0
  -16.7530  -28.5370   23.0470 C   0  0  0  0  0  3  0  0  0  0  0  0
  -25.9010  -32.5380   23.8680 C   0  0  0  0  0  3  0  0  0  0  0  0
  -25.5650  -33.9460   24.1680 N   0  0  0  0  0  0  0  0  0  0  0  0
  -25.9060  -35.0010   23.4160 C   0  0  0  0  0  0  0  0  0  0  0  0
  -26.5910  -34.8930   22.3970 O   0  0  0  0  0  0  0  0  0  0  0  0
  -24.9570  -34.1030   24.9580 H   0  0  0  0  0  0  0  0  0  0  0  0
  -24.1820  -36.8000   23.0340 C   0  0  0  0  0  1  0  0  0  0  0  0
  -25.4130  -36.3970   23.8610 C   0  0  0  0  0  3  0  0  0  0  0  0
  -27.5280  -37.3060   24.7190 C   0  0  0  0  0  1  0  0  0  0  0  0
  -26.4450  -37.4520   23.7500 N   0  0  0  0  0  0  0  0  0  0  0  0
  -26.0340  -38.3740   23.8720 H   0  0  0  0  0  0  0  0  0  0  0  0
  -26.3670  -31.8130   25.1920 C   0  0  1  0  0  0  0  0  0  0  0  0
  -25.2300  -31.6070   26.2200 C   0  0  0  0  0  1  0  0  0  0  0  0
  -26.9720  -30.4250   24.8900 C   0  0  0  0  0  1  0  0  0  0  0  0
  -27.4860  -32.6340   25.8760 C   0  0  0  0  0  1  0  0  0  0  0  0
  1  2  2  0
  3  5  2  0
  3  1  1  0
  4 46  1  0
  4  2  1  0
  5  6  1  0
  6 16  1  0
  6  4  1  0
  7  5  1  0
  8 16  1  0
  9 14  1  0
 10 11  1  0
 10  9  1  0
 12 11  1  0
 12 21  1  0
 12 13  1  0
 14  8  1  0
 14 13  1  0
 15  8  2  0
 16 17  1  0
 18 19  2  0
 19 38  1  0
 20 19  1  0
 20 23  1  0
 21 22  1  0
 21 18  1  0
 22 20  2  0
 23 24  1  0
 24 25  2  0
 26 29  1  0
 26 25  1  0
 27 26  2  0
 28 27  1  0
 28 23  2  0
 29 30  1  0
 30 35  2  0
 30 31  1  0
 31 32  2  0
 32 33  1  0
 33 37  1  0
 34 33  2  0
 35 34  1  0
 36 35  1  0
 38 39  1  0
 39 42  1  0
 39 41  1  0
 40 38  2  0
 43 44  1  0
 43 18  1  0
 45 43  1  0
 46 48  2  0
 47 46  1  0
 49 51  1  0
 49 48  1  0
 50 61  2  0
 51 56  1  0
 52 60  1  0
 52 62  1  0
 53 59  1  0
 53 55  1  0
 54 60  1  0
 55 56  2  0
 55 54  1  0
 57 51  2  0
 58 57  1  0
 58 53  2  0
 59 52  1  0
 60 50  1  0
 62 64  2  0
 63 62  1  0
 65 63  1  0
 66 75  2  0
 66 71  1  0
 67 63  1  0
 67 71  1  0
 68 67  1  0
 69 70  1  0
 69 68  1  0
 70 66  1  0
 71 72  2  0
 72 73  1  0
 74 73  2  0
 75 74  1  0
 76 50  1  0
 76 77  1  0
 76 86  1  0
 77 80  1  0
 78 82  1  0
 78 77  1  0
 79 78  2  0
 82 81  1  0
 84 82  1  0
 84 85  1  0
 84 83  1  0
 86 89  1  1
 86 87  1  0
 88 86  1  0
M  ISO  4   8 100  16 100  48 101  49 101
M  END
>  <TORSDO>  (36) 
F 17

>  <SCORE>  (36) 
-15.893

>  <name>  (36) 
35

>  <ligand_id>  (36) 
35

>  <original_smiles>  (36) 
[H]c1c([H])c(C(=NOc2c([H])c([H])c3c(c2[H])C([H])([H])N(C(=O)C([H])(N([H])C(=O)C([H])(N([H])C([H])([H])[H])C([H])([H])[H])C(C([H])([H])[H])(C([H])([H])[H])C([H])([H])[H])C([H])(C(=O)N([H])C2([H])c4c([H])c([H])c([H])c([H])c4C([H])([H])C([H])([H])C2([H])[H])C3([H])[H])C([H])([H])[H])c(N([H])C(=O)N2C([H])([H])C([H])([H])C([H])([H])C([H])(n3nc(-c4c([H])c([H])c(Oc5c([H])c([H])c(F)c([H])c5F)c([H])c4[H])c(C(=O)N([H])[H])c3N([H])[H])C2([H])[H])c(C([H])([H])[H])c1[H]

>  <smiles>  (36) 
[H]c1c([H])c(C(=NOc2c([H])c([H])c3c(c2[H])C([H])([H])N(C(=O)C([H])(N([H])C(=O)C([H])(N([H])C([H])([H])[H])C([H])([H])[H])C(C([H])([H])[H])(C([H])([H])[H])C([H])([H])[H])C([H])(C(=O)N([H])C2([H])c4c([H])c([H])c([H])c([H])c4C([H])([H])C([H])([H])C2([H])[H])C3([H])[H])C([H])([H])[H])c(N([H])C(=O)N2C([H])([H])C([H])([H])C([H])([H])C([H])(n3nc(-c4c([H])c([H])c(Oc5c([H])c([H])c(F)c([H])c5F)c([H])c4[H])c(C(=O)N([H])[H])c3N([H])[H])C2([H])[H])c(C([H])([H])[H])c1[H]

$$$$
36:0:0
     RDKit          3D

 93101  0  0  1  0  0  0  0  0999 V2000
  -31.4810  -22.0230   19.2700 N   0  0  0  0  0  2  0  0  0  0  0  0
  -31.2270  -22.1880   21.8600 O   0  0  0  0  0  1  0  0  0  0  0  0
  -30.6720  -21.7280   20.5760 S   0  0  2  0  0  0  0  0  0  0  0  0
  -31.0860  -21.5190   18.4650 H   0  0  0  0  0  0  0  0  0  0  0  0
  -28.9700  -17.9010   20.5760 C   0  0  0  0  0  3  0  0  0  0  0  0
  -29.1400  -19.3120   20.5050 C   0  0  0  0  0  3  0  0  0  0  0  0
  -31.3390  -17.6190   20.9800 C   0  0  0  0  0  3  0  0  0  0  0  0
  -31.5190  -19.0280   20.9270 C   0  0  0  0  0  0  0  0  0  0  0  0
  -30.0660  -17.0270   20.7980 C   0  0  0  0  0  0  0  0  0  0  0  0
  -30.4130  -19.8970   20.6820 C   0  0  0  0  0  0  0  0  0  0  0  0
  -32.9210  -19.5720   21.1500 C   0  0  0  0  0  1  0  0  0  0  0  0
  -30.6120  -14.5620   20.4710 C   0  0  0  0  0  0  0  0  0  0  0  0
  -30.3630  -12.3650   19.3600 C   0  0  0  0  0  2  0  0  0  0  0  0
  -29.4260  -12.5380   18.1460 C   0  0  0  0  0  2  0  0  0  0  0  0
  -27.9500  -12.3900   18.5660 C   0  0  0  0  0  2  0  0  0  0  0  0
  -27.5960  -13.2360   19.8190 C   0  0  0  0  0  3  0  0  0  0  0  0
  -28.6490  -13.0420   20.9350 C   0  0  0  0  0  2  0  0  0  0  0  0
  -29.9690  -13.3630   20.3690 N   0  0  0  0  0  0  0  0  0  0  0  0
  -31.7650  -14.7210   20.0590 O   0  0  0  0  0  0  0  0  0  0  0  0
  -29.8360  -15.6020   20.8770 N   0  0  0  0  0  0  0  0  0  0  0  0
  -28.8950  -15.3270   21.1140 H   0  0  0  0  0  0  0  0  0  0  0  0
  -25.1950  -13.8420   20.5120 C   0  0  0  0  0  0  0  0  0  0  0  0
  -24.1250  -13.0700   20.8790 C   0  0  0  0  0  0  0  0  0  0  0  0
  -24.5890  -11.7190   20.8590 C   0  0  0  0  0  0  0  0  0  0  0  0
  -26.2420  -12.9610   20.2920 N   0  0  0  0  0  0  0  0  0  0  0  0
  -25.8810  -11.6800   20.5590 N   0  0  0  0  0  0  0  0  0  0  0  0
  -23.8630  -10.4570   21.0510 C   0  0  0  0  0  0  0  0  0  0  0  0
  -24.3020   -9.4880   21.9810 C   0  0  0  0  0  3  0  0  0  0  0  0
  -23.5760   -8.2900   22.1610 C   0  0  0  0  0  3  0  0  0  0  0  0
  -22.4000   -8.0530   21.4110 C   0  0  0  0  0  0  0  0  0  0  0  0
  -21.9820   -9.0100   20.4720 C   0  0  0  0  0  3  0  0  0  0  0  0
  -22.7060  -10.2000   20.2890 C   0  0  0  0  0  3  0  0  0  0  0  0
  -21.6470   -6.9070   21.5020 O   0  0  0  0  0  0  0  0  0  0  0  0
  -21.6160   -6.1540   22.6470 C   0  0  0  0  0  0  0  0  0  0  0  0
  -21.2170   -6.6990   23.8870 C   0  0  0  0  0  3  0  0  0  0  0  0
  -21.1320   -5.8730   25.0250 C   0  0  0  0  0  3  0  0  0  0  0  0
  -21.4370   -4.5020   24.9250 C   0  0  0  0  0  0  0  0  0  0  0  0
  -21.8300   -3.9560   23.6910 C   0  0  0  0  0  3  0  0  0  0  0  0
  -21.9170   -4.7800   22.5550 C   0  0  0  0  0  0  0  0  0  0  0  0
  -22.2750   -4.2440   21.3630 F   0  0  0  0  0  0  0  0  0  0  0  0
  -21.3490   -3.7060   26.0170 F   0  0  0  0  0  0  0  0  0  0  0  0
  -22.7260  -13.5470   21.1380 C   0  0  0  0  0  0  0  0  0  0  0  0
  -21.9950  -12.8580   22.0070 N   0  0  0  0  0  0  0  0  0  0  0  0
  -22.2880  -14.5660   20.6050 O   0  0  0  0  0  0  0  0  0  0  0  0
  -22.3610  -12.0340   22.4610 H   0  0  0  0  0  0  0  0  0  0  0  0
  -21.0550  -13.1600   22.2220 H   0  0  0  0  0  0  0  0  0  0  0  0
  -25.3570  -15.2110   20.3240 N   0  0  0  0  0  0  0  0  0  0  0  0
  -24.5820  -15.8600   20.4100 H   0  0  0  0  0  0  0  0  0  0  0  0
  -26.1940  -15.6430   19.9530 H   0  0  0  0  0  0  0  0  0  0  0  0
  -29.1050  -22.7010   20.3110 C   0  0  0  0  0  2  0  0  0  0  0  0
  -29.3490  -24.2530   20.4050 C   0  0  0  0  0  3  0  0  0  0  0  0
  -28.1540  -25.1630   19.9800 C   0  0  0  0  0  3  0  0  0  0  0  0
  -28.3390  -26.5980   20.1560 O   0  0  0  0  0  0  0  0  0  0  0  0
  -24.6140  -31.8880   23.2390 C   0  0  0  0  0  0  0  0  0  0  0  0
  -27.1940  -27.3930   20.1240 C   0  0  0  0  0  0  0  0  0  0  0  0
  -23.3880  -30.5000   21.6030 C   0  0  0  0  0  3  0  0  0  0  0  0
  -24.8180  -28.9630   20.1550 C   0  0  0  0  0  0  0  0  0  0  0  0
  -25.9200  -30.8300   21.3910 C   0  0  0  0  0  2  0  0  0  0  0  0
  -25.9900  -29.4610   20.7370 C   0  0  0  0  0  0  0  0  0  0  0  0
  -27.1810  -28.6860   20.7140 C   0  0  0  0  0  3  0  0  0  0  0  0
  -25.9970  -26.9330   19.5220 C   0  0  0  0  0  3  0  0  0  0  0  0
  -24.8200  -27.7010   19.5420 C   0  0  0  0  0  3  0  0  0  0  0  0
  -23.5820  -29.8320   20.2170 C   0  0  0  0  0  2  0  0  0  0  0  0
  -24.6600  -31.0880   22.1350 N   0  0  0  0  0  0  0  0  0  0  0  0
  -23.5380  -32.1650   23.7880 O   0  0  0  0  0  0  0  0  0  0  0  0
  -22.7370  -29.4780   22.5640 C   0  0  0  0  0  0  0  0  0  0  0  0
  -21.4100  -29.3050   22.4470 N   0  0  0  0  0  0  0  0  0  0  0  0
  -23.4230  -28.8450   23.3710 O   0  0  0  0  0  0  0  0  0  0  0  0
  -20.9170  -29.8670   21.7680 H   0  0  0  0  0  0  0  0  0  0  0  0
  -18.0340  -28.1190   22.9630 C   0  0  0  0  0  0  0  0  0  0  0  0
  -20.5940  -28.3680   23.2210 C   0  0  0  0  0  3  0  0  0  0  0  0
  -20.6880  -26.9370   22.6420 C   0  0  0  0  0  2  0  0  0  0  0  0
  -19.5790  -26.6200   21.6330 C   0  0  0  0  0  2  0  0  0  0  0  0
  -18.2020  -26.7690   22.2850 C   0  0  0  0  0  2  0  0  0  0  0  0
  -19.1580  -28.8760   23.3890 C   0  0  0  0  0  0  0  0  0  0  0  0
  -18.9470  -30.1400   23.9830 C   0  0  0  0  0  3  0  0  0  0  0  0
  -17.6450  -30.6450   24.1560 C   0  0  0  0  0  3  0  0  0  0  0  0
  -16.5360  -29.8850   23.7480 C   0  0  0  0  0  3  0  0  0  0  0  0
  -16.7310  -28.6240   23.1580 C   0  0  0  0  0  3  0  0  0  0  0  0
  -25.9080  -32.5100   23.8490 C   0  0  0  0  0  3  0  0  0  0  0  0
  -26.4390  -31.7260   25.1110 C   0  0  1  0  0  0  0  0  0  0  0  0
  -25.3610  -31.4810   26.1920 C   0  0  0  0  0  1  0  0  0  0  0  0
  -27.0130  -30.3500   24.6970 C   0  0  0  0  0  1  0  0  0  0  0  0
  -27.6020  -32.5100   25.7650 C   0  0  0  0  0  1  0  0  0  0  0  0
  -25.6060  -33.9060   24.1960 N   0  0  0  0  0  0  0  0  0  0  0  0
  -25.9190  -34.9630   23.4370 C   0  0  0  0  0  0  0  0  0  0  0  0
  -26.5650  -34.8680   22.3890 O   0  0  0  0  0  0  0  0  0  0  0  0
  -25.0310  -34.0550   25.0130 H   0  0  0  0  0  0  0  0  0  0  0  0
  -24.1750  -36.7510   23.1430 C   0  0  0  0  0  1  0  0  0  0  0  0
  -25.4410  -36.3490   23.9150 C   0  0  0  0  0  3  0  0  0  0  0  0
  -27.5970  -37.2370   24.6830 C   0  0  0  0  0  1  0  0  0  0  0  0
  -26.4660  -37.4060   23.7750 N   0  0  0  0  0  0  0  0  0  0  0  0
  -26.0620  -38.3230   23.9390 H   0  0  0  0  0  0  0  0  0  0  0  0
  1  3  1  0
  3 10  1  0
  3  2  1  1
  4  1  1  0
  5  9  1  0
  6  5  2  0
  6 10  1  0
  8  7  1  0
  8 11  1  0
  9 20  1  0
  9  7  2  0
 10  8  2  0
 12 20  1  0
 13 18  1  0
 14 15  1  0
 14 13  1  0
 16 15  1  0
 16 25  1  0
 16 17  1  0
 18 12  1  0
 18 17  1  0
 19 12  2  0
 20 21  1  0
 22 23  2  0
 23 42  1  0
 24 23  1  0
 24 27  1  0
 25 22  1  0
 25 26  1  0
 26 24  2  0
 27 28  1  0
 28 29  2  0
 30 33  1  0
 30 29  1  0
 31 30  2  0
 32 31  1  0
 32 27  2  0
 33 34  1  0
 34 35  1  0
 35 36  2  0
 37 36  1  0
 37 41  1  0
 38 37  2  0
 39 34  2  0
 39 38  1  0
 40 39  1  0
 42 43  1  0
 43 46  1  0
 43 45  1  0
 44 42  2  0
 47 48  1  0
 47 22  1  0
 49 47  1  0
 50 51  1  0
 50  3  1  0
 52 53  1  0
 52 51  2  0
 54 65  2  0
 55 53  1  0
 55 60  1  0
 56 64  1  0
 56 66  1  0
 57 63  1  0
 57 59  1  0
 58 64  1  0
 59 58  1  0
 60 59  2  0
 61 62  1  0
 61 55  2  0
 62 57  2  0
 63 56  1  0
 64 54  1  0
 66 68  2  0
 67 66  1  0
 69 67  1  0
 70 79  2  0
 70 75  1  0
 71 67  1  0
 71 75  1  0
 72 71  1  0
 73 74  1  0
 73 72  1  0
 74 70  1  0
 75 76  2  0
 76 77  1  0
 78 77  2  0
 79 78  1  0
 80 54  1  0
 80 85  1  0
 80 81  1  0
 81 84  1  1
 81 82  1  0
 83 81  1  0
 85 88  1  0
 86 90  1  0
 86 85  1  0
 87 86  2  0
 90 89  1  0
 92 90  1  0
 92 93  1  0
 92 91  1  0
M  ISO  4  12 100  20 100  52 101  53 101
M  END
>  <TORSDO>  (37) 
F 20

>  <SCORE>  (37) 
-14.178

>  <name>  (37) 
36

>  <ligand_id>  (37) 
36

>  <original_smiles>  (37) 
[H]N=S(=O)(c1c([H])c([H])c(N([H])C(=O)N2C([H])([H])C([H])([H])C([H])([H])C([H])(n3nc(-c4c([H])c([H])c(Oc5c([H])c([H])c(F)c([H])c5F)c([H])c4[H])c(C(=O)N([H])[H])c3N([H])[H])C2([H])[H])c([H])c1C([H])([H])[H])C([H])([H])C([H])([H])C([H])([H])Oc1c([H])c([H])c2c(c1[H])C([H])([H])N(C(=O)C([H])(N([H])C(=O)C([H])(N([H])C([H])([H])[H])C([H])([H])[H])C(C([H])([H])[H])(C([H])([H])[H])C([H])([H])[H])C([H])(C(=O)N([H])C1([H])c3c([H])c([H])c([H])c([H])c3C([H])([H])C([H])([H])C1([H])[H])C2([H])[H]

>  <smiles>  (37) 
[H]N=S(=O)(c1c([H])c([H])c(N([H])C(=O)N2C([H])([H])C([H])([H])C([H])([H])C([H])(n3nc(-c4c([H])c([H])c(Oc5c([H])c([H])c(F)c([H])c5F)c([H])c4[H])c(C(=O)N([H])[H])c3N([H])[H])C2([H])[H])c([H])c1C([H])([H])[H])C([H])([H])C([H])([H])C([H])([H])Oc1c([H])c([H])c2c(c1[H])C([H])([H])N(C(=O)C([H])(N([H])C(=O)C([H])(N([H])C([H])([H])[H])C([H])([H])[H])C(C([H])([H])[H])(C([H])([H])[H])C([H])([H])[H])C([H])(C(=O)N([H])C1([H])c3c([H])c([H])c([H])c([H])c3C([H])([H])C([H])([H])C1([H])[H])C2([H])[H]

$$$$
37:0:0
     RDKit          3D

 92100  0  0  1  0  0  0  0  0999 V2000
  -29.3190  -21.8210   19.7310 C   0  0  0  0  0  2  0  0  0  0  0  0
  -31.1700  -19.5140   22.2470 C   0  0  0  0  0  3  0  0  0  0  0  0
  -30.9910  -18.2500   21.6470 C   0  0  0  0  0  3  0  0  0  0  0  0
  -30.6390  -20.6770   21.6470 C   0  0  0  0  0  3  0  0  0  0  0  0
  -29.7520  -19.3120   19.8410 C   0  0  0  0  0  3  0  0  0  0  0  0
  -30.2820  -18.1420   20.4340 C   0  0  0  0  0  0  0  0  0  0  0  0
  -29.9070  -20.5850   20.4410 C   0  0  0  0  0  0  0  0  0  0  0  0
  -30.1140  -16.8050   19.7080 C   0  0  0  0  0  2  0  0  0  0  0  0
  -30.8350  -14.5110   20.2560 C   0  0  0  0  0  0  0  0  0  0  0  0
  -30.5100  -12.3280   19.1920 C   0  0  0  0  0  2  0  0  0  0  0  0
  -29.5620  -12.5410   17.9920 C   0  0  0  0  0  2  0  0  0  0  0  0
  -28.0890  -12.4240   18.4370 C   0  0  0  0  0  2  0  0  0  0  0  0
  -27.7710  -13.2750   19.6960 C   0  0  0  0  0  3  0  0  0  0  0  0
  -28.8400  -13.0660   20.7970 C   0  0  0  0  0  2  0  0  0  0  0  0
  -30.1660  -13.3310   20.2120 N   0  0  0  0  0  0  0  0  0  0  0  0
  -31.9770  -14.6570   19.8130 O   0  0  0  0  0  0  0  0  0  0  0  0
  -30.0640  -15.5790   20.5200 N   0  0  0  0  0  0  0  0  0  0  0  0
  -29.1690  -15.3680   20.9350 H   0  0  0  0  0  0  0  0  0  0  0  0
  -25.3870  -13.9100   20.4410 C   0  0  0  0  0  0  0  0  0  0  0  0
  -24.3150  -13.1490   20.8250 C   0  0  0  0  0  0  0  0  0  0  0  0
  -24.7620  -11.7920   20.7840 C   0  0  0  0  0  0  0  0  0  0  0  0
  -26.4210  -13.0180   20.1930 N   0  0  0  0  0  0  0  0  0  0  0  0
  -26.0470  -11.7400   20.4580 N   0  0  0  0  0  0  0  0  0  0  0  0
  -24.0260  -10.5370   20.9830 C   0  0  0  0  0  0  0  0  0  0  0  0
  -24.4550   -9.5680   21.9180 C   0  0  0  0  0  3  0  0  0  0  0  0
  -23.7170   -8.3790   22.1040 C   0  0  0  0  0  3  0  0  0  0  0  0
  -22.5380   -8.1500   21.3560 C   0  0  0  0  0  0  0  0  0  0  0  0
  -22.1300   -9.1070   20.4110 C   0  0  0  0  0  3  0  0  0  0  0  0
  -22.8680  -10.2880   20.2220 C   0  0  0  0  0  3  0  0  0  0  0  0
  -21.7760   -7.0110   21.4490 O   0  0  0  0  0  0  0  0  0  0  0  0
  -21.7180   -6.2750   22.6060 C   0  0  0  0  0  0  0  0  0  0  0  0
  -21.2680   -6.8330   23.8210 C   0  0  0  0  0  3  0  0  0  0  0  0
  -21.1590   -6.0230   24.9690 C   0  0  0  0  0  3  0  0  0  0  0  0
  -21.4930   -4.6560   24.9020 C   0  0  0  0  0  0  0  0  0  0  0  0
  -21.9370   -4.0980   23.6890 C   0  0  0  0  0  3  0  0  0  0  0  0
  -22.0470   -4.9060   22.5450 C   0  0  0  0  0  0  0  0  0  0  0  0
  -22.4560   -4.3600   21.3740 F   0  0  0  0  0  0  0  0  0  0  0  0
  -21.3810   -3.8760   26.0020 F   0  0  0  0  0  0  0  0  0  0  0  0
  -22.9280  -13.6410   21.1180 C   0  0  0  0  0  0  0  0  0  0  0  0
  -22.2030  -12.9510   21.9910 N   0  0  0  0  0  0  0  0  0  0  0  0
  -22.4950  -14.6750   20.6080 O   0  0  0  0  0  0  0  0  0  0  0  0
  -22.5650  -12.1200   22.4350 H   0  0  0  0  0  0  0  0  0  0  0  0
  -21.2700  -13.2630   22.2250 H   0  0  0  0  0  0  0  0  0  0  0  0
  -25.5610  -15.2790   20.2640 N   0  0  0  0  0  0  0  0  0  0  0  0
  -24.7970  -15.9350   20.3830 H   0  0  0  0  0  0  0  0  0  0  0  0
  -26.4070  -15.7140   19.9180 H   0  0  0  0  0  0  0  0  0  0  0  0
  -28.9650  -24.2470   20.1330 C   0  0  0  0  0  0  0  0  0  0  0  0
  -27.9520  -22.6170   21.6910 C   0  0  0  0  0  1  0  0  0  0  0  0
  -28.8090  -22.9540   20.5470 N   0  0  0  0  0  0  0  0  0  0  0  0
  -29.5660  -24.5330   19.0910 O   0  0  0  0  0  0  0  0  0  0  0  0
  -28.3810  -25.4010   20.9890 C   0  0  0  0  0  2  0  0  0  0  0  0
  -28.5290  -26.6920   20.3490 O   0  0  0  0  0  0  0  0  0  0  0  0
  -24.5870  -31.8540   23.2690 C   0  0  0  0  0  0  0  0  0  0  0  0
  -27.3710  -27.4350   20.2920 C   0  0  0  0  0  0  0  0  0  0  0  0
  -23.4460  -30.4380   21.5920 C   0  0  0  0  0  3  0  0  0  0  0  0
  -24.9610  -28.9140   20.2150 C   0  0  0  0  0  0  0  0  0  0  0  0
  -25.9730  -30.8260   21.4700 C   0  0  0  0  0  2  0  0  0  0  0  0
  -26.0950  -29.4550   20.8360 C   0  0  0  0  0  0  0  0  0  0  0  0
  -27.3070  -28.7250   20.8670 C   0  0  0  0  0  3  0  0  0  0  0  0
  -26.2250  -26.9100   19.6560 C   0  0  0  0  0  3  0  0  0  0  0  0
  -25.0220  -27.6410   19.6210 C   0  0  0  0  0  3  0  0  0  0  0  0
  -23.7070  -29.7590   20.2200 C   0  0  0  0  0  2  0  0  0  0  0  0
  -24.6850  -31.0540   22.1690 N   0  0  0  0  0  0  0  0  0  0  0  0
  -23.4870  -32.1150   23.7750 O   0  0  0  0  0  0  0  0  0  0  0  0
  -22.7780  -29.4110   22.5330 C   0  0  0  0  0  0  0  0  0  0  0  0
  -21.4620  -29.2080   22.3590 N   0  0  0  0  0  0  0  0  0  0  0  0
  -23.4420  -28.7990   23.3750 O   0  0  0  0  0  0  0  0  0  0  0  0
  -20.9890  -29.7530   21.6520 H   0  0  0  0  0  0  0  0  0  0  0  0
  -18.0890  -27.9720   22.7450 C   0  0  0  0  0  0  0  0  0  0  0  0
  -20.6320  -28.2630   23.1050 C   0  0  0  0  0  3  0  0  0  0  0  0
  -20.7730  -26.8310   22.5380 C   0  0  0  0  0  2  0  0  0  0  0  0
  -19.7120  -26.4910   21.4880 C   0  0  0  0  0  2  0  0  0  0  0  0
  -18.3060  -26.6240   22.0810 C   0  0  0  0  0  2  0  0  0  0  0  0
  -19.1830  -28.7490   23.2110 C   0  0  0  0  0  0  0  0  0  0  0  0
  -18.9280  -30.0120   23.7900 C   0  0  0  0  0  3  0  0  0  0  0  0
  -17.6120  -30.4960   23.9070 C   0  0  0  0  0  3  0  0  0  0  0  0
  -16.5330  -29.7170   23.4570 C   0  0  0  0  0  3  0  0  0  0  0  0
  -16.7710  -28.4570   22.8810 C   0  0  0  0  0  3  0  0  0  0  0  0
  -25.8470  -32.4990   23.9260 C   0  0  0  0  0  3  0  0  0  0  0  0
  -26.3210  -31.7480   25.2300 C   0  0  1  0  0  0  0  0  0  0  0  0
  -25.1910  -31.5200   26.2600 C   0  0  0  0  0  1  0  0  0  0  0  0
  -26.9250  -30.3690   24.8760 C   0  0  0  0  0  1  0  0  0  0  0  0
  -27.4410  -32.5590   25.9240 C   0  0  0  0  0  1  0  0  0  0  0  0
  -25.5210  -33.9010   24.2220 N   0  0  0  0  0  0  0  0  0  0  0  0
  -25.8790  -34.9420   23.4590 C   0  0  0  0  0  0  0  0  0  0  0  0
  -26.5870  -34.8250   22.4550 O   0  0  0  0  0  0  0  0  0  0  0  0
  -24.8980  -34.0650   24.9990 H   0  0  0  0  0  0  0  0  0  0  0  0
  -24.1610  -36.7220   23.0050 C   0  0  0  0  0  1  0  0  0  0  0  0
  -25.3680  -36.3350   23.8740 C   0  0  0  0  0  3  0  0  0  0  0  0
  -27.4610  -37.2420   24.7840 C   0  0  0  0  0  1  0  0  0  0  0  0
  -26.4010  -37.3910   23.7910 N   0  0  0  0  0  0  0  0  0  0  0  0
  -25.9840  -38.3100   23.9070 H   0  0  0  0  0  0  0  0  0  0  0  0
  1  7  1  0
  1 49  1  0
  3  2  1  0
  4  2  2  0
  5  6  1  0
  5  7  2  0
  6  3  2  0
  7  4  1  0
  8  6  1  0
  8 17  1  0
  9 17  1  0
 10 15  1  0
 11 12  1  0
 11 10  1  0
 13 12  1  0
 13 22  1  0
 13 14  1  0
 15  9  1  0
 15 14  1  0
 16  9  2  0
 17 18  1  0
 19 20  2  0
 20 39  1  0
 21 20  1  0
 21 24  1  0
 22 19  1  0
 22 23  1  0
 23 21  2  0
 24 25  1  0
 25 26  2  0
 27 30  1  0
 27 26  1  0
 28 27  2  0
 29 28  1  0
 29 24  2  0
 30 31  1  0
 31 32  1  0
 32 33  2  0
 34 33  1  0
 34 38  1  0
 35 34  2  0
 36 31  2  0
 36 35  1  0
 37 36  1  0
 39 40  1  0
 40 43  1  0
 40 42  1  0
 41 39  2  0
 44 45  1  0
 44 19  1  0
 46 44  1  0
 47 49  1  0
 47 51  1  0
 49 48  1  0
 50 47  2  0
 52 51  1  0
 53 64  2  0
 54 52  1  0
 54 59  1  0
 55 63  1  0
 55 65  1  0
 56 62  1  0
 56 58  1  0
 57 63  1  0
 58 59  2  0
 58 57  1  0
 60 54  2  0
 61 60  1  0
 61 56  2  0
 62 55  1  0
 63 53  1  0
 65 67  2  0
 66 65  1  0
 68 66  1  0
 69 78  2  0
 69 74  1  0
 70 66  1  0
 70 74  1  0
 71 70  1  0
 72 73  1  0
 72 71  1  0
 73 69  1  0
 74 75  2  0
 75 76  1  0
 77 76  2  0
 78 77  1  0
 79 53  1  0
 79 84  1  0
 79 80  1  0
 80 83  1  1
 80 81  1  0
 82 80  1  0
 84 87  1  0
 85 89  1  0
 85 84  1  0
 86 85  2  0
 89 88  1  0
 91 89  1  0
 91 92  1  0
 91 90  1  0
M  ISO  4   9 100  17 100  51 101  52 101
M  END
>  <TORSDO>  (38) 
F 20

>  <SCORE>  (38) 
-14.091

>  <name>  (38) 
37

>  <ligand_id>  (38) 
37

>  <original_smiles>  (38) 
[H]c1c([H])c(C([H])([H])N([H])C(=O)N2C([H])([H])C([H])([H])C([H])([H])C([H])(n3nc(-c4c([H])c([H])c(Oc5c([H])c([H])c(F)c([H])c5F)c([H])c4[H])c(C(=O)N([H])[H])c3N([H])[H])C2([H])[H])c([H])c(C([H])([H])N(C(=O)C([H])([H])Oc2c([H])c([H])c3c(c2[H])C([H])([H])N(C(=O)C([H])(N([H])C(=O)C([H])(N([H])C([H])([H])[H])C([H])([H])[H])C(C([H])([H])[H])(C([H])([H])[H])C([H])([H])[H])C([H])(C(=O)N([H])C2([H])c4c([H])c([H])c([H])c([H])c4C([H])([H])C([H])([H])C2([H])[H])C3([H])[H])C([H])([H])[H])c1[H]

>  <smiles>  (38) 
[H]c1c([H])c(C([H])([H])N([H])C(=O)N2C([H])([H])C([H])([H])C([H])([H])C([H])(n3nc(-c4c([H])c([H])c(Oc5c([H])c([H])c(F)c([H])c5F)c([H])c4[H])c(C(=O)N([H])[H])c3N([H])[H])C2([H])[H])c([H])c(C([H])([H])N(C(=O)C([H])([H])Oc2c([H])c([H])c3c(c2[H])C([H])([H])N(C(=O)C([H])(N([H])C(=O)C([H])(N([H])C([H])([H])[H])C([H])([H])[H])C(C([H])([H])[H])(C([H])([H])[H])C([H])([H])[H])C([H])(C(=O)N([H])C2([H])c4c([H])c([H])c([H])c([H])c4C([H])([H])C([H])([H])C2([H])[H])C3([H])[H])C([H])([H])[H])c1[H]

$$$$
38:0:0
     RDKit          3D

 95103  0  0  1  0  0  0  0  0999 V2000
  -31.2690  -19.5100   19.3240 C   0  0  0  0  0  3  0  0  0  0  0  0
  -31.2460  -18.1350   19.7010 C   0  0  0  0  0  3  0  0  0  0  0  0
  -29.2390  -18.5520   20.9510 C   0  0  0  0  0  3  0  0  0  0  0  0
  -30.2960  -20.4580   19.7540 C   0  0  0  0  0  0  0  0  0  0  0  0
  -29.2590  -19.9400   20.5880 C   0  0  0  0  0  0  0  0  0  0  0  0
  -30.2310  -17.6130   20.5440 C   0  0  0  0  0  0  0  0  0  0  0  0
  -30.9560  -15.1280   20.8660 C   0  0  0  0  0  0  0  0  0  0  0  0
  -30.9130  -12.7140   20.2660 C   0  0  0  0  0  2  0  0  0  0  0  0
  -30.1550  -12.5610   18.9280 C   0  0  0  0  0  2  0  0  0  0  0  0
  -28.6370  -12.4390   19.1700 C   0  0  0  0  0  2  0  0  0  0  0  0
  -28.0990  -13.5230   20.1410 C   0  0  0  0  0  3  0  0  0  0  0  0
  -28.9830  -13.6310   21.4040 C   0  0  0  0  0  2  0  0  0  0  0  0
  -30.3630  -13.8940   20.9620 N   0  0  0  0  0  0  0  0  0  0  0  0
  -32.1520  -15.2380   20.5810 O   0  0  0  0  0  0  0  0  0  0  0  0
  -30.1220  -16.2120   20.9720 N   0  0  0  0  0  0  0  0  0  0  0  0
  -29.2160  -15.9590   21.3420 H   0  0  0  0  0  0  0  0  0  0  0  0
  -25.6670  -14.2250   20.5830 C   0  0  0  0  0  0  0  0  0  0  0  0
  -24.5360  -13.4990   20.8420 C   0  0  0  0  0  0  0  0  0  0  0  0
  -24.9440  -12.1310   20.8760 C   0  0  0  0  0  0  0  0  0  0  0  0
  -26.6940  -13.3020   20.4750 N   0  0  0  0  0  0  0  0  0  0  0  0
  -26.2570  -12.0370   20.7100 N   0  0  0  0  0  0  0  0  0  0  0  0
  -24.1520  -10.9000   20.9980 C   0  0  0  0  0  0  0  0  0  0  0  0
  -24.4780   -9.9030   21.9440 C   0  0  0  0  0  3  0  0  0  0  0  0
  -23.6890   -8.7370   22.0550 C   0  0  0  0  0  3  0  0  0  0  0  0
  -22.5620   -8.5600   21.2170 C   0  0  0  0  0  0  0  0  0  0  0  0
  -22.2560   -9.5450   20.2620 C   0  0  0  0  0  3  0  0  0  0  0  0
  -23.0430  -10.7020   20.1500 C   0  0  0  0  0  3  0  0  0  0  0  0
  -21.7540   -7.4490   21.2360 O   0  0  0  0  0  0  0  0  0  0  0  0
  -21.6360   -6.6640   22.3550 C   0  0  0  0  0  0  0  0  0  0  0  0
  -21.1960   -7.1870   23.5900 C   0  0  0  0  0  3  0  0  0  0  0  0
  -21.0230   -6.3320   24.6960 C   0  0  0  0  0  3  0  0  0  0  0  0
  -21.2800   -4.9540   24.5670 C   0  0  0  0  0  0  0  0  0  0  0  0
  -21.7120   -4.4290   23.3370 C   0  0  0  0  0  3  0  0  0  0  0  0
  -21.8870   -5.2830   22.2330 C   0  0  0  0  0  0  0  0  0  0  0  0
  -22.2840   -4.7690   21.0440 F   0  0  0  0  0  0  0  0  0  0  0  0
  -21.1060   -4.1290   25.6270 F   0  0  0  0  0  0  0  0  0  0  0  0
  -23.1370  -14.0340   20.9550 C   0  0  0  0  0  0  0  0  0  0  0  0
  -22.2950  -13.3830   21.7520 N   0  0  0  0  0  0  0  0  0  0  0  0
  -22.7960  -15.0630   20.3750 O   0  0  0  0  0  0  0  0  0  0  0  0
  -22.5810  -12.5500   22.2450 H   0  0  0  0  0  0  0  0  0  0  0  0
  -21.3520  -13.7250   21.8730 H   0  0  0  0  0  0  0  0  0  0  0  0
  -25.9060  -15.5840   20.4090 N   0  0  0  0  0  0  0  0  0  0  0  0
  -25.1560  -16.2680   20.4080 H   0  0  0  0  0  0  0  0  0  0  0  0
  -26.8000  -15.9800   20.1480 H   0  0  0  0  0  0  0  0  0  0  0  0
  -28.1790  -20.8690   21.1440 C   0  0  1  0  0  0  0  0  0  0  0  0
  -27.2830  -20.2140   21.8840 F   0  0  0  0  0  0  0  0  0  0  0  0
  -28.7350  -21.8020   21.9160 F   0  0  0  0  0  0  0  0  0  0  0  0
  -27.5240  -21.4660   20.1470 F   0  0  0  0  0  0  0  0  0  0  0  0
  -30.5380  -21.9920   19.4510 C   0  0  0  0  0  2  0  0  0  0  0  0
  -29.6000  -24.3650   19.1980 C   0  0  0  0  0  0  0  0  0  0  0  0
  -29.4410  -22.9970   19.2260 N   0  0  0  0  0  0  0  0  0  0  0  0
  -30.7030  -24.8730   19.4090 O   0  0  0  0  0  0  0  0  0  0  0  0
  -28.5110  -22.6300   19.0770 H   0  0  0  0  0  0  0  0  0  0  0  0
  -28.3760  -25.3080   18.8700 C   0  0  0  0  0  2  0  0  0  0  0  0
  -28.5410  -26.7570   19.1550 O   0  0  0  0  0  0  0  0  0  0  0  0
  -24.5520  -31.4650   22.9020 C   0  0  0  0  0  0  0  0  0  0  0  0
  -27.3710  -27.5370   19.2260 C   0  0  0  0  0  0  0  0  0  0  0  0
  -23.4000  -30.2380   21.0960 C   0  0  0  0  0  3  0  0  0  0  0  0
  -24.9120  -28.9870   19.4590 C   0  0  0  0  0  0  0  0  0  0  0  0
  -25.9140  -30.7320   20.9330 C   0  0  0  0  0  2  0  0  0  0  0  0
  -26.0630  -29.4620   20.1020 C   0  0  0  0  0  0  0  0  0  0  0  0
  -27.2950  -28.7530   19.9720 C   0  0  0  0  0  3  0  0  0  0  0  0
  -26.1890  -27.1170   18.5690 C   0  0  0  0  0  3  0  0  0  0  0  0
  -24.9770  -27.8220   18.6850 C   0  0  0  0  0  3  0  0  0  0  0  0
  -23.6290  -29.7710   19.6350 C   0  0  0  0  0  2  0  0  0  0  0  0
  -24.6410  -30.8210   21.7030 N   0  0  0  0  0  0  0  0  0  0  0  0
  -23.4620  -31.6030   23.4790 O   0  0  0  0  0  0  0  0  0  0  0  0
  -22.8120  -29.0630   21.9140 C   0  0  0  0  0  0  0  0  0  0  0  0
  -21.4900  -28.8480   21.7990 N   0  0  0  0  0  0  0  0  0  0  0  0
  -23.5440  -28.3530   22.6100 O   0  0  0  0  0  0  0  0  0  0  0  0
  -20.9570  -29.4830   21.2220 H   0  0  0  0  0  0  0  0  0  0  0  0
  -18.1750  -27.4690   22.2400 C   0  0  0  0  0  0  0  0  0  0  0  0
  -20.7340  -27.7730   22.4450 C   0  0  0  0  0  3  0  0  0  0  0  0
  -20.8510  -26.4520   21.6500 C   0  0  0  0  0  2  0  0  0  0  0  0
  -19.7140  -26.2510   20.6430 C   0  0  0  0  0  2  0  0  0  0  0  0
  -18.3590  -26.2480   21.3560 C   0  0  0  0  0  2  0  0  0  0  0  0
  -19.2890  -28.1940   22.7380 C   0  0  0  0  0  0  0  0  0  0  0  0
  -19.0620  -29.3420   23.5280 C   0  0  0  0  0  3  0  0  0  0  0  0
  -17.7520  -29.7650   23.8230 C   0  0  0  0  0  3  0  0  0  0  0  0
  -16.6530  -29.0360   23.3380 C   0  0  0  0  0  3  0  0  0  0  0  0
  -16.8640  -27.8900   22.5520 C   0  0  0  0  0  3  0  0  0  0  0  0
  -25.8070  -32.0800   23.5950 C   0  0  0  0  0  3  0  0  0  0  0  0
  -26.3590  -31.1950   24.7790 C   0  0  1  0  0  0  0  0  0  0  0  0
  -25.2800  -30.8010   25.8150 C   0  0  0  0  0  1  0  0  0  0  0  0
  -26.9910  -29.8920   24.2370 C   0  0  0  0  0  1  0  0  0  0  0  0
  -27.4800  -31.9550   25.5240 C   0  0  0  0  0  1  0  0  0  0  0  0
  -25.4380  -33.4180   24.0770 N   0  0  0  0  0  0  0  0  0  0  0  0
  -25.7220  -34.5630   23.4430 C   0  0  0  0  0  0  0  0  0  0  0  0
  -26.3940  -34.6040   22.4080 O   0  0  0  0  0  0  0  0  0  0  0  0
  -24.8400  -33.4550   24.8910 H   0  0  0  0  0  0  0  0  0  0  0  0
  -23.9130  -36.3030   23.2970 C   0  0  0  0  0  1  0  0  0  0  0  0
  -25.1780  -35.8670   24.0530 C   0  0  0  0  0  3  0  0  0  0  0  0
  -27.2770  -36.7550   24.9680 C   0  0  0  0  0  1  0  0  0  0  0  0
  -26.1600  -36.9730   24.0520 N   0  0  0  0  0  0  0  0  0  0  0  0
  -25.7130  -37.8510   24.3020 H   0  0  0  0  0  0  0  0  0  0  0  0
  1  2  2  0
  1  4  1  0
  2  6  1  0
  4  5  2  0
  5  3  1  0
  5 45  1  0
  6  3  2  0
  6 15  1  0
  7 13  1  0
  7 15  1  0
  8 13  1  0
  9 10  1  0
  9  8  1  0
 11 10  1  0
 11 20  1  0
 11 12  1  0
 13 12  1  0
 14  7  2  0
 15 16  1  0
 17 18  2  0
 18 19  1  0
 18 37  1  0
 19 22  1  0
 20 17  1  0
 20 21  1  0
 21 19  2  0
 22 23  1  0
 23 24  2  0
 25 28  1  0
 25 24  1  0
 26 25  2  0
 27 26  1  0
 27 22  2  0
 28 29  1  0
 29 30  1  0
 30 31  2  0
 32 31  1  0
 32 36  1  0
 33 32  2  0
 34 29  2  0
 34 33  1  0
 35 34  1  0
 37 38  1  0
 38 41  1  0
 38 40  1  0
 39 37  2  0
 42 17  1  0
 43 42  1  0
 44 42  1  0
 45 46  1  1
 45 47  1  0
 48 45  1  0
 49  4  1  0
 50 51  1  0
 50 52  2  0
 51 49  1  0
 53 51  1  0
 54 55  1  0
 54 50  1  0
 55 57  1  0
 56 67  2  0
 57 62  1  0
 58 66  1  0
 58 68  1  0
 59 65  1  0
 59 61  1  0
 60 66  1  0
 61 60  1  0
 62 61  2  0
 63 64  1  0
 63 57  2  0
 64 59  2  0
 65 58  1  0
 66 56  1  0
 68 70  2  0
 69 68  1  0
 71 69  1  0
 72 81  2  0
 72 77  1  0
 73 69  1  0
 73 77  1  0
 74 73  1  0
 75 76  1  0
 75 74  1  0
 76 72  1  0
 77 78  2  0
 78 79  1  0
 80 79  2  0
 81 80  1  0
 82 56  1  0
 82 87  1  0
 82 83  1  0
 83 86  1  1
 83 84  1  0
 85 83  1  0
 87 90  1  0
 88 92  1  0
 88 87  1  0
 89 88  2  0
 92 91  1  0
 94 92  1  0
 94 95  1  0
 94 93  1  0
M  ISO  4   7 100  15 100  54 101  55 101
M  END
>  <TORSDO>  (39) 
F 20

>  <SCORE>  (39) 
-10.160

>  <name>  (39) 
38

>  <ligand_id>  (39) 
38

>  <original_smiles>  (39) 
[H]c1c([H])c([H])c2c(c1[H])C([H])([H])C([H])([H])C([H])([H])C2([H])N([H])C(=O)C1([H])N(C(=O)C([H])(N([H])C(=O)C([H])(N([H])C([H])([H])[H])C([H])([H])[H])C(C([H])([H])[H])(C([H])([H])[H])C([H])([H])[H])C([H])([H])c2c([H])c(OC([H])([H])C(=O)N([H])C([H])([H])c3c([H])c([H])c(N([H])C(=O)N4C([H])([H])C([H])([H])C([H])([H])C([H])(n5nc(-c6c([H])c([H])c(Oc7c([H])c([H])c(F)c([H])c7F)c([H])c6[H])c(C(=O)N([H])[H])c5N([H])[H])C4([H])[H])c([H])c3C(F)(F)F)c([H])c([H])c2C1([H])[H]

>  <smiles>  (39) 
[H]c1c([H])c([H])c2c(c1[H])C([H])([H])C([H])([H])C([H])([H])C2([H])N([H])C(=O)C1([H])N(C(=O)C([H])(N([H])C(=O)C([H])(N([H])C([H])([H])[H])C([H])([H])[H])C(C([H])([H])[H])(C([H])([H])[H])C([H])([H])[H])C([H])([H])c2c([H])c(OC([H])([H])C(=O)N([H])C([H])([H])c3c([H])c([H])c(N([H])C(=O)N4C([H])([H])C([H])([H])C([H])([H])C([H])(n5nc(-c6c([H])c([H])c(Oc7c([H])c([H])c(F)c([H])c7F)c([H])c6[H])c(C(=O)N([H])[H])c5N([H])[H])C4([H])[H])c([H])c3C(F)(F)F)c([H])c([H])c2C1([H])[H]

$$$$
39:0:0
     RDKit          3D

 92100  0  0  1  0  0  0  0  0999 V2000
  -30.4150  -20.0780   22.7030 C   0  0  0  0  0  3  0  0  0  0  0  0
  -30.4510  -18.8570   21.9990 C   0  0  0  0  0  3  0  0  0  0  0  0
  -30.0060  -21.2750   22.0830 C   0  0  0  0  0  3  0  0  0  0  0  0
  -30.0950  -18.7880   20.6390 C   0  0  0  0  0  0  0  0  0  0  0  0
  -29.6350  -20.0310   20.0190 C   0  0  0  0  0  0  0  0  0  0  0  0
  -29.5870  -21.3050   20.7310 C   0  0  0  0  0  0  0  0  0  0  0  0
  -29.1870  -19.9840   18.5630 C   0  0  0  0  0  1  0  0  0  0  0  0
  -29.2120  -23.9060   20.5390 C   0  0  0  0  0  0  0  0  0  0  0  0
  -29.0550  -22.5750   20.1670 N   0  0  0  0  0  0  0  0  0  0  0  0
  -30.1120  -24.2550   21.3100 O   0  0  0  0  0  0  0  0  0  0  0  0
  -28.4020  -22.4450   19.4060 H   0  0  0  0  0  0  0  0  0  0  0  0
  -28.2380  -25.0330   19.9560 C   0  0  0  0  0  2  0  0  0  0  0  0
  -28.4940  -26.4900   20.2550 O   0  0  0  0  0  0  0  0  0  0  0  0
  -24.6660  -31.8860   23.2350 C   0  0  0  0  0  0  0  0  0  0  0  0
  -27.4000  -27.3860   20.1590 C   0  0  0  0  0  0  0  0  0  0  0  0
  -23.5200  -30.4960   21.5490 C   0  0  0  0  0  3  0  0  0  0  0  0
  -25.0220  -29.0020   20.1190 C   0  0  0  0  0  0  0  0  0  0  0  0
  -26.0620  -30.8500   21.4270 C   0  0  0  0  0  2  0  0  0  0  0  0
  -26.1740  -29.4830   20.7540 C   0  0  0  0  0  0  0  0  0  0  0  0
  -27.3660  -28.6860   20.7640 C   0  0  0  0  0  3  0  0  0  0  0  0
  -26.2250  -26.9830   19.4790 C   0  0  0  0  0  3  0  0  0  0  0  0
  -25.0530  -27.7600   19.4720 C   0  0  0  0  0  3  0  0  0  0  0  0
  -23.7690  -29.8550   20.1600 C   0  0  0  0  0  2  0  0  0  0  0  0
  -24.7680  -31.0940   22.1280 N   0  0  0  0  0  0  0  0  0  0  0  0
  -23.5660  -32.1370   23.7520 O   0  0  0  0  0  0  0  0  0  0  0  0
  -22.8600  -29.4480   22.4770 C   0  0  0  0  0  0  0  0  0  0  0  0
  -21.5370  -29.2570   22.3350 N   0  0  0  0  0  0  0  0  0  0  0  0
  -23.5360  -28.8140   23.2920 O   0  0  0  0  0  0  0  0  0  0  0  0
  -21.0490  -29.8250   21.6550 H   0  0  0  0  0  0  0  0  0  0  0  0
  -18.1610  -28.0530   22.8150 C   0  0  0  0  0  0  0  0  0  0  0  0
  -20.7220  -28.2920   23.0740 C   0  0  0  0  0  3  0  0  0  0  0  0
  -20.8130  -26.8840   22.4420 C   0  0  0  0  0  2  0  0  0  0  0  0
  -19.7010  -26.6050   21.4260 C   0  0  0  0  0  2  0  0  0  0  0  0
  -18.3260  -26.7300   22.0860 C   0  0  0  0  0  2  0  0  0  0  0  0
  -19.2860  -28.7940   23.2640 C   0  0  0  0  0  0  0  0  0  0  0  0
  -19.0750  -30.0340   23.9060 C   0  0  0  0  0  3  0  0  0  0  0  0
  -17.7710  -30.5300   24.1050 C   0  0  0  0  0  3  0  0  0  0  0  0
  -16.6620  -29.7840   23.6730 C   0  0  0  0  0  3  0  0  0  0  0  0
  -16.8580  -28.5470   23.0320 C   0  0  0  0  0  3  0  0  0  0  0  0
  -25.9250  -32.5320   23.8920 C   0  0  0  0  0  3  0  0  0  0  0  0
  -26.4060  -31.7790   25.1920 C   0  0  1  0  0  0  0  0  0  0  0  0
  -25.2790  -31.5310   26.2200 C   0  0  0  0  0  1  0  0  0  0  0  0
  -27.0290  -30.4090   24.8360 C   0  0  0  0  0  1  0  0  0  0  0  0
  -27.5190  -32.5960   25.8920 C   0  0  0  0  0  1  0  0  0  0  0  0
  -25.5970  -33.9330   24.2000 N   0  0  0  0  0  0  0  0  0  0  0  0
  -25.9380  -34.9810   23.4390 C   0  0  0  0  0  0  0  0  0  0  0  0
  -26.6350  -34.8740   22.4260 O   0  0  0  0  0  0  0  0  0  0  0  0
  -24.9860  -34.0920   24.9880 H   0  0  0  0  0  0  0  0  0  0  0  0
  -24.2260  -36.7700   23.0070 C   0  0  0  0  0  1  0  0  0  0  0  0
  -25.4290  -36.3690   23.8740 C   0  0  0  0  0  3  0  0  0  0  0  0
  -27.5100  -37.2730   24.8120 C   0  0  0  0  0  1  0  0  0  0  0  0
  -26.4620  -37.4250   23.8050 N   0  0  0  0  0  0  0  0  0  0  0  0
  -26.0430  -38.3430   23.9200 H   0  0  0  0  0  0  0  0  0  0  0  0
  -30.3480  -17.4150   19.8620 C   0  0  0  0  0  2  0  0  0  0  0  0
  -30.9470  -14.8900   20.1290 C   0  0  0  0  0  0  0  0  0  0  0  0
  -30.6740  -12.6440   19.0750 C   0  0  0  0  0  2  0  0  0  0  0  0
  -29.7160  -12.7800   17.8680 C   0  0  0  0  0  2  0  0  0  0  0  0
  -28.2480  -12.6370   18.3150 C   0  0  0  0  0  2  0  0  0  0  0  0
  -27.9250  -13.4860   19.5710 C   0  0  0  0  0  3  0  0  0  0  0  0
  -29.0010  -13.3380   20.6690 C   0  0  0  0  0  2  0  0  0  0  0  0
  -30.3010  -13.6740   20.0720 N   0  0  0  0  0  0  0  0  0  0  0  0
  -32.0910  -14.9970   19.6760 O   0  0  0  0  0  0  0  0  0  0  0  0
  -30.2190  -16.0180   20.4720 N   0  0  0  0  0  0  0  0  0  0  0  0
  -29.3320  -15.8290   20.9100 H   0  0  0  0  0  0  0  0  0  0  0  0
  -25.5630  -14.1010   20.3550 C   0  0  0  0  0  0  0  0  0  0  0  0
  -24.4970  -13.3360   20.7490 C   0  0  0  0  0  0  0  0  0  0  0  0
  -24.9410  -11.9800   20.6950 C   0  0  0  0  0  0  0  0  0  0  0  0
  -26.5880  -13.2090   20.0860 N   0  0  0  0  0  0  0  0  0  0  0  0
  -26.2240  -11.9290   20.3530 N   0  0  0  0  0  0  0  0  0  0  0  0
  -24.2050  -10.7250   20.8920 C   0  0  0  0  0  0  0  0  0  0  0  0
  -24.6040   -9.7810   21.8640 C   0  0  0  0  0  3  0  0  0  0  0  0
  -23.8700   -8.5910   22.0490 C   0  0  0  0  0  3  0  0  0  0  0  0
  -22.7210   -8.3350   21.2620 C   0  0  0  0  0  0  0  0  0  0  0  0
  -22.3440   -9.2670   20.2790 C   0  0  0  0  0  3  0  0  0  0  0  0
  -23.0790  -10.4490   20.0920 C   0  0  0  0  0  3  0  0  0  0  0  0
  -21.9620   -7.1940   21.3540 O   0  0  0  0  0  0  0  0  0  0  0  0
  -21.8120   -6.5220   22.5390 C   0  0  0  0  0  0  0  0  0  0  0  0
  -21.2030   -7.1200   23.6650 C   0  0  0  0  0  3  0  0  0  0  0  0
  -21.0080   -6.3690   24.8410 C   0  0  0  0  0  3  0  0  0  0  0  0
  -21.4090   -5.0210   24.8910 C   0  0  0  0  0  0  0  0  0  0  0  0
  -22.0120   -4.4230   23.7720 C   0  0  0  0  0  3  0  0  0  0  0  0
  -22.2090   -5.1710   22.5980 C   0  0  0  0  0  0  0  0  0  0  0  0
  -22.7700   -4.5840   21.5140 F   0  0  0  0  0  0  0  0  0  0  0  0
  -21.2140   -4.2980   26.0210 F   0  0  0  0  0  0  0  0  0  0  0  0
  -23.1140  -13.8290   21.0610 C   0  0  0  0  0  0  0  0  0  0  0  0
  -22.4020  -13.1370   21.9440 N   0  0  0  0  0  0  0  0  0  0  0  0
  -22.6750  -14.8600   20.5530 O   0  0  0  0  0  0  0  0  0  0  0  0
  -22.7770  -12.3060   22.3750 H   0  0  0  0  0  0  0  0  0  0  0  0
  -21.4690  -13.4420   22.1890 H   0  0  0  0  0  0  0  0  0  0  0  0
  -25.7430  -15.4700   20.1850 N   0  0  0  0  0  0  0  0  0  0  0  0
  -24.9850  -16.1300   20.3110 H   0  0  0  0  0  0  0  0  0  0  0  0
  -26.5880  -15.9030   19.8340 H   0  0  0  0  0  0  0  0  0  0  0  0
  2  1  2  0
  3  1  1  0
  4  2  1  0
  5  4  2  0
  5  6  1  0
  6  3  2  0
  7  5  1  0
  8 10  2  0
  9  8  1  0
  9  6  1  0
 11  9  1  0
 12 13  1  0
 12  8  1  0
 14 25  2  0
 15 13  1  0
 15 20  1  0
 16 24  1  0
 16 26  1  0
 17 23  1  0
 17 19  1  0
 18 24  1  0
 19 20  2  0
 19 18  1  0
 21 15  2  0
 22 21  1  0
 22 17  2  0
 23 16  1  0
 24 14  1  0
 26 28  2  0
 27 26  1  0
 29 27  1  0
 30 39  2  0
 30 35  1  0
 31 27  1  0
 31 35  1  0
 32 31  1  0
 33 34  1  0
 33 32  1  0
 34 30  1  0
 35 36  2  0
 36 37  1  0
 38 37  2  0
 39 38  1  0
 40 14  1  0
 40 45  1  0
 40 41  1  0
 41 44  1  1
 41 42  1  0
 43 41  1  0
 45 48  1  0
 46 50  1  0
 46 45  1  0
 47 46  2  0
 50 49  1  0
 52 50  1  0
 52 53  1  0
 52 51  1  0
 54 63  1  0
 54  4  1  0
 55 63  1  0
 56 61  1  0
 57 58  1  0
 57 56  1  0
 59 58  1  0
 59 68  1  0
 59 60  1  0
 61 55  1  0
 61 60  1  0
 62 55  2  0
 63 64  1  0
 65 66  2  0
 66 85  1  0
 67 66  1  0
 67 70  1  0
 68 69  1  0
 68 65  1  0
 69 67  2  0
 70 71  1  0
 71 72  2  0
 73 76  1  0
 73 72  1  0
 74 73  2  0
 75 74  1  0
 75 70  2  0
 76 77  1  0
 77 82  2  0
 77 78  1  0
 78 79  2  0
 79 80  1  0
 80 84  1  0
 81 80  2  0
 82 81  1  0
 83 82  1  0
 85 86  1  0
 86 89  1  0
 86 88  1  0
 87 85  2  0
 90 91  1  0
 90 65  1  0
 92 90  1  0
M  ISO  4  12 101  13 101  55 100  63 100
M  END
>  <TORSDO>  (40) 
F 19

>  <SCORE>  (40) 
-13.620

>  <name>  (40) 
39

>  <ligand_id>  (40) 
39

>  <original_smiles>  (40) 
[H]c1c([H])c(N([H])C(=O)C([H])([H])Oc2c([H])c([H])c3c(c2[H])C([H])([H])N(C(=O)C([H])(N([H])C(=O)C([H])(N([H])C([H])([H])[H])C([H])([H])[H])C(C([H])([H])[H])(C([H])([H])[H])C([H])([H])[H])C([H])(C(=O)N([H])C2([H])c4c([H])c([H])c([H])c([H])c4C([H])([H])C([H])([H])C2([H])[H])C3([H])[H])c(C([H])([H])[H])c(C([H])([H])N([H])C(=O)N2C([H])([H])C([H])([H])C([H])([H])C([H])(n3nc(-c4c([H])c([H])c(Oc5c([H])c([H])c(F)c([H])c5F)c([H])c4[H])c(C(=O)N([H])[H])c3N([H])[H])C2([H])[H])c1[H]

>  <smiles>  (40) 
[H]c1c([H])c(N([H])C(=O)C([H])([H])Oc2c([H])c([H])c3c(c2[H])C([H])([H])N(C(=O)C([H])(N([H])C(=O)C([H])(N([H])C([H])([H])[H])C([H])([H])[H])C(C([H])([H])[H])(C([H])([H])[H])C([H])([H])[H])C([H])(C(=O)N([H])C2([H])c4c([H])c([H])c([H])c([H])c4C([H])([H])C([H])([H])C2([H])[H])C3([H])[H])c(C([H])([H])[H])c(C([H])([H])N([H])C(=O)N2C([H])([H])C([H])([H])C([H])([H])C([H])(n3nc(-c4c([H])c([H])c(Oc5c([H])c([H])c(F)c([H])c5F)c([H])c4[H])c(C(=O)N([H])[H])c3N([H])[H])C2([H])[H])c1[H]

$$$$
40:0:0
     RDKit          3D

 94103  0  0  1  0  0  0  0  0999 V2000
  -28.4760  -22.7930   19.6870 C   0  0  0  0  0  0  0  0  0  0  0  0
  -28.4190  -24.2840   19.2520 C   0  0  0  0  0  2  0  0  0  0  0  0
  -29.6790  -24.9350   21.2550 C   0  0  0  0  0  2  0  0  0  0  0  0
  -29.6740  -23.4670   21.7550 C   0  0  0  0  0  2  0  0  0  0  0  0
  -28.4280  -25.2810   20.4380 C   0  0  0  0  0  3  0  0  0  0  0  0
  -29.1100  -22.4440   20.8390 N   0  0  0  0  0  0  0  0  0  0  0  0
  -27.9110  -21.9590   18.9720 O   0  0  0  0  0  0  0  0  0  0  0  0
  -28.4900  -26.6900   20.0740 O   0  0  0  0  0  0  0  0  0  0  0  0
  -24.6080  -31.8490   23.1780 C   0  0  0  0  0  0  0  0  0  0  0  0
  -27.3130  -27.4270   20.0800 C   0  0  0  0  0  0  0  0  0  0  0  0
  -23.4290  -30.4520   21.5150 C   0  0  0  0  0  3  0  0  0  0  0  0
  -24.9060  -28.9370   20.0870 C   0  0  0  0  0  0  0  0  0  0  0  0
  -25.9550  -30.8280   21.3380 C   0  0  0  0  0  2  0  0  0  0  0  0
  -26.0590  -29.4600   20.6840 C   0  0  0  0  0  0  0  0  0  0  0  0
  -27.2660  -28.7160   20.6700 C   0  0  0  0  0  3  0  0  0  0  0  0
  -26.1370  -26.9240   19.4790 C   0  0  0  0  0  3  0  0  0  0  0  0
  -24.9430  -27.6700   19.4800 C   0  0  0  0  0  3  0  0  0  0  0  0
  -23.6560  -29.7890   20.1300 C   0  0  0  0  0  2  0  0  0  0  0  0
  -24.6820  -31.0590   22.0690 N   0  0  0  0  0  0  0  0  0  0  0  0
  -23.5200  -32.1060   23.7110 O   0  0  0  0  0  0  0  0  0  0  0  0
  -22.7790  -29.4160   22.4610 C   0  0  0  0  0  0  0  0  0  0  0  0
  -21.4580  -29.2170   22.3170 N   0  0  0  0  0  0  0  0  0  0  0  0
  -23.4610  -28.7960   23.2800 O   0  0  0  0  0  0  0  0  0  0  0  0
  -20.9680  -29.7700   21.6290 H   0  0  0  0  0  0  0  0  0  0  0  0
  -18.1010  -27.9500   22.7470 C   0  0  0  0  0  0  0  0  0  0  0  0
  -20.6460  -28.2610   23.0710 C   0  0  0  0  0  3  0  0  0  0  0  0
  -20.7900  -26.8330   22.4950 C   0  0  0  0  0  2  0  0  0  0  0  0
  -19.7150  -26.4890   21.4600 C   0  0  0  0  0  2  0  0  0  0  0  0
  -18.3180  -26.6060   22.0760 C   0  0  0  0  0  2  0  0  0  0  0  0
  -19.1930  -28.7360   23.2010 C   0  0  0  0  0  0  0  0  0  0  0  0
  -18.9370  -29.9950   23.7860 C   0  0  0  0  0  3  0  0  0  0  0  0
  -17.6190  -30.4690   23.9240 C   0  0  0  0  0  3  0  0  0  0  0  0
  -16.5390  -29.6810   23.4880 C   0  0  0  0  0  3  0  0  0  0  0  0
  -16.7800  -28.4230   22.9060 C   0  0  0  0  0  3  0  0  0  0  0  0
  -25.8830  -32.4880   23.8140 C   0  0  0  0  0  3  0  0  0  0  0  0
  -25.5610  -33.8810   24.1500 N   0  0  0  0  0  0  0  0  0  0  0  0
  -25.8930  -34.9400   23.3990 C   0  0  0  0  0  0  0  0  0  0  0  0
  -26.5730  -34.8470   22.3740 O   0  0  0  0  0  0  0  0  0  0  0  0
  -24.9620  -34.0270   24.9490 H   0  0  0  0  0  0  0  0  0  0  0  0
  -24.1550  -36.7200   23.0380 C   0  0  0  0  0  1  0  0  0  0  0  0
  -25.3910  -36.3220   23.8610 C   0  0  0  0  0  3  0  0  0  0  0  0
  -27.5100  -37.2160   24.7200 C   0  0  0  0  0  1  0  0  0  0  0  0
  -26.4170  -37.3830   23.7650 N   0  0  0  0  0  0  0  0  0  0  0  0
  -26.0030  -38.3000   23.9140 H   0  0  0  0  0  0  0  0  0  0  0  0
  -26.3970  -31.7130   25.0880 C   0  0  1  0  0  0  0  0  0  0  0  0
  -25.2990  -31.4580   26.1470 C   0  0  0  0  0  1  0  0  0  0  0  0
  -26.9950  -30.3430   24.6870 C   0  0  0  0  0  1  0  0  0  0  0  0
  -27.5360  -32.5110   25.7640 C   0  0  0  0  0  1  0  0  0  0  0  0
  -28.8620  -21.1400   21.5240 C   0  0  0  0  0  2  0  0  0  0  0  0
  -28.3630  -18.8630   20.5070 C   0  0  0  0  0  3  0  0  0  0  0  0
  -28.6340  -17.4850   20.3680 C   0  0  0  0  0  3  0  0  0  0  0  0
  -30.9280  -17.8540   21.0440 C   0  0  0  0  0  3  0  0  0  0  0  0
  -29.3420  -19.7610   20.9880 C   0  0  0  0  0  0  0  0  0  0  0  0
  -30.6520  -19.2460   21.2100 C   0  0  0  0  0  0  0  0  0  0  0  0
  -29.9020  -16.9470   20.6740 C   0  0  0  0  0  0  0  0  0  0  0  0
  -31.7470  -20.1570   21.7330 C   0  0  0  0  0  1  0  0  0  0  0  0
  -30.7410  -14.5910   20.1390 C   0  0  0  0  0  0  0  0  0  0  0  0
  -30.4590  -12.4370   18.9420 C   0  0  0  0  0  2  0  0  0  0  0  0
  -29.4530  -12.6530   17.7880 C   0  0  0  0  0  2  0  0  0  0  0  0
  -27.9970  -12.4990   18.2780 C   0  0  0  0  0  2  0  0  0  0  0  0
  -27.7170  -13.3010   19.5760 C   0  0  0  0  0  3  0  0  0  0  0  0
  -28.8200  -13.0290   20.6250 C   0  0  0  0  0  2  0  0  0  0  0  0
  -30.1190  -13.3810   20.0180 N   0  0  0  0  0  0  0  0  0  0  0  0
  -31.8370  -14.8370   19.6250 O   0  0  0  0  0  0  0  0  0  0  0  0
  -29.9950  -15.5160   20.7890 N   0  0  0  0  0  0  0  0  0  0  0  0
  -29.1580  -15.0880   21.1570 H   0  0  0  0  0  0  0  0  0  0  0  0
  -25.3470  -13.9100   20.3830 C   0  0  0  0  0  0  0  0  0  0  0  0
  -24.2940  -13.1390   20.7940 C   0  0  0  0  0  0  0  0  0  0  0  0
  -24.7480  -11.7870   20.7280 C   0  0  0  0  0  0  0  0  0  0  0  0
  -26.3810  -13.0270   20.1030 N   0  0  0  0  0  0  0  0  0  0  0  0
  -26.0240  -11.7440   20.3650 N   0  0  0  0  0  0  0  0  0  0  0  0
  -24.0230  -10.5260   20.9320 C   0  0  0  0  0  0  0  0  0  0  0  0
  -24.4730   -9.5600   21.8590 C   0  0  0  0  0  3  0  0  0  0  0  0
  -23.7490   -8.3640   22.0520 C   0  0  0  0  0  3  0  0  0  0  0  0
  -22.5630   -8.1260   21.3180 C   0  0  0  0  0  0  0  0  0  0  0  0
  -22.1340   -9.0810   20.3800 C   0  0  0  0  0  3  0  0  0  0  0  0
  -22.8580  -10.2690   20.1840 C   0  0  0  0  0  3  0  0  0  0  0  0
  -21.8100   -6.9810   21.4200 O   0  0  0  0  0  0  0  0  0  0  0  0
  -21.7560   -6.2570   22.5840 C   0  0  0  0  0  0  0  0  0  0  0  0
  -21.3180   -6.8310   23.7980 C   0  0  0  0  0  3  0  0  0  0  0  0
  -21.2100   -6.0330   24.9540 C   0  0  0  0  0  3  0  0  0  0  0  0
  -21.5320   -4.6630   24.8980 C   0  0  0  0  0  0  0  0  0  0  0  0
  -21.9640   -4.0900   23.6890 C   0  0  0  0  0  3  0  0  0  0  0  0
  -22.0730   -4.8850   22.5350 C   0  0  0  0  0  0  0  0  0  0  0  0
  -22.4690   -4.3230   21.3680 F   0  0  0  0  0  0  0  0  0  0  0  0
  -21.4220   -3.8950   26.0080 F   0  0  0  0  0  0  0  0  0  0  0  0
  -22.9110  -13.6220   21.1280 C   0  0  0  0  0  0  0  0  0  0  0  0
  -22.2160  -12.9210   22.0170 N   0  0  0  0  0  0  0  0  0  0  0  0
  -22.4570  -14.6540   20.6360 O   0  0  0  0  0  0  0  0  0  0  0  0
  -22.5970  -12.0860   22.4370 H   0  0  0  0  0  0  0  0  0  0  0  0
  -21.2900  -13.2250   22.2800 H   0  0  0  0  0  0  0  0  0  0  0  0
  -25.5010  -15.2790   20.2010 N   0  0  0  0  0  0  0  0  0  0  0  0
  -24.7190  -15.9150   20.3060 H   0  0  0  0  0  0  0  0  0  0  0  0
  -26.2880  -15.6950   19.7230 H   0  0  0  0  0  0  0  0  0  0  0  0
  1  6  1  0
  2  1  1  0
  2  5  1  0
  3  4  1  0
  5  8  1  0
  5  3  1  0
  6 49  1  0
  6  4  1  0
  7  1  2  0
  8 10  1  0
  9 20  2  0
 10 15  1  0
 11 19  1  0
 11 21  1  0
 12 18  1  0
 12 14  1  0
 13 19  1  0
 14 13  1  0
 15 14  2  0
 16 17  1  0
 16 10  2  0
 17 12  2  0
 18 11  1  0
 19  9  1  0
 21 23  2  0
 22 21  1  0
 24 22  1  0
 25 34  2  0
 25 30  1  0
 26 22  1  0
 26 30  1  0
 27 26  1  0
 28 29  1  0
 28 27  1  0
 29 25  1  0
 30 31  2  0
 31 32  1  0
 33 32  2  0
 34 33  1  0
 35  9  1  0
 35 36  1  0
 35 45  1  0
 36 39  1  0
 37 41  1  0
 37 36  1  0
 38 37  2  0
 41 40  1  0
 43 41  1  0
 43 44  1  0
 43 42  1  0
 45 48  1  1
 45 46  1  0
 47 45  1  0
 50 53  1  0
 51 50  2  0
 51 55  1  0
 52 54  1  0
 53 54  2  0
 53 49  1  0
 54 56  1  0
 55 65  1  0
 55 52  2  0
 57 65  1  0
 58 63  1  0
 59 60  1  0
 59 58  1  0
 61 60  1  0
 61 70  1  0
 61 62  1  0
 63 57  1  0
 63 62  1  0
 64 57  2  0
 65 66  1  0
 67 68  2  0
 68 87  1  0
 69 68  1  0
 69 72  1  0
 70 71  1  0
 70 67  1  0
 71 69  2  0
 72 73  1  0
 73 74  2  0
 75 78  1  0
 75 74  1  0
 76 75  2  0
 77 76  1  0
 77 72  2  0
 78 79  1  0
 79 80  1  0
 80 81  2  0
 82 81  1  0
 82 86  1  0
 83 82  2  0
 84 79  2  0
 84 83  1  0
 85 84  1  0
 87 88  1  0
 88 91  1  0
 88 90  1  0
 89 87  2  0
 92 93  1  0
 92 67  1  0
 94 92  1  0
M  ISO  4   5 101   8 101  57 100  65 100
M  END
>  <TORSDO>  (41) 
F 18

>  <SCORE>  (41) 
-14.891

>  <name>  (41) 
40

>  <ligand_id>  (41) 
40

>  <original_smiles>  (41) 
[H]c1c([H])c([H])c2c(c1[H])C([H])([H])C([H])([H])C([H])([H])C2([H])N([H])C(=O)C1([H])N(C(=O)C([H])(N([H])C(=O)C([H])(N([H])C([H])([H])[H])C([H])([H])[H])C(C([H])([H])[H])(C([H])([H])[H])C([H])([H])[H])C([H])([H])c2c([H])c(OC3([H])C([H])([H])C(=O)N(C([H])([H])c4c([H])c([H])c(N([H])C(=O)N5C([H])([H])C([H])([H])C([H])([H])C([H])(n6nc(-c7c([H])c([H])c(Oc8c([H])c([H])c(F)c([H])c8F)c([H])c7[H])c(C(=O)N([H])[H])c6N([H])[H])C5([H])[H])c([H])c4C([H])([H])[H])C([H])([H])C3([H])[H])c([H])c([H])c2C1([H])[H]

>  <smiles>  (41) 
[H]c1c([H])c([H])c2c(c1[H])C([H])([H])C([H])([H])C([H])([H])C2([H])N([H])C(=O)C1([H])N(C(=O)C([H])(N([H])C(=O)C([H])(N([H])C([H])([H])[H])C([H])([H])[H])C(C([H])([H])[H])(C([H])([H])[H])C([H])([H])[H])C([H])([H])c2c([H])c(OC3([H])C([H])([H])C(=O)N(C([H])([H])c4c([H])c([H])c(N([H])C(=O)N5C([H])([H])C([H])([H])C([H])([H])C([H])(n6nc(-c7c([H])c([H])c(Oc8c([H])c([H])c(F)c([H])c8F)c([H])c7[H])c(C(=O)N([H])[H])c6N([H])[H])C5([H])[H])c([H])c4C([H])([H])[H])C([H])([H])C3([H])[H])c([H])c([H])c2C1([H])[H]

$$$$
41:0:0
     RDKit          3D

 97105  0  0  1  0  0  0  0  0999 V2000
  -28.5380  -12.4970   20.4120 C   0  0  0  0  0  2  0  0  0  0  0  0
  -29.1860  -13.7160   18.8430 C   0  0  0  0  0  2  0  0  0  0  0  0
  -27.3450  -13.2880   21.3080 C   0  0  0  0  0  2  0  0  0  0  0  0
  -28.6110  -15.1800   18.7330 C   0  0  0  0  0  3  0  0  0  0  0  0
  -26.8890  -14.8190   20.8470 C   0  0  0  0  0  0  0  0  0  0  0  0
  -27.4640  -15.7700   19.6330 C   0  0  0  0  0  0  0  0  0  0  0  0
  -25.9260  -15.4760   21.8360 C   0  0  1  0  0  0  0  0  0  0  0  0
  -26.6440  -16.2320   22.6650 F   0  0  0  0  0  0  0  0  0  0  0  0
  -25.0070  -16.2490   21.2610 F   0  0  0  0  0  0  0  0  0  0  0  0
  -25.2840  -14.5610   22.5640 F   0  0  0  0  0  0  0  0  0  0  0  0
  -29.8260  -16.0520   18.4600 C   0  0  0  0  0  2  0  0  0  0  0  0
  -31.5470  -14.2990   19.4900 C   0  0  0  0  0  0  0  0  0  0  0  0
  -30.7320  -11.9310   18.8970 C   0  0  0  0  0  2  0  0  0  0  0  0
  -29.3320  -11.4430   17.7580 C   0  0  0  0  0  3  0  0  0  0  0  0
  -27.5580  -11.9920   17.7760 C   0  0  0  0  0  3  0  0  0  0  0  0
  -26.9080  -13.3640   18.9760 C   0  0  0  0  0  2  0  0  0  0  0  0
  -29.5530  -14.1110   20.7030 C   0  0  0  0  0  3  0  0  0  0  0  0
  -30.8270  -13.2730   20.0050 N   0  0  0  0  0  0  0  0  0  0  0  0
  -32.6690  -14.0960   19.1440 O   0  0  0  0  0  0  0  0  0  0  0  0
  -31.0660  -15.5520   19.1590 N   0  0  0  0  0  0  0  0  0  0  0  0
  -31.8430  -16.1740   18.9890 H   0  0  0  0  0  0  0  0  0  0  0  0
  -24.7170  -13.3530   19.8810 C   0  0  0  0  0  0  0  0  0  0  0  0
  -23.8870  -12.4630   20.4370 C   0  0  0  0  0  0  0  0  0  0  0  0
  -24.5440  -11.1920   20.4790 C   0  0  0  0  0  0  0  0  0  0  0  0
  -25.7740  -12.6360   19.5290 N   0  0  0  0  0  0  0  0  0  0  0  0
  -25.7610  -11.3240   19.9760 N   0  0  0  0  0  0  0  0  0  0  0  0
  -23.9950   -9.8710   20.8050 C   0  0  0  0  0  0  0  0  0  0  0  0
  -24.5100   -9.0260   21.8140 C   0  0  0  0  0  3  0  0  0  0  0  0
  -23.8700   -7.7990   22.1090 C   0  0  0  0  0  3  0  0  0  0  0  0
  -22.7100   -7.4110   21.3920 C   0  0  0  0  0  0  0  0  0  0  0  0
  -22.2290   -8.2410   20.3670 C   0  0  0  0  0  3  0  0  0  0  0  0
  -22.8680   -9.4520   20.0730 C   0  0  0  0  0  3  0  0  0  0  0  0
  -22.0270   -6.2360   21.5880 O   0  0  0  0  0  0  0  0  0  0  0  0
  -21.9420   -5.6450   22.8220 C   0  0  0  0  0  0  0  0  0  0  0  0
  -21.3920   -6.3150   23.9360 C   0  0  0  0  0  3  0  0  0  0  0  0
  -21.2610   -5.6420   25.1670 C   0  0  0  0  0  3  0  0  0  0  0  0
  -21.6700   -4.3000   25.2830 C   0  0  0  0  0  0  0  0  0  0  0  0
  -22.2110   -3.6290   24.1720 C   0  0  0  0  0  3  0  0  0  0  0  0
  -22.3430   -4.2990   22.9440 C   0  0  0  0  0  0  0  0  0  0  0  0
  -22.8440   -3.6420   21.8710 F   0  0  0  0  0  0  0  0  0  0  0  0
  -21.5400   -3.6520   26.4640 F   0  0  0  0  0  0  0  0  0  0  0  0
  -22.4860  -12.8160   20.7100 C   0  0  0  0  0  0  0  0  0  0  0  0
  -21.8780  -12.1660   21.6840 N   0  0  0  0  0  0  0  0  0  0  0  0
  -21.9510  -13.7270   20.0790 O   0  0  0  0  0  0  0  0  0  0  0  0
  -22.3550  -11.4490   22.2080 H   0  0  0  0  0  0  0  0  0  0  0  0
  -20.9230  -12.3950   21.9190 H   0  0  0  0  0  0  0  0  0  0  0  0
  -24.6570  -14.7110   19.5850 N   0  0  0  0  0  0  0  0  0  0  0  0
  -23.7790  -15.2080   19.6860 H   0  0  0  0  0  0  0  0  0  0  0  0
  -25.3230  -15.1880   18.9940 H   0  0  0  0  0  0  0  0  0  0  0  0
  -26.9510  -17.4560   19.4800 C   0  0  0  0  0  2  0  0  0  0  0  0
  -26.9780  -20.3140   18.8890 C   0  0  0  0  0  0  0  0  0  0  0  0
  -27.4540  -18.9060   18.7990 N   0  0  0  0  0  0  0  0  0  0  0  0
  -25.9560  -20.4510   19.5570 O   0  0  0  0  0  0  0  0  0  0  0  0
  -28.2770  -18.8120   18.2200 H   0  0  0  0  0  0  0  0  0  0  0  0
  -27.5800  -21.8460   18.2660 C   0  0  0  0  0  3  0  0  0  0  0  0
  -27.0810  -23.5670   18.5360 C   0  0  0  0  0  3  0  0  0  0  0  0
  -27.7190  -25.0950   18.3510 O   0  0  0  0  0  0  0  0  0  0  0  0
  -25.4310  -30.6660   22.8990 C   0  0  0  0  0  0  0  0  0  0  0  0
  -27.0050  -26.3670   18.6340 C   0  0  0  0  0  0  0  0  0  0  0  0
  -23.9800  -29.9050   21.0690 C   0  0  0  0  0  3  0  0  0  0  0  0
  -25.1040  -28.5470   19.1910 C   0  0  0  0  0  0  0  0  0  0  0  0
  -26.5430  -29.7780   20.7920 C   0  0  0  0  0  2  0  0  0  0  0  0
  -26.3610  -28.5860   19.8080 C   0  0  0  0  0  0  0  0  0  0  0  0
  -27.3230  -27.5200   19.5090 C   0  0  0  0  0  3  0  0  0  0  0  0
  -25.7720  -26.5220   17.9760 C   0  0  0  0  0  3  0  0  0  0  0  0
  -24.8410  -27.5430   18.2500 C   0  0  0  0  0  3  0  0  0  0  0  0
  -24.0510  -29.5860   19.5530 C   0  0  0  0  0  2  0  0  0  0  0  0
  -25.3460  -30.1260   21.6420 N   0  0  0  0  0  0  0  0  0  0  0  0
  -24.4160  -30.9590   23.5540 O   0  0  0  0  0  0  0  0  0  0  0  0
  -23.1900  -28.7890   21.8010 C   0  0  0  0  0  0  0  0  0  0  0  0
  -21.8450  -28.8570   21.7680 N   0  0  0  0  0  0  0  0  0  0  0  0
  -23.7890  -27.8750   22.3720 O   0  0  0  0  0  0  0  0  0  0  0  0
  -21.4230  -29.6400   21.2920 H   0  0  0  0  0  0  0  0  0  0  0  0
  -18.3440  -28.0560   22.2730 C   0  0  0  0  0  0  0  0  0  0  0  0
  -20.9240  -27.8770   22.3520 C   0  0  0  0  0  3  0  0  0  0  0  0
  -20.7610  -26.6460   21.4300 C   0  0  0  0  0  2  0  0  0  0  0  0
  -19.5670  -26.7610   20.4760 C   0  0  0  0  0  2  0  0  0  0  0  0
  -18.2640  -26.9240   21.2630 C   0  0  0  0  0  2  0  0  0  0  0  0
  -19.5920  -28.5140   22.7730 C   0  0  0  0  0  0  0  0  0  0  0  0
  -19.6090  -29.5890   23.6860 C   0  0  0  0  0  3  0  0  0  0  0  0
  -18.4110  -30.2020   24.1010 C   0  0  0  0  0  3  0  0  0  0  0  0
  -17.1770  -29.7350   23.6130 C   0  0  0  0  0  3  0  0  0  0  0  0
  -17.1450  -28.6630   22.7040 C   0  0  0  0  0  3  0  0  0  0  0  0
  -26.8050  -30.9570   23.5720 C   0  0  0  0  0  3  0  0  0  0  0  0
  -26.6630  -32.1840   24.3770 N   0  0  0  0  0  0  0  0  0  0  0  0
  -27.0860  -33.4000   24.0070 C   0  0  0  0  0  0  0  0  0  0  0  0
  -27.7000  -33.5980   22.9550 O   0  0  0  0  0  0  0  0  0  0  0  0
  -26.1180  -32.1050   25.2230 H   0  0  0  0  0  0  0  0  0  0  0  0
  -25.5910  -35.3870   24.4050 C   0  0  0  0  0  1  0  0  0  0  0  0
  -26.7830  -34.5830   24.9490 C   0  0  0  0  0  3  0  0  0  0  0  0
  -29.0210  -34.8750   25.9190 C   0  0  0  0  0  1  0  0  0  0  0  0
  -27.9380  -35.4850   25.1530 N   0  0  0  0  0  0  0  0  0  0  0  0
  -27.6530  -36.3360   25.6310 H   0  0  0  0  0  0  0  0  0  0  0  0
  -27.3120  -29.7690   24.4790 C   0  0  1  0  0  0  0  0  0  0  0  0
  -26.2640  -29.2820   25.5090 C   0  0  0  0  0  1  0  0  0  0  0  0
  -27.7230  -28.5520   23.6220 C   0  0  0  0  0  1  0  0  0  0  0  0
  -28.5790  -30.2070   25.2510 C   0  0  0  0  0  1  0  0  0  0  0  0
  1 17  1  0
  1  3  1  0
  4 11  1  0
  4  2  1  0
  4  6  1  0
  5  3  1  0
  5  7  1  0
  6  5  2  0
  7 10  1  1
  7  8  1  0
  9  7  1  0
 11 20  1  0
 12 18  1  0
 13 18  1  0
 14 15  2  0
 14 13  1  0
 15 16  1  0
 16 25  1  0
 17  2  1  0
 18 17  1  0
 19 12  2  0
 20 12  1  0
 21 20  1  0
 22 23  2  0
 23 24  1  0
 23 42  1  0
 24 27  1  0
 25 22  1  0
 25 26  1  0
 26 24  2  0
 27 28  1  0
 28 29  2  0
 30 33  1  0
 30 29  1  0
 31 30  2  0
 32 31  1  0
 32 27  2  0
 33 34  1  0
 34 39  2  0
 34 35  1  0
 35 36  2  0
 36 37  1  0
 37 41  1  0
 38 37  2  0
 39 38  1  0
 40 39  1  0
 42 43  1  0
 43 46  1  0
 43 45  1  0
 44 42  2  0
 47 48  1  0
 47 22  1  0
 49 47  1  0
 50  6  1  0
 51 53  2  0
 52 51  1  0
 52 50  1  0
 54 52  1  0
 55 56  2  0
 55 51  1  0
 57 56  1  0
 57 59  1  0
 58 69  2  0
 59 64  1  0
 60 68  1  0
 60 70  1  0
 61 67  1  0
 61 63  1  0
 62 68  1  0
 63 62  1  0
 64 63  2  0
 65 66  1  0
 65 59  2  0
 66 61  2  0
 67 60  1  0
 68 58  1  0
 70 72  2  0
 71 70  1  0
 73 71  1  0
 74 83  2  0
 74 79  1  0
 75 71  1  0
 75 79  1  0
 76 75  1  0
 77 78  1  0
 77 76  1  0
 78 74  1  0
 79 80  2  0
 80 81  1  0
 82 81  2  0
 83 82  1  0
 84 58  1  0
 84 85  1  0
 84 94  1  0
 85 88  1  0
 86 85  1  0
 86 90  1  0
 87 86  2  0
 90 89  1  0
 90 92  1  0
 92 93  1  0
 92 91  1  0
 94 97  1  1
 94 95  1  0
 96 94  1  0
M  ISO  4  12 100  20 100  56 101  57 101
M  END
>  <TORSDO>  (42) 
F 22

>  <SCORE>  (42) 
-1.207

>  <name>  (42) 
41

>  <ligand_id>  (42) 
41

>  <original_smiles>  (42) 
[H]c1c([H])c(C(F)(F)F)c(C([H])([H])N([H])C(=O)C([H])([H])C([H])([H])Oc2c([H])c([H])c3c(c2[H])C([H])([H])N(C(=O)C([H])(N([H])C(=O)C([H])(N([H])C([H])([H])[H])C([H])([H])[H])C(C([H])([H])[H])(C([H])([H])[H])C([H])([H])[H])C([H])(C(=O)N([H])C2([H])c4c([H])c([H])c([H])c([H])c4C([H])([H])C([H])([H])C2([H])[H])C3([H])[H])c(C([H])([H])N([H])C(=O)N2C([H])([H])C([H])([H])C([H])([H])C([H])(n3nc(-c4c([H])c([H])c(Oc5c([H])c([H])c(F)c([H])c5F)c([H])c4[H])c(C(=O)N([H])[H])c3N([H])[H])C2([H])[H])c1[H]

>  <smiles>  (42) 
[H]c1c([H])c(C(F)(F)F)c(C([H])([H])N([H])C(=O)C([H])([H])C([H])([H])Oc2c([H])c([H])c3c(c2[H])C([H])([H])N(C(=O)C([H])(N([H])C(=O)C([H])(N([H])C([H])([H])[H])C([H])([H])[H])C(C([H])([H])[H])(C([H])([H])[H])C([H])([H])[H])C([H])(C(=O)N([H])C2([H])c4c([H])c([H])c([H])c([H])c4C([H])([H])C([H])([H])C2([H])[H])C3([H])[H])c(C([H])([H])N([H])C(=O)N2C([H])([H])C([H])([H])C([H])([H])C([H])(n3nc(-c4c([H])c([H])c(Oc5c([H])c([H])c(F)c([H])c5F)c([H])c4[H])c(C(=O)N([H])[H])c3N([H])[H])C2([H])[H])c1[H]

$$$$
42:0:0
     RDKit          3D

 94101  0  0  1  0  0  0  0  0999 V2000
  -30.4770  -24.2300   17.7180 C   0  0  0  0  0  2  0  0  0  0  0  0
  -30.2130  -24.6730   20.5700 C   0  0  0  0  0  3  0  0  0  0  0  0
  -29.4660  -23.6690   21.9560 C   0  0  0  0  0  2  0  0  0  0  0  0
  -29.8290  -23.7580   18.9950 C   0  0  0  0  0  3  0  0  0  0  0  0
  -29.1310  -22.0940   19.0600 C   0  0  0  0  0  3  0  0  0  0  0  0
  -29.0510  -20.8590   20.2980 C   0  0  0  0  0  2  0  0  0  0  0  0
  -28.8080  -22.0190   21.6100 C   0  0  0  0  0  3  0  0  0  0  0  0
  -28.8530  -21.5070   17.6880 C   0  0  0  0  0  1  0  0  0  0  0  0
  -28.3090  -21.4380   22.7270 F   0  0  0  0  0  0  0  0  0  0  0  0
  -29.9650  -17.0110   20.1950 C   0  0  0  0  0  0  0  0  0  0  0  0
  -30.3720  -14.1600   19.4280 C   0  0  0  0  0  2  0  0  0  0  0  0
  -29.6530  -13.2150   18.3570 C   0  0  0  0  0  2  0  0  0  0  0  0
  -28.3650  -12.5820   18.8770 C   0  0  0  0  0  2  0  0  0  0  0  0
  -27.6870  -13.6220   19.7710 C   0  0  0  0  0  3  0  0  0  0  0  0
  -28.6170  -14.4200   20.7870 C   0  0  0  0  0  2  0  0  0  0  0  0
  -29.5660  -15.4240   20.0730 N   0  0  0  0  0  0  0  0  0  0  0  0
  -31.2130  -16.7240   20.1120 O   0  0  0  0  0  0  0  0  0  0  0  0
  -29.2260  -18.7230   20.2590 N   0  0  0  0  0  2  0  0  0  0  0  0
  -28.2620  -18.4280   20.3580 H   0  0  0  0  0  0  0  0  0  0  0  0
  -25.3300  -14.0210   20.5440 C   0  0  0  0  0  0  0  0  0  0  0  0
  -24.2840  -13.2240   20.8990 C   0  0  0  0  0  0  0  0  0  0  0  0
  -24.7670  -11.8790   20.8480 C   0  0  0  0  0  0  0  0  0  0  0  0
  -26.3960  -13.1840   20.3080 N   0  0  0  0  0  0  0  0  0  0  0  0
  -26.0690  -11.8730   20.5320 N   0  0  0  0  0  0  0  0  0  0  0  0
  -24.0300  -10.6120   21.0230 C   0  0  0  0  0  0  0  0  0  0  0  0
  -24.4290   -9.6420   21.9700 C   0  0  0  0  0  3  0  0  0  0  0  0
  -23.6820   -8.4560   22.1470 C   0  0  0  0  0  3  0  0  0  0  0  0
  -22.5160   -8.2270   21.3770 C   0  0  0  0  0  0  0  0  0  0  0  0
  -22.1320   -9.1830   20.4200 C   0  0  0  0  0  3  0  0  0  0  0  0
  -22.8800  -10.3600   20.2430 C   0  0  0  0  0  3  0  0  0  0  0  0
  -21.7470   -7.0880   21.4590 O   0  0  0  0  0  0  0  0  0  0  0  0
  -21.6610   -6.3550   22.6160 C   0  0  0  0  0  0  0  0  0  0  0  0
  -21.1940   -6.9210   23.8220 C   0  0  0  0  0  3  0  0  0  0  0  0
  -21.0570   -6.1170   24.9710 C   0  0  0  0  0  3  0  0  0  0  0  0
  -21.3750   -4.7460   24.9160 C   0  0  0  0  0  0  0  0  0  0  0  0
  -21.8320   -4.1780   23.7140 C   0  0  0  0  0  3  0  0  0  0  0  0
  -21.9720   -4.9790   22.5680 C   0  0  0  0  0  0  0  0  0  0  0  0
  -22.3920   -4.4220   21.4060 F   0  0  0  0  0  0  0  0  0  0  0  0
  -21.2370   -3.9730   26.0180 F   0  0  0  0  0  0  0  0  0  0  0  0
  -22.8850  -13.6950   21.1610 C   0  0  0  0  0  0  0  0  0  0  0  0
  -22.1540  -12.9960   22.0210 N   0  0  0  0  0  0  0  0  0  0  0  0
  -22.4510  -14.7240   20.6440 O   0  0  0  0  0  0  0  0  0  0  0  0
  -22.5180  -12.1640   22.4620 H   0  0  0  0  0  0  0  0  0  0  0  0
  -21.2140  -13.2960   22.2440 H   0  0  0  0  0  0  0  0  0  0  0  0
  -25.4660  -15.3960   20.3670 N   0  0  0  0  0  0  0  0  0  0  0  0
  -24.6860  -16.0370   20.4530 H   0  0  0  0  0  0  0  0  0  0  0  0
  -26.3080  -15.8380   20.0230 H   0  0  0  0  0  0  0  0  0  0  0  0
  -32.6610  -23.6610   18.8570 C   0  0  0  0  0  0  0  0  0  0  0  0
  -32.6320  -24.8780   16.7250 C   0  0  0  0  0  1  0  0  0  0  0  0
  -31.9450  -24.1940   17.8230 N   0  0  0  0  0  0  0  0  0  0  0  0
  -33.8410  -23.9680   19.0550 O   0  0  0  0  0  0  0  0  0  0  0  0
  -32.0450  -22.5420   19.7300 C   0  0  0  0  0  2  0  0  0  0  0  0
  -30.9420  -22.9660   20.8240 C   0  0  0  0  0  2  0  0  0  0  0  0
  -28.1980  -24.3960   20.3940 O   0  0  0  0  0  1  0  0  0  0  0  0
  -24.5990  -31.8690   23.0520 C   0  0  0  0  0  0  0  0  0  0  0  0
  -27.4590  -26.0880   20.3830 C   0  0  0  0  0  0  0  0  0  0  0  0
  -23.5660  -30.3350   21.4490 C   0  0  0  0  0  3  0  0  0  0  0  0
  -25.1530  -28.5540   20.1900 C   0  0  0  0  0  0  0  0  0  0  0  0
  -26.1730  -30.3600   21.5020 C   0  0  0  0  0  2  0  0  0  0  0  0
  -26.3320  -28.8160   20.8960 C   0  0  0  0  0  0  0  0  0  0  0  0
  -27.4240  -27.6400   20.9450 C   0  0  0  0  0  3  0  0  0  0  0  0
  -26.2300  -26.2760   19.6020 C   0  0  0  0  0  3  0  0  0  0  0  0
  -25.1910  -27.3160   19.5150 C   0  0  0  0  0  3  0  0  0  0  0  0
  -23.9270  -29.5430   20.1440 C   0  0  0  0  0  2  0  0  0  0  0  0
  -24.8110  -30.9110   22.0540 N   0  0  0  0  0  0  0  0  0  0  0  0
  -23.4590  -32.1620   23.4740 O   0  0  0  0  0  0  0  0  0  0  0  0
  -22.7840  -29.4320   22.4530 C   0  0  0  0  0  0  0  0  0  0  0  0
  -21.4480  -29.2820   22.3240 N   0  0  0  0  0  0  0  0  0  0  0  0
  -23.4110  -28.8560   23.3430 O   0  0  0  0  0  0  0  0  0  0  0  0
  -20.9750  -29.8010   21.5960 H   0  0  0  0  0  0  0  0  0  0  0  0
  -18.0690  -28.0070   22.8840 C   0  0  0  0  0  0  0  0  0  0  0  0
  -20.6250  -28.3460   23.1120 C   0  0  0  0  0  3  0  0  0  0  0  0
  -20.7490  -26.9060   22.5620 C   0  0  0  0  0  2  0  0  0  0  0  0
  -19.6530  -26.5510   21.5530 C   0  0  0  0  0  2  0  0  0  0  0  0
  -18.2720  -26.6630   22.2050 C   0  0  0  0  0  2  0  0  0  0  0  0
  -19.1710  -28.8070   23.2920 C   0  0  0  0  0  0  0  0  0  0  0  0
  -18.9190  -30.0550   23.9010 C   0  0  0  0  0  3  0  0  0  0  0  0
  -17.6000  -30.5090   24.0960 C   0  0  0  0  0  3  0  0  0  0  0  0
  -16.5140  -29.7130   23.6960 C   0  0  0  0  0  3  0  0  0  0  0  0
  -16.7500  -28.4620   23.0970 C   0  0  0  0  0  3  0  0  0  0  0  0
  -25.7660  -32.6570   23.7320 C   0  0  0  0  0  3  0  0  0  0  0  0
  -26.2480  -31.9880   25.0810 C   0  0  1  0  0  0  0  0  0  0  0  0
  -25.1080  -31.7280   26.0950 C   0  0  0  0  0  1  0  0  0  0  0  0
  -26.9440  -30.6360   24.8240 C   0  0  0  0  0  1  0  0  0  0  0  0
  -27.2980  -32.8920   25.7690 C   0  0  0  0  0  1  0  0  0  0  0  0
  -25.3200  -34.0460   24.0260 N   0  0  0  0  0  0  0  0  0  0  0  0
  -25.6480  -35.1440   23.3280 C   0  0  0  0  0  0  0  0  0  0  0  0
  -26.3890  -35.1000   22.3450 O   0  0  0  0  0  0  0  0  0  0  0  0
  -24.6610  -34.1480   24.7820 H   0  0  0  0  0  0  0  0  0  0  0  0
  -23.8670  -36.8930   22.9140 C   0  0  0  0  0  1  0  0  0  0  0  0
  -25.0730  -36.5070   23.7870 C   0  0  0  0  0  3  0  0  0  0  0  0
  -27.1040  -37.4890   24.7710 C   0  0  0  0  0  1  0  0  0  0  0  0
  -26.0590  -37.6120   23.7600 N   0  0  0  0  0  0  0  0  0  0  0  0
  -25.5980  -38.5080   23.8890 H   0  0  0  0  0  0  0  0  0  0  0  0
  1 50  1  0
  2 53  1  0
  2  3  1  0
  4  1  1  0
  4  5  1  0
  4  2  1  0
  5  8  1  0
  5  6  1  0
  6  7  1  0
  7  3  1  0
  7  9  1  0
 10 18  1  0
 11 16  1  0
 12 13  1  0
 12 11  1  0
 14 13  1  0
 14 23  1  0
 14 15  1  0
 16 10  1  0
 16 15  1  0
 17 10  2  0
 18 19  1  0
 20 21  2  0
 21 40  1  0
 22 21  1  0
 22 25  1  0
 23 24  1  0
 23 20  1  0
 24 22  2  0
 25 26  1  0
 26 27  2  0
 28 31  1  0
 28 27  1  0
 29 28  2  0
 30 29  1  0
 30 25  2  0
 31 32  1  0
 32 33  1  0
 33 34  2  0
 35 34  1  0
 35 39  1  0
 36 35  2  0
 37 32  2  0
 37 36  1  0
 38 37  1  0
 40 41  1  0
 41 44  1  0
 41 43  1  0
 42 40  2  0
 45 46  1  0
 45 20  1  0
 47 45  1  0
 48 51  2  0
 48 52  1  0
 49 50  1  0
 50 48  1  0
 52 53  1  0
 55 66  2  0
 56 54  1  0
 56 61  1  0
 57 65  1  0
 57 67  1  0
 58 60  1  0
 59 65  1  0
 60 61  2  0
 60 59  1  0
 62 56  2  0
 63 62  1  0
 63 58  2  0
 64 58  1  0
 64 57  1  0
 65 55  1  0
 67 69  2  0
 68 67  1  0
 70 68  1  0
 71 80  2  0
 71 76  1  0
 72 68  1  0
 72 76  1  0
 73 72  1  0
 74 75  1  0
 74 73  1  0
 75 71  1  0
 76 77  2  0
 77 78  1  0
 79 78  2  0
 80 79  1  0
 81 55  1  0
 81 86  1  0
 81 82  1  0
 82 85  1  1
 82 83  1  0
 84 82  1  0
 86 89  1  0
 87 91  1  0
 87 86  1  0
 88 87  2  0
 91 90  1  0
 93 91  1  0
 93 94  1  0
 93 92  1  0
M  ISO  4  10 100  18 100  53 101  54 101
M  END
>  <TORSDO>  (43) 
F 20

>  <SCORE>  (43) 
-14.758

>  <name>  (43) 
42

>  <ligand_id>  (43) 
42

>  <original_smiles>  (43) 
[H]c1c([H])c([H])c2c(c1[H])C([H])([H])C([H])([H])C([H])([H])C2([H])N([H])C(=O)C1([H])N(C(=O)C([H])(N([H])C(=O)C([H])(N([H])C([H])([H])[H])C([H])([H])[H])C(C([H])([H])[H])(C([H])([H])[H])C([H])([H])[H])C([H])([H])c2c([H])c(OC([H])([H])C([H])([H])C(=O)N(C([H])([H])[H])C([H])([H])c3c([H])c([H])c(F)c(N([H])C(=O)N4C([H])([H])C([H])([H])C([H])([H])C([H])(n5nc(-c6c([H])c([H])c(Oc7c([H])c([H])c(F)c([H])c7F)c([H])c6[H])c(C(=O)N([H])[H])c5N([H])[H])C4([H])[H])c3C([H])([H])[H])c([H])c([H])c2C1([H])[H]

>  <smiles>  (43) 
[H]c1c([H])c([H])c2c(c1[H])C([H])([H])C([H])([H])C([H])([H])C2([H])N([H])C(=O)C1([H])N(C(=O)C([H])(N([H])C(=O)C([H])(N([H])C([H])([H])[H])C([H])([H])[H])C(C([H])([H])[H])(C([H])([H])[H])C([H])([H])[H])C([H])([H])c2c([H])c(OC([H])([H])C([H])([H])C(=O)N(C([H])([H])[H])C([H])([H])c3c([H])c([H])c(F)c(N([H])C(=O)N4C([H])([H])C([H])([H])C([H])([H])C([H])(n5nc(-c6c([H])c([H])c(Oc7c([H])c([H])c(F)c([H])c7F)c([H])c6[H])c(C(=O)N([H])[H])c5N([H])[H])C4([H])[H])c3C([H])([H])[H])c([H])c([H])c2C1([H])[H]

$$$$
43:0:0
     RDKit          3D

 92100  0  0  1  0  0  0  0  0999 V2000
  -29.5330  -21.1370   20.4450 C   0  0  0  0  0  2  0  0  0  0  0  0
  -26.8630  -19.3410   18.3450 C   0  0  0  0  0  3  0  0  0  0  0  0
  -27.2640  -18.0100   18.2340 C   0  0  0  0  0  3  0  0  0  0  0  0
  -27.6300  -20.2310   19.1040 C   0  0  0  0  0  3  0  0  0  0  0  0
  -28.3780  -17.5660   18.9530 C   0  0  0  0  0  3  0  0  0  0  0  0
  -28.8080  -19.8580   19.8090 C   0  0  0  0  0  0  0  0  0  0  0  0
  -29.1410  -18.4030   19.8130 C   0  0  0  0  0  0  0  0  0  0  0  0
  -30.2190  -17.5490   20.6210 C   0  0  0  0  0  2  0  0  0  0  0  0
  -30.7680  -14.9100   20.5550 C   0  0  0  0  0  0  0  0  0  0  0  0
  -30.6200  -12.6240   19.5520 C   0  0  0  0  0  2  0  0  0  0  0  0
  -29.7140  -12.6830   18.3000 C   0  0  0  0  0  2  0  0  0  0  0  0
  -28.2370  -12.4820   18.6870 C   0  0  0  0  0  2  0  0  0  0  0  0
  -27.8180  -13.3670   19.8890 C   0  0  0  0  0  3  0  0  0  0  0  0
  -28.8450  -13.3080   21.0420 C   0  0  0  0  0  2  0  0  0  0  0  0
  -30.1560  -13.6760   20.4860 N   0  0  0  0  0  0  0  0  0  0  0  0
  -31.9560  -15.0230   20.2410 O   0  0  0  0  0  0  0  0  0  0  0  0
  -29.9750  -16.0300   20.7740 N   0  0  0  0  0  0  0  0  0  0  0  0
  -29.0280  -15.8000   21.0300 H   0  0  0  0  0  0  0  0  0  0  0  0
  -25.4020  -13.9350   20.5350 C   0  0  0  0  0  0  0  0  0  0  0  0
  -24.3340  -13.1510   20.8740 C   0  0  0  0  0  0  0  0  0  0  0  0
  -24.8140  -11.8060   20.8710 C   0  0  0  0  0  0  0  0  0  0  0  0
  -26.4630  -13.0660   20.3400 N   0  0  0  0  0  0  0  0  0  0  0  0
  -26.1160  -11.7820   20.6090 N   0  0  0  0  0  0  0  0  0  0  0  0
  -24.0970  -10.5340   21.0480 C   0  0  0  0  0  0  0  0  0  0  0  0
  -24.5050   -9.5800   22.0070 C   0  0  0  0  0  3  0  0  0  0  0  0
  -23.7880   -8.3750   22.1690 C   0  0  0  0  0  3  0  0  0  0  0  0
  -22.6470   -8.1150   21.3730 C   0  0  0  0  0  0  0  0  0  0  0  0
  -22.2570   -9.0590   20.4050 C   0  0  0  0  0  3  0  0  0  0  0  0
  -22.9750  -10.2540   20.2420 C   0  0  0  0  0  3  0  0  0  0  0  0
  -21.9040   -6.9610   21.4460 O   0  0  0  0  0  0  0  0  0  0  0  0
  -21.8180   -6.2320   22.6060 C   0  0  0  0  0  0  0  0  0  0  0  0
  -21.2990   -6.7880   23.7960 C   0  0  0  0  0  3  0  0  0  0  0  0
  -21.1650   -5.9860   24.9460 C   0  0  0  0  0  3  0  0  0  0  0  0
  -21.5320   -4.6280   24.9040 C   0  0  0  0  0  0  0  0  0  0  0  0
  -22.0410   -4.0700   23.7180 C   0  0  0  0  0  3  0  0  0  0  0  0
  -22.1810   -4.8710   22.5700 C   0  0  0  0  0  0  0  0  0  0  0  0
  -22.6540   -4.3250   21.4240 F   0  0  0  0  0  0  0  0  0  0  0  0
  -21.3960   -3.8540   26.0060 F   0  0  0  0  0  0  0  0  0  0  0  0
  -22.9220  -13.6120   21.0940 C   0  0  0  0  0  0  0  0  0  0  0  0
  -22.1770  -12.9140   21.9420 N   0  0  0  0  0  0  0  0  0  0  0  0
  -22.4880  -14.6270   20.5500 O   0  0  0  0  0  0  0  0  0  0  0  0
  -22.5450  -12.0930   22.4010 H   0  0  0  0  0  0  0  0  0  0  0  0
  -21.2300  -13.2030   22.1400 H   0  0  0  0  0  0  0  0  0  0  0  0
  -25.5590  -15.3050   20.3480 N   0  0  0  0  0  0  0  0  0  0  0  0
  -24.7850  -15.9540   20.4380 H   0  0  0  0  0  0  0  0  0  0  0  0
  -26.4050  -15.7440   20.0100 H   0  0  0  0  0  0  0  0  0  0  0  0
  -29.0470  -23.8060   20.5270 C   0  0  0  0  0  0  0  0  0  0  0  0
  -29.0810  -22.5360   19.9600 N   0  0  0  0  0  0  0  0  0  0  0  0
  -29.5820  -24.0130   21.6180 O   0  0  0  0  0  0  0  0  0  0  0  0
  -28.7000  -22.5200   19.0230 H   0  0  0  0  0  0  0  0  0  0  0  0
  -28.2540  -25.0140   19.8060 C   0  0  0  0  0  2  0  0  0  0  0  0
  -28.3740  -26.4400   20.3220 O   0  0  0  0  0  0  0  0  0  0  0  0
  -24.5780  -31.9270   23.2810 C   0  0  0  0  0  0  0  0  0  0  0  0
  -27.2760  -27.3460   20.2300 C   0  0  0  0  0  0  0  0  0  0  0  0
  -23.4170  -30.5280   21.6170 C   0  0  0  0  0  3  0  0  0  0  0  0
  -24.9060  -28.9980   20.1970 C   0  0  0  0  0  0  0  0  0  0  0  0
  -25.9650  -30.8400   21.4950 C   0  0  0  0  0  2  0  0  0  0  0  0
  -26.0630  -29.4630   20.8340 C   0  0  0  0  0  0  0  0  0  0  0  0
  -27.2450  -28.6460   20.8500 C   0  0  0  0  0  3  0  0  0  0  0  0
  -26.1010  -26.9760   19.5330 C   0  0  0  0  0  3  0  0  0  0  0  0
  -24.9340  -27.7620   19.5360 C   0  0  0  0  0  3  0  0  0  0  0  0
  -23.6640  -29.8690   20.2350 C   0  0  0  0  0  2  0  0  0  0  0  0
  -24.6700  -31.1170   22.1850 N   0  0  0  0  0  0  0  0  0  0  0  0
  -23.4830  -32.1960   23.7960 O   0  0  0  0  0  0  0  0  0  0  0  0
  -22.7440  -29.4990   22.5600 C   0  0  0  0  0  0  0  0  0  0  0  0
  -21.4240  -29.3020   22.4020 N   0  0  0  0  0  0  0  0  0  0  0  0
  -23.4100  -28.8830   23.3950 O   0  0  0  0  0  0  0  0  0  0  0  0
  -20.9420  -29.8520   21.7060 H   0  0  0  0  0  0  0  0  0  0  0  0
  -18.0500  -28.0690   22.8430 C   0  0  0  0  0  0  0  0  0  0  0  0
  -20.6000  -28.3550   23.1570 C   0  0  0  0  0  3  0  0  0  0  0  0
  -20.7280  -26.9260   22.5790 C   0  0  0  0  0  2  0  0  0  0  0  0
  -19.6480  -26.5960   21.5450 C   0  0  0  0  0  2  0  0  0  0  0  0
  -18.2540  -26.7250   22.1660 C   0  0  0  0  0  2  0  0  0  0  0  0
  -19.1530  -28.8420   23.2940 C   0  0  0  0  0  0  0  0  0  0  0  0
  -18.9110  -30.1010   23.8860 C   0  0  0  0  0  3  0  0  0  0  0  0
  -17.5970  -30.5860   24.0360 C   0  0  0  0  0  3  0  0  0  0  0  0
  -16.5080  -29.8110   23.6000 C   0  0  0  0  0  3  0  0  0  0  0  0
  -16.7360  -28.5560   23.0080 C   0  0  0  0  0  3  0  0  0  0  0  0
  -25.8420  -32.5720   23.9260 C   0  0  0  0  0  3  0  0  0  0  0  0
  -26.3180  -31.8310   25.2370 C   0  0  1  0  0  0  0  0  0  0  0  0
  -25.1920  -31.6170   26.2750 C   0  0  0  0  0  1  0  0  0  0  0  0
  -26.9150  -30.4450   24.9030 C   0  0  0  0  0  1  0  0  0  0  0  0
  -27.4470  -32.6420   25.9140 C   0  0  0  0  0  1  0  0  0  0  0  0
  -25.5280  -33.9790   24.2130 N   0  0  0  0  0  0  0  0  0  0  0  0
  -25.8930  -35.0160   23.4470 C   0  0  0  0  0  0  0  0  0  0  0  0
  -26.5970  -34.8870   22.4420 O   0  0  0  0  0  0  0  0  0  0  0  0
  -24.9020  -34.1530   24.9870 H   0  0  0  0  0  0  0  0  0  0  0  0
  -24.1970  -36.8190   22.9900 C   0  0  0  0  0  1  0  0  0  0  0  0
  -25.3990  -36.4170   23.8590 C   0  0  0  0  0  3  0  0  0  0  0  0
  -27.4990  -37.3050   24.7730 C   0  0  0  0  0  1  0  0  0  0  0  0
  -26.4450  -37.4590   23.7730 N   0  0  0  0  0  0  0  0  0  0  0  0
  -26.0410  -38.3850   23.8790 H   0  0  0  0  0  0  0  0  0  0  0  0
  2  4  1  0
  3  2  2  0
  3  5  1  0
  4  6  2  0
  5  7  2  0
  6  7  1  0
  6  1  1  0
  7  8  1  0
  8 17  1  0
  9 17  1  0
 10 15  1  0
 11 12  1  0
 11 10  1  0
 13 12  1  0
 13 22  1  0
 13 14  1  0
 15  9  1  0
 15 14  1  0
 16  9  2  0
 17 18  1  0
 19 20  2  0
 20 39  1  0
 21 20  1  0
 21 24  1  0
 22 19  1  0
 22 23  1  0
 23 21  2  0
 24 25  1  0
 25 26  2  0
 27 30  1  0
 27 26  1  0
 28 27  2  0
 29 28  1  0
 29 24  2  0
 30 31  1  0
 31 32  1  0
 32 33  2  0
 34 33  1  0
 34 38  1  0
 35 34  2  0
 36 31  2  0
 36 35  1  0
 37 36  1  0
 39 40  1  0
 40 43  1  0
 40 42  1  0
 41 39  2  0
 44 45  1  0
 44 19  1  0
 46 44  1  0
 47 49  2  0
 48  1  1  0
 48 47  1  0
 50 48  1  0
 51 52  1  0
 51 47  1  0
 53 64  2  0
 54 52  1  0
 54 59  1  0
 55 63  1  0
 55 65  1  0
 56 62  1  0
 56 58  1  0
 57 63  1  0
 58 59  2  0
 58 57  1  0
 60 61  1  0
 60 54  2  0
 61 56  2  0
 62 55  1  0
 63 53  1  0
 65 67  2  0
 66 65  1  0
 68 66  1  0
 69 78  2  0
 69 74  1  0
 70 66  1  0
 70 74  1  0
 71 70  1  0
 72 73  1  0
 72 71  1  0
 73 69  1  0
 74 75  2  0
 75 76  1  0
 77 76  2  0
 78 77  1  0
 79 53  1  0
 79 84  1  0
 79 80  1  0
 80 83  1  1
 80 81  1  0
 82 80  1  0
 84 87  1  0
 85 89  1  0
 85 84  1  0
 86 85  2  0
 89 88  1  0
 91 89  1  0
 91 92  1  0
 91 90  1  0
M  ISO  4   9 100  17 100  51 101  52 101
M  END
>  <TORSDO>  (44) 
F 20

>  <SCORE>  (44) 
-13.636

>  <name>  (44) 
43

>  <ligand_id>  (44) 
43

>  <original_smiles>  (44) 
[H]c1c([H])c([H])c(C([H])([H])N([H])C(=O)C([H])([H])Oc2c([H])c([H])c3c(c2[H])C([H])([H])N(C(=O)C([H])(N([H])C(=O)C([H])(N([H])C([H])([H])[H])C([H])([H])[H])C(C([H])([H])[H])(C([H])([H])[H])C([H])([H])[H])C([H])(C(=O)N([H])C2([H])c4c([H])c([H])c([H])c([H])c4C([H])([H])C([H])([H])C2([H])[H])C3([H])[H])c(C([H])([H])N([H])C(=O)N2C([H])([H])C([H])([H])C([H])([H])C([H])(n3nc(-c4c([H])c([H])c(Oc5c([H])c([H])c(F)c([H])c5F)c([H])c4[H])c(C(=O)N([H])[H])c3N([H])[H])C2([H])[H])c1[H]

>  <smiles>  (44) 
[H]c1c([H])c([H])c(C([H])([H])N([H])C(=O)C([H])([H])Oc2c([H])c([H])c3c(c2[H])C([H])([H])N(C(=O)C([H])(N([H])C(=O)C([H])(N([H])C([H])([H])[H])C([H])([H])[H])C(C([H])([H])[H])(C([H])([H])[H])C([H])([H])[H])C([H])(C(=O)N([H])C2([H])c4c([H])c([H])c([H])c([H])c4C([H])([H])C([H])([H])C2([H])[H])C3([H])[H])c(C([H])([H])N([H])C(=O)N2C([H])([H])C([H])([H])C([H])([H])C([H])(n3nc(-c4c([H])c([H])c(Oc5c([H])c([H])c(F)c([H])c5F)c([H])c4[H])c(C(=O)N([H])[H])c3N([H])[H])C2([H])[H])c1[H]

$$$$
44:0:0
     RDKit          3D

 96101  0  0  1  0  0  0  0  0999 V2000
  -26.2530  -17.7830   19.8510 C   0  0  0  0  0  0  0  0  0  0  0  0
  -24.9830  -17.9330   19.6570 N   0  0  0  0  0  4  0  0  0  0  0  0
  -24.3090  -17.2110   19.9030 H   0  0  0  0  0  0  0  0  0  0  0  0
  -24.5760  -18.8100   19.3530 H   0  0  0  0  0  0  0  0  0  0  0  0
  -25.3580  -14.9420   19.6400 C   0  0  0  0  0  1  0  0  0  0  0  0
  -27.9370  -13.1840   18.6050 C   0  0  0  0  0  1  0  0  0  0  0  0
  -26.5000  -16.1770   20.4880 C   0  0  0  0  0  2  0  0  0  0  0  0
  -28.2920  -15.7850   20.5910 C   0  0  0  0  0  2  0  0  0  0  0  0
  -29.0860  -14.4350   19.6130 C   0  0  0  0  0  2  0  0  0  0  0  0
  -26.0450  -13.4490   18.6690 C   0  0  0  0  0  3  0  0  0  0  0  0
  -29.2090  -16.8140   21.2140 C   0  0  0  0  0 15  0  0  0  0  0  0
  -25.2180  -12.6340   17.9670 F   0  0  0  0  0  0  0  0  0  0  0  0
  -31.7480  -14.0190   19.9070 C   0  0  0  0  0  0  0  0  0  0  0  0
  -32.1560  -11.6300   20.2290 C   0  0  0  0  0  2  0  0  0  0  0  0
  -31.0870  -10.8880   19.3730 C   0  0  0  0  0  2  0  0  0  0  0  0
  -29.7100  -10.8030   20.1480 C   0  0  0  0  0  2  0  0  0  0  0  0
  -29.4060  -12.1570   20.8300 C   0  0  0  0  0  3  0  0  0  0  0  0
  -30.5280  -12.7830   21.6360 C   0  0  0  0  0  2  0  0  0  0  0  0
  -31.6110  -12.9240   20.6800 N   0  0  0  0  0  0  0  0  0  0  0  0
  -32.8710  -14.3140   19.4570 O   0  0  0  0  0  0  0  0  0  0  0  0
  -30.5710  -14.6000   19.4280 N   0  0  0  0  0  0  0  0  0  0  0  0
  -30.8000  -15.3840   18.8340 H   0  0  0  0  0  0  0  0  0  0  0  0
  -27.3270  -14.0430   21.2640 C   0  0  0  0  0  3  0  0  0  0  0  0
  -26.0640  -13.1890   21.5270 C   0  0  0  0  0  0  0  0  0  0  0  0
  -26.2130  -11.7000   21.4640 C   0  0  0  0  0  0  0  0  0  0  0  0
  -28.0390  -12.6530   21.1980 N   0  0  0  0  0  0  0  0  0  0  0  0
  -27.4450  -11.4630   21.3630 N   0  0  0  0  0  0  0  0  0  0  0  0
  -25.3460  -10.4030   21.4610 C   0  0  0  0  0  0  0  0  0  0  0  0
  -25.4680   -9.3800   22.4570 C   0  0  0  0  0  3  0  0  0  0  0  0
  -24.6690   -8.1960   22.4690 C   0  0  0  0  0  3  0  0  0  0  0  0
  -23.7040   -7.9670   21.4600 C   0  0  0  0  0  0  0  0  0  0  0  0
  -23.6130   -8.9290   20.4320 C   0  0  0  0  0  3  0  0  0  0  0  0
  -24.4100  -10.1060   20.4310 C   0  0  0  0  0  3  0  0  0  0  0  0
  -22.8850   -6.8490   21.3800 O   0  0  0  0  0  0  0  0  0  0  0  0
  -22.2820   -6.2680   22.4800 C   0  0  0  0  0  0  0  0  0  0  0  0
  -21.3840   -6.9780   23.3090 C   0  0  0  0  0  3  0  0  0  0  0  0
  -20.7440   -6.3310   24.3870 C   0  0  0  0  0  3  0  0  0  0  0  0
  -20.9850   -4.9670   24.6410 C   0  0  0  0  0  0  0  0  0  0  0  0
  -21.8580   -4.2480   23.8080 C   0  0  0  0  0  3  0  0  0  0  0  0
  -22.4960   -4.8920   22.7300 C   0  0  0  0  0  0  0  0  0  0  0  0
  -23.3120   -4.1720   21.9230 F   0  0  0  0  0  0  0  0  0  0  0  0
  -20.3760   -4.3490   25.6810 F   0  0  0  0  0  0  0  0  0  0  0  0
  -24.5620  -13.5060   21.6740 C   0  0  0  0  0  0  0  0  0  0  0  0
  -23.8090  -12.7660   22.4910 N   0  0  0  0  0  0  0  0  0  0  0  0
  -23.9700  -14.3620   21.0380 O   0  0  0  0  0  0  0  0  0  0  0  0
  -24.2000  -12.0470   23.0810 H   0  0  0  0  0  0  0  0  0  0  0  0
  -22.8140  -12.9360   22.5320 H   0  0  0  0  0  0  0  0  0  0  0  0
  -28.1640  -16.3360   20.2830 N   0  0  0  0  0  4  0  0  0  0  0  0
  -27.5860  -17.1000   19.9480 H   0  0  0  0  0  0  0  0  0  0  0  0
  -29.0990  -16.3920   19.8900 H   0  0  0  0  0  0  0  0  0  0  0  0
  -26.7960  -20.2660   18.7270 C   0  0  0  0  0  3  0  0  0  0  0  0
  -25.5510  -20.1430   17.8380 C   0  0  0  0  0  1  0  0  0  0  0  0
  -27.0710  -19.0370   19.4350 N   0  0  0  0  0  2  0  0  0  0  0  0
  -27.5320  -21.8220   18.3640 C   0  0  0  0  0  3  0  0  0  0  0  0
  -27.4410  -23.3320   18.3060 C   0  0  0  0  0  3  0  0  0  0  0  0
  -28.1500  -24.6130   17.7500 O   0  0  0  0  0  0  0  0  0  0  0  0
  -26.6720  -29.2170   23.4270 C   0  0  0  0  0  0  0  0  0  0  0  0
  -27.8290  -25.9690   18.2590 C   0  0  0  0  0  0  0  0  0  0  0  0
  -25.2060  -29.0590   21.4670 C   0  0  0  0  0  3  0  0  0  0  0  0
  -26.2590  -28.1950   19.2840 C   0  0  0  0  0  0  0  0  0  0  0  0
  -27.7500  -28.7960   21.1650 C   0  0  0  0  0  2  0  0  0  0  0  0
  -27.4770  -27.9130   19.9150 C   0  0  0  0  0  0  0  0  0  0  0  0
  -28.2790  -26.8010   19.4020 C   0  0  0  0  0  3  0  0  0  0  0  0
  -26.7510  -26.5250   17.5680 C   0  0  0  0  0  3  0  0  0  0  0  0
  -25.9450  -27.5510   18.0840 C   0  0  0  0  0  3  0  0  0  0  0  0
  -25.2820  -29.1700   19.9220 C   0  0  0  0  0  2  0  0  0  0  0  0
  -26.5720  -29.0240   22.0750 N   0  0  0  0  0  0  0  0  0  0  0  0
  -25.6700  -29.4030   24.1360 O   0  0  0  0  0  0  0  0  0  0  0  0
  -24.3410  -27.8360   21.8740 C   0  0  0  0  0  0  0  0  0  0  0  0
  -23.0130  -27.9270   21.6830 N   0  0  0  0  0  0  0  0  0  0  0  0
  -24.8720  -26.8240   22.3410 O   0  0  0  0  0  0  0  0  0  0  0  0
  -22.6470  -28.7890   21.3040 H   0  0  0  0  0  0  0  0  0  0  0  0
  -19.5110  -27.0280   21.4080 C   0  0  0  0  0  0  0  0  0  0  0  0
  -22.0330  -26.8740   21.9680 C   0  0  0  0  0  3  0  0  0  0  0  0
  -22.0920  -25.7540   20.9030 C   0  0  0  0  0  2  0  0  0  0  0  0
  -21.0990  -25.9610   19.7540 C   0  0  0  0  0  2  0  0  0  0  0  0
  -19.6650  -26.0170   20.2850 C   0  0  0  0  0  2  0  0  0  0  0  0
  -20.6240  -27.4430   22.1880 C   0  0  0  0  0  0  0  0  0  0  0  0
  -20.4260  -28.4090   23.1990 C   0  0  0  0  0  3  0  0  0  0  0  0
  -19.1490  -28.9540   23.4350 C   0  0  0  0  0  3  0  0  0  0  0  0
  -18.0510  -28.5330   22.6640 C   0  0  0  0  0  3  0  0  0  0  0  0
  -18.2330  -27.5680   21.6570 C   0  0  0  0  0  3  0  0  0  0  0  0
  -28.0550  -29.2380   24.1410 C   0  0  0  0  0  3  0  0  0  0  0  0
  -28.5930  -27.7930   24.4830 C   0  0  1  0  0  0  0  0  0  0  0  0
  -27.5700  -26.9140   25.2410 C   0  0  0  0  0  1  0  0  0  0  0  0
  -29.0020  -27.0330   23.2010 C   0  0  0  0  0  1  0  0  0  0  0  0
  -29.8680  -27.9080   25.3510 C   0  0  0  0  0  1  0  0  0  0  0  0
  -27.9050  -30.0270   25.3750 N   0  0  0  0  0  0  0  0  0  0  0  0
  -28.3990  -31.2580   25.5660 C   0  0  0  0  0  0  0  0  0  0  0  0
  -29.0920  -31.8330   24.7230 O   0  0  0  0  0  0  0  0  0  0  0  0
  -27.2940  -29.6440   26.0820 H   0  0  0  0  0  0  0  0  0  0  0  0
  -26.9700  -33.0060   26.6860 C   0  0  0  0  0  1  0  0  0  0  0  0
  -28.0760  -31.9600   26.9010 C   0  0  0  0  0  3  0  0  0  0  0  0
  -30.2360  -31.6570   28.0310 C   0  0  0  0  0  1  0  0  0  0  0  0
  -29.2500  -32.6080   27.5270 N   0  0  0  0  0  0  0  0  0  0  0  0
  -28.9620  -33.2050   28.2980 H   0  0  0  0  0  0  0  0  0  0  0  0
  1  7  1  0
  2  1  2  0
  2  3  1  0
  4  2  1  0
  6 10  1  0
  9  8  1  0
 10  5  1  0
 12 10  1  0
 13 19  1  0
 14 19  1  0
 15 16  1  0
 15 14  1  0
 17 16  1  0
 17 26  1  0
 17 18  1  0
 19 18  1  0
 20 13  2  0
 21  9  1  0
 21 13  1  0
 22 21  1  0
 23 24  2  0
 24 43  1  0
 25 24  1  0
 26 23  1  0
 26 27  1  0
 27 25  2  0
 28 25  1  0
 28 29  1  0
 29 30  2  0
 31 30  1  0
 32 31  2  0
 33 32  1  0
 33 28  2  0
 34 31  1  0
 34 35  1  0
 35 40  2  0
 35 36  1  0
 36 37  2  0
 37 38  1  0
 38 42  1  0
 39 38  2  0
 40 39  1  0
 41 40  1  0
 43 44  1  0
 44 47  1  0
 44 46  1  0
 45 43  2  0
 48  7  1  0
 48  8  1  0
 49 48  1  0
 50 48  1  0
 51 52  1  0
 51 53  1  0
 53  1  1  0
 54 51  1  0
 55 54  2  0
 56 58  1  0
 56 55  1  0
 57 68  2  0
 58 63  1  0
 59 69  1  0
 59 67  1  0
 60 62  1  0
 60 66  1  0
 61 67  1  0
 62 61  1  0
 63 62  2  0
 64 65  1  0
 64 58  2  0
 65 60  2  0
 66 59  1  0
 67 57  1  0
 69 71  2  0
 70 69  1  0
 72 70  1  0
 73 82  2  0
 73 78  1  0
 74 70  1  0
 74 78  1  0
 75 74  1  0
 76 77  1  0
 76 75  1  0
 77 73  1  0
 78 79  2  0
 79 80  1  0
 81 80  2  0
 82 81  1  0
 83 57  1  0
 83 84  1  0
 83 88  1  0
 84 85  1  1
 84 87  1  0
 86 84  1  0
 88 89  1  0
 88 91  1  0
 89 93  1  0
 90 89  2  0
 93 92  1  0
 93 95  1  0
 95 94  1  0
 95 96  1  0
M  ISO  4  13 100  21 100  55 101  56 101
M  END
>  <TORSDO>  (45) 
F 19

>  <SCORE>  (45) 
-6.444

>  <name>  (45) 
44

>  <ligand_id>  (45) 
44

>  <original_smiles>  (45) 
[H]C(Oc1c([H])c([H])c2c(c1[H])C([H])([H])N(C(=O)C([H])(N([H])C(=O)C([H])(N([H])C([H])([H])[H])C([H])([H])[H])C(C([H])([H])[H])(C([H])([H])[H])C([H])([H])[H])C([H])(C(=O)N([H])C1([H])c3c([H])c([H])c([H])c([H])c3C([H])([H])C([H])([H])C1([H])[H])C2([H])[H])=C([H])C(=NC(c1c([H])c(F)c([H])c(N([H])C(=O)N2C([H])([H])C([H])([H])C([H])([H])C([H])(n3nc(-c4c([H])c([H])c(Oc5c([H])c([H])c(F)c([H])c5F)c([H])c4[H])c(C(=O)N([H])[H])c3N([H])[H])C2([H])[H])c1C([H])([H])[H])=[N+]([H])[H])C([H])([H])[H]

>  <smiles>  (45) 
[H]C(Oc1c([H])c([H])c2c(c1[H])C([H])([H])N(C(=O)C([H])(N([H])C(=O)C([H])(N([H])C([H])([H])[H])C([H])([H])[H])C(C([H])([H])[H])(C([H])([H])[H])C([H])([H])[H])C([H])(C(=O)N([H])C1([H])c3c([H])c([H])c([H])c([H])c3C([H])([H])C([H])([H])C1([H])[H])C2([H])[H])=C([H])C(=NC(c1c([H])c(F)c([H])c(N([H])C(=O)N2C([H])([H])C([H])([H])C([H])([H])C([H])(n3nc(-c4c([H])c([H])c(Oc5c([H])c([H])c(F)c([H])c5F)c([H])c4[H])c(C(=O)N([H])[H])c3N([H])[H])C2([H])[H])c1C([H])([H])[H])=[N+]([H])[H])C([H])([H])[H]

$$$$
45:0:0
     RDKit          3D

 93101  0  0  1  0  0  0  0  0999 V2000
  -29.4850  -23.0700   21.0610 C   0  0  0  0  0  0  0  0  0  0  0  0
  -28.1960  -21.8620   19.3290 C   0  0  0  0  0  1  0  0  0  0  0  0
  -28.9980  -21.9000   20.5570 N   0  0  0  0  0  0  0  0  0  0  0  0
  -30.0290  -23.1160   22.1700 O   0  0  0  0  0  0  0  0  0  0  0  0
  -29.1280  -20.5840   21.2500 C   0  0  0  0  0  2  0  0  0  0  0  0
  -30.7060  -19.7600   19.4120 C   0  0  0  0  0  3  0  0  0  0  0  0
  -31.2770  -18.7330   18.6480 C   0  0  0  0  0  3  0  0  0  0  0  0
  -29.6220  -18.0820   20.8040 C   0  0  0  0  0  3  0  0  0  0  0  0
  -29.8310  -19.4520   20.4710 C   0  0  0  0  0  0  0  0  0  0  0  0
  -31.0000  -17.3770   18.9170 C   0  0  0  0  0  0  0  0  0  0  0  0
  -30.2190  -17.0220   20.0630 C   0  0  0  0  0  0  0  0  0  0  0  0
  -31.4990  -16.3840   17.8770 C   0  0  0  0  0  1  0  0  0  0  0  0
  -30.6910  -14.5540   20.3830 C   0  0  0  0  0  0  0  0  0  0  0  0
  -30.4100  -12.3600   19.3260 C   0  0  0  0  0  2  0  0  0  0  0  0
  -29.4840  -12.5430   18.1050 C   0  0  0  0  0  2  0  0  0  0  0  0
  -28.0050  -12.4090   18.5180 C   0  0  0  0  0  2  0  0  0  0  0  0
  -27.6460  -13.2660   19.7610 C   0  0  0  0  0  3  0  0  0  0  0  0
  -28.6920  -13.0930   20.8850 C   0  0  0  0  0  2  0  0  0  0  0  0
  -30.0190  -13.3730   20.3170 N   0  0  0  0  0  0  0  0  0  0  0  0
  -31.8990  -14.6310   20.1610 O   0  0  0  0  0  0  0  0  0  0  0  0
  -29.9130  -15.6620   20.4500 N   0  0  0  0  0  0  0  0  0  0  0  0
  -28.9680  -15.4940   20.7580 H   0  0  0  0  0  0  0  0  0  0  0  0
  -25.2380  -13.8710   20.4310 C   0  0  0  0  0  0  0  0  0  0  0  0
  -24.1680  -13.1000   20.7960 C   0  0  0  0  0  0  0  0  0  0  0  0
  -24.6380  -11.7510   20.7980 C   0  0  0  0  0  0  0  0  0  0  0  0
  -26.2900  -12.9920   20.2300 N   0  0  0  0  0  0  0  0  0  0  0  0
  -25.9330  -11.7130   20.5130 N   0  0  0  0  0  0  0  0  0  0  0  0
  -23.9150  -10.4880   20.9980 C   0  0  0  0  0  0  0  0  0  0  0  0
  -24.3440   -9.5320   21.9450 C   0  0  0  0  0  3  0  0  0  0  0  0
  -23.6250   -8.3310   22.1280 C   0  0  0  0  0  3  0  0  0  0  0  0
  -22.4590   -8.0790   21.3650 C   0  0  0  0  0  0  0  0  0  0  0  0
  -22.0520   -9.0230   20.4050 C   0  0  0  0  0  3  0  0  0  0  0  0
  -22.7730  -10.2150   20.2200 C   0  0  0  0  0  3  0  0  0  0  0  0
  -21.7110   -6.9310   21.4600 O   0  0  0  0  0  0  0  0  0  0  0  0
  -21.6610   -6.1940   22.6160 C   0  0  0  0  0  0  0  0  0  0  0  0
  -21.2340   -6.7560   23.8390 C   0  0  0  0  0  3  0  0  0  0  0  0
  -21.1350   -5.9470   24.9890 C   0  0  0  0  0  3  0  0  0  0  0  0
  -21.4520   -4.5760   24.9150 C   0  0  0  0  0  0  0  0  0  0  0  0
  -21.8720   -4.0150   23.6960 C   0  0  0  0  0  3  0  0  0  0  0  0
  -21.9730   -4.8220   22.5500 C   0  0  0  0  0  0  0  0  0  0  0  0
  -22.3600   -4.2710   21.3730 F   0  0  0  0  0  0  0  0  0  0  0  0
  -21.3500   -3.7960   26.0170 F   0  0  0  0  0  0  0  0  0  0  0  0
  -22.7640  -13.5710   21.0350 C   0  0  0  0  0  0  0  0  0  0  0  0
  -22.0280  -12.8820   21.8990 N   0  0  0  0  0  0  0  0  0  0  0  0
  -22.3270  -14.5840   20.4900 O   0  0  0  0  0  0  0  0  0  0  0  0
  -22.3970  -12.0620   22.3560 H   0  0  0  0  0  0  0  0  0  0  0  0
  -21.0810  -13.1730   22.1010 H   0  0  0  0  0  0  0  0  0  0  0  0
  -25.4010  -15.2400   20.2290 N   0  0  0  0  0  0  0  0  0  0  0  0
  -24.6320  -15.8960   20.3010 H   0  0  0  0  0  0  0  0  0  0  0  0
  -26.2470  -15.6690   19.8790 H   0  0  0  0  0  0  0  0  0  0  0  0
  -29.4270  -24.3900   20.2430 C   0  0  0  0  0  2  0  0  0  0  0  0
  -28.2170  -25.3020   20.5780 C   0  0  0  0  0  2  0  0  0  0  0  0
  -28.3690  -26.6710   20.1260 O   0  0  0  0  0  0  0  0  0  0  0  0
  -24.5970  -31.8920   23.2270 C   0  0  0  0  0  0  0  0  0  0  0  0
  -27.2150  -27.4360   20.1290 C   0  0  0  0  0  0  0  0  0  0  0  0
  -23.3800  -30.4920   21.5950 C   0  0  0  0  0  3  0  0  0  0  0  0
  -24.8260  -28.9600   20.1530 C   0  0  0  0  0  0  0  0  0  0  0  0
  -25.9040  -30.8490   21.3760 C   0  0  0  0  0  2  0  0  0  0  0  0
  -25.9880  -29.4760   20.7360 C   0  0  0  0  0  0  0  0  0  0  0  0
  -27.1900  -28.7230   20.7170 C   0  0  0  0  0  3  0  0  0  0  0  0
  -26.0360  -26.9500   19.5200 C   0  0  0  0  0  3  0  0  0  0  0  0
  -24.8460  -27.6980   19.5350 C   0  0  0  0  0  3  0  0  0  0  0  0
  -23.5770  -29.8130   20.2130 C   0  0  0  0  0  2  0  0  0  0  0  0
  -24.6460  -31.0940   22.1240 N   0  0  0  0  0  0  0  0  0  0  0  0
  -23.5200  -32.1640   23.7750 O   0  0  0  0  0  0  0  0  0  0  0  0
  -22.7340  -29.4720   22.5600 C   0  0  0  0  0  0  0  0  0  0  0  0
  -21.4090  -29.2900   22.4400 N   0  0  0  0  0  0  0  0  0  0  0  0
  -23.4220  -28.8470   23.3720 O   0  0  0  0  0  0  0  0  0  0  0  0
  -20.9160  -29.8520   21.7600 H   0  0  0  0  0  0  0  0  0  0  0  0
  -18.0380  -28.0790   22.9380 C   0  0  0  0  0  0  0  0  0  0  0  0
  -20.5960  -28.3490   23.2100 C   0  0  0  0  0  3  0  0  0  0  0  0
  -20.7040  -26.9160   22.6370 C   0  0  0  0  0  2  0  0  0  0  0  0
  -19.6030  -26.5880   21.6240 C   0  0  0  0  0  2  0  0  0  0  0  0
  -18.2220  -26.7290   22.2690 C   0  0  0  0  0  2  0  0  0  0  0  0
  -19.1540  -28.8470   23.3660 C   0  0  0  0  0  0  0  0  0  0  0  0
  -18.9320  -30.1120   23.9530 C   0  0  0  0  0  3  0  0  0  0  0  0
  -17.6260  -30.6090   24.1200 C   0  0  0  0  0  3  0  0  0  0  0  0
  -16.5230  -29.8390   23.7080 C   0  0  0  0  0  3  0  0  0  0  0  0
  -16.7320  -28.5770   23.1230 C   0  0  0  0  0  3  0  0  0  0  0  0
  -25.8880  -32.5210   23.8410 C   0  0  0  0  0  3  0  0  0  0  0  0
  -26.4160  -31.7440   25.1090 C   0  0  1  0  0  0  0  0  0  0  0  0
  -25.3320  -31.5020   26.1870 C   0  0  0  0  0  1  0  0  0  0  0  0
  -26.9930  -30.3670   24.7070 C   0  0  0  0  0  1  0  0  0  0  0  0
  -27.5730  -32.5330   25.7650 C   0  0  0  0  0  1  0  0  0  0  0  0
  -25.5810  -33.9180   24.1770 N   0  0  0  0  0  0  0  0  0  0  0  0
  -25.9110  -34.9740   23.4200 C   0  0  0  0  0  0  0  0  0  0  0  0
  -26.5800  -34.8720   22.3880 O   0  0  0  0  0  0  0  0  0  0  0  0
  -24.9760  -34.0680   24.9720 H   0  0  0  0  0  0  0  0  0  0  0  0
  -24.1840  -36.7730   23.0770 C   0  0  0  0  0  1  0  0  0  0  0  0
  -25.4260  -36.3620   23.8810 C   0  0  0  0  0  3  0  0  0  0  0  0
  -27.5660  -37.2390   24.7080 C   0  0  0  0  0  1  0  0  0  0  0  0
  -26.4600  -37.4130   23.7690 N   0  0  0  0  0  0  0  0  0  0  0  0
  -26.0570  -38.3330   23.9240 H   0  0  0  0  0  0  0  0  0  0  0  0
  1  4  2  0
  2  3  1  0
  3  1  1  0
  3  5  1  0
  6  9  1  0
  7 10  1  0
  7  6  2  0
  9  8  2  0
  9  5  1  0
 10 11  2  0
 11 21  1  0
 11  8  1  0
 12 10  1  0
 13 21  1  0
 14 19  1  0
 15 16  1  0
 15 14  1  0
 17 16  1  0
 17 26  1  0
 17 18  1  0
 19 13  1  0
 19 18  1  0
 20 13  2  0
 21 22  1  0
 23 24  2  0
 24 25  1  0
 24 43  1  0
 25 28  1  0
 26 23  1  0
 26 27  1  0
 27 25  2  0
 28 29  1  0
 29 30  2  0
 31 34  1  0
 31 30  1  0
 32 31  2  0
 33 32  1  0
 33 28  2  0
 34 35  1  0
 35 36  1  0
 36 37  2  0
 38 37  1  0
 38 42  1  0
 39 38  2  0
 40 35  2  0
 40 39  1  0
 41 40  1  0
 43 44  1  0
 44 47  1  0
 44 46  1  0
 45 43  2  0
 48 49  1  0
 48 23  1  0
 50 48  1  0
 51 52  1  0
 51  1  1  0
 53 55  1  0
 53 52  1  0
 54 65  2  0
 55 60  1  0
 56 64  1  0
 56 66  1  0
 57 63  1  0
 57 59  1  0
 58 64  1  0
 59 58  1  0
 60 59  2  0
 61 62  1  0
 61 55  2  0
 62 57  2  0
 63 56  1  0
 64 54  1  0
 66 68  2  0
 67 66  1  0
 69 67  1  0
 70 79  2  0
 70 75  1  0
 71 67  1  0
 71 75  1  0
 72 71  1  0
 73 74  1  0
 73 72  1  0
 74 70  1  0
 75 76  2  0
 76 77  1  0
 78 77  2  0
 79 78  1  0
 80 54  1  0
 80 85  1  0
 80 81  1  0
 81 84  1  1
 81 82  1  0
 83 81  1  0
 85 88  1  0
 86 90  1  0
 86 85  1  0
 87 86  2  0
 90 89  1  0
 92 90  1  0
 92 93  1  0
 92 91  1  0
M  ISO  4  13 100  21 100  52 101  53 101
M  END
>  <TORSDO>  (46) 
F 20

>  <SCORE>  (46) 
-13.900

>  <name>  (46) 
45

>  <ligand_id>  (46) 
45

>  <original_smiles>  (46) 
[H]c1c([H])c([H])c2c(c1[H])C([H])([H])C([H])([H])C([H])([H])C2([H])N([H])C(=O)C1([H])N(C(=O)C([H])(N([H])C(=O)C([H])(N([H])C([H])([H])[H])C([H])([H])[H])C(C([H])([H])[H])(C([H])([H])[H])C([H])([H])[H])C([H])([H])c2c([H])c(OC([H])([H])C([H])([H])C(=O)N(C([H])([H])[H])C([H])([H])c3c([H])c([H])c(C([H])([H])[H])c(N([H])C(=O)N4C([H])([H])C([H])([H])C([H])([H])C([H])(n5nc(-c6c([H])c([H])c(Oc7c([H])c([H])c(F)c([H])c7F)c([H])c6[H])c(C(=O)N([H])[H])c5N([H])[H])C4([H])[H])c3[H])c([H])c([H])c2C1([H])[H]

>  <smiles>  (46) 
[H]c1c([H])c([H])c2c(c1[H])C([H])([H])C([H])([H])C([H])([H])C2([H])N([H])C(=O)C1([H])N(C(=O)C([H])(N([H])C(=O)C([H])(N([H])C([H])([H])[H])C([H])([H])[H])C(C([H])([H])[H])(C([H])([H])[H])C([H])([H])[H])C([H])([H])c2c([H])c(OC([H])([H])C([H])([H])C(=O)N(C([H])([H])[H])C([H])([H])c3c([H])c([H])c(C([H])([H])[H])c(N([H])C(=O)N4C([H])([H])C([H])([H])C([H])([H])C([H])(n5nc(-c6c([H])c([H])c(Oc7c([H])c([H])c(F)c([H])c7F)c([H])c6[H])c(C(=O)N([H])[H])c5N([H])[H])C4([H])[H])c3[H])c([H])c([H])c2C1([H])[H]

$$$$
46:0:0
     RDKit          3D

 95103  0  0  1  0  0  0  0  0999 V2000
  -28.5920  -17.7680   20.0200 C   0  0  0  0  0  3  0  0  0  0  0  0
  -27.4780  -18.5610   20.2790 C   0  0  0  0  0  3  0  0  0  0  0  0
  -29.5500  -18.0590   19.0100 C   0  0  0  0  0  0  0  0  0  0  0  0
  -29.2820  -19.2410   18.1260 C   0  0  0  0  0  0  0  0  0  0  0  0
  -28.1990  -20.1060   18.5430 C   0  0  0  0  0  0  0  0  0  0  0  0
  -27.3100  -19.7440   19.5770 C   0  0  0  0  0  0  0  0  0  0  0  0
  -26.2750  -20.5510   19.9200 F   0  0  0  0  0  0  0  0  0  0  0  0
  -26.9000  -21.5600   16.8670 C   0  0  0  0  0  1  0  0  0  0  0  0
  -27.9480  -21.5120   17.9980 C   0  0  0  0  0  2  0  0  0  0  0  0
  -30.7790  -17.0300   19.0880 C   0  0  0  0  0  2  0  0  0  0  0  0
  -31.4390  -14.7620   20.4460 C   0  0  0  0  0  0  0  0  0  0  0  0
  -31.4180  -12.2750   20.7670 C   0  0  0  0  0  2  0  0  0  0  0  0
  -30.7190  -11.6250   19.5490 C   0  0  0  0  0  2  0  0  0  0  0  0
  -29.1880  -11.5990   19.7420 C   0  0  0  0  0  2  0  0  0  0  0  0
  -28.6230  -12.9550   20.2310 C   0  0  0  0  0  3  0  0  0  0  0  0
  -29.4480  -13.5180   21.4080 C   0  0  0  0  0  2  0  0  0  0  0  0
  -30.8410  -13.6270   20.9520 N   0  0  0  0  0  0  0  0  0  0  0  0
  -32.6650  -14.7950   20.2880 O   0  0  0  0  0  0  0  0  0  0  0  0
  -30.6040  -15.7480   19.9380 N   0  0  0  0  0  0  0  0  0  0  0  0
  -29.6370  -15.5340   20.1230 H   0  0  0  0  0  0  0  0  0  0  0  0
  -26.2720  -13.8900   20.6540 C   0  0  0  0  0  0  0  0  0  0  0  0
  -25.0730  -13.2800   20.9020 C   0  0  0  0  0  0  0  0  0  0  0  0
  -25.3420  -11.8760   20.9290 C   0  0  0  0  0  0  0  0  0  0  0  0
  -27.2020  -12.8690   20.5520 N   0  0  0  0  0  0  0  0  0  0  0  0
  -26.6400  -11.6530   20.7730 N   0  0  0  0  0  0  0  0  0  0  0  0
  -24.4270  -10.7310   21.0310 C   0  0  0  0  0  0  0  0  0  0  0  0
  -24.6170   -9.7160   21.9960 C   0  0  0  0  0  3  0  0  0  0  0  0
  -23.7130   -8.6390   22.0900 C   0  0  0  0  0  3  0  0  0  0  0  0
  -22.6020   -8.5650   21.2170 C   0  0  0  0  0  0  0  0  0  0  0  0
  -22.4300   -9.5590   20.2400 C   0  0  0  0  0  3  0  0  0  0  0  0
  -23.3320  -10.6330   20.1460 C   0  0  0  0  0  3  0  0  0  0  0  0
  -21.6850   -7.5420   21.2200 O   0  0  0  0  0  0  0  0  0  0  0  0
  -21.3990   -6.8340   22.3600 C   0  0  0  0  0  0  0  0  0  0  0  0
  -20.9010   -7.4630   23.5210 C   0  0  0  0  0  3  0  0  0  0  0  0
  -20.5550   -6.6880   24.6460 C   0  0  0  0  0  3  0  0  0  0  0  0
  -20.6960   -5.2880   24.6080 C   0  0  0  0  0  0  0  0  0  0  0  0
  -21.1850   -4.6600   23.4500 C   0  0  0  0  0  3  0  0  0  0  0  0
  -21.5360   -5.4320   22.3280 C   0  0  0  0  0  0  0  0  0  0  0  0
  -21.9890   -4.8220   21.2050 F   0  0  0  0  0  0  0  0  0  0  0  0
  -20.3560   -4.5450   25.6860 F   0  0  0  0  0  0  0  0  0  0  0  0
  -23.7330  -13.9460   21.0020 C   0  0  0  0  0  0  0  0  0  0  0  0
  -22.8300  -13.3860   21.8000 N   0  0  0  0  0  0  0  0  0  0  0  0
  -23.4960  -14.9970   20.4090 O   0  0  0  0  0  0  0  0  0  0  0  0
  -23.0390  -12.5340   22.2990 H   0  0  0  0  0  0  0  0  0  0  0  0
  -21.9180  -13.8040   21.9020 H   0  0  0  0  0  0  0  0  0  0  0  0
  -26.6420  -15.2200   20.4760 N   0  0  0  0  0  0  0  0  0  0  0  0
  -25.9550  -15.9660   20.4580 H   0  0  0  0  0  0  0  0  0  0  0  0
  -27.5600  -15.5280   20.1900 H   0  0  0  0  0  0  0  0  0  0  0  0
  -30.0720  -19.6890   16.7960 C   0  0  0  0  0  2  0  0  0  0  0  0
  -30.6480  -22.2580   16.1430 C   0  0  0  0  0  0  0  0  0  0  0  0
  -29.8840  -21.0870   16.1540 N   0  0  0  0  0  0  0  0  0  0  0  0
  -31.7300  -22.2950   16.7290 O   0  0  0  0  0  0  0  0  0  0  0  0
  -29.0270  -21.1560   15.6190 H   0  0  0  0  0  0  0  0  0  0  0  0
  -30.1440  -23.5850   15.3680 C   0  0  0  0  0  2  0  0  0  0  0  0
  -30.2170  -24.9650   16.0060 O   0  0  0  0  0  0  0  0  0  0  0  0
  -24.6760  -27.1820   20.2130 C   0  0  0  0  0  0  0  0  0  0  0  0
  -29.0020  -25.6990   16.1430 C   0  0  0  0  0  0  0  0  0  0  0  0
  -24.2960  -27.1130   17.7790 C   0  0  0  0  0  3  0  0  0  0  0  0
  -26.3900  -26.9080   16.3220 C   0  0  0  0  0  0  0  0  0  0  0  0
  -26.6520  -27.5550   18.7090 C   0  0  0  0  0  2  0  0  0  0  0  0
  -27.2300  -26.9190   17.4420 C   0  0  0  0  0  0  0  0  0  0  0  0
  -28.5390  -26.3290   17.3560 C   0  0  0  0  0  3  0  0  0  0  0  0
  -28.1300  -25.7950   15.0330 C   0  0  0  0  0  3  0  0  0  0  0  0
  -26.8470  -26.3630   15.1180 C   0  0  0  0  0  3  0  0  0  0  0  0
  -25.0000  -27.5020   16.4550 C   0  0  0  0  0  2  0  0  0  0  0  0
  -25.2090  -27.2610   18.9580 N   0  0  0  0  0  0  0  0  0  0  0  0
  -23.4600  -27.0140   20.3890 O   0  0  0  0  0  0  0  0  0  0  0  0
  -23.6960  -25.6920   17.6430 C   0  0  0  0  0  0  0  0  0  0  0  0
  -22.5210  -25.5870   16.9990 N   0  0  0  0  0  0  0  0  0  0  0  0
  -24.2940  -24.7130   18.0940 O   0  0  0  0  0  0  0  0  0  0  0  0
  -22.0850  -26.4360   16.6680 H   0  0  0  0  0  0  0  0  0  0  0  0
  -19.4910  -24.2180   15.5670 C   0  0  0  0  0  0  0  0  0  0  0  0
  -21.8010  -24.3420   16.7230 C   0  0  0  0  0  3  0  0  0  0  0  0
  -22.3540  -23.6450   15.4590 C   0  0  0  0  0  2  0  0  0  0  0  0
  -21.5980  -24.0230   14.1800 C   0  0  0  0  0  2  0  0  0  0  0  0
  -20.1160  -23.6530   14.3040 C   0  0  0  0  0  2  0  0  0  0  0  0
  -20.2820  -24.5560   16.6970 C   0  0  0  0  0  0  0  0  0  0  0  0
  -19.6520  -25.1090   17.8330 C   0  0  0  0  0  3  0  0  0  0  0  0
  -18.2600  -25.3230   17.8530 C   0  0  0  0  0  3  0  0  0  0  0  0
  -17.4810  -24.9740   16.7370 C   0  0  0  0  0  3  0  0  0  0  0  0
  -18.0940  -24.4180   15.6000 C   0  0  0  0  0  3  0  0  0  0  0  0
  -25.5650  -27.3210   21.4860 C   0  0  0  0  0  3  0  0  0  0  0  0
  -24.7950  -28.0740   22.4860 N   0  0  0  0  0  0  0  0  0  0  0  0
  -24.9590  -29.3760   22.7540 C   0  0  0  0  0  0  0  0  0  0  0  0
  -25.8360  -30.0620   22.2210 O   0  0  0  0  0  0  0  0  0  0  0  0
  -24.0230  -27.5900   22.9220 H   0  0  0  0  0  0  0  0  0  0  0  0
  -22.8980  -30.7900   23.0330 C   0  0  0  0  0  1  0  0  0  0  0  0
  -24.0020  -30.0190   23.7760 C   0  0  0  0  0  3  0  0  0  0  0  0
  -25.5450  -30.2170   25.6760 C   0  0  0  0  0  1  0  0  0  0  0  0
  -24.6800  -30.9220   24.7330 N   0  0  0  0  0  0  0  0  0  0  0  0
  -24.0020  -31.4610   25.2640 H   0  0  0  0  0  0  0  0  0  0  0  0
  -26.0270  -25.9320   22.0720 C   0  0  1  0  0  0  0  0  0  0  0  0
  -24.8640  -24.9360   22.2980 C   0  0  0  0  0  1  0  0  0  0  0  0
  -27.0510  -25.2510   21.1340 C   0  0  0  0  0  1  0  0  0  0  0  0
  -26.7460  -26.1480   23.4240 C   0  0  0  0  0  1  0  0  0  0  0  0
  1  2  1  0
  3 10  1  0
  3  1  2  0
  4  5  2  0
  4  3  1  0
  5  6  1  0
  6  7  1  0
  6  2  2  0
  8  9  1  0
  9  5  1  0
 10 19  1  0
 11 17  1  0
 12 17  1  0
 13 14  1  0
 13 12  1  0
 15 14  1  0
 15 24  1  0
 15 16  1  0
 17 16  1  0
 18 11  2  0
 19 20  1  0
 19 11  1  0
 21 22  2  0
 22 23  1  0
 22 41  1  0
 23 26  1  0
 24 21  1  0
 24 25  1  0
 25 23  2  0
 26 27  1  0
 27 28  2  0
 29 32  1  0
 29 28  1  0
 30 29  2  0
 31 30  1  0
 31 26  2  0
 32 33  1  0
 33 34  1  0
 34 35  2  0
 36 35  1  0
 36 40  1  0
 37 36  2  0
 38 33  2  0
 38 37  1  0
 39 38  1  0
 41 42  1  0
 42 45  1  0
 42 44  1  0
 43 41  2  0
 46 21  1  0
 47 46  1  0
 48 46  1  0
 49  4  1  0
 50 51  1  0
 50 52  2  0
 51 49  1  0
 53 51  1  0
 54 55  1  0
 54 50  1  0
 55 57  1  0
 56 67  2  0
 57 62  1  0
 58 68  1  0
 58 66  1  0
 59 65  1  0
 59 61  1  0
 60 66  1  0
 61 60  1  0
 62 61  2  0
 63 64  1  0
 63 57  2  0
 64 59  2  0
 65 58  1  0
 66 56  1  0
 68 70  2  0
 69 68  1  0
 71 69  1  0
 72 81  2  0
 72 77  1  0
 73 69  1  0
 74 73  1  0
 75 76  1  0
 75 74  1  0
 76 72  1  0
 77 73  1  0
 77 78  2  0
 78 79  1  0
 80 79  2  0
 81 80  1  0
 82 56  1  0
 82 92  1  0
 82 83  1  0
 83 84  1  0
 83 86  1  0
 84 88  1  0
 85 84  2  0
 88 87  1  0
 88 90  1  0
 90 91  1  0
 90 89  1  0
 92 93  1  1
 92 95  1  0
 94 92  1  0
M  ISO  4  11 100  19 100  54 101  55 101
M  END
>  <TORSDO>  (47) 
F 21

>  <SCORE>  (47) 
-7.784

>  <name>  (47) 
46

>  <ligand_id>  (47) 
46

>  <original_smiles>  (47) 
[H]c1c([H])c([H])c2c(c1[H])C([H])([H])C([H])([H])C([H])([H])C2([H])N([H])C(=O)C1([H])N(C(=O)C([H])(N([H])C(=O)C([H])(N([H])C([H])([H])[H])C([H])([H])[H])C(C([H])([H])[H])(C([H])([H])[H])C([H])([H])[H])C([H])([H])c2c([H])c(OC([H])([H])C(=O)N([H])C([H])([H])c3c(C([H])([H])N([H])C(=O)N4C([H])([H])C([H])([H])C([H])([H])C([H])(n5nc(-c6c([H])c([H])c(Oc7c([H])c([H])c(F)c([H])c7F)c([H])c6[H])c(C(=O)N([H])[H])c5N([H])[H])C4([H])[H])c([H])c([H])c(F)c3C([H])([H])C([H])([H])[H])c([H])c([H])c2C1([H])[H]

>  <smiles>  (47) 
[H]c1c([H])c([H])c2c(c1[H])C([H])([H])C([H])([H])C([H])([H])C2([H])N([H])C(=O)C1([H])N(C(=O)C([H])(N([H])C(=O)C([H])(N([H])C([H])([H])[H])C([H])([H])[H])C(C([H])([H])[H])(C([H])([H])[H])C([H])([H])[H])C([H])([H])c2c([H])c(OC([H])([H])C(=O)N([H])C([H])([H])c3c(C([H])([H])N([H])C(=O)N4C([H])([H])C([H])([H])C([H])([H])C([H])(n5nc(-c6c([H])c([H])c(Oc7c([H])c([H])c(F)c([H])c7F)c([H])c6[H])c(C(=O)N([H])[H])c5N([H])[H])C4([H])[H])c([H])c([H])c(F)c3C([H])([H])C([H])([H])[H])c([H])c([H])c2C1([H])[H]

$$$$
47:0:0
     RDKit          3D

 93101  0  0  1  0  0  0  0  0999 V2000
  -30.1100  -21.1270   19.7030 C   0  0  0  0  0  2  0  0  0  0  0  0
  -30.5150  -18.4470   19.7930 C   0  0  0  0  0  3  0  0  0  0  0  0
  -30.9400  -17.3110   21.8970 C   0  0  0  0  0  3  0  0  0  0  0  0
  -30.3470  -19.7360   20.4580 C   0  0  0  0  0  0  0  0  0  0  0  0
  -30.8120  -17.2070   20.4980 C   0  0  0  0  0  0  0  0  0  0  0  0
  -30.7840  -18.5460   22.5650 C   0  0  0  0  0  0  0  0  0  0  0  0
  -30.4850  -19.7330   21.8630 C   0  0  0  0  0  0  0  0  0  0  0  0
  -30.9140  -18.5880   23.9120 F   0  0  0  0  0  0  0  0  0  0  0  0
  -30.3360  -20.8860   22.5600 F   0  0  0  0  0  0  0  0  0  0  0  0
  -31.5170  -14.6990   20.0010 C   0  0  0  0  0  0  0  0  0  0  0  0
  -31.1840  -12.4100   19.0360 C   0  0  0  0  0  2  0  0  0  0  0  0
  -30.2220  -12.5200   17.8320 C   0  0  0  0  0  2  0  0  0  0  0  0
  -28.7490  -12.4650   18.2950 C   0  0  0  0  0  2  0  0  0  0  0  0
  -28.4640  -13.4050   19.4960 C   0  0  0  0  0  3  0  0  0  0  0  0
  -29.5380  -13.2440   20.5930 C   0  0  0  0  0  2  0  0  0  0  0  0
  -30.8390  -13.5030   19.9640 N   0  0  0  0  0  0  0  0  0  0  0  0
  -32.7250  -14.7430   19.7430 O   0  0  0  0  0  0  0  0  0  0  0  0
  -30.7160  -15.8310   19.9620 N   0  0  0  0  0  0  0  0  0  0  0  0
  -29.7550  -15.5310   19.9020 H   0  0  0  0  0  0  0  0  0  0  0  0
  -26.1650  -14.2050   20.3120 C   0  0  0  0  0  0  0  0  0  0  0  0
  -25.0400  -13.5270   20.6950 C   0  0  0  0  0  0  0  0  0  0  0  0
  -25.3680  -12.1410   20.6160 C   0  0  0  0  0  0  0  0  0  0  0  0
  -27.1110  -13.2350   20.0210 N   0  0  0  0  0  0  0  0  0  0  0  0
  -26.6400  -11.9870   20.2650 N   0  0  0  0  0  0  0  0  0  0  0  0
  -24.5290  -10.9490   20.7920 C   0  0  0  0  0  0  0  0  0  0  0  0
  -24.8530   -9.9540   21.7390 C   0  0  0  0  0  3  0  0  0  0  0  0
  -24.0200   -8.8260   21.9050 C   0  0  0  0  0  3  0  0  0  0  0  0
  -22.8480   -8.6890   21.1230 C   0  0  0  0  0  0  0  0  0  0  0  0
  -22.5440   -9.6710   20.1650 C   0  0  0  0  0  3  0  0  0  0  0  0
  -23.3760  -10.7910   19.9970 C   0  0  0  0  0  3  0  0  0  0  0  0
  -21.9950   -7.6150   21.1990 O   0  0  0  0  0  0  0  0  0  0  0  0
  -21.8010   -6.9300   22.3710 C   0  0  0  0  0  0  0  0  0  0  0  0
  -21.3350   -7.5710   23.5410 C   0  0  0  0  0  3  0  0  0  0  0  0
  -21.0810   -6.8150   24.7030 C   0  0  0  0  0  3  0  0  0  0  0  0
  -21.2830   -5.4230   24.6970 C   0  0  0  0  0  0  0  0  0  0  0  0
  -21.7400   -4.7820   23.5320 C   0  0  0  0  0  3  0  0  0  0  0  0
  -21.9950   -5.5340   22.3720 C   0  0  0  0  0  0  0  0  0  0  0  0
  -22.4170   -4.9090   21.2460 F   0  0  0  0  0  0  0  0  0  0  0  0
  -21.0320   -4.6960   25.8120 F   0  0  0  0  0  0  0  0  0  0  0  0
  -23.7020  -14.1300   21.0160 C   0  0  0  0  0  0  0  0  0  0  0  0
  -22.9440  -13.4990   21.9050 N   0  0  0  0  0  0  0  0  0  0  0  0
  -23.3450  -15.1930   20.5140 O   0  0  0  0  0  0  0  0  0  0  0  0
  -23.2460  -12.6360   22.3330 H   0  0  0  0  0  0  0  0  0  0  0  0
  -22.0460  -13.8860   22.1580 H   0  0  0  0  0  0  0  0  0  0  0  0
  -26.4550  -15.5570   20.1600 N   0  0  0  0  0  0  0  0  0  0  0  0
  -25.7480  -16.2720   20.2860 H   0  0  0  0  0  0  0  0  0  0  0  0
  -27.3050  -15.9220   19.7510 H   0  0  0  0  0  0  0  0  0  0  0  0
  -29.4730  -23.6130   20.2800 C   0  0  0  0  0  0  0  0  0  0  0  0
  -27.7820  -21.8080   20.3330 C   0  0  0  0  0  1  0  0  0  0  0  0
  -29.1790  -22.2430   20.2010 N   0  0  0  0  0  0  0  0  0  0  0  0
  -30.6250  -24.0260   20.1110 O   0  0  0  0  0  0  0  0  0  0  0  0
  -28.3170  -24.7010   20.5110 C   0  0  0  0  0  2  0  0  0  0  0  0
  -28.6230  -26.1760   20.6370 O   0  0  0  0  0  0  0  0  0  0  0  0
  -24.6800  -31.7420   23.2230 C   0  0  0  0  0  0  0  0  0  0  0  0
  -27.5220  -27.0630   20.4990 C   0  0  0  0  0  0  0  0  0  0  0  0
  -23.5890  -30.2400   21.6020 C   0  0  0  0  0  3  0  0  0  0  0  0
  -25.1380  -28.6670   20.3150 C   0  0  0  0  0  0  0  0  0  0  0  0
  -26.1360  -30.5970   21.5270 C   0  0  0  0  0  2  0  0  0  0  0  0
  -26.2750  -29.1910   20.9410 C   0  0  0  0  0  0  0  0  0  0  0  0
  -27.4730  -28.4030   21.0180 C   0  0  0  0  0  3  0  0  0  0  0  0
  -26.3500  -26.6150   19.8390 C   0  0  0  0  0  3  0  0  0  0  0  0
  -25.1810  -27.3870   19.7550 C   0  0  0  0  0  3  0  0  0  0  0  0
  -23.8840  -29.5160   20.2650 C   0  0  0  0  0  2  0  0  0  0  0  0
  -24.8180  -30.8810   22.1730 N   0  0  0  0  0  0  0  0  0  0  0  0
  -23.5650  -32.0190   23.6890 O   0  0  0  0  0  0  0  0  0  0  0  0
  -22.9040  -29.2500   22.5750 C   0  0  0  0  0  0  0  0  0  0  0  0
  -21.5890  -29.0370   22.4010 N   0  0  0  0  0  0  0  0  0  0  0  0
  -23.5600  -28.6760   23.4480 O   0  0  0  0  0  0  0  0  0  0  0  0
  -21.1190  -29.5530   21.6710 H   0  0  0  0  0  0  0  0  0  0  0  0
  -18.2160  -27.7870   22.8140 C   0  0  0  0  0  0  0  0  0  0  0  0
  -20.7540  -28.1170   23.1780 C   0  0  0  0  0  3  0  0  0  0  0  0
  -20.9110  -26.6640   22.6760 C   0  0  0  0  0  2  0  0  0  0  0  0
  -19.8600  -26.2700   21.6320 C   0  0  0  0  0  2  0  0  0  0  0  0
  -18.4490  -26.4130   22.2100 C   0  0  0  0  0  2  0  0  0  0  0  0
  -19.3000  -28.5940   23.2540 C   0  0  0  0  0  0  0  0  0  0  0  0
  -19.0290  -29.8770   23.7770 C   0  0  0  0  0  3  0  0  0  0  0  0
  -17.7080  -30.3540   23.8680 C   0  0  0  0  0  3  0  0  0  0  0  0
  -16.6380  -29.5460   23.4420 C   0  0  0  0  0  3  0  0  0  0  0  0
  -16.8930  -28.2650   22.9220 C   0  0  0  0  0  3  0  0  0  0  0  0
  -25.9160  -32.4390   23.8720 C   0  0  0  0  0  3  0  0  0  0  0  0
  -26.4230  -31.7080   25.1750 C   0  0  1  0  0  0  0  0  0  0  0  0
  -25.3030  -31.4230   26.2020 C   0  0  0  0  0  1  0  0  0  0  0  0
  -27.0960  -30.3610   24.8240 C   0  0  0  0  0  1  0  0  0  0  0  0
  -27.5030  -32.5710   25.8700 C   0  0  0  0  0  1  0  0  0  0  0  0
  -25.5350  -33.8270   24.1760 N   0  0  0  0  0  0  0  0  0  0  0  0
  -25.8830  -34.8900   23.4380 C   0  0  0  0  0  0  0  0  0  0  0  0
  -26.6250  -34.8080   22.4560 O   0  0  0  0  0  0  0  0  0  0  0  0
  -24.8870  -33.9630   24.9370 H   0  0  0  0  0  0  0  0  0  0  0  0
  -24.1300  -36.6270   22.9530 C   0  0  0  0  0  1  0  0  0  0  0  0
  -25.3200  -36.2620   23.8570 C   0  0  0  0  0  3  0  0  0  0  0  0
  -27.3600  -37.2090   24.8400 C   0  0  0  0  0  1  0  0  0  0  0  0
  -26.3250  -37.3470   23.8190 N   0  0  0  0  0  0  0  0  0  0  0  0
  -25.8820  -38.2540   23.9380 H   0  0  0  0  0  0  0  0  0  0  0  0
  1 50  1  0
  1  4  1  0
  2  4  2  0
  2  5  1  0
  3  6  1  0
  4  7  1  0
  5  3  2  0
  6  8  1  0
  7  9  1  0
  7  6  2  0
 11 16  1  0
 12 13  1  0
 12 11  1  0
 14 13  1  0
 14 23  1  0
 14 15  1  0
 16 10  1  0
 16 15  1  0
 17 10  2  0
 18 10  1  0
 18  5  1  0
 19 18  1  0
 20 21  2  0
 21 40  1  0
 22 21  1  0
 22 25  1  0
 23 24  1  0
 23 20  1  0
 24 22  2  0
 25 26  1  0
 26 27  2  0
 28 31  1  0
 28 27  1  0
 29 28  2  0
 30 29  1  0
 30 25  2  0
 31 32  1  0
 32 37  2  0
 32 33  1  0
 33 34  2  0
 35 34  1  0
 35 39  1  0
 36 35  2  0
 37 36  1  0
 38 37  1  0
 40 41  1  0
 41 44  1  0
 41 43  1  0
 42 40  2  0
 45 46  1  0
 45 20  1  0
 47 45  1  0
 48 52  1  0
 50 48  1  0
 50 49  1  0
 51 48  2  0
 52 53  1  0
 54 65  2  0
 55 53  1  0
 55 60  1  0
 56 64  1  0
 56 66  1  0
 57 59  1  0
 58 64  1  0
 59 60  2  0
 59 58  1  0
 61 55  2  0
 62 61  1  0
 62 57  2  0
 63 57  1  0
 63 56  1  0
 64 54  1  0
 66 68  2  0
 67 66  1  0
 69 67  1  0
 70 79  2  0
 70 75  1  0
 71 67  1  0
 71 75  1  0
 72 71  1  0
 73 74  1  0
 73 72  1  0
 74 70  1  0
 75 76  2  0
 76 77  1  0
 78 77  2  0
 79 78  1  0
 80 54  1  0
 80 85  1  0
 80 81  1  0
 81 84  1  1
 81 82  1  0
 83 81  1  0
 85 88  1  0
 86 90  1  0
 86 85  1  0
 87 86  2  0
 90 89  1  0
 92 90  1  0
 92 93  1  0
 92 91  1  0
M  ISO  4  10 100  18 100  52 101  53 101
M  END
>  <TORSDO>  (48) 
F 19

>  <SCORE>  (48) 
-13.125

>  <name>  (48) 
47

>  <ligand_id>  (48) 
47

>  <original_smiles>  (48) 
[H]c1c([H])c([H])c2c(c1[H])C([H])([H])C([H])([H])C([H])([H])C2([H])N([H])C(=O)C1([H])N(C(=O)C([H])(N([H])C(=O)C([H])(N([H])C([H])([H])[H])C([H])([H])[H])C(C([H])([H])[H])(C([H])([H])[H])C([H])([H])[H])C([H])([H])c2c([H])c(OC([H])([H])C(=O)N(C([H])([H])[H])C([H])([H])c3c([H])c(N([H])C(=O)N4C([H])([H])C([H])([H])C([H])([H])C([H])(n5nc(-c6c([H])c([H])c(Oc7c([H])c([H])c(F)c([H])c7F)c([H])c6[H])c(C(=O)N([H])[H])c5N([H])[H])C4([H])[H])c([H])c(F)c3F)c([H])c([H])c2C1([H])[H]

>  <smiles>  (48) 
[H]c1c([H])c([H])c2c(c1[H])C([H])([H])C([H])([H])C([H])([H])C2([H])N([H])C(=O)C1([H])N(C(=O)C([H])(N([H])C(=O)C([H])(N([H])C([H])([H])[H])C([H])([H])[H])C(C([H])([H])[H])(C([H])([H])[H])C([H])([H])[H])C([H])([H])c2c([H])c(OC([H])([H])C(=O)N(C([H])([H])[H])C([H])([H])c3c([H])c(N([H])C(=O)N4C([H])([H])C([H])([H])C([H])([H])C([H])(n5nc(-c6c([H])c([H])c(Oc7c([H])c([H])c(F)c([H])c7F)c([H])c6[H])c(C(=O)N([H])[H])c5N([H])[H])C4([H])[H])c([H])c(F)c3F)c([H])c([H])c2C1([H])[H]

$$$$
48:0:0
     RDKit          3D

 96105  0  0  1  0  0  0  0  0999 V2000
  -30.0350  -22.7120   21.2840 C   0  0  0  0  0  0  0  0  0  0  0  0
  -30.7320  -22.3560   22.3760 C   0  0  0  0  0  2  0  0  0  0  0  0
  -29.3680  -24.0750   21.0720 C   0  0  0  0  0  2  0  0  0  0  0  0
  -30.1520  -23.7820   18.6490 C   0  0  0  0  0  2  0  0  0  0  0  0
  -29.4090  -22.4570   18.8540 C   0  0  0  0  0  2  0  0  0  0  0  0
  -29.7570  -24.7890   19.7460 C   0  0  0  0  0  3  0  0  0  0  0  0
  -29.8950  -21.7930   20.0950 N   0  0  2  0  0  4  0  0  0  0  0  0
  -30.8310  -21.4910   19.8680 H   0  0  0  0  0  0  0  0  0  0  0  0
  -29.2030  -20.5010   20.3560 C   0  0  0  0  0  2  0  0  0  0  0  0
  -30.8600  -19.3930   18.7280 C   0  0  0  0  0  3  0  0  0  0  0  0
  -31.4570  -18.2520   18.1850 C   0  0  0  0  0  3  0  0  0  0  0  0
  -29.7220  -18.0010   20.3650 C   0  0  0  0  0  3  0  0  0  0  0  0
  -29.9540  -19.2820   19.8070 C   0  0  0  0  0  0  0  0  0  0  0  0
  -31.1890  -16.9730   18.7050 C   0  0  0  0  0  0  0  0  0  0  0  0
  -30.3400  -16.8350   19.8510 C   0  0  0  0  0  0  0  0  0  0  0  0
  -31.8200  -15.8230   17.9370 C   0  0  0  0  0  1  0  0  0  0  0  0
  -30.7430  -14.4950   20.6370 C   0  0  0  0  0  0  0  0  0  0  0  0
  -30.4650  -12.2740   19.6730 C   0  0  0  0  0  2  0  0  0  0  0  0
  -29.5880  -12.4200   18.4100 C   0  0  0  0  0  2  0  0  0  0  0  0
  -28.0940  -12.3290   18.7660 C   0  0  0  0  0  2  0  0  0  0  0  0
  -27.6960  -13.2300   19.9660 C   0  0  0  0  0  3  0  0  0  0  0  0
  -28.7000  -13.1000   21.1340 C   0  0  0  0  0  2  0  0  0  0  0  0
  -30.0540  -13.3280   20.6060 N   0  0  0  0  0  0  0  0  0  0  0  0
  -31.9670  -14.5580   20.5290 O   0  0  0  0  0  0  0  0  0  0  0  0
  -29.9820  -15.5910   20.4690 N   0  0  0  0  0  0  0  0  0  0  0  0
  -29.0120  -15.4780   20.7150 H   0  0  0  0  0  0  0  0  0  0  0  0
  -25.2650  -13.8460   20.5460 C   0  0  0  0  0  0  0  0  0  0  0  0
  -24.1810  -13.0770   20.8770 C   0  0  0  0  0  0  0  0  0  0  0  0
  -24.6470  -11.7270   20.9050 C   0  0  0  0  0  0  0  0  0  0  0  0
  -26.3230  -12.9630   20.3920 N   0  0  0  0  0  0  0  0  0  0  0  0
  -25.9520  -11.6870   20.6690 N   0  0  0  0  0  0  0  0  0  0  0  0
  -23.9160  -10.4670   21.0820 C   0  0  0  0  0  0  0  0  0  0  0  0
  -24.3170   -9.5080   22.0380 C   0  0  0  0  0  3  0  0  0  0  0  0
  -23.5860   -8.3120   22.2040 C   0  0  0  0  0  3  0  0  0  0  0  0
  -22.4370   -8.0680   21.4140 C   0  0  0  0  0  0  0  0  0  0  0  0
  -22.0550   -9.0140   20.4470 C   0  0  0  0  0  3  0  0  0  0  0  0
  -22.7880  -10.2010   20.2800 C   0  0  0  0  0  3  0  0  0  0  0  0
  -21.6800   -6.9230   21.4880 O   0  0  0  0  0  0  0  0  0  0  0  0
  -21.6110   -6.1800   22.6390 C   0  0  0  0  0  0  0  0  0  0  0  0
  -21.1820   -6.7390   23.8630 C   0  0  0  0  0  3  0  0  0  0  0  0
  -21.0560   -5.9210   25.0040 C   0  0  0  0  0  3  0  0  0  0  0  0
  -21.3520   -4.5480   24.9240 C   0  0  0  0  0  0  0  0  0  0  0  0
  -21.7780   -3.9890   23.7060 C   0  0  0  0  0  3  0  0  0  0  0  0
  -21.9030   -4.8030   22.5660 C   0  0  0  0  0  0  0  0  0  0  0  0
  -22.2930   -4.2550   21.3890 F   0  0  0  0  0  0  0  0  0  0  0  0
  -21.2270   -3.7620   26.0180 F   0  0  0  0  0  0  0  0  0  0  0  0
  -22.7690  -13.5550   21.0610 C   0  0  0  0  0  0  0  0  0  0  0  0
  -21.9960  -12.8790   21.9050 N   0  0  0  0  0  0  0  0  0  0  0  0
  -22.3570  -14.5650   20.4930 O   0  0  0  0  0  0  0  0  0  0  0  0
  -22.3370  -12.0640   22.3920 H   0  0  0  0  0  0  0  0  0  0  0  0
  -21.0460  -13.1830   22.0700 H   0  0  0  0  0  0  0  0  0  0  0  0
  -25.4350  -15.2120   20.3410 N   0  0  0  0  0  0  0  0  0  0  0  0
  -24.6610  -15.8650   20.3880 H   0  0  0  0  0  0  0  0  0  0  0  0
  -26.2940  -15.6400   20.0200 H   0  0  0  0  0  0  0  0  0  0  0  0
  -28.6080  -25.6820   19.2500 C   0  0  0  0  0  2  0  0  0  0  0  0
  -28.4260  -26.7820   20.1340 O   0  0  0  0  0  0  0  0  0  0  0  0
  -24.6060  -31.8850   23.2300 C   0  0  0  0  0  0  0  0  0  0  0  0
  -27.2310  -27.4680   20.1070 C   0  0  0  0  0  0  0  0  0  0  0  0
  -23.3890  -30.4880   21.5920 C   0  0  0  0  0  3  0  0  0  0  0  0
  -24.8310  -28.9640   20.1520 C   0  0  0  0  0  0  0  0  0  0  0  0
  -25.9110  -30.8510   21.3770 C   0  0  0  0  0  2  0  0  0  0  0  0
  -25.9910  -29.4840   20.7370 C   0  0  0  0  0  0  0  0  0  0  0  0
  -27.1890  -28.7390   20.7220 C   0  0  0  0  0  3  0  0  0  0  0  0
  -26.0460  -26.9620   19.5160 C   0  0  0  0  0  3  0  0  0  0  0  0
  -24.8520  -27.7000   19.5440 C   0  0  0  0  0  3  0  0  0  0  0  0
  -23.5880  -29.8180   20.2080 C   0  0  0  0  0  2  0  0  0  0  0  0
  -24.6530  -31.0900   22.1250 N   0  0  0  0  0  0  0  0  0  0  0  0
  -23.5290  -32.1540   23.7790 O   0  0  0  0  0  0  0  0  0  0  0  0
  -22.7480  -29.4600   22.5530 C   0  0  0  0  0  0  0  0  0  0  0  0
  -21.4230  -29.2770   22.4350 N   0  0  0  0  0  0  0  0  0  0  0  0
  -23.4390  -28.8300   23.3580 O   0  0  0  0  0  0  0  0  0  0  0  0
  -20.9270  -29.8360   21.7550 H   0  0  0  0  0  0  0  0  0  0  0  0
  -18.0520  -28.0840   22.9470 C   0  0  0  0  0  0  0  0  0  0  0  0
  -20.6110  -28.3370   23.2080 C   0  0  0  0  0  3  0  0  0  0  0  0
  -20.7100  -26.9080   22.6260 C   0  0  0  0  0  2  0  0  0  0  0  0
  -19.6020  -26.5880   21.6170 C   0  0  0  0  0  2  0  0  0  0  0  0
  -18.2240  -26.7340   22.2690 C   0  0  0  0  0  2  0  0  0  0  0  0
  -19.1740  -28.8430   23.3740 C   0  0  0  0  0  0  0  0  0  0  0  0
  -18.9600  -30.1050   23.9680 C   0  0  0  0  0  3  0  0  0  0  0  0
  -17.6570  -30.6090   24.1400 C   0  0  0  0  0  3  0  0  0  0  0  0
  -16.5490  -29.8470   23.7310 C   0  0  0  0  0  3  0  0  0  0  0  0
  -16.7480  -28.5860   23.1400 C   0  0  0  0  0  3  0  0  0  0  0  0
  -25.8960  -32.5140   23.8410 C   0  0  0  0  0  3  0  0  0  0  0  0
  -26.4280  -31.7350   25.1060 C   0  0  1  0  0  0  0  0  0  0  0  0
  -25.3480  -31.4860   26.1830 C   0  0  0  0  0  1  0  0  0  0  0  0
  -27.0070  -30.3620   24.6910 C   0  0  0  0  0  1  0  0  0  0  0  0
  -27.5870  -32.5260   25.7590 C   0  0  0  0  0  1  0  0  0  0  0  0
  -25.5900  -33.9090   24.1800 N   0  0  0  0  0  0  0  0  0  0  0  0
  -25.9170  -34.9650   23.4220 C   0  0  0  0  0  0  0  0  0  0  0  0
  -26.5800  -34.8660   22.3860 O   0  0  0  0  0  0  0  0  0  0  0  0
  -25.0000  -34.0610   24.9860 H   0  0  0  0  0  0  0  0  0  0  0  0
  -24.1870  -36.7560   23.0790 C   0  0  0  0  0  1  0  0  0  0  0  0
  -25.4300  -36.3500   23.8880 C   0  0  0  0  0  3  0  0  0  0  0  0
  -27.5660  -37.2290   24.7170 C   0  0  0  0  0  1  0  0  0  0  0  0
  -26.4610  -37.4050   23.7790 N   0  0  0  0  0  0  0  0  0  0  0  0
  -26.0550  -38.3230   23.9340 H   0  0  0  0  0  0  0  0  0  0  0  0
  1  2  2  0
  3  1  1  0
  4  5  1  0
  4  6  1  0
  5  7  1  0
  6 55  1  0
  6  3  1  0
  7  9  1  0
  7  1  1  0
  7  8  1  6
 10 13  1  0
 11 14  1  0
 11 10  2  0
 13  9  1  0
 13 12  2  0
 14 15  2  0
 15 12  1  0
 15 25  1  0
 16 14  1  0
 18 23  1  0
 19 20  1  0
 19 18  1  0
 21 20  1  0
 21 30  1  0
 21 22  1  0
 23 17  1  0
 23 22  1  0
 24 17  2  0
 25 17  1  0
 25 26  1  0
 27 28  2  0
 28 29  1  0
 28 47  1  0
 29 32  1  0
 30 27  1  0
 30 31  1  0
 31 29  2  0
 32 33  1  0
 33 34  2  0
 35 38  1  0
 35 34  1  0
 36 35  2  0
 37 36  1  0
 37 32  2  0
 38 39  1  0
 39 40  1  0
 40 41  2  0
 42 41  1  0
 42 46  1  0
 43 42  2  0
 44 39  2  0
 44 43  1  0
 45 44  1  0
 47 48  1  0
 48 51  1  0
 48 50  1  0
 49 47  2  0
 52 53  1  0
 52 27  1  0
 54 52  1  0
 55 56  1  0
 57 68  2  0
 58 56  1  0
 58 63  1  0
 59 67  1  0
 59 69  1  0
 60 66  1  0
 60 62  1  0
 61 67  1  0
 62 61  1  0
 63 62  2  0
 64 65  1  0
 64 58  2  0
 65 60  2  0
 66 59  1  0
 67 57  1  0
 69 71  2  0
 70 69  1  0
 72 70  1  0
 73 82  2  0
 73 78  1  0
 74 70  1  0
 74 78  1  0
 75 74  1  0
 76 77  1  0
 76 75  1  0
 77 73  1  0
 78 79  2  0
 79 80  1  0
 81 80  2  0
 82 81  1  0
 83 57  1  0
 83 88  1  0
 83 84  1  0
 84 87  1  1
 84 85  1  0
 86 84  1  0
 88 91  1  0
 89 93  1  0
 89 88  1  0
 90 89  2  0
 93 92  1  0
 95 93  1  0
 95 96  1  0
 95 94  1  0
M  ISO  4  17 100  25 100  55 101  56 101
M  END
>  <TORSDO>  (49) 
F 19

>  <SCORE>  (49) 
-14.341

>  <name>  (49) 
48

>  <ligand_id>  (49) 
48

>  <original_smiles>  (49) 
[H]C([H])=C1C([H])([H])C([H])(C([H])([H])Oc2c([H])c([H])c3c(c2[H])C([H])([H])N(C(=O)C([H])(N([H])C(=O)C([H])(N([H])C([H])([H])[H])C([H])([H])[H])C(C([H])([H])[H])(C([H])([H])[H])C([H])([H])[H])C([H])(C(=O)N([H])C2([H])c4c([H])c([H])c([H])c([H])c4C([H])([H])C([H])([H])C2([H])[H])C3([H])[H])C([H])([H])C([H])([H])[N+]1([H])C([H])([H])c1c([H])c([H])c(C([H])([H])[H])c(N([H])C(=O)N2C([H])([H])C([H])([H])C([H])([H])C([H])(n3nc(-c4c([H])c([H])c(Oc5c([H])c([H])c(F)c([H])c5F)c([H])c4[H])c(C(=O)N([H])[H])c3N([H])[H])C2([H])[H])c1[H]

>  <smiles>  (49) 
[H]C([H])=C1C([H])([H])C([H])(C([H])([H])Oc2c([H])c([H])c3c(c2[H])C([H])([H])N(C(=O)C([H])(N([H])C(=O)C([H])(N([H])C([H])([H])[H])C([H])([H])[H])C(C([H])([H])[H])(C([H])([H])[H])C([H])([H])[H])C([H])(C(=O)N([H])C2([H])c4c([H])c([H])c([H])c([H])c4C([H])([H])C([H])([H])C2([H])[H])C3([H])[H])C([H])([H])C([H])([H])[N+]1([H])C([H])([H])c1c([H])c([H])c(C([H])([H])[H])c(N([H])C(=O)N2C([H])([H])C([H])([H])C([H])([H])C([H])(n3nc(-c4c([H])c([H])c(Oc5c([H])c([H])c(F)c([H])c5F)c([H])c4[H])c(C(=O)N([H])[H])c3N([H])[H])C2([H])[H])c1[H]

$$$$
49:0:0
     RDKit          3D

 96104  0  0  1  0  0  0  0  0999 V2000
  -39.8800  -21.5730   14.1840 C   0  0  0  0  0  3  0  0  0  0  0  0
  -39.2650  -22.5500   13.3770 C   0  0  0  0  0  3  0  0  0  0  0  0
  -41.2750  -21.5870   14.4090 C   0  0  0  0  0  0  0  0  0  0  0  0
  -42.0650  -22.6090   13.8100 C   0  0  0  0  0  0  0  0  0  0  0  0
  -41.4480  -23.5940   12.9840 C   0  0  0  0  0  0  0  0  0  0  0  0
  -40.0400  -23.5630   12.7750 C   0  0  0  0  0  0  0  0  0  0  0  0
  -43.5660  -22.6860   14.0800 C   0  0  0  0  0  1  0  0  0  0  0  0
  -42.2750  -24.6950   12.3170 C   0  0  0  0  0  1  0  0  0  0  0  0
  -37.8280  -24.9470   12.1400 O   0  0  0  0  0  0  0  0  0  0  0  0
  -40.0910  -26.0380   11.7450 O   0  0  0  0  0  0  0  0  0  0  0  0
  -39.2390  -24.8340   11.7480 S   0  0  1  0  0  0  0  0  0  0  0  0
  -39.2350  -24.2530   10.1300 N   0  0  0  0  0  0  0  0  0  0  0  0
  -39.2290  -23.2310   10.1390 H   0  0  0  0  0  0  0  0  0  0  0  0
  -38.2440  -24.7990    9.1820 C   0  0  0  0  0  2  0  0  0  0  0  0
  -36.8030  -24.3490    9.4940 C   0  0  0  0  0  2  0  0  0  0  0  0
  -36.7870  -22.9430    9.7520 O   0  0  0  0  0  0  0  0  0  0  0  0
  -31.4740  -24.6660   14.1430 C   0  0  0  0  0  0  0  0  0  0  0  0
  -35.8550  -22.4740   10.6560 C   0  0  0  0  0  0  0  0  0  0  0  0
  -32.3270  -22.3530   14.3500 C   0  0  0  0  0  3  0  0  0  0  0  0
  -33.9030  -21.5850   12.5000 C   0  0  0  0  0  0  0  0  0  0  0  0
  -32.4750  -23.6020   12.1210 C   0  0  0  0  0  2  0  0  0  0  0  0
  -33.7250  -22.7990   11.8250 C   0  0  0  0  0  0  0  0  0  0  0  0
  -34.6950  -23.2430   10.9000 C   0  0  0  0  0  3  0  0  0  0  0  0
  -36.0170  -21.2470   11.3420 C   0  0  0  0  0  3  0  0  0  0  0  0
  -35.0480  -20.8050   12.2630 C   0  0  0  0  0  3  0  0  0  0  0  0
  -32.8180  -21.1740   13.4670 C   0  0  0  0  0  2  0  0  0  0  0  0
  -32.0910  -23.6030   13.5540 N   0  0  0  0  0  0  0  0  0  0  0  0
  -31.0660  -24.6030   15.3110 O   0  0  0  0  0  0  0  0  0  0  0  0
  -33.3220  -22.5470   15.5150 C   0  0  0  0  0  0  0  0  0  0  0  0
  -33.9490  -21.4430   15.9540 N   0  0  0  0  0  0  0  0  0  0  0  0
  -33.5340  -23.6670   15.9870 O   0  0  0  0  0  0  0  0  0  0  0  0
  -33.7120  -20.5600   15.5230 H   0  0  0  0  0  0  0  0  0  0  0  0
  -36.6730  -19.4760   17.2820 C   0  0  0  0  0  0  0  0  0  0  0  0
  -34.9550  -21.3890   17.0130 C   0  0  0  0  0  3  0  0  0  0  0  0
  -36.1660  -22.2920   16.6810 C   0  0  0  0  0  2  0  0  0  0  0  0
  -37.2980  -21.5460   15.9660 C   0  0  0  0  0  2  0  0  0  0  0  0
  -37.8030  -20.3840   16.8270 C   0  0  0  0  0  2  0  0  0  0  0  0
  -35.3340  -19.9430   17.3550 C   0  0  0  0  0  0  0  0  0  0  0  0
  -34.3190  -19.0460   17.7500 C   0  0  0  0  0  3  0  0  0  0  0  0
  -34.6230  -17.7090   18.0710 C   0  0  0  0  0  3  0  0  0  0  0  0
  -35.9530  -17.2570   18.0120 C   0  0  0  0  0  3  0  0  0  0  0  0
  -36.9740  -18.1410   17.6220 C   0  0  0  0  0  3  0  0  0  0  0  0
  -31.2280  -26.0010   13.3710 C   0  0  0  0  0  3  0  0  0  0  0  0
  -29.8200  -26.3740   13.5680 N   0  0  0  0  0  0  0  0  0  0  0  0
  -28.8660  -26.2520   12.6360 C   0  0  0  0  0  0  0  0  0  0  0  0
  -29.0970  -25.8770   11.4830 O   0  0  0  0  0  0  0  0  0  0  0  0
  -29.5480  -26.6400   14.5020 H   0  0  0  0  0  0  0  0  0  0  0  0
  -26.6390  -25.3120   13.3360 C   0  0  0  0  0  1  0  0  0  0  0  0
  -27.4240  -26.6030   13.0500 C   0  0  0  0  0  3  0  0  0  0  0  0
  -27.1400  -28.8040   11.9970 C   0  0  0  0  0  1  0  0  0  0  0  0
  -26.7020  -27.4110   12.0440 N   0  0  0  0  0  0  0  0  0  0  0  0
  -25.7020  -27.3990   12.2250 H   0  0  0  0  0  0  0  0  0  0  0  0
  -32.1830  -27.1700   13.8310 C   0  0  1  0  0  0  0  0  0  0  0  0
  -32.2190  -27.3790   15.3610 C   0  0  0  0  0  1  0  0  0  0  0  0
  -33.6300  -26.9070   13.3550 C   0  0  0  0  0  1  0  0  0  0  0  0
  -31.7360  -28.5020   13.1830 C   0  0  0  0  0  1  0  0  0  0  0  0
  -41.8710  -20.5320   15.3690 C   0  0  0  0  0  2  0  0  0  0  0  0
  -41.0080  -21.7260   17.3510 C   0  0  0  0  0  0  0  0  0  0  0  0
  -40.0890  -22.5290   19.5000 C   0  0  0  0  0  2  0  0  0  0  0  0
  -41.2320  -23.0510   20.3920 C   0  0  0  0  0  2  0  0  0  0  0  0
  -41.8180  -21.8990   21.2340 C   0  0  0  0  0  2  0  0  0  0  0  0
  -42.1680  -20.6500   20.3850 C   0  0  0  0  0  3  0  0  0  0  0  0
  -41.0060  -20.2770   19.4310 C   0  0  0  0  0  2  0  0  0  0  0  0
  -40.6510  -21.4700   18.6450 N   0  0  0  0  0  0  0  0  0  0  0  0
  -40.5330  -22.6740   16.7210 O   0  0  0  0  0  0  0  0  0  0  0  0
  -41.9790  -20.9480   16.7920 N   0  0  0  0  0  0  0  0  0  0  0  0
  -43.0000  -18.2510   20.8090 C   0  0  0  0  0  0  0  0  0  0  0  0
  -43.3720  -17.6070   21.9590 C   0  0  0  0  0  0  0  0  0  0  0  0
  -43.1710  -18.5450   23.0170 C   0  0  0  0  0  0  0  0  0  0  0  0
  -42.5960  -19.5210   21.2020 N   0  0  0  0  0  0  0  0  0  0  0  0
  -42.6500  -19.6700   22.5480 N   0  0  0  0  0  0  0  0  0  0  0  0
  -43.5030  -18.4640   24.4440 C   0  0  0  0  0  0  0  0  0  0  0  0
  -42.5170  -18.1880   25.4160 C   0  0  0  0  0  3  0  0  0  0  0  0
  -42.8640  -18.0940   26.7810 C   0  0  0  0  0  3  0  0  0  0  0  0
  -44.2070  -18.2770   27.1850 C   0  0  0  0  0  0  0  0  0  0  0  0
  -45.1810  -18.5770   26.2170 C   0  0  0  0  0  3  0  0  0  0  0  0
  -44.8330  -18.6740   24.8580 C   0  0  0  0  0  3  0  0  0  0  0  0
  -44.6310  -18.2330   28.4910 O   0  0  0  0  0  0  0  0  0  0  0  0
  -44.3920  -17.1420   29.2880 C   0  0  0  0  0  0  0  0  0  0  0  0
  -45.1820  -15.9750   29.2090 C   0  0  0  0  0  3  0  0  0  0  0  0
  -44.9450  -14.9030   30.0920 C   0  0  0  0  0  3  0  0  0  0  0  0
  -43.9270  -15.0010   31.0600 C   0  0  0  0  0  0  0  0  0  0  0  0
  -43.1440  -16.1640   31.1440 C   0  0  0  0  0  3  0  0  0  0  0  0
  -43.3770  -17.2330   30.2620 C   0  0  0  0  0  0  0  0  0  0  0  0
  -42.6320  -18.3600   30.3600 F   0  0  0  0  0  0  0  0  0  0  0  0
  -43.7050  -13.9740   31.9150 F   0  0  0  0  0  0  0  0  0  0  0  0
  -43.9790  -16.2370   22.0620 C   0  0  0  0  0  0  0  0  0  0  0  0
  -43.7970  -15.5700   23.1970 N   0  0  0  0  0  0  0  0  0  0  0  0
  -44.5820  -15.7320   21.1170 O   0  0  0  0  0  0  0  0  0  0  0  0
  -43.2830  -15.9700   23.9690 H   0  0  0  0  0  0  0  0  0  0  0  0
  -44.1740  -14.6380   23.2950 H   0  0  0  0  0  0  0  0  0  0  0  0
  -43.0030  -17.8720   19.4700 N   0  0  0  0  0  0  0  0  0  0  0  0
  -43.3970  -16.9870   19.1680 H   0  0  0  0  0  0  0  0  0  0  0  0
  -42.8400  -18.5090   18.7020 H   0  0  0  0  0  0  0  0  0  0  0  0
  -44.0670  -22.0630   17.4320 C   0  0  0  0  0  2  0  0  0  0  0  0
  -43.2880  -20.9730   17.3060 C   0  0  0  0  0  3  0  0  0  0  0  0
  1  3  1  0
  2  1  2  0
  3 57  1  0
  4  7  1  0
  4  3  2  0
  5  4  1  0
  6  5  2  0
  6  2  1  0
  8  5  1  0
 10 11  2  0
 11  9  2  0
 11  6  1  0
 12 13  1  0
 11 12  1  6
 14 15  1  0
 14 12  1  0
 15 16  1  0
 16 18  1  0
 17 28  2  0
 18 23  2  0
 18 24  1  0
 19 29  1  0
 20 26  1  0
 21 27  1  0
 22 21  1  0
 22 20  2  0
 23 22  1  0
 24 25  2  0
 25 20  1  0
 26 19  1  0
 27 17  1  0
 27 19  1  0
 29 30  1  0
 29 31  2  0
 32 30  1  0
 33 38  2  0
 33 42  1  0
 34 30  1  0
 34 38  1  0
 35 34  1  0
 36 35  1  0
 36 37  1  0
 37 33  1  0
 38 39  1  0
 39 40  2  0
 41 40  1  0
 42 41  2  0
 43 44  1  0
 43 53  1  0
 43 17  1  0
 44 47  1  0
 45 49  1  0
 45 44  1  0
 46 45  2  0
 49 48  1  0
 50 51  1  0
 51 52  1  0
 51 49  1  0
 53 54  1  1
 55 53  1  0
 56 53  1  0
 57 66  1  0
 58 64  1  0
 59 60  1  0
 60 61  1  0
 62 63  1  0
 62 70  1  0
 62 61  1  0
 64 63  1  0
 64 59  1  0
 65 58  2  0
 66 96  1  0
 66 58  1  0
 67 70  1  0
 67 68  2  0
 68 87  1  0
 68 69  1  0
 69 72  1  0
 70 71  1  0
 71 69  2  0
 72 77  2  0
 72 73  1  0
 73 74  2  0
 74 75  1  0
 75 78  1  0
 76 75  2  0
 77 76  1  0
 78 79  1  0
 79 84  1  0
 80 79  2  0
 80 81  1  0
 81 82  2  0
 82 83  1  0
 82 86  1  0
 84 85  1  0
 84 83  2  0
 87 88  1  0
 88 91  1  0
 88 90  1  0
 89 87  2  0
 92 67  1  0
 93 92  1  0
 94 92  1  0
 96 95  2  0
M  ISO  4  15 101  16 101  58 100  66 100
M  END
>  <TORSDO>  (50) 
F 22

>  <SCORE>  (50) 
5.990

>  <name>  (50) 
49

>  <ligand_id>  (50) 
49

>  <original_smiles>  (50) 
[H]C([H])=C([H])N(C(=O)N1C([H])([H])C([H])([H])C([H])([H])C([H])(n2nc(-c3c([H])c([H])c(Oc4c([H])c([H])c(F)c([H])c4F)c([H])c3[H])c(C(=O)N([H])[H])c2N([H])[H])C1([H])[H])C([H])([H])c1c([H])c([H])c(S(=O)(=O)N([H])C([H])([H])C([H])([H])Oc2c([H])c([H])c3c(c2[H])C([H])([H])N(C(=O)C([H])(N([H])C(=O)C([H])(N([H])C([H])([H])[H])C([H])([H])[H])C(C([H])([H])[H])(C([H])([H])[H])C([H])([H])[H])C([H])(C(=O)N([H])C2([H])c4c([H])c([H])c([H])c([H])c4C([H])([H])C([H])([H])C2([H])[H])C3([H])[H])c(C([H])([H])[H])c1C([H])([H])[H]

>  <smiles>  (50) 
[H]C([H])=C([H])N(C(=O)N1C([H])([H])C([H])([H])C([H])([H])C([H])(n2nc(-c3c([H])c([H])c(Oc4c([H])c([H])c(F)c([H])c4F)c([H])c3[H])c(C(=O)N([H])[H])c2N([H])[H])C1([H])[H])C([H])([H])c1c([H])c([H])c(S(=O)(=O)N([H])C([H])([H])C([H])([H])Oc2c([H])c([H])c3c(c2[H])C([H])([H])N(C(=O)C([H])(N([H])C(=O)C([H])(N([H])C([H])([H])[H])C([H])([H])[H])C(C([H])([H])[H])(C([H])([H])[H])C([H])([H])[H])C([H])(C(=O)N([H])C2([H])c4c([H])c([H])c([H])c([H])c4C([H])([H])C([H])([H])C2([H])[H])C3([H])[H])c(C([H])([H])[H])c1C([H])([H])[H]

$$$$
50:0:0
     RDKit          3D

 91 99  0  0  1  0  0  0  0  0999 V2000
  -28.5930  -23.7250   20.0050 C   0  0  0  0  0  0  0  0  0  0  0  0
  -28.4850  -22.3660   22.0680 C   0  0  0  0  0  1  0  0  0  0  0  0
  -28.6850  -22.4680   20.6210 N   0  0  0  0  0  0  0  0  0  0  0  0
  -28.8010  -23.8390   18.7930 O   0  0  0  0  0  0  0  0  0  0  0  0
  -28.7670  -21.1010   19.9180 C   0  0  0  0  0  2  0  0  0  0  0  0
  -31.6490  -19.0350   21.5590 C   0  0  0  0  0  3  0  0  0  0  0  0
  -30.8220  -20.0990   21.1390 C   0  0  0  0  0  3  0  0  0  0  0  0
  -31.3090  -17.6860   21.3210 C   0  0  0  0  0  3  0  0  0  0  0  0
  -29.2700  -18.4520   20.2460 C   0  0  0  0  0  3  0  0  0  0  0  0
  -29.6080  -19.8550   20.4650 C   0  0  0  0  0  0  0  0  0  0  0  0
  -30.1120  -17.3330   20.6570 C   0  0  0  0  0  0  0  0  0  0  0  0
  -30.5570  -14.7590   20.3530 C   0  0  0  0  0  0  0  0  0  0  0  0
  -30.3540  -12.4790   19.3410 C   0  0  0  0  0  2  0  0  0  0  0  0
  -29.4090  -12.5400   18.1220 C   0  0  0  0  0  2  0  0  0  0  0  0
  -27.9410  -12.3710   18.5600 C   0  0  0  0  0  2  0  0  0  0  0  0
  -27.5720  -13.2680   19.7720 C   0  0  0  0  0  3  0  0  0  0  0  0
  -28.6350  -13.1880   20.8880 C   0  0  0  0  0  2  0  0  0  0  0  0
  -29.9250  -13.5380   20.2820 N   0  0  0  0  0  0  0  0  0  0  0  0
  -31.7540  -14.8430   20.0570 O   0  0  0  0  0  0  0  0  0  0  0  0
  -29.7660  -15.8950   20.4920 N   0  0  0  0  0  0  0  0  0  0  0  0
  -28.7780  -15.6950   20.4900 H   0  0  0  0  0  0  0  0  0  0  0  0
  -25.1910  -13.8710   20.5090 C   0  0  0  0  0  0  0  0  0  0  0  0
  -24.1240  -13.1020   20.8850 C   0  0  0  0  0  0  0  0  0  0  0  0
  -24.5820  -11.7500   20.8570 C   0  0  0  0  0  0  0  0  0  0  0  0
  -26.2300  -12.9870   20.2700 N   0  0  0  0  0  0  0  0  0  0  0  0
  -25.8710  -11.7070   20.5440 N   0  0  0  0  0  0  0  0  0  0  0  0
  -23.8510  -10.4900   21.0510 C   0  0  0  0  0  0  0  0  0  0  0  0
  -24.2890   -9.5190   21.9780 C   0  0  0  0  0  3  0  0  0  0  0  0
  -23.5590   -8.3240   22.1600 C   0  0  0  0  0  3  0  0  0  0  0  0
  -22.3760   -8.0940   21.4170 C   0  0  0  0  0  0  0  0  0  0  0  0
  -21.9580   -9.0550   20.4800 C   0  0  0  0  0  3  0  0  0  0  0  0
  -22.6880  -10.2400   20.2950 C   0  0  0  0  0  3  0  0  0  0  0  0
  -21.6170   -6.9530   21.5110 O   0  0  0  0  0  0  0  0  0  0  0  0
  -21.5850   -6.2010   22.6580 C   0  0  0  0  0  0  0  0  0  0  0  0
  -21.1870   -6.7500   23.8970 C   0  0  0  0  0  3  0  0  0  0  0  0
  -21.1020   -5.9250   25.0360 C   0  0  0  0  0  3  0  0  0  0  0  0
  -21.4030   -4.5530   24.9390 C   0  0  0  0  0  0  0  0  0  0  0  0
  -21.7940   -4.0050   23.7050 C   0  0  0  0  0  3  0  0  0  0  0  0
  -21.8810   -4.8270   22.5660 C   0  0  0  0  0  0  0  0  0  0  0  0
  -22.2380   -4.2890   21.3750 F   0  0  0  0  0  0  0  0  0  0  0  0
  -21.3140   -3.7600   26.0310 F   0  0  0  0  0  0  0  0  0  0  0  0
  -22.7280  -13.5850   21.1570 C   0  0  0  0  0  0  0  0  0  0  0  0
  -22.0000  -12.8950   22.0270 N   0  0  0  0  0  0  0  0  0  0  0  0
  -22.2940  -14.6110   20.6350 O   0  0  0  0  0  0  0  0  0  0  0  0
  -22.3650  -12.0650   22.4720 H   0  0  0  0  0  0  0  0  0  0  0  0
  -21.0630  -13.2000   22.2520 H   0  0  0  0  0  0  0  0  0  0  0  0
  -25.3560  -15.2410   20.3250 N   0  0  0  0  0  0  0  0  0  0  0  0
  -24.5850  -15.8920   20.4310 H   0  0  0  0  0  0  0  0  0  0  0  0
  -26.1910  -15.6780   19.9570 H   0  0  0  0  0  0  0  0  0  0  0  0
  -28.1520  -25.0520   20.8040 C   0  0  0  0  0  2  0  0  0  0  0  0
  -28.3270  -26.4050   20.1660 O   0  0  0  0  0  0  0  0  0  0  0  0
  -24.6370  -31.8750   23.2310 C   0  0  0  0  0  0  0  0  0  0  0  0
  -27.2290  -27.2900   20.1690 C   0  0  0  0  0  0  0  0  0  0  0  0
  -23.4280  -30.4820   21.5890 C   0  0  0  0  0  3  0  0  0  0  0  0
  -24.8750  -28.9260   20.1570 C   0  0  0  0  0  0  0  0  0  0  0  0
  -25.9690  -30.7920   21.4010 C   0  0  0  0  0  2  0  0  0  0  0  0
  -26.0480  -29.4100   20.7520 C   0  0  0  0  0  0  0  0  0  0  0  0
  -27.2310  -28.6060   20.7410 C   0  0  0  0  0  3  0  0  0  0  0  0
  -26.0360  -26.8660   19.5500 C   0  0  0  0  0  3  0  0  0  0  0  0
  -24.8720  -27.6620   19.5450 C   0  0  0  0  0  3  0  0  0  0  0  0
  -23.6400  -29.8060   20.2080 C   0  0  0  0  0  2  0  0  0  0  0  0
  -24.6970  -31.0680   22.1300 N   0  0  0  0  0  0  0  0  0  0  0  0
  -23.5540  -32.1510   23.7690 O   0  0  0  0  0  0  0  0  0  0  0  0
  -22.7640  -29.4660   22.5500 C   0  0  0  0  0  0  0  0  0  0  0  0
  -21.4360  -29.2960   22.4310 N   0  0  0  0  0  0  0  0  0  0  0  0
  -23.4440  -28.8320   23.3620 O   0  0  0  0  0  0  0  0  0  0  0  0
  -20.9460  -29.8590   21.7500 H   0  0  0  0  0  0  0  0  0  0  0  0
  -18.0570  -28.1070   22.9430 C   0  0  0  0  0  0  0  0  0  0  0  0
  -20.6180  -28.3590   23.2020 C   0  0  0  0  0  3  0  0  0  0  0  0
  -20.7130  -26.9290   22.6210 C   0  0  0  0  0  2  0  0  0  0  0  0
  -19.6060  -26.6140   21.6100 C   0  0  0  0  0  2  0  0  0  0  0  0
  -18.2270  -26.7600   22.2610 C   0  0  0  0  0  2  0  0  0  0  0  0
  -19.1800  -28.8650   23.3700 C   0  0  0  0  0  0  0  0  0  0  0  0
  -18.9670  -30.1250   23.9680 C   0  0  0  0  0  3  0  0  0  0  0  0
  -17.6630  -30.6290   24.1420 C   0  0  0  0  0  3  0  0  0  0  0  0
  -16.5550  -29.8690   23.7300 C   0  0  0  0  0  3  0  0  0  0  0  0
  -16.7530  -28.6090   23.1360 C   0  0  0  0  0  3  0  0  0  0  0  0
  -25.9200  -32.5050   23.8530 C   0  0  0  0  0  3  0  0  0  0  0  0
  -26.4360  -31.7320   25.1290 C   0  0  1  0  0  0  0  0  0  0  0  0
  -25.3450  -31.4990   26.1990 C   0  0  0  0  0  1  0  0  0  0  0  0
  -27.0130  -30.3520   24.7370 C   0  0  0  0  0  1  0  0  0  0  0  0
  -27.5900  -32.5220   25.7890 C   0  0  0  0  0  1  0  0  0  0  0  0
  -25.6130  -33.9030   24.1870 N   0  0  0  0  0  0  0  0  0  0  0  0
  -25.9390  -34.9580   23.4270 C   0  0  0  0  0  0  0  0  0  0  0  0
  -26.5970  -34.8560   22.3880 O   0  0  0  0  0  0  0  0  0  0  0  0
  -25.0290  -34.0570   24.9950 H   0  0  0  0  0  0  0  0  0  0  0  0
  -24.2060  -36.7520   23.0960 C   0  0  0  0  0  1  0  0  0  0  0  0
  -25.4570  -36.3460   23.8920 C   0  0  0  0  0  3  0  0  0  0  0  0
  -27.6020  -37.2290   24.6960 C   0  0  0  0  0  1  0  0  0  0  0  0
  -26.4880  -37.4000   23.7670 N   0  0  0  0  0  0  0  0  0  0  0  0
  -26.0840  -38.3190   23.9210 H   0  0  0  0  0  0  0  0  0  0  0  0
  1  3  1  0
  1 50  1  0
  3  2  1  0
  4  1  2  0
  5 10  1  0
  5  3  1  0
  7  6  2  0
  8  6  1  0
  9 10  2  0
  9 11  1  0
 10  7  1  0
 11  8  2  0
 12 20  1  0
 13 18  1  0
 14 15  1  0
 14 13  1  0
 16 15  1  0
 16 25  1  0
 16 17  1  0
 18 12  1  0
 18 17  1  0
 19 12  2  0
 20 11  1  0
 21 20  1  0
 22 23  2  0
 23 42  1  0
 24 23  1  0
 24 27  1  0
 25 22  1  0
 25 26  1  0
 26 24  2  0
 27 28  1  0
 28 29  2  0
 30 33  1  0
 30 29  1  0
 31 30  2  0
 32 31  1  0
 32 27  2  0
 33 34  1  0
 34 35  1  0
 35 36  2  0
 37 36  1  0
 37 41  1  0
 38 37  2  0
 39 34  2  0
 39 38  1  0
 40 39  1  0
 42 43  1  0
 43 46  1  0
 43 45  1  0
 44 42  2  0
 47 48  1  0
 47 22  1  0
 49 47  1  0
 51 53  1  0
 51 50  1  0
 52 63  2  0
 53 58  1  0
 54 62  1  0
 54 64  1  0
 55 61  1  0
 55 57  1  0
 56 62  1  0
 57 56  1  0
 58 57  2  0
 59 53  2  0
 60 59  1  0
 60 55  2  0
 61 54  1  0
 62 52  1  0
 64 66  2  0
 65 64  1  0
 67 65  1  0
 68 77  2  0
 68 73  1  0
 69 65  1  0
 69 73  1  0
 70 69  1  0
 71 72  1  0
 71 70  1  0
 72 68  1  0
 73 74  2  0
 74 75  1  0
 76 75  2  0
 77 76  1  0
 78 52  1  0
 78 83  1  0
 78 79  1  0
 79 82  1  1
 79 80  1  0
 81 79  1  0
 83 86  1  0
 84 88  1  0
 84 83  1  0
 85 84  2  0
 88 87  1  0
 90 88  1  0
 90 91  1  0
 90 89  1  0
M  ISO  4  12 100  20 100  50 101  51 101
M  END
>  <TORSDO>  (51) 
F 19

>  <SCORE>  (51) 
-14.454

>  <name>  (51) 
50

>  <ligand_id>  (51) 
50

>  <original_smiles>  (51) 
[H]c1c([H])c(N([H])C(=O)N2C([H])([H])C([H])([H])C([H])([H])C([H])(n3nc(-c4c([H])c([H])c(Oc5c([H])c([H])c(F)c([H])c5F)c([H])c4[H])c(C(=O)N([H])[H])c3N([H])[H])C2([H])[H])c([H])c(C([H])([H])N(C(=O)C([H])([H])Oc2c([H])c([H])c3c(c2[H])C([H])([H])N(C(=O)C([H])(N([H])C(=O)C([H])(N([H])C([H])([H])[H])C([H])([H])[H])C(C([H])([H])[H])(C([H])([H])[H])C([H])([H])[H])C([H])(C(=O)N([H])C2([H])c4c([H])c([H])c([H])c([H])c4C([H])([H])C([H])([H])C2([H])[H])C3([H])[H])C([H])([H])[H])c1[H]

>  <smiles>  (51) 
[H]c1c([H])c(N([H])C(=O)N2C([H])([H])C([H])([H])C([H])([H])C([H])(n3nc(-c4c([H])c([H])c(Oc5c([H])c([H])c(F)c([H])c5F)c([H])c4[H])c(C(=O)N([H])[H])c3N([H])[H])C2([H])[H])c([H])c(C([H])([H])N(C(=O)C([H])([H])Oc2c([H])c([H])c3c(c2[H])C([H])([H])N(C(=O)C([H])(N([H])C(=O)C([H])(N([H])C([H])([H])[H])C([H])([H])[H])C(C([H])([H])[H])(C([H])([H])[H])C([H])([H])[H])C([H])(C(=O)N([H])C2([H])c4c([H])c([H])c([H])c([H])c4C([H])([H])C([H])([H])C2([H])[H])C3([H])[H])C([H])([H])[H])c1[H]

$$$$
51:0:0
     RDKit          3D

 93101  0  0  1  0  0  0  0  0999 V2000
  -28.2460  -21.5660   20.3780 C   0  0  0  0  0  2  0  0  0  0  0  0
  -30.8990  -18.2200   19.3040 C   0  0  0  0  0  3  0  0  0  0  0  0
  -30.8390  -19.3770   18.5020 C   0  0  0  0  0  3  0  0  0  0  0  0
  -29.3310  -19.2500   20.8550 C   0  0  0  0  0  3  0  0  0  0  0  0
  -30.1580  -18.1410   20.4980 C   0  0  0  0  0  0  0  0  0  0  0  0
  -29.2480  -20.4260   20.0460 C   0  0  0  0  0  0  0  0  0  0  0  0
  -30.0270  -20.4720   18.8640 C   0  0  0  0  0  0  0  0  0  0  0  0
  -29.9850  -21.8440   17.8140 Cl  0  0  0  0  0  0  0  0  0  0  0  0
  -30.3530  -16.9190   21.4260 C   0  0  0  0  0  2  0  0  0  0  0  0
  -30.6660  -14.5640   20.4650 C   0  0  0  0  0  0  0  0  0  0  0  0
  -30.4080  -12.3860   19.3100 C   0  0  0  0  0  2  0  0  0  0  0  0
  -29.4660  -12.5600   18.1000 C   0  0  0  0  0  2  0  0  0  0  0  0
  -27.9900  -12.4170   18.5260 C   0  0  0  0  0  2  0  0  0  0  0  0
  -27.6430  -13.2640   19.7790 C   0  0  0  0  0  3  0  0  0  0  0  0
  -28.6920  -13.0530   20.8910 C   0  0  0  0  0  2  0  0  0  0  0  0
  -30.0100  -13.3770   20.3230 N   0  0  0  0  0  0  0  0  0  0  0  0
  -31.8200  -14.7360   20.0660 O   0  0  0  0  0  0  0  0  0  0  0  0
  -29.9200  -15.5840   20.9540 N   0  0  0  0  0  0  0  0  0  0  0  0
  -28.9650  -15.3430   21.1670 H   0  0  0  0  0  0  0  0  0  0  0  0
  -25.2430  -13.8860   20.4670 C   0  0  0  0  0  0  0  0  0  0  0  0
  -24.1700  -13.1200   20.8360 C   0  0  0  0  0  0  0  0  0  0  0  0
  -24.6270  -11.7670   20.8230 C   0  0  0  0  0  0  0  0  0  0  0  0
  -26.2860  -12.9980   20.2520 N   0  0  0  0  0  0  0  0  0  0  0  0
  -25.9200  -11.7190   20.5250 N   0  0  0  0  0  0  0  0  0  0  0  0
  -23.8960  -10.5090   21.0180 C   0  0  0  0  0  0  0  0  0  0  0  0
  -24.3220   -9.5440   21.9580 C   0  0  0  0  0  3  0  0  0  0  0  0
  -23.5920   -8.3510   22.1400 C   0  0  0  0  0  3  0  0  0  0  0  0
  -22.4200   -8.1130   21.3830 C   0  0  0  0  0  0  0  0  0  0  0  0
  -22.0130   -9.0650   20.4330 C   0  0  0  0  0  3  0  0  0  0  0  0
  -22.7440  -10.2500   20.2480 C   0  0  0  0  0  3  0  0  0  0  0  0
  -21.6620   -6.9710   21.4750 O   0  0  0  0  0  0  0  0  0  0  0  0
  -21.6120   -6.2300   22.6290 C   0  0  0  0  0  0  0  0  0  0  0  0
  -21.1930   -6.7900   23.8550 C   0  0  0  0  0  3  0  0  0  0  0  0
  -21.0900   -5.9760   25.0020 C   0  0  0  0  0  3  0  0  0  0  0  0
  -21.3960   -4.6050   24.9220 C   0  0  0  0  0  0  0  0  0  0  0  0
  -21.8090   -4.0450   23.7000 C   0  0  0  0  0  3  0  0  0  0  0  0
  -21.9130   -4.8550   22.5560 C   0  0  0  0  0  0  0  0  0  0  0  0
  -22.2910   -4.3070   21.3760 F   0  0  0  0  0  0  0  0  0  0  0  0
  -21.2910   -3.8210   26.0200 F   0  0  0  0  0  0  0  0  0  0  0  0
  -22.7720  -13.6040   21.0920 C   0  0  0  0  0  0  0  0  0  0  0  0
  -22.0350  -12.9190   21.9590 N   0  0  0  0  0  0  0  0  0  0  0  0
  -22.3410  -14.6250   20.5580 O   0  0  0  0  0  0  0  0  0  0  0  0
  -22.3960  -12.0920   22.4130 H   0  0  0  0  0  0  0  0  0  0  0  0
  -21.0970  -13.2260   22.1730 H   0  0  0  0  0  0  0  0  0  0  0  0
  -25.4140  -15.2540   20.2780 N   0  0  0  0  0  0  0  0  0  0  0  0
  -24.6450  -15.9090   20.3700 H   0  0  0  0  0  0  0  0  0  0  0  0
  -26.2630  -15.6860   19.9340 H   0  0  0  0  0  0  0  0  0  0  0  0
  -28.2960  -24.0900   20.1960 C   0  0  0  0  0  0  0  0  0  0  0  0
  -29.6130  -22.9240   21.9450 C   0  0  0  0  0  1  0  0  0  0  0  0
  -28.7490  -22.9210   20.7620 N   0  0  0  0  0  0  0  0  0  0  0  0
  -27.6860  -24.0850   19.1230 O   0  0  0  0  0  0  0  0  0  0  0  0
  -28.4590  -25.4560   20.9520 C   0  0  0  0  0  2  0  0  0  0  0  0
  -28.3830  -26.6450   20.1150 O   0  0  0  0  0  0  0  0  0  0  0  0
  -24.5920  -31.8870   23.2450 C   0  0  0  0  0  0  0  0  0  0  0  0
  -27.2230  -27.4030   20.1760 C   0  0  0  0  0  0  0  0  0  0  0  0
  -23.3860  -30.4870   21.6040 C   0  0  0  0  0  3  0  0  0  0  0  0
  -24.8380  -28.9410   20.1840 C   0  0  0  0  0  0  0  0  0  0  0  0
  -25.9160  -30.8320   21.4090 C   0  0  0  0  0  2  0  0  0  0  0  0
  -26.0010  -29.4570   20.7710 C   0  0  0  0  0  0  0  0  0  0  0  0
  -27.1990  -28.6970   20.7590 C   0  0  0  0  0  3  0  0  0  0  0  0
  -26.0430  -26.9110   19.5850 C   0  0  0  0  0  3  0  0  0  0  0  0
  -24.8550  -27.6690   19.5860 C   0  0  0  0  0  3  0  0  0  0  0  0
  -23.5970  -29.8070   20.2260 C   0  0  0  0  0  2  0  0  0  0  0  0
  -24.6500  -31.0850   22.1440 N   0  0  0  0  0  0  0  0  0  0  0  0
  -23.5100  -32.1600   23.7840 O   0  0  0  0  0  0  0  0  0  0  0  0
  -22.7310  -29.4680   22.5640 C   0  0  0  0  0  0  0  0  0  0  0  0
  -21.4060  -29.2860   22.4340 N   0  0  0  0  0  0  0  0  0  0  0  0
  -23.4120  -28.8420   23.3810 O   0  0  0  0  0  0  0  0  0  0  0  0
  -20.9170  -29.8420   21.7470 H   0  0  0  0  0  0  0  0  0  0  0  0
  -18.0300  -28.0890   22.9260 C   0  0  0  0  0  0  0  0  0  0  0  0
  -20.5880  -28.3470   23.2030 C   0  0  0  0  0  3  0  0  0  0  0  0
  -20.6920  -26.9170   22.6270 C   0  0  0  0  0  2  0  0  0  0  0  0
  -19.5930  -26.5950   21.6100 C   0  0  0  0  0  2  0  0  0  0  0  0
  -18.2090  -26.7390   22.2510 C   0  0  0  0  0  2  0  0  0  0  0  0
  -19.1480  -28.8510   23.3590 C   0  0  0  0  0  0  0  0  0  0  0  0
  -18.9280  -30.1150   23.9490 C   0  0  0  0  0  3  0  0  0  0  0  0
  -17.6240  -30.6170   24.1110 C   0  0  0  0  0  3  0  0  0  0  0  0
  -16.5210  -29.8520   23.6960 C   0  0  0  0  0  3  0  0  0  0  0  0
  -16.7240  -28.5890   23.1090 C   0  0  0  0  0  3  0  0  0  0  0  0
  -25.8780  -32.5160   23.8670 C   0  0  0  0  0  3  0  0  0  0  0  0
  -26.3940  -31.7450   25.1440 C   0  0  1  0  0  0  0  0  0  0  0  0
  -25.3010  -31.5100   26.2120 C   0  0  0  0  0  1  0  0  0  0  0  0
  -26.9730  -30.3660   24.7500 C   0  0  0  0  0  1  0  0  0  0  0  0
  -27.5460  -32.5370   25.8040 C   0  0  0  0  0  1  0  0  0  0  0  0
  -25.5720  -33.9150   24.1950 N   0  0  0  0  0  0  0  0  0  0  0  0
  -25.9060  -34.9660   23.4330 C   0  0  0  0  0  0  0  0  0  0  0  0
  -26.5760  -34.8590   22.4010 O   0  0  0  0  0  0  0  0  0  0  0  0
  -24.9770  -34.0730   24.9950 H   0  0  0  0  0  0  0  0  0  0  0  0
  -24.1810  -36.7600   23.0740 C   0  0  0  0  0  1  0  0  0  0  0  0
  -25.4210  -36.3560   23.8860 C   0  0  0  0  0  3  0  0  0  0  0  0
  -27.5560  -37.2390   24.7160 C   0  0  0  0  0  1  0  0  0  0  0  0
  -26.4550  -37.4070   23.7720 N   0  0  0  0  0  0  0  0  0  0  0  0
  -26.0510  -38.3280   23.9170 H   0  0  0  0  0  0  0  0  0  0  0  0
  1 50  1  0
  2  5  1  0
  3  7  1  0
  3  2  2  0
  5  4  2  0
  5  9  1  0
  6  1  1  0
  6  4  1  0
  7  6  2  0
  8  7  1  0
 10 18  1  0
 11 16  1  0
 12 13  1  0
 12 11  1  0
 14 13  1  0
 14 23  1  0
 14 15  1  0
 16 10  1  0
 16 15  1  0
 17 10  2  0
 18 19  1  0
 18  9  1  0
 20 21  2  0
 21 40  1  0
 22 21  1  0
 22 25  1  0
 23 20  1  0
 23 24  1  0
 24 22  2  0
 25 26  1  0
 26 27  2  0
 28 31  1  0
 28 27  1  0
 29 28  2  0
 30 29  1  0
 30 25  2  0
 31 32  1  0
 32 33  1  0
 33 34  2  0
 35 34  1  0
 35 39  1  0
 36 35  2  0
 37 32  2  0
 37 36  1  0
 38 37  1  0
 40 41  1  0
 41 44  1  0
 41 43  1  0
 42 40  2  0
 45 46  1  0
 45 20  1  0
 47 45  1  0
 48 50  1  0
 48 52  1  0
 50 49  1  0
 51 48  2  0
 53 55  1  0
 53 52  1  0
 54 65  2  0
 55 60  1  0
 56 64  1  0
 56 66  1  0
 57 63  1  0
 57 59  1  0
 58 64  1  0
 59 58  1  0
 60 59  2  0
 61 62  1  0
 61 55  2  0
 62 57  2  0
 63 56  1  0
 64 54  1  0
 66 68  2  0
 67 66  1  0
 69 67  1  0
 70 79  2  0
 70 75  1  0
 71 67  1  0
 71 75  1  0
 72 71  1  0
 73 74  1  0
 73 72  1  0
 74 70  1  0
 75 76  2  0
 76 77  1  0
 78 77  2  0
 79 78  1  0
 80 54  1  0
 80 85  1  0
 80 81  1  0
 81 84  1  1
 81 82  1  0
 83 81  1  0
 85 88  1  0
 86 90  1  0
 86 85  1  0
 87 86  2  0
 90 89  1  0
 92 90  1  0
 92 93  1  0
 92 91  1  0
M  ISO  4  10 100  18 100  52 101  53 101
M  END
>  <TORSDO>  (52) 
F 20

>  <SCORE>  (52) 
-14.066

>  <name>  (52) 
51

>  <ligand_id>  (52) 
51

>  <original_smiles>  (52) 
[H]c1c([H])c([H])c2c(c1[H])C([H])([H])C([H])([H])C([H])([H])C2([H])N([H])C(=O)C1([H])N(C(=O)C([H])(N([H])C(=O)C([H])(N([H])C([H])([H])[H])C([H])([H])[H])C(C([H])([H])[H])(C([H])([H])[H])C([H])([H])[H])C([H])([H])c2c([H])c(OC([H])([H])C(=O)N(C([H])([H])[H])C([H])([H])c3c([H])c(C([H])([H])N([H])C(=O)N4C([H])([H])C([H])([H])C([H])([H])C([H])(n5nc(-c6c([H])c([H])c(Oc7c([H])c([H])c(F)c([H])c7F)c([H])c6[H])c(C(=O)N([H])[H])c5N([H])[H])C4([H])[H])c([H])c([H])c3Cl)c([H])c([H])c2C1([H])[H]

>  <smiles>  (52) 
[H]c1c([H])c([H])c2c(c1[H])C([H])([H])C([H])([H])C([H])([H])C2([H])N([H])C(=O)C1([H])N(C(=O)C([H])(N([H])C(=O)C([H])(N([H])C([H])([H])[H])C([H])([H])[H])C(C([H])([H])[H])(C([H])([H])[H])C([H])([H])[H])C([H])([H])c2c([H])c(OC([H])([H])C(=O)N(C([H])([H])[H])C([H])([H])c3c([H])c(C([H])([H])N([H])C(=O)N4C([H])([H])C([H])([H])C([H])([H])C([H])(n5nc(-c6c([H])c([H])c(Oc7c([H])c([H])c(F)c([H])c7F)c([H])c6[H])c(C(=O)N([H])[H])c5N([H])[H])C4([H])[H])c([H])c([H])c3Cl)c([H])c([H])c2C1([H])[H]

$$$$
52:0:0
     RDKit          3D

104114  0  0  1  0  0  0  0  0999 V2000
  -32.1670  -20.3020   21.3820 C   0  0  0  0  0  3  0  0  0  0  0  0
  -32.7190  -17.9710   20.9930 C   0  0  0  0  0  3  0  0  0  0  0  0
  -33.1310  -19.3090   21.1340 C   0  0  0  0  0  0  0  0  0  0  0  0
  -30.7940  -19.9850   21.4780 C   0  0  0  0  0  0  0  0  0  0  0  0
  -30.3750  -18.6280   21.3120 C   0  0  0  0  0  0  0  0  0  0  0  0
  -31.3510  -17.6180   21.0610 C   0  0  0  0  0  0  0  0  0  0  0  0
  -31.6100  -15.2590   20.2930 C   0  0  0  0  0  0  0  0  0  0  0  0
  -31.4480  -12.9510   19.4310 C   0  0  0  0  0  2  0  0  0  0  0  0
  -30.5260  -12.9020   18.1980 C   0  0  0  0  0  2  0  0  0  0  0  0
  -29.0560  -12.7240   18.6230 C   0  0  0  0  0  2  0  0  0  0  0  0
  -28.6320  -13.7220   19.7330 C   0  0  0  0  0  3  0  0  0  0  0  0
  -29.6680  -13.7500   20.8780 C   0  0  0  0  0  2  0  0  0  0  0  0
  -30.9890  -14.0490   20.2960 N   0  0  0  0  0  0  0  0  0  0  0  0
  -32.6750  -15.4540   19.6970 O   0  0  0  0  0  0  0  0  0  0  0  0
  -30.9540  -16.2500   20.9250 N   0  0  0  0  0  0  0  0  0  0  0  0
  -30.0360  -16.0080   21.2620 H   0  0  0  0  0  0  0  0  0  0  0  0
  -26.2570  -14.2990   20.5420 C   0  0  0  0  0  0  0  0  0  0  0  0
  -25.1910  -13.5130   20.8880 C   0  0  0  0  0  0  0  0  0  0  0  0
  -25.6370  -12.1630   20.7530 C   0  0  0  0  0  0  0  0  0  0  0  0
  -27.2870  -13.4270   20.2250 N   0  0  0  0  0  0  0  0  0  0  0  0
  -26.9180  -12.1330   20.4060 N   0  0  0  0  0  0  0  0  0  0  0  0
  -24.9030  -10.8970   20.8780 C   0  0  0  0  0  0  0  0  0  0  0  0
  -25.2650   -9.9240   21.8340 C   0  0  0  0  0  3  0  0  0  0  0  0
  -24.5330   -8.7230   21.9480 C   0  0  0  0  0  3  0  0  0  0  0  0
  -23.4240   -8.4860   21.1020 C   0  0  0  0  0  0  0  0  0  0  0  0
  -23.0800   -9.4480   20.1360 C   0  0  0  0  0  3  0  0  0  0  0  0
  -23.8140  -10.6400   20.0210 C   0  0  0  0  0  3  0  0  0  0  0  0
  -22.6690   -7.3380   21.1230 O   0  0  0  0  0  0  0  0  0  0  0  0
  -22.3290   -6.7210   22.3000 C   0  0  0  0  0  0  0  0  0  0  0  0
  -21.6170   -7.3950   23.3160 C   0  0  0  0  0  3  0  0  0  0  0  0
  -21.2270   -6.7050   24.4800 C   0  0  0  0  0  3  0  0  0  0  0  0
  -21.5390   -5.3400   24.6270 C   0  0  0  0  0  0  0  0  0  0  0  0
  -22.2440   -4.6650   23.6150 C   0  0  0  0  0  3  0  0  0  0  0  0
  -22.6350   -5.3540   22.4540 C   0  0  0  0  0  0  0  0  0  0  0  0
  -23.2960   -4.6940   21.4710 F   0  0  0  0  0  0  0  0  0  0  0  0
  -21.1580   -4.6730   25.7420 F   0  0  0  0  0  0  0  0  0  0  0  0
  -23.8070  -13.9840   21.2320 C   0  0  0  0  0  0  0  0  0  0  0  0
  -23.1030  -13.2450   22.0840 N   0  0  0  0  0  0  0  0  0  0  0  0
  -23.3610  -15.0380   20.7840 O   0  0  0  0  0  0  0  0  0  0  0  0
  -23.4770  -12.3890   22.4650 H   0  0  0  0  0  0  0  0  0  0  0  0
  -22.1760  -13.5390   22.3560 H   0  0  0  0  0  0  0  0  0  0  0  0
  -26.4300  -15.6760   20.4510 N   0  0  0  0  0  0  0  0  0  0  0  0
  -25.6670  -16.3250   20.6100 H   0  0  0  0  0  0  0  0  0  0  0  0
  -27.2680  -16.1240   20.1040 H   0  0  0  0  0  0  0  0  0  0  0  0
  -35.5210  -18.8210   21.4110 C   0  0  0  0  0  3  0  0  0  0  0  0
  -34.5540  -19.6870   21.0380 C   0  0  0  0  0  0  0  0  0  0  0  0
  -37.0140  -19.0870   21.3110 C   0  0  0  0  0  2  0  0  0  0  0  0
  -34.9220  -21.0320   20.4160 C   0  0  0  0  0  2  0  0  0  0  0  0
  -37.3390  -20.5510   20.9740 C   0  0  0  0  0  2  0  0  0  0  0  0
  -36.3750  -21.0940   19.9150 C   0  0  0  0  0  2  0  0  0  0  0  0
  -28.2570  -18.2700   19.9630 C   0  0  0  0  0  1  0  0  0  0  0  0
  -28.8940  -18.2410   21.3580 C   0  0  0  0  0  2  0  0  0  0  0  0
  -29.8400  -21.1500   21.7860 C   0  0  0  0  0  2  0  0  0  0  0  0
  -29.7480  -24.6970   20.4270 C   0  0  0  0  0  0  0  0  0  0  0  0
  -30.2880  -22.3540   19.6110 C   0  0  0  0  0  0  0  0  0  0  0  0
  -30.6120  -21.7000   18.4840 C   0  0  0  0  0  2  0  0  0  0  0  0
  -29.7440  -25.9600   19.9420 C   0  0  0  0  0  3  0  0  0  0  0  0
  -30.8440  -23.7070   20.0540 C   0  0  0  0  0  2  0  0  0  0  0  0
  -28.7100  -24.1230   21.3790 C   0  0  0  0  0  2  0  0  0  0  0  0
  -28.1870  -22.7610   20.8740 C   0  0  0  0  0  2  0  0  0  0  0  0
  -29.2800  -21.8010   20.5710 N   0  0  2  0  0  4  0  0  0  0  0  0
  -28.8090  -21.0460   20.0990 H   0  0  0  0  0  0  0  0  0  0  0  0
  -28.7740  -27.0870   20.2640 C   0  0  0  0  0  2  0  0  0  0  0  0
  -27.9800  -27.4060   19.1280 O   0  0  0  0  0  0  0  0  0  0  0  0
  -24.5360  -32.0470   23.3180 C   0  0  0  0  0  0  0  0  0  0  0  0
  -26.8380  -28.1140   19.4090 C   0  0  0  0  0  0  0  0  0  0  0  0
  -23.1480  -30.8150   21.6790 C   0  0  0  0  0  3  0  0  0  0  0  0
  -24.4340  -29.5050   19.9070 C   0  0  0  0  0  0  0  0  0  0  0  0
  -25.6180  -31.2800   21.2120 C   0  0  0  0  0  2  0  0  0  0  0  0
  -25.6460  -29.9960   20.4120 C   0  0  0  0  0  0  0  0  0  0  0  0
  -26.8510  -29.3040   20.1700 C   0  0  0  0  0  3  0  0  0  0  0  0
  -25.6160  -27.6360   18.8940 C   0  0  0  0  0  3  0  0  0  0  0  0
  -24.4120  -28.3200   19.1490 C   0  0  0  0  0  3  0  0  0  0  0  0
  -23.1910  -30.3090   20.2110 C   0  0  0  0  0  2  0  0  0  0  0  0
  -24.4590  -31.3890   22.1270 N   0  0  0  0  0  0  0  0  0  0  0  0
  -23.5300  -32.2190   24.0200 O   0  0  0  0  0  0  0  0  0  0  0  0
  -22.6430  -29.6670   22.5810 C   0  0  0  0  0  0  0  0  0  0  0  0
  -21.3520  -29.3240   22.4440 N   0  0  0  0  0  0  0  0  0  0  0  0
  -23.4080  -29.0900   23.3590 O   0  0  0  0  0  0  0  0  0  0  0  0
  -20.7900  -29.8510   21.7910 H   0  0  0  0  0  0  0  0  0  0  0  0
  -18.2300  -27.5270   22.6980 C   0  0  0  0  0  0  0  0  0  0  0  0
  -20.6680  -28.2470   23.1590 C   0  0  0  0  0  3  0  0  0  0  0  0
  -21.0750  -26.8640   22.6030 C   0  0  0  0  0  2  0  0  0  0  0  0
  -20.1300  -26.3500   21.5120 C   0  0  0  0  0  2  0  0  0  0  0  0
  -18.7000  -26.2360   22.0500 C   0  0  0  0  0  2  0  0  0  0  0  0
  -19.1530  -28.4780   23.2050 C   0  0  0  0  0  0  0  0  0  0  0  0
  -18.6640  -29.6780   23.7670 C   0  0  0  0  0  3  0  0  0  0  0  0
  -17.2820  -29.9320   23.8290 C   0  0  0  0  0  3  0  0  0  0  0  0
  -16.3700  -28.9790   23.3410 C   0  0  0  0  0  3  0  0  0  0  0  0
  -16.8440  -27.7790   22.7820 C   0  0  0  0  0  3  0  0  0  0  0  0
  -25.8840  -32.6360   23.8430 C   0  0  0  0  0  3  0  0  0  0  0  0
  -25.6310  -34.0250   24.2480 N   0  0  0  0  0  0  0  0  0  0  0  0
  -25.9380  -35.0990   23.5070 C   0  0  0  0  0  0  0  0  0  0  0  0
  -26.5360  -35.0220   22.4310 O   0  0  0  0  0  0  0  0  0  0  0  0
  -25.0950  -34.1600   25.0930 H   0  0  0  0  0  0  0  0  0  0  0  0
  -24.2330  -36.9390   23.3300 C   0  0  0  0  0  1  0  0  0  0  0  0
  -25.5120  -36.4770   24.0470 C   0  0  0  0  0  3  0  0  0  0  0  0
  -27.7110  -37.2840   24.7840 C   0  0  0  0  0  1  0  0  0  0  0  0
  -26.5610  -37.5110   23.9120 N   0  0  0  0  0  0  0  0  0  0  0  0
  -26.1860  -38.4330   24.1170 H   0  0  0  0  0  0  0  0  0  0  0  0
  -26.5020  -31.8080   25.0370 C   0  0  1  0  0  0  0  0  0  0  0  0
  -25.5000  -31.5240   26.1800 C   0  0  0  0  0  1  0  0  0  0  0  0
  -27.0430  -30.4490   24.5350 C   0  0  0  0  0  1  0  0  0  0  0  0
  -27.7070  -32.5710   25.6350 C   0  0  0  0  0  1  0  0  0  0  0  0
  1  4  1  0
  2  6  2  0
  2  3  1  0
  3  1  2  0
  4 53  1  0
  5 52  1  0
  5  4  2  0
  6  5  1  0
  7 13  1  0
  7 15  1  0
  8 13  1  0
  9 10  1  0
  9  8  1  0
 11 10  1  0
 11 20  1  0
 11 12  1  0
 13 12  1  0
 14  7  2  0
 15  6  1  0
 15 16  1  0
 17 18  2  0
 18 37  1  0
 19 22  1  0
 19 18  1  0
 20 21  1  0
 20 17  1  0
 21 19  2  0
 22 23  1  0
 23 24  2  0
 25 28  1  0
 25 24  1  0
 26 25  2  0
 27 26  1  0
 27 22  2  0
 28 29  1  0
 29 34  2  0
 29 30  1  0
 30 31  2  0
 31 32  1  0
 32 36  1  0
 33 32  2  0
 34 33  1  0
 35 34  1  0
 37 38  1  0
 38 41  1  0
 38 40  1  0
 39 37  2  0
 42 17  1  0
 42 43  1  0
 44 42  1  0
 46  3  1  0
 46 45  2  0
 47 45  1  0
 48 46  1  0
 49 47  1  0
 50 48  1  0
 50 49  1  0
 51 52  1  0
 54 59  1  0
 55 58  1  0
 55 61  1  0
 56 55  2  0
 57 63  1  0
 57 54  2  0
 58 54  1  0
 60 59  1  0
 61 60  1  0
 61 53  1  0
 61 62  1  6
 64 66  1  0
 64 63  1  0
 65 76  2  0
 66 71  1  0
 67 75  1  0
 67 77  1  0
 68 74  1  0
 68 70  1  0
 69 75  1  0
 70 69  1  0
 71 70  2  0
 72 73  1  0
 72 66  2  0
 73 68  2  0
 74 67  1  0
 75 65  1  0
 77 79  2  0
 78 77  1  0
 80 78  1  0
 81 90  2  0
 81 86  1  0
 82 78  1  0
 82 86  1  0
 83 82  1  0
 84 85  1  0
 84 83  1  0
 85 81  1  0
 86 87  2  0
 87 88  1  0
 89 88  2  0
 90 89  1  0
 91 65  1  0
 91 92  1  0
 91101  1  0
 92 95  1  0
 93 97  1  0
 93 92  1  0
 94 93  2  0
 97 96  1  0
 99 97  1  0
 99100  1  0
 99 98  1  0
101104  1  1
101102  1  0
103101  1  0
M  ISO  4   7 100  15 100  63 101  64 101
M  END
>  <TORSDO>  (53) 
F 21

>  <SCORE>  (53) 
-10.908

>  <name>  (53) 
52

>  <ligand_id>  (53) 
52

>  <original_smiles>  (53) 
[H]C([H])=C1C([H])([H])C(=C([H])C([H])([H])Oc2c([H])c([H])c3c(c2[H])C([H])([H])N(C(=O)C([H])(N([H])C(=O)C([H])(N([H])C([H])([H])[H])C([H])([H])[H])C(C([H])([H])[H])(C([H])([H])[H])C([H])([H])[H])C([H])(C(=O)N([H])C2([H])c4c([H])c([H])c([H])c([H])c4C([H])([H])C([H])([H])C2([H])[H])C3([H])[H])C([H])([H])C([H])([H])[N+]1([H])C([H])([H])c1c([H])c(C2=C([H])C([H])([H])C([H])([H])C([H])([H])C2([H])[H])c([H])c(N([H])C(=O)N2C([H])([H])C([H])([H])C([H])([H])C([H])(n3nc(-c4c([H])c([H])c(Oc5c([H])c([H])c(F)c([H])c5F)c([H])c4[H])c(C(=O)N([H])[H])c3N([H])[H])C2([H])[H])c1C([H])([H])C([H])([H])[H]

>  <smiles>  (53) 
[H]C([H])=C1C([H])([H])C(=C([H])C([H])([H])Oc2c([H])c([H])c3c(c2[H])C([H])([H])N(C(=O)C([H])(N([H])C(=O)C([H])(N([H])C([H])([H])[H])C([H])([H])[H])C(C([H])([H])[H])(C([H])([H])[H])C([H])([H])[H])C([H])(C(=O)N([H])C2([H])c4c([H])c([H])c([H])c([H])c4C([H])([H])C([H])([H])C2([H])[H])C3([H])[H])C([H])([H])C([H])([H])[N+]1([H])C([H])([H])c1c([H])c(C2=C([H])C([H])([H])C([H])([H])C([H])([H])C2([H])[H])c([H])c(N([H])C(=O)N2C([H])([H])C([H])([H])C([H])([H])C([H])(n3nc(-c4c([H])c([H])c(Oc5c([H])c([H])c(F)c([H])c5F)c([H])c4[H])c(C(=O)N([H])[H])c3N([H])[H])C2([H])[H])c1C([H])([H])C([H])([H])[H]

$$$$
53:0:0
     RDKit          3D

103113  0  0  1  0  0  0  0  0999 V2000
  -27.6180  -24.1640   17.7790 C   0  0  0  0  0  3  0  0  0  0  0  0
  -28.5200  -22.2000   19.5910 C   0  0  0  0  0  0  0  0  0  0  0  0
  -28.8550  -23.5780   19.8030 C   0  0  0  0  0  0  0  0  0  0  0  0
  -28.4280  -24.5570   18.8600 C   0  0  0  0  0  0  0  0  0  0  0  0
  -27.2460  -22.8260   17.5840 C   0  0  0  0  0  0  0  0  0  0  0  0
  -27.7170  -21.8290   18.4700 C   0  0  0  0  0  0  0  0  0  0  0  0
  -28.9920  -21.1170   20.5500 C   0  0  0  0  0  0  0  0  0  0  0  0
  -31.2930  -21.6320   19.9790 C   0  0  0  0  0  0  0  0  0  0  0  0
  -31.5970  -21.3930   18.6900 C   0  0  0  0  0  2  0  0  0  0  0  0
  -29.6970  -23.9980   21.0140 C   0  0  0  0  0  2  0  0  0  0  0  0
  -31.9400  -22.7390   20.8000 C   0  0  0  0  0  2  0  0  0  0  0  0
  -31.2000  -24.0810   20.6880 C   0  0  0  0  0  2  0  0  0  0  0  0
  -26.3620  -22.4940   16.3920 C   0  0  0  0  0  1  0  0  0  0  0  0
  -27.3730  -20.3620   18.1950 C   0  0  0  0  0  1  0  0  0  0  0  0
  -30.3290  -20.8730   20.6680 N   0  0  0  0  0  0  0  0  0  0  0  0
  -28.1320  -20.4840   21.1740 O   0  0  0  0  0  0  0  0  0  0  0  0
  -30.8290  -19.8420   21.6020 C   0  0  0  0  0  2  0  0  0  0  0  0
  -33.6300  -17.9220   19.8190 C   0  0  0  0  0  3  0  0  0  0  0  0
  -32.8970  -18.9570   20.4240 C   0  0  0  0  0  3  0  0  0  0  0  0
  -33.0780  -16.6320   19.7160 C   0  0  0  0  0  3  0  0  0  0  0  0
  -31.0580  -17.4080   20.8440 C   0  0  0  0  0  3  0  0  0  0  0  0
  -31.6070  -18.7080   20.9380 C   0  0  0  0  0  0  0  0  0  0  0  0
  -31.7840  -16.3670   20.2210 C   0  0  0  0  0  0  0  0  0  0  0  0
  -31.6910  -13.9760   19.5500 C   0  0  0  0  0  0  0  0  0  0  0  0
  -31.2130  -11.6440   18.9020 C   0  0  0  0  0  2  0  0  0  0  0  0
  -30.1870  -11.6010   17.7530 C   0  0  0  0  0  2  0  0  0  0  0  0
  -28.7470  -11.6330   18.3000 C   0  0  0  0  0  2  0  0  0  0  0  0
  -28.5300  -12.7580   19.3460 C   0  0  0  0  0  3  0  0  0  0  0  0
  -29.6560  -12.7500   20.4060 C   0  0  0  0  0  2  0  0  0  0  0  0
  -30.9480  -12.8490   19.7020 N   0  0  0  0  0  0  0  0  0  0  0  0
  -32.7060  -14.0150   18.8450 O   0  0  0  0  0  0  0  0  0  0  0  0
  -31.2110  -15.0650   20.1730 N   0  0  0  0  0  0  0  0  0  0  0  0
  -30.3060  -14.9510   20.6020 H   0  0  0  0  0  0  0  0  0  0  0  0
  -26.3480  -13.6800   20.3540 C   0  0  0  0  0  0  0  0  0  0  0  0
  -25.2160  -13.0600   20.8080 C   0  0  0  0  0  0  0  0  0  0  0  0
  -25.4470  -11.6580   20.6570 C   0  0  0  0  0  0  0  0  0  0  0  0
  -27.2080  -12.6660   19.9620 N   0  0  0  0  0  0  0  0  0  0  0  0
  -26.6730  -11.4400   20.1960 N   0  0  0  0  0  0  0  0  0  0  0  0
  -24.5540  -10.5110   20.8670 C   0  0  0  0  0  0  0  0  0  0  0  0
  -24.8560   -9.4980   21.8040 C   0  0  0  0  0  3  0  0  0  0  0  0
  -23.9710   -8.4170   22.0010 C   0  0  0  0  0  3  0  0  0  0  0  0
  -22.7660   -8.3430   21.2610 C   0  0  0  0  0  0  0  0  0  0  0  0
  -22.4800   -9.3420   20.3130 C   0  0  0  0  0  3  0  0  0  0  0  0
  -23.3670  -10.4140   20.1150 C   0  0  0  0  0  3  0  0  0  0  0  0
  -21.8580   -7.3170   21.3680 O   0  0  0  0  0  0  0  0  0  0  0  0
  -21.6420   -6.6670   22.5560 C   0  0  0  0  0  0  0  0  0  0  0  0
  -21.1980   -7.3510   23.7090 C   0  0  0  0  0  3  0  0  0  0  0  0
  -20.9210   -6.6330   24.8900 C   0  0  0  0  0  3  0  0  0  0  0  0
  -21.0790   -5.2350   24.9190 C   0  0  0  0  0  0  0  0  0  0  0  0
  -21.5180   -4.5530   23.7710 C   0  0  0  0  0  3  0  0  0  0  0  0
  -21.7950   -5.2670   22.5920 C   0  0  0  0  0  0  0  0  0  0  0  0
  -22.1970   -4.6010   21.4820 F   0  0  0  0  0  0  0  0  0  0  0  0
  -20.8060   -4.5450   26.0510 F   0  0  0  0  0  0  0  0  0  0  0  0
  -23.9510  -13.7250   21.2660 C   0  0  0  0  0  0  0  0  0  0  0  0
  -23.2430  -13.1150   22.2100 N   0  0  0  0  0  0  0  0  0  0  0  0
  -23.6090  -14.8210   20.8230 O   0  0  0  0  0  0  0  0  0  0  0  0
  -23.5330  -12.2250   22.5880 H   0  0  0  0  0  0  0  0  0  0  0  0
  -22.3990  -13.5450   22.5620 H   0  0  0  0  0  0  0  0  0  0  0  0
  -26.7140  -15.0170   20.2220 N   0  0  0  0  0  0  0  0  0  0  0  0
  -26.0850  -15.7800   20.4480 H   0  0  0  0  0  0  0  0  0  0  0  0
  -27.5820  -15.3300   19.8050 H   0  0  0  0  0  0  0  0  0  0  0  0
  -28.8960  -26.0200   18.8480 C   0  0  0  0  0  2  0  0  0  0  0  0
  -28.5480  -26.8490   19.9530 O   0  0  0  0  0  0  0  0  0  0  0  0
  -24.6850  -31.8260   23.2090 C   0  0  0  0  0  0  0  0  0  0  0  0
  -27.3450  -27.5190   19.9580 C   0  0  0  0  0  0  0  0  0  0  0  0
  -23.4800  -30.4800   21.5170 C   0  0  0  0  0  3  0  0  0  0  0  0
  -24.9360  -28.9940   20.0400 C   0  0  0  0  0  0  0  0  0  0  0  0
  -26.0040  -30.8490   21.3370 C   0  0  0  0  0  2  0  0  0  0  0  0
  -26.0890  -29.5020   20.6520 C   0  0  0  0  0  0  0  0  0  0  0  0
  -27.2900  -28.7640   20.6200 C   0  0  0  0  0  3  0  0  0  0  0  0
  -26.1730  -27.0110   19.3560 C   0  0  0  0  0  3  0  0  0  0  0  0
  -24.9700  -27.7430   19.3970 C   0  0  0  0  0  3  0  0  0  0  0  0
  -23.6910  -29.8470   20.1140 C   0  0  0  0  0  2  0  0  0  0  0  0
  -24.7410  -31.0650   22.0790 N   0  0  0  0  0  0  0  0  0  0  0  0
  -23.6050  -32.0800   23.7570 O   0  0  0  0  0  0  0  0  0  0  0  0
  -22.8330  -29.4260   22.4410 C   0  0  0  0  0  0  0  0  0  0  0  0
  -21.5070  -29.2590   22.3190 N   0  0  0  0  0  0  0  0  0  0  0  0
  -23.5200  -28.7620   23.2220 O   0  0  0  0  0  0  0  0  0  0  0  0
  -21.0160  -29.8470   21.6590 H   0  0  0  0  0  0  0  0  0  0  0  0
  -18.1250  -28.0910   22.8110 C   0  0  0  0  0  0  0  0  0  0  0  0
  -20.6900  -28.2990   23.0580 C   0  0  0  0  0  3  0  0  0  0  0  0
  -20.7640  -26.8960   22.4140 C   0  0  0  0  0  2  0  0  0  0  0  0
  -19.6420  -26.6350   21.4030 C   0  0  0  0  0  2  0  0  0  0  0  0
  -18.2710  -26.7710   22.0730 C   0  0  0  0  0  2  0  0  0  0  0  0
  -19.2610  -28.8170   23.2590 C   0  0  0  0  0  0  0  0  0  0  0  0
  -19.0680  -30.0570   23.9060 C   0  0  0  0  0  3  0  0  0  0  0  0
  -17.7730  -30.5680   24.1130 C   0  0  0  0  0  3  0  0  0  0  0  0
  -16.6530  -29.8380   23.6820 C   0  0  0  0  0  3  0  0  0  0  0  0
  -16.8300  -28.6010   23.0370 C   0  0  0  0  0  3  0  0  0  0  0  0
  -25.9730  -32.4350   23.8500 C   0  0  0  0  0  3  0  0  0  0  0  0
  -26.4710  -31.6450   25.1230 C   0  0  1  0  0  0  0  0  0  0  0  0
  -25.3660  -31.4080   26.1770 C   0  0  0  0  0  1  0  0  0  0  0  0
  -27.0440  -30.2670   24.7190 C   0  0  0  0  0  1  0  0  0  0  0  0
  -27.6240  -32.4210   25.8040 C   0  0  0  0  0  1  0  0  0  0  0  0
  -25.6790  -33.8330   24.1890 N   0  0  0  0  0  0  0  0  0  0  0  0
  -26.0200  -34.8860   23.4340 C   0  0  0  0  0  0  0  0  0  0  0  0
  -26.6910  -34.7840   22.4030 O   0  0  0  0  0  0  0  0  0  0  0  0
  -25.0900  -33.9920   24.9940 H   0  0  0  0  0  0  0  0  0  0  0  0
  -24.2940  -36.6850   23.1050 C   0  0  0  0  0  1  0  0  0  0  0  0
  -25.5440  -36.2740   23.9000 C   0  0  0  0  0  3  0  0  0  0  0  0
  -27.6850  -37.1540   24.7150 C   0  0  0  0  0  1  0  0  0  0  0  0
  -26.5780  -37.3250   23.7800 N   0  0  0  0  0  0  0  0  0  0  0  0
  -26.1740  -38.2450   23.9320 H   0  0  0  0  0  0  0  0  0  0  0  0
  1  4  1  0
  2  3  1  0
  2  7  1  0
  3 10  1  0
  4  3  2  0
  5  1  2  0
  5  6  1  0
  6  2  2  0
  7 15  1  0
  7 16  2  0
  8 15  1  0
  8 11  1  0
  9  8  2  0
 12 11  1  0
 12 10  1  0
 13  5  1  0
 14  6  1  0
 15 17  1  0
 18 19  1  0
 19 22  2  0
 20 18  2  0
 20 23  1  0
 21 22  1  0
 22 17  1  0
 23 21  2  0
 24 30  1  0
 24 32  1  0
 25 30  1  0
 26 27  1  0
 26 25  1  0
 28 27  1  0
 28 37  1  0
 28 29  1  0
 30 29  1  0
 31 24  2  0
 32 23  1  0
 32 33  1  0
 34 35  2  0
 35 54  1  0
 36 35  1  0
 36 39  1  0
 37 38  1  0
 37 34  1  0
 38 36  2  0
 39 40  1  0
 40 41  2  0
 42 45  1  0
 42 41  1  0
 43 42  2  0
 44 43  1  0
 44 39  2  0
 45 46  1  0
 46 51  2  0
 46 47  1  0
 47 48  2  0
 48 49  1  0
 49 53  1  0
 50 49  2  0
 51 50  1  0
 52 51  1  0
 54 55  1  0
 55 58  1  0
 55 57  1  0
 56 54  2  0
 59 34  1  0
 59 60  1  0
 61 59  1  0
 62  4  1  0
 62 63  1  0
 63 65  1  0
 64 75  2  0
 65 70  1  0
 66 74  1  0
 66 76  1  0
 67 73  1  0
 67 69  1  0
 68 74  1  0
 69 68  1  0
 70 69  2  0
 71 72  1  0
 71 65  2  0
 72 67  2  0
 73 66  1  0
 74 64  1  0
 76 78  2  0
 77 76  1  0
 79 77  1  0
 80 89  2  0
 80 85  1  0
 81 77  1  0
 81 85  1  0
 82 81  1  0
 83 84  1  0
 83 82  1  0
 84 80  1  0
 85 86  2  0
 86 87  1  0
 88 87  2  0
 89 88  1  0
 90 64  1  0
 90 95  1  0
 90 91  1  0
 91 94  1  1
 91 92  1  0
 93 91  1  0
 95 98  1  0
 96100  1  0
 96 95  1  0
 97 96  2  0
100 99  1  0
102100  1  0
102103  1  0
102101  1  0
M  ISO  4  24 100  32 100  62 101  63 101
M  END
>  <TORSDO>  (54) 
F 19

>  <SCORE>  (54) 
-11.425

>  <name>  (54) 
53

>  <ligand_id>  (54) 
53

>  <original_smiles>  (54) 
[H]C([H])=C1N(C([H])([H])c2c([H])c([H])c([H])c(N([H])C(=O)N3C([H])([H])C([H])([H])C([H])([H])C([H])(n4nc(-c5c([H])c([H])c(Oc6c([H])c([H])c(F)c([H])c6F)c([H])c5[H])c(C(=O)N([H])[H])c4N([H])[H])C3([H])[H])c2[H])C(=O)c2c(C([H])([H])[H])c(C([H])([H])[H])c([H])c(C([H])([H])Oc3c([H])c([H])c4c(c3[H])C([H])([H])N(C(=O)C([H])(N([H])C(=O)C([H])(N([H])C([H])([H])[H])C([H])([H])[H])C(C([H])([H])[H])(C([H])([H])[H])C([H])([H])[H])C([H])(C(=O)N([H])C3([H])c5c([H])c([H])c([H])c([H])c5C([H])([H])C([H])([H])C3([H])[H])C4([H])[H])c2C([H])([H])C([H])([H])C1([H])[H]

>  <smiles>  (54) 
[H]C([H])=C1N(C([H])([H])c2c([H])c([H])c([H])c(N([H])C(=O)N3C([H])([H])C([H])([H])C([H])([H])C([H])(n4nc(-c5c([H])c([H])c(Oc6c([H])c([H])c(F)c([H])c6F)c([H])c5[H])c(C(=O)N([H])[H])c4N([H])[H])C3([H])[H])c2[H])C(=O)c2c(C([H])([H])[H])c(C([H])([H])[H])c([H])c(C([H])([H])Oc3c([H])c([H])c4c(c3[H])C([H])([H])N(C(=O)C([H])(N([H])C(=O)C([H])(N([H])C([H])([H])[H])C([H])([H])[H])C(C([H])([H])[H])(C([H])([H])[H])C([H])([H])[H])C([H])(C(=O)N([H])C3([H])c5c([H])c([H])c([H])c([H])c5C([H])([H])C([H])([H])C3([H])[H])C4([H])[H])c2C([H])([H])C([H])([H])C1([H])[H]

$$$$
54:0:0
     RDKit          3D

 92100  0  0  1  0  0  0  0  0999 V2000
  -29.8820  -20.8480   20.0510 C   0  0  0  0  0  2  0  0  0  0  0  0
  -27.4870  -17.7460   20.0080 C   0  0  0  0  0  3  0  0  0  0  0  0
  -28.2820  -16.5800   20.0110 C   0  0  0  0  0  3  0  0  0  0  0  0
  -28.0280  -19.0390   19.9620 C   0  0  0  0  0  3  0  0  0  0  0  0
  -29.6950  -16.5750   19.9440 C   0  0  0  0  0  0  0  0  0  0  0  0
  -30.2380  -17.9890   19.9940 C   0  0  0  0  0  0  0  0  0  0  0  0
  -29.4160  -19.2550   19.9770 C   0  0  0  0  0  0  0  0  0  0  0  0
  -30.4830  -15.1380   19.8140 C   0  0  0  0  0  0  0  0  0  0  0  0
  -30.3760  -12.7290   18.9560 C   0  0  0  0  0  2  0  0  0  0  0  0
  -29.3680  -12.6100   17.7860 C   0  0  0  0  0  2  0  0  0  0  0  0
  -27.9270  -12.3840   18.2900 C   0  0  0  0  0  2  0  0  0  0  0  0
  -27.5790  -13.3020   19.4860 C   0  0  0  0  0  3  0  0  0  0  0  0
  -28.7130  -13.3400   20.5370 C   0  0  0  0  0  2  0  0  0  0  0  0
  -29.9190  -13.8410   19.8520 N   0  0  0  0  0  0  0  0  0  0  0  0
  -31.6660  -15.1550   19.4620 O   0  0  0  0  0  0  0  0  0  0  0  0
  -25.2500  -13.8620   20.3940 C   0  0  0  0  0  0  0  0  0  0  0  0
  -24.2210  -13.0880   20.8400 C   0  0  0  0  0  0  0  0  0  0  0  0
  -24.6740  -11.7370   20.7310 C   0  0  0  0  0  0  0  0  0  0  0  0
  -26.2780  -12.9930   20.0680 N   0  0  0  0  0  0  0  0  0  0  0  0
  -25.9400  -11.7030   20.3280 N   0  0  0  0  0  0  0  0  0  0  0  0
  -23.9490  -10.4770   20.9280 C   0  0  0  0  0  0  0  0  0  0  0  0
  -24.3920   -9.5110   21.8550 C   0  0  0  0  0  3  0  0  0  0  0  0
  -23.6680   -8.3140   22.0420 C   0  0  0  0  0  3  0  0  0  0  0  0
  -22.4850   -8.0780   21.3010 C   0  0  0  0  0  0  0  0  0  0  0  0
  -22.0580   -9.0380   20.3670 C   0  0  0  0  0  3  0  0  0  0  0  0
  -22.7820  -10.2250   20.1780 C   0  0  0  0  0  3  0  0  0  0  0  0
  -21.7280   -6.9360   21.3990 O   0  0  0  0  0  0  0  0  0  0  0  0
  -21.6340   -6.2330   22.5730 C   0  0  0  0  0  0  0  0  0  0  0  0
  -21.1320   -6.8210   23.7550 C   0  0  0  0  0  3  0  0  0  0  0  0
  -20.9830   -6.0420   24.9200 C   0  0  0  0  0  3  0  0  0  0  0  0
  -21.3280   -4.6770   24.9060 C   0  0  0  0  0  0  0  0  0  0  0  0
  -21.8260   -4.0910   23.7290 C   0  0  0  0  0  3  0  0  0  0  0  0
  -21.9750   -4.8660   22.5650 C   0  0  0  0  0  0  0  0  0  0  0  0
  -22.4330   -4.2880   21.4280 F   0  0  0  0  0  0  0  0  0  0  0  0
  -21.1800   -3.9270   26.0230 F   0  0  0  0  0  0  0  0  0  0  0  0
  -22.8510  -13.5690   21.2240 C   0  0  0  0  0  0  0  0  0  0  0  0
  -22.1840  -12.8640   22.1290 N   0  0  0  0  0  0  0  0  0  0  0  0
  -22.3860  -14.6120   20.7610 O   0  0  0  0  0  0  0  0  0  0  0  0
  -22.5760  -12.0240   22.5280 H   0  0  0  0  0  0  0  0  0  0  0  0
  -21.2700  -13.1760   22.4320 H   0  0  0  0  0  0  0  0  0  0  0  0
  -25.3660  -15.2320   20.2020 N   0  0  0  0  0  0  0  0  0  0  0  0
  -24.5040  -15.7650   20.2190 H   0  0  0  0  0  0  0  0  0  0  0  0
  -26.0390  -15.6030   19.5440 H   0  0  0  0  0  0  0  0  0  0  0  0
  -32.2590  -18.0660   21.3630 C   0  0  0  0  0  2  0  0  0  0  0  0
  -31.6930  -18.1560   20.1490 C   0  0  0  0  0  0  0  0  0  0  0  0
  -32.5340  -18.3820   18.9110 C   0  0  0  0  0  1  0  0  0  0  0  0
  -29.1330  -23.5230   20.1980 C   0  0  0  0  0  0  0  0  0  0  0  0
  -28.9570  -22.1370   19.8850 N   0  0  0  0  0  0  0  0  0  0  0  0
  -30.1530  -23.8470   20.8100 O   0  0  0  0  0  0  0  0  0  0  0  0
  -28.1100  -21.9510   19.3640 H   0  0  0  0  0  0  0  0  0  0  0  0
  -28.0830  -24.7600   19.8050 C   0  0  0  0  0  2  0  0  0  0  0  0
  -28.3040  -26.2620   20.1940 O   0  0  0  0  0  0  0  0  0  0  0  0
  -24.6260  -31.8920   23.2900 C   0  0  0  0  0  0  0  0  0  0  0  0
  -27.2390  -27.2490   20.1460 C   0  0  0  0  0  0  0  0  0  0  0  0
  -23.4310  -30.5320   21.6120 C   0  0  0  0  0  3  0  0  0  0  0  0
  -24.8920  -28.9860   20.1560 C   0  0  0  0  0  0  0  0  0  0  0  0
  -25.9850  -30.8040   21.4600 C   0  0  0  0  0  2  0  0  0  0  0  0
  -26.0670  -29.4230   20.7800 C   0  0  0  0  0  0  0  0  0  0  0  0
  -27.2410  -28.5740   20.7530 C   0  0  0  0  0  3  0  0  0  0  0  0
  -26.0300  -26.9160   19.4910 C   0  0  0  0  0  3  0  0  0  0  0  0
  -24.8890  -27.7470   19.4960 C   0  0  0  0  0  3  0  0  0  0  0  0
  -23.6590  -29.8770   20.2200 C   0  0  0  0  0  2  0  0  0  0  0  0
  -24.7010  -31.0970   22.1760 N   0  0  0  0  0  0  0  0  0  0  0  0
  -23.5390  -32.1660   23.8200 O   0  0  0  0  0  0  0  0  0  0  0  0
  -22.7450  -29.5120   22.5530 C   0  0  0  0  0  0  0  0  0  0  0  0
  -21.4180  -29.3440   22.4120 N   0  0  0  0  0  0  0  0  0  0  0  0
  -23.4090  -28.8770   23.3760 O   0  0  0  0  0  0  0  0  0  0  0  0
  -20.9460  -29.9160   21.7260 H   0  0  0  0  0  0  0  0  0  0  0  0
  -18.0320  -28.1410   22.8700 C   0  0  0  0  0  0  0  0  0  0  0  0
  -20.5900  -28.3880   23.1510 C   0  0  0  0  0  3  0  0  0  0  0  0
  -20.6850  -26.9700   22.5390 C   0  0  0  0  0  2  0  0  0  0  0  0
  -19.5880  -26.6800   21.5080 C   0  0  0  0  0  2  0  0  0  0  0  0
  -18.2050  -26.8150   22.1450 C   0  0  0  0  0  2  0  0  0  0  0  0
  -19.1530  -28.8860   23.3250 C   0  0  0  0  0  0  0  0  0  0  0  0
  -18.9360  -30.1280   23.9620 C   0  0  0  0  0  3  0  0  0  0  0  0
  -17.6320  -30.6260   24.1450 C   0  0  0  0  0  3  0  0  0  0  0  0
  -16.5270  -29.8780   23.7030 C   0  0  0  0  0  3  0  0  0  0  0  0
  -16.7270  -28.6370   23.0740 C   0  0  0  0  0  3  0  0  0  0  0  0
  -25.9010  -32.5080   23.9420 C   0  0  0  0  0  3  0  0  0  0  0  0
  -26.3620  -31.7410   25.2430 C   0  0  1  0  0  0  0  0  0  0  0  0
  -25.2290  -31.5400   26.2760 C   0  0  0  0  0  1  0  0  0  0  0  0
  -26.9280  -30.3480   24.8850 C   0  0  0  0  0  1  0  0  0  0  0  0
  -27.5120  -32.5170   25.9270 C   0  0  0  0  0  1  0  0  0  0  0  0
  -25.6070  -33.9160   24.2570 N   0  0  0  0  0  0  0  0  0  0  0  0
  -25.9470  -34.9580   23.4870 C   0  0  0  0  0  0  0  0  0  0  0  0
  -26.6100  -34.8350   22.4540 O   0  0  0  0  0  0  0  0  0  0  0  0
  -25.0110  -34.0830   25.0540 H   0  0  0  0  0  0  0  0  0  0  0  0
  -24.2200  -36.7600   23.1570 C   0  0  0  0  0  1  0  0  0  0  0  0
  -25.4840  -36.3590   23.9360 C   0  0  0  0  0  3  0  0  0  0  0  0
  -27.6470  -37.2490   24.6910 C   0  0  0  0  0  1  0  0  0  0  0  0
  -26.5210  -37.4030   23.7700 N   0  0  0  0  0  0  0  0  0  0  0  0
  -26.1260  -38.3300   23.8990 H   0  0  0  0  0  0  0  0  0  0  0  0
  2  3  1  0
  4  7  1  0
  4  2  2  0
  5  6  1  0
  5  3  2  0
  6 45  1  0
  7  6  2  0
  7  1  1  0
  8 14  1  0
  8  5  1  0
  9 14  1  0
 10 11  1  0
 10  9  1  0
 12 11  1  0
 12 19  1  0
 12 13  1  0
 14 13  1  0
 15  8  2  0
 16 17  2  0
 17 36  1  0
 18 17  1  0
 18 21  1  0
 19 20  1  0
 19 16  1  0
 20 18  2  0
 21 22  1  0
 22 23  2  0
 24 27  1  0
 24 23  1  0
 25 24  2  0
 26 25  1  0
 26 21  2  0
 27 28  1  0
 28 29  1  0
 29 30  2  0
 31 30  1  0
 31 35  1  0
 32 31  2  0
 33 28  2  0
 33 32  1  0
 34 33  1  0
 36 37  1  0
 37 40  1  0
 37 39  1  0
 38 36  2  0
 41 42  1  0
 41 16  1  0
 43 41  1  0
 45 44  2  0
 46 45  1  0
 47 49  2  0
 48  1  1  0
 48 47  1  0
 50 48  1  0
 51 52  1  0
 51 47  1  0
 53 64  2  0
 54 52  1  0
 54 59  1  0
 55 63  1  0
 55 65  1  0
 56 62  1  0
 56 58  1  0
 57 63  1  0
 58 57  1  0
 59 58  2  0
 60 61  1  0
 60 54  2  0
 61 56  2  0
 62 55  1  0
 63 53  1  0
 65 67  2  0
 66 65  1  0
 68 66  1  0
 69 78  2  0
 69 74  1  0
 70 66  1  0
 70 74  1  0
 71 70  1  0
 72 73  1  0
 72 71  1  0
 73 69  1  0
 74 75  2  0
 75 76  1  0
 77 76  2  0
 78 77  1  0
 79 53  1  0
 79 84  1  0
 79 80  1  0
 80 83  1  1
 80 81  1  0
 82 80  1  0
 84 87  1  0
 85 89  1  0
 85 84  1  0
 86 85  2  0
 89 88  1  0
 91 92  1  0
 91 89  1  0
 91 90  1  0
M  ISO  4   5 100   8 100  51 101  52 101
M  END
>  <TORSDO>  (55) 
F 20

>  <SCORE>  (55) 
-13.907

>  <name>  (55) 
54

>  <ligand_id>  (55) 
54

>  <original_smiles>  (55) 
[H]C([H])=C(c1c(C(=O)N2C([H])([H])C([H])([H])C([H])([H])C([H])(n3nc(-c4c([H])c([H])c(Oc5c([H])c([H])c(F)c([H])c5F)c([H])c4[H])c(C(=O)N([H])[H])c3N([H])[H])C2([H])[H])c([H])c([H])c([H])c1C([H])([H])N([H])C(=O)C([H])([H])Oc1c([H])c([H])c2c(c1[H])C([H])([H])N(C(=O)C([H])(N([H])C(=O)C([H])(N([H])C([H])([H])[H])C([H])([H])[H])C(C([H])([H])[H])(C([H])([H])[H])C([H])([H])[H])C([H])(C(=O)N([H])C1([H])c3c([H])c([H])c([H])c([H])c3C([H])([H])C([H])([H])C1([H])[H])C2([H])[H])C([H])([H])[H]

>  <smiles>  (55) 
[H]C([H])=C(c1c(C(=O)N2C([H])([H])C([H])([H])C([H])([H])C([H])(n3nc(-c4c([H])c([H])c(Oc5c([H])c([H])c(F)c([H])c5F)c([H])c4[H])c(C(=O)N([H])[H])c3N([H])[H])C2([H])[H])c([H])c([H])c([H])c1C([H])([H])N([H])C(=O)C([H])([H])Oc1c([H])c([H])c2c(c1[H])C([H])([H])N(C(=O)C([H])(N([H])C(=O)C([H])(N([H])C([H])([H])[H])C([H])([H])[H])C(C([H])([H])[H])(C([H])([H])[H])C([H])([H])[H])C([H])(C(=O)N([H])C1([H])c3c([H])c([H])c([H])c([H])c3C([H])([H])C([H])([H])C1([H])[H])C2([H])[H])C([H])([H])[H]

$$$$
55:0:0
     RDKit          3D

 98106  0  0  1  0  0  0  0  0999 V2000
  -30.7090  -22.1970   17.7740 C   0  0  0  0  0  1  0  0  0  0  0  0
  -33.0910  -22.7850   17.3140 C   0  0  0  0  0  1  0  0  0  0  0  0
  -31.6550  -22.8380   16.7310 C   0  0  1  0  0  0  0  0  0  0  0  0
  -31.6290  -22.0350   15.4000 C   0  0  0  0  0  0  0  0  0  0  0  0
  -30.4780  -21.9840   14.7180 N   0  0  0  0  0  0  0  0  0  0  0  0
  -32.6520  -21.4940   14.9740 O   0  0  0  0  0  0  0  0  0  0  0  0
  -29.6670  -22.4280   15.1280 H   0  0  0  0  0  0  0  0  0  0  0  0
  -30.3200  -21.4050   13.3810 C   0  0  0  0  0  2  0  0  0  0  0  0
  -29.9120  -22.4660   12.3490 C   0  0  0  0  0  2  0  0  0  0  0  0
  -28.4950  -22.4920   12.1880 O   0  0  0  0  0  0  0  0  0  0  0  0
  -27.6610  -22.7470    5.1410 C   0  0  0  0  0  0  0  0  0  0  0  0
  -28.1120  -23.2410   11.1040 C   0  0  0  0  0  0  0  0  0  0  0  0
  -27.5350  -24.9170    6.3230 C   0  0  0  0  0  3  0  0  0  0  0  0
  -27.3800  -24.7850    8.8660 C   0  0  0  0  0  0  0  0  0  0  0  0
  -26.8750  -22.7470    7.5040 C   0  0  0  0  0  2  0  0  0  0  0  0
  -27.3240  -23.3870    8.8000 C   0  0  0  0  0  0  0  0  0  0  0  0
  -27.6850  -22.6080    9.9200 C   0  0  0  0  0  3  0  0  0  0  0  0
  -28.1670  -24.6460   11.1660 C   0  0  0  0  0  3  0  0  0  0  0  0
  -27.8010  -25.4230   10.0480 C   0  0  0  0  0  3  0  0  0  0  0  0
  -26.9660  -25.5430    7.6250 C   0  0  0  0  0  2  0  0  0  0  0  0
  -27.3900  -23.4240    6.2920 N   0  0  0  0  0  0  0  0  0  0  0  0
  -27.9840  -23.3440    4.1050 O   0  0  0  0  0  0  0  0  0  0  0  0
  -28.9940  -25.3920    6.1450 C   0  0  0  0  0  0  0  0  0  0  0  0
  -29.1620  -26.6230    5.6320 N   0  0  0  0  0  0  0  0  0  0  0  0
  -29.9390  -24.6780    6.4870 O   0  0  0  0  0  0  0  0  0  0  0  0
  -28.3360  -27.1420    5.3700 H   0  0  0  0  0  0  0  0  0  0  0  0
  -30.6770  -29.6390    4.3470 C   0  0  0  0  0  0  0  0  0  0  0  0
  -30.4420  -27.2970    5.4100 C   0  0  0  0  0  3  0  0  0  0  0  0
  -30.9600  -27.9460    6.7140 C   0  0  0  0  0  2  0  0  0  0  0  0
  -30.5420  -29.4120    6.8640 C   0  0  0  0  0  2  0  0  0  0  0  0
  -31.0640  -30.2420    5.6870 C   0  0  0  0  0  2  0  0  0  0  0  0
  -30.3700  -28.2590    4.2200 C   0  0  0  0  0  0  0  0  0  0  0  0
  -29.9810  -27.7560    2.9600 C   0  0  0  0  0  3  0  0  0  0  0  0
  -29.9010  -28.6050    1.8410 C   0  0  0  0  0  3  0  0  0  0  0  0
  -30.2240  -29.9660    1.9680 C   0  0  0  0  0  3  0  0  0  0  0  0
  -30.6140  -30.4800    3.2170 C   0  0  0  0  0  3  0  0  0  0  0  0
  -27.5530  -21.1910    5.0640 C   0  0  0  0  0  3  0  0  0  0  0  0
  -26.9160  -20.8540    3.7840 N   0  0  0  0  0  0  0  0  0  0  0  0
  -25.6120  -20.5810    3.6320 C   0  0  0  0  0  0  0  0  0  0  0  0
  -24.8280  -20.5110    4.5830 O   0  0  0  0  0  0  0  0  0  0  0  0
  -27.4860  -20.9470    2.9580 H   0  0  0  0  0  0  0  0  0  0  0  0
  -24.4210  -21.6210    1.6770 C   0  0  0  0  0  1  0  0  0  0  0  0
  -25.0990  -20.3450    2.1990 C   0  0  0  0  0  3  0  0  0  0  0  0
  -24.8060  -17.9090    2.3070 C   0  0  0  0  0  1  0  0  0  0  0  0
  -24.1650  -19.2030    2.0880 N   0  0  0  0  0  0  0  0  0  0  0  0
  -23.7230  -19.1870    1.1730 H   0  0  0  0  0  0  0  0  0  0  0  0
  -28.9460  -20.4640    5.2020 C   0  0  1  0  0  0  0  0  0  0  0  0
  -30.0250  -20.9990    4.2330 C   0  0  0  0  0  1  0  0  0  0  0  0
  -29.4930  -20.6040    6.6420 C   0  0  0  0  0  1  0  0  0  0  0  0
  -28.7770  -18.9480    4.9380 C   0  0  0  0  0  1  0  0  0  0  0  0
  -31.2130  -24.3070   16.4330 C   0  0  0  0  0  2  0  0  0  0  0  0
  -31.0790  -25.1150   17.6070 O   0  0  0  0  0  0  0  0  0  0  0  0
  -28.7020  -24.5680   17.9480 C   0  0  0  0  0  3  0  0  0  0  0  0
  -27.4040  -24.9950   18.2750 C   0  0  0  0  0  3  0  0  0  0  0  0
  -28.2760  -27.1950   18.8220 C   0  0  0  0  0  3  0  0  0  0  0  0
  -29.5940  -26.7670   18.5300 C   0  0  0  0  0  0  0  0  0  0  0  0
  -29.8060  -25.4610   18.0190 C   0  0  0  0  0  0  0  0  0  0  0  0
  -27.1860  -26.3190   18.6890 C   0  0  0  0  0  0  0  0  0  0  0  0
  -25.5840  -26.8610   19.0440 Cl  0  0  0  0  0  0  0  0  0  0  0  0
  -30.7640  -27.7190   18.7910 C   0  0  0  0  0  2  0  0  0  0  0  0
  -31.4960  -29.0180   20.8260 C   0  0  0  0  0  0  0  0  0  0  0  0
  -32.0350  -29.4040   23.1960 C   0  0  0  0  0  2  0  0  0  0  0  0
  -32.2090  -28.0400   23.8980 C   0  0  0  0  0  2  0  0  0  0  0  0
  -30.8540  -27.4770   24.3730 C   0  0  0  0  0  2  0  0  0  0  0  0
  -29.7700  -27.5100   23.2650 C   0  0  0  0  0  3  0  0  0  0  0  0
  -29.7200  -28.9100   22.6140 C   0  0  0  0  0  2  0  0  0  0  0  0
  -31.0710  -29.2250   22.1020 N   0  0  0  0  0  0  0  0  0  0  0  0
  -32.6510  -29.2260   20.4440 O   0  0  0  0  0  0  0  0  0  0  0  0
  -30.5730  -28.4390   20.0510 N   0  0  0  0  0  0  0  0  0  0  0  0
  -29.6790  -28.3000   20.4920 H   0  0  0  0  0  0  0  0  0  0  0  0
  -27.4190  -26.4650   23.1250 C   0  0  0  0  0  0  0  0  0  0  0  0
  -26.4490  -26.2610   24.0700 C   0  0  0  0  0  0  0  0  0  0  0  0
  -26.9730  -26.7870   25.2890 C   0  0  0  0  0  0  0  0  0  0  0  0
  -28.4610  -27.1010   23.7770 N   0  0  0  0  0  0  0  0  0  0  0  0
  -28.1620  -27.3370   25.0810 N   0  0  0  0  0  0  0  0  0  0  0  0
  -26.4380  -26.7480   26.6560 C   0  0  0  0  0  0  0  0  0  0  0  0
  -26.3480  -27.9140   27.4480 C   0  0  0  0  0  3  0  0  0  0  0  0
  -25.8170  -27.8510   28.7540 C   0  0  0  0  0  3  0  0  0  0  0  0
  -25.3680  -26.6160   29.2800 C   0  0  0  0  0  0  0  0  0  0  0  0
  -25.4840  -25.4550   28.4950 C   0  0  0  0  0  3  0  0  0  0  0  0
  -26.0170  -25.5180   27.1980 C   0  0  0  0  0  3  0  0  0  0  0  0
  -24.8630  -26.4590   30.5500 O   0  0  0  0  0  0  0  0  0  0  0  0
  -24.3630  -27.5190   31.2620 C   0  0  0  0  0  0  0  0  0  0  0  0
  -23.2990  -28.3100   30.7760 C   0  0  0  0  0  3  0  0  0  0  0  0
  -22.7690  -29.3440   31.5740 C   0  0  0  0  0  3  0  0  0  0  0  0
  -23.2960  -29.5850   32.8560 C   0  0  0  0  0  0  0  0  0  0  0  0
  -24.3510  -28.7930   33.3450 C   0  0  0  0  0  3  0  0  0  0  0  0
  -24.8800  -27.7620   32.5500 C   0  0  0  0  0  0  0  0  0  0  0  0
  -25.8850  -26.9900   33.0320 F   0  0  0  0  0  0  0  0  0  0  0  0
  -22.7830  -30.5730   33.6260 F   0  0  0  0  0  0  0  0  0  0  0  0
  -25.1520  -25.5260   23.8770 C   0  0  0  0  0  0  0  0  0  0  0  0
  -24.1130  -25.9080   24.6110 N   0  0  0  0  0  0  0  0  0  0  0  0
  -25.0390  -24.6300   23.0410 O   0  0  0  0  0  0  0  0  0  0  0  0
  -24.1930  -26.6600   25.2790 H   0  0  0  0  0  0  0  0  0  0  0  0
  -23.2220  -25.4430   24.4980 H   0  0  0  0  0  0  0  0  0  0  0  0
  -27.5140  -26.1420   21.7750 N   0  0  0  0  0  0  0  0  0  0  0  0
  -26.7830  -25.6340   21.2930 H   0  0  0  0  0  0  0  0  0  0  0  0
  -28.3320  -26.2970   21.2010 H   0  0  0  0  0  0  0  0  0  0  0  0
  3  2  1  1
  3  1  1  0
  4  3  1  0
  5  7  1  0
  5  4  1  0
  6  4  2  0
  8  5  1  0
  9  8  1  0
 10  9  1  0
 11 21  1  0
 12 18  1  0
 12 10  1  0
 13 23  1  0
 13 20  1  0
 14 19  1  0
 15 16  1  0
 16 14  2  0
 16 17  1  0
 17 12  2  0
 19 18  2  0
 20 14  1  0
 21 13  1  0
 21 15  1  0
 22 11  2  0
 23 25  2  0
 24 23  1  0
 26 24  1  0
 27 31  1  0
 28 24  1  0
 28 29  1  0
 29 30  1  0
 31 30  1  0
 32 27  1  0
 32 28  1  0
 33 32  2  0
 34 35  2  0
 34 33  1  0
 35 36  1  0
 36 27  2  0
 37 11  1  0
 37 47  1  0
 38 37  1  0
 39 38  1  0
 39 40  2  0
 41 38  1  0
 43 42  1  0
 43 39  1  0
 45 43  1  0
 45 44  1  0
 46 45  1  0
 47 49  1  1
 48 47  1  0
 50 47  1  0
 51  3  1  0
 51 52  1  0
 52 57  1  0
 53 57  2  0
 53 54  1  0
 54 58  2  0
 56 60  1  0
 56 55  2  0
 57 56  1  0
 58 55  1  0
 58 59  1  0
 60 69  1  0
 61 67  1  0
 62 63  1  0
 63 64  1  0
 65 66  1  0
 65 74  1  0
 65 64  1  0
 67 66  1  0
 67 62  1  0
 68 61  2  0
 69 70  1  0
 69 61  1  0
 71 74  1  0
 71 72  2  0
 72 73  1  0
 73 76  1  0
 74 75  1  0
 75 73  2  0
 76 81  2  0
 76 77  1  0
 77 78  2  0
 78 79  1  0
 79 82  1  0
 80 79  2  0
 81 80  1  0
 82 83  1  0
 83 88  1  0
 84 83  2  0
 84 85  1  0
 85 86  2  0
 86 87  1  0
 86 90  1  0
 88 89  1  0
 88 87  2  0
 91 72  1  0
 91 92  1  0
 92 94  1  0
 93 91  2  0
 95 92  1  0
 96 71  1  0
 97 96  1  0
 98 96  1  0
M  ISO  4   9 101  10 101  61 100  69 100
M  END
>  <TORSDO>  (56) 
F 23

>  <SCORE>  (56) 
-3.110

>  <name>  (56) 
55

>  <ligand_id>  (56) 
55

>  <original_smiles>  (56) 
[H]c1c([H])c([H])c2c(c1[H])C([H])([H])C([H])([H])C([H])([H])C2([H])N([H])C(=O)C1([H])N(C(=O)C([H])(N([H])C(=O)C([H])(N([H])C([H])([H])[H])C([H])([H])[H])C(C([H])([H])[H])(C([H])([H])[H])C([H])([H])[H])C([H])([H])c2c([H])c(OC([H])([H])C([H])([H])N([H])C(=O)C(C([H])([H])[H])(C([H])([H])[H])C([H])([H])Oc3c([H])c([H])c(Cl)c([H])c3C([H])([H])N([H])C(=O)N3C([H])([H])C([H])([H])C([H])([H])C([H])(n4nc(-c5c([H])c([H])c(Oc6c([H])c([H])c(F)c([H])c6F)c([H])c5[H])c(C(=O)N([H])[H])c4N([H])[H])C3([H])[H])c([H])c([H])c2C1([H])[H]

>  <smiles>  (56) 
[H]c1c([H])c([H])c2c(c1[H])C([H])([H])C([H])([H])C([H])([H])C2([H])N([H])C(=O)C1([H])N(C(=O)C([H])(N([H])C(=O)C([H])(N([H])C([H])([H])[H])C([H])([H])[H])C(C([H])([H])[H])(C([H])([H])[H])C([H])([H])[H])C([H])([H])c2c([H])c(OC([H])([H])C([H])([H])N([H])C(=O)C(C([H])([H])[H])(C([H])([H])[H])C([H])([H])Oc3c([H])c([H])c(Cl)c([H])c3C([H])([H])N([H])C(=O)N3C([H])([H])C([H])([H])C([H])([H])C([H])(n4nc(-c5c([H])c([H])c(Oc6c([H])c([H])c(F)c([H])c6F)c([H])c5[H])c(C(=O)N([H])[H])c4N([H])[H])C3([H])[H])c([H])c([H])c2C1([H])[H]

$$$$
56:0:0
     RDKit          3D

 95103  0  0  1  0  0  0  0  0999 V2000
  -28.8900  -21.2360   20.6870 C   0  0  0  0  0  0  0  0  0  0  0  0
  -28.3100  -23.8120   20.4820 C   0  0  0  0  0  0  0  0  0  0  0  0
  -29.0210  -22.5230   20.1430 N   0  0  0  0  0  0  0  0  0  0  0  0
  -27.8680  -21.0130   21.5160 N   0  0  0  0  0  4  0  0  0  0  0  0
  -27.5160  -23.8380   21.4290 O   0  0  0  0  0  0  0  0  0  0  0  0
  -29.6890  -22.5170   19.3880 H   0  0  0  0  0  0  0  0  0  0  0  0
  -27.7840  -20.1290   21.9930 H   0  0  0  0  0  0  0  0  0  0  0  0
  -27.2780  -21.7880   21.7880 H   0  0  0  0  0  0  0  0  0  0  0  0
  -32.1540  -19.1640   20.4220 C   0  0  0  0  0  3  0  0  0  0  0  0
  -31.7210  -17.8260   20.4220 C   0  0  0  0  0  3  0  0  0  0  0  0
  -29.4370  -18.6240   20.4870 C   0  0  0  0  0  3  0  0  0  0  0  0
  -29.8530  -20.0340   20.4990 C   0  0  0  0  0  0  0  0  0  0  0  0
  -31.2620  -20.2570   20.4730 C   0  0  0  0  0  0  0  0  0  0  0  0
  -30.3510  -17.4790   20.4540 C   0  0  0  0  0  0  0  0  0  0  0  0
  -31.8960  -21.6430   20.5550 C   0  0  0  0  0  1  0  0  0  0  0  0
  -30.6820  -14.8590   20.2480 C   0  0  0  0  0  0  0  0  0  0  0  0
  -30.4430  -12.5920   19.2150 C   0  0  0  0  0  2  0  0  0  0  0  0
  -29.4940  -12.6730   18.0010 C   0  0  0  0  0  2  0  0  0  0  0  0
  -28.0320  -12.4880   18.4490 C   0  0  0  0  0  2  0  0  0  0  0  0
  -27.6700  -13.3620   19.6800 C   0  0  0  0  0  3  0  0  0  0  0  0
  -28.7440  -13.2840   20.7860 C   0  0  0  0  0  2  0  0  0  0  0  0
  -30.0280  -13.6460   20.1730 N   0  0  0  0  0  0  0  0  0  0  0  0
  -31.8660  -14.8970   19.9100 O   0  0  0  0  0  0  0  0  0  0  0  0
  -29.9500  -16.0290   20.4800 N   0  0  0  0  0  0  0  0  0  0  0  0
  -28.9730  -15.8620   20.6600 H   0  0  0  0  0  0  0  0  0  0  0  0
  -25.2860  -13.9280   20.4340 C   0  0  0  0  0  0  0  0  0  0  0  0
  -24.2330  -13.1430   20.8160 C   0  0  0  0  0  0  0  0  0  0  0  0
  -24.7090  -11.7970   20.7820 C   0  0  0  0  0  0  0  0  0  0  0  0
  -26.3370  -13.0580   20.1880 N   0  0  0  0  0  0  0  0  0  0  0  0
  -25.9970  -11.7720   20.4610 N   0  0  0  0  0  0  0  0  0  0  0  0
  -23.9960  -10.5280   20.9800 C   0  0  0  0  0  0  0  0  0  0  0  0
  -24.4360   -9.5720   21.9220 C   0  0  0  0  0  3  0  0  0  0  0  0
  -23.7210   -8.3690   22.1070 C   0  0  0  0  0  3  0  0  0  0  0  0
  -22.5530   -8.1120   21.3500 C   0  0  0  0  0  0  0  0  0  0  0  0
  -22.1330   -9.0570   20.3980 C   0  0  0  0  0  3  0  0  0  0  0  0
  -22.8480  -10.2520   20.2110 C   0  0  0  0  0  3  0  0  0  0  0  0
  -21.8100   -6.9600   21.4450 O   0  0  0  0  0  0  0  0  0  0  0  0
  -21.7550   -6.2320   22.6070 C   0  0  0  0  0  0  0  0  0  0  0  0
  -21.2920   -6.7950   23.8160 C   0  0  0  0  0  3  0  0  0  0  0  0
  -21.1840   -5.9930   24.9690 C   0  0  0  0  0  3  0  0  0  0  0  0
  -21.5300   -4.6290   24.9140 C   0  0  0  0  0  0  0  0  0  0  0  0
  -21.9870   -4.0660   23.7090 C   0  0  0  0  0  3  0  0  0  0  0  0
  -22.0950   -4.8650   22.5580 C   0  0  0  0  0  0  0  0  0  0  0  0
  -22.5150   -4.3140   21.3950 F   0  0  0  0  0  0  0  0  0  0  0  0
  -21.4200   -3.8570   26.0210 F   0  0  0  0  0  0  0  0  0  0  0  0
  -22.8330  -13.6070   21.0970 C   0  0  0  0  0  0  0  0  0  0  0  0
  -22.1170  -12.9050   21.9670 N   0  0  0  0  0  0  0  0  0  0  0  0
  -22.3840  -14.6310   20.5810 O   0  0  0  0  0  0  0  0  0  0  0  0
  -22.4940  -12.0780   22.4070 H   0  0  0  0  0  0  0  0  0  0  0  0
  -21.1780  -13.1980   22.1970 H   0  0  0  0  0  0  0  0  0  0  0  0
  -25.4350  -15.2990   20.2500 N   0  0  0  0  0  0  0  0  0  0  0  0
  -24.6560  -15.9410   20.3530 H   0  0  0  0  0  0  0  0  0  0  0  0
  -26.2580  -15.7400   19.8630 H   0  0  0  0  0  0  0  0  0  0  0  0
  -28.5490  -25.1370   19.6040 C   0  0  0  0  0  2  0  0  0  0  0  0
  -28.4110  -26.4950   20.2470 O   0  0  0  0  0  0  0  0  0  0  0  0
  -24.6240  -31.9020   23.2280 C   0  0  0  0  0  0  0  0  0  0  0  0
  -27.2780  -27.3370   20.1570 C   0  0  0  0  0  0  0  0  0  0  0  0
  -23.4360  -30.5000   21.5790 C   0  0  0  0  0  3  0  0  0  0  0  0
  -24.9020  -28.9620   20.1460 C   0  0  0  0  0  0  0  0  0  0  0  0
  -25.9750  -30.8290   21.4060 C   0  0  0  0  0  2  0  0  0  0  0  0
  -26.0660  -29.4500   20.7500 C   0  0  0  0  0  0  0  0  0  0  0  0
  -27.2520  -28.6490   20.7470 C   0  0  0  0  0  3  0  0  0  0  0  0
  -26.0860  -26.9100   19.5310 C   0  0  0  0  0  3  0  0  0  0  0  0
  -24.9180  -27.7010   19.5270 C   0  0  0  0  0  3  0  0  0  0  0  0
  -23.6590  -29.8310   20.1970 C   0  0  0  0  0  2  0  0  0  0  0  0
  -24.6980  -31.0970   22.1280 N   0  0  0  0  0  0  0  0  0  0  0  0
  -23.5370  -32.1690   23.7620 O   0  0  0  0  0  0  0  0  0  0  0  0
  -22.7780  -29.4770   22.5360 C   0  0  0  0  0  0  0  0  0  0  0  0
  -21.4520  -29.2950   22.4120 N   0  0  0  0  0  0  0  0  0  0  0  0
  -23.4600  -28.8490   23.3500 O   0  0  0  0  0  0  0  0  0  0  0  0
  -20.9600  -29.8540   21.7280 H   0  0  0  0  0  0  0  0  0  0  0  0
  -18.0800  -28.0820   22.9160 C   0  0  0  0  0  0  0  0  0  0  0  0
  -20.6400  -28.3490   23.1780 C   0  0  0  0  0  3  0  0  0  0  0  0
  -20.7440  -26.9220   22.5910 C   0  0  0  0  0  2  0  0  0  0  0  0
  -19.6400  -26.6040   21.5770 C   0  0  0  0  0  2  0  0  0  0  0  0
  -18.2600  -26.7390   22.2280 C   0  0  0  0  0  2  0  0  0  0  0  0
  -19.1980  -28.8440   23.3490 C   0  0  0  0  0  0  0  0  0  0  0  0
  -18.9770  -30.1010   23.9530 C   0  0  0  0  0  3  0  0  0  0  0  0
  -17.6700  -30.5950   24.1290 C   0  0  0  0  0  3  0  0  0  0  0  0
  -16.5680  -29.8290   23.7130 C   0  0  0  0  0  3  0  0  0  0  0  0
  -16.7730  -28.5740   23.1120 C   0  0  0  0  0  3  0  0  0  0  0  0
  -25.8990  -32.5450   23.8570 C   0  0  0  0  0  3  0  0  0  0  0  0
  -25.5800  -33.9430   24.1800 N   0  0  0  0  0  0  0  0  0  0  0  0
  -25.9130  -34.9970   23.4240 C   0  0  0  0  0  0  0  0  0  0  0  0
  -26.5910  -34.8940   22.3970 O   0  0  0  0  0  0  0  0  0  0  0  0
  -24.9790  -34.0970   24.9770 H   0  0  0  0  0  0  0  0  0  0  0  0
  -24.1850  -36.7870   23.0490 C   0  0  0  0  0  1  0  0  0  0  0  0
  -25.4180  -36.3850   23.8740 C   0  0  0  0  0  3  0  0  0  0  0  0
  -27.5400  -37.2760   24.7310 C   0  0  0  0  0  1  0  0  0  0  0  0
  -26.4490  -37.4410   23.7740 N   0  0  0  0  0  0  0  0  0  0  0  0
  -26.0380  -38.3600   23.9190 H   0  0  0  0  0  0  0  0  0  0  0  0
  -26.4090  -31.7830   25.1430 C   0  0  1  0  0  0  0  0  0  0  0  0
  -25.3090  -31.5480   26.2040 C   0  0  0  0  0  1  0  0  0  0  0  0
  -26.9990  -30.4050   24.7650 C   0  0  0  0  0  1  0  0  0  0  0  0
  -27.5510  -32.5850   25.8080 C   0  0  0  0  0  1  0  0  0  0  0  0
  1  4  2  0
  2  5  2  0
  3  2  1  0
  3  1  1  0
  4  8  1  0
  4  7  1  0
  6  3  1  0
  9 13  1  0
 10  9  2  0
 10 14  1  0
 11 12  1  0
 12  1  1  0
 13 12  2  0
 13 15  1  0
 14 24  1  0
 14 11  2  0
 16 24  1  0
 17 22  1  0
 18 19  1  0
 18 17  1  0
 20 19  1  0
 20 29  1  0
 20 21  1  0
 22 16  1  0
 22 21  1  0
 23 16  2  0
 24 25  1  0
 26 27  2  0
 27 46  1  0
 28 27  1  0
 28 31  1  0
 29 26  1  0
 29 30  1  0
 30 28  2  0
 31 32  1  0
 32 33  2  0
 34 37  1  0
 34 33  1  0
 35 34  2  0
 36 35  1  0
 36 31  2  0
 37 38  1  0
 38 39  1  0
 39 40  2  0
 41 40  1  0
 41 45  1  0
 42 41  2  0
 43 38  2  0
 43 42  1  0
 44 43  1  0
 46 47  1  0
 47 50  1  0
 47 49  1  0
 48 46  2  0
 51 52  1  0
 51 26  1  0
 53 51  1  0
 54 55  1  0
 54  2  1  0
 56 67  2  0
 57 55  1  0
 57 62  1  0
 58 66  1  0
 58 68  1  0
 59 65  1  0
 59 61  1  0
 60 66  1  0
 61 60  1  0
 62 61  2  0
 63 57  2  0
 64 63  1  0
 64 59  2  0
 65 58  1  0
 66 56  1  0
 68 70  2  0
 69 68  1  0
 71 69  1  0
 72 81  2  0
 72 77  1  0
 73 69  1  0
 73 77  1  0
 74 73  1  0
 75 76  1  0
 75 74  1  0
 76 72  1  0
 77 78  2  0
 78 79  1  0
 80 79  2  0
 81 80  1  0
 82 56  1  0
 82 83  1  0
 82 92  1  0
 83 86  1  0
 84 88  1  0
 84 83  1  0
 85 84  2  0
 88 87  1  0
 90 88  1  0
 90 91  1  0
 90 89  1  0
 92 95  1  1
 92 93  1  0
 94 92  1  0
M  ISO  4  16 100  24 100  54 101  55 101
M  END
>  <TORSDO>  (57) 
F 18

>  <SCORE>  (57) 
-14.909

>  <name>  (57) 
56

>  <ligand_id>  (57) 
56

>  <original_smiles>  (57) 
[H]c1c([H])c([H])c2c(c1[H])C([H])([H])C([H])([H])C([H])([H])C2([H])N([H])C(=O)C1([H])N(C(=O)C([H])(N([H])C(=O)C([H])(N([H])C([H])([H])[H])C([H])([H])[H])C(C([H])([H])[H])(C([H])([H])[H])C([H])([H])[H])C([H])([H])c2c([H])c(OC([H])([H])C(=O)N([H])C(c3c([H])c(N([H])C(=O)N4C([H])([H])C([H])([H])C([H])([H])C([H])(n5nc(-c6c([H])c([H])c(Oc7c([H])c([H])c(F)c([H])c7F)c([H])c6[H])c(C(=O)N([H])[H])c5N([H])[H])C4([H])[H])c([H])c([H])c3C([H])([H])[H])=[N+]([H])[H])c([H])c([H])c2C1([H])[H]

>  <smiles>  (57) 
[H]c1c([H])c([H])c2c(c1[H])C([H])([H])C([H])([H])C([H])([H])C2([H])N([H])C(=O)C1([H])N(C(=O)C([H])(N([H])C(=O)C([H])(N([H])C([H])([H])[H])C([H])([H])[H])C(C([H])([H])[H])(C([H])([H])[H])C([H])([H])[H])C([H])([H])c2c([H])c(OC([H])([H])C(=O)N([H])C(c3c([H])c(N([H])C(=O)N4C([H])([H])C([H])([H])C([H])([H])C([H])(n5nc(-c6c([H])c([H])c(Oc7c([H])c([H])c(F)c([H])c7F)c([H])c6[H])c(C(=O)N([H])[H])c5N([H])[H])C4([H])[H])c([H])c([H])c3C([H])([H])[H])=[N+]([H])[H])c([H])c([H])c2C1([H])[H]

$$$$
57:0:0
     RDKit          3D

 94 96  0  0  1  0  0  0  0  0999 V2000
  -23.4080  -12.5760   19.9820 C   0  0  0  0  0  1  0  0  0  0  0  0
  -23.7130  -11.3880   21.5950 C   0  0  0  0  0 15  0  0  0  0  0  0
  -24.6770  -13.6010   19.0690 C   0  0  0  0  0  2  0  0  0  0  0  0
  -25.9830  -12.4030   19.0040 C   0  0  0  0  0  3  0  0  0  0  0  0
  -26.7340  -11.3070   20.2910 C   0  0  0  0  0  3  0  0  0  0  0  0
  -25.5650  -10.7450   21.7700 C   0  0  1  0  0  0  0  0  0  0  0  0
  -26.1540  -11.8900   17.5660 C   0  0  0  0  0  1  0  0  0  0  0  0
  -26.0000  -10.0260   22.8340 F   0  0  0  0  0  0  0  0  0  0  0  0
  -25.0810  -15.8740   18.8070 C   0  0  0  0  0 15  0  0  0  0  0  0
  -26.1080  -19.6740   19.3870 C   0  0  0  0  0  2  0  0  0  0  0  0
  -25.3400  -18.0040   19.3480 N   0  0  0  0  0  2  0  0  0  0  0  0
  -27.2420  -19.4990   18.9350 O   0  0  0  0  0  1  0  0  0  0  0  0
  -24.4470  -18.2130   19.7740 H   0  0  0  0  0  0  0  0  0  0  0  0
  -26.0390  -21.9440   19.7950 C   0  0  0  0  0 15  0  0  0  0  0  0
  -26.9570  -23.9220   20.0430 O   0  0  0  0  0  1  0  0  0  0  0  0
  -24.7780  -31.5730   23.0230 C   0  0  0  0  0  0  0  0  0  0  0  0
  -26.6500  -25.6540   20.1120 C   0  0  0  0  0  0  0  0  0  0  0  0
  -23.6510  -30.1710   21.3950 C   0  0  0  0  0  3  0  0  0  0  0  0
  -25.0140  -28.4010   19.9980 C   0  0  0  0  0  0  0  0  0  0  0  0
  -26.2300  -29.9510   21.4690 C   0  0  0  0  0  2  0  0  0  0  0  0
  -26.1660  -28.4510   20.7730 C   0  0  0  0  0  0  0  0  0  0  0  0
  -26.9870  -27.1060   20.7940 C   0  0  0  0  0  3  0  0  0  0  0  0
  -25.6610  -26.0850   19.2150 C   0  0  0  0  0  3  0  0  0  0  0  0
  -24.8730  -27.2750   19.1860 C   0  0  0  0  0  3  0  0  0  0  0  0
  -23.9330  -29.5010   20.0230 C   0  0  0  0  0  2  0  0  0  0  0  0
  -24.9320  -30.6290   22.0070 N   0  0  0  0  0  0  0  0  0  0  0  0
  -23.6540  -31.9150   23.4460 O   0  0  0  0  0  0  0  0  0  0  0  0
  -22.8800  -29.2130   22.3440 C   0  0  0  0  0  0  0  0  0  0  0  0
  -21.5440  -29.1100   22.2150 N   0  0  0  0  0  0  0  0  0  0  0  0
  -23.5030  -28.5690   23.1910 O   0  0  0  0  0  0  0  0  0  0  0  0
  -21.0830  -29.6810   21.5210 H   0  0  0  0  0  0  0  0  0  0  0  0
  -18.1220  -28.0140   22.7710 C   0  0  0  0  0  0  0  0  0  0  0  0
  -20.6940  -28.1890   22.9830 C   0  0  0  0  0  3  0  0  0  0  0  0
  -20.7300  -26.7670   22.3760 C   0  0  0  0  0  2  0  0  0  0  0  0
  -19.6010  -26.5140   21.3730 C   0  0  0  0  0  2  0  0  0  0  0  0
  -18.2380  -26.6850   22.0460 C   0  0  0  0  0  2  0  0  0  0  0  0
  -19.2730  -28.7300   23.1970 C   0  0  0  0  0  0  0  0  0  0  0  0
  -19.1010  -29.9730   23.8430 C   0  0  0  0  0  3  0  0  0  0  0  0
  -17.8140  -30.5010   24.0600 C   0  0  0  0  0  3  0  0  0  0  0  0
  -16.6800  -29.7830   23.6410 C   0  0  0  0  0  3  0  0  0  0  0  0
  -16.8350  -28.5410   23.0040 C   0  0  0  0  0  3  0  0  0  0  0  0
  -25.9770  -32.2930   23.7140 C   0  0  0  0  0  3  0  0  0  0  0  0
  -26.4410  -31.5720   25.0420 C   0  0  1  0  0  0  0  0  0  0  0  0
  -25.2970  -31.3250   26.0550 C   0  0  0  0  0  1  0  0  0  0  0  0
  -27.0850  -30.2050   24.7420 C   0  0  0  0  0  1  0  0  0  0  0  0
  -27.5310  -32.4180   25.7420 C   0  0  0  0  0  1  0  0  0  0  0  0
  -25.5750  -33.6840   24.0490 N   0  0  0  0  0  0  0  0  0  0  0  0
  -25.8940  -34.7890   23.3580 C   0  0  0  0  0  0  0  0  0  0  0  0
  -26.5990  -34.7510   22.3500 O   0  0  0  0  0  0  0  0  0  0  0  0
  -24.9380  -33.7860   24.8260 H   0  0  0  0  0  0  0  0  0  0  0  0
  -24.1060  -36.5520   23.0550 C   0  0  0  0  0  1  0  0  0  0  0  0
  -25.3520  -36.1510   23.8590 C   0  0  0  0  0  3  0  0  0  0  0  0
  -27.4410  -37.1060   24.7440 C   0  0  0  0  0  1  0  0  0  0  0  0
  -26.3430  -37.2500   23.7910 N   0  0  0  0  0  0  0  0  0  0  0  0
  -25.8960  -38.1470   23.9560 H   0  0  0  0  0  0  0  0  0  0  0  0
  -28.5350  -11.5160   20.4310 C   0  0  0  0  0  1  0  0  0  0  0  0
  -30.9160  -13.4740   21.5900 C   0  0  0  0  0  3  0  0  0  0  0  0
  -30.9210  -11.4700   19.8350 C   0  0  0  0  0  1  0  0  0  0  0  0
  -29.8710  -12.3820   18.4890 C   0  0  0  0  0  2  0  0  0  0  0  0
  -28.4370  -13.5440   19.0510 C   0  0  0  0  0  1  0  0  0  0  0  0
  -27.9030  -13.8310   20.9730 C   0  0  0  0  0  2  0  0  0  0  0  0
  -28.8770  -12.8730   22.3720 C   0  0  0  0  0  2  0  0  0  0  0  0
  -30.4340  -12.2850   21.5090 N   0  0  0  0  0  0  0  0  0  0  0  0
  -31.9150  -14.1340   21.2560 O   0  0  0  0  0  1  0  0  0  0  0  0
  -30.0730  -13.2170   20.6550 N   0  0  0  0  0  0  0  0  0  0  0  0
  -30.1530  -13.8070   19.8450 H   0  0  0  0  0  0  0  0  0  0  0  0
  -25.5300  -14.4920   21.6980 C   0  0  0  0  0  3  0  0  0  0  0  0
  -24.5540  -13.6600   22.1380 C   0  0  0  0  0  3  0  0  0  0  0  0
  -25.3790  -12.6070   21.6340 C   0  0  2  0  0  0  0  0  0  0  0  0
  -26.6160  -13.7380   21.4550 N   0  0  1  0  0  4  0  0  0  0  0  0
  -26.3890  -12.9300   22.3780 N   0  0  0  0  0  2  0  0  0  0  0  0
  -24.8870  -10.1030   20.2990 C   0  0  0  0  0  3  0  0  0  0  0  0
  -25.1760   -8.7050   20.9550 C   0  0  0  0  0  2  0  0  0  0  0  0
  -24.3680   -7.8540   21.8510 C   0  0  0  0  0  2  0  0  0  0  0  0
  -23.0320   -7.6430   21.5010 C   0  0  0  0  0  0  0  0  0  0  0  0
  -22.6750   -8.5230   20.4460 C   0  0  0  0  0  3  0  0  0  0  0  0
  -23.5440   -9.5550   19.8700 C   0  0  0  0  0  2  0  0  0  0  0  0
  -22.2470   -6.4990   21.7760 O   0  0  0  0  0  0  0  0  0  0  0  0
  -22.1290   -5.7630   22.9610 C   0  0  0  0  0  0  0  0  0  0  0  0
  -21.4820   -6.3000   24.0990 C   0  0  0  0  0  3  0  0  0  0  0  0
  -21.2030   -5.5000   25.2330 C   0  0  0  0  0  3  0  0  0  0  0  0
  -21.5580   -4.1380   25.2550 C   0  0  0  0  0  0  0  0  0  0  0  0
  -22.1820   -3.5770   24.1290 C   0  0  0  0  0  3  0  0  0  0  0  0
  -22.4510   -4.3730   22.9910 C   0  0  0  0  0  0  0  0  0  0  0  0
  -23.0040   -3.7730   21.9100 F   0  0  0  0  0  0  0  0  0  0  0  0
  -21.2960   -3.3740   26.3450 F   0  0  0  0  0  0  0  0  0  0  0  0
  -23.0160  -13.8650   22.1210 C   0  0  0  0  0  0  0  0  0  0  0  0
  -22.2450  -12.9780   22.7750 N   0  0  0  0  0  0  0  0  0  0  0  0
  -22.4940  -14.4830   21.1910 O   0  0  0  0  0  0  0  0  0  0  0  0
  -22.6650  -12.3280   23.4230 H   0  0  0  0  0  0  0  0  0  0  0  0
  -21.2420  -12.9830   22.6540 H   0  0  0  0  0  0  0  0  0  0  0  0
  -25.6590  -15.8050   21.5150 N   0  0  0  0  0  0  0  0  0  0  0  0
  -24.8850  -16.4570   21.5290 H   0  0  0  0  0  0  0  0  0  0  0  0
  -26.5180  -16.2430   21.2110 H   0  0  0  0  0  0  0  0  0  0  0  0
  3  1  1  0
  4  7  1  0
  4  3  1  0
  4  5  1  0
  5 56  1  0
  5  6  1  0
  6  8  1  1
 11 10  1  0
 11 13  1  0
 12 10  1  0
 15 17  1  0
 16 27  2  0
 17 22  1  0
 18 26  1  0
 18 28  1  0
 19 25  1  0
 19 21  1  0
 20 26  1  0
 21 22  2  0
 21 20  1  0
 23 17  2  0
 24 23  1  0
 24 19  2  0
 25 18  1  0
 26 16  1  0
 28 30  2  0
 29 28  1  0
 31 29  1  0
 32 41  2  0
 32 37  1  0
 33 29  1  0
 33 37  1  0
 34 33  1  0
 35 36  1  0
 35 34  1  0
 36 32  1  0
 37 38  2  0
 38 39  1  0
 40 39  2  0
 41 40  1  0
 42 16  1  0
 42 47  1  0
 42 43  1  0
 43 46  1  1
 43 44  1  0
 45 43  1  0
 47 50  1  0
 48 52  1  0
 48 47  1  0
 49 48  2  0
 52 51  1  0
 54 52  1  0
 54 55  1  0
 54 53  1  0
 57 64  1  0
 59 60  1  0
 59 58  1  0
 61 62  1  0
 63 57  1  0
 63 62  1  0
 65 63  1  0
 65 57  1  0
 66 65  1  0
 67 92  1  0
 67 68  1  0
 68 87  1  0
 69  6  1  0
 69 68  1  0
 69 71  1  1
 70 61  1  6
 70 69  1  0
 70 67  1  0
 70 71  1  0
 72 73  1  0
 72  6  1  0
 73 74  1  0
 75 78  1  0
 75 74  1  0
 76 75  2  0
 77 72  1  0
 77 76  1  0
 78 79  1  0
 79 84  2  0
 79 80  1  0
 80 81  2  0
 81 82  1  0
 82 86  1  0
 83 82  2  0
 84 83  1  0
 85 84  1  0
 87 88  1  0
 88 90  1  0
 89 87  2  0
 91 88  1  0
 92 93  1  0
 94 92  1  0
M  ISO  4  14 101  15 101  57 100  65 100
M  END
>  <TORSDO>  (58) 
F 20

>  <SCORE>  (58) 
0.983

>  <name>  (58) 
57

>  <ligand_id>  (58) 
57

>  <original_smiles>  (58) 
[H]c1c([H])c([H])c2c(c1[H])C([H])([H])C([H])([H])C([H])([H])C2([H])N([H])C(=O)C1([H])N(C(=O)C([H])(N([H])C(=O)C([H])(N([H])C([H])([H])[H])C([H])([H])[H])C(C([H])([H])[H])(C([H])([H])[H])C([H])([H])[H])C([H])([H])c2c([H])c(OC([H])([H])C(=O)N([H])C([H])([H])c3c([H])c([H])c(F)c(C([H])([H])N([H])C(=O)N4C([H])([H])C([H])([H])C([H])([H])C([H])(n5nc(-c6c([H])c([H])c(Oc7c([H])c([H])c(F)c([H])c7F)c([H])c6[H])c(C(=O)N([H])[H])c5N([H])[H])C4([H])[H])c3C([H])([H])[H])c([H])c([H])c2C1([H])[H]

>  <smiles>  (58) 
[H]c1c([H])c([H])c2c(c1[H])C([H])([H])C([H])([H])C([H])([H])C2([H])N([H])C(=O)C1([H])N(C(=O)C([H])(N([H])C(=O)C([H])(N([H])C([H])([H])[H])C([H])([H])[H])C(C([H])([H])[H])(C([H])([H])[H])C([H])([H])[H])C([H])([H])c2c([H])c(OC([H])([H])C(=O)N([H])C([H])([H])c3c([H])c([H])c(F)c(C([H])([H])N([H])C(=O)N4C([H])([H])C([H])([H])C([H])([H])C([H])(n5nc(-c6c([H])c([H])c(Oc7c([H])c([H])c(F)c([H])c7F)c([H])c6[H])c(C(=O)N([H])[H])c5N([H])[H])C4([H])[H])c3C([H])([H])[H])c([H])c([H])c2C1([H])[H]

$$$$
58:0:0
     RDKit          3D

 98106  0  0  1  0  0  0  0  0999 V2000
  -29.0960  -21.9570   21.6050 C   0  0  0  0  0  0  0  0  0  0  0  0
  -30.3900  -20.7400   23.2870 C   0  0  0  0  0  1  0  0  0  0  0  0
  -29.6870  -20.7980   21.9980 N   0  0  0  0  0  0  0  0  0  0  0  0
  -29.0620  -22.9440   22.3500 O   0  0  0  0  0  0  0  0  0  0  0  0
  -29.7030  -19.5200   21.2550 C   0  0  0  0  0  2  0  0  0  0  0  0
  -31.6100  -20.3880   19.8600 C   0  0  0  0  0  3  0  0  0  0  0  0
  -32.8310  -20.2760   19.1750 C   0  0  0  0  0  3  0  0  0  0  0  0
  -32.8570  -17.8910   19.6590 C   0  0  0  0  0  3  0  0  0  0  0  0
  -31.0060  -19.2680   20.4820 C   0  0  0  0  0  0  0  0  0  0  0  0
  -31.6420  -17.9880   20.3830 C   0  0  0  0  0  0  0  0  0  0  0  0
  -33.4520  -19.0230   19.0700 C   0  0  0  0  0  0  0  0  0  0  0  0
  -34.9630  -18.8900   18.2440 Cl  0  0  0  0  0  0  0  0  0  0  0  0
  -31.2020  -16.7380   21.1680 C   0  0  0  0  0  2  0  0  0  0  0  0
  -31.3100  -14.5520   19.8380 C   0  0  0  0  0  0  0  0  0  0  0  0
  -30.9720  -12.2650   18.9460 C   0  0  0  0  0  2  0  0  0  0  0  0
  -29.9750  -12.2730   17.7680 C   0  0  0  0  0  2  0  0  0  0  0  0
  -28.5150  -12.2140   18.2700 C   0  0  0  0  0  2  0  0  0  0  0  0
  -28.2240  -13.2290   19.4090 C   0  0  0  0  0  3  0  0  0  0  0  0
  -29.3220  -13.1340   20.4920 C   0  0  0  0  0  2  0  0  0  0  0  0
  -30.6220  -13.3780   19.8390 N   0  0  0  0  0  0  0  0  0  0  0  0
  -32.3910  -14.7010   19.2670 O   0  0  0  0  0  0  0  0  0  0  0  0
  -30.6810  -15.5470   20.4810 N   0  0  0  0  0  0  0  0  0  0  0  0
  -29.7680  -15.2640   20.7990 H   0  0  0  0  0  0  0  0  0  0  0  0
  -25.9200  -13.9900   20.2850 C   0  0  0  0  0  0  0  0  0  0  0  0
  -24.8240  -13.2910   20.7050 C   0  0  0  0  0  0  0  0  0  0  0  0
  -25.1790  -11.9100   20.6100 C   0  0  0  0  0  0  0  0  0  0  0  0
  -26.8840  -13.0440   19.9670 N   0  0  0  0  0  0  0  0  0  0  0  0
  -26.4410  -11.7850   20.2170 N   0  0  0  0  0  0  0  0  0  0  0  0
  -24.3740  -10.7000   20.8170 C   0  0  0  0  0  0  0  0  0  0  0  0
  -24.7490   -9.7120   21.7540 C   0  0  0  0  0  3  0  0  0  0  0  0
  -23.9470   -8.5670   21.9440 C   0  0  0  0  0  3  0  0  0  0  0  0
  -22.7540   -8.4010   21.2000 C   0  0  0  0  0  0  0  0  0  0  0  0
  -22.4000   -9.3770   20.2500 C   0  0  0  0  0  3  0  0  0  0  0  0
  -23.2030  -10.5130   20.0580 C   0  0  0  0  0  3  0  0  0  0  0  0
  -21.9270   -7.3090   21.3030 O   0  0  0  0  0  0  0  0  0  0  0  0
  -21.7800   -6.6260   22.4840 C   0  0  0  0  0  0  0  0  0  0  0  0
  -21.3240   -7.2600   23.6600 C   0  0  0  0  0  3  0  0  0  0  0  0
  -21.1180   -6.5050   24.8320 C   0  0  0  0  0  3  0  0  0  0  0  0
  -21.3620   -5.1190   24.8300 C   0  0  0  0  0  0  0  0  0  0  0  0
  -21.8100   -4.4850   23.6580 C   0  0  0  0  0  3  0  0  0  0  0  0
  -22.0160   -5.2360   22.4870 C   0  0  0  0  0  0  0  0  0  0  0  0
  -22.4280   -4.6160   21.3560 F   0  0  0  0  0  0  0  0  0  0  0  0
  -21.1560   -4.3920   25.9530 F   0  0  0  0  0  0  0  0  0  0  0  0
  -23.4860  -13.8590   21.0840 C   0  0  0  0  0  0  0  0  0  0  0  0
  -22.7780  -13.2100   21.9980 N   0  0  0  0  0  0  0  0  0  0  0  0
  -23.0830  -14.9200   20.6020 O   0  0  0  0  0  0  0  0  0  0  0  0
  -23.1170  -12.3520   22.4090 H   0  0  0  0  0  0  0  0  0  0  0  0
  -21.8840  -13.5730   22.2940 H   0  0  0  0  0  0  0  0  0  0  0  0
  -26.1720  -15.3510   20.1290 N   0  0  0  0  0  0  0  0  0  0  0  0
  -25.4550  -16.0480   20.3010 H   0  0  0  0  0  0  0  0  0  0  0  0
  -27.0240  -15.7440   19.7510 H   0  0  0  0  0  0  0  0  0  0  0  0
  -28.4610  -22.0570   20.1990 C   0  0  0  0  0  2  0  0  0  0  0  0
  -28.7650  -24.4200   19.5000 C   0  0  0  0  0  0  0  0  0  0  0  0
  -26.4790  -23.5370   19.8710 C   0  0  0  0  0  1  0  0  0  0  0  0
  -27.9360  -23.3950   19.8380 N   0  0  0  0  0  0  0  0  0  0  0  0
  -29.9890  -24.3270   19.6380 O   0  0  0  0  0  0  0  0  0  0  0  0
  -28.2100  -25.7100   18.8470 C   0  0  0  0  0  2  0  0  0  0  0  0
  -28.0390  -26.7690   19.8040 O   0  0  0  0  0  0  0  0  0  0  0  0
  -24.5390  -31.9380   23.2290 C   0  0  0  0  0  0  0  0  0  0  0  0
  -26.8620  -27.4950   19.8700 C   0  0  0  0  0  0  0  0  0  0  0  0
  -23.1950  -30.6130   21.6270 C   0  0  0  0  0  3  0  0  0  0  0  0
  -24.5160  -29.0700   20.0860 C   0  0  0  0  0  0  0  0  0  0  0  0
  -25.7170  -30.8960   21.2980 C   0  0  0  0  0  2  0  0  0  0  0  0
  -25.7200  -29.5380   20.6220 C   0  0  0  0  0  0  0  0  0  0  0  0
  -26.8910  -28.7480   20.5240 C   0  0  0  0  0  3  0  0  0  0  0  0
  -25.6280  -27.0420   19.3440 C   0  0  0  0  0  3  0  0  0  0  0  0
  -24.4620  -27.8160   19.4550 C   0  0  0  0  0  3  0  0  0  0  0  0
  -23.3070  -29.9660   20.2210 C   0  0  0  0  0  2  0  0  0  0  0  0
  -24.5040  -31.1640   22.1080 N   0  0  0  0  0  0  0  0  0  0  0  0
  -23.5010  -32.2240   23.8410 O   0  0  0  0  0  0  0  0  0  0  0  0
  -22.5690  -29.5890   22.6030 C   0  0  0  0  0  0  0  0  0  0  0  0
  -21.2530  -29.3570   22.4710 N   0  0  0  0  0  0  0  0  0  0  0  0
  -23.2680  -29.0040   23.4350 O   0  0  0  0  0  0  0  0  0  0  0  0
  -20.7430  -29.8820   21.7730 H   0  0  0  0  0  0  0  0  0  0  0  0
  -17.9590  -27.9430   22.8810 C   0  0  0  0  0  0  0  0  0  0  0  0
  -20.4730  -28.4030   23.2570 C   0  0  0  0  0  3  0  0  0  0  0  0
  -20.7110  -26.9570   22.7710 C   0  0  0  0  0  2  0  0  0  0  0  0
  -19.6900  -26.4990   21.7250 C   0  0  0  0  0  2  0  0  0  0  0  0
  -18.2690  -26.5760   22.2940 C   0  0  0  0  0  2  0  0  0  0  0  0
  -18.9970  -28.8060   23.3200 C   0  0  0  0  0  0  0  0  0  0  0  0
  -18.6610  -30.0790   23.8260 C   0  0  0  0  0  3  0  0  0  0  0  0
  -17.3170  -30.4920   23.9030 C   0  0  0  0  0  3  0  0  0  0  0  0
  -16.2920  -29.6280   23.4820 C   0  0  0  0  0  3  0  0  0  0  0  0
  -16.6140  -28.3570   22.9740 C   0  0  0  0  0  3  0  0  0  0  0  0
  -25.8810  -32.5170   23.7810 C   0  0  0  0  0  3  0  0  0  0  0  0
  -25.6360  -33.9150   24.1600 N   0  0  0  0  0  0  0  0  0  0  0  0
  -25.9530  -34.9750   23.4040 C   0  0  0  0  0  0  0  0  0  0  0  0
  -26.5520  -34.8800   22.3300 O   0  0  0  0  0  0  0  0  0  0  0  0
  -25.1080  -34.0710   25.0040 H   0  0  0  0  0  0  0  0  0  0  0  0
  -24.2690  -36.8290   23.1910 C   0  0  0  0  0  1  0  0  0  0  0  0
  -25.5400  -36.3650   23.9220 C   0  0  0  0  0  3  0  0  0  0  0  0
  -27.7420  -37.1630   24.6530 C   0  0  0  0  0  1  0  0  0  0  0  0
  -26.5990  -37.3870   23.7750 N   0  0  0  0  0  0  0  0  0  0  0  0
  -26.2290  -38.3150   23.9630 H   0  0  0  0  0  0  0  0  0  0  0  0
  -26.4570  -31.7020   25.0010 C   0  0  1  0  0  0  0  0  0  0  0  0
  -25.4240  -31.4530   26.1250 C   0  0  0  0  0  1  0  0  0  0  0  0
  -26.9950  -30.3260   24.5420 C   0  0  0  0  0  1  0  0  0  0  0  0
  -27.6550  -32.4610   25.6170 C   0  0  0  0  0  1  0  0  0  0  0  0
  1  3  1  0
  1  4  2  0
  3  2  1  0
  5  3  1  0
  6  9  1  0
  7  6  2  0
  8 10  1  0
  9  5  1  0
 10  9  2  0
 10 13  1  0
 11  7  1  0
 11  8  2  0
 12 11  1  0
 14 20  1  0
 14 22  1  0
 15 20  1  0
 16 17  1  0
 16 15  1  0
 18 17  1  0
 18 27  1  0
 18 19  1  0
 20 19  1  0
 21 14  2  0
 22 23  1  0
 22 13  1  0
 24 25  2  0
 25 44  1  0
 26 25  1  0
 26 29  1  0
 27 28  1  0
 27 24  1  0
 28 26  2  0
 29 30  1  0
 30 31  2  0
 32 35  1  0
 32 31  1  0
 33 32  2  0
 34 33  1  0
 34 29  2  0
 35 36  1  0
 36 41  2  0
 36 37  1  0
 37 38  2  0
 39 38  1  0
 39 43  1  0
 40 39  2  0
 41 40  1  0
 42 41  1  0
 44 45  1  0
 45 48  1  0
 45 47  1  0
 46 44  2  0
 49 24  1  0
 49 50  1  0
 51 49  1  0
 52  1  1  0
 53 56  2  0
 53 55  1  0
 55 54  1  0
 55 52  1  0
 57 53  1  0
 57 58  1  0
 58 60  1  0
 59 70  2  0
 60 65  1  0
 61 69  1  0
 61 71  1  0
 62 68  1  0
 62 64  1  0
 63 69  1  0
 64 63  1  0
 65 64  2  0
 66 67  1  0
 66 60  2  0
 67 62  2  0
 68 61  1  0
 69 59  1  0
 71 73  2  0
 72 71  1  0
 74 72  1  0
 75 84  2  0
 75 80  1  0
 76 72  1  0
 76 80  1  0
 77 76  1  0
 78 79  1  0
 78 77  1  0
 79 75  1  0
 80 81  2  0
 81 82  1  0
 83 82  2  0
 84 83  1  0
 85 59  1  0
 85 86  1  0
 85 95  1  0
 86 89  1  0
 87 91  1  0
 87 86  1  0
 88 87  2  0
 91 90  1  0
 93 91  1  0
 93 94  1  0
 93 92  1  0
 95 98  1  1
 95 96  1  0
 97 95  1  0
M  ISO  4  14 100  22 100  57 101  58 101
M  END
>  <TORSDO>  (59) 
F 22

>  <SCORE>  (59) 
-12.624

>  <name>  (59) 
58

>  <ligand_id>  (59) 
58

>  <original_smiles>  (59) 
[H]c1c([H])c([H])c2c(c1[H])C([H])([H])C([H])([H])C([H])([H])C2([H])N([H])C(=O)C1([H])N(C(=O)C([H])(N([H])C(=O)C([H])(N([H])C([H])([H])[H])C([H])([H])[H])C(C([H])([H])[H])(C([H])([H])[H])C([H])([H])[H])C([H])([H])c2c([H])c(OC([H])([H])C(=O)N(C([H])([H])[H])C([H])([H])C(=O)N(C([H])([H])[H])C([H])([H])c3c([H])c([H])c(Cl)c([H])c3C([H])([H])N([H])C(=O)N3C([H])([H])C([H])([H])C([H])([H])C([H])(n4nc(-c5c([H])c([H])c(Oc6c([H])c([H])c(F)c([H])c6F)c([H])c5[H])c(C(=O)N([H])[H])c4N([H])[H])C3([H])[H])c([H])c([H])c2C1([H])[H]

>  <smiles>  (59) 
[H]c1c([H])c([H])c2c(c1[H])C([H])([H])C([H])([H])C([H])([H])C2([H])N([H])C(=O)C1([H])N(C(=O)C([H])(N([H])C(=O)C([H])(N([H])C([H])([H])[H])C([H])([H])[H])C(C([H])([H])[H])(C([H])([H])[H])C([H])([H])[H])C([H])([H])c2c([H])c(OC([H])([H])C(=O)N(C([H])([H])[H])C([H])([H])C(=O)N(C([H])([H])[H])C([H])([H])c3c([H])c([H])c(Cl)c([H])c3C([H])([H])N([H])C(=O)N3C([H])([H])C([H])([H])C([H])([H])C([H])(n4nc(-c5c([H])c([H])c(Oc6c([H])c([H])c(F)c([H])c6F)c([H])c5[H])c(C(=O)N([H])[H])c4N([H])[H])C3([H])[H])c([H])c([H])c2C1([H])[H]

$$$$
59:0:0
     RDKit          3D

 96105  0  0  1  0  0  0  0  0999 V2000
  -31.2660  -23.1380   19.9310 C   0  0  0  0  0  0  0  0  0  0  0  0
  -29.0020  -22.9010   20.8860 C   0  0  0  0  0  0  0  0  0  0  0  0
  -32.3490  -22.4940   19.4520 C   0  0  0  0  0  2  0  0  0  0  0  0
  -31.1410  -24.6460   19.6680 C   0  0  0  0  0  2  0  0  0  0  0  0
  -28.6710  -24.4090   21.0190 C   0  0  0  0  0  2  0  0  0  0  0  0
  -29.8920  -25.0570   18.8660 C   0  0  0  0  0  2  0  0  0  0  0  0
  -28.6140  -25.2320   19.7070 C   0  0  0  0  0  3  0  0  0  0  0  0
  -30.2920  -22.4640   20.7320 N   0  0  0  0  0  0  0  0  0  0  0  0
  -28.0750  -22.1130   21.1080 O   0  0  0  0  0  0  0  0  0  0  0  0
  -28.4630  -26.6460   20.0000 O   0  0  0  0  0  0  0  0  0  0  0  0
  -24.4750  -31.6910   23.0930 C   0  0  0  0  0  0  0  0  0  0  0  0
  -27.2320  -27.2980   19.9970 C   0  0  0  0  0  0  0  0  0  0  0  0
  -23.3010  -30.2680   21.4470 C   0  0  0  0  0  3  0  0  0  0  0  0
  -24.7910  -28.7670   20.0190 C   0  0  0  0  0  0  0  0  0  0  0  0
  -25.8220  -30.6780   21.2520 C   0  0  0  0  0  2  0  0  0  0  0  0
  -25.9370  -29.3100   20.6060 C   0  0  0  0  0  0  0  0  0  0  0  0
  -27.1550  -28.5850   20.5890 C   0  0  0  0  0  3  0  0  0  0  0  0
  -26.0580  -26.7740   19.4070 C   0  0  0  0  0  3  0  0  0  0  0  0
  -24.8480  -27.4970   19.4190 C   0  0  0  0  0  3  0  0  0  0  0  0
  -23.5260  -29.5980   20.0670 C   0  0  0  0  0  2  0  0  0  0  0  0
  -24.5510  -30.8950   21.9880 N   0  0  0  0  0  0  0  0  0  0  0  0
  -23.3870  -31.9360   23.6330 O   0  0  0  0  0  0  0  0  0  0  0  0
  -22.6750  -29.2290   22.4040 C   0  0  0  0  0  0  0  0  0  0  0  0
  -21.3560  -29.0110   22.2760 N   0  0  0  0  0  0  0  0  0  0  0  0
  -23.3720  -28.6210   23.2210 O   0  0  0  0  0  0  0  0  0  0  0  0
  -20.8500  -29.5620   21.5960 H   0  0  0  0  0  0  0  0  0  0  0  0
  -18.0140  -27.7260   22.7610 C   0  0  0  0  0  0  0  0  0  0  0  0
  -20.5620  -28.0510   23.0430 C   0  0  0  0  0  3  0  0  0  0  0  0
  -20.7050  -26.6240   22.4640 C   0  0  0  0  0  2  0  0  0  0  0  0
  -19.6150  -26.2750   21.4470 C   0  0  0  0  0  2  0  0  0  0  0  0
  -18.2280  -26.3820   22.0850 C   0  0  0  0  0  2  0  0  0  0  0  0
  -19.1100  -28.5160   23.1960 C   0  0  0  0  0  0  0  0  0  0  0  0
  -18.8580  -29.7740   23.7860 C   0  0  0  0  0  3  0  0  0  0  0  0
  -17.5410  -30.2390   23.9500 C   0  0  0  0  0  3  0  0  0  0  0  0
  -16.4570  -29.4480   23.5330 C   0  0  0  0  0  3  0  0  0  0  0  0
  -16.6950  -28.1930   22.9410 C   0  0  0  0  0  3  0  0  0  0  0  0
  -25.7470  -32.3520   23.7140 C   0  0  0  0  0  3  0  0  0  0  0  0
  -25.4020  -33.7390   24.0560 N   0  0  0  0  0  0  0  0  0  0  0  0
  -25.7020  -34.8060   23.3030 C   0  0  0  0  0  0  0  0  0  0  0  0
  -26.3680  -34.7290   22.2680 O   0  0  0  0  0  0  0  0  0  0  0  0
  -24.8100  -33.8720   24.8610 H   0  0  0  0  0  0  0  0  0  0  0  0
  -23.9190  -36.5490   22.9810 C   0  0  0  0  0  1  0  0  0  0  0  0
  -25.1800  -36.1770   23.7760 C   0  0  0  0  0  3  0  0  0  0  0  0
  -27.2940  -37.1170   24.5930 C   0  0  0  0  0  1  0  0  0  0  0  0
  -26.1800  -37.2600   23.6610 N   0  0  0  0  0  0  0  0  0  0  0  0
  -25.7480  -38.1670   23.8160 H   0  0  0  0  0  0  0  0  0  0  0  0
  -26.2900  -31.5840   24.9800 C   0  0  1  0  0  0  0  0  0  0  0  0
  -25.2100  -31.3070   26.0520 C   0  0  0  0  0  1  0  0  0  0  0  0
  -26.9080  -30.2270   24.5680 C   0  0  0  0  0  1  0  0  0  0  0  0
  -27.4190  -32.4050   25.6450 C   0  0  0  0  0  1  0  0  0  0  0  0
  -30.7450  -21.2890   21.5470 C   0  0  0  0  0  2  0  0  0  0  0  0
  -31.6910  -18.9550   20.9600 C   0  0  0  0  0  3  0  0  0  0  0  0
  -31.5290  -17.5600   20.7660 C   0  0  0  0  0  3  0  0  0  0  0  0
  -29.2960  -19.2420   20.9580 C   0  0  0  0  0  3  0  0  0  0  0  0
  -30.5760  -19.8220   21.0750 C   0  0  0  0  0  0  0  0  0  0  0  0
  -29.1230  -17.8490   20.7760 C   0  0  0  0  0  0  0  0  0  0  0  0
  -30.2390  -16.9700   20.6960 C   0  0  0  0  0  0  0  0  0  0  0  0
  -27.6950  -17.3360   20.6910 C   0  0  0  0  0  1  0  0  0  0  0  0
  -30.7350  -14.5190   20.1070 C   0  0  0  0  0  0  0  0  0  0  0  0
  -30.3760  -12.3710   18.9350 C   0  0  0  0  0  2  0  0  0  0  0  0
  -29.3920  -12.6150   17.7730 C   0  0  0  0  0  2  0  0  0  0  0  0
  -27.9320  -12.4890   18.2540 C   0  0  0  0  0  2  0  0  0  0  0  0
  -27.6540  -13.2930   19.5510 C   0  0  0  0  0  3  0  0  0  0  0  0
  -28.7510  -13.0330   20.6090 C   0  0  0  0  0  2  0  0  0  0  0  0
  -30.0540  -13.3410   19.9950 N   0  0  0  0  0  0  0  0  0  0  0  0
  -31.8710  -14.6660   19.6530 O   0  0  0  0  0  0  0  0  0  0  0  0
  -29.9940  -15.5500   20.5810 N   0  0  0  0  0  0  0  0  0  0  0  0
  -29.0670  -15.2660   20.8510 H   0  0  0  0  0  0  0  0  0  0  0  0
  -25.2830  -13.9080   20.3330 C   0  0  0  0  0  0  0  0  0  0  0  0
  -24.2260  -13.1450   20.7450 C   0  0  0  0  0  0  0  0  0  0  0  0
  -24.6750  -11.7900   20.6940 C   0  0  0  0  0  0  0  0  0  0  0  0
  -26.3170  -13.0230   20.0730 N   0  0  0  0  0  0  0  0  0  0  0  0
  -25.9560  -11.7430   20.3450 N   0  0  0  0  0  0  0  0  0  0  0  0
  -23.9440  -10.5330   20.8970 C   0  0  0  0  0  0  0  0  0  0  0  0
  -24.3810   -9.5680   21.8290 C   0  0  0  0  0  3  0  0  0  0  0  0
  -23.6510   -8.3750   22.0210 C   0  0  0  0  0  3  0  0  0  0  0  0
  -22.4700   -8.1410   21.2780 C   0  0  0  0  0  0  0  0  0  0  0  0
  -22.0510   -9.0950   20.3330 C   0  0  0  0  0  3  0  0  0  0  0  0
  -22.7820  -10.2790   20.1410 C   0  0  0  0  0  3  0  0  0  0  0  0
  -21.7090   -7.0030   21.3800 O   0  0  0  0  0  0  0  0  0  0  0  0
  -21.6410   -6.2840   22.5470 C   0  0  0  0  0  0  0  0  0  0  0  0
  -21.2070   -6.8660   23.7570 C   0  0  0  0  0  3  0  0  0  0  0  0
  -21.0880   -6.0750   24.9160 C   0  0  0  0  0  3  0  0  0  0  0  0
  -21.3940   -4.7010   24.8660 C   0  0  0  0  0  0  0  0  0  0  0  0
  -21.8200   -4.1180   23.6600 C   0  0  0  0  0  3  0  0  0  0  0  0
  -21.9410   -4.9080   22.5030 C   0  0  0  0  0  0  0  0  0  0  0  0
  -22.3330   -4.3370   21.3390 F   0  0  0  0  0  0  0  0  0  0  0  0
  -21.2720   -3.9380   25.9770 F   0  0  0  0  0  0  0  0  0  0  0  0
  -22.8400  -13.6330   21.0630 C   0  0  0  0  0  0  0  0  0  0  0  0
  -22.1400  -12.9450   21.9590 N   0  0  0  0  0  0  0  0  0  0  0  0
  -22.3900  -14.6580   20.5550 O   0  0  0  0  0  0  0  0  0  0  0  0
  -22.5150  -12.1130   22.3870 H   0  0  0  0  0  0  0  0  0  0  0  0
  -21.2140  -13.2550   22.2180 H   0  0  0  0  0  0  0  0  0  0  0  0
  -25.4400  -15.2730   20.1310 N   0  0  0  0  0  0  0  0  0  0  0  0
  -24.6520  -15.9070   20.1950 H   0  0  0  0  0  0  0  0  0  0  0  0
  -26.2240  -15.6700   19.6290 H   0  0  0  0  0  0  0  0  0  0  0  0
  1  8  1  0
  2  5  1  0
  2  9  2  0
  3  1  2  0
  4  1  1  0
  6  4  1  0
  6  7  1  0
  7 10  1  0
  7  5  1  0
  8  2  1  0
  8 51  1  0
 11 22  2  0
 12 10  1  0
 12 17  1  0
 13 21  1  0
 13 23  1  0
 14 20  1  0
 14 16  1  0
 15 21  1  0
 16 15  1  0
 17 16  2  0
 18 19  1  0
 18 12  2  0
 19 14  2  0
 20 13  1  0
 21 11  1  0
 23 25  2  0
 24 23  1  0
 26 24  1  0
 27 36  2  0
 27 32  1  0
 28 24  1  0
 28 32  1  0
 29 28  1  0
 30 31  1  0
 30 29  1  0
 31 27  1  0
 32 33  2  0
 33 34  1  0
 35 34  2  0
 36 35  1  0
 37 11  1  0
 37 38  1  0
 37 47  1  0
 38 41  1  0
 39 43  1  0
 39 38  1  0
 40 39  2  0
 43 42  1  0
 45 43  1  0
 45 46  1  0
 45 44  1  0
 47 50  1  1
 47 48  1  0
 49 47  1  0
 52 55  1  0
 53 52  2  0
 54 55  2  0
 55 51  1  0
 56 54  1  0
 57 53  1  0
 57 56  2  0
 58 56  1  0
 59 67  1  0
 60 65  1  0
 61 62  1  0
 61 60  1  0
 63 62  1  0
 63 72  1  0
 63 64  1  0
 65 59  1  0
 65 64  1  0
 66 59  2  0
 67 57  1  0
 67 68  1  0
 69 70  2  0
 70 89  1  0
 71 70  1  0
 71 74  1  0
 72 69  1  0
 72 73  1  0
 73 71  2  0
 74 75  1  0
 75 76  2  0
 77 80  1  0
 77 76  1  0
 78 77  2  0
 79 78  1  0
 79 74  2  0
 80 81  1  0
 81 82  1  0
 82 83  2  0
 84 83  1  0
 84 88  1  0
 85 84  2  0
 86 81  2  0
 86 85  1  0
 87 86  1  0
 89 90  1  0
 90 93  1  0
 90 92  1  0
 91 89  2  0
 94 95  1  0
 94 69  1  0
 96 94  1  0
M  ISO  4   7 101  10 101  59 100  67 100
M  END
>  <TORSDO>  (60) 
F 18

>  <SCORE>  (60) 
-14.332

>  <name>  (60) 
59

>  <ligand_id>  (60) 
59

>  <original_smiles>  (60) 
[H]C([H])=C1N(C([H])([H])c2c([H])c([H])c(N([H])C(=O)N3C([H])([H])C([H])([H])C([H])([H])C([H])(n4nc(-c5c([H])c([H])c(Oc6c([H])c([H])c(F)c([H])c6F)c([H])c5[H])c(C(=O)N([H])[H])c4N([H])[H])C3([H])[H])c(C([H])([H])[H])c2[H])C(=O)C([H])([H])C([H])(Oc2c([H])c([H])c3c(c2[H])C([H])([H])N(C(=O)C([H])(N([H])C(=O)C([H])(N([H])C([H])([H])[H])C([H])([H])[H])C(C([H])([H])[H])(C([H])([H])[H])C([H])([H])[H])C([H])(C(=O)N([H])C2([H])c4c([H])c([H])c([H])c([H])c4C([H])([H])C([H])([H])C2([H])[H])C3([H])[H])C([H])([H])C1([H])[H]

>  <smiles>  (60) 
[H]C([H])=C1N(C([H])([H])c2c([H])c([H])c(N([H])C(=O)N3C([H])([H])C([H])([H])C([H])([H])C([H])(n4nc(-c5c([H])c([H])c(Oc6c([H])c([H])c(F)c([H])c6F)c([H])c5[H])c(C(=O)N([H])[H])c4N([H])[H])C3([H])[H])c(C([H])([H])[H])c2[H])C(=O)C([H])([H])C([H])(Oc2c([H])c([H])c3c(c2[H])C([H])([H])N(C(=O)C([H])(N([H])C(=O)C([H])(N([H])C([H])([H])[H])C([H])([H])[H])C(C([H])([H])[H])(C([H])([H])[H])C([H])([H])[H])C([H])(C(=O)N([H])C2([H])c4c([H])c([H])c([H])c([H])c4C([H])([H])C([H])([H])C2([H])[H])C3([H])[H])C([H])([H])C1([H])[H]

$$$$
60:0:0
     RDKit          3D

 93101  0  0  1  0  0  0  0  0999 V2000
  -28.7940  -20.4100   20.1770 C   0  0  0  0  0  2  0  0  0  0  0  0
  -32.2300  -18.4650   22.0410 C   0  0  0  0  0  3  0  0  0  0  0  0
  -32.3700  -19.6590   21.3310 C   0  0  0  0  0  3  0  0  0  0  0  0
  -31.1690  -17.5980   21.7460 C   0  0  0  0  0  0  0  0  0  0  0  0
  -30.1180  -19.3740   20.3270 C   0  0  0  0  0  0  0  0  0  0  0  0
  -30.2860  -17.8650   20.6480 C   0  0  0  0  0  0  0  0  0  0  0  0
  -31.3240  -20.1230   20.5180 C   0  0  0  0  0  0  0  0  0  0  0  0
  -30.9450  -16.4120   22.7000 C   0  0  0  0  0  1  0  0  0  0  0  0
  -31.5910  -21.6920   19.8440 Cl  0  0  0  0  0  0  0  0  0  0  0  0
  -30.5350  -15.2450   19.8780 C   0  0  0  0  0  0  0  0  0  0  0  0
  -30.4060  -12.8540   18.9530 C   0  0  0  0  0  2  0  0  0  0  0  0
  -29.4260  -12.7070   17.7660 C   0  0  0  0  0  2  0  0  0  0  0  0
  -27.9940  -12.4680   18.2820 C   0  0  0  0  0  2  0  0  0  0  0  0
  -27.6110  -13.4360   19.4340 C   0  0  0  0  0  3  0  0  0  0  0  0
  -28.7180  -13.5210   20.5090 C   0  0  0  0  0  2  0  0  0  0  0  0
  -29.9300  -13.9790   19.8210 N   0  0  0  0  0  0  0  0  0  0  0  0
  -31.7300  -15.2650   19.5590 O   0  0  0  0  0  0  0  0  0  0  0  0
  -29.8100  -16.4970   20.0660 N   0  0  0  0  0  0  0  0  0  0  0  0
  -28.8130  -16.4280   19.9460 H   0  0  0  0  0  0  0  0  0  0  0  0
  -25.2870  -13.9940   20.3510 C   0  0  0  0  0  0  0  0  0  0  0  0
  -24.2550  -13.2130   20.7820 C   0  0  0  0  0  0  0  0  0  0  0  0
  -24.7120  -11.8620   20.6800 C   0  0  0  0  0  0  0  0  0  0  0  0
  -26.3100  -13.1240   20.0160 N   0  0  0  0  0  0  0  0  0  0  0  0
  -25.9800  -11.8330   20.2850 N   0  0  0  0  0  0  0  0  0  0  0  0
  -23.9940  -10.5990   20.8840 C   0  0  0  0  0  0  0  0  0  0  0  0
  -24.4310   -9.6470   21.8300 C   0  0  0  0  0  3  0  0  0  0  0  0
  -23.7140   -8.4450   22.0210 C   0  0  0  0  0  3  0  0  0  0  0  0
  -22.5450   -8.1890   21.2670 C   0  0  0  0  0  0  0  0  0  0  0  0
  -22.1310   -9.1260   20.3040 C   0  0  0  0  0  3  0  0  0  0  0  0
  -22.8500  -10.3190   20.1100 C   0  0  0  0  0  3  0  0  0  0  0  0
  -21.7980   -7.0380   21.3670 O   0  0  0  0  0  0  0  0  0  0  0  0
  -21.6840   -6.3550   22.5530 C   0  0  0  0  0  0  0  0  0  0  0  0
  -21.1480   -6.9560   23.7120 C   0  0  0  0  0  3  0  0  0  0  0  0
  -20.9780   -6.1970   24.8870 C   0  0  0  0  0  3  0  0  0  0  0  0
  -21.3360   -4.8350   24.9070 C   0  0  0  0  0  0  0  0  0  0  0  0
  -21.8680   -4.2340   23.7530 C   0  0  0  0  0  3  0  0  0  0  0  0
  -22.0390   -4.9910   22.5790 C   0  0  0  0  0  0  0  0  0  0  0  0
  -22.5280   -4.3990   21.4620 F   0  0  0  0  0  0  0  0  0  0  0  0
  -21.1690   -4.1020   26.0320 F   0  0  0  0  0  0  0  0  0  0  0  0
  -22.8790  -13.6830   21.1620 C   0  0  0  0  0  0  0  0  0  0  0  0
  -22.2060  -12.9720   22.0610 N   0  0  0  0  0  0  0  0  0  0  0  0
  -22.4110  -14.7210   20.6950 O   0  0  0  0  0  0  0  0  0  0  0  0
  -22.5990  -12.1460   22.4870 H   0  0  0  0  0  0  0  0  0  0  0  0
  -21.2820  -13.2700   22.3470 H   0  0  0  0  0  0  0  0  0  0  0  0
  -25.4370  -15.3680   20.1840 N   0  0  0  0  0  0  0  0  0  0  0  0
  -24.6810  -16.0140   20.3820 H   0  0  0  0  0  0  0  0  0  0  0  0
  -26.2160  -15.8060   19.7140 H   0  0  0  0  0  0  0  0  0  0  0  0
  -28.4580  -23.2540   20.3330 C   0  0  0  0  0  0  0  0  0  0  0  0
  -28.4620  -21.9730   18.2390 C   0  0  0  0  0  1  0  0  0  0  0  0
  -28.6590  -21.9660   19.6900 N   0  0  0  0  0  0  0  0  0  0  0  0
  -28.6400  -23.3180   21.5530 O   0  0  0  0  0  0  0  0  0  0  0  0
  -27.8880  -24.6800   19.5990 C   0  0  0  0  0  2  0  0  0  0  0  0
  -27.9810  -26.1640   20.1560 O   0  0  0  0  0  0  0  0  0  0  0  0
  -24.5130  -31.9560   23.1750 C   0  0  0  0  0  0  0  0  0  0  0  0
  -26.9550  -27.1980   20.0470 C   0  0  0  0  0  0  0  0  0  0  0  0
  -23.2640  -30.5870   21.5560 C   0  0  0  0  0  3  0  0  0  0  0  0
  -24.6580  -29.0150   20.0720 C   0  0  0  0  0  0  0  0  0  0  0  0
  -25.8160  -30.8160   21.3360 C   0  0  0  0  0  2  0  0  0  0  0  0
  -25.8540  -29.4230   20.6700 C   0  0  0  0  0  0  0  0  0  0  0  0
  -26.9890  -28.5230   20.6640 C   0  0  0  0  0  3  0  0  0  0  0  0
  -25.7400  -26.9240   19.3770 C   0  0  0  0  0  3  0  0  0  0  0  0
  -24.6120  -27.7770   19.4160 C   0  0  0  0  0  3  0  0  0  0  0  0
  -23.4450  -29.9310   20.1610 C   0  0  0  0  0  2  0  0  0  0  0  0
  -24.5530  -31.1440   22.0780 N   0  0  0  0  0  0  0  0  0  0  0  0
  -23.4400  -32.2510   23.7270 O   0  0  0  0  0  0  0  0  0  0  0  0
  -22.6010  -29.5730   22.5210 C   0  0  0  0  0  0  0  0  0  0  0  0
  -21.2780  -29.3700   22.3860 N   0  0  0  0  0  0  0  0  0  0  0  0
  -23.2810  -28.9690   23.3550 O   0  0  0  0  0  0  0  0  0  0  0  0
  -20.7780  -29.9070   21.6890 H   0  0  0  0  0  0  0  0  0  0  0  0
  -17.9410  -28.0480   22.8490 C   0  0  0  0  0  0  0  0  0  0  0  0
  -20.4790  -28.4220   23.1650 C   0  0  0  0  0  3  0  0  0  0  0  0
  -20.6520  -26.9790   22.6370 C   0  0  0  0  0  2  0  0  0  0  0  0
  -19.5890  -26.5850   21.6060 C   0  0  0  0  0  2  0  0  0  0  0  0
  -18.1880  -26.6890   22.2130 C   0  0  0  0  0  2  0  0  0  0  0  0
  -19.0160  -28.8660   23.2820 C   0  0  0  0  0  0  0  0  0  0  0  0
  -18.7300  -30.1310   23.8370 C   0  0  0  0  0  3  0  0  0  0  0  0
  -17.4030  -30.5790   23.9650 C   0  0  0  0  0  3  0  0  0  0  0  0
  -16.3410  -29.7600   23.5470 C   0  0  0  0  0  3  0  0  0  0  0  0
  -16.6100  -28.4950   22.9940 C   0  0  0  0  0  3  0  0  0  0  0  0
  -25.8080  -32.5820   23.7790 C   0  0  0  0  0  3  0  0  0  0  0  0
  -26.3640  -31.7810   25.0220 C   0  0  1  0  0  0  0  0  0  0  0  0
  -25.2910  -31.5130   26.1030 C   0  0  0  0  0  1  0  0  0  0  0  0
  -26.9520  -30.4170   24.5880 C   0  0  0  0  0  1  0  0  0  0  0  0
  -27.5240  -32.5700   25.6770 C   0  0  0  0  0  1  0  0  0  0  0  0
  -25.5040  -33.9730   24.1610 N   0  0  0  0  0  0  0  0  0  0  0  0
  -25.8120  -35.0470   23.4200 C   0  0  0  0  0  0  0  0  0  0  0  0
  -26.4430  -34.9700   22.3640 O   0  0  0  0  0  0  0  0  0  0  0  0
  -24.9440  -34.1120   24.9880 H   0  0  0  0  0  0  0  0  0  0  0  0
  -24.0730  -36.8460   23.1840 C   0  0  0  0  0  1  0  0  0  0  0  0
  -25.3480  -36.4250   23.9350 C   0  0  0  0  0  3  0  0  0  0  0  0
  -27.5160  -37.2880   24.7010 C   0  0  0  0  0  1  0  0  0  0  0  0
  -26.3770  -37.4810   23.8040 N   0  0  0  0  0  0  0  0  0  0  0  0
  -25.9810  -38.3980   23.9900 H   0  0  0  0  0  0  0  0  0  0  0  0
  1  5  1  0
  3  2  2  0
  4  2  1  0
  4  8  1  0
  5  7  2  0
  5  6  1  0
  6  4  2  0
  7  3  1  0
  9  7  1  0
 10 18  1  0
 11 16  1  0
 12 13  1  0
 12 11  1  0
 14 13  1  0
 14 23  1  0
 14 15  1  0
 16 10  1  0
 16 15  1  0
 17 10  2  0
 18  6  1  0
 19 18  1  0
 20 21  2  0
 21 40  1  0
 22 21  1  0
 22 25  1  0
 23 24  1  0
 23 20  1  0
 24 22  2  0
 25 26  1  0
 26 27  2  0
 28 31  1  0
 28 27  1  0
 29 28  2  0
 30 29  1  0
 30 25  2  0
 31 32  1  0
 32 37  2  0
 32 33  1  0
 33 34  2  0
 34 35  1  0
 35 39  1  0
 36 35  2  0
 37 36  1  0
 38 37  1  0
 40 41  1  0
 41 44  1  0
 41 43  1  0
 42 40  2  0
 45 20  1  0
 45 46  1  0
 47 45  1  0
 48 51  2  0
 49 50  1  0
 50  1  1  0
 50 48  1  0
 52 53  1  0
 52 48  1  0
 54 65  2  0
 55 53  1  0
 55 60  1  0
 56 64  1  0
 56 66  1  0
 57 63  1  0
 57 59  1  0
 58 64  1  0
 59 58  1  0
 60 59  2  0
 61 62  1  0
 61 55  2  0
 62 57  2  0
 63 56  1  0
 64 54  1  0
 66 68  2  0
 67 66  1  0
 69 67  1  0
 70 79  2  0
 70 75  1  0
 71 67  1  0
 71 75  1  0
 72 71  1  0
 73 74  1  0
 73 72  1  0
 74 70  1  0
 75 76  2  0
 76 77  1  0
 78 77  2  0
 79 78  1  0
 80 54  1  0
 80 85  1  0
 80 81  1  0
 81 84  1  1
 81 82  1  0
 83 81  1  0
 85 88  1  0
 86 90  1  0
 86 85  1  0
 87 86  2  0
 90 89  1  0
 92 90  1  0
 92 93  1  0
 92 91  1  0
M  ISO  4  10 100  18 100  52 101  53 101
M  END
>  <TORSDO>  (61) 
F 19

>  <SCORE>  (61) 
-14.250

>  <name>  (61) 
60

>  <ligand_id>  (61) 
60

>  <original_smiles>  (61) 
[H]c1c([H])c([H])c2c(c1[H])C([H])([H])C([H])([H])C([H])([H])C2([H])N([H])C(=O)C1([H])N(C(=O)C([H])(N([H])C(=O)C([H])(N([H])C([H])([H])[H])C([H])([H])[H])C(C([H])([H])[H])(C([H])([H])[H])C([H])([H])[H])C([H])([H])c2c([H])c(OC([H])([H])C(=O)N(C([H])([H])[H])C([H])([H])c3c(Cl)c([H])c([H])c(C([H])([H])[H])c3N([H])C(=O)N3C([H])([H])C([H])([H])C([H])([H])C([H])(n4nc(-c5c([H])c([H])c(Oc6c([H])c([H])c(F)c([H])c6F)c([H])c5[H])c(C(=O)N([H])[H])c4N([H])[H])C3([H])[H])c([H])c([H])c2C1([H])[H]

>  <smiles>  (61) 
[H]c1c([H])c([H])c2c(c1[H])C([H])([H])C([H])([H])C([H])([H])C2([H])N([H])C(=O)C1([H])N(C(=O)C([H])(N([H])C(=O)C([H])(N([H])C([H])([H])[H])C([H])([H])[H])C(C([H])([H])[H])(C([H])([H])[H])C([H])([H])[H])C([H])([H])c2c([H])c(OC([H])([H])C(=O)N(C([H])([H])[H])C([H])([H])c3c(Cl)c([H])c([H])c(C([H])([H])[H])c3N([H])C(=O)N3C([H])([H])C([H])([H])C([H])([H])C([H])(n4nc(-c5c([H])c([H])c(Oc6c([H])c([H])c(F)c([H])c6F)c([H])c5[H])c(C(=O)N([H])[H])c4N([H])[H])C3([H])[H])c([H])c([H])c2C1([H])[H]

$$$$
61:0:0
     RDKit          3D

102110  0  0  1  0  0  0  0  0999 V2000
  -28.7140  -21.1390   19.3460 C   0  0  0  0  0  0  0  0  0  0  0  0
  -30.2960  -20.1030   17.7160 C   0  0  0  0  0  1  0  0  0  0  0  0
  -29.4720  -20.0860   18.9320 N   0  0  0  0  0  0  0  0  0  0  0  0
  -27.9900  -21.0740   20.3440 O   0  0  0  0  0  0  0  0  0  0  0  0
  -29.4780  -18.7870   19.6420 C   0  0  0  0  0  2  0  0  0  0  0  0
  -32.1340  -17.5830   22.2070 C   0  0  0  0  0  3  0  0  0  0  0  0
  -32.0820  -18.6210   23.1530 C   0  0  0  0  0  3  0  0  0  0  0  0
  -31.3200  -17.6120   21.0550 C   0  0  0  0  0  0  0  0  0  0  0  0
  -30.4210  -18.7010   20.8510 C   0  0  0  0  0  0  0  0  0  0  0  0
  -30.3650  -19.7290   21.8260 C   0  0  0  0  0  0  0  0  0  0  0  0
  -31.1970  -19.6940   22.9630 C   0  0  0  0  0  0  0  0  0  0  0  0
  -29.4970  -20.7570   21.6850 F   0  0  0  0  0  0  0  0  0  0  0  0
  -31.1300  -20.9640   24.1330 Cl  0  0  0  0  0  0  0  0  0  0  0  0
  -31.4750  -16.4570   20.0760 C   0  0  0  0  0  2  0  0  0  0  0  0
  -31.4790  -14.0240   20.3530 C   0  0  0  0  0  0  0  0  0  0  0  0
  -31.3000  -11.5720   20.5130 C   0  0  0  0  0  2  0  0  0  0  0  0
  -30.5180  -11.0060   19.3120 C   0  0  0  0  0  2  0  0  0  0  0  0
  -29.0060  -11.0120   19.6010 C   0  0  0  0  0  2  0  0  0  0  0  0
  -28.5060  -12.3840   20.1260 C   0  0  0  0  0  3  0  0  0  0  0  0
  -29.4100  -12.9040   21.2680 C   0  0  0  0  0  2  0  0  0  0  0  0
  -30.8020  -12.9290   20.7850 N   0  0  0  0  0  0  0  0  0  0  0  0
  -32.5850  -13.9570   19.8070 O   0  0  0  0  0  0  0  0  0  0  0  0
  -30.8780  -15.2060   20.5320 N   0  0  0  0  0  0  0  0  0  0  0  0
  -29.9820  -15.2320   20.9930 H   0  0  0  0  0  0  0  0  0  0  0  0
  -26.2130  -13.3480   20.7940 C   0  0  0  0  0  0  0  0  0  0  0  0
  -25.0150  -12.7460   21.0710 C   0  0  0  0  0  0  0  0  0  0  0  0
  -25.2440  -11.3400   20.9570 C   0  0  0  0  0  0  0  0  0  0  0  0
  -27.1050  -12.3170   20.5360 N   0  0  0  0  0  0  0  0  0  0  0  0
  -26.5200  -11.1010   20.6890 N   0  0  0  0  0  0  0  0  0  0  0  0
  -24.3080  -10.2110   21.0320 C   0  0  0  0  0  0  0  0  0  0  0  0
  -24.4860   -9.1640   21.9630 C   0  0  0  0  0  3  0  0  0  0  0  0
  -23.5640   -8.0970   22.0280 C   0  0  0  0  0  3  0  0  0  0  0  0
  -22.4470   -8.0720   21.1580 C   0  0  0  0  0  0  0  0  0  0  0  0
  -22.2870   -9.1050   20.2180 C   0  0  0  0  0  3  0  0  0  0  0  0
  -23.2080  -10.1630   20.1520 C   0  0  0  0  0  3  0  0  0  0  0  0
  -21.5130   -7.0650   21.1320 O   0  0  0  0  0  0  0  0  0  0  0  0
  -21.1630   -6.3780   22.2670 C   0  0  0  0  0  0  0  0  0  0  0  0
  -20.6170   -7.0300   23.3950 C   0  0  0  0  0  3  0  0  0  0  0  0
  -20.2060   -6.2780   24.5120 C   0  0  0  0  0  3  0  0  0  0  0  0
  -20.3310   -4.8750   24.5030 C   0  0  0  0  0  0  0  0  0  0  0  0
  -20.8690   -4.2240   23.3800 C   0  0  0  0  0  3  0  0  0  0  0  0
  -21.2810   -4.9730   22.2640 C   0  0  0  0  0  0  0  0  0  0  0  0
  -21.7790   -4.3380   21.1760 F   0  0  0  0  0  0  0  0  0  0  0  0
  -19.9290   -4.1520   25.5750 F   0  0  0  0  0  0  0  0  0  0  0  0
  -23.7070  -13.4350   21.3340 C   0  0  0  0  0  0  0  0  0  0  0  0
  -22.8560  -12.8410   22.1620 N   0  0  0  0  0  0  0  0  0  0  0  0
  -23.4530  -14.5340   20.8420 O   0  0  0  0  0  0  0  0  0  0  0  0
  -23.0720  -11.9490   22.5820 H   0  0  0  0  0  0  0  0  0  0  0  0
  -21.9750  -13.2840   22.3790 H   0  0  0  0  0  0  0  0  0  0  0  0
  -26.6140  -14.6780   20.7220 N   0  0  0  0  0  0  0  0  0  0  0  0
  -25.9660  -15.4460   20.8490 H   0  0  0  0  0  0  0  0  0  0  0  0
  -27.5410  -14.9820   20.4470 H   0  0  0  0  0  0  0  0  0  0  0  0
  -28.6960  -22.4700   18.5510 C   0  0  0  0  0  3  0  0  0  0  0  0
  -28.9930  -24.7090   19.6580 C   0  0  0  0  0  0  0  0  0  0  0  0
  -28.3120  -23.5780   19.4290 N   0  0  0  0  0  0  0  0  0  0  0  0
  -30.0860  -24.9460   19.1380 O   0  0  0  0  0  0  0  0  0  0  0  0
  -27.4520  -23.4270   19.9430 H   0  0  0  0  0  0  0  0  0  0  0  0
  -28.3530  -25.7270   20.6080 C   0  0  0  0  0  2  0  0  0  0  0  0
  -28.4740  -27.0430   20.0600 O   0  0  0  0  0  0  0  0  0  0  0  0
  -24.6650  -32.0140   23.4120 C   0  0  0  0  0  0  0  0  0  0  0  0
  -27.3090  -27.7630   20.1060 C   0  0  0  0  0  0  0  0  0  0  0  0
  -23.4510  -30.6840   21.7150 C   0  0  0  0  0  3  0  0  0  0  0  0
  -24.9030  -29.2250   20.2070 C   0  0  0  0  0  0  0  0  0  0  0  0
  -25.9700  -31.0770   21.5090 C   0  0  0  0  0  2  0  0  0  0  0  0
  -26.0600  -29.7390   20.8070 C   0  0  0  0  0  0  0  0  0  0  0  0
  -27.2690  -29.0150   20.7540 C   0  0  0  0  0  3  0  0  0  0  0  0
  -26.1410  -27.2550   19.5010 C   0  0  0  0  0  3  0  0  0  0  0  0
  -24.9350  -27.9810   19.5520 C   0  0  0  0  0  3  0  0  0  0  0  0
  -23.6520  -30.0690   20.3030 C   0  0  0  0  0  2  0  0  0  0  0  0
  -24.7140  -31.2700   22.2710 N   0  0  0  0  0  0  0  0  0  0  0  0
  -23.5880  -32.2520   23.9750 O   0  0  0  0  0  0  0  0  0  0  0  0
  -22.8170  -29.6140   22.6320 C   0  0  0  0  0  0  0  0  0  0  0  0
  -21.5060  -29.3800   22.4570 N   0  0  0  0  0  0  0  0  0  0  0  0
  -23.5010  -29.0000   23.4550 O   0  0  0  0  0  0  0  0  0  0  0  0
  -21.0150  -29.9290   21.7650 H   0  0  0  0  0  0  0  0  0  0  0  0
  -18.1850  -27.9950   22.7710 C   0  0  0  0  0  0  0  0  0  0  0  0
  -20.7060  -28.3920   23.1790 C   0  0  0  0  0  3  0  0  0  0  0  0
  -20.9190  -26.9740   22.6000 C   0  0  0  0  0  2  0  0  0  0  0  0
  -19.8910  -26.5990   21.5290 C   0  0  0  0  0  2  0  0  0  0  0  0
  -18.4720  -26.6620   22.1000 C   0  0  0  0  0  2  0  0  0  0  0  0
  -19.2340  -28.8140   23.2630 C   0  0  0  0  0  0  0  0  0  0  0  0
  -18.9160  -30.0600   23.8470 C   0  0  0  0  0  3  0  0  0  0  0  0
  -17.5780  -30.4880   23.9440 C   0  0  0  0  0  3  0  0  0  0  0  0
  -16.5420  -29.6650   23.4690 C   0  0  0  0  0  3  0  0  0  0  0  0
  -16.8450  -28.4200   22.8890 C   0  0  0  0  0  3  0  0  0  0  0  0
  -25.9540  -32.6210   24.0500 C   0  0  0  0  0  3  0  0  0  0  0  0
  -25.6650  -34.0210   24.3840 N   0  0  0  0  0  0  0  0  0  0  0  0
  -25.9890  -35.0680   23.6120 C   0  0  0  0  0  0  0  0  0  0  0  0
  -26.6340  -34.9560   22.5670 O   0  0  0  0  0  0  0  0  0  0  0  0
  -25.0880  -34.1840   25.1950 H   0  0  0  0  0  0  0  0  0  0  0  0
  -24.2500  -36.8600   23.3090 C   0  0  0  0  0  1  0  0  0  0  0  0
  -25.5220  -36.4620   24.0750 C   0  0  0  0  0  3  0  0  0  0  0  0
  -27.6820  -37.3560   24.8210 C   0  0  0  0  0  1  0  0  0  0  0  0
  -26.5510  -37.5120   23.9120 N   0  0  0  0  0  0  0  0  0  0  0  0
  -26.1500  -38.4340   24.0590 H   0  0  0  0  0  0  0  0  0  0  0  0
  -26.4500  -31.8330   25.3240 C   0  0  1  0  0  0  0  0  0  0  0  0
  -25.3390  -31.5720   26.3670 C   0  0  0  0  0  1  0  0  0  0  0  0
  -27.0460  -30.4630   24.9200 C   0  0  0  0  0  1  0  0  0  0  0  0
  -27.5850  -32.6210   26.0190 C   0  0  0  0  0  1  0  0  0  0  0  0
  -28.1280  -23.5320   16.2660 C   0  0  0  0  0  1  0  0  0  0  0  0
  -26.2770  -22.4520   17.6030 C   0  0  0  0  0  1  0  0  0  0  0  0
  -27.7870  -22.4290   17.2830 C   0  0  0  0  0  3  0  0  0  0  0  0
  1  4  2  0
  2  3  1  0
  3  1  1  0
  3  5  1  0
  5  9  1  0
  6  7  1  0
  8  6  2  0
  9  8  1  0
  9 10  2  0
 10 11  1  0
 11  7  2  0
 11 13  1  0
 12 10  1  0
 14 23  1  0
 14  8  1  0
 15 23  1  0
 15 21  1  0
 16 21  1  0
 17 18  1  0
 17 16  1  0
 19 18  1  0
 19 28  1  0
 19 20  1  0
 21 20  1  0
 22 15  2  0
 23 24  1  0
 25 26  2  0
 26 45  1  0
 27 30  1  0
 27 26  1  0
 28 29  1  0
 28 25  1  0
 29 27  2  0
 30 31  1  0
 31 32  2  0
 33 32  1  0
 34 33  2  0
 35 34  1  0
 35 30  2  0
 36 33  1  0
 36 37  1  0
 37 38  1  0
 38 39  2  0
 40 39  1  0
 40 44  1  0
 41 40  2  0
 42 37  2  0
 42 41  1  0
 43 42  1  0
 45 46  1  0
 46 49  1  0
 46 48  1  0
 47 45  2  0
 50 25  1  0
 50 51  1  0
 52 50  1  0
 53102  1  0
 53  1  1  0
 53 55  1  0
 54 58  1  0
 55 54  1  0
 55 57  1  0
 56 54  2  0
 59 61  1  0
 59 58  1  0
 60 71  2  0
 61 66  1  0
 62 70  1  0
 62 72  1  0
 63 69  1  0
 63 65  1  0
 64 70  1  0
 65 64  1  0
 66 65  2  0
 67 68  1  0
 67 61  2  0
 68 63  2  0
 69 62  1  0
 70 60  1  0
 72 74  2  0
 73 72  1  0
 75 73  1  0
 76 85  2  0
 76 81  1  0
 77 73  1  0
 77 81  1  0
 78 77  1  0
 79 80  1  0
 79 78  1  0
 80 76  1  0
 81 82  2  0
 82 83  1  0
 84 83  2  0
 85 84  1  0
 86 60  1  0
 86 87  1  0
 86 96  1  0
 87 90  1  0
 88 92  1  0
 88 87  1  0
 89 88  2  0
 92 91  1  0
 94 95  1  0
 94 92  1  0
 94 93  1  0
 96 99  1  1
 96 97  1  0
 98 96  1  0
100102  1  0
102101  1  0
M  ISO  4  15 100  23 100  58 101  59 101
M  END
>  <TORSDO>  (62) 
F 23

>  <SCORE>  (62) 
-9.130

>  <name>  (62) 
61

>  <ligand_id>  (62) 
61

>  <original_smiles>  (62) 
[H]c1c([H])c([H])c2c(c1[H])C([H])([H])C([H])([H])C([H])([H])C2([H])N([H])C(=O)C1([H])N(C(=O)C([H])(N([H])C(=O)C([H])(N([H])C([H])([H])[H])C([H])([H])[H])C(C([H])([H])[H])(C([H])([H])[H])C([H])([H])[H])C([H])([H])c2c([H])c(OC([H])([H])C(=O)N([H])C([H])(C(=O)N(C([H])([H])[H])C([H])([H])c3c(F)c(Cl)c([H])c([H])c3C([H])([H])N([H])C(=O)N3C([H])([H])C([H])([H])C([H])([H])C([H])(n4nc(-c5c([H])c([H])c(Oc6c([H])c([H])c(F)c([H])c6F)c([H])c5[H])c(C(=O)N([H])[H])c4N([H])[H])C3([H])[H])C([H])(C([H])([H])[H])C([H])([H])[H])c([H])c([H])c2C1([H])[H]

>  <smiles>  (62) 
[H]c1c([H])c([H])c2c(c1[H])C([H])([H])C([H])([H])C([H])([H])C2([H])N([H])C(=O)C1([H])N(C(=O)C([H])(N([H])C(=O)C([H])(N([H])C([H])([H])[H])C([H])([H])[H])C(C([H])([H])[H])(C([H])([H])[H])C([H])([H])[H])C([H])([H])c2c([H])c(OC([H])([H])C(=O)N([H])C([H])(C(=O)N(C([H])([H])[H])C([H])([H])c3c(F)c(Cl)c([H])c([H])c3C([H])([H])N([H])C(=O)N3C([H])([H])C([H])([H])C([H])([H])C([H])(n4nc(-c5c([H])c([H])c(Oc6c([H])c([H])c(F)c([H])c6F)c([H])c5[H])c(C(=O)N([H])[H])c4N([H])[H])C3([H])[H])C([H])(C([H])([H])[H])C([H])([H])[H])c([H])c([H])c2C1([H])[H]

$$$$
62:0:0
     RDKit          3D

 96104  0  0  1  0  0  0  0  0999 V2000
  -28.6920  -20.6060   20.8360 C   0  0  0  0  0  0  0  0  0  0  0  0
  -28.9420  -21.8620   20.4140 N   0  0  0  0  0  0  0  0  0  0  0  0
  -27.6260  -20.3170   21.3820 O   0  0  0  0  0  0  0  0  0  0  0  0
  -29.8200  -22.0610   19.9540 H   0  0  0  0  0  0  0  0  0  0  0  0
  -31.1130  -19.9310   20.7490 C   0  0  0  0  0  3  0  0  0  0  0  0
  -31.8560  -17.6260   20.5030 C   0  0  0  0  0  3  0  0  0  0  0  0
  -29.7600  -19.5460   20.6260 C   0  0  0  0  0  0  0  0  0  0  0  0
  -29.4630  -18.1600   20.4120 C   0  0  0  0  0  0  0  0  0  0  0  0
  -30.5130  -17.1910   20.3830 C   0  0  0  0  0  0  0  0  0  0  0  0
  -32.1600  -18.9980   20.6700 C   0  0  0  0  0  0  0  0  0  0  0  0
  -28.0280  -17.6880   20.1920 C   0  0  0  0  0  1  0  0  0  0  0  0
  -30.9520  -14.7410   19.9340 C   0  0  0  0  0  0  0  0  0  0  0  0
  -30.6960  -12.4640   19.0020 C   0  0  0  0  0  2  0  0  0  0  0  0
  -29.7160  -12.5050   17.8120 C   0  0  0  0  0  2  0  0  0  0  0  0
  -28.2580  -12.3690   18.2940 C   0  0  0  0  0  2  0  0  0  0  0  0
  -27.9230  -13.3270   19.4680 C   0  0  0  0  0  3  0  0  0  0  0  0
  -29.0100  -13.2590   20.5630 C   0  0  0  0  0  2  0  0  0  0  0  0
  -30.3100  -13.5400   19.9300 N   0  0  0  0  0  0  0  0  0  0  0  0
  -32.0760  -14.8940   19.4470 O   0  0  0  0  0  0  0  0  0  0  0  0
  -30.1960  -15.7890   20.3320 N   0  0  0  0  0  0  0  0  0  0  0  0
  -29.2420  -15.5500   20.5520 H   0  0  0  0  0  0  0  0  0  0  0  0
  -25.5660  -13.9680   20.2800 C   0  0  0  0  0  0  0  0  0  0  0  0
  -24.5050  -13.2120   20.6950 C   0  0  0  0  0  0  0  0  0  0  0  0
  -24.9440  -11.8540   20.6380 C   0  0  0  0  0  0  0  0  0  0  0  0
  -26.5880  -13.0730   20.0030 N   0  0  0  0  0  0  0  0  0  0  0  0
  -26.2190  -11.7950   20.2750 N   0  0  0  0  0  0  0  0  0  0  0  0
  -24.2060  -10.6030   20.8520 C   0  0  0  0  0  0  0  0  0  0  0  0
  -24.6340   -9.6470   21.8010 C   0  0  0  0  0  3  0  0  0  0  0  0
  -23.8970   -8.4600   22.0010 C   0  0  0  0  0  3  0  0  0  0  0  0
  -22.7210   -8.2180   21.2530 C   0  0  0  0  0  0  0  0  0  0  0  0
  -22.3110   -9.1630   20.2940 C   0  0  0  0  0  3  0  0  0  0  0  0
  -23.0480  -10.3430   20.0920 C   0  0  0  0  0  3  0  0  0  0  0  0
  -21.9560   -7.0820   21.3640 O   0  0  0  0  0  0  0  0  0  0  0  0
  -21.8620   -6.3900   22.5440 C   0  0  0  0  0  0  0  0  0  0  0  0
  -21.3940   -7.0000   23.7290 C   0  0  0  0  0  3  0  0  0  0  0  0
  -21.2470   -6.2340   24.9030 C   0  0  0  0  0  3  0  0  0  0  0  0
  -21.5550   -4.8610   24.8930 C   0  0  0  0  0  0  0  0  0  0  0  0
  -22.0160   -4.2510   23.7120 C   0  0  0  0  0  3  0  0  0  0  0  0
  -22.1660   -5.0140   22.5400 C   0  0  0  0  0  0  0  0  0  0  0  0
  -22.5890   -4.4180   21.3990 F   0  0  0  0  0  0  0  0  0  0  0  0
  -21.4070   -4.1230   26.0180 F   0  0  0  0  0  0  0  0  0  0  0  0
  -23.1280  -13.7100   21.0300 C   0  0  0  0  0  0  0  0  0  0  0  0
  -22.4320  -13.0270   21.9320 N   0  0  0  0  0  0  0  0  0  0  0  0
  -22.6800  -14.7390   20.5250 O   0  0  0  0  0  0  0  0  0  0  0  0
  -22.8080  -12.1930   22.3600 H   0  0  0  0  0  0  0  0  0  0  0  0
  -21.5120  -13.3440   22.2000 H   0  0  0  0  0  0  0  0  0  0  0  0
  -25.7380  -15.3340   20.0920 N   0  0  0  0  0  0  0  0  0  0  0  0
  -24.9730  -15.9880   20.2090 H   0  0  0  0  0  0  0  0  0  0  0  0
  -26.5510  -15.7500   19.6580 H   0  0  0  0  0  0  0  0  0  0  0  0
  -34.5370  -18.6850   20.4540 C   0  0  0  0  0  1  0  0  0  0  0  0
  -33.4330  -19.5120   20.7920 O   0  0  0  0  0  0  0  0  0  0  0  0
  -27.9880  -22.9760   20.5880 C   0  0  0  0  0  2  0  0  0  0  0  0
  -28.5300  -24.3530   20.1360 C   0  0  0  0  0  0  0  0  0  0  0  0
  -29.4430  -24.4350   19.3070 O   0  0  0  0  0  0  0  0  0  0  0  0
  -27.8940  -25.6050   20.7850 C   0  0  0  0  0  2  0  0  0  0  0  0
  -28.1700  -26.8500   20.0920 O   0  0  0  0  0  0  0  0  0  0  0  0
  -24.6550  -32.0690   23.4610 C   0  0  0  0  0  0  0  0  0  0  0  0
  -27.0820  -27.6960   20.1020 C   0  0  0  0  0  0  0  0  0  0  0  0
  -23.3720  -30.7870   21.7810 C   0  0  0  0  0  3  0  0  0  0  0  0
  -24.7460  -29.2870   20.2390 C   0  0  0  0  0  0  0  0  0  0  0  0
  -25.9020  -31.0800   21.5390 C   0  0  0  0  0  2  0  0  0  0  0  0
  -25.9370  -29.7410   20.8270 C   0  0  0  0  0  0  0  0  0  0  0  0
  -27.1110  -28.9510   20.7570 C   0  0  0  0  0  3  0  0  0  0  0  0
  -25.8850  -27.2750   19.4870 C   0  0  0  0  0  3  0  0  0  0  0  0
  -24.7160  -28.0550   19.5650 C   0  0  0  0  0  3  0  0  0  0  0  0
  -23.5310  -30.1810   20.3620 C   0  0  0  0  0  2  0  0  0  0  0  0
  -24.6630  -31.3250   22.3190 N   0  0  0  0  0  0  0  0  0  0  0  0
  -23.5960  -32.3420   24.0420 O   0  0  0  0  0  0  0  0  0  0  0  0
  -22.7130  -29.7350   22.7040 C   0  0  0  0  0  0  0  0  0  0  0  0
  -21.3900  -29.5520   22.5590 N   0  0  0  0  0  0  0  0  0  0  0  0
  -23.3910  -29.0880   23.5060 O   0  0  0  0  0  0  0  0  0  0  0  0
  -20.9050  -30.1310   21.8880 H   0  0  0  0  0  0  0  0  0  0  0  0
  -18.0320  -28.2680   22.9230 C   0  0  0  0  0  0  0  0  0  0  0  0
  -20.5690  -28.5890   23.2940 C   0  0  0  0  0  3  0  0  0  0  0  0
  -20.7310  -27.1650   22.7150 C   0  0  0  0  0  2  0  0  0  0  0  0
  -19.6770  -26.8210   21.6580 C   0  0  0  0  0  2  0  0  0  0  0  0
  -18.2680  -26.9270   22.2490 C   0  0  0  0  0  2  0  0  0  0  0  0
  -19.1130  -29.0550   23.3990 C   0  0  0  0  0  0  0  0  0  0  0  0
  -18.8430  -30.3090   23.9870 C   0  0  0  0  0  3  0  0  0  0  0  0
  -17.5230  -30.7790   24.1070 C   0  0  0  0  0  3  0  0  0  0  0  0
  -16.4520  -29.9900   23.6480 C   0  0  0  0  0  3  0  0  0  0  0  0
  -16.7080  -28.7360   23.0620 C   0  0  0  0  0  3  0  0  0  0  0  0
  -25.9740  -32.6300   24.0790 C   0  0  0  0  0  3  0  0  0  0  0  0
  -25.7310  -34.0350   24.4350 N   0  0  0  0  0  0  0  0  0  0  0  0
  -26.1200  -35.0840   23.6970 C   0  0  0  0  0  0  0  0  0  0  0  0
  -26.7910  -34.9660   22.6680 O   0  0  0  0  0  0  0  0  0  0  0  0
  -25.1370  -34.2030   25.2330 H   0  0  0  0  0  0  0  0  0  0  0  0
  -24.4830  -36.9650   23.3630 C   0  0  0  0  0  1  0  0  0  0  0  0
  -25.6970  -36.4860   24.1750 C   0  0  0  0  0  3  0  0  0  0  0  0
  -27.8690  -37.2490   25.0320 C   0  0  0  0  0  1  0  0  0  0  0  0
  -26.7810  -37.4900   24.0870 N   0  0  0  0  0  0  0  0  0  0  0  0
  -26.4200  -38.4250   24.2550 H   0  0  0  0  0  0  0  0  0  0  0  0
  -26.4710  -31.8140   25.3330 C   0  0  1  0  0  0  0  0  0  0  0  0
  -25.3760  -31.5930   26.4040 C   0  0  0  0  0  1  0  0  0  0  0  0
  -27.0030  -30.4250   24.9050 C   0  0  0  0  0  1  0  0  0  0  0  0
  -27.6540  -32.5520   26.0030 C   0  0  0  0  0  1  0  0  0  0  0  0
  1  3  2  0
  2 52  1  0
  2  1  1  0
  4  2  1  0
  6 10  2  0
  7  5  2  0
  7  1  1  0
  8  7  1  0
  9  8  2  0
  9  6  1  0
 10  5  1  0
 10 51  1  0
 11  8  1  0
 12 20  1  0
 13 18  1  0
 14 15  1  0
 14 13  1  0
 16 15  1  0
 16 25  1  0
 16 17  1  0
 18 12  1  0
 18 17  1  0
 19 12  2  0
 20  9  1  0
 20 21  1  0
 22 23  2  0
 23 42  1  0
 24 23  1  0
 24 27  1  0
 25 26  1  0
 25 22  1  0
 26 24  2  0
 27 28  1  0
 28 29  2  0
 30 33  1  0
 30 29  1  0
 31 30  2  0
 32 31  1  0
 32 27  2  0
 33 34  1  0
 34 35  1  0
 35 36  2  0
 37 36  1  0
 37 41  1  0
 38 37  2  0
 39 34  2  0
 39 38  1  0
 40 39  1  0
 42 43  1  0
 43 46  1  0
 43 45  1  0
 44 42  2  0
 47 48  1  0
 47 22  1  0
 49 47  1  0
 50 51  1  0
 53 52  1  0
 53 55  1  0
 54 53  2  0
 56 58  1  0
 56 55  1  0
 57 68  2  0
 58 63  1  0
 59 67  1  0
 59 69  1  0
 60 66  1  0
 60 62  1  0
 61 67  1  0
 62 61  1  0
 63 62  2  0
 64 65  1  0
 64 58  2  0
 65 60  2  0
 66 59  1  0
 67 57  1  0
 69 71  2  0
 70 69  1  0
 72 70  1  0
 73 82  2  0
 73 78  1  0
 74 70  1  0
 74 78  1  0
 75 74  1  0
 76 77  1  0
 76 75  1  0
 77 73  1  0
 78 79  2  0
 79 80  1  0
 81 80  2  0
 82 81  1  0
 83 57  1  0
 83 84  1  0
 83 93  1  0
 84 87  1  0
 85 89  1  0
 85 84  1  0
 86 85  2  0
 89 88  1  0
 91 89  1  0
 91 92  1  0
 91 90  1  0
 93 96  1  1
 93 94  1  0
 95 93  1  0
M  ISO  4  12 100  20 100  55 101  56 101
M  END
>  <TORSDO>  (63) 
F 21

>  <SCORE>  (63) 
-12.601

>  <name>  (63) 
62

>  <ligand_id>  (63) 
62

>  <original_smiles>  (63) 
[H]c1c([H])c([H])c2c(c1[H])C([H])([H])C([H])([H])C([H])([H])C2([H])N([H])C(=O)C1([H])N(C(=O)C([H])(N([H])C(=O)C([H])(N([H])C([H])([H])[H])C([H])([H])[H])C(C([H])([H])[H])(C([H])([H])[H])C([H])([H])[H])C([H])([H])c2c([H])c(OC([H])([H])C(=O)C([H])([H])N([H])C(=O)c3c([H])c(OC([H])([H])[H])c([H])c(N([H])C(=O)N4C([H])([H])C([H])([H])C([H])([H])C([H])(n5nc(-c6c([H])c([H])c(Oc7c([H])c([H])c(F)c([H])c7F)c([H])c6[H])c(C(=O)N([H])[H])c5N([H])[H])C4([H])[H])c3C([H])([H])[H])c([H])c([H])c2C1([H])[H]

>  <smiles>  (63) 
[H]c1c([H])c([H])c2c(c1[H])C([H])([H])C([H])([H])C([H])([H])C2([H])N([H])C(=O)C1([H])N(C(=O)C([H])(N([H])C(=O)C([H])(N([H])C([H])([H])[H])C([H])([H])[H])C(C([H])([H])[H])(C([H])([H])[H])C([H])([H])[H])C([H])([H])c2c([H])c(OC([H])([H])C(=O)C([H])([H])N([H])C(=O)c3c([H])c(OC([H])([H])[H])c([H])c(N([H])C(=O)N4C([H])([H])C([H])([H])C([H])([H])C([H])(n5nc(-c6c([H])c([H])c(Oc7c([H])c([H])c(F)c([H])c7F)c([H])c6[H])c(C(=O)N([H])[H])c5N([H])[H])C4([H])[H])c3C([H])([H])[H])c([H])c([H])c2C1([H])[H]

$$$$
63:0:0
     RDKit          3D

 94102  0  0  1  0  0  0  0  0999 V2000
  -27.1830  -21.1910   19.2910 N   0  0  0  0  0  2  0  0  0  0  0  0
  -29.2760  -21.8280   17.8470 O   0  0  0  0  0  1  0  0  0  0  0  0
  -28.6880  -21.5980   19.1750 S   0  0  2  0  0  0  0  0  0  0  0  0
  -27.0190  -20.2590   18.8930 H   0  0  0  0  0  0  0  0  0  0  0  0
  -30.6120  -19.7680   22.2940 C   0  0  0  0  0  3  0  0  0  0  0  0
  -31.2700  -18.6710   21.7130 C   0  0  0  0  0  3  0  0  0  0  0  0
  -29.8350  -20.6240   21.4930 C   0  0  0  0  0  3  0  0  0  0  0  0
  -31.1260  -18.3890   20.3380 C   0  0  0  0  0  0  0  0  0  0  0  0
  -30.2730  -19.2100   19.5380 C   0  0  0  0  0  0  0  0  0  0  0  0
  -29.6890  -20.3840   20.1120 C   0  0  0  0  0  0  0  0  0  0  0  0
  -29.9860  -18.8040   18.0970 C   0  0  0  0  0  1  0  0  0  0  0  0
  -31.9690  -17.2520   19.7510 C   0  0  0  0  0  2  0  0  0  0  0  0
  -31.9580  -14.7880   19.4280 C   0  0  0  0  0  0  0  0  0  0  0  0
  -31.6040  -12.3950   18.9430 C   0  0  0  0  0  2  0  0  0  0  0  0
  -30.6150  -12.2390   17.7710 C   0  0  0  0  0  2  0  0  0  0  0  0
  -29.1600  -12.2490   18.2800 C   0  0  0  0  0  2  0  0  0  0  0  0
  -28.8720  -13.4290   19.2460 C   0  0  0  0  0  3  0  0  0  0  0  0
  -29.9660  -13.5300   20.3320 C   0  0  0  0  0  2  0  0  0  0  0  0
  -31.2670  -13.6390   19.6510 N   0  0  0  0  0  0  0  0  0  0  0  0
  -33.0250  -14.8180   18.8080 O   0  0  0  0  0  0  0  0  0  0  0  0
  -31.3770  -15.9180   19.8650 N   0  0  0  0  0  0  0  0  0  0  0  0
  -30.4940  -15.8340   20.3450 H   0  0  0  0  0  0  0  0  0  0  0  0
  -26.6450  -14.3290   20.1700 C   0  0  0  0  0  0  0  0  0  0  0  0
  -25.5140  -13.6940   20.6110 C   0  0  0  0  0  0  0  0  0  0  0  0
  -25.7820  -12.2940   20.5090 C   0  0  0  0  0  0  0  0  0  0  0  0
  -27.5370  -13.3230   19.8310 N   0  0  0  0  0  0  0  0  0  0  0  0
  -27.0250  -12.0920   20.0890 N   0  0  0  0  0  0  0  0  0  0  0  0
  -24.9090  -11.1350   20.7310 C   0  0  0  0  0  0  0  0  0  0  0  0
  -25.2250  -10.1460   21.6890 C   0  0  0  0  0  3  0  0  0  0  0  0
  -24.3590   -9.0500   21.8980 C   0  0  0  0  0  3  0  0  0  0  0  0
  -23.1650   -8.9360   21.1470 C   0  0  0  0  0  0  0  0  0  0  0  0
  -22.8680   -9.9100   20.1790 C   0  0  0  0  0  3  0  0  0  0  0  0
  -23.7320  -10.9980   19.9700 C   0  0  0  0  0  3  0  0  0  0  0  0
  -22.2790   -7.8930   21.2640 O   0  0  0  0  0  0  0  0  0  0  0  0
  -22.0550   -7.2680   22.4650 C   0  0  0  0  0  0  0  0  0  0  0  0
  -21.6000   -7.9760   23.5990 C   0  0  0  0  0  3  0  0  0  0  0  0
  -21.3170   -7.2840   24.7930 C   0  0  0  0  0  3  0  0  0  0  0  0
  -21.4790   -5.8870   24.8540 C   0  0  0  0  0  0  0  0  0  0  0  0
  -21.9260   -5.1790   23.7240 C   0  0  0  0  0  3  0  0  0  0  0  0
  -22.2100   -5.8690   22.5320 C   0  0  0  0  0  0  0  0  0  0  0  0
  -22.6210   -5.1800   21.4400 F   0  0  0  0  0  0  0  0  0  0  0  0
  -21.1990   -5.2210   25.9980 F   0  0  0  0  0  0  0  0  0  0  0  0
  -24.2240  -14.3440   21.0160 C   0  0  0  0  0  0  0  0  0  0  0  0
  -23.5060  -13.7460   21.9600 N   0  0  0  0  0  0  0  0  0  0  0  0
  -23.8680  -15.4170   20.5300 O   0  0  0  0  0  0  0  0  0  0  0  0
  -23.8080  -12.8740   22.3710 H   0  0  0  0  0  0  0  0  0  0  0  0
  -22.6440  -14.1640   22.2770 H   0  0  0  0  0  0  0  0  0  0  0  0
  -26.9810  -15.6700   20.0110 N   0  0  0  0  0  0  0  0  0  0  0  0
  -26.3280  -16.4200   20.2080 H   0  0  0  0  0  0  0  0  0  0  0  0
  -27.8650  -15.9990   19.6430 H   0  0  0  0  0  0  0  0  0  0  0  0
  -28.7840  -23.2090   20.0780 C   0  0  0  0  0  2  0  0  0  0  0  0
  -28.3270  -24.4120   19.2110 C   0  0  0  0  0  2  0  0  0  0  0  0
  -28.3050  -25.7490   19.9920 C   0  0  0  0  0  2  0  0  0  0  0  0
  -28.2000  -26.9180   19.1600 O   0  0  0  0  0  0  0  0  0  0  0  0
  -24.5850  -31.6800   23.0360 C   0  0  0  0  0  0  0  0  0  0  0  0
  -27.0410  -27.6410   19.3200 C   0  0  0  0  0  0  0  0  0  0  0  0
  -23.2790  -30.4530   21.3320 C   0  0  0  0  0  3  0  0  0  0  0  0
  -24.6430  -29.1000   19.6530 C   0  0  0  0  0  0  0  0  0  0  0  0
  -25.7820  -30.8680   21.0070 C   0  0  0  0  0  2  0  0  0  0  0  0
  -25.8360  -29.5780   20.2110 C   0  0  0  0  0  0  0  0  0  0  0  0
  -27.0410  -28.8620   20.0330 C   0  0  0  0  0  3  0  0  0  0  0  0
  -25.8330  -27.1710   18.7650 C   0  0  0  0  0  3  0  0  0  0  0  0
  -24.6360  -27.8940   18.9280 C   0  0  0  0  0  3  0  0  0  0  0  0
  -23.3980  -29.9310   19.8750 C   0  0  0  0  0  2  0  0  0  0  0  0
  -24.5710  -31.0080   21.8500 N   0  0  0  0  0  0  0  0  0  0  0  0
  -23.5400  -31.8760   23.6730 O   0  0  0  0  0  0  0  0  0  0  0  0
  -22.7010  -29.3240   22.2140 C   0  0  0  0  0  0  0  0  0  0  0  0
  -21.3740  -29.1290   22.1430 N   0  0  0  0  0  0  0  0  0  0  0  0
  -23.4400  -28.6280   22.9170 O   0  0  0  0  0  0  0  0  0  0  0  0
  -20.8360  -29.7440   21.5480 H   0  0  0  0  0  0  0  0  0  0  0  0
  -18.0600  -27.7820   22.6500 C   0  0  0  0  0  0  0  0  0  0  0  0
  -20.6170  -28.1000   22.8540 C   0  0  0  0  0  3  0  0  0  0  0  0
  -20.7410  -26.7300   22.1490 C   0  0  0  0  0  2  0  0  0  0  0  0
  -19.6120  -26.4620   21.1480 C   0  0  0  0  0  2  0  0  0  0  0  0
  -18.2520  -26.5040   21.8510 C   0  0  0  0  0  2  0  0  0  0  0  0
  -19.1710  -28.5400   23.1070 C   0  0  0  0  0  0  0  0  0  0  0  0
  -18.9370  -29.7380   23.8150 C   0  0  0  0  0  3  0  0  0  0  0  0
  -17.6260  -30.1810   24.0700 C   0  0  0  0  0  3  0  0  0  0  0  0
  -16.5300  -29.4180   23.6310 C   0  0  0  0  0  3  0  0  0  0  0  0
  -16.7480  -28.2190   22.9280 C   0  0  0  0  0  3  0  0  0  0  0  0
  -25.9060  -32.2550   23.6350 C   0  0  0  0  0  3  0  0  0  0  0  0
  -25.6140  -33.6040   24.1370 N   0  0  0  0  0  0  0  0  0  0  0  0
  -25.9130  -34.7380   23.4910 C   0  0  0  0  0  0  0  0  0  0  0  0
  -26.5380  -34.7580   22.4270 O   0  0  0  0  0  0  0  0  0  0  0  0
  -25.0550  -33.6620   24.9770 H   0  0  0  0  0  0  0  0  0  0  0  0
  -24.1640  -36.5430   23.4240 C   0  0  0  0  0  1  0  0  0  0  0  0
  -25.4450  -36.0610   24.1240 C   0  0  0  0  0  3  0  0  0  0  0  0
  -27.6150  -36.8640   24.9430 C   0  0  0  0  0  1  0  0  0  0  0  0
  -26.4670  -37.1290   24.0820 N   0  0  0  0  0  0  0  0  0  0  0  0
  -26.0660  -38.0220   24.3540 H   0  0  0  0  0  0  0  0  0  0  0  0
  -26.5160  -31.3540   24.7790 C   0  0  1  0  0  0  0  0  0  0  0  0
  -25.5050  -30.9950   25.8940 C   0  0  0  0  0  1  0  0  0  0  0  0
  -27.0660  -30.0300   24.1960 C   0  0  0  0  0  1  0  0  0  0  0  0
  -27.7140  -32.0800   25.4350 C   0  0  0  0  0  1  0  0  0  0  0  0
  3  2  1  6
  3  1  1  0
  3 51  1  0
  3 10  1  0
  4  1  1  0
  6  5  1  0
  7  5  2  0
  8  6  2  0
  9 10  2  0
  9  8  1  0
 10  7  1  0
 11  9  1  0
 12 21  1  0
 12  8  1  0
 13 19  1  0
 13 21  1  0
 14 19  1  0
 15 16  1  0
 15 14  1  0
 17 16  1  0
 17 26  1  0
 17 18  1  0
 19 18  1  0
 20 13  2  0
 21 22  1  0
 23 24  2  0
 24 43  1  0
 25 24  1  0
 25 28  1  0
 26 27  1  0
 26 23  1  0
 27 25  2  0
 28 29  1  0
 29 30  2  0
 31 34  1  0
 31 30  1  0
 32 31  2  0
 33 32  1  0
 33 28  2  0
 34 35  1  0
 35 40  2  0
 35 36  1  0
 36 37  2  0
 37 38  1  0
 38 42  1  0
 39 38  2  0
 40 39  1  0
 41 40  1  0
 43 44  1  0
 44 47  1  0
 44 46  1  0
 45 43  2  0
 48 23  1  0
 48 49  1  0
 50 48  1  0
 52 53  1  0
 52 51  1  0
 54 56  1  0
 54 53  1  0
 55 66  2  0
 56 61  1  0
 57 65  1  0
 57 67  1  0
 58 64  1  0
 58 60  1  0
 59 65  1  0
 60 59  1  0
 61 60  2  0
 62 63  1  0
 62 56  2  0
 63 58  2  0
 64 57  1  0
 65 55  1  0
 67 69  2  0
 68 67  1  0
 70 68  1  0
 71 80  2  0
 71 76  1  0
 72 68  1  0
 72 76  1  0
 73 72  1  0
 74 75  1  0
 74 73  1  0
 75 71  1  0
 76 77  2  0
 77 78  1  0
 79 78  2  0
 80 79  1  0
 81 55  1  0
 81 82  1  0
 81 91  1  0
 82 85  1  0
 83 87  1  0
 83 82  1  0
 84 83  2  0
 87 86  1  0
 89 87  1  0
 89 90  1  0
 89 88  1  0
 91 94  1  1
 91 92  1  0
 93 91  1  0
M  ISO  4  13 100  21 100  53 101  54 101
M  END
>  <TORSDO>  (64) 
F 21

>  <SCORE>  (64) 
-11.315

>  <name>  (64) 
63

>  <ligand_id>  (64) 
63

>  <original_smiles>  (64) 
[H]N=S(=O)(c1c([H])c([H])c([H])c(C([H])([H])N([H])C(=O)N2C([H])([H])C([H])([H])C([H])([H])C([H])(n3nc(-c4c([H])c([H])c(Oc5c([H])c([H])c(F)c([H])c5F)c([H])c4[H])c(C(=O)N([H])[H])c3N([H])[H])C2([H])[H])c1C([H])([H])[H])C([H])([H])C([H])([H])C([H])([H])Oc1c([H])c([H])c2c(c1[H])C([H])([H])N(C(=O)C([H])(N([H])C(=O)C([H])(N([H])C([H])([H])[H])C([H])([H])[H])C(C([H])([H])[H])(C([H])([H])[H])C([H])([H])[H])C([H])(C(=O)N([H])C1([H])c3c([H])c([H])c([H])c([H])c3C([H])([H])C([H])([H])C1([H])[H])C2([H])[H]

>  <smiles>  (64) 
[H]N=S(=O)(c1c([H])c([H])c([H])c(C([H])([H])N([H])C(=O)N2C([H])([H])C([H])([H])C([H])([H])C([H])(n3nc(-c4c([H])c([H])c(Oc5c([H])c([H])c(F)c([H])c5F)c([H])c4[H])c(C(=O)N([H])[H])c3N([H])[H])C2([H])[H])c1C([H])([H])[H])C([H])([H])C([H])([H])C([H])([H])Oc1c([H])c([H])c2c(c1[H])C([H])([H])N(C(=O)C([H])(N([H])C(=O)C([H])(N([H])C([H])([H])[H])C([H])([H])[H])C(C([H])([H])[H])(C([H])([H])[H])C([H])([H])[H])C([H])(C(=O)N([H])C1([H])c3c([H])c([H])c([H])c([H])c3C([H])([H])C([H])([H])C1([H])[H])C2([H])[H]

$$$$
64:0:0
     RDKit          3D

 94103  0  0  1  0  0  0  0  0999 V2000
  -28.7860  -22.7160   22.1230 C   0  0  0  0  0  0  0  0  0  0  0  0
  -29.1180  -21.8520   23.0990 C   0  0  0  0  0  2  0  0  0  0  0  0
  -27.8160  -23.8460   22.4830 C   0  0  0  0  0  2  0  0  0  0  0  0
  -27.4220  -24.8360   21.3720 C   0  0  0  0  0  2  0  0  0  0  0  0
  -29.0930  -23.7750   19.8610 C   0  0  0  0  0  2  0  0  0  0  0  0
  -28.6470  -25.1830   20.5330 C   0  0  0  0  0  3  0  0  0  0  0  0
  -29.2110  -22.5750   20.7910 N   0  0  0  0  0  0  0  0  0  0  0  0
  -30.0590  -20.1200   20.6420 C   0  0  0  0  0  3  0  0  0  0  0  0
  -28.6910  -18.4930   19.4610 C   0  0  0  0  0  3  0  0  0  0  0  0
  -28.0870  -20.8810   19.4550 C   0  0  0  0  0  3  0  0  0  0  0  0
  -29.8320  -18.7280   20.2660 C   0  0  0  0  0  0  0  0  0  0  0  0
  -29.1970  -21.2250   20.2520 C   0  0  0  0  0  0  0  0  0  0  0  0
  -27.8250  -19.5470   19.0820 C   0  0  0  0  0  0  0  0  0  0  0  0
  -26.3990  -19.1990   18.1810 Cl  0  0  0  0  0  0  0  0  0  0  0  0
  -30.7920  -17.5050   20.6890 C   0  0  0  0  0  2  0  0  0  0  0  0
  -31.1390  -14.8950   20.5570 C   0  0  0  0  0  0  0  0  0  0  0  0
  -30.9810  -12.5560   19.6640 C   0  0  0  0  0  2  0  0  0  0  0  0
  -30.1040  -12.5500   18.3870 C   0  0  0  0  0  2  0  0  0  0  0  0
  -28.6100  -12.4280   18.7460 C   0  0  0  0  0  2  0  0  0  0  0  0
  -28.1910  -13.4100   19.8740 C   0  0  0  0  0  3  0  0  0  0  0  0
  -29.1800  -13.3570   21.0590 C   0  0  0  0  0  2  0  0  0  0  0  0
  -30.5140  -13.6680   20.5260 N   0  0  0  0  0  0  0  0  0  0  0  0
  -32.3370  -14.9710   20.2600 O   0  0  0  0  0  0  0  0  0  0  0  0
  -30.3620  -16.0340   20.7430 N   0  0  0  0  0  0  0  0  0  0  0  0
  -29.3970  -15.8520   20.9940 H   0  0  0  0  0  0  0  0  0  0  0  0
  -25.8150  -14.1150   20.5160 C   0  0  0  0  0  0  0  0  0  0  0  0
  -24.6960  -13.3940   20.8250 C   0  0  0  0  0  0  0  0  0  0  0  0
  -25.0850  -12.0150   20.7830 C   0  0  0  0  0  0  0  0  0  0  0  0
  -26.8180  -13.1850   20.3000 N   0  0  0  0  0  0  0  0  0  0  0  0
  -26.3840  -11.9160   20.5210 N   0  0  0  0  0  0  0  0  0  0  0  0
  -24.2860  -10.7930   20.9140 C   0  0  0  0  0  0  0  0  0  0  0  0
  -24.6400   -9.7730   21.8260 C   0  0  0  0  0  3  0  0  0  0  0  0
  -23.8440   -8.6140   21.9440 C   0  0  0  0  0  3  0  0  0  0  0  0
  -22.6810   -8.4660   21.1490 C   0  0  0  0  0  0  0  0  0  0  0  0
  -22.3500   -9.4720   20.2250 C   0  0  0  0  0  3  0  0  0  0  0  0
  -23.1430  -10.6240   20.1040 C   0  0  0  0  0  3  0  0  0  0  0  0
  -21.8630   -7.3620   21.1750 O   0  0  0  0  0  0  0  0  0  0  0  0
  -21.6910   -6.6240   22.3180 C   0  0  0  0  0  0  0  0  0  0  0  0
  -21.1950   -7.2020   23.5070 C   0  0  0  0  0  3  0  0  0  0  0  0
  -20.9600   -6.3950   24.6370 C   0  0  0  0  0  3  0  0  0  0  0  0
  -21.2160   -5.0120   24.5820 C   0  0  0  0  0  0  0  0  0  0  0  0
  -21.7080   -4.4340   23.3970 C   0  0  0  0  0  3  0  0  0  0  0  0
  -21.9400   -5.2380   22.2680 C   0  0  0  0  0  0  0  0  0  0  0  0
  -22.3920   -4.6710   21.1220 F   0  0  0  0  0  0  0  0  0  0  0  0
  -20.9880   -4.2330   25.6670 F   0  0  0  0  0  0  0  0  0  0  0  0
  -23.3170  -13.9400   21.0520 C   0  0  0  0  0  0  0  0  0  0  0  0
  -22.5330  -13.3000   21.9100 N   0  0  0  0  0  0  0  0  0  0  0  0
  -22.9380  -14.9670   20.4890 O   0  0  0  0  0  0  0  0  0  0  0  0
  -22.8460  -12.4640   22.3820 H   0  0  0  0  0  0  0  0  0  0  0  0
  -21.6110  -13.6610   22.1050 H   0  0  0  0  0  0  0  0  0  0  0  0
  -26.0510  -15.4810   20.3680 N   0  0  0  0  0  0  0  0  0  0  0  0
  -25.2880  -16.1460   20.3990 H   0  0  0  0  0  0  0  0  0  0  0  0
  -26.8720  -15.8460   19.9080 H   0  0  0  0  0  0  0  0  0  0  0  0
  -28.5710  -26.4930   19.7810 O   0  0  0  0  0  0  0  0  0  0  0  0
  -24.7120  -31.6790   23.0940 C   0  0  0  0  0  0  0  0  0  0  0  0
  -27.4410  -27.3380   19.8260 C   0  0  0  0  0  0  0  0  0  0  0  0
  -23.5420  -30.3270   21.3900 C   0  0  0  0  0  3  0  0  0  0  0  0
  -25.0370  -28.8950   19.8780 C   0  0  0  0  0  0  0  0  0  0  0  0
  -26.0640  -30.7440   21.2020 C   0  0  0  0  0  2  0  0  0  0  0  0
  -26.1930  -29.3920   20.4980 C   0  0  0  0  0  0  0  0  0  0  0  0
  -27.4000  -28.6230   20.4620 C   0  0  0  0  0  3  0  0  0  0  0  0
  -26.2710  -26.9110   19.1670 C   0  0  0  0  0  3  0  0  0  0  0  0
  -25.0800  -27.6640   19.2040 C   0  0  0  0  0  3  0  0  0  0  0  0
  -23.7710  -29.7230   19.9760 C   0  0  0  0  0  2  0  0  0  0  0  0
  -24.7910  -30.9290   21.9530 N   0  0  0  0  0  0  0  0  0  0  0  0
  -23.6250  -31.8960   23.6500 O   0  0  0  0  0  0  0  0  0  0  0  0
  -22.9170  -29.2520   22.3110 C   0  0  0  0  0  0  0  0  0  0  0  0
  -21.6020  -29.0230   22.1630 N   0  0  0  0  0  0  0  0  0  0  0  0
  -23.6170  -28.6220   23.1090 O   0  0  0  0  0  0  0  0  0  0  0  0
  -21.1150  -29.5400   21.4470 H   0  0  0  0  0  0  0  0  0  0  0  0
  -18.2780  -27.6660   22.6280 C   0  0  0  0  0  0  0  0  0  0  0  0
  -20.8170  -28.0300   22.8990 C   0  0  0  0  0  3  0  0  0  0  0  0
  -20.9780  -26.6220   22.2840 C   0  0  0  0  0  2  0  0  0  0  0  0
  -19.8940  -26.2890   21.2560 C   0  0  0  0  0  2  0  0  0  0  0  0
  -18.5120  -26.3440   21.9130 C   0  0  0  0  0  2  0  0  0  0  0  0
  -19.3600  -28.4620   23.0930 C   0  0  0  0  0  0  0  0  0  0  0  0
  -19.0810  -29.6790   23.7560 C   0  0  0  0  0  3  0  0  0  0  0  0
  -17.7550  -30.1040   23.9600 C   0  0  0  0  0  3  0  0  0  0  0  0
  -16.6890  -29.3140   23.4960 C   0  0  0  0  0  3  0  0  0  0  0  0
  -16.9520  -28.0940   22.8410 C   0  0  0  0  0  3  0  0  0  0  0  0
  -25.9800  -32.3270   23.7330 C   0  0  0  0  0  3  0  0  0  0  0  0
  -25.6330  -33.7040   24.1080 N   0  0  0  0  0  0  0  0  0  0  0  0
  -25.9420  -34.7920   23.3890 C   0  0  0  0  0  0  0  0  0  0  0  0
  -26.6110  -34.7380   22.3500 O   0  0  0  0  0  0  0  0  0  0  0  0
  -25.0480  -33.8220   24.9220 H   0  0  0  0  0  0  0  0  0  0  0  0
  -24.1660  -36.5480   23.1030 C   0  0  0  0  0  1  0  0  0  0  0  0
  -25.4230  -36.1490   23.8940 C   0  0  0  0  0  3  0  0  0  0  0  0
  -27.5380  -37.0640   24.7430 C   0  0  0  0  0  1  0  0  0  0  0  0
  -26.4280  -37.2310   23.8100 N   0  0  0  0  0  0  0  0  0  0  0  0
  -25.9980  -38.1330   23.9920 H   0  0  0  0  0  0  0  0  0  0  0  0
  -26.5200  -31.5290   24.9840 C   0  0  1  0  0  0  0  0  0  0  0  0
  -25.4270  -31.2160   26.0340 C   0  0  0  0  0  1  0  0  0  0  0  0
  -27.1580  -30.1870   24.5450 C   0  0  0  0  0  1  0  0  0  0  0  0
  -27.6380  -32.3380   25.6810 C   0  0  0  0  0  1  0  0  0  0  0  0
  1  3  1  0
  1  2  2  0
  4  3  1  0
  5  6  1  0
  5  7  1  0
  6 54  1  0
  6  4  1  0
  7  1  1  0
  9 11  2  0
 10 12  1  0
 11  8  1  0
 11 15  1  0
 12  8  2  0
 12  7  1  0
 13 10  2  0
 13  9  1  0
 14 13  1  0
 15 24  1  0
 16 24  1  0
 17 22  1  0
 18 19  1  0
 18 17  1  0
 20 19  1  0
 20 29  1  0
 20 21  1  0
 22 16  1  0
 22 21  1  0
 23 16  2  0
 24 25  1  0
 26 27  2  0
 27 46  1  0
 28 27  1  0
 28 31  1  0
 29 26  1  0
 29 30  1  0
 30 28  2  0
 31 32  1  0
 32 33  2  0
 34 37  1  0
 34 33  1  0
 35 34  2  0
 36 35  1  0
 36 31  2  0
 37 38  1  0
 38 39  1  0
 39 40  2  0
 41 40  1  0
 41 45  1  0
 42 41  2  0
 43 38  2  0
 43 42  1  0
 44 43  1  0
 46 47  1  0
 47 50  1  0
 47 49  1  0
 48 46  2  0
 51 52  1  0
 51 26  1  0
 53 51  1  0
 54 56  1  0
 55 66  2  0
 56 61  1  0
 57 65  1  0
 57 67  1  0
 58 64  1  0
 58 60  1  0
 59 65  1  0
 60 59  1  0
 61 60  2  0
 62 63  1  0
 62 56  2  0
 63 58  2  0
 64 57  1  0
 65 55  1  0
 67 69  2  0
 68 67  1  0
 70 68  1  0
 71 80  2  0
 71 76  1  0
 72 68  1  0
 72 76  1  0
 73 72  1  0
 74 75  1  0
 74 73  1  0
 75 71  1  0
 76 77  2  0
 77 78  1  0
 79 78  2  0
 80 79  1  0
 81 55  1  0
 81 82  1  0
 81 91  1  0
 82 85  1  0
 83 87  1  0
 83 82  1  0
 84 83  2  0
 87 86  1  0
 89 87  1  0
 89 90  1  0
 89 88  1  0
 91 94  1  1
 91 92  1  0
 93 91  1  0
M  ISO  4   6 101  16 100  24 100  54 101
M  END
>  <TORSDO>  (65) 
F 18

>  <SCORE>  (65) 
-12.995

>  <name>  (65) 
64

>  <ligand_id>  (65) 
64

>  <original_smiles>  (65) 
[H]C([H])=C1N(c2c([H])c(Cl)c([H])c(C([H])([H])N([H])C(=O)N3C([H])([H])C([H])([H])C([H])([H])C([H])(n4nc(-c5c([H])c([H])c(Oc6c([H])c([H])c(F)c([H])c6F)c([H])c5[H])c(C(=O)N([H])[H])c4N([H])[H])C3([H])[H])c2[H])C([H])([H])C([H])(Oc2c([H])c([H])c3c(c2[H])C([H])([H])N(C(=O)C([H])(N([H])C(=O)C([H])(N([H])C([H])([H])[H])C([H])([H])[H])C(C([H])([H])[H])(C([H])([H])[H])C([H])([H])[H])C([H])(C(=O)N([H])C2([H])c4c([H])c([H])c([H])c([H])c4C([H])([H])C([H])([H])C2([H])[H])C3([H])[H])C([H])([H])C1([H])[H]

>  <smiles>  (65) 
[H]C([H])=C1N(c2c([H])c(Cl)c([H])c(C([H])([H])N([H])C(=O)N3C([H])([H])C([H])([H])C([H])([H])C([H])(n4nc(-c5c([H])c([H])c(Oc6c([H])c([H])c(F)c([H])c6F)c([H])c5[H])c(C(=O)N([H])[H])c4N([H])[H])C3([H])[H])c2[H])C([H])([H])C([H])(Oc2c([H])c([H])c3c(c2[H])C([H])([H])N(C(=O)C([H])(N([H])C(=O)C([H])(N([H])C([H])([H])[H])C([H])([H])[H])C(C([H])([H])[H])(C([H])([H])[H])C([H])([H])[H])C([H])(C(=O)N([H])C2([H])c4c([H])c([H])c([H])c([H])c4C([H])([H])C([H])([H])C2([H])[H])C3([H])[H])C([H])([H])C1([H])[H]

$$$$
65:0:0
     RDKit          3D

 97106  0  0  1  0  0  0  0  0999 V2000
  -30.5450  -23.6870   19.5330 C   0  0  0  0  0  0  0  0  0  0  0  0
  -31.7720  -23.8640   20.0710 C   0  0  0  0  0  3  0  0  0  0  0  0
  -29.6940  -24.8220   18.9590 C   0  0  0  0  0  2  0  0  0  0  0  0
  -28.2100  -23.9970   20.8780 C   0  0  0  0  0  2  0  0  0  0  0  0
  -28.5950  -22.5000   20.5170 C   0  0  0  0  0  2  0  0  0  0  0  0
  -28.3550  -25.0450   19.7180 C   0  0  0  0  0  3  0  0  0  0  0  0
  -29.7220  -22.4260   19.5460 N   0  0  2  0  0  4  0  0  0  0  0  0
  -29.1770  -22.5180   18.7020 H   0  0  0  0  0  0  0  0  0  0  0  0
  -33.8950  -22.8940   20.7740 C   0  0  0  0  0  2  0  0  0  0  0  0
  -32.5540  -22.8970   20.8150 C   0  0  0  0  0  3  0  0  0  0  0  0
  -28.3570  -26.4410   20.1530 O   0  0  0  0  0  0  0  0  0  0  0  0
  -24.9280  -31.7640   23.4940 C   0  0  0  0  0  0  0  0  0  0  0  0
  -27.2150  -27.2360   20.1850 C   0  0  0  0  0  0  0  0  0  0  0  0
  -23.6000  -30.4880   21.8460 C   0  0  0  0  0  3  0  0  0  0  0  0
  -24.9200  -28.9170   20.3250 C   0  0  0  0  0  0  0  0  0  0  0  0
  -26.1400  -30.6960   21.5870 C   0  0  0  0  0  2  0  0  0  0  0  0
  -26.1260  -29.3430   20.8920 C   0  0  0  0  0  0  0  0  0  0  0  0
  -27.2740  -28.5120   20.8120 C   0  0  0  0  0  3  0  0  0  0  0  0
  -25.9830  -26.8360   19.6210 C   0  0  0  0  0  3  0  0  0  0  0  0
  -24.8470  -27.6670   19.6870 C   0  0  0  0  0  3  0  0  0  0  0  0
  -23.7310  -29.8460   20.4400 C   0  0  0  0  0  2  0  0  0  0  0  0
  -24.9110  -30.9950   22.3670 N   0  0  0  0  0  0  0  0  0  0  0  0
  -23.8780  -32.0770   24.0740 O   0  0  0  0  0  0  0  0  0  0  0  0
  -22.9160  -29.4740   22.7920 C   0  0  0  0  0  0  0  0  0  0  0  0
  -21.6070  -29.2470   22.5870 N   0  0  0  0  0  0  0  0  0  0  0  0
  -23.5630  -28.8910   23.6660 O   0  0  0  0  0  0  0  0  0  0  0  0
  -21.1440  -29.7700   21.8570 H   0  0  0  0  0  0  0  0  0  0  0  0
  -18.2830  -27.8490   22.8130 C   0  0  0  0  0  0  0  0  0  0  0  0
  -20.7740  -28.3040   23.3310 C   0  0  0  0  0  3  0  0  0  0  0  0
  -21.0290  -26.8500   22.8700 C   0  0  0  0  0  2  0  0  0  0  0  0
  -20.0680  -26.3890   21.7690 C   0  0  0  0  0  2  0  0  0  0  0  0
  -18.6170  -26.4780   22.2510 C   0  0  0  0  0  2  0  0  0  0  0  0
  -19.2970  -28.7140   23.3030 C   0  0  0  0  0  0  0  0  0  0  0  0
  -18.9350  -29.9940   23.7770 C   0  0  0  0  0  3  0  0  0  0  0  0
  -17.5910  -30.4110   23.7710 C   0  0  0  0  0  3  0  0  0  0  0  0
  -16.5890  -29.5450   23.2990 C   0  0  0  0  0  3  0  0  0  0  0  0
  -16.9350  -28.2660   22.8260 C   0  0  0  0  0  3  0  0  0  0  0  0
  -26.2630  -32.3050   24.0940 C   0  0  0  0  0  3  0  0  0  0  0  0
  -26.7560  -31.4890   25.3510 C   0  0  1  0  0  0  0  0  0  0  0  0
  -25.6710  -31.2970   26.4370 C   0  0  0  0  0  1  0  0  0  0  0  0
  -27.2520  -30.0860   24.9310 C   0  0  0  0  0  1  0  0  0  0  0  0
  -27.9610  -32.2080   26.0030 C   0  0  0  0  0  1  0  0  0  0  0  0
  -26.0520  -33.7170   24.4440 N   0  0  0  0  0  0  0  0  0  0  0  0
  -26.3960  -34.7530   23.6680 C   0  0  0  0  0  0  0  0  0  0  0  0
  -26.9960  -34.6170   22.5970 O   0  0  0  0  0  0  0  0  0  0  0  0
  -25.5190  -33.9020   25.2810 H   0  0  0  0  0  0  0  0  0  0  0  0
  -24.7400  -36.6320   23.4370 C   0  0  0  0  0  1  0  0  0  0  0  0
  -26.0160  -36.1640   24.1570 C   0  0  0  0  0  3  0  0  0  0  0  0
  -28.2430  -36.9430   24.8350 C   0  0  0  0  0  1  0  0  0  0  0  0
  -27.0890  -37.1650   23.9680 N   0  0  0  0  0  0  0  0  0  0  0  0
  -26.7400  -38.1040   24.1420 H   0  0  0  0  0  0  0  0  0  0  0  0
  -30.3840  -21.1270   19.1260 C   0  0  0  0  0  2  0  0  0  0  0  0
  -31.0210  -19.0780   20.5930 C   0  0  0  0  0  3  0  0  0  0  0  0
  -30.9560  -17.6850   20.8760 C   0  0  0  0  0  3  0  0  0  0  0  0
  -29.0810  -18.8890   19.1710 C   0  0  0  0  0  3  0  0  0  0  0  0
  -30.0980  -19.7080   19.7160 C   0  0  0  0  0  0  0  0  0  0  0  0
  -29.0000  -17.4990   19.4620 C   0  0  0  0  0  0  0  0  0  0  0  0
  -29.9570  -16.8610   20.3020 C   0  0  0  0  0  0  0  0  0  0  0  0
  -27.8840  -16.6990   18.8220 C   0  0  0  0  0  1  0  0  0  0  0  0
  -30.6380  -14.4120   20.3100 C   0  0  0  0  0  0  0  0  0  0  0  0
  -30.4050  -12.1600   19.3050 C   0  0  0  0  0  2  0  0  0  0  0  0
  -29.4050  -12.2640   18.1330 C   0  0  0  0  0  2  0  0  0  0  0  0
  -27.9580  -12.0840   18.6320 C   0  0  0  0  0  2  0  0  0  0  0  0
  -27.6370  -12.9620   19.8710 C   0  0  0  0  0  3  0  0  0  0  0  0
  -28.7500  -12.8530   20.9390 C   0  0  0  0  0  2  0  0  0  0  0  0
  -30.0300  -13.1880   20.2930 N   0  0  0  0  0  0  0  0  0  0  0  0
  -31.7840  -14.5820   19.8830 O   0  0  0  0  0  0  0  0  0  0  0  0
  -29.8300  -15.4560   20.6420 N   0  0  0  0  0  0  0  0  0  0  0  0
  -28.9030  -15.1630   20.9060 H   0  0  0  0  0  0  0  0  0  0  0  0
  -25.2840  -13.5400   20.7330 C   0  0  0  0  0  0  0  0  0  0  0  0
  -24.2350  -12.7540   21.1230 C   0  0  0  0  0  0  0  0  0  0  0  0
  -24.6950  -11.4050   21.0220 C   0  0  0  0  0  0  0  0  0  0  0  0
  -26.3150  -12.6690   20.4150 N   0  0  0  0  0  0  0  0  0  0  0  0
  -25.9680  -11.3780   20.6500 N   0  0  0  0  0  0  0  0  0  0  0  0
  -23.9790  -10.1380   21.2070 C   0  0  0  0  0  0  0  0  0  0  0  0
  -24.3920   -9.1920   22.1710 C   0  0  0  0  0  3  0  0  0  0  0  0
  -23.6770   -7.9880   22.3440 C   0  0  0  0  0  3  0  0  0  0  0  0
  -22.5350   -7.7200   21.5510 C   0  0  0  0  0  0  0  0  0  0  0  0
  -22.1410   -8.6560   20.5770 C   0  0  0  0  0  3  0  0  0  0  0  0
  -22.8570   -9.8520   20.4040 C   0  0  0  0  0  3  0  0  0  0  0  0
  -21.7950   -6.5660   21.6310 O   0  0  0  0  0  0  0  0  0  0  0  0
  -21.6340   -5.8940   22.8160 C   0  0  0  0  0  0  0  0  0  0  0  0
  -21.0340   -6.5020   23.9400 C   0  0  0  0  0  3  0  0  0  0  0  0
  -20.8240   -5.7540   25.1160 C   0  0  0  0  0  3  0  0  0  0  0  0
  -21.2060   -4.4010   25.1680 C   0  0  0  0  0  0  0  0  0  0  0  0
  -21.7990   -3.7920   24.0480 C   0  0  0  0  0  3  0  0  0  0  0  0
  -22.0100   -4.5370   22.8740 C   0  0  0  0  0  0  0  0  0  0  0  0
  -22.5630   -3.9410   21.7910 F   0  0  0  0  0  0  0  0  0  0  0  0
  -20.9970   -3.6790   26.2940 F   0  0  0  0  0  0  0  0  0  0  0  0
  -22.8550  -13.2200   21.4820 C   0  0  0  0  0  0  0  0  0  0  0  0
  -22.1680  -12.4900   22.3530 N   0  0  0  0  0  0  0  0  0  0  0  0
  -22.3940  -14.2670   21.0260 O   0  0  0  0  0  0  0  0  0  0  0  0
  -22.5510  -11.6400   22.7400 H   0  0  0  0  0  0  0  0  0  0  0  0
  -21.2470  -12.7880   22.6420 H   0  0  0  0  0  0  0  0  0  0  0  0
  -25.4390  -14.9160   20.6070 N   0  0  0  0  0  0  0  0  0  0  0  0
  -24.6900  -15.5670   20.8110 H   0  0  0  0  0  0  0  0  0  0  0  0
  -26.2900  -15.3710   20.3120 H   0  0  0  0  0  0  0  0  0  0  0  0
  1  7  1  0
  1  2  2  0
  2 10  1  0
  3  1  1  0
  3  6  1  0
  5  4  1  0
  6 11  1  0
  6  4  1  0
  7  5  1  0
  7  8  1  6
  9 10  2  0
 11 13  1  0
 12 23  2  0
 13 18  1  0
 14 22  1  0
 14 24  1  0
 15 21  1  0
 15 17  1  0
 16 22  1  0
 17 16  1  0
 18 17  2  0
 19 20  1  0
 19 13  2  0
 20 15  2  0
 21 14  1  0
 22 12  1  0
 24 26  2  0
 25 24  1  0
 27 25  1  0
 28 37  2  0
 28 33  1  0
 29 25  1  0
 30 29  1  0
 31 32  1  0
 31 30  1  0
 32 28  1  0
 33 29  1  0
 33 34  2  0
 35 34  1  0
 36 35  2  0
 37 36  1  0
 38 12  1  0
 38 43  1  0
 38 39  1  0
 39 42  1  1
 39 40  1  0
 41 39  1  0
 43 46  1  0
 44 48  1  0
 44 43  1  0
 45 44  2  0
 48 47  1  0
 50 51  1  0
 50 48  1  0
 50 49  1  0
 52  7  1  0
 52 56  1  0
 53 54  1  0
 55 57  2  0
 55 56  1  0
 56 53  2  0
 57 58  1  0
 58 68  1  0
 58 54  2  0
 59 57  1  0
 60 68  1  0
 61 66  1  0
 62 63  1  0
 62 61  1  0
 64 63  1  0
 64 73  1  0
 64 65  1  0
 66 60  1  0
 66 65  1  0
 67 60  2  0
 68 69  1  0
 70 71  2  0
 71 90  1  0
 72 71  1  0
 72 75  1  0
 73 74  1  0
 73 70  1  0
 74 72  2  0
 75 76  1  0
 76 77  2  0
 78 81  1  0
 78 77  1  0
 79 78  2  0
 80 79  1  0
 80 75  2  0
 81 82  1  0
 82 87  2  0
 82 83  1  0
 83 84  2  0
 84 85  1  0
 85 89  1  0
 86 85  2  0
 87 86  1  0
 88 87  1  0
 90 91  1  0
 91 94  1  0
 91 93  1  0
 92 90  2  0
 95 70  1  0
 95 96  1  0
 97 95  1  0
M  ISO  4   6 101  11 101  60 100  68 100
M  END
>  <TORSDO>  (66) 
F 19

>  <SCORE>  (66) 
-12.313

>  <name>  (66) 
65

>  <ligand_id>  (66) 
65

>  <original_smiles>  (66) 
[H]C([H])=C([H])C([H])=C1C([H])([H])C([H])(Oc2c([H])c([H])c3c(c2[H])C([H])([H])N(C(=O)C([H])(N([H])C(=O)C([H])(N([H])C([H])([H])[H])C([H])([H])[H])C(C([H])([H])[H])(C([H])([H])[H])C([H])([H])[H])C([H])(C(=O)N([H])C2([H])c4c([H])c([H])c([H])c([H])c4C([H])([H])C([H])([H])C2([H])[H])C3([H])[H])C([H])([H])C([H])([H])[N+]1([H])C([H])([H])c1c([H])c([H])c(N([H])C(=O)N2C([H])([H])C([H])([H])C([H])([H])C([H])(n3nc(-c4c([H])c([H])c(Oc5c([H])c([H])c(F)c([H])c5F)c([H])c4[H])c(C(=O)N([H])[H])c3N([H])[H])C2([H])[H])c(C([H])([H])[H])c1[H]

>  <smiles>  (66) 
[H]C([H])=C([H])C([H])=C1C([H])([H])C([H])(Oc2c([H])c([H])c3c(c2[H])C([H])([H])N(C(=O)C([H])(N([H])C(=O)C([H])(N([H])C([H])([H])[H])C([H])([H])[H])C(C([H])([H])[H])(C([H])([H])[H])C([H])([H])[H])C([H])(C(=O)N([H])C2([H])c4c([H])c([H])c([H])c([H])c4C([H])([H])C([H])([H])C2([H])[H])C3([H])[H])C([H])([H])C([H])([H])[N+]1([H])C([H])([H])c1c([H])c([H])c(N([H])C(=O)N2C([H])([H])C([H])([H])C([H])([H])C([H])(n3nc(-c4c([H])c([H])c(Oc5c([H])c([H])c(F)c([H])c5F)c([H])c4[H])c(C(=O)N([H])[H])c3N([H])[H])C2([H])[H])c(C([H])([H])[H])c1[H]

$$$$
66:0:0
     RDKit          3D

 93101  0  0  1  0  0  0  0  0999 V2000
  -30.3420  -22.0570   20.9730 C   0  0  0  0  0  2  0  0  0  0  0  0
  -30.5700  -19.4580   20.9860 C   0  0  0  0  0  3  0  0  0  0  0  0
  -28.5770  -20.4620   20.0180 C   0  0  0  0  0  3  0  0  0  0  0  0
  -28.8670  -18.0270   19.9920 C   0  0  0  0  0  3  0  0  0  0  0  0
  -29.8310  -20.6330   20.6450 C   0  0  0  0  0  0  0  0  0  0  0  0
  -30.0980  -18.1440   20.6700 C   0  0  0  0  0  0  0  0  0  0  0  0
  -28.1100  -19.1750   19.6890 C   0  0  0  0  0  0  0  0  0  0  0  0
  -26.5840  -19.0100   18.9050 Cl  0  0  0  0  0  0  0  0  0  0  0  0
  -30.8980  -16.8960   21.1110 C   0  0  0  0  0  2  0  0  0  0  0  0
  -30.9190  -14.4590   20.4220 C   0  0  0  0  0  0  0  0  0  0  0  0
  -30.5990  -12.2090   19.4070 C   0  0  0  0  0  2  0  0  0  0  0  0
  -29.6900  -12.3010   18.1650 C   0  0  0  0  0  2  0  0  0  0  0  0
  -28.2070  -12.2040   18.5730 C   0  0  0  0  0  2  0  0  0  0  0  0
  -27.8470  -13.1480   19.7490 C   0  0  0  0  0  3  0  0  0  0  0  0
  -28.8740  -13.0300   20.8970 C   0  0  0  0  0  2  0  0  0  0  0  0
  -30.2120  -13.2890   20.3400 N   0  0  0  0  0  0  0  0  0  0  0  0
  -32.0490  -14.5640   19.9380 O   0  0  0  0  0  0  0  0  0  0  0  0
  -30.2990  -15.5380   20.9670 N   0  0  0  0  0  0  0  0  0  0  0  0
  -29.3800  -15.3860   21.3580 H   0  0  0  0  0  0  0  0  0  0  0  0
  -25.4530  -13.8360   20.4000 C   0  0  0  0  0  0  0  0  0  0  0  0
  -24.3590  -13.1060   20.7740 C   0  0  0  0  0  0  0  0  0  0  0  0
  -24.7780  -11.7400   20.7800 C   0  0  0  0  0  0  0  0  0  0  0  0
  -26.4780  -12.9220   20.2120 N   0  0  0  0  0  0  0  0  0  0  0  0
  -26.0730  -11.6570   20.4970 N   0  0  0  0  0  0  0  0  0  0  0  0
  -24.0110  -10.5040   20.9820 C   0  0  0  0  0  0  0  0  0  0  0  0
  -24.4120   -9.5310   21.9230 C   0  0  0  0  0  3  0  0  0  0  0  0
  -23.6450   -8.3610   22.1130 C   0  0  0  0  0  3  0  0  0  0  0  0
  -22.4660   -8.1550   21.3600 C   0  0  0  0  0  0  0  0  0  0  0  0
  -22.0850   -9.1160   20.4060 C   0  0  0  0  0  3  0  0  0  0  0  0
  -22.8530  -10.2760   20.2140 C   0  0  0  0  0  3  0  0  0  0  0  0
  -21.6740   -7.0370   21.4600 O   0  0  0  0  0  0  0  0  0  0  0  0
  -21.6040   -6.3030   22.6170 C   0  0  0  0  0  0  0  0  0  0  0  0
  -21.2160   -6.8850   23.8420 C   0  0  0  0  0  3  0  0  0  0  0  0
  -21.0910   -6.0830   24.9940 C   0  0  0  0  0  3  0  0  0  0  0  0
  -21.3420   -4.6990   24.9190 C   0  0  0  0  0  0  0  0  0  0  0  0
  -21.7240   -4.1170   23.6980 C   0  0  0  0  0  3  0  0  0  0  0  0
  -21.8500   -4.9170   22.5490 C   0  0  0  0  0  0  0  0  0  0  0  0
  -22.1980   -4.3500   21.3680 F   0  0  0  0  0  0  0  0  0  0  0  0
  -21.2160   -3.9250   26.0220 F   0  0  0  0  0  0  0  0  0  0  0  0
  -22.9730  -13.6320   21.0090 C   0  0  0  0  0  0  0  0  0  0  0  0
  -22.2130  -12.9850   21.8850 N   0  0  0  0  0  0  0  0  0  0  0  0
  -22.5720  -14.6510   20.4480 O   0  0  0  0  0  0  0  0  0  0  0  0
  -22.5540  -12.1670   22.3670 H   0  0  0  0  0  0  0  0  0  0  0  0
  -21.2810  -13.3140   22.0870 H   0  0  0  0  0  0  0  0  0  0  0  0
  -25.6570  -15.1970   20.1840 N   0  0  0  0  0  0  0  0  0  0  0  0
  -24.8920  -15.8580   20.2370 H   0  0  0  0  0  0  0  0  0  0  0  0
  -26.4910  -15.5930   19.7670 H   0  0  0  0  0  0  0  0  0  0  0  0
  -29.6620  -24.4860   20.5110 C   0  0  0  0  0  0  0  0  0  0  0  0
  -29.5380  -23.1450   20.3730 N   0  0  0  0  0  0  0  0  0  0  0  0
  -30.5610  -25.0030   21.1830 O   0  0  0  0  0  0  0  0  0  0  0  0
  -28.7590  -22.8360   19.8130 H   0  0  0  0  0  0  0  0  0  0  0  0
  -28.6070  -25.3610   19.7760 C   0  0  0  0  0  2  0  0  0  0  0  0
  -28.5940  -26.7380   20.2290 O   0  0  0  0  0  0  0  0  0  0  0  0
  -24.6360  -31.8500   23.2230 C   0  0  0  0  0  0  0  0  0  0  0  0
  -27.4030  -27.4530   20.1620 C   0  0  0  0  0  0  0  0  0  0  0  0
  -23.4740  -30.4480   21.5490 C   0  0  0  0  0  3  0  0  0  0  0  0
  -24.9760  -28.9400   20.1360 C   0  0  0  0  0  0  0  0  0  0  0  0
  -25.9970  -30.8390   21.3970 C   0  0  0  0  0  2  0  0  0  0  0  0
  -26.1170  -29.4740   20.7450 C   0  0  0  0  0  0  0  0  0  0  0  0
  -27.3300  -28.7390   20.7520 C   0  0  0  0  0  3  0  0  0  0  0  0
  -26.2410  -26.9520   19.5260 C   0  0  0  0  0  3  0  0  0  0  0  0
  -25.0380  -27.6800   19.5150 C   0  0  0  0  0  3  0  0  0  0  0  0
  -23.7150  -29.7770   20.1700 C   0  0  0  0  0  2  0  0  0  0  0  0
  -24.7200  -31.0620   22.1140 N   0  0  0  0  0  0  0  0  0  0  0  0
  -23.5460  -32.1050   23.7490 O   0  0  0  0  0  0  0  0  0  0  0  0
  -22.8210  -29.4160   22.4900 C   0  0  0  0  0  0  0  0  0  0  0  0
  -21.4950  -29.2400   22.3560 N   0  0  0  0  0  0  0  0  0  0  0  0
  -23.4990  -28.7750   23.2980 O   0  0  0  0  0  0  0  0  0  0  0  0
  -21.0110  -29.7870   21.6580 H   0  0  0  0  0  0  0  0  0  0  0  0
  -18.1120  -28.0890   22.8600 C   0  0  0  0  0  0  0  0  0  0  0  0
  -20.6730  -28.3000   23.1170 C   0  0  0  0  0  3  0  0  0  0  0  0
  -20.7490  -26.8810   22.5090 C   0  0  0  0  0  2  0  0  0  0  0  0
  -19.6390  -26.6060   21.4890 C   0  0  0  0  0  2  0  0  0  0  0  0
  -18.2650  -26.7540   22.1470 C   0  0  0  0  0  2  0  0  0  0  0  0
  -19.2450  -28.8190   23.3020 C   0  0  0  0  0  0  0  0  0  0  0  0
  -19.0540  -30.0670   23.9320 C   0  0  0  0  0  3  0  0  0  0  0  0
  -17.7620  -30.5820   24.1290 C   0  0  0  0  0  3  0  0  0  0  0  0
  -16.6420  -29.8440   23.7090 C   0  0  0  0  0  3  0  0  0  0  0  0
  -16.8170  -28.5990   23.0810 C   0  0  0  0  0  3  0  0  0  0  0  0
  -25.9060  -32.4940   23.8670 C   0  0  0  0  0  3  0  0  0  0  0  0
  -26.4040  -31.7280   25.1520 C   0  0  1  0  0  0  0  0  0  0  0  0
  -25.2880  -31.4830   26.1930 C   0  0  0  0  0  1  0  0  0  0  0  0
  -27.0040  -30.3540   24.7700 C   0  0  0  0  0  1  0  0  0  0  0  0
  -27.5380  -32.5280   25.8340 C   0  0  0  0  0  1  0  0  0  0  0  0
  -25.5790  -33.8890   24.1850 N   0  0  0  0  0  0  0  0  0  0  0  0
  -25.9170  -34.9430   23.4300 C   0  0  0  0  0  0  0  0  0  0  0  0
  -26.6060  -34.8410   22.4110 O   0  0  0  0  0  0  0  0  0  0  0  0
  -24.9670  -34.0410   24.9740 H   0  0  0  0  0  0  0  0  0  0  0  0
  -24.1750  -36.7150   23.0490 C   0  0  0  0  0  1  0  0  0  0  0  0
  -25.4110  -36.3260   23.8750 C   0  0  0  0  0  3  0  0  0  0  0  0
  -27.5270  -37.2370   24.7260 C   0  0  0  0  0  1  0  0  0  0  0  0
  -26.4340  -37.3890   23.7690 N   0  0  0  0  0  0  0  0  0  0  0  0
  -26.0170  -38.3060   23.9040 H   0  0  0  0  0  0  0  0  0  0  0  0
  3  5  1  0
  4  6  2  0
  5  1  1  0
  5  2  2  0
  6  2  1  0
  6  9  1  0
  7  4  1  0
  7  3  2  0
  8  7  1  0
 10 18  1  0
 11 16  1  0
 12 13  1  0
 12 11  1  0
 14 13  1  0
 14 23  1  0
 14 15  1  0
 16 10  1  0
 16 15  1  0
 17 10  2  0
 18  9  1  0
 18 19  1  0
 20 21  2  0
 21 22  1  0
 21 40  1  0
 22 25  1  0
 23 20  1  0
 23 24  1  0
 24 22  2  0
 25 26  1  0
 26 27  2  0
 28 31  1  0
 28 27  1  0
 29 28  2  0
 30 29  1  0
 30 25  2  0
 31 32  1  0
 32 33  1  0
 33 34  2  0
 35 34  1  0
 35 39  1  0
 36 35  2  0
 37 32  2  0
 37 36  1  0
 38 37  1  0
 40 41  1  0
 41 44  1  0
 41 43  1  0
 42 40  2  0
 45 46  1  0
 45 20  1  0
 47 45  1  0
 48 50  2  0
 49 48  1  0
 49  1  1  0
 51 49  1  0
 52 53  1  0
 52 48  1  0
 54 65  2  0
 55 53  1  0
 55 60  1  0
 56 64  1  0
 56 66  1  0
 57 63  1  0
 57 59  1  0
 58 64  1  0
 59 60  2  0
 59 58  1  0
 61 55  2  0
 62 61  1  0
 62 57  2  0
 63 56  1  0
 64 54  1  0
 66 68  2  0
 67 66  1  0
 69 67  1  0
 70 79  2  0
 70 75  1  0
 71 67  1  0
 71 75  1  0
 72 71  1  0
 73 74  1  0
 73 72  1  0
 74 70  1  0
 75 76  2  0
 76 77  1  0
 78 77  2  0
 79 78  1  0
 80 54  1  0
 80 85  1  0
 80 81  1  0
 81 84  1  1
 81 82  1  0
 83 81  1  0
 85 88  1  0
 86 90  1  0
 86 85  1  0
 87 86  2  0
 90 89  1  0
 92 90  1  0
 92 93  1  0
 92 91  1  0
M  ISO  4  10 100  18 100  52 101  53 101
M  END
>  <TORSDO>  (67) 
F 20

>  <SCORE>  (67) 
-13.961

>  <name>  (67) 
66

>  <ligand_id>  (67) 
66

>  <original_smiles>  (67) 
[H]c1c([H])c([H])c2c(c1[H])C([H])([H])C([H])([H])C([H])([H])C2([H])N([H])C(=O)C1([H])N(C(=O)C([H])(N([H])C(=O)C([H])(N([H])C([H])([H])[H])C([H])([H])[H])C(C([H])([H])[H])(C([H])([H])[H])C([H])([H])[H])C([H])([H])c2c([H])c(OC([H])([H])C(=O)N([H])C([H])([H])c3c([H])c(Cl)c([H])c(C([H])([H])N([H])C(=O)N4C([H])([H])C([H])([H])C([H])([H])C([H])(n5nc(-c6c([H])c([H])c(Oc7c([H])c([H])c(F)c([H])c7F)c([H])c6[H])c(C(=O)N([H])[H])c5N([H])[H])C4([H])[H])c3[H])c([H])c([H])c2C1([H])[H]

>  <smiles>  (67) 
[H]c1c([H])c([H])c2c(c1[H])C([H])([H])C([H])([H])C([H])([H])C2([H])N([H])C(=O)C1([H])N(C(=O)C([H])(N([H])C(=O)C([H])(N([H])C([H])([H])[H])C([H])([H])[H])C(C([H])([H])[H])(C([H])([H])[H])C([H])([H])[H])C([H])([H])c2c([H])c(OC([H])([H])C(=O)N([H])C([H])([H])c3c([H])c(Cl)c([H])c(C([H])([H])N([H])C(=O)N4C([H])([H])C([H])([H])C([H])([H])C([H])(n5nc(-c6c([H])c([H])c(Oc7c([H])c([H])c(F)c([H])c7F)c([H])c6[H])c(C(=O)N([H])[H])c5N([H])[H])C4([H])[H])c3[H])c([H])c([H])c2C1([H])[H]

$$$$
67:0:0
     RDKit          3D

 96105  0  0  1  0  0  0  0  0999 V2000
  -28.7060  -22.3400   18.4280 C   0  0  0  0  0  0  0  0  0  0  0  0
  -29.4780  -21.5770   17.6290 C   0  0  0  0  0  2  0  0  0  0  0  0
  -27.7360  -23.3920   17.9110 C   0  0  0  0  0  2  0  0  0  0  0  0
  -28.2480  -24.8100   18.2020 C   0  0  0  0  0  2  0  0  0  0  0  0
  -28.5080  -23.6860   20.5940 C   0  0  0  0  0  2  0  0  0  0  0  0
  -28.6190  -25.0350   19.6850 C   0  0  0  0  0  3  0  0  0  0  0  0
  -28.6750  -22.2780   19.9380 N   0  0  2  0  0  4  0  0  0  0  0  0
  -27.7800  -21.8630   20.1570 H   0  0  0  0  0  0  0  0  0  0  0  0
  -28.4000  -26.4500   20.1840 O   0  0  0  0  0  0  0  0  0  0  0  0
  -24.6300  -31.8520   23.1920 C   0  0  0  0  0  0  0  0  0  0  0  0
  -27.2380  -27.2620   20.1270 C   0  0  0  0  0  0  0  0  0  0  0  0
  -23.4240  -30.4710   21.5380 C   0  0  0  0  0  3  0  0  0  0  0  0
  -24.8720  -28.9090   20.1120 C   0  0  0  0  0  0  0  0  0  0  0  0
  -25.9640  -30.7750   21.3550 C   0  0  0  0  0  2  0  0  0  0  0  0
  -26.0410  -29.3900   20.7110 C   0  0  0  0  0  0  0  0  0  0  0  0
  -27.2200  -28.5800   20.7030 C   0  0  0  0  0  3  0  0  0  0  0  0
  -26.0280  -26.8280   19.5410 C   0  0  0  0  0  3  0  0  0  0  0  0
  -24.8720  -27.6370   19.5160 C   0  0  0  0  0  3  0  0  0  0  0  0
  -23.6390  -29.7920   20.1570 C   0  0  0  0  0  2  0  0  0  0  0  0
  -24.6940  -31.0480   22.0880 N   0  0  0  0  0  0  0  0  0  0  0  0
  -23.5470  -32.1320   23.7260 O   0  0  0  0  0  0  0  0  0  0  0  0
  -22.7480  -29.4580   22.4910 C   0  0  0  0  0  0  0  0  0  0  0  0
  -21.4190  -29.3040   22.3690 N   0  0  0  0  0  0  0  0  0  0  0  0
  -23.4190  -28.8100   23.2980 O   0  0  0  0  0  0  0  0  0  0  0  0
  -20.9350  -29.8780   21.6920 H   0  0  0  0  0  0  0  0  0  0  0  0
  -18.0270  -28.1390   22.8500 C   0  0  0  0  0  0  0  0  0  0  0  0
  -20.5880  -28.3690   23.1300 C   0  0  0  0  0  3  0  0  0  0  0  0
  -20.6760  -26.9410   22.5420 C   0  0  0  0  0  2  0  0  0  0  0  0
  -19.5730  -26.6410   21.5220 C   0  0  0  0  0  2  0  0  0  0  0  0
  -18.1920  -26.7930   22.1640 C   0  0  0  0  0  2  0  0  0  0  0  0
  -19.1520  -28.8860   23.2900 C   0  0  0  0  0  0  0  0  0  0  0  0
  -18.9450  -30.1460   23.8910 C   0  0  0  0  0  3  0  0  0  0  0  0
  -17.6460  -30.6590   24.0570 C   0  0  0  0  0  3  0  0  0  0  0  0
  -16.5350  -29.9100   23.6330 C   0  0  0  0  0  3  0  0  0  0  0  0
  -16.7260  -28.6520   23.0350 C   0  0  0  0  0  3  0  0  0  0  0  0
  -25.9130  -32.4740   23.8270 C   0  0  0  0  0  3  0  0  0  0  0  0
  -25.5940  -33.8530   24.2230 N   0  0  0  0  0  0  0  0  0  0  0  0
  -25.9060  -34.9430   23.5090 C   0  0  0  0  0  0  0  0  0  0  0  0
  -26.5630  -34.8920   22.4660 O   0  0  0  0  0  0  0  0  0  0  0  0
  -25.0120  -33.9680   25.0400 H   0  0  0  0  0  0  0  0  0  0  0  0
  -24.1480  -36.7260   23.2640 C   0  0  0  0  0  1  0  0  0  0  0  0
  -25.4100  -36.3060   24.0330 C   0  0  0  0  0  3  0  0  0  0  0  0
  -27.5560  -37.1770   24.8480 C   0  0  0  0  0  1  0  0  0  0  0  0
  -26.4270  -37.3770   23.9440 N   0  0  0  0  0  0  0  0  0  0  0  0
  -26.0140  -38.2830   24.1480 H   0  0  0  0  0  0  0  0  0  0  0  0
  -26.4520  -31.6530   25.0630 C   0  0  1  0  0  0  0  0  0  0  0  0
  -25.3740  -31.3670   26.1340 C   0  0  0  0  0  1  0  0  0  0  0  0
  -27.0320  -30.2960   24.6020 C   0  0  0  0  0  1  0  0  0  0  0  0
  -27.6090  -32.4230   25.7410 C   0  0  0  0  0  1  0  0  0  0  0  0
  -29.5960  -21.2150   20.6030 C   0  0  0  0  0  2  0  0  0  0  0  0
  -29.6570  -18.4460   20.6230 C   0  0  0  0  0  3  0  0  0  0  0  0
  -27.5930  -18.4750   22.5000 C   0  0  0  0  0  3  0  0  0  0  0  0
  -29.0670  -19.7470   21.0100 C   0  0  0  0  0  0  0  0  0  0  0  0
  -28.0050  -19.7020   21.9540 C   0  0  0  0  0  0  0  0  0  0  0  0
  -29.2260  -17.1590   21.1840 C   0  0  0  0  0  0  0  0  0  0  0  0
  -28.1910  -17.2570   22.1540 C   0  0  0  0  0  0  0  0  0  0  0  0
  -27.2800  -20.9500   22.4480 C   0  0  0  0  0  1  0  0  0  0  0  0
  -27.5200  -15.7250   23.0730 Br  0  0  0  0  0  0  0  0  0  0  0  0
  -30.4800  -14.7800   20.5290 C   0  0  0  0  0  0  0  0  0  0  0  0
  -30.4670  -12.4950   19.4410 C   0  0  0  0  0  2  0  0  0  0  0  0
  -29.5160  -12.5480   18.2170 C   0  0  0  0  0  2  0  0  0  0  0  0
  -28.0380  -12.3540   18.6250 C   0  0  0  0  0  2  0  0  0  0  0  0
  -27.6530  -13.2070   19.8600 C   0  0  0  0  0  3  0  0  0  0  0  0
  -28.7080  -13.0310   20.9750 C   0  0  0  0  0  2  0  0  0  0  0  0
  -29.9920  -13.4900   20.4290 N   0  0  0  0  0  0  0  0  0  0  0  0
  -31.6400  -15.0320   20.1760 O   0  0  0  0  0  0  0  0  0  0  0  0
  -29.5030  -15.7200   20.8450 N   0  0  0  0  0  0  0  0  0  0  0  0
  -28.6930  -15.1730   21.1030 H   0  0  0  0  0  0  0  0  0  0  0  0
  -25.2550  -13.8110   20.5530 C   0  0  0  0  0  0  0  0  0  0  0  0
  -24.1830  -13.0410   20.9140 C   0  0  0  0  0  0  0  0  0  0  0  0
  -24.6400  -11.6880   20.8720 C   0  0  0  0  0  0  0  0  0  0  0  0
  -26.3000  -12.9280   20.3290 N   0  0  0  0  0  0  0  0  0  0  0  0
  -25.9330  -11.6450   20.5730 N   0  0  0  0  0  0  0  0  0  0  0  0
  -23.9050  -10.4290   21.0420 C   0  0  0  0  0  0  0  0  0  0  0  0
  -24.3600   -9.4220   21.9210 C   0  0  0  0  0  3  0  0  0  0  0  0
  -23.6280   -8.2260   22.0790 C   0  0  0  0  0  3  0  0  0  0  0  0
  -22.4270   -8.0290   21.3570 C   0  0  0  0  0  0  0  0  0  0  0  0
  -21.9890   -9.0260   20.4670 C   0  0  0  0  0  3  0  0  0  0  0  0
  -22.7210  -10.2150   20.3080 C   0  0  0  0  0  3  0  0  0  0  0  0
  -21.6670   -6.8860   21.4230 O   0  0  0  0  0  0  0  0  0  0  0  0
  -21.6860   -6.0730   22.5270 C   0  0  0  0  0  0  0  0  0  0  0  0
  -21.4020   -6.5640   23.8210 C   0  0  0  0  0  3  0  0  0  0  0  0
  -21.3640   -5.6790   24.9170 C   0  0  0  0  0  3  0  0  0  0  0  0
  -21.6040   -4.3060   24.7220 C   0  0  0  0  0  0  0  0  0  0  0  0
  -21.8820   -3.8150   23.4350 C   0  0  0  0  0  3  0  0  0  0  0  0
  -21.9200   -4.6960   22.3400 C   0  0  0  0  0  0  0  0  0  0  0  0
  -22.1670   -4.2140   21.0980 F   0  0  0  0  0  0  0  0  0  0  0  0
  -21.5620   -3.4550   25.7740 F   0  0  0  0  0  0  0  0  0  0  0  0
  -22.7860  -13.5240   21.1810 C   0  0  0  0  0  0  0  0  0  0  0  0
  -22.0440  -12.8260   22.0350 N   0  0  0  0  0  0  0  0  0  0  0  0
  -22.3550  -14.5540   20.6650 O   0  0  0  0  0  0  0  0  0  0  0  0
  -22.4050  -11.9990   22.4840 H   0  0  0  0  0  0  0  0  0  0  0  0
  -21.1070  -13.1350   22.2480 H   0  0  0  0  0  0  0  0  0  0  0  0
  -25.4160  -15.1810   20.3700 N   0  0  0  0  0  0  0  0  0  0  0  0
  -24.6470  -15.8300   20.4940 H   0  0  0  0  0  0  0  0  0  0  0  0
  -26.2480  -15.6220   20.0030 H   0  0  0  0  0  0  0  0  0  0  0  0
  1  7  1  0
  2  1  2  0
  3  4  1  0
  3  1  1  0
  4  6  1  0
  6  9  1  0
  6  5  1  0
  7  8  1  6
  7  5  1  0
  7 50  1  0
 10 21  2  0
 11  9  1  0
 11 16  1  0
 12 20  1  0
 12 22  1  0
 13 19  1  0
 13 15  1  0
 14 20  1  0
 15 14  1  0
 16 15  2  0
 17 11  2  0
 18 17  1  0
 18 13  2  0
 19 12  1  0
 20 10  1  0
 22 24  2  0
 23 22  1  0
 25 23  1  0
 26 35  2  0
 26 31  1  0
 27 23  1  0
 27 31  1  0
 28 27  1  0
 29 30  1  0
 29 28  1  0
 30 26  1  0
 31 32  2  0
 32 33  1  0
 34 33  2  0
 35 34  1  0
 36 10  1  0
 36 37  1  0
 36 46  1  0
 37 40  1  0
 38 42  1  0
 38 37  1  0
 39 38  2  0
 42 41  1  0
 44 42  1  0
 44 45  1  0
 44 43  1  0
 46 49  1  1
 46 47  1  0
 48 46  1  0
 50 53  1  0
 51 53  2  0
 51 55  1  0
 53 54  1  0
 54 57  1  0
 54 52  2  0
 55 56  2  0
 56 52  1  0
 56 58  1  0
 59 67  1  0
 60 65  1  0
 61 62  1  0
 61 60  1  0
 63 62  1  0
 63 72  1  0
 63 64  1  0
 65 59  1  0
 65 64  1  0
 66 59  2  0
 67 68  1  0
 67 55  1  0
 69 70  2  0
 70 89  1  0
 71 70  1  0
 71 74  1  0
 72 69  1  0
 72 73  1  0
 73 71  2  0
 74 75  1  0
 75 76  2  0
 77 80  1  0
 77 76  1  0
 78 77  2  0
 79 78  1  0
 79 74  2  0
 80 81  1  0
 81 82  1  0
 82 83  2  0
 84 83  1  0
 84 88  1  0
 85 84  2  0
 86 81  2  0
 86 85  1  0
 87 86  1  0
 89 90  1  0
 90 93  1  0
 90 92  1  0
 91 89  2  0
 94 95  1  0
 94 69  1  0
 96 94  1  0
M  ISO  4   6 101   9 101  59 100  67 100
M  END
>  <TORSDO>  (68) 
F 18

>  <SCORE>  (68) 
11.739

>  <name>  (68) 
67

>  <ligand_id>  (68) 
67

>  <original_smiles>  (68) 
[H]C([H])=C1C([H])([H])C([H])([H])C([H])(Oc2c([H])c([H])c3c(c2[H])C([H])([H])N(C(=O)C([H])(N([H])C(=O)C([H])(N([H])C([H])([H])[H])C([H])([H])[H])C(C([H])([H])[H])(C([H])([H])[H])C([H])([H])[H])C([H])(C(=O)N([H])C2([H])c4c([H])c([H])c([H])c([H])c4C([H])([H])C([H])([H])C2([H])[H])C3([H])[H])C([H])([H])[N+]1([H])C([H])([H])c1c([H])c(N([H])C(=O)N2C([H])([H])C([H])([H])C([H])([H])C([H])(n3nc(-c4c([H])c([H])c(Oc5c([H])c([H])c(F)c([H])c5F)c([H])c4[H])c(C(=O)N([H])[H])c3N([H])[H])C2([H])[H])c(Br)c([H])c1C([H])([H])[H]

>  <smiles>  (68) 
[H]C([H])=C1C([H])([H])C([H])([H])C([H])(Oc2c([H])c([H])c3c(c2[H])C([H])([H])N(C(=O)C([H])(N([H])C(=O)C([H])(N([H])C([H])([H])[H])C([H])([H])[H])C(C([H])([H])[H])(C([H])([H])[H])C([H])([H])[H])C([H])(C(=O)N([H])C2([H])c4c([H])c([H])c([H])c([H])c4C([H])([H])C([H])([H])C2([H])[H])C3([H])[H])C([H])([H])[N+]1([H])C([H])([H])c1c([H])c(N([H])C(=O)N2C([H])([H])C([H])([H])C([H])([H])C([H])(n3nc(-c4c([H])c([H])c(Oc5c([H])c([H])c(F)c([H])c5F)c([H])c4[H])c(C(=O)N([H])[H])c3N([H])[H])C2([H])[H])c(Br)c([H])c1C([H])([H])[H]

$$$$
68:0:0
     RDKit          3D

 96105  0  0  1  0  0  0  0  0999 V2000
  -28.7400  -22.5330   21.5610 C   0  0  0  0  0  0  0  0  0  0  0  0
  -29.0940  -23.9940   21.2150 C   0  0  0  0  0  2  0  0  0  0  0  0
  -29.2060  -23.3360   18.8080 C   0  0  0  0  0  2  0  0  0  0  0  0
  -28.5770  -21.9750   19.1430 C   0  0  0  0  0  2  0  0  0  0  0  0
  -28.7300  -24.4300   19.7800 C   0  0  0  0  0  3  0  0  0  0  0  0
  -28.6380  -21.6160   20.5660 N   0  0  0  0  0  0  0  0  0  0  0  0
  -28.6030  -22.2390   22.7510 O   0  0  0  0  0  0  0  0  0  0  0  0
  -28.3700  -20.1840   20.8230 C   0  0  0  0  0  2  0  0  0  0  0  0
  -30.8800  -19.7600   20.6680 C   0  0  0  0  0  3  0  0  0  0  0  0
  -31.8370  -17.5190   20.6820 C   0  0  0  0  0  3  0  0  0  0  0  0
  -32.0040  -18.9160   20.6640 C   0  0  0  0  0  0  0  0  0  0  0  0
  -29.5760  -19.2280   20.7360 C   0  0  0  0  0  0  0  0  0  0  0  0
  -29.4100  -17.8120   20.7770 C   0  0  0  0  0  0  0  0  0  0  0  0
  -30.5440  -16.9430   20.7040 C   0  0  0  0  0  0  0  0  0  0  0  0
  -33.3940  -19.5220   20.6520 C   0  0  0  0  0  1  0  0  0  0  0  0
  -28.0010  -17.2500   20.9180 C   0  0  0  0  0  1  0  0  0  0  0  0
  -31.0480  -14.5480   20.0540 C   0  0  0  0  0  0  0  0  0  0  0  0
  -30.7570  -12.3640   18.9310 C   0  0  0  0  0  2  0  0  0  0  0  0
  -29.7670  -12.5310   17.7590 C   0  0  0  0  0  2  0  0  0  0  0  0
  -28.3070  -12.3860   18.2360 C   0  0  0  0  0  2  0  0  0  0  0  0
  -28.0060  -13.2370   19.5010 C   0  0  0  0  0  3  0  0  0  0  0  0
  -29.1020  -13.0310   20.5740 C   0  0  0  0  0  2  0  0  0  0  0  0
  -30.4030  -13.3530   19.9610 N   0  0  0  0  0  0  0  0  0  0  0  0
  -32.1350  -14.7470   19.5000 O   0  0  0  0  0  0  0  0  0  0  0  0
  -30.3590  -15.5160   20.7020 N   0  0  0  0  0  0  0  0  0  0  0  0
  -29.4760  -15.1990   21.0690 H   0  0  0  0  0  0  0  0  0  0  0  0
  -25.6410  -13.8430   20.3150 C   0  0  0  0  0  0  0  0  0  0  0  0
  -24.5910  -13.0760   20.7330 C   0  0  0  0  0  0  0  0  0  0  0  0
  -25.0400  -11.7220   20.6580 C   0  0  0  0  0  0  0  0  0  0  0  0
  -26.6720  -12.9620   20.0300 N   0  0  0  0  0  0  0  0  0  0  0  0
  -26.3140  -11.6790   20.2910 N   0  0  0  0  0  0  0  0  0  0  0  0
  -24.3130  -10.4640   20.8590 C   0  0  0  0  0  0  0  0  0  0  0  0
  -24.7090   -9.5290   21.8410 C   0  0  0  0  0  3  0  0  0  0  0  0
  -23.9810   -8.3340   22.0260 C   0  0  0  0  0  3  0  0  0  0  0  0
  -22.8410   -8.0660   21.2310 C   0  0  0  0  0  0  0  0  0  0  0  0
  -22.4630   -8.9910   20.2410 C   0  0  0  0  0  3  0  0  0  0  0  0
  -23.1920  -10.1780   20.0550 C   0  0  0  0  0  3  0  0  0  0  0  0
  -22.0890   -6.9200   21.3250 O   0  0  0  0  0  0  0  0  0  0  0  0
  -21.9080   -6.2750   22.5220 C   0  0  0  0  0  0  0  0  0  0  0  0
  -21.3340   -6.9200   23.6390 C   0  0  0  0  0  3  0  0  0  0  0  0
  -21.1050   -6.1980   24.8280 C   0  0  0  0  0  3  0  0  0  0  0  0
  -21.4380   -4.8320   24.8970 C   0  0  0  0  0  0  0  0  0  0  0  0
  -22.0030   -4.1870   23.7840 C   0  0  0  0  0  3  0  0  0  0  0  0
  -22.2350   -4.9060   22.5980 C   0  0  0  0  0  0  0  0  0  0  0  0
  -22.7620   -4.2750   21.5210 F   0  0  0  0  0  0  0  0  0  0  0  0
  -21.2100   -4.1360   26.0350 F   0  0  0  0  0  0  0  0  0  0  0  0
  -23.2130  -13.5610   21.0780 C   0  0  0  0  0  0  0  0  0  0  0  0
  -22.5210  -12.8710   21.9770 N   0  0  0  0  0  0  0  0  0  0  0  0
  -22.7590  -14.5920   20.5810 O   0  0  0  0  0  0  0  0  0  0  0  0
  -22.8990  -12.0370   22.3990 H   0  0  0  0  0  0  0  0  0  0  0  0
  -21.5930  -13.1770   22.2360 H   0  0  0  0  0  0  0  0  0  0  0  0
  -25.7880  -15.2110   20.1260 N   0  0  0  0  0  0  0  0  0  0  0  0
  -24.9980  -15.8400   20.2340 H   0  0  0  0  0  0  0  0  0  0  0  0
  -26.5860  -15.6420   19.6800 H   0  0  0  0  0  0  0  0  0  0  0  0
  -29.3340  -25.8090   19.3870 C   0  0  0  0  0  2  0  0  0  0  0  0
  -29.0380  -26.9060   20.2650 O   0  0  0  0  0  0  0  0  0  0  0  0
  -24.8600  -31.7580   23.3580 C   0  0  0  0  0  0  0  0  0  0  0  0
  -27.8190  -27.5550   20.2090 C   0  0  0  0  0  0  0  0  0  0  0  0
  -23.7840  -30.3870   21.6040 C   0  0  0  0  0  3  0  0  0  0  0  0
  -25.3610  -28.9690   20.1820 C   0  0  0  0  0  0  0  0  0  0  0  0
  -26.3010  -30.8490   21.5340 C   0  0  0  0  0  2  0  0  0  0  0  0
  -26.4680  -29.5100   20.8460 C   0  0  0  0  0  0  0  0  0  0  0  0
  -27.6960  -28.8060   20.8600 C   0  0  0  0  0  3  0  0  0  0  0  0
  -26.6880  -27.0290   19.5420 C   0  0  0  0  0  3  0  0  0  0  0  0
  -25.4640  -27.7260   19.5330 C   0  0  0  0  0  3  0  0  0  0  0  0
  -24.0830  -29.7780   20.2070 C   0  0  0  0  0  2  0  0  0  0  0  0
  -24.9970  -31.0120   22.2250 N   0  0  0  0  0  0  0  0  0  0  0  0
  -23.7470  -31.9640   23.8570 O   0  0  0  0  0  0  0  0  0  0  0  0
  -23.1300  -29.3020   22.4880 C   0  0  0  0  0  0  0  0  0  0  0  0
  -21.8210  -29.0680   22.2810 N   0  0  0  0  0  0  0  0  0  0  0  0
  -23.7960  -28.6690   23.3130 O   0  0  0  0  0  0  0  0  0  0  0  0
  -21.3440  -29.6270   21.5860 H   0  0  0  0  0  0  0  0  0  0  0  0
  -18.4860  -27.7030   22.5540 C   0  0  0  0  0  0  0  0  0  0  0  0
  -21.0120  -28.0630   22.9700 C   0  0  0  0  0  3  0  0  0  0  0  0
  -21.2070  -26.6660   22.3390 C   0  0  0  0  0  2  0  0  0  0  0  0
  -20.1730  -26.3420   21.2560 C   0  0  0  0  0  2  0  0  0  0  0  0
  -18.7560  -26.3950   21.8340 C   0  0  0  0  0  2  0  0  0  0  0  0
  -19.5440  -28.4940   23.0770 C   0  0  0  0  0  0  0  0  0  0  0  0
  -19.2360  -29.7200   23.7070 C   0  0  0  0  0  3  0  0  0  0  0  0
  -17.9020  -30.1550   23.8190 C   0  0  0  0  0  3  0  0  0  0  0  0
  -16.8570  -29.3620   23.3090 C   0  0  0  0  0  3  0  0  0  0  0  0
  -17.1500  -28.1380   22.6840 C   0  0  0  0  0  3  0  0  0  0  0  0
  -26.0900  -32.4140   24.0630 C   0  0  0  0  0  3  0  0  0  0  0  0
  -26.5660  -31.6240   25.3430 C   0  0  1  0  0  0  0  0  0  0  0  0
  -25.4280  -31.3080   26.3420 C   0  0  0  0  0  1  0  0  0  0  0  0
  -27.2220  -30.2830   24.9420 C   0  0  0  0  0  1  0  0  0  0  0  0
  -27.6460  -32.4410   26.0920 C   0  0  0  0  0  1  0  0  0  0  0  0
  -25.7250  -33.7930   24.4090 N   0  0  0  0  0  0  0  0  0  0  0  0
  -26.0590  -34.8730   23.6900 C   0  0  0  0  0  0  0  0  0  0  0  0
  -26.7820  -34.8150   22.6890 O   0  0  0  0  0  0  0  0  0  0  0  0
  -25.0920  -33.9110   25.1860 H   0  0  0  0  0  0  0  0  0  0  0  0
  -24.2950  -36.6200   23.2870 C   0  0  0  0  0  1  0  0  0  0  0  0
  -25.5060  -36.2340   24.1520 C   0  0  0  0  0  3  0  0  0  0  0  0
  -27.5670  -37.1640   25.1120 C   0  0  0  0  0  1  0  0  0  0  0  0
  -26.5100  -37.3210   24.1150 N   0  0  0  0  0  0  0  0  0  0  0  0
  -26.0680  -38.2240   24.2590 H   0  0  0  0  0  0  0  0  0  0  0  0
  1  7  2  0
  2  1  1  0
  3  4  1  0
  3  5  1  0
  4  6  1  0
  5 55  1  0
  5  2  1  0
  6  8  1  0
  6  1  1  0
  9 12  1  0
 10 14  2  0
 11  9  2  0
 11 10  1  0
 12 13  2  0
 12  8  1  0
 13 16  1  0
 14 13  1  0
 15 11  1  0
 17 25  1  0
 18 23  1  0
 19 20  1  0
 19 18  1  0
 21 20  1  0
 21 30  1  0
 21 22  1  0
 23 17  1  0
 23 22  1  0
 24 17  2  0
 25 14  1  0
 25 26  1  0
 27 28  2  0
 28 47  1  0
 29 28  1  0
 29 32  1  0
 30 31  1  0
 30 27  1  0
 31 29  2  0
 32 33  1  0
 33 34  2  0
 35 38  1  0
 35 34  1  0
 36 35  2  0
 37 36  1  0
 37 32  2  0
 38 39  1  0
 39 44  2  0
 39 40  1  0
 40 41  2  0
 41 42  1  0
 42 46  1  0
 43 42  2  0
 44 43  1  0
 45 44  1  0
 47 48  1  0
 48 51  1  0
 48 50  1  0
 49 47  2  0
 52 53  1  0
 52 27  1  0
 54 52  1  0
 55 56  1  0
 57 68  2  0
 58 56  1  0
 58 63  1  0
 59 67  1  0
 59 69  1  0
 60 66  1  0
 60 62  1  0
 61 67  1  0
 62 63  2  0
 62 61  1  0
 64 58  2  0
 65 64  1  0
 65 60  2  0
 66 59  1  0
 67 57  1  0
 69 71  2  0
 70 69  1  0
 72 70  1  0
 73 82  2  0
 73 78  1  0
 74 70  1  0
 74 78  1  0
 75 74  1  0
 76 77  1  0
 76 75  1  0
 77 73  1  0
 78 79  2  0
 79 80  1  0
 81 80  2  0
 82 81  1  0
 83 57  1  0
 83 88  1  0
 83 84  1  0
 84 87  1  1
 84 85  1  0
 86 84  1  0
 88 91  1  0
 89 93  1  0
 89 88  1  0
 90 89  2  0
 93 92  1  0
 95 93  1  0
 95 96  1  0
 95 94  1  0
M  ISO  4  17 100  25 100  55 101  56 101
M  END
>  <TORSDO>  (69) 
F 19

>  <SCORE>  (69) 
-13.059

>  <name>  (69) 
68

>  <ligand_id>  (69) 
68

>  <original_smiles>  (69) 
[H]c1c([H])c([H])c2c(c1[H])C([H])([H])C([H])([H])C([H])([H])C2([H])N([H])C(=O)C1([H])N(C(=O)C([H])(N([H])C(=O)C([H])(N([H])C([H])([H])[H])C([H])([H])[H])C(C([H])([H])[H])(C([H])([H])[H])C([H])([H])[H])C([H])([H])c2c([H])c(OC([H])([H])C3([H])C([H])([H])C(=O)N(C([H])([H])c4c([H])c(C([H])([H])[H])c([H])c(N([H])C(=O)N5C([H])([H])C([H])([H])C([H])([H])C([H])(n6nc(-c7c([H])c([H])c(Oc8c([H])c([H])c(F)c([H])c8F)c([H])c7[H])c(C(=O)N([H])[H])c6N([H])[H])C5([H])[H])c4C([H])([H])[H])C([H])([H])C3([H])[H])c([H])c([H])c2C1([H])[H]

>  <smiles>  (69) 
[H]c1c([H])c([H])c2c(c1[H])C([H])([H])C([H])([H])C([H])([H])C2([H])N([H])C(=O)C1([H])N(C(=O)C([H])(N([H])C(=O)C([H])(N([H])C([H])([H])[H])C([H])([H])[H])C(C([H])([H])[H])(C([H])([H])[H])C([H])([H])[H])C([H])([H])c2c([H])c(OC([H])([H])C3([H])C([H])([H])C(=O)N(C([H])([H])c4c([H])c(C([H])([H])[H])c([H])c(N([H])C(=O)N5C([H])([H])C([H])([H])C([H])([H])C([H])(n6nc(-c7c([H])c([H])c(Oc8c([H])c([H])c(F)c([H])c8F)c([H])c7[H])c(C(=O)N([H])[H])c6N([H])[H])C5([H])[H])c4C([H])([H])[H])C([H])([H])C3([H])[H])c([H])c([H])c2C1([H])[H]

$$$$
69:0:0
     RDKit          3D

 95104  0  0  1  0  0  0  0  0999 V2000
  -29.0190  -22.8640   18.9590 C   0  0  0  0  0  0  0  0  0  0  0  0
  -29.8870  -22.2880   18.1080 C   0  0  0  0  0  2  0  0  0  0  0  0
  -28.5830  -24.3580   18.8990 C   0  0  0  0  0  2  0  0  0  0  0  0
  -28.9060  -24.3210   21.3730 C   0  0  0  0  0  2  0  0  0  0  0  0
  -28.6760  -22.7660   21.4510 C   0  0  0  0  0  2  0  0  0  0  0  0
  -28.1260  -25.0250   20.2330 C   0  0  0  0  0  3  0  0  0  0  0  0
  -28.4250  -22.1160   20.1290 N   0  0  2  0  0  4  0  0  0  0  0  0
  -27.4420  -22.3290   20.0360 H   0  0  0  0  0  0  0  0  0  0  0  0
  -28.2950  -26.4980   20.2390 O   0  0  0  0  0  0  0  0  0  0  0  0
  -24.5980  -31.8990   23.2430 C   0  0  0  0  0  0  0  0  0  0  0  0
  -27.1720  -27.3320   20.1870 C   0  0  0  0  0  0  0  0  0  0  0  0
  -23.3840  -30.5150   21.5970 C   0  0  0  0  0  3  0  0  0  0  0  0
  -24.8210  -28.9530   20.1730 C   0  0  0  0  0  0  0  0  0  0  0  0
  -25.9250  -30.8110   21.4220 C   0  0  0  0  0  2  0  0  0  0  0  0
  -25.9910  -29.4340   20.7730 C   0  0  0  0  0  0  0  0  0  0  0  0
  -27.1700  -28.6340   20.7710 C   0  0  0  0  0  3  0  0  0  0  0  0
  -25.9840  -26.9040   19.5530 C   0  0  0  0  0  3  0  0  0  0  0  0
  -24.8180  -27.6930   19.5550 C   0  0  0  0  0  3  0  0  0  0  0  0
  -23.5930  -29.8380   20.2170 C   0  0  0  0  0  2  0  0  0  0  0  0
  -24.6540  -31.0920   22.1440 N   0  0  0  0  0  0  0  0  0  0  0  0
  -23.5170  -32.1890   23.7740 O   0  0  0  0  0  0  0  0  0  0  0  0
  -22.7080  -29.5050   22.5530 C   0  0  0  0  0  0  0  0  0  0  0  0
  -21.3800  -29.3500   22.4280 N   0  0  0  0  0  0  0  0  0  0  0  0
  -23.3790  -28.8630   23.3670 O   0  0  0  0  0  0  0  0  0  0  0  0
  -20.8990  -29.9170   21.7440 H   0  0  0  0  0  0  0  0  0  0  0  0
  -17.9810  -28.2240   22.9380 C   0  0  0  0  0  0  0  0  0  0  0  0
  -20.5460  -28.4240   23.1960 C   0  0  0  0  0  3  0  0  0  0  0  0
  -20.6130  -26.9960   22.6080 C   0  0  0  0  0  2  0  0  0  0  0  0
  -19.4990  -26.7060   21.5970 C   0  0  0  0  0  2  0  0  0  0  0  0
  -18.1240  -26.8770   22.2500 C   0  0  0  0  0  2  0  0  0  0  0  0
  -19.1180  -28.9580   23.3680 C   0  0  0  0  0  0  0  0  0  0  0  0
  -18.9310  -30.2200   23.9710 C   0  0  0  0  0  3  0  0  0  0  0  0
  -17.6390  -30.7500   24.1480 C   0  0  0  0  0  3  0  0  0  0  0  0
  -16.5150  -30.0110   23.7350 C   0  0  0  0  0  3  0  0  0  0  0  0
  -16.6880  -28.7510   23.1360 C   0  0  0  0  0  3  0  0  0  0  0  0
  -25.8880  -32.5150   23.8690 C   0  0  0  0  0  3  0  0  0  0  0  0
  -25.5920  -33.9150   24.2070 N   0  0  0  0  0  0  0  0  0  0  0  0
  -25.9190  -34.9680   23.4460 C   0  0  0  0  0  0  0  0  0  0  0  0
  -26.5710  -34.8630   22.4050 O   0  0  0  0  0  0  0  0  0  0  0  0
  -25.0120  -34.0710   25.0180 H   0  0  0  0  0  0  0  0  0  0  0  0
  -24.1840  -36.7620   23.1370 C   0  0  0  0  0  1  0  0  0  0  0  0
  -25.4470  -36.3580   23.9140 C   0  0  0  0  0  3  0  0  0  0  0  0
  -27.6030  -37.2410   24.6850 C   0  0  0  0  0  1  0  0  0  0  0  0
  -26.4780  -37.4080   23.7700 N   0  0  0  0  0  0  0  0  0  0  0  0
  -26.0770  -38.3300   23.9250 H   0  0  0  0  0  0  0  0  0  0  0  0
  -26.3950  -31.7320   25.1430 C   0  0  1  0  0  0  0  0  0  0  0  0
  -25.2970  -31.4980   26.2060 C   0  0  0  0  0  1  0  0  0  0  0  0
  -26.9670  -30.3520   24.7450 C   0  0  0  0  0  1  0  0  0  0  0  0
  -27.5510  -32.5120   25.8110 C   0  0  0  0  0  1  0  0  0  0  0  0
  -28.2530  -20.5970   20.0830 C   0  0  0  0  0  2  0  0  0  0  0  0
  -30.7350  -19.9410   20.5590 C   0  0  0  0  0  3  0  0  0  0  0  0
  -31.7280  -18.9720   20.8100 C   0  0  0  0  0  3  0  0  0  0  0  0
  -29.1310  -18.1330   20.2780 C   0  0  0  0  0  3  0  0  0  0  0  0
  -29.4030  -19.5490   20.3110 C   0  0  0  0  0  0  0  0  0  0  0  0
  -30.1350  -17.1230   20.4950 C   0  0  0  0  0  0  0  0  0  0  0  0
  -31.4400  -17.5900   20.8030 C   0  0  0  0  0  0  0  0  0  0  0  0
  -32.4300  -16.7360   21.1480 F   0  0  0  0  0  0  0  0  0  0  0  0
  -30.5480  -14.6100   20.0780 C   0  0  0  0  0  0  0  0  0  0  0  0
  -30.2390  -12.4010   18.9850 C   0  0  0  0  0  2  0  0  0  0  0  0
  -29.2370  -12.5690   17.8220 C   0  0  0  0  0  2  0  0  0  0  0  0
  -27.7910  -12.4040   18.3260 C   0  0  0  0  0  2  0  0  0  0  0  0
  -27.5040  -13.2390   19.6040 C   0  0  0  0  0  3  0  0  0  0  0  0
  -28.6210  -13.0670   20.6570 C   0  0  0  0  0  2  0  0  0  0  0  0
  -29.8970  -13.4060   20.0110 N   0  0  0  0  0  0  0  0  0  0  0  0
  -31.6790  -14.7310   19.6030 O   0  0  0  0  0  0  0  0  0  0  0  0
  -29.8040  -15.6940   20.4720 N   0  0  0  0  0  0  0  0  0  0  0  0
  -28.8490  -15.4680   20.6980 H   0  0  0  0  0  0  0  0  0  0  0  0
  -25.1540  -13.8190   20.4640 C   0  0  0  0  0  0  0  0  0  0  0  0
  -24.1090  -13.0370   20.8760 C   0  0  0  0  0  0  0  0  0  0  0  0
  -24.5690  -11.6860   20.7910 C   0  0  0  0  0  0  0  0  0  0  0  0
  -26.1840  -12.9440   20.1560 N   0  0  0  0  0  0  0  0  0  0  0  0
  -25.8410  -11.6560   20.4120 N   0  0  0  0  0  0  0  0  0  0  0  0
  -23.8550  -10.4200   20.9940 C   0  0  0  0  0  0  0  0  0  0  0  0
  -24.3190   -9.4470   21.9050 C   0  0  0  0  0  3  0  0  0  0  0  0
  -23.6040   -8.2450   22.0970 C   0  0  0  0  0  3  0  0  0  0  0  0
  -22.4090   -8.0080   21.3760 C   0  0  0  0  0  0  0  0  0  0  0  0
  -21.9630   -8.9700   20.4530 C   0  0  0  0  0  3  0  0  0  0  0  0
  -22.6790  -10.1630   20.2600 C   0  0  0  0  0  3  0  0  0  0  0  0
  -21.6610   -6.8600   21.4790 O   0  0  0  0  0  0  0  0  0  0  0  0
  -21.6370   -6.1170   22.6320 C   0  0  0  0  0  0  0  0  0  0  0  0
  -21.2210   -6.6680   23.8640 C   0  0  0  0  0  3  0  0  0  0  0  0
  -21.1440   -5.8520   25.0090 C   0  0  0  0  0  3  0  0  0  0  0  0
  -21.4700   -4.4860   24.9240 C   0  0  0  0  0  0  0  0  0  0  0  0
  -21.8790   -3.9340   23.6970 C   0  0  0  0  0  3  0  0  0  0  0  0
  -21.9580   -4.7470   22.5540 C   0  0  0  0  0  0  0  0  0  0  0  0
  -22.3310   -4.2060   21.3700 F   0  0  0  0  0  0  0  0  0  0  0  0
  -21.3890   -3.6990   26.0230 F   0  0  0  0  0  0  0  0  0  0  0  0
  -22.7280  -13.5060   21.2330 C   0  0  0  0  0  0  0  0  0  0  0  0
  -22.0490  -12.7920   22.1230 N   0  0  0  0  0  0  0  0  0  0  0  0
  -22.2630  -14.5420   20.7590 O   0  0  0  0  0  0  0  0  0  0  0  0
  -22.4390  -11.9550   22.5280 H   0  0  0  0  0  0  0  0  0  0  0  0
  -21.1240  -13.0870   22.4040 H   0  0  0  0  0  0  0  0  0  0  0  0
  -25.3090  -15.1920   20.3030 N   0  0  0  0  0  0  0  0  0  0  0  0
  -24.5440  -15.8410   20.4580 H   0  0  0  0  0  0  0  0  0  0  0  0
  -26.1230  -15.6310   19.8970 H   0  0  0  0  0  0  0  0  0  0  0  0
  1  7  1  0
  2  1  2  0
  3  1  1  0
  3  6  1  0
  4  5  1  0
  6  9  1  0
  6  4  1  0
  7  5  1  0
  7  8  1  6
 10 21  2  0
 11  9  1  0
 11 16  1  0
 12 20  1  0
 12 22  1  0
 13 19  1  0
 13 15  1  0
 14 20  1  0
 15 14  1  0
 16 15  2  0
 17 18  1  0
 17 11  2  0
 18 13  2  0
 19 12  1  0
 20 10  1  0
 22 24  2  0
 23 22  1  0
 25 23  1  0
 26 35  2  0
 26 31  1  0
 27 23  1  0
 27 31  1  0
 28 27  1  0
 29 30  1  0
 29 28  1  0
 30 26  1  0
 31 32  2  0
 32 33  1  0
 34 33  2  0
 35 34  1  0
 36 10  1  0
 36 37  1  0
 36 46  1  0
 37 40  1  0
 38 42  1  0
 38 37  1  0
 39 38  2  0
 42 41  1  0
 44 42  1  0
 44 45  1  0
 44 43  1  0
 46 49  1  1
 46 47  1  0
 48 46  1  0
 50  7  1  0
 50 54  1  0
 51 52  1  0
 53 54  1  0
 53 55  2  0
 54 51  2  0
 55 56  1  0
 56 52  2  0
 56 57  1  0
 58 66  1  0
 59 64  1  0
 60 61  1  0
 60 59  1  0
 62 61  1  0
 62 71  1  0
 62 63  1  0
 64 58  1  0
 64 63  1  0
 65 58  2  0
 66 55  1  0
 66 67  1  0
 68 69  2  0
 69 88  1  0
 70 69  1  0
 70 73  1  0
 71 72  1  0
 71 68  1  0
 72 70  2  0
 73 74  1  0
 74 75  2  0
 76 79  1  0
 76 75  1  0
 77 76  2  0
 78 77  1  0
 78 73  2  0
 79 80  1  0
 80 81  1  0
 81 82  2  0
 83 82  1  0
 83 87  1  0
 84 83  2  0
 85 80  2  0
 85 84  1  0
 86 85  1  0
 88 89  1  0
 89 92  1  0
 89 91  1  0
 90 88  2  0
 93 94  1  0
 93 68  1  0
 95 93  1  0
M  ISO  4   6 101   9 101  58 100  66 100
M  END
>  <TORSDO>  (70) 
F 18

>  <SCORE>  (70) 
-14.797

>  <name>  (70) 
69

>  <ligand_id>  (70) 
69

>  <original_smiles>  (70) 
[H]C([H])=C1C([H])([H])C([H])(Oc2c([H])c([H])c3c(c2[H])C([H])([H])N(C(=O)C([H])(N([H])C(=O)C([H])(N([H])C([H])([H])[H])C([H])([H])[H])C(C([H])([H])[H])(C([H])([H])[H])C([H])([H])[H])C([H])(C(=O)N([H])C2([H])c4c([H])c([H])c([H])c([H])c4C([H])([H])C([H])([H])C2([H])[H])C3([H])[H])C([H])([H])C([H])([H])[N+]1([H])C([H])([H])c1c([H])c([H])c(F)c(N([H])C(=O)N2C([H])([H])C([H])([H])C([H])([H])C([H])(n3nc(-c4c([H])c([H])c(Oc5c([H])c([H])c(F)c([H])c5F)c([H])c4[H])c(C(=O)N([H])[H])c3N([H])[H])C2([H])[H])c1[H]

>  <smiles>  (70) 
[H]C([H])=C1C([H])([H])C([H])(Oc2c([H])c([H])c3c(c2[H])C([H])([H])N(C(=O)C([H])(N([H])C(=O)C([H])(N([H])C([H])([H])[H])C([H])([H])[H])C(C([H])([H])[H])(C([H])([H])[H])C([H])([H])[H])C([H])(C(=O)N([H])C2([H])c4c([H])c([H])c([H])c([H])c4C([H])([H])C([H])([H])C2([H])[H])C3([H])[H])C([H])([H])C([H])([H])[N+]1([H])C([H])([H])c1c([H])c([H])c(F)c(N([H])C(=O)N2C([H])([H])C([H])([H])C([H])([H])C([H])(n3nc(-c4c([H])c([H])c(Oc5c([H])c([H])c(F)c([H])c5F)c([H])c4[H])c(C(=O)N([H])[H])c3N([H])[H])C2([H])[H])c1[H]

$$$$
70:0:0
     RDKit          3D

 92100  0  0  1  0  0  0  0  0999 V2000
  -30.1040  -21.9030   19.7470 C   0  0  0  0  0  2  0  0  0  0  0  0
  -27.6460  -18.9250   19.9950 C   0  0  0  0  0  3  0  0  0  0  0  0
  -28.1480  -20.2330   19.8380 C   0  0  0  0  0  3  0  0  0  0  0  0
  -28.5200  -17.8430   20.2280 C   0  0  0  0  0  3  0  0  0  0  0  0
  -30.4080  -19.3780   20.1350 C   0  0  0  0  0  3  0  0  0  0  0  0
  -29.5360  -20.4790   19.9170 C   0  0  0  0  0  0  0  0  0  0  0  0
  -29.9140  -18.0540   20.2990 C   0  0  0  0  0  0  0  0  0  0  0  0
  -30.8700  -16.8960   20.6380 C   0  0  0  0  0  2  0  0  0  0  0  0
  -30.9610  -14.4300   20.2200 C   0  0  0  0  0  0  0  0  0  0  0  0
  -30.6760  -12.1390   19.3520 C   0  0  0  0  0  2  0  0  0  0  0  0
  -29.7380  -12.1550   18.1270 C   0  0  0  0  0  2  0  0  0  0  0  0
  -28.2700  -12.0350   18.5730 C   0  0  0  0  0  2  0  0  0  0  0  0
  -27.9070  -13.0280   19.7110 C   0  0  0  0  0  3  0  0  0  0  0  0
  -28.9620  -13.0100   20.8410 C   0  0  0  0  0  2  0  0  0  0  0  0
  -30.2800  -13.2500   20.2350 N   0  0  0  0  0  0  0  0  0  0  0  0
  -32.0860  -14.5310   19.7250 O   0  0  0  0  0  0  0  0  0  0  0  0
  -30.3100  -15.5240   20.6620 N   0  0  0  0  0  0  0  0  0  0  0  0
  -29.3840  -15.3960   21.0350 H   0  0  0  0  0  0  0  0  0  0  0  0
  -25.5490  -13.6950   20.4910 C   0  0  0  0  0  0  0  0  0  0  0  0
  -24.4640  -12.9490   20.8690 C   0  0  0  0  0  0  0  0  0  0  0  0
  -24.8810  -11.5840   20.8040 C   0  0  0  0  0  0  0  0  0  0  0  0
  -26.5590  -12.7840   20.2200 N   0  0  0  0  0  0  0  0  0  0  0  0
  -26.1620  -11.5080   20.4660 N   0  0  0  0  0  0  0  0  0  0  0  0
  -24.1170  -10.3420   20.9910 C   0  0  0  0  0  0  0  0  0  0  0  0
  -24.5070   -9.3720   21.9400 C   0  0  0  0  0  3  0  0  0  0  0  0
  -23.7460   -8.1960   22.1140 C   0  0  0  0  0  3  0  0  0  0  0  0
  -22.5830   -7.9800   21.3380 C   0  0  0  0  0  0  0  0  0  0  0  0
  -22.2120   -8.9390   20.3790 C   0  0  0  0  0  3  0  0  0  0  0  0
  -22.9730  -10.1070   20.2030 C   0  0  0  0  0  3  0  0  0  0  0  0
  -21.7970   -6.8570   21.4220 O   0  0  0  0  0  0  0  0  0  0  0  0
  -21.6690   -6.1520   22.5920 C   0  0  0  0  0  0  0  0  0  0  0  0
  -21.1750   -6.7500   23.7720 C   0  0  0  0  0  3  0  0  0  0  0  0
  -20.9940   -5.9720   24.9330 C   0  0  0  0  0  3  0  0  0  0  0  0
  -21.2960   -4.5980   24.9150 C   0  0  0  0  0  0  0  0  0  0  0  0
  -21.7840   -3.9990   23.7390 C   0  0  0  0  0  3  0  0  0  0  0  0
  -21.9660   -4.7740   22.5810 C   0  0  0  0  0  0  0  0  0  0  0  0
  -22.4140   -4.1880   21.4450 F   0  0  0  0  0  0  0  0  0  0  0  0
  -21.1160   -3.8490   26.0270 F   0  0  0  0  0  0  0  0  0  0  0  0
  -23.0910  -13.4670   21.1820 C   0  0  0  0  0  0  0  0  0  0  0  0
  -22.3670  -12.7860   22.0640 N   0  0  0  0  0  0  0  0  0  0  0  0
  -22.6680  -14.5090   20.6820 O   0  0  0  0  0  0  0  0  0  0  0  0
  -22.7190  -11.9410   22.4880 H   0  0  0  0  0  0  0  0  0  0  0  0
  -21.4470  -13.1160   22.3190 H   0  0  0  0  0  0  0  0  0  0  0  0
  -25.7610  -15.0620   20.3350 N   0  0  0  0  0  0  0  0  0  0  0  0
  -25.0350  -15.7520   20.4940 H   0  0  0  0  0  0  0  0  0  0  0  0
  -26.6330  -15.4700   20.0240 H   0  0  0  0  0  0  0  0  0  0  0  0
  -29.1620  -24.2480   19.8180 C   0  0  0  0  0  0  0  0  0  0  0  0
  -29.2890  -22.9980   20.3120 N   0  0  0  0  0  0  0  0  0  0  0  0
  -29.6890  -24.5890   18.7550 O   0  0  0  0  0  0  0  0  0  0  0  0
  -28.8530  -22.8150   21.2040 H   0  0  0  0  0  0  0  0  0  0  0  0
  -28.3360  -25.2710   20.6440 C   0  0  0  0  0  2  0  0  0  0  0  0
  -28.4590  -26.6300   20.1580 O   0  0  0  0  0  0  0  0  0  0  0  0
  -24.5820  -31.7930   23.2390 C   0  0  0  0  0  0  0  0  0  0  0  0
  -27.2980  -27.3790   20.1650 C   0  0  0  0  0  0  0  0  0  0  0  0
  -23.4100  -30.4120   21.5560 C   0  0  0  0  0  3  0  0  0  0  0  0
  -24.8980  -28.8900   20.1420 C   0  0  0  0  0  0  0  0  0  0  0  0
  -25.9410  -30.7710   21.4150 C   0  0  0  0  0  2  0  0  0  0  0  0
  -26.0450  -29.4080   20.7600 C   0  0  0  0  0  0  0  0  0  0  0  0
  -27.2500  -28.6600   20.7660 C   0  0  0  0  0  3  0  0  0  0  0  0
  -26.1390  -26.8820   19.5350 C   0  0  0  0  0  3  0  0  0  0  0  0
  -24.9420  -27.6270   19.5230 C   0  0  0  0  0  3  0  0  0  0  0  0
  -23.6480  -29.7480   20.1740 C   0  0  0  0  0  2  0  0  0  0  0  0
  -24.6620  -31.0070   22.1290 N   0  0  0  0  0  0  0  0  0  0  0  0
  -23.4910  -32.0590   23.7610 O   0  0  0  0  0  0  0  0  0  0  0  0
  -22.7420  -29.3800   22.4910 C   0  0  0  0  0  0  0  0  0  0  0  0
  -21.4140  -29.2250   22.3620 N   0  0  0  0  0  0  0  0  0  0  0  0
  -23.4130  -28.7170   23.2890 O   0  0  0  0  0  0  0  0  0  0  0  0
  -20.9270  -29.8270   21.7120 H   0  0  0  0  0  0  0  0  0  0  0  0
  -18.0160  -28.1020   22.8480 C   0  0  0  0  0  0  0  0  0  0  0  0
  -20.5820  -28.2780   23.1020 C   0  0  0  0  0  3  0  0  0  0  0  0
  -20.6350  -26.8670   22.4710 C   0  0  0  0  0  2  0  0  0  0  0  0
  -19.5180  -26.6160   21.4530 C   0  0  0  0  0  2  0  0  0  0  0  0
  -18.1440  -26.7770   22.1120 C   0  0  0  0  0  2  0  0  0  0  0  0
  -19.1600  -28.8140   23.2930 C   0  0  0  0  0  0  0  0  0  0  0  0
  -18.9840  -30.0620   23.9320 C   0  0  0  0  0  3  0  0  0  0  0  0
  -17.6970  -30.5950   24.1280 C   0  0  0  0  0  3  0  0  0  0  0  0
  -16.5670  -29.8760   23.7000 C   0  0  0  0  0  3  0  0  0  0  0  0
  -16.7270  -28.6300   23.0690 C   0  0  0  0  0  3  0  0  0  0  0  0
  -25.8570  -32.4160   23.8920 C   0  0  0  0  0  3  0  0  0  0  0  0
  -26.3290  -31.6490   25.1880 C   0  0  1  0  0  0  0  0  0  0  0  0
  -25.1980  -31.4180   26.2190 C   0  0  0  0  0  1  0  0  0  0  0  0
  -26.9210  -30.2690   24.8210 C   0  0  0  0  0  1  0  0  0  0  0  0
  -27.4590  -32.4430   25.8860 C   0  0  0  0  0  1  0  0  0  0  0  0
  -25.5550  -33.8190   24.2000 N   0  0  0  0  0  0  0  0  0  0  0  0
  -25.9210  -34.8600   23.4400 C   0  0  0  0  0  0  0  0  0  0  0  0
  -26.6200  -34.7400   22.4300 O   0  0  0  0  0  0  0  0  0  0  0  0
  -24.9400  -33.9890   24.9830 H   0  0  0  0  0  0  0  0  0  0  0  0
  -24.2200  -36.6630   23.0210 C   0  0  0  0  0  1  0  0  0  0  0  0
  -25.4360  -36.2570   23.8700 C   0  0  0  0  0  3  0  0  0  0  0  0
  -27.5540  -37.1330   24.7500 C   0  0  0  0  0  1  0  0  0  0  0  0
  -26.4800  -37.3010   23.7730 N   0  0  0  0  0  0  0  0  0  0  0  0
  -26.0790  -38.2260   23.9000 H   0  0  0  0  0  0  0  0  0  0  0  0
  1  6  1  0
  1 48  1  0
  2  4  1  0
  3  6  1  0
  3  2  2  0
  4  7  2  0
  5  7  1  0
  6  5  2  0
  7  8  1  0
  8 17  1  0
  9 15  1  0
  9 17  1  0
 10 15  1  0
 11 12  1  0
 11 10  1  0
 13 12  1  0
 13 22  1  0
 13 14  1  0
 15 14  1  0
 16  9  2  0
 17 18  1  0
 19 20  2  0
 20 39  1  0
 21 20  1  0
 21 24  1  0
 22 23  1  0
 22 19  1  0
 23 21  2  0
 24 25  1  0
 25 26  2  0
 27 30  1  0
 27 26  1  0
 28 27  2  0
 29 28  1  0
 29 24  2  0
 30 31  1  0
 31 32  1  0
 32 33  2  0
 34 33  1  0
 34 38  1  0
 35 34  2  0
 36 31  2  0
 36 35  1  0
 37 36  1  0
 39 40  1  0
 40 43  1  0
 40 42  1  0
 41 39  2  0
 44 19  1  0
 44 45  1  0
 46 44  1  0
 47 48  1  0
 47 51  1  0
 48 50  1  0
 49 47  2  0
 52 54  1  0
 52 51  1  0
 53 64  2  0
 54 59  1  0
 55 63  1  0
 55 65  1  0
 56 62  1  0
 56 58  1  0
 57 63  1  0
 58 59  2  0
 58 57  1  0
 60 54  2  0
 61 60  1  0
 61 56  2  0
 62 55  1  0
 63 53  1  0
 65 67  2  0
 66 65  1  0
 68 66  1  0
 69 78  2  0
 69 74  1  0
 70 66  1  0
 70 74  1  0
 71 70  1  0
 72 73  1  0
 72 71  1  0
 73 69  1  0
 74 75  2  0
 75 76  1  0
 77 76  2  0
 78 77  1  0
 79 53  1  0
 79 84  1  0
 79 80  1  0
 80 83  1  1
 80 81  1  0
 82 80  1  0
 84 87  1  0
 85 89  1  0
 85 84  1  0
 86 85  2  0
 89 88  1  0
 91 89  1  0
 91 92  1  0
 91 90  1  0
M  ISO  4   9 100  17 100  51 101  52 101
M  END
>  <TORSDO>  (71) 
F 20

>  <SCORE>  (71) 
-13.630

>  <name>  (71) 
70

>  <ligand_id>  (71) 
70

>  <original_smiles>  (71) 
[H]c1c([H])c(C([H])([H])N([H])C(=O)N2C([H])([H])C([H])([H])C([H])([H])C([H])(n3nc(-c4c([H])c([H])c(Oc5c([H])c([H])c(F)c([H])c5F)c([H])c4[H])c(C(=O)N([H])[H])c3N([H])[H])C2([H])[H])c([H])c(C([H])([H])N([H])C(=O)C([H])([H])Oc2c([H])c([H])c3c(c2[H])C([H])([H])N(C(=O)C([H])(N([H])C(=O)C([H])(N([H])C([H])([H])[H])C([H])([H])[H])C(C([H])([H])[H])(C([H])([H])[H])C([H])([H])[H])C([H])(C(=O)N([H])C2([H])c4c([H])c([H])c([H])c([H])c4C([H])([H])C([H])([H])C2([H])[H])C3([H])[H])c1[H]

>  <smiles>  (71) 
[H]c1c([H])c(C([H])([H])N([H])C(=O)N2C([H])([H])C([H])([H])C([H])([H])C([H])(n3nc(-c4c([H])c([H])c(Oc5c([H])c([H])c(F)c([H])c5F)c([H])c4[H])c(C(=O)N([H])[H])c3N([H])[H])C2([H])[H])c([H])c(C([H])([H])N([H])C(=O)C([H])([H])Oc2c([H])c([H])c3c(c2[H])C([H])([H])N(C(=O)C([H])(N([H])C(=O)C([H])(N([H])C([H])([H])[H])C([H])([H])[H])C(C([H])([H])[H])(C([H])([H])[H])C([H])([H])[H])C([H])(C(=O)N([H])C2([H])c4c([H])c([H])c([H])c([H])c4C([H])([H])C([H])([H])C2([H])[H])C3([H])[H])c1[H]

$$$$
71:0:0
     RDKit          3D

 95104  0  0  1  0  0  0  0  0999 V2000
  -27.7450  -22.4840   20.8740 C   0  0  0  0  0  0  0  0  0  0  0  0
  -27.7250  -23.9700   20.4900 C   0  0  0  0  0  2  0  0  0  0  0  0
  -29.4400  -23.4900   18.6980 C   0  0  0  0  0  3  0  0  0  0  0  0
  -28.8620  -22.0430   18.7150 C   0  0  0  0  0  3  0  0  0  0  0  0
  -29.0590  -24.4180   19.8790 C   0  0  0  0  0  3  0  0  0  0  0  0
  -28.1990  -21.5990   19.9530 N   0  0  0  0  0  0  0  0  0  0  0  0
  -27.2610  -22.1440   21.9580 O   0  0  0  0  0  0  0  0  0  0  0  0
  -27.6580  -20.2170   19.9190 C   0  0  0  0  0  2  0  0  0  0  0  0
  -27.9340  -17.7540   20.3490 C   0  0  0  0  0  3  0  0  0  0  0  0
  -28.6820  -16.5810   20.5670 C   0  0  0  0  0  3  0  0  0  0  0  0
  -29.9690  -19.0660   20.3050 C   0  0  0  0  0  3  0  0  0  0  0  0
  -28.5620  -19.0070   20.2030 C   0  0  0  0  0  0  0  0  0  0  0  0
  -30.7290  -17.8890   20.5280 C   0  0  0  0  0  0  0  0  0  0  0  0
  -30.0880  -16.6230   20.6330 C   0  0  0  0  0  0  0  0  0  0  0  0
  -32.2370  -18.0230   20.6550 C   0  0  0  0  0  1  0  0  0  0  0  0
  -31.1700  -14.5060   20.0300 C   0  0  0  0  0  0  0  0  0  0  0  0
  -30.7180  -12.3500   18.9040 C   0  0  0  0  0  2  0  0  0  0  0  0
  -29.7500  -12.5330   17.7220 C   0  0  0  0  0  2  0  0  0  0  0  0
  -28.2900  -12.4480   18.2010 C   0  0  0  0  0  2  0  0  0  0  0  0
  -28.0140  -13.3370   19.4430 C   0  0  0  0  0  3  0  0  0  0  0  0
  -29.0970  -13.1290   20.5260 C   0  0  0  0  0  2  0  0  0  0  0  0
  -30.4090  -13.3800   19.9110 N   0  0  0  0  0  0  0  0  0  0  0  0
  -32.2180  -14.6580   19.3990 O   0  0  0  0  0  0  0  0  0  0  0  0
  -30.8110  -15.4280   20.9410 N   0  0  0  0  0  0  0  0  0  0  0  0
  -31.6570  -15.6840   21.4270 H   0  0  0  0  0  0  0  0  0  0  0  0
  -25.6630  -14.0300   20.2220 C   0  0  0  0  0  0  0  0  0  0  0  0
  -24.5820  -13.3010   20.6370 C   0  0  0  0  0  0  0  0  0  0  0  0
  -24.9900  -11.9340   20.5950 C   0  0  0  0  0  0  0  0  0  0  0  0
  -26.6700  -13.1130   19.9700 N   0  0  0  0  0  0  0  0  0  0  0  0
  -26.2680  -11.8440   20.2450 N   0  0  0  0  0  0  0  0  0  0  0  0
  -24.2200  -10.7030   20.8110 C   0  0  0  0  0  0  0  0  0  0  0  0
  -24.6030   -9.7550   21.7870 C   0  0  0  0  0  3  0  0  0  0  0  0
  -23.8360   -8.5880   21.9910 C   0  0  0  0  0  3  0  0  0  0  0  0
  -22.6710   -8.3610   21.2200 C   0  0  0  0  0  0  0  0  0  0  0  0
  -22.3060   -9.2960   20.2350 C   0  0  0  0  0  3  0  0  0  0  0  0
  -23.0740  -10.4540   20.0300 C   0  0  0  0  0  3  0  0  0  0  0  0
  -21.8810   -7.2420   21.3300 O   0  0  0  0  0  0  0  0  0  0  0  0
  -21.7350   -6.5790   22.5220 C   0  0  0  0  0  0  0  0  0  0  0  0
  -21.2440   -7.2240   23.6780 C   0  0  0  0  0  3  0  0  0  0  0  0
  -21.0450   -6.4890   24.8630 C   0  0  0  0  0  3  0  0  0  0  0  0
  -21.3250   -5.1100   24.8930 C   0  0  0  0  0  0  0  0  0  0  0  0
  -21.8080   -4.4640   23.7410 C   0  0  0  0  0  3  0  0  0  0  0  0
  -22.0090   -5.1970   22.5580 C   0  0  0  0  0  0  0  0  0  0  0  0
  -22.4550   -4.5660   21.4450 F   0  0  0  0  0  0  0  0  0  0  0  0
  -21.1250   -4.4010   26.0290 F   0  0  0  0  0  0  0  0  0  0  0  0
  -23.2170  -13.8350   20.9590 C   0  0  0  0  0  0  0  0  0  0  0  0
  -22.4980  -13.1810   21.8660 N   0  0  0  0  0  0  0  0  0  0  0  0
  -22.7960  -14.8710   20.4450 O   0  0  0  0  0  0  0  0  0  0  0  0
  -22.8500  -12.3440   22.3080 H   0  0  0  0  0  0  0  0  0  0  0  0
  -21.5860  -13.5260   22.1270 H   0  0  0  0  0  0  0  0  0  0  0  0
  -25.8590  -15.3910   20.0180 N   0  0  0  0  0  0  0  0  0  0  0  0
  -25.1050  -16.0600   20.1240 H   0  0  0  0  0  0  0  0  0  0  0  0
  -26.7140  -15.8050   19.6690 H   0  0  0  0  0  0  0  0  0  0  0  0
  -29.1050  -25.9140   19.4450 C   0  0  0  0  0  2  0  0  0  0  0  0
  -28.7610  -26.8710   20.4630 O   0  0  0  0  0  0  0  0  0  0  0  0
  -24.7080  -31.9710   23.3570 C   0  0  0  0  0  0  0  0  0  0  0  0
  -27.5530  -27.5460   20.4060 C   0  0  0  0  0  0  0  0  0  0  0  0
  -23.5860  -30.5210   21.6970 C   0  0  0  0  0  3  0  0  0  0  0  0
  -25.1160  -29.0000   20.3380 C   0  0  0  0  0  0  0  0  0  0  0  0
  -26.1080  -30.9340   21.5720 C   0  0  0  0  0  2  0  0  0  0  0  0
  -26.2440  -29.5550   20.9550 C   0  0  0  0  0  0  0  0  0  0  0  0
  -27.4590  -28.8310   20.9930 C   0  0  0  0  0  3  0  0  0  0  0  0
  -26.3950  -27.0030   19.7970 C   0  0  0  0  0  3  0  0  0  0  0  0
  -25.1880  -27.7220   19.7610 C   0  0  0  0  0  3  0  0  0  0  0  0
  -23.8520  -29.8280   20.3340 C   0  0  0  0  0  2  0  0  0  0  0  0
  -24.8170  -31.1580   22.2670 N   0  0  0  0  0  0  0  0  0  0  0  0
  -23.6050  -32.2230   23.8600 O   0  0  0  0  0  0  0  0  0  0  0  0
  -22.9280  -29.4960   22.6510 C   0  0  0  0  0  0  0  0  0  0  0  0
  -21.6130  -29.2820   22.4860 N   0  0  0  0  0  0  0  0  0  0  0  0
  -23.6030  -28.8940   23.4910 O   0  0  0  0  0  0  0  0  0  0  0  0
  -21.1310  -29.8230   21.7810 H   0  0  0  0  0  0  0  0  0  0  0  0
  -18.2500  -28.0340   22.9100 C   0  0  0  0  0  0  0  0  0  0  0  0
  -20.7950  -28.3350   23.2420 C   0  0  0  0  0  3  0  0  0  0  0  0
  -20.9350  -26.9020   22.6750 C   0  0  0  0  0  2  0  0  0  0  0  0
  -19.8630  -26.5570   21.6370 C   0  0  0  0  0  2  0  0  0  0  0  0
  -18.4650  -26.6830   22.2480 C   0  0  0  0  0  2  0  0  0  0  0  0
  -19.3450  -28.8160   23.3630 C   0  0  0  0  0  0  0  0  0  0  0  0
  -19.0920  -30.0790   23.9390 C   0  0  0  0  0  3  0  0  0  0  0  0
  -17.7760  -30.5610   24.0690 C   0  0  0  0  0  3  0  0  0  0  0  0
  -16.6950  -29.7760   23.6340 C   0  0  0  0  0  3  0  0  0  0  0  0
  -16.9320  -28.5140   23.0590 C   0  0  0  0  0  3  0  0  0  0  0  0
  -25.9600  -32.6380   24.0070 C   0  0  0  0  0  3  0  0  0  0  0  0
  -26.4260  -31.9240   25.3340 C   0  0  1  0  0  0  0  0  0  0  0  0
  -25.2850  -31.7040   26.3560 C   0  0  0  0  0  1  0  0  0  0  0  0
  -27.0520  -30.5450   25.0210 C   0  0  0  0  0  1  0  0  0  0  0  0
  -27.5260  -32.7650   26.0240 C   0  0  0  0  0  1  0  0  0  0  0  0
  -25.6260  -34.0460   24.2630 N   0  0  0  0  0  0  0  0  0  0  0  0
  -25.9740  -35.0670   23.4690 C   0  0  0  0  0  0  0  0  0  0  0  0
  -26.6810  -34.9240   22.4670 O   0  0  0  0  0  0  0  0  0  0  0  0
  -24.9990  -34.2300   25.0340 H   0  0  0  0  0  0  0  0  0  0  0  0
  -24.2400  -36.8190   22.9720 C   0  0  0  0  0  1  0  0  0  0  0  0
  -25.4560  -36.4690   23.8450 C   0  0  0  0  0  3  0  0  0  0  0  0
  -27.5510  -37.4170   24.7050 C   0  0  0  0  0  1  0  0  0  0  0  0
  -26.4800  -37.5280   23.7180 N   0  0  0  0  0  0  0  0  0  0  0  0
  -26.0590  -38.4490   23.8080 H   0  0  0  0  0  0  0  0  0  0  0  0
  1  7  2  0
  2  1  1  0
  3  4  2  0
  3  5  1  0
  4  6  1  0
  5 54  1  0
  5  2  1  0
  6  1  1  0
  8  6  1  0
  8 12  1  0
  9 10  1  0
 10 14  2  0
 11 13  2  0
 12 11  1  0
 12  9  2  0
 13 14  1  0
 13 15  1  0
 14 24  1  0
 16 24  1  0
 17 22  1  0
 18 19  1  0
 18 17  1  0
 20 19  1  0
 20 29  1  0
 20 21  1  0
 22 16  1  0
 22 21  1  0
 23 16  2  0
 24 25  1  0
 26 27  2  0
 27 46  1  0
 28 27  1  0
 28 31  1  0
 29 26  1  0
 29 30  1  0
 30 28  2  0
 31 32  1  0
 32 33  2  0
 34 37  1  0
 34 33  1  0
 35 34  2  0
 36 35  1  0
 36 31  2  0
 37 38  1  0
 38 43  2  0
 38 39  1  0
 39 40  2  0
 40 41  1  0
 41 45  1  0
 42 41  2  0
 43 42  1  0
 44 43  1  0
 46 47  1  0
 47 50  1  0
 47 49  1  0
 48 46  2  0
 51 52  1  0
 51 26  1  0
 53 51  1  0
 54 55  1  0
 56 67  2  0
 57 55  1  0
 57 62  1  0
 58 66  1  0
 58 68  1  0
 59 61  1  0
 60 66  1  0
 61 62  2  0
 61 60  1  0
 63 57  2  0
 64 63  1  0
 64 59  2  0
 65 59  1  0
 65 58  1  0
 66 56  1  0
 68 70  2  0
 69 68  1  0
 71 69  1  0
 72 81  2  0
 72 77  1  0
 73 69  1  0
 73 77  1  0
 74 73  1  0
 75 76  1  0
 75 74  1  0
 76 72  1  0
 77 78  2  0
 78 79  1  0
 80 79  2  0
 81 80  1  0
 82 56  1  0
 82 87  1  0
 82 83  1  0
 83 86  1  1
 83 84  1  0
 85 83  1  0
 87 90  1  0
 88 92  1  0
 88 87  1  0
 89 88  2  0
 92 91  1  0
 94 95  1  0
 94 92  1  0
 94 93  1  0
M  ISO  4  16 100  24 100  54 101  55 101
M  END
>  <TORSDO>  (72) 
F 19

>  <SCORE>  (72) 
-13.949

>  <name>  (72) 
71

>  <ligand_id>  (72) 
71

>  <original_smiles>  (72) 
[H]c1c([H])c([H])c2c(c1[H])C([H])([H])C([H])([H])C([H])([H])C2([H])N([H])C(=O)C1([H])N(C(=O)C([H])(N([H])C(=O)C([H])(N([H])C([H])([H])[H])C([H])([H])[H])C(C([H])([H])[H])(C([H])([H])[H])C([H])([H])[H])C([H])([H])c2c([H])c(OC([H])([H])C3([H])C([H])([H])C(=O)N(C([H])([H])c4c([H])c([H])c(N([H])C(=O)N5C([H])([H])C([H])([H])C([H])([H])C([H])(n6nc(-c7c([H])c([H])c(Oc8c([H])c([H])c(F)c([H])c8F)c([H])c7[H])c(C(=O)N([H])[H])c6N([H])[H])C5([H])[H])c(C([H])([H])[H])c4[H])C([H])([H])C3([H])[H])c([H])c([H])c2C1([H])[H]

>  <smiles>  (72) 
[H]c1c([H])c([H])c2c(c1[H])C([H])([H])C([H])([H])C([H])([H])C2([H])N([H])C(=O)C1([H])N(C(=O)C([H])(N([H])C(=O)C([H])(N([H])C([H])([H])[H])C([H])([H])[H])C(C([H])([H])[H])(C([H])([H])[H])C([H])([H])[H])C([H])([H])c2c([H])c(OC([H])([H])C3([H])C([H])([H])C(=O)N(C([H])([H])c4c([H])c([H])c(N([H])C(=O)N5C([H])([H])C([H])([H])C([H])([H])C([H])(n6nc(-c7c([H])c([H])c(Oc8c([H])c([H])c(F)c([H])c8F)c([H])c7[H])c(C(=O)N([H])[H])c6N([H])[H])C5([H])[H])c(C([H])([H])[H])c4[H])C([H])([H])C3([H])[H])c([H])c([H])c2C1([H])[H]

$$$$
72:0:0
     RDKit          3D

 95103  0  0  1  0  0  0  0  0999 V2000
  -28.2290  -21.6560   19.8780 C   0  0  0  0  0  0  0  0  0  0  0  0
  -30.3730  -21.0320   18.8060 C   0  0  0  0  0  1  0  0  0  0  0  0
  -29.1450  -20.6770   19.5310 N   0  0  0  0  0  0  0  0  0  0  0  0
  -27.0650  -21.3470   20.1420 O   0  0  0  0  0  0  0  0  0  0  0  0
  -28.7230  -23.0600   20.0440 C   0  0  0  0  0  3  0  0  0  0  0  0
  -27.9240  -24.1830   20.0560 C   0  0  0  0  0  3  0  0  0  0  0  0
  -28.3460  -25.6380   20.4660 C   0  0  0  0  0  2  0  0  0  0  0  0
  -28.1520  -26.7690   19.5490 O   0  0  0  0  0  0  0  0  0  0  0  0
  -24.5650  -31.9820   23.0720 C   0  0  0  0  0  0  0  0  0  0  0  0
  -27.0250  -27.5750   19.7070 C   0  0  0  0  0  0  0  0  0  0  0  0
  -23.2760  -30.6360   21.4490 C   0  0  0  0  0  3  0  0  0  0  0  0
  -24.6520  -29.1440   19.8930 C   0  0  0  0  0  0  0  0  0  0  0  0
  -25.7960  -30.9850   21.1310 C   0  0  0  0  0  2  0  0  0  0  0  0
  -25.8470  -29.6300   20.4370 C   0  0  0  0  0  0  0  0  0  0  0  0
  -27.0410  -28.8570   20.3360 C   0  0  0  0  0  3  0  0  0  0  0  0
  -25.8090  -27.1270   19.1560 C   0  0  0  0  0  3  0  0  0  0  0  0
  -24.6300  -27.8960   19.2470 C   0  0  0  0  0  3  0  0  0  0  0  0
  -23.4140  -30.0080   20.0370 C   0  0  0  0  0  2  0  0  0  0  0  0
  -24.5670  -31.2180   21.9400 N   0  0  0  0  0  0  0  0  0  0  0  0
  -23.5140  -32.2290   23.6790 O   0  0  0  0  0  0  0  0  0  0  0  0
  -22.6770  -29.5790   22.4080 C   0  0  0  0  0  0  0  0  0  0  0  0
  -21.3520  -29.3750   22.3300 N   0  0  0  0  0  0  0  0  0  0  0  0
  -23.4020  -28.9460   23.1790 O   0  0  0  0  0  0  0  0  0  0  0  0
  -20.8240  -29.9380   21.6770 H   0  0  0  0  0  0  0  0  0  0  0  0
  -18.0260  -28.0810   22.9140 C   0  0  0  0  0  0  0  0  0  0  0  0
  -20.5840  -28.4000   23.1060 C   0  0  0  0  0  3  0  0  0  0  0  0
  -20.7030  -26.9850   22.4920 C   0  0  0  0  0  2  0  0  0  0  0  0
  -19.5760  -26.6580   21.5080 C   0  0  0  0  0  2  0  0  0  0  0  0
  -18.2130  -26.7520   22.2010 C   0  0  0  0  0  2  0  0  0  0  0  0
  -19.1390  -28.8620   23.3240 C   0  0  0  0  0  0  0  0  0  0  0  0
  -18.9090  -30.1060   23.9510 C   0  0  0  0  0  3  0  0  0  0  0  0
  -17.5990  -30.5690   24.1730 C   0  0  0  0  0  3  0  0  0  0  0  0
  -16.5000  -29.7850   23.7800 C   0  0  0  0  0  3  0  0  0  0  0  0
  -16.7150  -28.5420   23.1560 C   0  0  0  0  0  3  0  0  0  0  0  0
  -25.8790  -32.6000   23.6430 C   0  0  0  0  0  3  0  0  0  0  0  0
  -26.4840  -31.7710   24.8420 C   0  0  1  0  0  0  0  0  0  0  0  0
  -25.4590  -31.4490   25.9540 C   0  0  0  0  0  1  0  0  0  0  0  0
  -27.0730  -30.4330   24.3410 C   0  0  0  0  0  1  0  0  0  0  0  0
  -27.6520  -32.5560   25.4840 C   0  0  0  0  0  1  0  0  0  0  0  0
  -25.5760  -33.9750   24.0650 N   0  0  0  0  0  0  0  0  0  0  0  0
  -25.8610  -35.0720   23.3500 C   0  0  0  0  0  0  0  0  0  0  0  0
  -26.4780  -35.0310   22.2820 O   0  0  0  0  0  0  0  0  0  0  0  0
  -25.0250  -34.0800   24.9040 H   0  0  0  0  0  0  0  0  0  0  0  0
  -24.1090  -36.8680   23.1780 C   0  0  0  0  0  1  0  0  0  0  0  0
  -25.3880  -36.4280   23.9090 C   0  0  0  0  0  3  0  0  0  0  0  0
  -27.5520  -37.2790   24.6960 C   0  0  0  0  0  1  0  0  0  0  0  0
  -26.4090  -37.4930   23.8110 N   0  0  0  0  0  0  0  0  0  0  0  0
  -26.0050  -38.4000   24.0270 H   0  0  0  0  0  0  0  0  0  0  0  0
  -28.9620  -19.1680   19.6940 C   0  0  0  0  0  2  0  0  0  0  0  0
  -31.2770  -17.5550   23.0870 C   0  0  0  0  0  3  0  0  0  0  0  0
  -30.3040  -19.3480   21.8040 C   0  0  0  0  0  3  0  0  0  0  0  0
  -30.7150  -16.6100   22.2080 C   0  0  0  0  0  0  0  0  0  0  0  0
  -29.7650  -18.4550   20.8410 C   0  0  0  0  0  0  0  0  0  0  0  0
  -29.9880  -17.0180   21.0360 C   0  0  0  0  0  0  0  0  0  0  0  0
  -31.0720  -18.9190   22.8890 C   0  0  0  0  0  0  0  0  0  0  0  0
  -30.8980  -15.1550   22.6320 C   0  0  0  0  0  1  0  0  0  0  0  0
  -31.7370  -20.0680   23.9920 Cl  0  0  0  0  0  0  0  0  0  0  0  0
  -30.1190  -14.9310   19.5940 C   0  0  0  0  0  0  0  0  0  0  0  0
  -29.8410  -12.7250   18.4630 C   0  0  0  0  0  2  0  0  0  0  0  0
  -28.7330  -12.8070   17.3930 C   0  0  0  0  0  2  0  0  0  0  0  0
  -27.3480  -12.5500   18.0170 C   0  0  0  0  0  2  0  0  0  0  0  0
  -27.1150  -13.3710   19.3150 C   0  0  0  0  0  3  0  0  0  0  0  0
  -28.3240  -13.2730   20.2690 C   0  0  0  0  0  2  0  0  0  0  0  0
  -29.5090  -13.7050   19.5160 N   0  0  0  0  0  0  0  0  0  0  0  0
  -31.1860  -15.1460   19.0120 O   0  0  0  0  0  0  0  0  0  0  0  0
  -29.4340  -15.9510   20.2100 N   0  0  0  0  0  0  0  0  0  0  0  0
  -28.4630  -15.7470   20.3880 H   0  0  0  0  0  0  0  0  0  0  0  0
  -24.8150  -13.8100   20.3680 C   0  0  0  0  0  0  0  0  0  0  0  0
  -23.8580  -12.9660   20.8630 C   0  0  0  0  0  0  0  0  0  0  0  0
  -24.3910  -11.6460   20.7380 C   0  0  0  0  0  0  0  0  0  0  0  0
  -25.8680  -12.9990   19.9740 N   0  0  0  0  0  0  0  0  0  0  0  0
  -25.6260  -11.6930   20.2570 N   0  0  0  0  0  0  0  0  0  0  0  0
  -23.7730  -10.3390   20.9960 C   0  0  0  0  0  0  0  0  0  0  0  0
  -24.3080   -9.4450   21.9510 C   0  0  0  0  0  3  0  0  0  0  0  0
  -23.6840   -8.2020   22.1950 C   0  0  0  0  0  3  0  0  0  0  0  0
  -22.5150   -7.8440   21.4850 C   0  0  0  0  0  0  0  0  0  0  0  0
  -22.0000   -8.7270   20.5210 C   0  0  0  0  0  3  0  0  0  0  0  0
  -22.6240   -9.9610   20.2740 C   0  0  0  0  0  3  0  0  0  0  0  0
  -21.8560   -6.6470   21.6380 O   0  0  0  0  0  0  0  0  0  0  0  0
  -21.8160   -5.9970   22.8450 C   0  0  0  0  0  0  0  0  0  0  0  0
  -21.2750   -6.6030   24.0000 C   0  0  0  0  0  3  0  0  0  0  0  0
  -21.1890   -5.8730   25.2030 C   0  0  0  0  0  3  0  0  0  0  0  0
  -21.6350   -4.5380   25.2510 C   0  0  0  0  0  0  0  0  0  0  0  0
  -22.1680   -3.9320   24.1010 C   0  0  0  0  0  3  0  0  0  0  0  0
  -22.2550   -4.6580   22.9000 C   0  0  0  0  0  0  0  0  0  0  0  0
  -22.7500   -4.0630   21.7890 F   0  0  0  0  0  0  0  0  0  0  0  0
  -21.5450   -3.8350   26.4040 F   0  0  0  0  0  0  0  0  0  0  0  0
  -22.4850  -13.3520   21.3320 C   0  0  0  0  0  0  0  0  0  0  0  0
  -21.9330  -12.6110   22.2870 N   0  0  0  0  0  0  0  0  0  0  0  0
  -21.9130  -14.3460   20.8870 O   0  0  0  0  0  0  0  0  0  0  0  0
  -22.4110  -11.8080   22.6670 H   0  0  0  0  0  0  0  0  0  0  0  0
  -21.0180  -12.8510   22.6430 H   0  0  0  0  0  0  0  0  0  0  0  0
  -24.8700  -15.1900   20.1990 N   0  0  0  0  0  0  0  0  0  0  0  0
  -24.0810  -15.7890   20.4160 H   0  0  0  0  0  0  0  0  0  0  0  0
  -25.6240  -15.6830   19.7390 H   0  0  0  0  0  0  0  0  0  0  0  0
  1  5  1  0
  1  4  2  0
  2  3  1  0
  3 49  1  0
  3  1  1  0
  5  6  2  0
  6  7  1  0
  8 10  1  0
  8  7  1  0
  9 20  2  0
 10 15  1  0
 11 19  1  0
 11 21  1  0
 12 18  1  0
 12 14  1  0
 13 19  1  0
 14 13  1  0
 15 14  2  0
 16 17  1  0
 16 10  2  0
 17 12  2  0
 18 11  1  0
 19  9  1  0
 21 23  2  0
 22 21  1  0
 24 22  1  0
 25 34  2  0
 25 30  1  0
 26 22  1  0
 26 30  1  0
 27 26  1  0
 28 29  1  0
 28 27  1  0
 29 25  1  0
 30 31  2  0
 31 32  1  0
 33 32  2  0
 34 33  1  0
 35  9  1  0
 35 40  1  0
 35 36  1  0
 36 39  1  1
 36 37  1  0
 38 36  1  0
 40 43  1  0
 41 45  1  0
 41 40  1  0
 42 41  2  0
 45 44  1  0
 47 45  1  0
 47 48  1  0
 47 46  1  0
 49 53  1  0
 51 55  2  0
 52 56  1  0
 52 50  2  0
 53 54  2  0
 53 51  1  0
 54 52  1  0
 55 50  1  0
 55 57  1  0
 58 66  1  0
 59 64  1  0
 60 61  1  0
 60 59  1  0
 62 61  1  0
 62 71  1  0
 62 63  1  0
 64 58  1  0
 64 63  1  0
 65 58  2  0
 66 67  1  0
 66 54  1  0
 68 69  2  0
 69 88  1  0
 70 69  1  0
 70 73  1  0
 71 72  1  0
 71 68  1  0
 72 70  2  0
 73 74  1  0
 74 75  2  0
 76 79  1  0
 76 75  1  0
 77 76  2  0
 78 77  1  0
 78 73  2  0
 79 80  1  0
 80 85  2  0
 80 81  1  0
 81 82  2  0
 82 83  1  0
 83 87  1  0
 84 83  2  0
 85 84  1  0
 86 85  1  0
 88 89  1  0
 89 92  1  0
 89 91  1  0
 90 88  2  0
 93 68  1  0
 93 94  1  0
 95 93  1  0
M  ISO  4   7 101   8 101  58 100  66 100
M  END
>  <TORSDO>  (73) 
F 20

>  <SCORE>  (73) 
-10.410

>  <name>  (73) 
72

>  <ligand_id>  (73) 
72

>  <original_smiles>  (73) 
[H]C(C(=O)N(C([H])([H])[H])C([H])([H])c1c([H])c(Cl)c([H])c(C([H])([H])[H])c1N([H])C(=O)N1C([H])([H])C([H])([H])C([H])([H])C([H])(n2nc(-c3c([H])c([H])c(Oc4c([H])c([H])c(F)c([H])c4F)c([H])c3[H])c(C(=O)N([H])[H])c2N([H])[H])C1([H])[H])=C([H])C([H])([H])Oc1c([H])c([H])c2c(c1[H])C([H])([H])N(C(=O)C([H])(N([H])C(=O)C([H])(N([H])C([H])([H])[H])C([H])([H])[H])C(C([H])([H])[H])(C([H])([H])[H])C([H])([H])[H])C([H])(C(=O)N([H])C1([H])c3c([H])c([H])c([H])c([H])c3C([H])([H])C([H])([H])C1([H])[H])C2([H])[H]

>  <smiles>  (73) 
[H]C(C(=O)N(C([H])([H])[H])C([H])([H])c1c([H])c(Cl)c([H])c(C([H])([H])[H])c1N([H])C(=O)N1C([H])([H])C([H])([H])C([H])([H])C([H])(n2nc(-c3c([H])c([H])c(Oc4c([H])c([H])c(F)c([H])c4F)c([H])c3[H])c(C(=O)N([H])[H])c2N([H])[H])C1([H])[H])=C([H])C([H])([H])Oc1c([H])c([H])c2c(c1[H])C([H])([H])N(C(=O)C([H])(N([H])C(=O)C([H])(N([H])C([H])([H])[H])C([H])([H])[H])C(C([H])([H])[H])(C([H])([H])[H])C([H])([H])[H])C([H])(C(=O)N([H])C1([H])c3c([H])c([H])c([H])c([H])c3C([H])([H])C([H])([H])C1([H])[H])C2([H])[H]

$$$$
73:0:0
     RDKit          3D

 92100  0  0  1  0  0  0  0  0999 V2000
  -29.4880  -21.2050   20.1020 C   0  0  0  0  0  0  0  0  0  0  0  0
  -29.2660  -22.4230   20.7340 N   0  0  0  0  0  0  0  0  0  0  0  0
  -29.2910  -21.1230   18.8860 O   0  0  0  0  0  0  0  0  0  0  0  0
  -29.3790  -22.4130   21.7390 H   0  0  0  0  0  0  0  0  0  0  0  0
  -31.6120  -18.7850   22.3450 C   0  0  0  0  0  3  0  0  0  0  0  0
  -31.2420  -17.5020   21.8900 C   0  0  0  0  0  3  0  0  0  0  0  0
  -29.6450  -18.5600   20.4000 C   0  0  0  0  0  3  0  0  0  0  0  0
  -30.0190  -19.9140   20.8230 C   0  0  0  0  0  0  0  0  0  0  0  0
  -31.0350  -19.9760   21.8310 C   0  0  0  0  0  0  0  0  0  0  0  0
  -30.2450  -17.3290   20.9070 C   0  0  0  0  0  0  0  0  0  0  0  0
  -31.5890  -21.2890   22.3860 C   0  0  0  0  0  1  0  0  0  0  0  0
  -30.5650  -14.7900   20.2840 C   0  0  0  0  0  0  0  0  0  0  0  0
  -30.3150  -12.5480   19.1790 C   0  0  0  0  0  2  0  0  0  0  0  0
  -29.3430  -12.6410   17.9840 C   0  0  0  0  0  2  0  0  0  0  0  0
  -27.8900  -12.4480   18.4510 C   0  0  0  0  0  2  0  0  0  0  0  0
  -27.5430  -13.3030   19.6990 C   0  0  0  0  0  3  0  0  0  0  0  0
  -28.6350  -13.2060   20.7900 C   0  0  0  0  0  2  0  0  0  0  0  0
  -29.9110  -13.5790   20.1670 N   0  0  0  0  0  0  0  0  0  0  0  0
  -31.7400  -14.8790   19.9170 O   0  0  0  0  0  0  0  0  0  0  0  0
  -29.8240  -15.9340   20.5710 N   0  0  0  0  0  0  0  0  0  0  0  0
  -28.8320  -15.7700   20.6510 H   0  0  0  0  0  0  0  0  0  0  0  0
  -25.1650  -13.8690   20.4740 C   0  0  0  0  0  0  0  0  0  0  0  0
  -24.1140  -13.0830   20.8610 C   0  0  0  0  0  0  0  0  0  0  0  0
  -24.5860  -11.7360   20.8130 C   0  0  0  0  0  0  0  0  0  0  0  0
  -26.2110  -12.9990   20.2140 N   0  0  0  0  0  0  0  0  0  0  0  0
  -25.8700  -11.7110   20.4780 N   0  0  0  0  0  0  0  0  0  0  0  0
  -23.8700  -10.4680   21.0140 C   0  0  0  0  0  0  0  0  0  0  0  0
  -24.3240   -9.5030   21.9390 C   0  0  0  0  0  3  0  0  0  0  0  0
  -23.6110   -8.3000   22.1270 C   0  0  0  0  0  3  0  0  0  0  0  0
  -22.4270   -8.0550   21.3920 C   0  0  0  0  0  0  0  0  0  0  0  0
  -21.9890   -9.0110   20.4580 C   0  0  0  0  0  3  0  0  0  0  0  0
  -22.7030  -10.2050   20.2680 C   0  0  0  0  0  3  0  0  0  0  0  0
  -21.6820   -6.9050   21.4900 O   0  0  0  0  0  0  0  0  0  0  0  0
  -21.6620   -6.1570   22.6400 C   0  0  0  0  0  0  0  0  0  0  0  0
  -21.2530   -6.7030   23.8760 C   0  0  0  0  0  3  0  0  0  0  0  0
  -21.1800   -5.8820   25.0180 C   0  0  0  0  0  3  0  0  0  0  0  0
  -21.5020   -4.5160   24.9260 C   0  0  0  0  0  0  0  0  0  0  0  0
  -21.9020   -3.9680   23.6950 C   0  0  0  0  0  3  0  0  0  0  0  0
  -21.9780   -4.7870   22.5540 C   0  0  0  0  0  0  0  0  0  0  0  0
  -22.3440   -4.2510   21.3640 F   0  0  0  0  0  0  0  0  0  0  0  0
  -21.4260   -3.7230   26.0210 F   0  0  0  0  0  0  0  0  0  0  0  0
  -22.7190  -13.5510   21.1620 C   0  0  0  0  0  0  0  0  0  0  0  0
  -22.0130  -12.8430   22.0360 N   0  0  0  0  0  0  0  0  0  0  0  0
  -22.2640  -14.5770   20.6590 O   0  0  0  0  0  0  0  0  0  0  0  0
  -22.3980  -12.0170   22.4680 H   0  0  0  0  0  0  0  0  0  0  0  0
  -21.0770  -13.1350   22.2760 H   0  0  0  0  0  0  0  0  0  0  0  0
  -25.3070  -15.2420   20.2960 N   0  0  0  0  0  0  0  0  0  0  0  0
  -24.5310  -15.8780   20.4350 H   0  0  0  0  0  0  0  0  0  0  0  0
  -26.1230  -15.6950   19.9050 H   0  0  0  0  0  0  0  0  0  0  0  0
  -29.1570  -23.8220   20.0930 C   0  0  0  0  0  3  0  0  0  0  0  0
  -28.1590  -24.9670   20.6640 C   0  0  0  0  0  3  0  0  0  0  0  0
  -28.3310  -26.4210   20.2850 O   0  0  0  0  0  0  0  0  0  0  0  0
  -24.6050  -31.9010   23.2460 C   0  0  0  0  0  0  0  0  0  0  0  0
  -27.2150  -27.2920   20.2450 C   0  0  0  0  0  0  0  0  0  0  0  0
  -23.4000  -30.5000   21.6080 C   0  0  0  0  0  3  0  0  0  0  0  0
  -24.8560  -28.9400   20.1870 C   0  0  0  0  0  0  0  0  0  0  0  0
  -25.9400  -30.8100   21.4260 C   0  0  0  0  0  2  0  0  0  0  0  0
  -26.0230  -29.4260   20.7870 C   0  0  0  0  0  0  0  0  0  0  0  0
  -27.2060  -28.6170   20.8000 C   0  0  0  0  0  3  0  0  0  0  0  0
  -26.0290  -26.8750   19.6020 C   0  0  0  0  0  3  0  0  0  0  0  0
  -24.8660  -27.6760   19.5770 C   0  0  0  0  0  3  0  0  0  0  0  0
  -23.6190  -29.8190   20.2280 C   0  0  0  0  0  2  0  0  0  0  0  0
  -24.6670  -31.0890   22.1510 N   0  0  0  0  0  0  0  0  0  0  0  0
  -23.5220  -32.1830   23.7810 O   0  0  0  0  0  0  0  0  0  0  0  0
  -22.7380  -29.4870   22.5720 C   0  0  0  0  0  0  0  0  0  0  0  0
  -21.4110  -29.3080   22.4490 N   0  0  0  0  0  0  0  0  0  0  0  0
  -23.4170  -28.8650   23.3920 O   0  0  0  0  0  0  0  0  0  0  0  0
  -20.9230  -29.8640   21.7620 H   0  0  0  0  0  0  0  0  0  0  0  0
  -18.0380  -28.1020   22.9570 C   0  0  0  0  0  0  0  0  0  0  0  0
  -20.5970  -28.3740   23.2280 C   0  0  0  0  0  3  0  0  0  0  0  0
  -20.7020  -26.9380   22.6660 C   0  0  0  0  0  2  0  0  0  0  0  0
  -19.6040  -26.6030   21.6520 C   0  0  0  0  0  2  0  0  0  0  0  0
  -18.2200  -26.7480   22.2940 C   0  0  0  0  0  2  0  0  0  0  0  0
  -19.1550  -28.8720   23.3820 C   0  0  0  0  0  0  0  0  0  0  0  0
  -18.9300  -30.1380   23.9660 C   0  0  0  0  0  3  0  0  0  0  0  0
  -17.6240  -30.6360   24.1270 C   0  0  0  0  0  3  0  0  0  0  0  0
  -16.5230  -29.8650   23.7190 C   0  0  0  0  0  3  0  0  0  0  0  0
  -16.7310  -28.5990   23.1390 C   0  0  0  0  0  3  0  0  0  0  0  0
  -25.8880  -32.5400   23.8610 C   0  0  0  0  0  3  0  0  0  0  0  0
  -26.4060  -31.7800   25.1440 C   0  0  1  0  0  0  0  0  0  0  0  0
  -25.3110  -31.5560   26.2130 C   0  0  0  0  0  1  0  0  0  0  0  0
  -26.9890  -30.3990   24.7670 C   0  0  0  0  0  1  0  0  0  0  0  0
  -27.5550  -32.5840   25.7990 C   0  0  0  0  0  1  0  0  0  0  0  0
  -25.5770  -33.9410   24.1820 N   0  0  0  0  0  0  0  0  0  0  0  0
  -25.9110  -34.9930   23.4230 C   0  0  0  0  0  0  0  0  0  0  0  0
  -26.5820  -34.8860   22.3930 O   0  0  0  0  0  0  0  0  0  0  0  0
  -24.9770  -34.0960   24.9780 H   0  0  0  0  0  0  0  0  0  0  0  0
  -24.1870  -36.7930   23.0530 C   0  0  0  0  0  1  0  0  0  0  0  0
  -25.4210  -36.3840   23.8730 C   0  0  0  0  0  3  0  0  0  0  0  0
  -27.5520  -37.2670   24.7170 C   0  0  0  0  0  1  0  0  0  0  0  0
  -26.4560  -37.4360   23.7660 N   0  0  0  0  0  0  0  0  0  0  0  0
  -26.0510  -38.3560   23.9130 H   0  0  0  0  0  0  0  0  0  0  0  0
  1  2  1  0
  1  8  1  0
  2  4  1  0
  3  1  2  0
  6  5  1  0
  7  8  2  0
  7 10  1  0
  8  9  1  0
  9  5  2  0
  9 11  1  0
 10  6  2  0
 12 20  1  0
 13 18  1  0
 14 15  1  0
 14 13  1  0
 16 15  1  0
 16 25  1  0
 16 17  1  0
 18 12  1  0
 18 17  1  0
 19 12  2  0
 20 21  1  0
 20 10  1  0
 22 23  2  0
 23 42  1  0
 24 23  1  0
 24 27  1  0
 25 22  1  0
 25 26  1  0
 26 24  2  0
 27 28  1  0
 28 29  2  0
 30 33  1  0
 30 29  1  0
 31 30  2  0
 32 31  1  0
 32 27  2  0
 33 34  1  0
 34 35  1  0
 35 36  2  0
 37 36  1  0
 37 41  1  0
 38 37  2  0
 39 34  2  0
 39 38  1  0
 40 39  1  0
 42 43  1  0
 43 46  1  0
 43 45  1  0
 44 42  2  0
 47 48  1  0
 47 22  1  0
 49 47  1  0
 50 51  2  0
 50  2  1  0
 52 51  1  0
 53 64  2  0
 54 52  1  0
 54 59  1  0
 55 63  1  0
 55 65  1  0
 56 62  1  0
 56 58  1  0
 57 63  1  0
 58 59  2  0
 58 57  1  0
 60 54  2  0
 61 60  1  0
 61 56  2  0
 62 55  1  0
 63 53  1  0
 65 67  2  0
 66 65  1  0
 68 66  1  0
 69 78  2  0
 69 74  1  0
 70 66  1  0
 70 74  1  0
 71 70  1  0
 72 73  1  0
 72 71  1  0
 73 69  1  0
 74 75  2  0
 75 76  1  0
 77 76  2  0
 78 77  1  0
 79 53  1  0
 79 84  1  0
 79 80  1  0
 80 83  1  1
 80 81  1  0
 82 80  1  0
 84 87  1  0
 85 89  1  0
 85 84  1  0
 86 85  2  0
 89 88  1  0
 91 89  1  0
 91 92  1  0
 91 90  1  0
M  ISO  4  12 100  20 100  51 101  52 101
M  END
>  <TORSDO>  (74) 
F 19

>  <SCORE>  (74) 
-14.349

>  <name>  (74) 
73

>  <ligand_id>  (74) 
73

>  <original_smiles>  (74) 
[H]c1c([H])c([H])c2c(c1[H])C([H])([H])C([H])([H])C([H])([H])C2([H])N([H])C(=O)C1([H])N(C(=O)C([H])(N([H])C(=O)C([H])(N([H])C([H])([H])[H])C([H])([H])[H])C(C([H])([H])[H])(C([H])([H])[H])C([H])([H])[H])C([H])([H])c2c([H])c(OC([H])([H])C([H])([H])N([H])C(=O)c3c([H])c(N([H])C(=O)N4C([H])([H])C([H])([H])C([H])([H])C([H])(n5nc(-c6c([H])c([H])c(Oc7c([H])c([H])c(F)c([H])c7F)c([H])c6[H])c(C(=O)N([H])[H])c5N([H])[H])C4([H])[H])c([H])c([H])c3C([H])([H])[H])c([H])c([H])c2C1([H])[H]

>  <smiles>  (74) 
[H]c1c([H])c([H])c2c(c1[H])C([H])([H])C([H])([H])C([H])([H])C2([H])N([H])C(=O)C1([H])N(C(=O)C([H])(N([H])C(=O)C([H])(N([H])C([H])([H])[H])C([H])([H])[H])C(C([H])([H])[H])(C([H])([H])[H])C([H])([H])[H])C([H])([H])c2c([H])c(OC([H])([H])C([H])([H])N([H])C(=O)c3c([H])c(N([H])C(=O)N4C([H])([H])C([H])([H])C([H])([H])C([H])(n5nc(-c6c([H])c([H])c(Oc7c([H])c([H])c(F)c([H])c7F)c([H])c6[H])c(C(=O)N([H])[H])c5N([H])[H])C4([H])[H])c([H])c([H])c3C([H])([H])[H])c([H])c([H])c2C1([H])[H]

$$$$
74:0:0
     RDKit          3D

 93101  0  0  1  0  0  0  0  0999 V2000
  -29.1550  -21.0360   20.3860 C   0  0  0  0  0  2  0  0  0  0  0  0
  -29.3110  -20.5150   22.8330 C   0  0  0  0  0  3  0  0  0  0  0  0
  -29.6250  -19.8390   24.0210 C   0  0  0  0  0  3  0  0  0  0  0  0
  -30.1550  -17.8800   22.7280 C   0  0  0  0  0  3  0  0  0  0  0  0
  -29.4520  -19.9480   21.5360 C   0  0  0  0  0  0  0  0  0  0  0  0
  -29.8220  -18.4990   21.4970 C   0  0  0  0  0  0  0  0  0  0  0  0
  -30.0840  -18.5260   23.9650 C   0  0  0  0  0  0  0  0  0  0  0  0
  -30.5610  -17.6980   25.4020 Cl  0  0  0  0  0  0  0  0  0  0  0  0
  -29.9840  -17.4360   20.3170 C   0  0  0  0  0  2  0  0  0  0  0  0
  -30.5910  -14.7990   20.4340 C   0  0  0  0  0  0  0  0  0  0  0  0
  -30.4420  -12.4940   19.4670 C   0  0  0  0  0  2  0  0  0  0  0  0
  -29.5200  -12.5400   18.2280 C   0  0  0  0  0  2  0  0  0  0  0  0
  -28.0390  -12.3720   18.6270 C   0  0  0  0  0  2  0  0  0  0  0  0
  -27.6420  -13.2470   19.8450 C   0  0  0  0  0  3  0  0  0  0  0  0
  -28.6900  -13.1910   20.9800 C   0  0  0  0  0  2  0  0  0  0  0  0
  -29.9890  -13.5550   20.3990 N   0  0  0  0  0  0  0  0  0  0  0  0
  -31.7780  -14.9060   20.1150 O   0  0  0  0  0  0  0  0  0  0  0  0
  -29.7870  -15.9240   20.6070 N   0  0  0  0  0  0  0  0  0  0  0  0
  -28.8350  -15.6930   20.8440 H   0  0  0  0  0  0  0  0  0  0  0  0
  -25.2500  -13.8210   20.5670 C   0  0  0  0  0  0  0  0  0  0  0  0
  -24.1810  -13.0460   20.9200 C   0  0  0  0  0  0  0  0  0  0  0  0
  -24.6440  -11.6940   20.8720 C   0  0  0  0  0  0  0  0  0  0  0  0
  -26.2960  -12.9470   20.3220 N   0  0  0  0  0  0  0  0  0  0  0  0
  -25.9370  -11.6610   20.5690 N   0  0  0  0  0  0  0  0  0  0  0  0
  -23.9110  -10.4320   21.0350 C   0  0  0  0  0  0  0  0  0  0  0  0
  -24.3640   -9.4210   21.9120 C   0  0  0  0  0  3  0  0  0  0  0  0
  -23.6310   -8.2250   22.0720 C   0  0  0  0  0  3  0  0  0  0  0  0
  -22.4280   -8.0290   21.3530 C   0  0  0  0  0  0  0  0  0  0  0  0
  -21.9930   -9.0260   20.4600 C   0  0  0  0  0  3  0  0  0  0  0  0
  -22.7270  -10.2140   20.2980 C   0  0  0  0  0  3  0  0  0  0  0  0
  -21.6660   -6.8880   21.4220 O   0  0  0  0  0  0  0  0  0  0  0  0
  -21.6870   -6.0720   22.5250 C   0  0  0  0  0  0  0  0  0  0  0  0
  -21.4040   -6.5620   23.8180 C   0  0  0  0  0  3  0  0  0  0  0  0
  -21.3670   -5.6760   24.9140 C   0  0  0  0  0  3  0  0  0  0  0  0
  -21.6050   -4.3030   24.7180 C   0  0  0  0  0  0  0  0  0  0  0  0
  -21.8840   -3.8140   23.4300 C   0  0  0  0  0  3  0  0  0  0  0  0
  -21.9220   -4.6960   22.3370 C   0  0  0  0  0  0  0  0  0  0  0  0
  -22.1670   -4.2160   21.0940 F   0  0  0  0  0  0  0  0  0  0  0  0
  -21.5640   -3.4500   25.7690 F   0  0  0  0  0  0  0  0  0  0  0  0
  -22.7820  -13.5210   21.1870 C   0  0  0  0  0  0  0  0  0  0  0  0
  -22.0510  -12.8180   22.0420 N   0  0  0  0  0  0  0  0  0  0  0  0
  -22.3470  -14.5500   20.6680 O   0  0  0  0  0  0  0  0  0  0  0  0
  -22.4190  -11.9900   22.4850 H   0  0  0  0  0  0  0  0  0  0  0  0
  -21.1080  -13.1090   22.2550 H   0  0  0  0  0  0  0  0  0  0  0  0
  -25.4170  -15.1940   20.4060 N   0  0  0  0  0  0  0  0  0  0  0  0
  -24.6500  -15.8480   20.5020 H   0  0  0  0  0  0  0  0  0  0  0  0
  -26.2520  -15.6320   20.0410 H   0  0  0  0  0  0  0  0  0  0  0  0
  -28.4160  -23.6110   20.2290 C   0  0  0  0  0  0  0  0  0  0  0  0
  -30.5060  -22.9610   21.3290 C   0  0  0  0  0  1  0  0  0  0  0  0
  -29.2470  -22.5690   20.6820 N   0  0  0  0  0  0  0  0  0  0  0  0
  -27.6160  -23.3870   19.3150 O   0  0  0  0  0  0  0  0  0  0  0  0
  -28.3380  -25.0870   20.9160 C   0  0  0  0  0  2  0  0  0  0  0  0
  -28.3310  -26.3540   20.0920 O   0  0  0  0  0  0  0  0  0  0  0  0
  -24.6370  -31.8490   23.1920 C   0  0  0  0  0  0  0  0  0  0  0  0
  -27.2320  -27.2440   20.1370 C   0  0  0  0  0  0  0  0  0  0  0  0
  -23.4380  -30.4700   21.5340 C   0  0  0  0  0  3  0  0  0  0  0  0
  -24.8880  -28.9110   20.1090 C   0  0  0  0  0  0  0  0  0  0  0  0
  -25.9890  -30.7630   21.3720 C   0  0  0  0  0  2  0  0  0  0  0  0
  -26.0630  -29.3830   20.7130 C   0  0  0  0  0  0  0  0  0  0  0  0
  -27.2440  -28.5700   20.6930 C   0  0  0  0  0  3  0  0  0  0  0  0
  -26.0310  -26.8340   19.5220 C   0  0  0  0  0  3  0  0  0  0  0  0
  -24.8790  -27.6480   19.4970 C   0  0  0  0  0  3  0  0  0  0  0  0
  -23.6590  -29.7990   20.1540 C   0  0  0  0  0  2  0  0  0  0  0  0
  -24.7070  -31.0440   22.0880 N   0  0  0  0  0  0  0  0  0  0  0  0
  -23.5530  -32.1290   23.7220 O   0  0  0  0  0  0  0  0  0  0  0  0
  -22.7540  -29.4540   22.4810 C   0  0  0  0  0  0  0  0  0  0  0  0
  -21.4230  -29.3060   22.3610 N   0  0  0  0  0  0  0  0  0  0  0  0
  -23.4210  -28.8080   23.2930 O   0  0  0  0  0  0  0  0  0  0  0  0
  -20.9380  -29.8740   21.6790 H   0  0  0  0  0  0  0  0  0  0  0  0
  -18.0320  -28.1430   22.8460 C   0  0  0  0  0  0  0  0  0  0  0  0
  -20.5940  -28.3730   23.1260 C   0  0  0  0  0  3  0  0  0  0  0  0
  -20.6800  -26.9420   22.5420 C   0  0  0  0  0  2  0  0  0  0  0  0
  -19.5780  -26.6380   21.5220 C   0  0  0  0  0  2  0  0  0  0  0  0
  -18.1950  -26.7970   22.1620 C   0  0  0  0  0  2  0  0  0  0  0  0
  -19.1570  -28.8890   23.2850 C   0  0  0  0  0  0  0  0  0  0  0  0
  -18.9490  -30.1500   23.8870 C   0  0  0  0  0  3  0  0  0  0  0  0
  -17.6480  -30.6610   24.0580 C   0  0  0  0  0  3  0  0  0  0  0  0
  -16.5370  -29.9100   23.6350 C   0  0  0  0  0  3  0  0  0  0  0  0
  -16.7310  -28.6550   23.0330 C   0  0  0  0  0  3  0  0  0  0  0  0
  -25.9180  -32.4720   23.8270 C   0  0  0  0  0  3  0  0  0  0  0  0
  -26.4530  -31.6590   25.0700 C   0  0  1  0  0  0  0  0  0  0  0  0
  -25.3720  -31.3790   26.1410 C   0  0  0  0  0  1  0  0  0  0  0  0
  -27.0440  -30.3000   24.6270 C   0  0  0  0  0  1  0  0  0  0  0  0
  -27.6060  -32.4360   25.7500 C   0  0  0  0  0  1  0  0  0  0  0  0
  -25.5960  -33.8510   24.2160 N   0  0  0  0  0  0  0  0  0  0  0  0
  -25.9080  -34.9390   23.5010 C   0  0  0  0  0  0  0  0  0  0  0  0
  -26.5660  -34.8880   22.4580 O   0  0  0  0  0  0  0  0  0  0  0  0
  -25.0140  -33.9640   25.0340 H   0  0  0  0  0  0  0  0  0  0  0  0
  -24.1510  -36.7270   23.2640 C   0  0  0  0  0  1  0  0  0  0  0  0
  -25.4140  -36.3010   24.0290 C   0  0  0  0  0  3  0  0  0  0  0  0
  -27.5570  -37.1780   24.8430 C   0  0  0  0  0  1  0  0  0  0  0  0
  -26.4290  -37.3730   23.9380 N   0  0  0  0  0  0  0  0  0  0  0  0
  -26.0120  -38.2770   24.1450 H   0  0  0  0  0  0  0  0  0  0  0  0
  1 50  1  0
  1  5  1  0
  2  3  1  0
  4  7  1  0
  5  2  2  0
  6  5  1  0
  6  4  2  0
  7  3  2  0
  7  8  1  0
  9 18  1  0
  9  6  1  0
 10 18  1  0
 11 16  1  0
 12 13  1  0
 12 11  1  0
 14 13  1  0
 14 23  1  0
 14 15  1  0
 16 10  1  0
 16 15  1  0
 17 10  2  0
 18 19  1  0
 20 21  2  0
 21 40  1  0
 22 21  1  0
 22 25  1  0
 23 20  1  0
 23 24  1  0
 24 22  2  0
 25 26  1  0
 26 27  2  0
 28 31  1  0
 28 27  1  0
 29 28  2  0
 30 29  1  0
 30 25  2  0
 31 32  1  0
 32 33  1  0
 33 34  2  0
 35 34  1  0
 35 39  1  0
 36 35  2  0
 37 32  2  0
 37 36  1  0
 38 37  1  0
 40 41  1  0
 41 44  1  0
 41 43  1  0
 42 40  2  0
 45 46  1  0
 45 20  1  0
 47 45  1  0
 48 50  1  0
 48 52  1  0
 50 49  1  0
 51 48  2  0
 53 55  1  0
 53 52  1  0
 54 65  2  0
 55 60  1  0
 56 64  1  0
 56 66  1  0
 57 63  1  0
 57 59  1  0
 58 64  1  0
 59 58  1  0
 60 59  2  0
 61 55  2  0
 62 61  1  0
 62 57  2  0
 63 56  1  0
 64 54  1  0
 66 68  2  0
 67 66  1  0
 69 67  1  0
 70 79  2  0
 70 75  1  0
 71 67  1  0
 71 75  1  0
 72 71  1  0
 73 74  1  0
 73 72  1  0
 74 70  1  0
 75 76  2  0
 76 77  1  0
 78 77  2  0
 79 78  1  0
 80 54  1  0
 80 85  1  0
 80 81  1  0
 81 84  1  1
 81 82  1  0
 83 81  1  0
 85 88  1  0
 86 90  1  0
 86 85  1  0
 87 86  2  0
 90 89  1  0
 92 90  1  0
 92 93  1  0
 92 91  1  0
M  ISO  4  10 100  18 100  52 101  53 101
M  END
>  <TORSDO>  (75) 
F 20

>  <SCORE>  (75) 
-6.250

>  <name>  (75) 
74

>  <ligand_id>  (75) 
74

>  <original_smiles>  (75) 
[H]c1c([H])c([H])c2c(c1[H])C([H])([H])C([H])([H])C([H])([H])C2([H])N([H])C(=O)C1([H])N(C(=O)C([H])(N([H])C(=O)C([H])(N([H])C([H])([H])[H])C([H])([H])[H])C(C([H])([H])[H])(C([H])([H])[H])C([H])([H])[H])C([H])([H])c2c([H])c(OC([H])([H])C(=O)N(C([H])([H])[H])C([H])([H])c3c([H])c([H])c(Cl)c([H])c3C([H])([H])N([H])C(=O)N3C([H])([H])C([H])([H])C([H])([H])C([H])(n4nc(-c5c([H])c([H])c(Oc6c([H])c([H])c(F)c([H])c6F)c([H])c5[H])c(C(=O)N([H])[H])c4N([H])[H])C3([H])[H])c([H])c([H])c2C1([H])[H]

>  <smiles>  (75) 
[H]c1c([H])c([H])c2c(c1[H])C([H])([H])C([H])([H])C([H])([H])C2([H])N([H])C(=O)C1([H])N(C(=O)C([H])(N([H])C(=O)C([H])(N([H])C([H])([H])[H])C([H])([H])[H])C(C([H])([H])[H])(C([H])([H])[H])C([H])([H])[H])C([H])([H])c2c([H])c(OC([H])([H])C(=O)N(C([H])([H])[H])C([H])([H])c3c([H])c([H])c(Cl)c([H])c3C([H])([H])N([H])C(=O)N3C([H])([H])C([H])([H])C([H])([H])C([H])(n4nc(-c5c([H])c([H])c(Oc6c([H])c([H])c(F)c([H])c6F)c([H])c5[H])c(C(=O)N([H])[H])c4N([H])[H])C3([H])[H])c([H])c([H])c2C1([H])[H]

$$$$
75:0:0
     RDKit          3D

 96104  0  0  1  0  0  0  0  0999 V2000
  -30.2780  -17.3500   17.1010 C   0  0  0  0  0  3  0  0  0  0  0  0
  -30.8040  -18.6360   17.1530 C   0  0  0  0  0  3  0  0  0  0  0  0
  -30.0300  -16.6840   18.2990 C   0  0  0  0  0  3  0  0  0  0  0  0
  -30.9460  -19.3140   18.3810 C   0  0  0  0  0  0  0  0  0  0  0  0
  -30.3880  -18.7620   19.5950 C   0  0  0  0  0  0  0  0  0  0  0  0
  -30.1840  -17.2820   19.5770 C   0  0  0  0  0  0  0  0  0  0  0  0
  -30.8290  -15.0380   20.6170 C   0  0  0  0  0  0  0  0  0  0  0  0
  -30.6770  -12.7270   19.6810 C   0  0  0  0  0  2  0  0  0  0  0  0
  -29.7980  -12.7100   18.4100 C   0  0  0  0  0  2  0  0  0  0  0  0
  -28.3070  -12.5790   18.7720 C   0  0  0  0  0  2  0  0  0  0  0  0
  -27.8720  -13.4910   19.9520 C   0  0  0  0  0  3  0  0  0  0  0  0
  -28.8810  -13.4620   21.1210 C   0  0  0  0  0  2  0  0  0  0  0  0
  -30.1930  -13.8150   20.5680 N   0  0  0  0  0  0  0  0  0  0  0  0
  -32.0420  -15.0870   20.3960 O   0  0  0  0  0  0  0  0  0  0  0  0
  -30.0880  -16.2320   20.6350 N   0  0  0  0  0  0  0  0  0  0  0  0
  -29.1750  -16.1460   21.0550 H   0  0  0  0  0  0  0  0  0  0  0  0
  -25.4520  -14.0560   20.5880 C   0  0  0  0  0  0  0  0  0  0  0  0
  -24.3810  -13.2710   20.9170 C   0  0  0  0  0  0  0  0  0  0  0  0
  -24.8580  -11.9250   20.9110 C   0  0  0  0  0  0  0  0  0  0  0  0
  -26.5140  -13.1870   20.3970 N   0  0  0  0  0  0  0  0  0  0  0  0
  -26.1610  -11.9010   20.6590 N   0  0  0  0  0  0  0  0  0  0  0  0
  -24.1370  -10.6550   21.0730 C   0  0  0  0  0  0  0  0  0  0  0  0
  -24.5200   -9.7060   22.0450 C   0  0  0  0  0  3  0  0  0  0  0  0
  -23.7990   -8.5020   22.1950 C   0  0  0  0  0  3  0  0  0  0  0  0
  -22.6790   -8.2380   21.3710 C   0  0  0  0  0  0  0  0  0  0  0  0
  -22.3150   -9.1760   20.3880 C   0  0  0  0  0  3  0  0  0  0  0  0
  -23.0370  -10.3720   20.2370 C   0  0  0  0  0  3  0  0  0  0  0  0
  -21.9340   -7.0850   21.4270 O   0  0  0  0  0  0  0  0  0  0  0  0
  -21.8060   -6.3660   22.5890 C   0  0  0  0  0  0  0  0  0  0  0  0
  -21.2310   -6.9250   23.7510 C   0  0  0  0  0  3  0  0  0  0  0  0
  -21.0560   -6.1300   24.9020 C   0  0  0  0  0  3  0  0  0  0  0  0
  -21.4440   -4.7770   24.8900 C   0  0  0  0  0  0  0  0  0  0  0  0
  -22.0100   -4.2160   23.7320 C   0  0  0  0  0  3  0  0  0  0  0  0
  -22.1870   -5.0100   22.5830 C   0  0  0  0  0  0  0  0  0  0  0  0
  -22.7140   -4.4600   21.4620 F   0  0  0  0  0  0  0  0  0  0  0  0
  -21.2690   -4.0110   25.9930 F   0  0  0  0  0  0  0  0  0  0  0  0
  -22.9680  -13.7350   21.1240 C   0  0  0  0  0  0  0  0  0  0  0  0
  -22.2110  -13.0340   21.9600 N   0  0  0  0  0  0  0  0  0  0  0  0
  -22.5420  -14.7520   20.5790 O   0  0  0  0  0  0  0  0  0  0  0  0
  -22.5680  -12.2120   22.4250 H   0  0  0  0  0  0  0  0  0  0  0  0
  -21.2590  -13.3240   22.1390 H   0  0  0  0  0  0  0  0  0  0  0  0
  -25.6120  -15.4270   20.4110 N   0  0  0  0  0  0  0  0  0  0  0  0
  -24.8360  -16.0780   20.4820 H   0  0  0  0  0  0  0  0  0  0  0  0
  -26.4630  -15.8680   20.0840 H   0  0  0  0  0  0  0  0  0  0  0  0
  -31.7240  -20.6440   18.3110 C   0  0  2  0  0  0  0  0  0  0  0  0
  -32.3360  -20.9190   19.4630 F   0  0  0  0  0  0  0  0  0  0  0  0
  -30.8940  -21.6500   18.0230 F   0  0  0  0  0  0  0  0  0  0  0  0
  -33.0150  -20.6250   17.0720 Cl  0  0  0  0  0  0  0  0  0  0  0  0
  -30.0040  -19.8300   20.7350 C   0  0  0  0  0  2  0  0  0  0  0  0
  -29.1910  -22.4050   21.0060 C   0  0  0  0  0  0  0  0  0  0  0  0
  -29.6730  -21.2910   20.3380 N   0  0  0  0  0  0  0  0  0  0  0  0
  -28.7580  -22.2880   22.1530 O   0  0  0  0  0  0  0  0  0  0  0  0
  -30.0240  -21.5300   19.4120 H   0  0  0  0  0  0  0  0  0  0  0  0
  -29.2160  -23.8740   20.3350 C   0  0  0  0  0  3  0  0  0  0  0  0
  -28.4010  -25.1370   20.9700 C   0  0  0  0  0  3  0  0  0  0  0  0
  -28.5990  -26.5730   20.5250 O   0  0  0  0  0  0  0  0  0  0  0  0
  -24.6500  -31.9830   23.3930 C   0  0  0  0  0  0  0  0  0  0  0  0
  -27.4830  -27.4420   20.4600 C   0  0  0  0  0  0  0  0  0  0  0  0
  -23.5450  -30.5430   21.7220 C   0  0  0  0  0  3  0  0  0  0  0  0
  -25.0880  -29.0260   20.3490 C   0  0  0  0  0  0  0  0  0  0  0  0
  -26.0840  -30.9230   21.6250 C   0  0  0  0  0  2  0  0  0  0  0  0
  -26.2260  -29.5410   20.9850 C   0  0  0  0  0  0  0  0  0  0  0  0
  -27.4300  -28.7630   21.0220 C   0  0  0  0  0  3  0  0  0  0  0  0
  -26.3260  -27.0000   19.7860 C   0  0  0  0  0  3  0  0  0  0  0  0
  -25.1440  -27.7640   19.7380 C   0  0  0  0  0  3  0  0  0  0  0  0
  -23.8260  -29.8670   20.3530 C   0  0  0  0  0  2  0  0  0  0  0  0
  -24.7770  -31.1700   22.3030 N   0  0  0  0  0  0  0  0  0  0  0  0
  -23.5410  -32.2300   23.8890 O   0  0  0  0  0  0  0  0  0  0  0  0
  -22.8780  -29.5120   22.6640 C   0  0  0  0  0  0  0  0  0  0  0  0
  -21.5720  -29.2590   22.4630 N   0  0  0  0  0  0  0  0  0  0  0  0
  -23.5370  -28.9400   23.5370 O   0  0  0  0  0  0  0  0  0  0  0  0
  -21.0970  -29.7730   21.7350 H   0  0  0  0  0  0  0  0  0  0  0  0
  -18.2520  -27.8550   22.7660 C   0  0  0  0  0  0  0  0  0  0  0  0
  -20.7620  -28.2920   23.2060 C   0  0  0  0  0  3  0  0  0  0  0  0
  -20.9960  -26.8530   22.6900 C   0  0  0  0  0  2  0  0  0  0  0  0
  -19.9950  -26.4290   21.6110 C   0  0  0  0  0  2  0  0  0  0  0  0
  -18.5630  -26.5000   22.1510 C   0  0  0  0  0  2  0  0  0  0  0  0
  -19.2850  -28.7020   23.2470 C   0  0  0  0  0  0  0  0  0  0  0  0
  -18.9410  -29.9640   23.7790 C   0  0  0  0  0  3  0  0  0  0  0  0
  -17.5980  -30.3830   23.8320 C   0  0  0  0  0  3  0  0  0  0  0  0
  -16.5780  -29.5330   23.3670 C   0  0  0  0  0  3  0  0  0  0  0  0
  -16.9060  -28.2700   22.8430 C   0  0  0  0  0  3  0  0  0  0  0  0
  -25.8910  -32.6580   24.0550 C   0  0  0  0  0  3  0  0  0  0  0  0
  -25.5470  -34.0630   24.3150 N   0  0  0  0  0  0  0  0  0  0  0  0
  -25.9050  -35.0920   23.5350 C   0  0  0  0  0  0  0  0  0  0  0  0
  -26.6270  -34.9610   22.5430 O   0  0  0  0  0  0  0  0  0  0  0  0
  -24.9130  -34.2380   25.0800 H   0  0  0  0  0  0  0  0  0  0  0  0
  -24.1880  -36.8570   23.0190 C   0  0  0  0  0  1  0  0  0  0  0  0
  -25.3810  -36.4920   23.9170 C   0  0  0  0  0  3  0  0  0  0  0  0
  -27.4460  -37.4300   24.8540 C   0  0  0  0  0  1  0  0  0  0  0  0
  -26.4110  -37.5490   23.8310 N   0  0  0  0  0  0  0  0  0  0  0  0
  -25.9890  -38.4700   23.9140 H   0  0  0  0  0  0  0  0  0  0  0  0
  -26.3490  -31.9440   25.3850 C   0  0  1  0  0  0  0  0  0  0  0  0
  -25.2010  -31.7230   26.3990 C   0  0  0  0  0  1  0  0  0  0  0  0
  -26.9800  -30.5670   25.0800 C   0  0  0  0  0  1  0  0  0  0  0  0
  -27.4470  -32.7870   26.0780 C   0  0  0  0  0  1  0  0  0  0  0  0
  1  2  2  0
  1  3  1  0
  2  4  1  0
  3  6  2  0
  4  5  2  0
  5 49  1  0
  6  5  1  0
  6 15  1  0
  7 15  1  0
  8 13  1  0
  9 10  1  0
  9  8  1  0
 11 10  1  0
 11 20  1  0
 11 12  1  0
 13  7  1  0
 13 12  1  0
 14  7  2  0
 15 16  1  0
 17 18  2  0
 18 37  1  0
 19 18  1  0
 19 22  1  0
 20 17  1  0
 20 21  1  0
 21 19  2  0
 22 23  1  0
 23 24  2  0
 25 28  1  0
 25 24  1  0
 26 25  2  0
 27 26  1  0
 27 22  2  0
 28 29  1  0
 29 30  1  0
 30 31  2  0
 32 31  1  0
 32 36  1  0
 33 32  2  0
 34 29  2  0
 34 33  1  0
 35 34  1  0
 37 38  1  0
 38 41  1  0
 38 40  1  0
 39 37  2  0
 42 43  1  0
 42 17  1  0
 44 42  1  0
 45  4  1  0
 45 46  1  1
 47 45  1  0
 48 45  1  0
 50 52  2  0
 51 49  1  0
 51 50  1  0
 53 51  1  0
 54 55  2  0
 54 50  1  0
 56 55  1  0
 57 68  2  0
 58 56  1  0
 58 63  1  0
 59 67  1  0
 59 69  1  0
 60 66  1  0
 60 62  1  0
 61 67  1  0
 62 63  2  0
 62 61  1  0
 64 58  2  0
 65 64  1  0
 65 60  2  0
 66 59  1  0
 67 57  1  0
 69 71  2  0
 70 69  1  0
 72 70  1  0
 73 82  2  0
 73 78  1  0
 74 70  1  0
 74 78  1  0
 75 74  1  0
 76 77  1  0
 76 75  1  0
 77 73  1  0
 78 79  2  0
 79 80  1  0
 81 80  2  0
 82 81  1  0
 83 57  1  0
 83 84  1  0
 83 93  1  0
 84 87  1  0
 85 89  1  0
 85 84  1  0
 86 85  2  0
 89 88  1  0
 91 92  1  0
 91 89  1  0
 91 90  1  0
 93 96  1  1
 93 94  1  0
 95 93  1  0
M  ISO  4   7 100  15 100  55 101  56 101
M  END
>  <TORSDO>  (76) 
F 21

>  <SCORE>  (76) 
-12.554

>  <name>  (76) 
75

>  <ligand_id>  (76) 
75

>  <original_smiles>  (76) 
[H]c1c([H])c(N([H])C(=O)N2C([H])([H])C([H])([H])C([H])([H])C([H])(n3nc(-c4c([H])c([H])c(Oc5c([H])c([H])c(F)c([H])c5F)c([H])c4[H])c(C(=O)N([H])[H])c3N([H])[H])C2([H])[H])c(C([H])([H])N([H])C(=O)C([H])([H])C([H])([H])Oc2c([H])c([H])c3c(c2[H])C([H])([H])N(C(=O)C([H])(N([H])C(=O)C([H])(N([H])C([H])([H])[H])C([H])([H])[H])C(C([H])([H])[H])(C([H])([H])[H])C([H])([H])[H])C([H])(C(=O)N([H])C2([H])c4c([H])c([H])c([H])c([H])c4C([H])([H])C([H])([H])C2([H])[H])C3([H])[H])c(C(F)(F)Cl)c1[H]

>  <smiles>  (76) 
[H]c1c([H])c(N([H])C(=O)N2C([H])([H])C([H])([H])C([H])([H])C([H])(n3nc(-c4c([H])c([H])c(Oc5c([H])c([H])c(F)c([H])c5F)c([H])c4[H])c(C(=O)N([H])[H])c3N([H])[H])C2([H])[H])c(C([H])([H])N([H])C(=O)C([H])([H])C([H])([H])Oc2c([H])c([H])c3c(c2[H])C([H])([H])N(C(=O)C([H])(N([H])C(=O)C([H])(N([H])C([H])([H])[H])C([H])([H])[H])C(C([H])([H])[H])(C([H])([H])[H])C([H])([H])[H])C([H])(C(=O)N([H])C2([H])c4c([H])c([H])c([H])c([H])c4C([H])([H])C([H])([H])C2([H])[H])C3([H])[H])c(C(F)(F)Cl)c1[H]

$$$$
76:0:0
     RDKit          3D

 97106  0  0  1  0  0  0  0  0999 V2000
  -30.2890  -23.8360   18.7760 C   0  0  0  0  0  3  0  0  0  0  0  0
  -30.9670  -24.5270   19.7120 C   0  0  0  0  0  0  0  0  0  0  0  0
  -30.2790  -22.3770   18.7030 C   0  0  0  0  0  0  0  0  0  0  0  0
  -31.7460  -23.8040   20.7910 C   0  0  0  0  0  2  0  0  0  0  0  0
  -32.2020  -22.4110   20.3100 C   0  0  0  0  0  2  0  0  0  0  0  0
  -31.2700  -21.7390   19.3850 N   0  0  0  0  0  0  0  0  0  0  0  0
  -29.4660  -21.7700   18.0000 O   0  0  0  0  0  0  0  0  0  0  0  0
  -31.6440  -20.3450   19.0500 C   0  0  0  0  0  2  0  0  0  0  0  0
  -30.9490  -19.5810   21.3730 C   0  0  0  0  0  3  0  0  0  0  0  0
  -30.6740  -18.5950   22.3270 C   0  0  0  0  0  3  0  0  0  0  0  0
  -31.3120  -19.2280   20.0580 C   0  0  0  0  0  0  0  0  0  0  0  0
  -30.7630  -17.2350   21.9920 C   0  0  0  0  0  0  0  0  0  0  0  0
  -31.3760  -17.8420   19.6920 C   0  0  0  0  0  0  0  0  0  0  0  0
  -31.1160  -16.8270   20.6760 C   0  0  0  0  0  0  0  0  0  0  0  0
  -30.4400  -16.2240   23.0870 C   0  0  0  0  0  1  0  0  0  0  0  0
  -31.6950  -17.4740   18.2460 C   0  0  0  0  0  1  0  0  0  0  0  0
  -31.6820  -14.4660   19.7330 C   0  0  0  0  0  0  0  0  0  0  0  0
  -31.1290  -12.4210   18.4590 C   0  0  0  0  0  2  0  0  0  0  0  0
  -30.0460  -12.7810   17.4180 C   0  0  0  0  0  2  0  0  0  0  0  0
  -28.6330  -12.6940   18.0310 C   0  0  0  0  0  2  0  0  0  0  0  0
  -28.5240  -13.4340   19.3910 C   0  0  0  0  0  3  0  0  0  0  0  0
  -29.6920  -13.0270   20.3160 C   0  0  0  0  0  2  0  0  0  0  0  0
  -30.9540  -13.3220   19.6080 N   0  0  0  0  0  0  0  0  0  0  0  0
  -32.7560  -14.6230   19.1480 O   0  0  0  0  0  0  0  0  0  0  0  0
  -31.0710  -15.3970   20.4940 N   0  0  0  0  0  0  0  0  0  0  0  0
  -30.3070  -14.9770   20.9990 H   0  0  0  0  0  0  0  0  0  0  0  0
  -26.2940  -14.1420   20.4640 C   0  0  0  0  0  0  0  0  0  0  0  0
  -25.2250  -13.4140   20.9150 C   0  0  0  0  0  0  0  0  0  0  0  0
  -25.5740  -12.0420   20.7210 C   0  0  0  0  0  0  0  0  0  0  0  0
  -27.2280  -13.2150   20.0260 N   0  0  0  0  0  0  0  0  0  0  0  0
  -26.8040  -11.9420   20.2350 N   0  0  0  0  0  0  0  0  0  0  0  0
  -24.7840  -10.8180   20.9180 C   0  0  0  0  0  0  0  0  0  0  0  0
  -25.1240   -9.8750   21.9120 C   0  0  0  0  0  3  0  0  0  0  0  0
  -24.3420   -8.7140   22.0960 C   0  0  0  0  0  3  0  0  0  0  0  0
  -23.2060   -8.4880   21.2840 C   0  0  0  0  0  0  0  0  0  0  0  0
  -22.8850   -9.4200   20.2790 C   0  0  0  0  0  3  0  0  0  0  0  0
  -23.6660  -10.5730   20.0950 C   0  0  0  0  0  3  0  0  0  0  0  0
  -22.4050   -7.3770   21.3710 O   0  0  0  0  0  0  0  0  0  0  0  0
  -22.0770   -6.8150   22.5790 C   0  0  0  0  0  0  0  0  0  0  0  0
  -21.4570   -7.5630   23.6030 C   0  0  0  0  0  3  0  0  0  0  0  0
  -21.0760   -6.9330   24.8040 C   0  0  0  0  0  3  0  0  0  0  0  0
  -21.3030   -5.5540   24.9780 C   0  0  0  0  0  0  0  0  0  0  0  0
  -21.9150   -4.8060   23.9580 C   0  0  0  0  0  3  0  0  0  0  0  0
  -22.2980   -5.4350   22.7600 C   0  0  0  0  0  0  0  0  0  0  0  0
  -22.8680   -4.7060   21.7710 F   0  0  0  0  0  0  0  0  0  0  0  0
  -20.9280   -4.9450   26.1280 F   0  0  0  0  0  0  0  0  0  0  0  0
  -23.9150  -13.9570   21.4100 C   0  0  0  0  0  0  0  0  0  0  0  0
  -23.2790  -13.2690   22.3510 N   0  0  0  0  0  0  0  0  0  0  0  0
  -23.4700  -15.0260   20.9950 O   0  0  0  0  0  0  0  0  0  0  0  0
  -23.6520  -12.4040   22.7140 H   0  0  0  0  0  0  0  0  0  0  0  0
  -22.4040  -13.6170   22.7190 H   0  0  0  0  0  0  0  0  0  0  0  0
  -26.5430  -15.5080   20.3740 N   0  0  0  0  0  0  0  0  0  0  0  0
  -25.8710  -16.2060   20.6760 H   0  0  0  0  0  0  0  0  0  0  0  0
  -27.3890  -15.9160   19.9980 H   0  0  0  0  0  0  0  0  0  0  0  0
  -31.0380  -26.0540   19.7040 C   0  0  0  0  0  2  0  0  0  0  0  0
  -29.8580  -26.7860   20.3690 C   0  0  0  0  0  2  0  0  0  0  0  0
  -28.7040  -26.5570   19.5710 O   0  0  0  0  0  0  0  0  0  0  0  0
  -24.9220  -31.5790   23.0560 C   0  0  0  0  0  0  0  0  0  0  0  0
  -27.5700  -27.3200   19.7420 C   0  0  0  0  0  0  0  0  0  0  0  0
  -23.6920  -30.2110   21.4020 C   0  0  0  0  0  3  0  0  0  0  0  0
  -25.1350  -28.7530   19.8860 C   0  0  0  0  0  0  0  0  0  0  0  0
  -26.2000  -30.6310   21.1430 C   0  0  0  0  0  2  0  0  0  0  0  0
  -26.2960  -29.2810   20.4650 C   0  0  0  0  0  0  0  0  0  0  0  0
  -27.5150  -28.5720   20.4030 C   0  0  0  0  0  3  0  0  0  0  0  0
  -26.3920  -26.8040   19.1660 C   0  0  0  0  0  3  0  0  0  0  0  0
  -25.1760  -27.5060   19.2380 C   0  0  0  0  0  3  0  0  0  0  0  0
  -23.8760  -29.5820   19.9940 C   0  0  0  0  0  2  0  0  0  0  0  0
  -24.9580  -30.8200   21.9250 N   0  0  0  0  0  0  0  0  0  0  0  0
  -23.8540  -31.8120   23.6390 O   0  0  0  0  0  0  0  0  0  0  0  0
  -23.0920  -29.1440   22.3450 C   0  0  0  0  0  0  0  0  0  0  0  0
  -21.7650  -28.9530   22.2660 N   0  0  0  0  0  0  0  0  0  0  0  0
  -23.8150  -28.4930   23.1030 O   0  0  0  0  0  0  0  0  0  0  0  0
  -21.2410  -29.5350   21.6270 H   0  0  0  0  0  0  0  0  0  0  0  0
  -18.4190  -27.7470   22.8880 C   0  0  0  0  0  0  0  0  0  0  0  0
  -20.9890  -27.9780   23.0300 C   0  0  0  0  0  3  0  0  0  0  0  0
  -21.0500  -26.5800   22.3740 C   0  0  0  0  0  2  0  0  0  0  0  0
  -19.8920  -26.3180   21.4060 C   0  0  0  0  0  2  0  0  0  0  0  0
  -18.5480  -26.4340   22.1330 C   0  0  0  0  0  2  0  0  0  0  0  0
  -19.5650  -28.4790   23.2960 C   0  0  0  0  0  0  0  0  0  0  0  0
  -19.3900  -29.7100   23.9640 C   0  0  0  0  0  3  0  0  0  0  0  0
  -18.1010  -30.2090   24.2270 C   0  0  0  0  0  3  0  0  0  0  0  0
  -16.9700  -29.4730   23.8370 C   0  0  0  0  0  3  0  0  0  0  0  0
  -17.1300  -28.2440   23.1720 C   0  0  0  0  0  3  0  0  0  0  0  0
  -26.2160  -32.2110   23.6560 C   0  0  0  0  0  3  0  0  0  0  0  0
  -26.8280  -31.3690   24.8430 C   0  0  1  0  0  0  0  0  0  0  0  0
  -25.8020  -31.0150   25.9450 C   0  0  0  0  0  1  0  0  0  0  0  0
  -27.4380  -30.0480   24.3180 C   0  0  0  0  0  1  0  0  0  0  0  0
  -27.9830  -32.1580   25.5030 C   0  0  0  0  0  1  0  0  0  0  0  0
  -25.8780  -33.5690   24.1010 N   0  0  0  0  0  0  0  0  0  0  0  0
  -26.1300  -34.6830   23.3990 C   0  0  0  0  0  0  0  0  0  0  0  0
  -26.7440  -34.6760   22.3290 O   0  0  0  0  0  0  0  0  0  0  0  0
  -25.3180  -33.6450   24.9370 H   0  0  0  0  0  0  0  0  0  0  0  0
  -24.3120  -36.4170   23.2780 C   0  0  0  0  0  1  0  0  0  0  0  0
  -25.6200  -36.0170   23.9770 C   0  0  0  0  0  3  0  0  0  0  0  0
  -27.7650  -36.9460   24.7320 C   0  0  0  0  0  1  0  0  0  0  0  0
  -26.6010  -37.1180   23.8670 N   0  0  0  0  0  0  0  0  0  0  0  0
  -26.1680  -38.0090   24.0920 H   0  0  0  0  0  0  0  0  0  0  0  0
  1  2  2  0
  2  4  1  0
  3  1  1  0
  3  6  1  0
  5  4  1  0
  6  5  1  0
  7  3  2  0
  8  6  1  0
  8 11  1  0
  9 10  1  0
 11  9  2  0
 12 10  2  0
 12 15  1  0
 13 11  1  0
 13 14  2  0
 14 12  1  0
 16 13  1  0
 17 25  1  0
 18 23  1  0
 19 20  1  0
 19 18  1  0
 21 20  1  0
 21 30  1  0
 21 22  1  0
 23 17  1  0
 23 22  1  0
 24 17  2  0
 25 14  1  0
 25 26  1  0
 27 28  2  0
 28 47  1  0
 29 28  1  0
 29 32  1  0
 30 31  1  0
 30 27  1  0
 31 29  2  0
 32 33  1  0
 33 34  2  0
 35 38  1  0
 35 34  1  0
 36 35  2  0
 37 36  1  0
 37 32  2  0
 38 39  1  0
 39 44  2  0
 39 40  1  0
 40 41  2  0
 41 42  1  0
 42 46  1  0
 43 42  2  0
 44 43  1  0
 45 44  1  0
 47 48  1  0
 48 50  1  0
 48 51  1  0
 49 47  2  0
 52 27  1  0
 52 53  1  0
 54 52  1  0
 55  2  1  0
 55 56  1  0
 57 59  1  0
 57 56  1  0
 58 69  2  0
 59 64  1  0
 60 68  1  0
 60 70  1  0
 61 67  1  0
 61 63  1  0
 62 68  1  0
 63 62  1  0
 64 63  2  0
 65 66  1  0
 65 59  2  0
 66 61  2  0
 67 60  1  0
 68 58  1  0
 70 72  2  0
 71 70  1  0
 73 71  1  0
 74 83  2  0
 74 79  1  0
 75 71  1  0
 75 79  1  0
 76 75  1  0
 77 78  1  0
 77 76  1  0
 78 74  1  0
 79 80  2  0
 80 81  1  0
 82 81  2  0
 83 82  1  0
 84 58  1  0
 84 89  1  0
 84 85  1  0
 85 88  1  1
 85 86  1  0
 87 85  1  0
 89 92  1  0
 90 94  1  0
 90 89  1  0
 91 90  2  0
 94 93  1  0
 96 94  1  0
 96 97  1  0
 96 95  1  0
M  ISO  4  17 100  25 100  56 101  57 101
M  END
>  <TORSDO>  (77) 
F 20

>  <SCORE>  (77) 
-9.575

>  <name>  (77) 
76

>  <ligand_id>  (77) 
76

>  <original_smiles>  (77) 
[H]C1=C(C([H])([H])C([H])([H])Oc2c([H])c([H])c3c(c2[H])C([H])([H])N(C(=O)C([H])(N([H])C(=O)C([H])(N([H])C([H])([H])[H])C([H])([H])[H])C(C([H])([H])[H])(C([H])([H])[H])C([H])([H])[H])C([H])(C(=O)N([H])C2([H])c4c([H])c([H])c([H])c([H])c4C([H])([H])C([H])([H])C2([H])[H])C3([H])[H])C([H])([H])C([H])([H])N(C([H])([H])c2c([H])c([H])c(C([H])([H])[H])c(N([H])C(=O)N3C([H])([H])C([H])([H])C([H])([H])C([H])(n4nc(-c5c([H])c([H])c(Oc6c([H])c([H])c(F)c([H])c6F)c([H])c5[H])c(C(=O)N([H])[H])c4N([H])[H])C3([H])[H])c2C([H])([H])[H])C1=O

>  <smiles>  (77) 
[H]C1=C(C([H])([H])C([H])([H])Oc2c([H])c([H])c3c(c2[H])C([H])([H])N(C(=O)C([H])(N([H])C(=O)C([H])(N([H])C([H])([H])[H])C([H])([H])[H])C(C([H])([H])[H])(C([H])([H])[H])C([H])([H])[H])C([H])(C(=O)N([H])C2([H])c4c([H])c([H])c([H])c([H])c4C([H])([H])C([H])([H])C2([H])[H])C3([H])[H])C([H])([H])C([H])([H])N(C([H])([H])c2c([H])c([H])c(C([H])([H])[H])c(N([H])C(=O)N3C([H])([H])C([H])([H])C([H])([H])C([H])(n4nc(-c5c([H])c([H])c(Oc6c([H])c([H])c(F)c([H])c6F)c([H])c5[H])c(C(=O)N([H])[H])c4N([H])[H])C3([H])[H])c2C([H])([H])[H])C1=O

$$$$
77:0:0
     RDKit          3D

 96105  0  0  1  0  0  0  0  0999 V2000
  -28.1750  -23.0440   21.2600 C   0  0  0  0  0  0  0  0  0  0  0  0
  -27.9070  -22.5090   22.4660 C   0  0  0  0  0  2  0  0  0  0  0  0
  -27.6360  -24.4210   20.7790 C   0  0  0  0  0  2  0  0  0  0  0  0
  -29.6870  -24.6630   19.3190 C   0  0  0  0  0  2  0  0  0  0  0  0
  -29.3590  -23.1540   19.0580 C   0  0  0  0  0  2  0  0  0  0  0  0
  -28.7580  -25.3920   20.3270 C   0  0  0  0  0  3  0  0  0  0  0  0
  -29.1250  -22.3390   20.2910 N   0  0  2  0  0  4  0  0  0  0  0  0
  -30.0210  -22.2930   20.7540 H   0  0  0  0  0  0  0  0  0  0  0  0
  -28.5220  -26.7930   19.9300 O   0  0  0  0  0  0  0  0  0  0  0  0
  -24.5340  -31.8360   23.1410 C   0  0  0  0  0  0  0  0  0  0  0  0
  -27.3050  -27.4650   20.0070 C   0  0  0  0  0  0  0  0  0  0  0  0
  -23.3710  -30.4400   21.4600 C   0  0  0  0  0  3  0  0  0  0  0  0
  -24.8730  -28.9520   20.0180 C   0  0  0  0  0  0  0  0  0  0  0  0
  -25.8920  -30.8490   21.2900 C   0  0  0  0  0  2  0  0  0  0  0  0
  -26.0140  -29.4840   20.6280 C   0  0  0  0  0  0  0  0  0  0  0  0
  -27.2300  -28.7500   20.6150 C   0  0  0  0  0  3  0  0  0  0  0  0
  -26.1470  -26.9660   19.3750 C   0  0  0  0  0  3  0  0  0  0  0  0
  -24.9380  -27.6970   19.3840 C   0  0  0  0  0  3  0  0  0  0  0  0
  -23.6100  -29.7870   20.0700 C   0  0  0  0  0  2  0  0  0  0  0  0
  -24.6160  -31.0590   22.0220 N   0  0  0  0  0  0  0  0  0  0  0  0
  -23.4430  -32.0700   23.6820 O   0  0  0  0  0  0  0  0  0  0  0  0
  -22.7360  -29.3880   22.3990 C   0  0  0  0  0  0  0  0  0  0  0  0
  -21.4110  -29.1980   22.2850 N   0  0  0  0  0  0  0  0  0  0  0  0
  -23.4350  -28.7460   23.1880 O   0  0  0  0  0  0  0  0  0  0  0  0
  -20.9040  -29.7710   21.6230 H   0  0  0  0  0  0  0  0  0  0  0  0
  -18.0550  -27.9670   22.8220 C   0  0  0  0  0  0  0  0  0  0  0  0
  -20.6160  -28.2240   23.0340 C   0  0  0  0  0  3  0  0  0  0  0  0
  -20.7090  -26.8210   22.3940 C   0  0  0  0  0  2  0  0  0  0  0  0
  -19.5820  -26.5390   21.3960 C   0  0  0  0  0  2  0  0  0  0  0  0
  -18.2160  -26.6500   22.0820 C   0  0  0  0  0  2  0  0  0  0  0  0
  -19.1820  -28.7140   23.2550 C   0  0  0  0  0  0  0  0  0  0  0  0
  -18.9760  -29.9470   23.9090 C   0  0  0  0  0  3  0  0  0  0  0  0
  -17.6750  -30.4360   24.1320 C   0  0  0  0  0  3  0  0  0  0  0  0
  -16.5620  -29.6860   23.7140 C   0  0  0  0  0  3  0  0  0  0  0  0
  -16.7530  -28.4530   23.0650 C   0  0  0  0  0  3  0  0  0  0  0  0
  -25.8010  -32.4870   23.7800 C   0  0  0  0  0  3  0  0  0  0  0  0
  -25.4600  -33.8750   24.1280 N   0  0  0  0  0  0  0  0  0  0  0  0
  -25.7810  -34.9450   23.3870 C   0  0  0  0  0  0  0  0  0  0  0  0
  -26.4620  -34.8680   22.3610 O   0  0  0  0  0  0  0  0  0  0  0  0
  -24.8600  -34.0080   24.9280 H   0  0  0  0  0  0  0  0  0  0  0  0
  -24.0380  -36.7200   23.0190 C   0  0  0  0  0  1  0  0  0  0  0  0
  -25.2620  -36.3180   23.8580 C   0  0  0  0  0  3  0  0  0  0  0  0
  -27.3530  -37.2180   24.7740 C   0  0  0  0  0  1  0  0  0  0  0  0
  -26.2810  -37.3870   23.7970 N   0  0  0  0  0  0  0  0  0  0  0  0
  -25.8580  -38.2990   23.9460 H   0  0  0  0  0  0  0  0  0  0  0  0
  -26.3280  -31.7110   25.0510 C   0  0  1  0  0  0  0  0  0  0  0  0
  -25.2330  -31.4340   26.1070 C   0  0  0  0  0  1  0  0  0  0  0  0
  -26.9480  -30.3540   24.6480 C   0  0  0  0  0  1  0  0  0  0  0  0
  -27.4550  -32.5230   25.7320 C   0  0  0  0  0  1  0  0  0  0  0  0
  -28.7960  -20.8790   19.9840 C   0  0  0  0  0  2  0  0  0  0  0  0
  -31.2100  -20.0700   20.4050 C   0  0  0  0  0  3  0  0  0  0  0  0
  -31.8200  -17.7280   20.7680 C   0  0  0  0  0  3  0  0  0  0  0  0
  -29.8440  -19.7360   20.2690 C   0  0  0  0  0  0  0  0  0  0  0  0
  -29.4950  -18.3290   20.3470 C   0  0  0  0  0  0  0  0  0  0  0  0
  -30.4830  -17.3010   20.5840 C   0  0  0  0  0  0  0  0  0  0  0  0
  -32.1800  -19.0810   20.6530 C   0  0  0  0  0  0  0  0  0  0  0  0
  -28.0520  -17.8830   20.1470 C   0  0  0  0  0  1  0  0  0  0  0  0
  -33.8400  -19.5290   20.8030 Cl  0  0  0  0  0  0  0  0  0  0  0  0
  -30.8640  -14.7690   20.2990 C   0  0  0  0  0  0  0  0  0  0  0  0
  -30.5600  -12.5560   19.2230 C   0  0  0  0  0  2  0  0  0  0  0  0
  -29.6090  -12.7210   18.0190 C   0  0  0  0  0  2  0  0  0  0  0  0
  -28.1430  -12.5740   18.4690 C   0  0  0  0  0  2  0  0  0  0  0  0
  -27.8110  -13.4240   19.7250 C   0  0  0  0  0  3  0  0  0  0  0  0
  -28.8870  -13.2730   20.8230 C   0  0  0  0  0  2  0  0  0  0  0  0
  -30.1900  -13.5810   20.2190 N   0  0  0  0  0  0  0  0  0  0  0  0
  -32.0230  -14.8570   19.8930 O   0  0  0  0  0  0  0  0  0  0  0  0
  -30.1320  -15.8780   20.6440 N   0  0  0  0  0  0  0  0  0  0  0  0
  -29.1700  -15.6730   20.8610 H   0  0  0  0  0  0  0  0  0  0  0  0
  -25.4380  -14.0170   20.5100 C   0  0  0  0  0  0  0  0  0  0  0  0
  -24.3740  -13.2410   20.8800 C   0  0  0  0  0  0  0  0  0  0  0  0
  -24.8280  -11.8900   20.8090 C   0  0  0  0  0  0  0  0  0  0  0  0
  -26.4720  -13.1380   20.2310 N   0  0  0  0  0  0  0  0  0  0  0  0
  -26.1110  -11.8510   20.4730 N   0  0  0  0  0  0  0  0  0  0  0  0
  -24.0970  -10.6280   20.9850 C   0  0  0  0  0  0  0  0  0  0  0  0
  -24.4920   -9.6760   21.9510 C   0  0  0  0  0  3  0  0  0  0  0  0
  -23.7640   -8.4790   22.1150 C   0  0  0  0  0  3  0  0  0  0  0  0
  -22.6260   -8.2240   21.3130 C   0  0  0  0  0  0  0  0  0  0  0  0
  -22.2510   -9.1650   20.3370 C   0  0  0  0  0  3  0  0  0  0  0  0
  -22.9800  -10.3550   20.1720 C   0  0  0  0  0  3  0  0  0  0  0  0
  -21.8710   -7.0780   21.3840 O   0  0  0  0  0  0  0  0  0  0  0  0
  -21.7160   -6.3910   22.5610 C   0  0  0  0  0  0  0  0  0  0  0  0
  -21.1170   -6.9810   23.6950 C   0  0  0  0  0  3  0  0  0  0  0  0
  -20.9160   -6.2180   24.8620 C   0  0  0  0  0  3  0  0  0  0  0  0
  -21.3010   -4.8640   24.8940 C   0  0  0  0  0  0  0  0  0  0  0  0
  -21.8920   -4.2740   23.7630 C   0  0  0  0  0  3  0  0  0  0  0  0
  -22.0960   -5.0340   22.6000 C   0  0  0  0  0  0  0  0  0  0  0  0
  -22.6470   -4.4540   21.5060 F   0  0  0  0  0  0  0  0  0  0  0  0
  -21.1000   -4.1290   26.0120 F   0  0  0  0  0  0  0  0  0  0  0  0
  -22.9860  -13.7210   21.1890 C   0  0  0  0  0  0  0  0  0  0  0  0
  -22.2660  -13.0030   22.0450 N   0  0  0  0  0  0  0  0  0  0  0  0
  -22.5500  -14.7670   20.7100 O   0  0  0  0  0  0  0  0  0  0  0  0
  -22.6340  -12.1550   22.4490 H   0  0  0  0  0  0  0  0  0  0  0  0
  -21.3350  -13.3040   22.2950 H   0  0  0  0  0  0  0  0  0  0  0  0
  -25.6070  -15.3890   20.3680 N   0  0  0  0  0  0  0  0  0  0  0  0
  -24.8530  -16.0460   20.5330 H   0  0  0  0  0  0  0  0  0  0  0  0
  -26.4460  -15.8260   20.0120 H   0  0  0  0  0  0  0  0  0  0  0  0
  1  2  2  0
  3  1  1  0
  4  6  1  0
  5  4  1  0
  5  7  1  0
  6  9  1  0
  6  3  1  0
  7  8  1  1
  7  1  1  0
  9 11  1  0
 10 21  2  0
 11 16  1  0
 12 20  1  0
 12 22  1  0
 13 19  1  0
 13 15  1  0
 14 20  1  0
 15 14  1  0
 16 15  2  0
 17 18  1  0
 17 11  2  0
 18 13  2  0
 19 12  1  0
 20 10  1  0
 22 24  2  0
 23 22  1  0
 25 23  1  0
 26 35  2  0
 26 31  1  0
 27 23  1  0
 27 31  1  0
 28 27  1  0
 29 30  1  0
 29 28  1  0
 30 26  1  0
 31 32  2  0
 32 33  1  0
 34 33  2  0
 35 34  1  0
 36 10  1  0
 36 37  1  0
 36 46  1  0
 37 40  1  0
 38 42  1  0
 38 37  1  0
 39 38  2  0
 42 41  1  0
 44 42  1  0
 44 45  1  0
 44 43  1  0
 46 49  1  1
 46 47  1  0
 48 46  1  0
 50 53  1  0
 50  7  1  0
 51 56  1  0
 53 54  1  0
 53 51  2  0
 54 55  2  0
 55 67  1  0
 55 52  1  0
 56 52  2  0
 56 58  1  0
 57 54  1  0
 59 67  1  0
 60 65  1  0
 61 62  1  0
 61 60  1  0
 63 62  1  0
 63 72  1  0
 63 64  1  0
 65 59  1  0
 65 64  1  0
 66 59  2  0
 67 68  1  0
 69 70  2  0
 70 89  1  0
 71 70  1  0
 71 74  1  0
 72 73  1  0
 72 69  1  0
 73 71  2  0
 74 75  1  0
 75 76  2  0
 77 80  1  0
 77 76  1  0
 78 77  2  0
 79 78  1  0
 79 74  2  0
 80 81  1  0
 81 86  2  0
 81 82  1  0
 82 83  2  0
 83 84  1  0
 84 88  1  0
 85 84  2  0
 86 85  1  0
 87 86  1  0
 89 90  1  0
 90 93  1  0
 90 92  1  0
 91 89  2  0
 94 69  1  0
 94 95  1  0
 96 94  1  0
M  ISO  4   6 101   9 101  59 100  67 100
M  END
>  <TORSDO>  (78) 
F 18

>  <SCORE>  (78) 
-14.426

>  <name>  (78) 
77

>  <ligand_id>  (78) 
77

>  <original_smiles>  (78) 
[H]C([H])=C1C([H])([H])C([H])(Oc2c([H])c([H])c3c(c2[H])C([H])([H])N(C(=O)C([H])(N([H])C(=O)C([H])(N([H])C([H])([H])[H])C([H])([H])[H])C(C([H])([H])[H])(C([H])([H])[H])C([H])([H])[H])C([H])(C(=O)N([H])C2([H])c4c([H])c([H])c([H])c([H])c4C([H])([H])C([H])([H])C2([H])[H])C3([H])[H])C([H])([H])C([H])([H])[N+]1([H])C([H])([H])c1c([H])c(Cl)c([H])c(N([H])C(=O)N2C([H])([H])C([H])([H])C([H])([H])C([H])(n3nc(-c4c([H])c([H])c(Oc5c([H])c([H])c(F)c([H])c5F)c([H])c4[H])c(C(=O)N([H])[H])c3N([H])[H])C2([H])[H])c1C([H])([H])[H]

>  <smiles>  (78) 
[H]C([H])=C1C([H])([H])C([H])(Oc2c([H])c([H])c3c(c2[H])C([H])([H])N(C(=O)C([H])(N([H])C(=O)C([H])(N([H])C([H])([H])[H])C([H])([H])[H])C(C([H])([H])[H])(C([H])([H])[H])C([H])([H])[H])C([H])(C(=O)N([H])C2([H])c4c([H])c([H])c([H])c([H])c4C([H])([H])C([H])([H])C2([H])[H])C3([H])[H])C([H])([H])C([H])([H])[N+]1([H])C([H])([H])c1c([H])c(Cl)c([H])c(N([H])C(=O)N2C([H])([H])C([H])([H])C([H])([H])C([H])(n3nc(-c4c([H])c([H])c(Oc5c([H])c([H])c(F)c([H])c5F)c([H])c4[H])c(C(=O)N([H])[H])c3N([H])[H])C2([H])[H])c1C([H])([H])[H]

$$$$
78:0:0
     RDKit          3D

102111  0  0  1  0  0  0  0  0999 V2000
  -33.4140  -23.1550   20.7020 C   0  0  0  0  0  3  0  0  0  0  0  0
  -32.4250  -22.1720   20.5220 C   0  0  0  0  0  3  0  0  0  0  0  0
  -33.1030  -24.5110   20.4980 C   0  0  0  0  0  3  0  0  0  0  0  0
  -30.8040  -23.9000   19.9650 C   0  0  0  0  0  3  0  0  0  0  0  0
  -31.1090  -22.5360   20.1540 C   0  0  0  0  0  0  0  0  0  0  0  0
  -31.7950  -24.8890   20.1260 C   0  0  0  0  0  0  0  0  0  0  0  0
  -30.0660  -21.5420   19.8720 C   0  0  0  0  0  3  0  0  0  0  0  0
  -30.2770  -20.2450   19.5860 C   0  0  0  0  0  3  0  0  0  0  0  0
  -27.3670  -17.3660   18.2530 C   0  0  0  0  0  3  0  0  0  0  0  0
  -27.3210  -18.6790   17.7640 C   0  0  0  0  0  3  0  0  0  0  0  0
  -28.3280  -17.0210   19.2130 C   0  0  0  0  0  3  0  0  0  0  0  0
  -29.2420  -19.2820   19.1800 C   0  0  0  0  0  0  0  0  0  0  0  0
  -28.2650  -19.6320   18.1980 C   0  0  0  0  0  0  0  0  0  0  0  0
  -29.2410  -17.9660   19.7190 C   0  0  0  0  0  0  0  0  0  0  0  0
  -28.2140  -21.0090   17.5510 C   0  0  0  0  0  1  0  0  0  0  0  0
  -31.7530  -17.7080   20.7020 O   0  0  0  0  0  0  0  0  0  0  0  0
  -29.8530  -18.1550   22.3100 O   0  0  0  0  0  0  0  0  0  0  0  0
  -30.3510  -17.4870   21.0930 S   0  0  1  0  0  0  0  0  0  0  0  0
  -30.7880  -14.7660   20.6980 C   0  0  0  0  0  0  0  0  0  0  0  0
  -30.5270  -12.6650   19.4440 C   0  0  0  0  0  2  0  0  0  0  0  0
  -29.5980  -12.9040   18.2360 C   0  0  0  0  0  2  0  0  0  0  0  0
  -28.1200  -12.7080   18.6300 C   0  0  0  0  0  2  0  0  0  0  0  0
  -27.7350  -13.4530   19.9340 C   0  0  0  0  0  3  0  0  0  0  0  0
  -28.7940  -13.2490   21.0460 C   0  0  0  0  0  2  0  0  0  0  0  0
  -30.1220  -13.5940   20.5080 N   0  0  0  0  0  0  0  0  0  0  0  0
  -31.8860  -14.9920   20.1870 O   0  0  0  0  0  0  0  0  0  0  0  0
  -30.1100  -15.7890   21.3600 N   0  0  0  0  0  0  0  0  0  0  0  0
  -29.1710  -15.6150   21.7030 H   0  0  0  0  0  0  0  0  0  0  0  0
  -25.2940  -13.9490   20.5590 C   0  0  0  0  0  0  0  0  0  0  0  0
  -24.2560  -13.1290   20.9060 C   0  0  0  0  0  0  0  0  0  0  0  0
  -24.7850  -11.8020   20.8970 C   0  0  0  0  0  0  0  0  0  0  0  0
  -26.3890  -13.1160   20.3760 N   0  0  0  0  0  0  0  0  0  0  0  0
  -26.0850  -11.8210   20.6320 N   0  0  0  0  0  0  0  0  0  0  0  0
  -24.1200  -10.5070   21.0720 C   0  0  0  0  0  0  0  0  0  0  0  0
  -24.5300   -9.6000   22.0730 C   0  0  0  0  0  3  0  0  0  0  0  0
  -23.8650   -8.3670   22.2350 C   0  0  0  0  0  3  0  0  0  0  0  0
  -22.7780   -8.0320   21.3940 C   0  0  0  0  0  0  0  0  0  0  0  0
  -22.3890   -8.9300   20.3820 C   0  0  0  0  0  3  0  0  0  0  0  0
  -23.0540  -10.1550   20.2200 C   0  0  0  0  0  3  0  0  0  0  0  0
  -22.0870   -6.8480   21.4610 O   0  0  0  0  0  0  0  0  0  0  0  0
  -21.9220   -6.1780   22.6480 C   0  0  0  0  0  0  0  0  0  0  0  0
  -21.2830   -6.7770   23.7550 C   0  0  0  0  0  3  0  0  0  0  0  0
  -21.0700   -6.0310   24.9320 C   0  0  0  0  0  3  0  0  0  0  0  0
  -21.4870   -4.6880   24.9990 C   0  0  0  0  0  0  0  0  0  0  0  0
  -22.1200   -4.0890   23.8950 C   0  0  0  0  0  3  0  0  0  0  0  0
  -22.3340   -4.8330   22.7220 C   0  0  0  0  0  0  0  0  0  0  0  0
  -22.9260   -4.2460   21.6530 F   0  0  0  0  0  0  0  0  0  0  0  0
  -21.2750   -3.9690   26.1260 F   0  0  0  0  0  0  0  0  0  0  0  0
  -22.8310  -13.5390   21.1330 C   0  0  0  0  0  0  0  0  0  0  0  0
  -22.1170  -12.8250   21.9960 N   0  0  0  0  0  0  0  0  0  0  0  0
  -22.3550  -14.5300   20.5800 O   0  0  0  0  0  0  0  0  0  0  0  0
  -22.5120  -12.0310   22.4780 H   0  0  0  0  0  0  0  0  0  0  0  0
  -21.1580  -13.0830   22.1850 H   0  0  0  0  0  0  0  0  0  0  0  0
  -25.3940  -15.3240   20.3600 N   0  0  0  0  0  0  0  0  0  0  0  0
  -24.5750  -15.9220   20.3680 H   0  0  0  0  0  0  0  0  0  0  0  0
  -26.2060  -15.7830   19.9680 H   0  0  0  0  0  0  0  0  0  0  0  0
  -31.4360  -26.3550   19.9480 C   0  0  0  0  0  2  0  0  0  0  0  0
  -29.4390  -27.0300   21.3670 C   0  0  0  0  0  0  0  0  0  0  0  0
  -31.7290  -27.2000   22.2710 C   0  0  0  0  0  1  0  0  0  0  0  0
  -30.8160  -26.8910   21.1650 N   0  0  0  0  0  0  0  0  0  0  0  0
  -28.9190  -27.2400   22.4700 O   0  0  0  0  0  0  0  0  0  0  0  0
  -28.7390  -27.0330   20.1880 O   0  0  0  0  0  0  0  0  0  0  0  0
  -24.5510  -31.8670   23.2370 C   0  0  0  0  0  0  0  0  0  0  0  0
  -27.5240  -27.6870   20.1480 C   0  0  0  0  0  0  0  0  0  0  0  0
  -23.4530  -30.4320   21.5400 C   0  0  0  0  0  3  0  0  0  0  0  0
  -25.0230  -29.0050   20.1160 C   0  0  0  0  0  0  0  0  0  0  0  0
  -25.9440  -30.9610   21.3860 C   0  0  0  0  0  2  0  0  0  0  0  0
  -26.1250  -29.6100   20.7290 C   0  0  0  0  0  0  0  0  0  0  0  0
  -27.3740  -28.9660   20.7330 C   0  0  0  0  0  3  0  0  0  0  0  0
  -26.4100  -27.0890   19.5220 C   0  0  0  0  0  3  0  0  0  0  0  0
  -25.1580  -27.7420   19.5070 C   0  0  0  0  0  3  0  0  0  0  0  0
  -23.7250  -29.7810   20.1540 C   0  0  0  0  0  2  0  0  0  0  0  0
  -24.6660  -31.0990   22.1170 N   0  0  0  0  0  0  0  0  0  0  0  0
  -23.4480  -32.0660   23.7640 O   0  0  0  0  0  0  0  0  0  0  0  0
  -22.8440  -29.3610   22.4700 C   0  0  0  0  0  0  0  0  0  0  0  0
  -21.5320  -29.1160   22.3160 N   0  0  0  0  0  0  0  0  0  0  0  0
  -23.5460  -28.7540   23.2820 O   0  0  0  0  0  0  0  0  0  0  0  0
  -21.0260  -29.6620   21.6330 H   0  0  0  0  0  0  0  0  0  0  0  0
  -18.2170  -27.7460   22.7150 C   0  0  0  0  0  0  0  0  0  0  0  0
  -20.7510  -28.1220   23.0490 C   0  0  0  0  0  3  0  0  0  0  0  0
  -20.9360  -26.7110   22.4420 C   0  0  0  0  0  2  0  0  0  0  0  0
  -19.8730  -26.3600   21.3970 C   0  0  0  0  0  2  0  0  0  0  0  0
  -18.4740  -26.4220   22.0150 C   0  0  0  0  0  2  0  0  0  0  0  0
  -19.2870  -28.5510   23.1870 C   0  0  0  0  0  0  0  0  0  0  0  0
  -18.9950  -29.7900   23.7970 C   0  0  0  0  0  3  0  0  0  0  0  0
  -17.6640  -30.2240   23.9440 C   0  0  0  0  0  3  0  0  0  0  0  0
  -16.6070  -29.4160   23.4920 C   0  0  0  0  0  3  0  0  0  0  0  0
  -16.8840  -28.1780   22.8830 C   0  0  0  0  0  3  0  0  0  0  0  0
  -25.7910  -32.5500   23.8970 C   0  0  0  0  0  3  0  0  0  0  0  0
  -25.4190  -33.9370   24.2060 N   0  0  0  0  0  0  0  0  0  0  0  0
  -25.7360  -34.9960   23.4480 C   0  0  0  0  0  0  0  0  0  0  0  0
  -26.4430  -34.9110   22.4400 O   0  0  0  0  0  0  0  0  0  0  0  0
  -24.7920  -34.0740   24.9850 H   0  0  0  0  0  0  0  0  0  0  0  0
  -23.9440  -36.7080   23.0280 C   0  0  0  0  0  1  0  0  0  0  0  0
  -25.1800  -36.3660   23.8760 C   0  0  0  0  0  3  0  0  0  0  0  0
  -27.2550  -37.3480   24.7480 C   0  0  0  0  0  1  0  0  0  0  0  0
  -26.1700  -37.4600   23.7760 N   0  0  0  0  0  0  0  0  0  0  0  0
  -25.7230  -38.3640   23.9030 H   0  0  0  0  0  0  0  0  0  0  0  0
  -26.3000  -31.8040   25.1900 C   0  0  1  0  0  0  0  0  0  0  0  0
  -25.1830  -31.5110   26.2180 C   0  0  0  0  0  1  0  0  0  0  0  0
  -26.9640  -30.4590   24.8140 C   0  0  0  0  0  1  0  0  0  0  0  0
  -27.3870  -32.6520   25.8940 C   0  0  0  0  0  1  0  0  0  0  0  0
  2  1  1  0
  3  1  2  0
  4  6  2  0
  4  5  1  0
  5  2  2  0
  6  3  1  0
  7  5  1  0
  8  7  2  0
  9 11  1  0
 10 13  1  0
 10  9  2  0
 11 14  2  0
 12  8  1  0
 12 14  1  0
 13 12  2  0
 14 18  1  0
 15 13  1  0
 16 18  2  0
 18 27  1  1
 18 17  2  0
 19 27  1  0
 20 25  1  0
 21 22  1  0
 21 20  1  0
 23 22  1  0
 23 32  1  0
 23 24  1  0
 25 19  1  0
 25 24  1  0
 26 19  2  0
 27 28  1  0
 29 30  2  0
 30 49  1  0
 31 30  1  0
 31 34  1  0
 32 29  1  0
 32 33  1  0
 33 31  2  0
 34 35  1  0
 35 36  2  0
 37 40  1  0
 37 36  1  0
 38 37  2  0
 39 38  1  0
 39 34  2  0
 40 41  1  0
 41 46  2  0
 41 42  1  0
 42 43  2  0
 43 44  1  0
 44 48  1  0
 45 44  2  0
 46 45  1  0
 47 46  1  0
 49 50  1  0
 50 53  1  0
 50 52  1  0
 51 49  2  0
 54 55  1  0
 54 29  1  0
 56 54  1  0
 57  6  1  0
 57 60  1  0
 58 61  2  0
 60 58  1  0
 60 59  1  0
 62 58  1  0
 63 74  2  0
 64 62  1  0
 64 69  1  0
 65 73  1  0
 65 75  1  0
 66 72  1  0
 66 68  1  0
 67 73  1  0
 68 69  2  0
 68 67  1  0
 70 64  2  0
 71 70  1  0
 71 66  2  0
 72 65  1  0
 73 63  1  0
 75 77  2  0
 76 75  1  0
 78 76  1  0
 79 88  2  0
 79 84  1  0
 80 76  1  0
 80 84  1  0
 81 80  1  0
 82 83  1  0
 82 81  1  0
 83 79  1  0
 84 85  2  0
 85 86  1  0
 87 86  2  0
 88 87  1  0
 89 63  1  0
 89 90  1  0
 89 99  1  0
 90 93  1  0
 91 95  1  0
 91 90  1  0
 92 91  2  0
 95 94  1  0
 97 95  1  0
 97 98  1  0
 97 96  1  0
 99102  1  1
 99100  1  0
101 99  1  0
M  ISO  4  19 100  27 100  58 101  62 101
M  END
>  <TORSDO>  (79) 
F 21

>  <SCORE>  (79) 
-11.838

>  <name>  (79) 
78

>  <ligand_id>  (79) 
78

>  <original_smiles>  (79) 
[H]C(=C([H])c1c(C([H])([H])[H])c([H])c([H])c([H])c1S(=O)(=O)N([H])C(=O)N1C([H])([H])C([H])([H])C([H])([H])C([H])(n2nc(-c3c([H])c([H])c(Oc4c([H])c([H])c(F)c([H])c4F)c([H])c3[H])c(C(=O)N([H])[H])c2N([H])[H])C1([H])[H])c1c([H])c([H])c([H])c(C([H])([H])N(C(=O)Oc2c([H])c([H])c3c(c2[H])C([H])([H])N(C(=O)C([H])(N([H])C(=O)C([H])(N([H])C([H])([H])[H])C([H])([H])[H])C(C([H])([H])[H])(C([H])([H])[H])C([H])([H])[H])C([H])(C(=O)N([H])C2([H])c4c([H])c([H])c([H])c([H])c4C([H])([H])C([H])([H])C2([H])[H])C3([H])[H])C([H])([H])[H])c1[H]

>  <smiles>  (79) 
[H]C(=C([H])c1c(C([H])([H])[H])c([H])c([H])c([H])c1S(=O)(=O)N([H])C(=O)N1C([H])([H])C([H])([H])C([H])([H])C([H])(n2nc(-c3c([H])c([H])c(Oc4c([H])c([H])c(F)c([H])c4F)c([H])c3[H])c(C(=O)N([H])[H])c2N([H])[H])C1([H])[H])c1c([H])c([H])c([H])c(C([H])([H])N(C(=O)Oc2c([H])c([H])c3c(c2[H])C([H])([H])N(C(=O)C([H])(N([H])C(=O)C([H])(N([H])C([H])([H])[H])C([H])([H])[H])C(C([H])([H])[H])(C([H])([H])[H])C([H])([H])[H])C([H])(C(=O)N([H])C2([H])c4c([H])c([H])c([H])c([H])c4C([H])([H])C([H])([H])C2([H])[H])C3([H])[H])C([H])([H])[H])c1[H]

$$$$
79:0:0
     RDKit          3D

 93101  0  0  1  0  0  0  0  0999 V2000
  -29.7190  -21.5760   19.7260 C   0  0  0  0  0  2  0  0  0  0  0  0
  -30.9970  -17.9130   20.5660 C   0  0  0  0  0  3  0  0  0  0  0  0
  -28.6110  -17.8390   20.3200 C   0  0  0  0  0  3  0  0  0  0  0  0
  -30.9650  -19.3360   20.3970 C   0  0  0  0  0  0  0  0  0  0  0  0
  -29.7450  -20.0460   20.1480 C   0  0  0  0  0  0  0  0  0  0  0  0
  -29.8220  -17.1220   20.5150 C   0  0  0  0  0  0  0  0  0  0  0  0
  -28.5710  -19.2500   20.1210 C   0  0  0  0  0  0  0  0  0  0  0  0
  -32.2910  -20.0770   20.4590 C   0  0  0  0  0  1  0  0  0  0  0  0
  -27.3780  -19.8360   19.8590 F   0  0  0  0  0  0  0  0  0  0  0  0
  -30.5920  -14.6440   20.3030 C   0  0  0  0  0  0  0  0  0  0  0  0
  -30.3810  -12.4270   19.1940 C   0  0  0  0  0  2  0  0  0  0  0  0
  -29.4190  -12.5850   17.9950 C   0  0  0  0  0  2  0  0  0  0  0  0
  -27.9510  -12.4190   18.4380 C   0  0  0  0  0  2  0  0  0  0  0  0
  -27.6110  -13.2560   19.6990 C   0  0  0  0  0  3  0  0  0  0  0  0
  -28.6820  -13.0630   20.7970 C   0  0  0  0  0  2  0  0  0  0  0  0
  -29.9870  -13.4170   20.2140 N   0  0  0  0  0  0  0  0  0  0  0  0
  -31.7470  -14.8230   19.9020 O   0  0  0  0  0  0  0  0  0  0  0  0
  -29.7700  -15.6690   20.6930 N   0  0  0  0  0  0  0  0  0  0  0  0
  -28.8680  -15.3200   20.9800 H   0  0  0  0  0  0  0  0  0  0  0  0
  -25.2190  -13.8530   20.4290 C   0  0  0  0  0  0  0  0  0  0  0  0
  -24.1580  -13.0790   20.8120 C   0  0  0  0  0  0  0  0  0  0  0  0
  -24.6240  -11.7290   20.7830 C   0  0  0  0  0  0  0  0  0  0  0  0
  -26.2660  -12.9740   20.1920 N   0  0  0  0  0  0  0  0  0  0  0  0
  -25.9130  -11.6910   20.4640 N   0  0  0  0  0  0  0  0  0  0  0  0
  -23.9040  -10.4640   20.9820 C   0  0  0  0  0  0  0  0  0  0  0  0
  -24.3390   -9.5070   21.9250 C   0  0  0  0  0  3  0  0  0  0  0  0
  -23.6190   -8.3080   22.1110 C   0  0  0  0  0  3  0  0  0  0  0  0
  -22.4500   -8.0570   21.3540 C   0  0  0  0  0  0  0  0  0  0  0  0
  -22.0340   -9.0030   20.4020 C   0  0  0  0  0  3  0  0  0  0  0  0
  -22.7550  -10.1940   20.2120 C   0  0  0  0  0  3  0  0  0  0  0  0
  -21.7010   -6.9090   21.4500 O   0  0  0  0  0  0  0  0  0  0  0  0
  -21.6460   -6.1800   22.6120 C   0  0  0  0  0  0  0  0  0  0  0  0
  -21.1920   -6.7440   23.8240 C   0  0  0  0  0  3  0  0  0  0  0  0
  -21.0860   -5.9410   24.9780 C   0  0  0  0  0  3  0  0  0  0  0  0
  -21.4220   -4.5760   24.9190 C   0  0  0  0  0  0  0  0  0  0  0  0
  -21.8690   -4.0120   23.7110 C   0  0  0  0  0  3  0  0  0  0  0  0
  -21.9770   -4.8110   22.5590 C   0  0  0  0  0  0  0  0  0  0  0  0
  -22.3880   -4.2580   21.3930 F   0  0  0  0  0  0  0  0  0  0  0  0
  -21.3130   -3.8020   26.0240 F   0  0  0  0  0  0  0  0  0  0  0  0
  -22.7610  -13.5520   21.0920 C   0  0  0  0  0  0  0  0  0  0  0  0
  -22.0400  -12.8540   21.9620 N   0  0  0  0  0  0  0  0  0  0  0  0
  -22.3180  -14.5760   20.5730 O   0  0  0  0  0  0  0  0  0  0  0  0
  -22.4120  -12.0250   22.4030 H   0  0  0  0  0  0  0  0  0  0  0  0
  -21.1030  -13.1530   22.1920 H   0  0  0  0  0  0  0  0  0  0  0  0
  -25.3770  -15.2220   20.2390 N   0  0  0  0  0  0  0  0  0  0  0  0
  -24.5940  -15.8620   20.3220 H   0  0  0  0  0  0  0  0  0  0  0  0
  -26.1920  -15.6450   19.8160 H   0  0  0  0  0  0  0  0  0  0  0  0
  -29.0030  -23.9890   20.0160 C   0  0  0  0  0  0  0  0  0  0  0  0
  -28.3070  -22.2900   21.7070 C   0  0  0  0  0  1  0  0  0  0  0  0
  -29.0080  -22.6790   20.4800 N   0  0  0  0  0  0  0  0  0  0  0  0
  -29.6190  -24.2890   18.9880 O   0  0  0  0  0  0  0  0  0  0  0  0
  -28.2130  -25.1480   20.7490 C   0  0  0  0  0  2  0  0  0  0  0  0
  -28.3960  -26.5140   20.2020 O   0  0  0  0  0  0  0  0  0  0  0  0
  -24.6290  -31.8670   23.2390 C   0  0  0  0  0  0  0  0  0  0  0  0
  -27.2730  -27.3450   20.1860 C   0  0  0  0  0  0  0  0  0  0  0  0
  -23.4350  -30.4710   21.5860 C   0  0  0  0  0  3  0  0  0  0  0  0
  -24.8980  -28.9280   20.1650 C   0  0  0  0  0  0  0  0  0  0  0  0
  -25.9720  -30.8050   21.4120 C   0  0  0  0  0  2  0  0  0  0  0  0
  -26.0610  -29.4280   20.7650 C   0  0  0  0  0  0  0  0  0  0  0  0
  -27.2540  -28.6490   20.7640 C   0  0  0  0  0  3  0  0  0  0  0  0
  -26.0920  -26.8910   19.5600 C   0  0  0  0  0  3  0  0  0  0  0  0
  -24.9140  -27.6640   19.5530 C   0  0  0  0  0  3  0  0  0  0  0  0
  -23.6570  -29.7950   20.2070 C   0  0  0  0  0  2  0  0  0  0  0  0
  -24.6970  -31.0630   22.1370 N   0  0  0  0  0  0  0  0  0  0  0  0
  -23.5440  -32.1390   23.7710 O   0  0  0  0  0  0  0  0  0  0  0  0
  -22.7720  -29.4500   22.5410 C   0  0  0  0  0  0  0  0  0  0  0  0
  -21.4470  -29.2720   22.4090 N   0  0  0  0  0  0  0  0  0  0  0  0
  -23.4490  -28.8200   23.3590 O   0  0  0  0  0  0  0  0  0  0  0  0
  -20.9600  -29.8320   21.7220 H   0  0  0  0  0  0  0  0  0  0  0  0
  -18.0670  -28.0780   22.8940 C   0  0  0  0  0  0  0  0  0  0  0  0
  -20.6250  -28.3310   23.1720 C   0  0  0  0  0  3  0  0  0  0  0  0
  -20.7270  -26.9020   22.5900 C   0  0  0  0  0  2  0  0  0  0  0  0
  -19.6280  -26.5860   21.5710 C   0  0  0  0  0  2  0  0  0  0  0  0
  -18.2440  -26.7310   22.2110 C   0  0  0  0  0  2  0  0  0  0  0  0
  -19.1870  -28.8350   23.3300 C   0  0  0  0  0  0  0  0  0  0  0  0
  -18.9670  -30.0950   23.9280 C   0  0  0  0  0  3  0  0  0  0  0  0
  -17.6630  -30.5980   24.0920 C   0  0  0  0  0  3  0  0  0  0  0  0
  -16.5590  -29.8370   23.6720 C   0  0  0  0  0  3  0  0  0  0  0  0
  -16.7620  -28.5780   23.0780 C   0  0  0  0  0  3  0  0  0  0  0  0
  -25.9080  -32.4990   23.8680 C   0  0  0  0  0  3  0  0  0  0  0  0
  -26.4130  -31.7310   25.1530 C   0  0  1  0  0  0  0  0  0  0  0  0
  -25.3110  -31.5000   26.2110 C   0  0  0  0  0  1  0  0  0  0  0  0
  -26.9970  -30.3520   24.7700 C   0  0  0  0  0  1  0  0  0  0  0  0
  -27.5600  -32.5260   25.8210 C   0  0  0  0  0  1  0  0  0  0  0  0
  -25.6000  -33.8990   24.1910 N   0  0  0  0  0  0  0  0  0  0  0  0
  -25.9390  -34.9480   23.4300 C   0  0  0  0  0  0  0  0  0  0  0  0
  -26.6140  -34.8390   22.4030 O   0  0  0  0  0  0  0  0  0  0  0  0
  -25.0030  -34.0580   24.9900 H   0  0  0  0  0  0  0  0  0  0  0  0
  -24.2190  -36.7440   23.0540 C   0  0  0  0  0  1  0  0  0  0  0  0
  -25.4510  -36.3390   23.8780 C   0  0  0  0  0  3  0  0  0  0  0  0
  -27.5770  -37.2220   24.7300 C   0  0  0  0  0  1  0  0  0  0  0  0
  -26.4880  -37.3900   23.7720 N   0  0  0  0  0  0  0  0  0  0  0  0
  -26.0820  -38.3110   23.9110 H   0  0  0  0  0  0  0  0  0  0  0  0
  1  5  1  0
  1 50  1  0
  3  6  2  0
  4  8  1  0
  4  2  2  0
  5  4  1  0
  6  2  1  0
  6 18  1  0
  7  5  2  0
  7  3  1  0
  9  7  1  0
 10 18  1  0
 11 16  1  0
 12 13  1  0
 12 11  1  0
 14 13  1  0
 14 23  1  0
 14 15  1  0
 16 10  1  0
 16 15  1  0
 17 10  2  0
 18 19  1  0
 20 21  2  0
 21 40  1  0
 22 21  1  0
 22 25  1  0
 23 20  1  0
 23 24  1  0
 24 22  2  0
 25 26  1  0
 26 27  2  0
 28 31  1  0
 28 27  1  0
 29 28  2  0
 30 29  1  0
 30 25  2  0
 31 32  1  0
 32 33  1  0
 33 34  2  0
 35 34  1  0
 35 39  1  0
 36 35  2  0
 37 32  2  0
 37 36  1  0
 38 37  1  0
 40 41  1  0
 41 44  1  0
 41 43  1  0
 42 40  2  0
 45 46  1  0
 45 20  1  0
 47 45  1  0
 48 50  1  0
 48 52  1  0
 50 49  1  0
 51 48  2  0
 53 52  1  0
 54 65  2  0
 55 53  1  0
 55 60  1  0
 56 64  1  0
 56 66  1  0
 57 63  1  0
 57 59  1  0
 58 64  1  0
 59 58  1  0
 60 59  2  0
 61 55  2  0
 62 61  1  0
 62 57  2  0
 63 56  1  0
 64 54  1  0
 66 68  2  0
 67 66  1  0
 69 67  1  0
 70 79  2  0
 70 75  1  0
 71 67  1  0
 71 75  1  0
 72 71  1  0
 73 74  1  0
 73 72  1  0
 74 70  1  0
 75 76  2  0
 76 77  1  0
 78 77  2  0
 79 78  1  0
 80 54  1  0
 80 85  1  0
 80 81  1  0
 81 84  1  1
 81 82  1  0
 83 81  1  0
 85 88  1  0
 86 90  1  0
 86 85  1  0
 87 86  2  0
 90 89  1  0
 92 90  1  0
 92 93  1  0
 92 91  1  0
M  ISO  4  10 100  18 100  52 101  53 101
M  END
>  <TORSDO>  (80) 
F 19

>  <SCORE>  (80) 
-14.547

>  <name>  (80) 
79

>  <ligand_id>  (80) 
79

>  <original_smiles>  (80) 
[H]c1c([H])c([H])c2c(c1[H])C([H])([H])C([H])([H])C([H])([H])C2([H])N([H])C(=O)C1([H])N(C(=O)C([H])(N([H])C(=O)C([H])(N([H])C([H])([H])[H])C([H])([H])[H])C(C([H])([H])[H])(C([H])([H])[H])C([H])([H])[H])C([H])([H])c2c([H])c(OC([H])([H])C(=O)N(C([H])([H])[H])C([H])([H])c3c(F)c([H])c(N([H])C(=O)N4C([H])([H])C([H])([H])C([H])([H])C([H])(n5nc(-c6c([H])c([H])c(Oc7c([H])c([H])c(F)c([H])c7F)c([H])c6[H])c(C(=O)N([H])[H])c5N([H])[H])C4([H])[H])c([H])c3C([H])([H])[H])c([H])c([H])c2C1([H])[H]

>  <smiles>  (80) 
[H]c1c([H])c([H])c2c(c1[H])C([H])([H])C([H])([H])C([H])([H])C2([H])N([H])C(=O)C1([H])N(C(=O)C([H])(N([H])C(=O)C([H])(N([H])C([H])([H])[H])C([H])([H])[H])C(C([H])([H])[H])(C([H])([H])[H])C([H])([H])[H])C([H])([H])c2c([H])c(OC([H])([H])C(=O)N(C([H])([H])[H])C([H])([H])c3c(F)c([H])c(N([H])C(=O)N4C([H])([H])C([H])([H])C([H])([H])C([H])(n5nc(-c6c([H])c([H])c(Oc7c([H])c([H])c(F)c([H])c7F)c([H])c6[H])c(C(=O)N([H])[H])c5N([H])[H])C4([H])[H])c([H])c3C([H])([H])[H])c([H])c([H])c2C1([H])[H]

$$$$
80:0:0
     RDKit          3D

 92100  0  0  1  0  0  0  0  0999 V2000
  -27.4120  -17.3660   20.6560 C   0  0  0  0  0  3  0  0  0  0  0  0
  -28.6640  -16.7940   20.4300 C   0  0  0  0  0  3  0  0  0  0  0  0
  -26.9570  -18.3670   19.8050 C   0  0  0  0  0  3  0  0  0  0  0  0
  -29.0410  -18.2320   18.4440 C   0  0  0  0  0  0  0  0  0  0  0  0
  -29.4930  -17.1520   19.3300 C   0  0  0  0  0  0  0  0  0  0  0  0
  -27.7530  -18.8180   18.7420 C   0  0  0  0  0  0  0  0  0  0  0  0
  -27.0430  -20.1770   17.9200 Cl  0  0  0  0  0  0  0  0  0  0  0  0
  -29.8390  -18.8510   17.2920 C   0  0  0  0  0  3  0  0  0  0  0  0
  -29.4300  -19.8110   16.5130 N   0  0  0  0  0  0  0  0  0  0  0  0
  -30.3540  -20.6350   15.7020 C   0  0  0  0  0  2  0  0  0  0  0  0
  -29.8650  -22.1260   15.4250 C   0  0  0  0  0  3  0  0  0  0  0  0
  -29.9290  -23.1690   16.6130 C   0  0  0  0  0  3  0  0  0  0  0  0
  -29.8650  -24.5980   16.3040 O   0  0  0  0  0  0  0  0  0  0  0  0
  -24.2340  -26.9210   20.1280 C   0  0  0  0  0  0  0  0  0  0  0  0
  -28.6340  -25.2390   16.3340 C   0  0  0  0  0  0  0  0  0  0  0  0
  -23.9870  -26.9650   17.6670 C   0  0  0  0  0  3  0  0  0  0  0  0
  -26.1290  -26.5850   16.3260 C   0  0  0  0  0  0  0  0  0  0  0  0
  -26.3010  -27.1920   18.7430 C   0  0  0  0  0  2  0  0  0  0  0  0
  -26.8840  -26.5340   17.5040 C   0  0  0  0  0  0  0  0  0  0  0  0
  -28.1450  -25.8770   17.5090 C   0  0  0  0  0  3  0  0  0  0  0  0
  -27.8570  -25.3140   15.1610 C   0  0  0  0  0  3  0  0  0  0  0  0
  -26.6150  -25.9810   15.1520 C   0  0  0  0  0  3  0  0  0  0  0  0
  -24.7990  -27.3050   16.3880 C   0  0  0  0  0  2  0  0  0  0  0  0
  -24.8330  -27.0010   18.9050 N   0  0  0  0  0  0  0  0  0  0  0  0
  -23.0010  -26.8560   20.2370 O   0  0  0  0  0  0  0  0  0  0  0  0
  -23.2680  -25.6130   17.4580 C   0  0  0  0  0  0  0  0  0  0  0  0
  -22.2190  -25.6120   16.6180 N   0  0  0  0  0  0  0  0  0  0  0  0
  -23.6710  -24.5920   18.0200 O   0  0  0  0  0  0  0  0  0  0  0  0
  -21.9460  -26.4920   16.2010 H   0  0  0  0  0  0  0  0  0  0  0  0
  -19.4800  -24.5070   14.5330 C   0  0  0  0  0  0  0  0  0  0  0  0
  -21.4220  -24.4450   16.2390 C   0  0  0  0  0  3  0  0  0  0  0  0
  -22.1710  -23.5770   15.2020 C   0  0  0  0  0  2  0  0  0  0  0  0
  -21.8180  -23.9280   13.7540 C   0  0  0  0  0  2  0  0  0  0  0  0
  -20.3160  -23.7560   13.5090 C   0  0  0  0  0  2  0  0  0  0  0  0
  -20.0060  -24.8440   15.8090 C   0  0  0  0  0  0  0  0  0  0  0  0
  -19.1990  -25.5720   16.7110 C   0  0  0  0  0  3  0  0  0  0  0  0
  -17.8930  -25.9580   16.3600 C   0  0  0  0  0  3  0  0  0  0  0  0
  -17.3720  -25.6090   15.1020 C   0  0  0  0  0  3  0  0  0  0  0  0
  -18.1630  -24.8830   14.1940 C   0  0  0  0  0  3  0  0  0  0  0  0
  -25.0650  -26.9320   21.4480 C   0  0  0  0  0  3  0  0  0  0  0  0
  -24.3020  -27.6920   22.4480 N   0  0  0  0  0  0  0  0  0  0  0  0
  -24.5440  -28.9670   22.7840 C   0  0  0  0  0  0  0  0  0  0  0  0
  -25.4940  -29.6090   22.3280 O   0  0  0  0  0  0  0  0  0  0  0  0
  -23.4800  -27.2440   22.8240 H   0  0  0  0  0  0  0  0  0  0  0  0
  -22.5770  -30.5130   23.0270 C   0  0  0  0  0  1  0  0  0  0  0  0
  -23.5820  -29.6330   23.7880 C   0  0  0  0  0  3  0  0  0  0  0  0
  -25.0370  -29.6330   25.7660 C   0  0  0  0  0  1  0  0  0  0  0  0
  -24.2720  -30.4400   24.8180 N   0  0  0  0  0  0  0  0  0  0  0  0
  -23.6050  -31.0010   25.3430 H   0  0  0  0  0  0  0  0  0  0  0  0
  -25.3950  -25.4850   21.9860 C   0  0  1  0  0  0  0  0  0  0  0  0
  -24.1560  -24.5680   22.1040 C   0  0  0  0  0  1  0  0  0  0  0  0
  -26.4160  -24.7830   21.0620 C   0  0  0  0  0  1  0  0  0  0  0  0
  -26.0520  -25.5810   23.3830 C   0  0  0  0  0  1  0  0  0  0  0  0
  -30.8200  -16.3140   19.2350 C   0  0  0  0  0  2  0  0  0  0  0  0
  -31.6320  -13.9890   20.2360 C   0  0  0  0  0  0  0  0  0  0  0  0
  -31.5810  -11.5070   20.3770 C   0  0  0  0  0  2  0  0  0  0  0  0
  -30.7840  -10.9750   19.1650 C   0  0  0  0  0  2  0  0  0  0  0  0
  -29.2670  -10.9690   19.4480 C   0  0  0  0  0  2  0  0  0  0  0  0
  -28.7670  -12.3020   20.0610 C   0  0  0  0  0  3  0  0  0  0  0  0
  -29.6790  -12.7420   21.2290 C   0  0  0  0  0  2  0  0  0  0  0  0
  -31.0520  -12.8440   20.7030 N   0  0  0  0  0  0  0  0  0  0  0  0
  -32.8320  -14.0520   19.9500 O   0  0  0  0  0  0  0  0  0  0  0  0
  -30.7420  -14.9700   19.9140 N   0  0  0  0  0  0  0  0  0  0  0  0
  -29.8010  -14.7070   20.1580 H   0  0  0  0  0  0  0  0  0  0  0  0
  -26.4400  -13.2510   20.6020 C   0  0  0  0  0  0  0  0  0  0  0  0
  -25.2530  -12.6470   20.9190 C   0  0  0  0  0  0  0  0  0  0  0  0
  -25.5240  -11.2450   20.9500 C   0  0  0  0  0  0  0  0  0  0  0  0
  -27.3640  -12.2280   20.4600 N   0  0  0  0  0  0  0  0  0  0  0  0
  -26.8140  -11.0170   20.7250 N   0  0  0  0  0  0  0  0  0  0  0  0
  -24.6210  -10.1010   21.1210 C   0  0  0  0  0  0  0  0  0  0  0  0
  -24.8650   -9.1040   22.0910 C   0  0  0  0  0  3  0  0  0  0  0  0
  -23.9710   -8.0220   22.2470 C   0  0  0  0  0  3  0  0  0  0  0  0
  -22.8180   -7.9330   21.4320 C   0  0  0  0  0  0  0  0  0  0  0  0
  -22.5950   -8.9150   20.4510 C   0  0  0  0  0  3  0  0  0  0  0  0
  -23.4870   -9.9870   20.2920 C   0  0  0  0  0  3  0  0  0  0  0  0
  -21.9060   -6.9070   21.4930 O   0  0  0  0  0  0  0  0  0  0  0  0
  -21.7050   -6.1920   22.6450 C   0  0  0  0  0  0  0  0  0  0  0  0
  -21.2820   -6.8110   23.8420 C   0  0  0  0  0  3  0  0  0  0  0  0
  -21.0210   -6.0270   24.9850 C   0  0  0  0  0  3  0  0  0  0  0  0
  -21.1770   -4.6280   24.9300 C   0  0  0  0  0  0  0  0  0  0  0  0
  -21.5930   -4.0130   23.7380 C   0  0  0  0  0  3  0  0  0  0  0  0
  -21.8550   -4.7930   22.5980 C   0  0  0  0  0  0  0  0  0  0  0  0
  -22.2350   -4.1910   21.4440 F   0  0  0  0  0  0  0  0  0  0  0  0
  -20.9230   -3.8740   26.0260 F   0  0  0  0  0  0  0  0  0  0  0  0
  -23.9220  -13.3210   21.0900 C   0  0  0  0  0  0  0  0  0  0  0  0
  -23.0580  -12.7660   21.9330 N   0  0  0  0  0  0  0  0  0  0  0  0
  -23.6590  -14.3760   20.5100 O   0  0  0  0  0  0  0  0  0  0  0  0
  -23.2790  -11.9100   22.4180 H   0  0  0  0  0  0  0  0  0  0  0  0
  -22.1600  -13.2020   22.0860 H   0  0  0  0  0  0  0  0  0  0  0  0
  -26.7980  -14.5810   20.4050 N   0  0  0  0  0  0  0  0  0  0  0  0
  -26.1150  -15.3270   20.4740 H   0  0  0  0  0  0  0  0  0  0  0  0
  -27.7150  -14.9090   20.1340 H   0  0  0  0  0  0  0  0  0  0  0  0
  2  1  1  0
  3  1  2  0
  4  6  2  0
  4  5  1  0
  5  2  2  0
  6  3  1  0
  7  6  1  0
  8  4  1  0
  9  8  2  0
 10  9  1  0
 11 10  1  0
 11 12  2  0
 13 15  1  0
 13 12  1  0
 14 25  2  0
 15 20  1  0
 16 26  1  0
 16 24  1  0
 17 23  1  0
 17 19  1  0
 18 24  1  0
 19 20  2  0
 19 18  1  0
 21 15  2  0
 22 21  1  0
 22 17  2  0
 23 16  1  0
 24 14  1  0
 26 28  2  0
 27 26  1  0
 29 27  1  0
 30 35  1  0
 31 27  1  0
 32 31  1  0
 33 32  1  0
 34 33  1  0
 34 30  1  0
 35 31  1  0
 35 36  2  0
 37 36  1  0
 38 37  2  0
 39 30  2  0
 39 38  1  0
 40 14  1  0
 40 50  1  0
 40 41  1  0
 41 42  1  0
 41 44  1  0
 42 46  1  0
 43 42  2  0
 46 45  1  0
 46 48  1  0
 48 49  1  0
 48 47  1  0
 50 51  1  1
 50 53  1  0
 52 50  1  0
 54  5  1  0
 54 63  1  0
 55 61  1  0
 56 61  1  0
 57 58  1  0
 57 56  1  0
 59 58  1  0
 59 68  1  0
 59 60  1  0
 61 60  1  0
 62 55  2  0
 63 64  1  0
 63 55  1  0
 65 66  2  0
 66 67  1  0
 66 85  1  0
 67 70  1  0
 68 65  1  0
 68 69  1  0
 69 67  2  0
 70 71  1  0
 71 72  2  0
 73 76  1  0
 73 72  1  0
 74 73  2  0
 75 74  1  0
 75 70  2  0
 76 77  1  0
 77 78  1  0
 78 79  2  0
 80 79  1  0
 80 84  1  0
 81 80  2  0
 82 77  2  0
 82 81  1  0
 83 82  1  0
 85 86  1  0
 86 89  1  0
 86 88  1  0
 87 85  2  0
 90 91  1  0
 90 65  1  0
 92 90  1  0
M  ISO  4  12 101  13 101  55 100  63 100
M  END
>  <TORSDO>  (81) 
F 21

>  <SCORE>  (81) 
-9.091

>  <name>  (81) 
80

>  <ligand_id>  (81) 
80

>  <original_smiles>  (81) 
[H]C(=NC([H])([H])C([H])([H])C([H])([H])Oc1c([H])c([H])c2c(c1[H])C([H])([H])N(C(=O)C([H])(N([H])C(=O)C([H])(N([H])C([H])([H])[H])C([H])([H])[H])C(C([H])([H])[H])(C([H])([H])[H])C([H])([H])[H])C([H])(C(=O)N([H])C1([H])c3c([H])c([H])c([H])c([H])c3C([H])([H])C([H])([H])C1([H])[H])C2([H])[H])c1c(Cl)c([H])c([H])c([H])c1C([H])([H])N([H])C(=O)N1C([H])([H])C([H])([H])C([H])([H])C([H])(n2nc(-c3c([H])c([H])c(Oc4c([H])c([H])c(F)c([H])c4F)c([H])c3[H])c(C(=O)N([H])[H])c2N([H])[H])C1([H])[H]

>  <smiles>  (81) 
[H]C(=NC([H])([H])C([H])([H])C([H])([H])Oc1c([H])c([H])c2c(c1[H])C([H])([H])N(C(=O)C([H])(N([H])C(=O)C([H])(N([H])C([H])([H])[H])C([H])([H])[H])C(C([H])([H])[H])(C([H])([H])[H])C([H])([H])[H])C([H])(C(=O)N([H])C1([H])c3c([H])c([H])c([H])c([H])c3C([H])([H])C([H])([H])C1([H])[H])C2([H])[H])c1c(Cl)c([H])c([H])c([H])c1C([H])([H])N([H])C(=O)N1C([H])([H])C([H])([H])C([H])([H])C([H])(n2nc(-c3c([H])c([H])c(Oc4c([H])c([H])c(F)c([H])c4F)c([H])c3[H])c(C(=O)N([H])[H])c2N([H])[H])C1([H])[H]

$$$$
81:0:0
     RDKit          3D

 99107  0  0  1  0  0  0  0  0999 V2000
  -29.3300  -21.8040   19.5720 C   0  0  0  0  0  0  0  0  0  0  0  0
  -30.3770  -22.1680   18.8340 N   0  0  0  0  0  4  0  0  0  0  0  0
  -28.5910  -22.7460   20.1760 N   0  0  0  0  0  0  0  0  0  0  0  0
  -30.8710  -21.4620   18.3100 H   0  0  0  0  0  0  0  0  0  0  0  0
  -30.6650  -23.1270   18.7190 H   0  0  0  0  0  0  0  0  0  0  0  0
  -27.7200  -22.4390   20.5910 H   0  0  0  0  0  0  0  0  0  0  0  0
  -27.9960  -19.8710   18.8590 C   0  0  0  0  0  3  0  0  0  0  0  0
  -28.5790  -17.5930   19.5110 C   0  0  0  0  0  3  0  0  0  0  0  0
  -29.0250  -20.3690   19.6790 C   0  0  0  0  0  0  0  0  0  0  0  0
  -29.5620  -18.0640   20.4120 C   0  0  0  0  0  0  0  0  0  0  0  0
  -29.8000  -19.4730   20.4790 C   0  0  0  0  0  0  0  0  0  0  0  0
  -27.7920  -18.4830   18.7580 C   0  0  0  0  0  0  0  0  0  0  0  0
  -30.8570  -20.0490   21.4210 C   0  0  0  0  0  1  0  0  0  0  0  0
  -26.8540  -18.0020   17.9080 F   0  0  0  0  0  0  0  0  0  0  0  0
  -30.3350  -17.0600   21.3030 C   0  0  0  0  0  2  0  0  0  0  0  0
  -30.7680  -14.6210   20.7290 C   0  0  0  0  0  0  0  0  0  0  0  0
  -30.5640  -12.4280   19.6040 C   0  0  0  0  0  2  0  0  0  0  0  0
  -29.6730  -12.6090   18.3550 C   0  0  0  0  0  2  0  0  0  0  0  0
  -28.1810  -12.4720   18.7140 C   0  0  0  0  0  2  0  0  0  0  0  0
  -27.7860  -13.2980   19.9670 C   0  0  0  0  0  3  0  0  0  0  0  0
  -28.7980  -13.1010   21.1150 C   0  0  0  0  0  2  0  0  0  0  0  0
  -30.1360  -13.4240   20.5940 N   0  0  0  0  0  0  0  0  0  0  0  0
  -31.9230  -14.8160   20.3250 O   0  0  0  0  0  0  0  0  0  0  0  0
  -29.9940  -15.6290   21.1740 N   0  0  0  0  0  0  0  0  0  0  0  0
  -29.0650  -15.3680   21.4670 H   0  0  0  0  0  0  0  0  0  0  0  0
  -25.3570  -13.8930   20.5800 C   0  0  0  0  0  0  0  0  0  0  0  0
  -24.2830  -13.1120   20.9100 C   0  0  0  0  0  0  0  0  0  0  0  0
  -24.7560  -11.7650   20.9050 C   0  0  0  0  0  0  0  0  0  0  0  0
  -26.4180  -13.0190   20.3950 N   0  0  0  0  0  0  0  0  0  0  0  0
  -26.0560  -11.7350   20.6460 N   0  0  0  0  0  0  0  0  0  0  0  0
  -24.0360  -10.4970   21.0740 C   0  0  0  0  0  0  0  0  0  0  0  0
  -24.4290   -9.5450   22.0410 C   0  0  0  0  0  3  0  0  0  0  0  0
  -23.7050   -8.3420   22.1990 C   0  0  0  0  0  3  0  0  0  0  0  0
  -22.5750   -8.0830   21.3820 C   0  0  0  0  0  0  0  0  0  0  0  0
  -22.2010   -9.0280   20.4090 C   0  0  0  0  0  3  0  0  0  0  0  0
  -22.9270  -10.2200   20.2510 C   0  0  0  0  0  3  0  0  0  0  0  0
  -21.8330   -6.9300   21.4420 O   0  0  0  0  0  0  0  0  0  0  0  0
  -21.7110   -6.2110   22.6020 C   0  0  0  0  0  0  0  0  0  0  0  0
  -21.1330   -6.7690   23.7660 C   0  0  0  0  0  3  0  0  0  0  0  0
  -20.9620   -5.9770   24.9160 C   0  0  0  0  0  3  0  0  0  0  0  0
  -21.3560   -4.6260   24.9080 C   0  0  0  0  0  0  0  0  0  0  0  0
  -21.9310   -4.0680   23.7500 C   0  0  0  0  0  3  0  0  0  0  0  0
  -22.1010   -4.8580   22.6010 C   0  0  0  0  0  0  0  0  0  0  0  0
  -22.6310   -4.3090   21.4810 F   0  0  0  0  0  0  0  0  0  0  0  0
  -21.1890   -3.8620   26.0110 F   0  0  0  0  0  0  0  0  0  0  0  0
  -22.8720  -13.5800   21.1270 C   0  0  0  0  0  0  0  0  0  0  0  0
  -22.1190  -12.8800   21.9680 N   0  0  0  0  0  0  0  0  0  0  0  0
  -22.4450  -14.6020   20.5930 O   0  0  0  0  0  0  0  0  0  0  0  0
  -22.4730  -12.0510   22.4240 H   0  0  0  0  0  0  0  0  0  0  0  0
  -21.1750  -13.1820   22.1670 H   0  0  0  0  0  0  0  0  0  0  0  0
  -25.5120  -15.2660   20.4030 N   0  0  0  0  0  0  0  0  0  0  0  0
  -24.7300  -15.9110   20.4670 H   0  0  0  0  0  0  0  0  0  0  0  0
  -26.3560  -15.7040   20.0640 H   0  0  0  0  0  0  0  0  0  0  0  0
  -28.8230  -24.2120   20.1400 C   0  0  0  0  0  2  0  0  0  0  0  0
  -27.1620  -24.6200   22.0710 C   0  0  0  0  0  1  0  0  0  0  0  0
  -29.6170  -24.3400   22.4600 C   0  0  0  0  0  1  0  0  0  0  0  0
  -28.5700  -24.8980   21.4970 C   0  0  1  0  0  0  0  0  0  0  0  0
  -28.8170  -26.4220   21.3720 C   0  0  0  0  0  2  0  0  0  0  0  0
  -28.3950  -26.8940   20.1020 O   0  0  0  0  0  0  0  0  0  0  0  0
  -24.5210  -31.9130   23.2600 C   0  0  0  0  0  0  0  0  0  0  0  0
  -27.2280  -27.5910   20.1400 C   0  0  0  0  0  0  0  0  0  0  0  0
  -23.3380  -30.5190   21.5900 C   0  0  0  0  0  3  0  0  0  0  0  0
  -24.8170  -29.0190   20.1540 C   0  0  0  0  0  0  0  0  0  0  0  0
  -25.8490  -30.9260   21.4050 C   0  0  0  0  0  2  0  0  0  0  0  0
  -25.9550  -29.5650   20.7620 C   0  0  0  0  0  0  0  0  0  0  0  0
  -27.1680  -28.8560   20.7520 C   0  0  0  0  0  3  0  0  0  0  0  0
  -26.0870  -27.0460   19.5250 C   0  0  0  0  0  3  0  0  0  0  0  0
  -24.8750  -27.7590   19.5310 C   0  0  0  0  0  3  0  0  0  0  0  0
  -23.5620  -29.8590   20.2020 C   0  0  0  0  0  2  0  0  0  0  0  0
  -24.5860  -31.1320   22.1470 N   0  0  0  0  0  0  0  0  0  0  0  0
  -23.4350  -32.1680   23.7990 O   0  0  0  0  0  0  0  0  0  0  0  0
  -22.6950  -29.4800   22.5340 C   0  0  0  0  0  0  0  0  0  0  0  0
  -21.3730  -29.2980   22.4000 N   0  0  0  0  0  0  0  0  0  0  0  0
  -23.3830  -28.8380   23.3330 O   0  0  0  0  0  0  0  0  0  0  0  0
  -20.8860  -29.8700   21.7240 H   0  0  0  0  0  0  0  0  0  0  0  0
  -17.9970  -28.1270   22.8760 C   0  0  0  0  0  0  0  0  0  0  0  0
  -20.5550  -28.3490   23.1470 C   0  0  0  0  0  3  0  0  0  0  0  0
  -20.6400  -26.9370   22.5270 C   0  0  0  0  0  2  0  0  0  0  0  0
  -19.5350  -26.6570   21.5030 C   0  0  0  0  0  2  0  0  0  0  0  0
  -18.1560  -26.7980   22.1520 C   0  0  0  0  0  2  0  0  0  0  0  0
  -19.1230  -28.8640   23.3270 C   0  0  0  0  0  0  0  0  0  0  0  0
  -18.9210  -30.1120   23.9570 C   0  0  0  0  0  3  0  0  0  0  0  0
  -17.6230  -30.6240   24.1400 C   0  0  0  0  0  3  0  0  0  0  0  0
  -16.5100  -29.8800   23.7080 C   0  0  0  0  0  3  0  0  0  0  0  0
  -16.6980  -28.6340   23.0830 C   0  0  0  0  0  3  0  0  0  0  0  0
  -25.8000  -32.5440   23.8990 C   0  0  0  0  0  3  0  0  0  0  0  0
  -25.4950  -33.9450   24.2050 N   0  0  0  0  0  0  0  0  0  0  0  0
  -25.8590  -34.9850   23.4410 C   0  0  0  0  0  0  0  0  0  0  0  0
  -26.5560  -34.8630   22.4300 O   0  0  0  0  0  0  0  0  0  0  0  0
  -24.8810  -34.1170   24.9870 H   0  0  0  0  0  0  0  0  0  0  0  0
  -24.1750  -36.8000   22.9790 C   0  0  0  0  0  1  0  0  0  0  0  0
  -25.3620  -36.3830   23.8630 C   0  0  0  0  0  3  0  0  0  0  0  0
  -27.4520  -37.2490   24.8200 C   0  0  0  0  0  1  0  0  0  0  0  0
  -26.4140  -37.4210   23.8070 N   0  0  0  0  0  0  0  0  0  0  0  0
  -26.0110  -38.3490   23.9150 H   0  0  0  0  0  0  0  0  0  0  0  0
  -26.2930  -31.7820   25.1890 C   0  0  1  0  0  0  0  0  0  0  0  0
  -25.1820  -31.5540   26.2380 C   0  0  0  0  0  1  0  0  0  0  0  0
  -26.8790  -30.4000   24.8120 C   0  0  0  0  0  1  0  0  0  0  0  0
  -27.4290  -32.5830   25.8680 C   0  0  0  0  0  1  0  0  0  0  0  0
  1  9  1  0
  1  3  1  0
  2  1  2  0
  3  6  1  0
  4  2  1  0
  5  2  1  0
  7  9  1  0
  8 10  2  0
  9 11  2  0
 10 11  1  0
 10 15  1  0
 11 13  1  0
 12  7  2  0
 12  8  1  0
 14 12  1  0
 16 24  1  0
 17 22  1  0
 18 19  1  0
 18 17  1  0
 20 19  1  0
 20 29  1  0
 20 21  1  0
 22 16  1  0
 22 21  1  0
 23 16  2  0
 24 15  1  0
 24 25  1  0
 26 27  2  0
 27 46  1  0
 28 27  1  0
 28 31  1  0
 29 26  1  0
 29 30  1  0
 30 28  2  0
 31 32  1  0
 32 33  2  0
 34 37  1  0
 34 33  1  0
 35 34  2  0
 36 35  1  0
 36 31  2  0
 37 38  1  0
 38 39  1  0
 39 40  2  0
 41 40  1  0
 41 45  1  0
 42 41  2  0
 43 38  2  0
 43 42  1  0
 44 43  1  0
 46 47  1  0
 47 50  1  0
 47 49  1  0
 48 46  2  0
 51 52  1  0
 51 26  1  0
 53 51  1  0
 54  3  1  0
 54 57  1  0
 57 55  1  1
 57 56  1  0
 58 57  1  0
 59 61  1  0
 59 58  1  0
 60 71  2  0
 61 66  1  0
 62 70  1  0
 62 72  1  0
 63 69  1  0
 63 65  1  0
 64 70  1  0
 65 64  1  0
 66 65  2  0
 67 68  1  0
 67 61  2  0
 68 63  2  0
 69 62  1  0
 70 60  1  0
 72 74  2  0
 73 72  1  0
 75 73  1  0
 76 85  2  0
 76 81  1  0
 77 73  1  0
 77 81  1  0
 78 77  1  0
 79 80  1  0
 79 78  1  0
 80 76  1  0
 81 82  2  0
 82 83  1  0
 84 83  2  0
 85 84  1  0
 86 60  1  0
 86 87  1  0
 86 96  1  0
 87 90  1  0
 88 92  1  0
 88 87  1  0
 89 88  2  0
 92 91  1  0
 94 92  1  0
 94 95  1  0
 94 93  1  0
 96 99  1  1
 96 97  1  0
 98 96  1  0
M  ISO  4  16 100  24 100  58 101  59 101
M  END
>  <TORSDO>  (82) 
F 21

>  <SCORE>  (82) 
-13.622

>  <name>  (82) 
81

>  <ligand_id>  (82) 
81

>  <original_smiles>  (82) 
[H]c1c([H])c([H])c2c(c1[H])C([H])([H])C([H])([H])C([H])([H])C2([H])N([H])C(=O)C1([H])N(C(=O)C([H])(N([H])C(=O)C([H])(N([H])C([H])([H])[H])C([H])([H])[H])C(C([H])([H])[H])(C([H])([H])[H])C([H])([H])[H])C([H])([H])c2c([H])c(OC([H])([H])C(C([H])([H])[H])(C([H])([H])[H])C([H])([H])[N+]([H])=C(c3c([H])c(F)c([H])c(C([H])([H])N([H])C(=O)N4C([H])([H])C([H])([H])C([H])([H])C([H])(n5nc(-c6c([H])c([H])c(Oc7c([H])c([H])c(F)c([H])c7F)c([H])c6[H])c(C(=O)N([H])[H])c5N([H])[H])C4([H])[H])c3C([H])([H])[H])N([H])[H])c([H])c([H])c2C1([H])[H]

>  <smiles>  (82) 
[H]c1c([H])c([H])c2c(c1[H])C([H])([H])C([H])([H])C([H])([H])C2([H])N([H])C(=O)C1([H])N(C(=O)C([H])(N([H])C(=O)C([H])(N([H])C([H])([H])[H])C([H])([H])[H])C(C([H])([H])[H])(C([H])([H])[H])C([H])([H])[H])C([H])([H])c2c([H])c(OC([H])([H])C(C([H])([H])[H])(C([H])([H])[H])C([H])([H])[N+]([H])=C(c3c([H])c(F)c([H])c(C([H])([H])N([H])C(=O)N4C([H])([H])C([H])([H])C([H])([H])C([H])(n5nc(-c6c([H])c([H])c(Oc7c([H])c([H])c(F)c([H])c7F)c([H])c6[H])c(C(=O)N([H])[H])c5N([H])[H])C4([H])[H])c3C([H])([H])[H])N([H])[H])c([H])c([H])c2C1([H])[H]

$$$$
82:0:0
     RDKit          3D

 94102  0  0  1  0  0  0  0  0999 V2000
  -29.1470  -17.2610   19.1400 C   0  0  0  0  0  3  0  0  0  0  0  0
  -29.7220  -18.7410   20.9630 C   0  0  0  0  0  3  0  0  0  0  0  0
  -28.3900  -18.2950   18.5540 C   0  0  0  0  0  0  0  0  0  0  0  0
  -29.0470  -19.8800   20.3440 C   0  0  0  0  0  0  0  0  0  0  0  0
  -28.2640  -19.5700   19.1830 C   0  0  0  0  0  0  0  0  0  0  0  0
  -29.7510  -17.3990   20.3980 C   0  0  0  0  0  0  0  0  0  0  0  0
  -27.6440  -17.9160   17.2800 C   0  0  0  0  0  1  0  0  0  0  0  0
  -30.8860  -15.0580   20.6080 C   0  0  0  0  0  0  0  0  0  0  0  0
  -30.8110  -12.7720   19.6040 C   0  0  0  0  0  2  0  0  0  0  0  0
  -29.9660  -12.8340   18.3100 C   0  0  0  0  0  2  0  0  0  0  0  0
  -28.4670  -12.6490   18.6230 C   0  0  0  0  0  2  0  0  0  0  0  0
  -27.9990  -13.5210   19.8200 C   0  0  0  0  0  3  0  0  0  0  0  0
  -28.9670  -13.4310   21.0200 C   0  0  0  0  0  2  0  0  0  0  0  0
  -30.3040  -13.8090   20.5380 N   0  0  0  0  0  0  0  0  0  0  0  0
  -32.0460  -15.2190   20.2120 O   0  0  0  0  0  0  0  0  0  0  0  0
  -30.1320  -16.1310   21.0700 N   0  0  0  0  0  0  0  0  0  0  0  0
  -29.3800  -15.7870   21.6500 H   0  0  0  0  0  0  0  0  0  0  0  0
  -25.5530  -14.1100   20.3280 C   0  0  0  0  0  0  0  0  0  0  0  0
  -24.4670  -13.3380   20.6390 C   0  0  0  0  0  0  0  0  0  0  0  0
  -24.9500  -11.9940   20.7070 C   0  0  0  0  0  0  0  0  0  0  0  0
  -26.6200  -13.2340   20.2060 N   0  0  0  0  0  0  0  0  0  0  0  0
  -26.2590  -11.9600   20.4970 N   0  0  0  0  0  0  0  0  0  0  0  0
  -24.2280  -10.7310   20.9060 C   0  0  0  0  0  0  0  0  0  0  0  0
  -24.5920   -9.8240   21.9250 C   0  0  0  0  0  3  0  0  0  0  0  0
  -23.8740   -8.6240   22.1060 C   0  0  0  0  0  3  0  0  0  0  0  0
  -22.7740   -8.3240   21.2680 C   0  0  0  0  0  0  0  0  0  0  0  0
  -22.4290   -9.2210   20.2410 C   0  0  0  0  0  3  0  0  0  0  0  0
  -23.1500  -10.4110   20.0580 C   0  0  0  0  0  3  0  0  0  0  0  0
  -22.0330   -7.1700   21.3530 O   0  0  0  0  0  0  0  0  0  0  0  0
  -21.9130   -6.4770   22.5310 C   0  0  0  0  0  0  0  0  0  0  0  0
  -21.3700   -7.0700   23.6910 C   0  0  0  0  0  3  0  0  0  0  0  0
  -21.2040   -6.3020   24.8600 C   0  0  0  0  0  3  0  0  0  0  0  0
  -21.5640   -4.9430   24.8700 C   0  0  0  0  0  0  0  0  0  0  0  0
  -22.0980   -4.3490   23.7120 C   0  0  0  0  0  3  0  0  0  0  0  0
  -22.2700   -5.1130   22.5450 C   0  0  0  0  0  0  0  0  0  0  0  0
  -22.7660   -4.5300   21.4280 F   0  0  0  0  0  0  0  0  0  0  0  0
  -21.3950   -4.2030   25.9910 F   0  0  0  0  0  0  0  0  0  0  0  0
  -23.0460  -13.8070   20.7780 C   0  0  0  0  0  0  0  0  0  0  0  0
  -22.2630  -13.1550   21.6310 N   0  0  0  0  0  0  0  0  0  0  0  0
  -22.6360  -14.7910   20.1660 O   0  0  0  0  0  0  0  0  0  0  0  0
  -22.6090  -12.3690   22.1590 H   0  0  0  0  0  0  0  0  0  0  0  0
  -21.3040  -13.4460   21.7640 H   0  0  0  0  0  0  0  0  0  0  0  0
  -25.7280  -15.4760   20.1340 N   0  0  0  0  0  0  0  0  0  0  0  0
  -24.9780  -16.1420   20.2840 H   0  0  0  0  0  0  0  0  0  0  0  0
  -26.6360  -15.9120   20.0430 H   0  0  0  0  0  0  0  0  0  0  0  0
  -25.7690  -20.0780   19.1070 C   0  0  0  0  0  1  0  0  0  0  0  0
  -27.1770  -20.5330   18.6820 C   0  0  0  0  0  2  0  0  0  0  0  0
  -29.0340  -21.3500   21.0140 C   0  0  0  0  0  2  0  0  0  0  0  0
  -28.6630  -23.9420   20.6620 C   0  0  0  0  0  0  0  0  0  0  0  0
  -29.9260  -22.5990   19.0170 C   0  0  0  0  0  1  0  0  0  0  0  0
  -29.1140  -22.6820   20.2320 N   0  0  0  0  0  0  0  0  0  0  0  0
  -28.3050  -24.0960   21.8320 O   0  0  0  0  0  0  0  0  0  0  0  0
  -28.4960  -25.2110   19.6740 C   0  0  0  0  0  2  0  0  0  0  0  0
  -28.4820  -26.6200   20.2380 O   0  0  0  0  0  0  0  0  0  0  0  0
  -24.6790  -31.9870   23.3260 C   0  0  0  0  0  0  0  0  0  0  0  0
  -27.3750  -27.5080   20.1490 C   0  0  0  0  0  0  0  0  0  0  0  0
  -23.5220  -30.6460   21.6090 C   0  0  0  0  0  3  0  0  0  0  0  0
  -25.0160  -29.1680   20.1440 C   0  0  0  0  0  0  0  0  0  0  0  0
  -26.0680  -30.9750   21.4970 C   0  0  0  0  0  2  0  0  0  0  0  0
  -26.1700  -29.6190   20.7940 C   0  0  0  0  0  0  0  0  0  0  0  0
  -27.3470  -28.7990   20.7920 C   0  0  0  0  0  3  0  0  0  0  0  0
  -26.1950  -27.1460   19.4570 C   0  0  0  0  0  3  0  0  0  0  0  0
  -25.0370  -27.9430   19.4630 C   0  0  0  0  0  3  0  0  0  0  0  0
  -23.7710  -30.0320   20.2060 C   0  0  0  0  0  2  0  0  0  0  0  0
  -24.7740  -31.2170   22.2010 N   0  0  0  0  0  0  0  0  0  0  0  0
  -23.5830  -32.2340   23.8480 O   0  0  0  0  0  0  0  0  0  0  0  0
  -22.8450  -29.5860   22.5120 C   0  0  0  0  0  0  0  0  0  0  0  0
  -21.5200  -29.4140   22.3630 N   0  0  0  0  0  0  0  0  0  0  0  0
  -23.5130  -28.9210   23.3090 O   0  0  0  0  0  0  0  0  0  0  0  0
  -21.0360  -29.9990   21.6960 H   0  0  0  0  0  0  0  0  0  0  0  0
  -18.1280  -28.2390   22.8160 C   0  0  0  0  0  0  0  0  0  0  0  0
  -20.6920  -28.4430   23.0840 C   0  0  0  0  0  3  0  0  0  0  0  0
  -20.7700  -27.0490   22.4220 C   0  0  0  0  0  2  0  0  0  0  0  0
  -19.6590  -26.8040   21.3970 C   0  0  0  0  0  2  0  0  0  0  0  0
  -18.2810  -26.9310   22.0570 C   0  0  0  0  0  2  0  0  0  0  0  0
  -19.2610  -28.9570   23.2840 C   0  0  0  0  0  0  0  0  0  0  0  0
  -19.0640  -30.1850   23.9520 C   0  0  0  0  0  3  0  0  0  0  0  0
  -17.7690  -30.6950   24.1550 C   0  0  0  0  0  3  0  0  0  0  0  0
  -16.6500  -29.9690   23.7110 C   0  0  0  0  0  3  0  0  0  0  0  0
  -16.8310  -28.7430   23.0470 C   0  0  0  0  0  3  0  0  0  0  0  0
  -25.9410  -32.6090   23.9970 C   0  0  0  0  0  3  0  0  0  0  0  0
  -26.4160  -31.8150   25.2760 C   0  0  1  0  0  0  0  0  0  0  0  0
  -25.2880  -31.5550   26.3020 C   0  0  0  0  0  1  0  0  0  0  0  0
  -27.0150  -30.4450   24.8800 C   0  0  0  0  0  1  0  0  0  0  0  0
  -27.5450  -32.5940   25.9900 C   0  0  0  0  0  1  0  0  0  0  0  0
  -25.6220  -33.9990   24.3480 N   0  0  0  0  0  0  0  0  0  0  0  0
  -25.9940  -35.0700   23.6330 C   0  0  0  0  0  0  0  0  0  0  0  0
  -26.7110  -34.9900   22.6320 O   0  0  0  0  0  0  0  0  0  0  0  0
  -25.0050  -34.1380   25.1330 H   0  0  0  0  0  0  0  0  0  0  0  0
  -24.3170  -36.8940   23.2110 C   0  0  0  0  0  1  0  0  0  0  0  0
  -25.4880  -36.4470   24.1020 C   0  0  0  0  0  3  0  0  0  0  0  0
  -27.5560  -37.2780   25.1310 C   0  0  0  0  0  1  0  0  0  0  0  0
  -26.5370  -37.4890   24.1050 N   0  0  0  0  0  0  0  0  0  0  0  0
  -26.1310  -38.4110   24.2450 H   0  0  0  0  0  0  0  0  0  0  0  0
  1  6  1  0
  3  1  2  0
  3  5  1  0
  4  2  1  0
  4 48  1  0
  5  4  2  0
  6  2  2  0
  6 16  1  0
  7  3  1  0
  8 16  1  0
  9 14  1  0
 10 11  1  0
 10  9  1  0
 12 11  1  0
 12 21  1  0
 12 13  1  0
 14  8  1  0
 14 13  1  0
 15  8  2  0
 16 17  1  0
 18 19  2  0
 19 20  1  0
 19 38  1  0
 20 23  1  0
 21 18  1  0
 21 22  1  0
 22 20  2  0
 23 24  1  0
 24 25  2  0
 26 29  1  0
 26 25  1  0
 27 26  2  0
 28 27  1  0
 28 23  2  0
 29 30  1  0
 30 35  2  0
 30 31  1  0
 31 32  2  0
 32 33  1  0
 33 37  1  0
 34 33  2  0
 35 34  1  0
 36 35  1  0
 38 39  1  0
 39 42  1  0
 39 41  1  0
 40 38  2  0
 43 44  1  0
 43 18  1  0
 45 43  1  0
 47 46  1  0
 47  5  1  0
 49 52  2  0
 50 51  1  0
 51 49  1  0
 51 48  1  0
 53 54  1  0
 53 49  1  0
 55 66  2  0
 56 54  1  0
 56 61  1  0
 57 65  1  0
 57 67  1  0
 58 64  1  0
 58 60  1  0
 59 65  1  0
 60 59  1  0
 61 60  2  0
 62 63  1  0
 62 56  2  0
 63 58  2  0
 64 57  1  0
 65 55  1  0
 67 69  2  0
 68 67  1  0
 70 68  1  0
 71 80  2  0
 71 76  1  0
 72 68  1  0
 72 76  1  0
 73 72  1  0
 74 75  1  0
 74 73  1  0
 75 71  1  0
 76 77  2  0
 77 78  1  0
 79 78  2  0
 80 79  1  0
 81 55  1  0
 81 86  1  0
 81 82  1  0
 82 85  1  1
 82 83  1  0
 84 82  1  0
 86 89  1  0
 87 91  1  0
 87 86  1  0
 88 87  2  0
 91 90  1  0
 91 93  1  0
 93 94  1  0
 93 92  1  0
M  ISO  4   8 100  16 100  53 101  54 101
M  END
>  <TORSDO>  (83) 
F 20

>  <SCORE>  (83) 
-12.550

>  <name>  (83) 
82

>  <ligand_id>  (83) 
82

>  <original_smiles>  (83) 
[H]c1c([H])c([H])c2c(c1[H])C([H])([H])C([H])([H])C([H])([H])C2([H])N([H])C(=O)C1([H])N(C(=O)C([H])(N([H])C(=O)C([H])(N([H])C([H])([H])[H])C([H])([H])[H])C(C([H])([H])[H])(C([H])([H])[H])C([H])([H])[H])C([H])([H])c2c([H])c(OC([H])([H])C(=O)N(C([H])([H])[H])C([H])([H])c3c([H])c(N([H])C(=O)N4C([H])([H])C([H])([H])C([H])([H])C([H])(n5nc(-c6c([H])c([H])c(Oc7c([H])c([H])c(F)c([H])c7F)c([H])c6[H])c(C(=O)N([H])[H])c5N([H])[H])C4([H])[H])c([H])c(C([H])([H])[H])c3C([H])([H])C([H])([H])[H])c([H])c([H])c2C1([H])[H]

>  <smiles>  (83) 
[H]c1c([H])c([H])c2c(c1[H])C([H])([H])C([H])([H])C([H])([H])C2([H])N([H])C(=O)C1([H])N(C(=O)C([H])(N([H])C(=O)C([H])(N([H])C([H])([H])[H])C([H])([H])[H])C(C([H])([H])[H])(C([H])([H])[H])C([H])([H])[H])C([H])([H])c2c([H])c(OC([H])([H])C(=O)N(C([H])([H])[H])C([H])([H])c3c([H])c(N([H])C(=O)N4C([H])([H])C([H])([H])C([H])([H])C([H])(n5nc(-c6c([H])c([H])c(Oc7c([H])c([H])c(F)c([H])c7F)c([H])c6[H])c(C(=O)N([H])[H])c5N([H])[H])C4([H])[H])c([H])c(C([H])([H])[H])c3C([H])([H])C([H])([H])[H])c([H])c([H])c2C1([H])[H]

$$$$
83:0:0
     RDKit          3D

 96101  0  0  1  0  0  0  0  0999 V2000
  -26.2970  -20.3240   18.7260 C   0  0  0  0  0  0  0  0  0  0  0  0
  -25.0520  -20.0940   19.1750 C   0  0  0  0  0  2  0  0  0  0  0  0
  -26.7520  -21.9820   18.3560 C   0  0  0  0  0  2  0  0  0  0  0  0
  -28.6660  -21.6780   19.2920 C   0  0  0  0  0  2  0  0  0  0  0  0
  -28.3010  -19.9020   19.4870 C   0  0  0  0  0  2  0  0  0  0  0  0
  -27.7110  -23.1520   19.2580 C   0  0  0  0  0  2  0  0  0  0  0  0
  -27.2760  -18.9380   18.6690 N   0  0  1  0  0  4  0  0  0  0  0  0
  -27.6500  -18.8840   17.7330 H   0  0  0  0  0  0  0  0  0  0  0  0
  -28.2190  -24.9750   19.1710 O   0  0  0  0  0  1  0  0  0  0  0  0
  -24.7140  -31.1510   22.7890 C   0  0  0  0  0  0  0  0  0  0  0  0
  -27.5150  -26.3810   19.3450 C   0  0  0  0  0  0  0  0  0  0  0  0
  -23.7730  -29.8450   20.9610 C   0  0  0  0  0  3  0  0  0  0  0  0
  -25.3810  -28.5070   19.4350 C   0  0  0  0  0  0  0  0  0  0  0  0
  -26.3490  -30.1040   21.0520 C   0  0  0  0  0  2  0  0  0  0  0  0
  -26.5160  -28.7530   20.2120 C   0  0  0  0  0  0  0  0  0  0  0  0
  -27.6030  -27.7050   20.1430 C   0  0  0  0  0  3  0  0  0  0  0  0
  -26.4130  -26.4610   18.5120 C   0  0  0  0  0  3  0  0  0  0  0  0
  -25.3850  -27.4170   18.5680 C   0  0  0  0  0  3  0  0  0  0  0  0
  -24.1410  -29.3920   19.5290 C   0  0  0  0  0  2  0  0  0  0  0  0
  -24.9730  -30.4070   21.6530 N   0  0  0  0  0  0  0  0  0  0  0  0
  -23.5590  -31.2950   23.2320 O   0  0  0  0  0  0  0  0  0  0  0  0
  -23.1210  -28.6780   21.7530 C   0  0  0  0  0  0  0  0  0  0  0  0
  -21.8390  -28.3680   21.4830 N   0  0  0  0  0  0  0  0  0  0  0  0
  -23.7790  -28.0630   22.5960 O   0  0  0  0  0  0  0  0  0  0  0  0
  -21.3500  -28.9230   20.7940 H   0  0  0  0  0  0  0  0  0  0  0  0
  -18.6660  -26.5990   21.4430 C   0  0  0  0  0  0  0  0  0  0  0  0
  -21.0810  -27.2690   22.0920 C   0  0  0  0  0  3  0  0  0  0  0  0
  -21.5050  -25.9050   21.5000 C   0  0  0  0  0  2  0  0  0  0  0  0
  -20.6310  -25.4640   20.3210 C   0  0  0  0  0  2  0  0  0  0  0  0
  -19.1670  -25.3410   20.7540 C   0  0  0  0  0  2  0  0  0  0  0  0
  -19.5660  -27.5120   22.0570 C   0  0  0  0  0  0  0  0  0  0  0  0
  -19.0490  -28.6790   22.6600 C   0  0  0  0  0  3  0  0  0  0  0  0
  -17.6660  -28.9430   22.6520 C   0  0  0  0  0  3  0  0  0  0  0  0
  -16.7800  -28.0310   22.0520 C   0  0  0  0  0  3  0  0  0  0  0  0
  -17.2810  -26.8590   21.4540 C   0  0  0  0  0  3  0  0  0  0  0  0
  -25.8420  -31.8690   23.5840 C   0  0  0  0  0  3  0  0  0  0  0  0
  -26.3060  -31.0590   24.8580 C   0  0  1  0  0  0  0  0  0  0  0  0
  -25.1470  -30.6540   25.8000 C   0  0  0  0  0  1  0  0  0  0  0  0
  -27.0470  -29.7650   24.4600 C   0  0  0  0  0  1  0  0  0  0  0  0
  -27.3150  -31.9020   25.6730 C   0  0  0  0  0  1  0  0  0  0  0  0
  -25.3380  -33.1960   24.0030 N   0  0  0  0  0  0  0  0  0  0  0  0
  -25.7540  -34.3750   23.5220 C   0  0  0  0  0  0  0  0  0  0  0  0
  -26.6610  -34.4670   22.6900 O   0  0  0  0  0  0  0  0  0  0  0  0
  -24.5530  -33.1930   24.6360 H   0  0  0  0  0  0  0  0  0  0  0  0
  -24.0670  -36.1770   22.9950 C   0  0  0  0  0  1  0  0  0  0  0  0
  -25.0650  -35.6570   24.0430 C   0  0  0  0  0  3  0  0  0  0  0  0
  -26.8220  -36.4370   25.5750 C   0  0  0  0  0  1  0  0  0  0  0  0
  -26.0130  -36.7380   24.3960 N   0  0  0  0  0  0  0  0  0  0  0  0
  -25.5200  -37.6110   24.5640 H   0  0  0  0  0  0  0  0  0  0  0  0
  -26.8500  -17.1390   19.0190 C   0  0  0  0  0  1  0  0  0  0  0  0
  -27.1190  -15.1240   18.4730 C   0  0  0  0  0 15  0  0  0  0  0  0
  -27.1600  -10.5550   21.8800 C   0  0  0  0  0  2  0  0  0  0  0  0
  -25.5270  -11.3280   21.3490 C   0  0  0  0  0  2  0  0  0  0  0  0
  -28.6590  -10.9520   20.6590 C   0  0  0  0  0 15  0  0  0  0  0  0
  -25.5430  -12.4330   19.7620 C   0  0  0  0  0  3  0  0  0  0  0  0
  -27.0030  -13.1800   18.9690 C   0  0  0  0  0  2  0  0  0  0  0  0
  -28.5710  -12.3770   19.2860 C   0  0  0  0  0  2  0  0  0  0  0  0
  -24.2010  -12.7850   19.1170 C   0  0  0  0  0  1  0  0  0  0  0  0
  -31.3720  -14.2750   19.3260 C   0  0  0  0  0  0  0  0  0  0  0  0
  -33.1330  -12.7260   19.4570 C   0  0  0  0  0  2  0  0  0  0  0  0
  -32.1690  -11.8680   18.6940 C   0  0  0  0  0  2  0  0  0  0  0  0
  -31.0660  -11.5540   19.7800 C   0  0  0  0  0  2  0  0  0  0  0  0
  -30.5240  -12.6770   21.1570 C   0  0  0  0  0  3  0  0  0  0  0  0
  -31.8120  -13.2440   21.4980 C   0  0  0  0  0  2  0  0  0  0  0  0
  -32.2410  -13.6360   20.1700 N   0  0  0  0  0  0  0  0  0  0  0  0
  -32.1390  -15.2370   19.0230 O   0  0  0  0  0  0  0  0  0  0  0  0
  -29.8950  -13.6430   18.9030 N   0  0  0  0  0  0  0  0  0  0  0  0
  -29.5430  -14.2720   18.1980 H   0  0  0  0  0  0  0  0  0  0  0  0
  -28.0550  -14.2380   21.3290 C   0  0  2  0  0  0  0  0  0  0  0  0
  -26.8910  -13.7110   21.8880 C   0  0  0  0  0  3  0  0  0  0  0  0
  -27.4400  -12.5060   21.5520 C   0  0  0  0  0  3  0  0  0  0  0  0
  -29.1300  -13.2910   21.5600 N   0  0  0  0  0  0  0  0  0  0  0  0
  -28.4710  -12.7010   22.4170 N   0  0  0  0  0  2  0  0  0  0  0  0
  -26.7380  -10.0440   20.3010 C   0  0  0  0  0  3  0  0  0  0  0  0
  -26.4790   -8.7280   21.1560 C   0  0  0  0  0  2  0  0  0  0  0  0
  -25.2970   -8.3090   21.9620 C   0  0  0  0  0  2  0  0  0  0  0  0
  -24.0330   -8.5050   21.4040 C   0  0  0  0  0  0  0  0  0  0  0  0
  -24.1720   -9.1770   20.1600 C   0  0  0  0  0  3  0  0  0  0  0  0
  -25.4380   -9.6940   19.6100 C   0  0  0  0  0  2  0  0  0  0  0  0
  -22.8730   -7.7450   21.6650 O   0  0  0  0  0  0  0  0  0  0  0  0
  -22.3440   -7.3060   22.8850 C   0  0  0  0  0  0  0  0  0  0  0  0
  -21.5670   -8.1680   23.6960 C   0  0  0  0  0  3  0  0  0  0  0  0
  -20.8580   -7.6760   24.8190 C   0  0  0  0  0  3  0  0  0  0  0  0
  -20.9090   -6.3100   25.1550 C   0  0  0  0  0  0  0  0  0  0  0  0
  -21.6620   -5.4350   24.3550 C   0  0  0  0  0  3  0  0  0  0  0  0
  -22.3610   -5.9230   23.2270 C   0  0  0  0  0  0  0  0  0  0  0  0
  -23.0240   -5.0340   22.4510 F   0  0  0  0  0  0  0  0  0  0  0  0
  -20.2330   -5.8390   26.2350 F   0  0  0  0  0  0  0  0  0  0  0  0
  -25.3980  -14.0560   22.0220 C   0  0  0  0  0  0  0  0  0  0  0  0
  -24.6780  -13.3470   22.9090 N   0  0  0  0  0  0  0  0  0  0  0  0
  -24.7990  -14.7150   21.1820 O   0  0  0  0  0  0  0  0  0  0  0  0
  -25.1400  -12.7240   23.5540 H   0  0  0  0  0  0  0  0  0  0  0  0
  -23.6800  -13.4790   22.9710 H   0  0  0  0  0  0  0  0  0  0  0  0
  -28.3110  -15.4140   20.7230 N   0  0  0  0  0  0  0  0  0  0  0  0
  -29.2860  -15.6860   20.7250 H   0  0  0  0  0  0  0  0  0  0  0  0
  -27.7400  -16.1550   21.1030 H   0  0  0  0  0  0  0  0  0  0  0  0
  1  2  2  0
  3  1  1  0
  3  6  1  0
  4  5  1  0
  6  4  1  0
  7  1  1  0
  7 50  1  0
  7  5  1  0
  7  8  1  6
  9 11  1  0
 10 21  2  0
 11 16  1  0
 12 20  1  0
 12 22  1  0
 13 19  1  0
 13 15  1  0
 14 20  1  0
 15 14  1  0
 16 15  2  0
 17 18  1  0
 17 11  2  0
 18 13  2  0
 19 12  1  0
 20 10  1  0
 22 24  2  0
 23 22  1  0
 25 23  1  0
 26 35  2  0
 26 31  1  0
 27 23  1  0
 28 27  1  0
 29 30  1  0
 29 28  1  0
 30 26  1  0
 31 27  1  0
 31 32  2  0
 33 32  1  0
 34 33  2  0
 35 34  1  0
 36 10  1  0
 36 41  1  0
 36 37  1  0
 37 40  1  1
 37 38  1  0
 39 37  1  0
 41 44  1  0
 42 41  1  0
 42 46  1  0
 43 42  2  0
 46 45  1  0
 46 48  1  0
 48 49  1  0
 48 47  1  0
 53 52  1  0
 55 58  1  0
 55 53  1  0
 56 57  1  0
 56 55  1  0
 59 65  1  0
 60 65  1  0
 61 60  1  0
 61 62  1  0
 63 62  1  0
 63 64  1  0
 63 72  1  0
 65 64  1  0
 66 59  2  0
 67 57  1  0
 67 59  1  0
 68 67  1  0
 69 94  1  6
 69 71  1  0
 69 72  1  0
 69 70  1  0
 70 89  1  0
 71 70  1  0
 71 73  1  0
 72 73  1  0
 74 75  1  0
 74 52  1  0
 75 76  1  0
 77 80  1  0
 77 76  1  0
 78 77  2  0
 79 78  1  0
 79 74  1  0
 80 81  1  0
 81 86  2  0
 81 82  1  0
 82 83  2  0
 83 84  1  0
 84 88  1  0
 85 84  2  0
 86 85  1  0
 87 86  1  0
 89 90  1  0
 90 93  1  0
 90 92  1  0
 91 89  2  0
 94 95  1  0
 94 96  1  0
M  ISO  4   6 101   9 101  59 100  67 100
M  END
>  <TORSDO>  (84) 
F 19

>  <SCORE>  (84) 
-3.891

>  <name>  (84) 
83

>  <ligand_id>  (84) 
83

>  <original_smiles>  (84) 
[H]C([H])=C1C([H])([H])C([H])(Oc2c([H])c([H])c3c(c2[H])C([H])([H])N(C(=O)C([H])(N([H])C(=O)C([H])(N([H])C([H])([H])[H])C([H])([H])[H])C(C([H])([H])[H])(C([H])([H])[H])C([H])([H])[H])C([H])(C(=O)N([H])C2([H])c4c([H])c([H])c([H])c([H])c4C([H])([H])C([H])([H])C2([H])[H])C3([H])[H])C([H])([H])C([H])([H])[N+]1([H])C([H])([H])C([H])([H])c1c(N([H])C(=O)N2C([H])([H])C([H])([H])C([H])([H])C([H])(n3nc(-c4c([H])c([H])c(Oc5c([H])c([H])c(F)c([H])c5F)c([H])c4[H])c(C(=O)N([H])[H])c3N([H])[H])C2([H])[H])c([H])c([H])c([H])c1C([H])([H])[H]

>  <smiles>  (84) 
[H]C([H])=C1C([H])([H])C([H])(Oc2c([H])c([H])c3c(c2[H])C([H])([H])N(C(=O)C([H])(N([H])C(=O)C([H])(N([H])C([H])([H])[H])C([H])([H])[H])C(C([H])([H])[H])(C([H])([H])[H])C([H])([H])[H])C([H])(C(=O)N([H])C2([H])c4c([H])c([H])c([H])c([H])c4C([H])([H])C([H])([H])C2([H])[H])C3([H])[H])C([H])([H])C([H])([H])[N+]1([H])C([H])([H])C([H])([H])c1c(N([H])C(=O)N2C([H])([H])C([H])([H])C([H])([H])C([H])(n3nc(-c4c([H])c([H])c(Oc5c([H])c([H])c(F)c([H])c5F)c([H])c4[H])c(C(=O)N([H])[H])c3N([H])[H])C2([H])[H])c([H])c([H])c([H])c1C([H])([H])[H]

$$$$
84:0:0
     RDKit          3D

 93101  0  0  1  0  0  0  0  0999 V2000
  -29.4850  -23.0700   21.0610 C   0  0  0  0  0  0  0  0  0  0  0  0
  -28.1960  -21.8620   19.3290 C   0  0  0  0  0  1  0  0  0  0  0  0
  -28.9980  -21.9000   20.5570 N   0  0  0  0  0  0  0  0  0  0  0  0
  -30.0290  -23.1160   22.1700 O   0  0  0  0  0  0  0  0  0  0  0  0
  -29.1280  -20.5840   21.2500 C   0  0  0  0  0  2  0  0  0  0  0  0
  -30.7060  -19.7600   19.4120 C   0  0  0  0  0  3  0  0  0  0  0  0
  -31.2770  -18.7330   18.6480 C   0  0  0  0  0  3  0  0  0  0  0  0
  -29.6220  -18.0820   20.8040 C   0  0  0  0  0  3  0  0  0  0  0  0
  -29.8310  -19.4520   20.4710 C   0  0  0  0  0  0  0  0  0  0  0  0
  -31.0000  -17.3770   18.9170 C   0  0  0  0  0  0  0  0  0  0  0  0
  -30.2190  -17.0220   20.0630 C   0  0  0  0  0  0  0  0  0  0  0  0
  -31.4990  -16.3840   17.8770 C   0  0  0  0  0  1  0  0  0  0  0  0
  -30.6910  -14.5540   20.3830 C   0  0  0  0  0  0  0  0  0  0  0  0
  -30.4100  -12.3600   19.3260 C   0  0  0  0  0  2  0  0  0  0  0  0
  -29.4840  -12.5430   18.1050 C   0  0  0  0  0  2  0  0  0  0  0  0
  -28.0050  -12.4090   18.5180 C   0  0  0  0  0  2  0  0  0  0  0  0
  -27.6460  -13.2660   19.7610 C   0  0  0  0  0  3  0  0  0  0  0  0
  -28.6920  -13.0930   20.8850 C   0  0  0  0  0  2  0  0  0  0  0  0
  -30.0190  -13.3730   20.3170 N   0  0  0  0  0  0  0  0  0  0  0  0
  -31.8990  -14.6310   20.1610 O   0  0  0  0  0  0  0  0  0  0  0  0
  -29.9130  -15.6620   20.4500 N   0  0  0  0  0  0  0  0  0  0  0  0
  -28.9680  -15.4940   20.7580 H   0  0  0  0  0  0  0  0  0  0  0  0
  -25.2380  -13.8710   20.4310 C   0  0  0  0  0  0  0  0  0  0  0  0
  -24.1680  -13.1000   20.7960 C   0  0  0  0  0  0  0  0  0  0  0  0
  -24.6380  -11.7510   20.7980 C   0  0  0  0  0  0  0  0  0  0  0  0
  -26.2900  -12.9920   20.2300 N   0  0  0  0  0  0  0  0  0  0  0  0
  -25.9330  -11.7130   20.5130 N   0  0  0  0  0  0  0  0  0  0  0  0
  -23.9150  -10.4880   20.9980 C   0  0  0  0  0  0  0  0  0  0  0  0
  -24.3440   -9.5320   21.9450 C   0  0  0  0  0  3  0  0  0  0  0  0
  -23.6250   -8.3310   22.1280 C   0  0  0  0  0  3  0  0  0  0  0  0
  -22.4590   -8.0790   21.3650 C   0  0  0  0  0  0  0  0  0  0  0  0
  -22.0520   -9.0230   20.4050 C   0  0  0  0  0  3  0  0  0  0  0  0
  -22.7730  -10.2150   20.2200 C   0  0  0  0  0  3  0  0  0  0  0  0
  -21.7110   -6.9310   21.4600 O   0  0  0  0  0  0  0  0  0  0  0  0
  -21.6610   -6.1940   22.6160 C   0  0  0  0  0  0  0  0  0  0  0  0
  -21.2340   -6.7560   23.8390 C   0  0  0  0  0  3  0  0  0  0  0  0
  -21.1350   -5.9470   24.9890 C   0  0  0  0  0  3  0  0  0  0  0  0
  -21.4520   -4.5760   24.9150 C   0  0  0  0  0  0  0  0  0  0  0  0
  -21.8720   -4.0150   23.6960 C   0  0  0  0  0  3  0  0  0  0  0  0
  -21.9730   -4.8220   22.5500 C   0  0  0  0  0  0  0  0  0  0  0  0
  -22.3600   -4.2710   21.3730 F   0  0  0  0  0  0  0  0  0  0  0  0
  -21.3500   -3.7960   26.0170 F   0  0  0  0  0  0  0  0  0  0  0  0
  -22.7640  -13.5710   21.0350 C   0  0  0  0  0  0  0  0  0  0  0  0
  -22.0280  -12.8820   21.8990 N   0  0  0  0  0  0  0  0  0  0  0  0
  -22.3270  -14.5840   20.4900 O   0  0  0  0  0  0  0  0  0  0  0  0
  -22.3970  -12.0620   22.3560 H   0  0  0  0  0  0  0  0  0  0  0  0
  -21.0810  -13.1730   22.1010 H   0  0  0  0  0  0  0  0  0  0  0  0
  -25.4010  -15.2400   20.2290 N   0  0  0  0  0  0  0  0  0  0  0  0
  -24.6320  -15.8960   20.3010 H   0  0  0  0  0  0  0  0  0  0  0  0
  -26.2470  -15.6690   19.8790 H   0  0  0  0  0  0  0  0  0  0  0  0
  -29.4270  -24.3900   20.2430 C   0  0  0  0  0  2  0  0  0  0  0  0
  -28.2170  -25.3020   20.5780 C   0  0  0  0  0  2  0  0  0  0  0  0
  -28.3690  -26.6710   20.1260 O   0  0  0  0  0  0  0  0  0  0  0  0
  -24.5970  -31.8920   23.2270 C   0  0  0  0  0  0  0  0  0  0  0  0
  -27.2150  -27.4360   20.1290 C   0  0  0  0  0  0  0  0  0  0  0  0
  -23.3800  -30.4920   21.5950 C   0  0  0  0  0  3  0  0  0  0  0  0
  -24.8260  -28.9600   20.1530 C   0  0  0  0  0  0  0  0  0  0  0  0
  -25.9040  -30.8490   21.3760 C   0  0  0  0  0  2  0  0  0  0  0  0
  -25.9880  -29.4760   20.7360 C   0  0  0  0  0  0  0  0  0  0  0  0
  -27.1900  -28.7230   20.7170 C   0  0  0  0  0  3  0  0  0  0  0  0
  -26.0360  -26.9500   19.5200 C   0  0  0  0  0  3  0  0  0  0  0  0
  -24.8460  -27.6980   19.5350 C   0  0  0  0  0  3  0  0  0  0  0  0
  -23.5770  -29.8130   20.2130 C   0  0  0  0  0  2  0  0  0  0  0  0
  -24.6460  -31.0940   22.1240 N   0  0  0  0  0  0  0  0  0  0  0  0
  -23.5200  -32.1640   23.7750 O   0  0  0  0  0  0  0  0  0  0  0  0
  -22.7340  -29.4720   22.5600 C   0  0  0  0  0  0  0  0  0  0  0  0
  -21.4090  -29.2900   22.4400 N   0  0  0  0  0  0  0  0  0  0  0  0
  -23.4220  -28.8470   23.3720 O   0  0  0  0  0  0  0  0  0  0  0  0
  -20.9160  -29.8520   21.7600 H   0  0  0  0  0  0  0  0  0  0  0  0
  -18.0380  -28.0790   22.9380 C   0  0  0  0  0  0  0  0  0  0  0  0
  -20.5960  -28.3490   23.2100 C   0  0  0  0  0  3  0  0  0  0  0  0
  -20.7040  -26.9160   22.6370 C   0  0  0  0  0  2  0  0  0  0  0  0
  -19.6030  -26.5880   21.6240 C   0  0  0  0  0  2  0  0  0  0  0  0
  -18.2220  -26.7290   22.2690 C   0  0  0  0  0  2  0  0  0  0  0  0
  -19.1540  -28.8470   23.3660 C   0  0  0  0  0  0  0  0  0  0  0  0
  -18.9320  -30.1120   23.9530 C   0  0  0  0  0  3  0  0  0  0  0  0
  -17.6260  -30.6090   24.1200 C   0  0  0  0  0  3  0  0  0  0  0  0
  -16.5230  -29.8390   23.7080 C   0  0  0  0  0  3  0  0  0  0  0  0
  -16.7320  -28.5770   23.1230 C   0  0  0  0  0  3  0  0  0  0  0  0
  -25.8880  -32.5210   23.8410 C   0  0  0  0  0  3  0  0  0  0  0  0
  -26.4160  -31.7440   25.1090 C   0  0  1  0  0  0  0  0  0  0  0  0
  -25.3320  -31.5020   26.1870 C   0  0  0  0  0  1  0  0  0  0  0  0
  -26.9930  -30.3670   24.7070 C   0  0  0  0  0  1  0  0  0  0  0  0
  -27.5730  -32.5330   25.7650 C   0  0  0  0  0  1  0  0  0  0  0  0
  -25.5810  -33.9180   24.1770 N   0  0  0  0  0  0  0  0  0  0  0  0
  -25.9110  -34.9740   23.4200 C   0  0  0  0  0  0  0  0  0  0  0  0
  -26.5800  -34.8720   22.3880 O   0  0  0  0  0  0  0  0  0  0  0  0
  -24.9760  -34.0680   24.9720 H   0  0  0  0  0  0  0  0  0  0  0  0
  -24.1840  -36.7730   23.0770 C   0  0  0  0  0  1  0  0  0  0  0  0
  -25.4260  -36.3620   23.8810 C   0  0  0  0  0  3  0  0  0  0  0  0
  -27.5660  -37.2390   24.7080 C   0  0  0  0  0  1  0  0  0  0  0  0
  -26.4600  -37.4130   23.7690 N   0  0  0  0  0  0  0  0  0  0  0  0
  -26.0570  -38.3330   23.9240 H   0  0  0  0  0  0  0  0  0  0  0  0
  1  4  2  0
  2  3  1  0
  3  1  1  0
  3  5  1  0
  6  9  1  0
  7 10  1  0
  7  6  2  0
  9  8  2  0
  9  5  1  0
 10 11  2  0
 11 21  1  0
 11  8  1  0
 12 10  1  0
 13 21  1  0
 14 19  1  0
 15 16  1  0
 15 14  1  0
 17 16  1  0
 17 26  1  0
 17 18  1  0
 19 13  1  0
 19 18  1  0
 20 13  2  0
 21 22  1  0
 23 24  2  0
 24 25  1  0
 24 43  1  0
 25 28  1  0
 26 23  1  0
 26 27  1  0
 27 25  2  0
 28 29  1  0
 29 30  2  0
 31 34  1  0
 31 30  1  0
 32 31  2  0
 33 32  1  0
 33 28  2  0
 34 35  1  0
 35 36  1  0
 36 37  2  0
 38 37  1  0
 38 42  1  0
 39 38  2  0
 40 35  2  0
 40 39  1  0
 41 40  1  0
 43 44  1  0
 44 47  1  0
 44 46  1  0
 45 43  2  0
 48 49  1  0
 48 23  1  0
 50 48  1  0
 51 52  1  0
 51  1  1  0
 53 55  1  0
 53 52  1  0
 54 65  2  0
 55 60  1  0
 56 64  1  0
 56 66  1  0
 57 63  1  0
 57 59  1  0
 58 64  1  0
 59 58  1  0
 60 59  2  0
 61 62  1  0
 61 55  2  0
 62 57  2  0
 63 56  1  0
 64 54  1  0
 66 68  2  0
 67 66  1  0
 69 67  1  0
 70 79  2  0
 70 75  1  0
 71 67  1  0
 71 75  1  0
 72 71  1  0
 73 74  1  0
 73 72  1  0
 74 70  1  0
 75 76  2  0
 76 77  1  0
 78 77  2  0
 79 78  1  0
 80 54  1  0
 80 85  1  0
 80 81  1  0
 81 84  1  1
 81 82  1  0
 83 81  1  0
 85 88  1  0
 86 90  1  0
 86 85  1  0
 87 86  2  0
 90 89  1  0
 92 90  1  0
 92 93  1  0
 92 91  1  0
M  ISO  4  13 100  21 100  52 101  53 101
M  END
>  <TORSDO>  (85) 
F 20

>  <SCORE>  (85) 
-13.900

>  <name>  (85) 
84

>  <ligand_id>  (85) 
84

>  <original_smiles>  (85) 
[H]c1c([H])c([H])c2c(c1[H])C([H])([H])C([H])([H])C([H])([H])C2([H])N([H])C(=O)C1([H])N(C(=O)C([H])(N([H])C(=O)C([H])(N([H])C([H])([H])[H])C([H])([H])[H])C(C([H])([H])[H])(C([H])([H])[H])C([H])([H])[H])C([H])([H])c2c([H])c(OC([H])([H])C([H])([H])C(=O)N(C([H])([H])[H])C([H])([H])c3c([H])c([H])c(C([H])([H])[H])c(N([H])C(=O)N4C([H])([H])C([H])([H])C([H])([H])C([H])(n5nc(-c6c([H])c([H])c(Oc7c([H])c([H])c(F)c([H])c7F)c([H])c6[H])c(C(=O)N([H])[H])c5N([H])[H])C4([H])[H])c3[H])c([H])c([H])c2C1([H])[H]

>  <smiles>  (85) 
[H]c1c([H])c([H])c2c(c1[H])C([H])([H])C([H])([H])C([H])([H])C2([H])N([H])C(=O)C1([H])N(C(=O)C([H])(N([H])C(=O)C([H])(N([H])C([H])([H])[H])C([H])([H])[H])C(C([H])([H])[H])(C([H])([H])[H])C([H])([H])[H])C([H])([H])c2c([H])c(OC([H])([H])C([H])([H])C(=O)N(C([H])([H])[H])C([H])([H])c3c([H])c([H])c(C([H])([H])[H])c(N([H])C(=O)N4C([H])([H])C([H])([H])C([H])([H])C([H])(n5nc(-c6c([H])c([H])c(Oc7c([H])c([H])c(F)c([H])c7F)c([H])c6[H])c(C(=O)N([H])[H])c5N([H])[H])C4([H])[H])c3[H])c([H])c([H])c2C1([H])[H]

$$$$
85:0:0
     RDKit          3D

 92100  0  0  1  0  0  0  0  0999 V2000
  -28.7950  -21.1480   19.8350 C   0  0  0  0  0  2  0  0  0  0  0  0
  -30.3100  -20.0320   21.6160 C   0  0  0  0  0  3  0  0  0  0  0  0
  -30.9120  -18.9260   22.2490 C   0  0  0  0  0  3  0  0  0  0  0  0
  -29.2050  -18.4740   20.1140 C   0  0  0  0  0  3  0  0  0  0  0  0
  -29.4250  -19.8560   20.5350 C   0  0  0  0  0  0  0  0  0  0  0  0
  -29.8350  -17.3090   20.7300 C   0  0  0  0  0  0  0  0  0  0  0  0
  -30.6800  -17.5940   21.8390 C   0  0  0  0  0  0  0  0  0  0  0  0
  -31.3920  -16.3460   22.8050 Cl  0  0  0  0  0  0  0  0  0  0  0  0
  -30.3310  -14.8040   20.0490 C   0  0  0  0  0  0  0  0  0  0  0  0
  -30.0940  -12.5930   18.8920 C   0  0  0  0  0  2  0  0  0  0  0  0
  -29.0600  -12.7120   17.7510 C   0  0  0  0  0  2  0  0  0  0  0  0
  -27.6310  -12.4860   18.2830 C   0  0  0  0  0  2  0  0  0  0  0  0
  -27.3370  -13.2990   19.5710 C   0  0  0  0  0  3  0  0  0  0  0  0
  -28.4790  -13.1580   20.6010 C   0  0  0  0  0  2  0  0  0  0  0  0
  -29.7180  -13.5760   19.9330 N   0  0  0  0  0  0  0  0  0  0  0  0
  -31.4890  -14.9490   19.6470 O   0  0  0  0  0  0  0  0  0  0  0  0
  -29.5280  -15.8970   20.3570 N   0  0  0  0  0  0  0  0  0  0  0  0
  -28.5480  -15.6650   20.3870 H   0  0  0  0  0  0  0  0  0  0  0  0
  -24.9920  -13.8130   20.4770 C   0  0  0  0  0  0  0  0  0  0  0  0
  -23.9720  -13.0020   20.8930 C   0  0  0  0  0  0  0  0  0  0  0  0
  -24.4620  -11.6640   20.7900 C   0  0  0  0  0  0  0  0  0  0  0  0
  -26.0370  -12.9660   20.1430 N   0  0  0  0  0  0  0  0  0  0  0  0
  -25.7290  -11.6670   20.3950 N   0  0  0  0  0  0  0  0  0  0  0  0
  -23.7800  -10.3790   20.9880 C   0  0  0  0  0  0  0  0  0  0  0  0
  -24.2710   -9.4130   21.8940 C   0  0  0  0  0  3  0  0  0  0  0  0
  -23.5850   -8.1940   22.0810 C   0  0  0  0  0  3  0  0  0  0  0  0
  -22.3960   -7.9310   21.3620 C   0  0  0  0  0  0  0  0  0  0  0  0
  -21.9240   -8.8860   20.4440 C   0  0  0  0  0  3  0  0  0  0  0  0
  -22.6100  -10.0970   20.2550 C   0  0  0  0  0  3  0  0  0  0  0  0
  -21.6770   -6.7630   21.4590 O   0  0  0  0  0  0  0  0  0  0  0  0
  -21.6720   -6.0160   22.6090 C   0  0  0  0  0  0  0  0  0  0  0  0
  -21.2360   -6.5490   23.8420 C   0  0  0  0  0  3  0  0  0  0  0  0
  -21.1800   -5.7270   24.9850 C   0  0  0  0  0  3  0  0  0  0  0  0
  -21.5500   -4.3710   24.8960 C   0  0  0  0  0  0  0  0  0  0  0  0
  -21.9800   -3.8370   23.6680 C   0  0  0  0  0  3  0  0  0  0  0  0
  -22.0370   -4.6560   22.5270 C   0  0  0  0  0  0  0  0  0  0  0  0
  -22.4310   -4.1320   21.3420 F   0  0  0  0  0  0  0  0  0  0  0  0
  -21.4900   -3.5790   25.9910 F   0  0  0  0  0  0  0  0  0  0  0  0
  -22.5850  -13.4360   21.2690 C   0  0  0  0  0  0  0  0  0  0  0  0
  -21.9320  -12.6980   22.1610 N   0  0  0  0  0  0  0  0  0  0  0  0
  -22.0900  -14.4640   20.8100 O   0  0  0  0  0  0  0  0  0  0  0  0
  -22.3460  -11.8650   22.5520 H   0  0  0  0  0  0  0  0  0  0  0  0
  -21.0040  -12.9700   22.4540 H   0  0  0  0  0  0  0  0  0  0  0  0
  -25.1090  -15.1910   20.3280 N   0  0  0  0  0  0  0  0  0  0  0  0
  -24.3320  -15.8170   20.5090 H   0  0  0  0  0  0  0  0  0  0  0  0
  -25.9040  -15.6640   19.9180 H   0  0  0  0  0  0  0  0  0  0  0  0
  -28.5560  -23.7800   19.9370 C   0  0  0  0  0  0  0  0  0  0  0  0
  -28.7310  -22.5230   20.5110 N   0  0  0  0  0  0  0  0  0  0  0  0
  -28.6240  -23.9090   18.7130 O   0  0  0  0  0  0  0  0  0  0  0  0
  -28.6830  -22.5010   21.5210 H   0  0  0  0  0  0  0  0  0  0  0  0
  -28.1980  -25.0800   20.8140 C   0  0  0  0  0  2  0  0  0  0  0  0
  -28.3580  -26.4530   20.2140 O   0  0  0  0  0  0  0  0  0  0  0  0
  -24.6150  -31.9290   23.2180 C   0  0  0  0  0  0  0  0  0  0  0  0
  -27.2520  -27.3300   20.2080 C   0  0  0  0  0  0  0  0  0  0  0  0
  -23.4260  -30.5210   21.5750 C   0  0  0  0  0  3  0  0  0  0  0  0
  -24.8900  -28.9600   20.1670 C   0  0  0  0  0  0  0  0  0  0  0  0
  -25.9670  -30.8370   21.4070 C   0  0  0  0  0  2  0  0  0  0  0  0
  -26.0580  -29.4510   20.7680 C   0  0  0  0  0  0  0  0  0  0  0  0
  -27.2440  -28.6520   20.7700 C   0  0  0  0  0  3  0  0  0  0  0  0
  -26.0640  -26.8980   19.5860 C   0  0  0  0  0  3  0  0  0  0  0  0
  -24.8980  -27.6900   19.5650 C   0  0  0  0  0  3  0  0  0  0  0  0
  -23.6520  -29.8360   20.2010 C   0  0  0  0  0  2  0  0  0  0  0  0
  -24.6890  -31.1140   22.1230 N   0  0  0  0  0  0  0  0  0  0  0  0
  -23.5270  -32.2080   23.7440 O   0  0  0  0  0  0  0  0  0  0  0  0
  -22.7570  -29.5100   22.5360 C   0  0  0  0  0  0  0  0  0  0  0  0
  -21.4290  -29.3420   22.4130 N   0  0  0  0  0  0  0  0  0  0  0  0
  -23.4320  -28.8760   23.3540 O   0  0  0  0  0  0  0  0  0  0  0  0
  -20.9420  -29.9030   21.7280 H   0  0  0  0  0  0  0  0  0  0  0  0
  -18.0420  -28.1780   22.9360 C   0  0  0  0  0  0  0  0  0  0  0  0
  -20.6060  -28.4080   23.1830 C   0  0  0  0  0  3  0  0  0  0  0  0
  -20.6860  -26.9780   22.5960 C   0  0  0  0  0  2  0  0  0  0  0  0
  -19.5720  -26.6780   21.5880 C   0  0  0  0  0  2  0  0  0  0  0  0
  -18.1970  -26.8340   22.2460 C   0  0  0  0  0  2  0  0  0  0  0  0
  -19.1740  -28.9250   23.3610 C   0  0  0  0  0  0  0  0  0  0  0  0
  -18.9740  -30.1850   23.9650 C   0  0  0  0  0  3  0  0  0  0  0  0
  -17.6770  -30.6990   24.1490 C   0  0  0  0  0  3  0  0  0  0  0  0
  -16.5600  -29.9490   23.7400 C   0  0  0  0  0  3  0  0  0  0  0  0
  -16.7440  -28.6900   23.1390 C   0  0  0  0  0  3  0  0  0  0  0  0
  -25.8920  -32.5680   23.8470 C   0  0  0  0  0  3  0  0  0  0  0  0
  -26.4020  -31.8030   25.1300 C   0  0  1  0  0  0  0  0  0  0  0  0
  -25.3000  -31.5660   26.1900 C   0  0  0  0  0  1  0  0  0  0  0  0
  -26.9940  -30.4270   24.7480 C   0  0  0  0  0  1  0  0  0  0  0  0
  -27.5430  -32.6040   25.7980 C   0  0  0  0  0  1  0  0  0  0  0  0
  -25.5750  -33.9670   24.1730 N   0  0  0  0  0  0  0  0  0  0  0  0
  -25.9100  -35.0200   23.4170 C   0  0  0  0  0  0  0  0  0  0  0  0
  -26.5860  -34.9180   22.3900 O   0  0  0  0  0  0  0  0  0  0  0  0
  -24.9770  -34.1180   24.9730 H   0  0  0  0  0  0  0  0  0  0  0  0
  -24.1850  -36.8150   23.0480 C   0  0  0  0  0  1  0  0  0  0  0  0
  -25.4180  -36.4090   23.8720 C   0  0  0  0  0  3  0  0  0  0  0  0
  -27.5410  -37.2960   24.7310 C   0  0  0  0  0  1  0  0  0  0  0  0
  -26.4520  -37.4620   23.7720 N   0  0  0  0  0  0  0  0  0  0  0  0
  -26.0440  -38.3830   23.9130 H   0  0  0  0  0  0  0  0  0  0  0  0
  1 48  1  0
  1  5  1  0
  2  3  1  0
  4  5  1  0
  4  6  2  0
  5  2  2  0
  6  7  1  0
  7  3  2  0
  7  8  1  0
  9 17  1  0
 10 15  1  0
 11 12  1  0
 11 10  1  0
 13 12  1  0
 13 22  1  0
 13 14  1  0
 15  9  1  0
 15 14  1  0
 16  9  2  0
 17 18  1  0
 17  6  1  0
 19 20  2  0
 20 39  1  0
 21 20  1  0
 21 24  1  0
 22 23  1  0
 22 19  1  0
 23 21  2  0
 24 25  1  0
 25 26  2  0
 27 30  1  0
 27 26  1  0
 28 27  2  0
 29 28  1  0
 29 24  2  0
 30 31  1  0
 31 32  1  0
 32 33  2  0
 34 33  1  0
 34 38  1  0
 35 34  2  0
 36 31  2  0
 36 35  1  0
 37 36  1  0
 39 40  1  0
 40 43  1  0
 40 42  1  0
 41 39  2  0
 44 19  1  0
 44 45  1  0
 46 44  1  0
 47 48  1  0
 47 51  1  0
 48 50  1  0
 49 47  2  0
 52 51  1  0
 53 64  2  0
 54 52  1  0
 54 59  1  0
 55 63  1  0
 55 65  1  0
 56 62  1  0
 56 58  1  0
 57 63  1  0
 58 59  2  0
 58 57  1  0
 60 54  2  0
 61 60  1  0
 61 56  2  0
 62 55  1  0
 63 53  1  0
 65 67  2  0
 66 65  1  0
 68 66  1  0
 69 78  2  0
 69 74  1  0
 70 66  1  0
 70 74  1  0
 71 70  1  0
 72 73  1  0
 72 71  1  0
 73 69  1  0
 74 75  2  0
 75 76  1  0
 77 76  2  0
 78 77  1  0
 79 53  1  0
 79 84  1  0
 79 80  1  0
 80 83  1  1
 80 81  1  0
 82 80  1  0
 84 87  1  0
 85 89  1  0
 85 84  1  0
 86 85  2  0
 89 88  1  0
 91 89  1  0
 91 92  1  0
 91 90  1  0
M  ISO  4   9 100  17 100  51 101  52 101
M  END
>  <TORSDO>  (86) 
F 19

>  <SCORE>  (86) 
-13.367

>  <name>  (86) 
85

>  <ligand_id>  (86) 
85

>  <original_smiles>  (86) 
[H]c1c([H])c([H])c2c(c1[H])C([H])([H])C([H])([H])C([H])([H])C2([H])N([H])C(=O)C1([H])N(C(=O)C([H])(N([H])C(=O)C([H])(N([H])C([H])([H])[H])C([H])([H])[H])C(C([H])([H])[H])(C([H])([H])[H])C([H])([H])[H])C([H])([H])c2c([H])c(OC([H])([H])C(=O)N([H])C([H])([H])c3c([H])c([H])c(Cl)c(N([H])C(=O)N4C([H])([H])C([H])([H])C([H])([H])C([H])(n5nc(-c6c([H])c([H])c(Oc7c([H])c([H])c(F)c([H])c7F)c([H])c6[H])c(C(=O)N([H])[H])c5N([H])[H])C4([H])[H])c3[H])c([H])c([H])c2C1([H])[H]

>  <smiles>  (86) 
[H]c1c([H])c([H])c2c(c1[H])C([H])([H])C([H])([H])C([H])([H])C2([H])N([H])C(=O)C1([H])N(C(=O)C([H])(N([H])C(=O)C([H])(N([H])C([H])([H])[H])C([H])([H])[H])C(C([H])([H])[H])(C([H])([H])[H])C([H])([H])[H])C([H])([H])c2c([H])c(OC([H])([H])C(=O)N([H])C([H])([H])c3c([H])c([H])c(Cl)c(N([H])C(=O)N4C([H])([H])C([H])([H])C([H])([H])C([H])(n5nc(-c6c([H])c([H])c(Oc7c([H])c([H])c(F)c([H])c7F)c([H])c6[H])c(C(=O)N([H])[H])c5N([H])[H])C4([H])[H])c3[H])c([H])c([H])c2C1([H])[H]

$$$$
86:0:0
     RDKit          3D

 92100  0  0  1  0  0  0  0  0999 V2000
  -29.5590  -21.1670   19.7590 C   0  0  0  0  0  2  0  0  0  0  0  0
  -31.0840  -17.4720   21.7950 C   0  0  0  0  0  3  0  0  0  0  0  0
  -31.1580  -18.7440   22.4020 C   0  0  0  0  0  3  0  0  0  0  0  0
  -29.9180  -18.4960   19.9260 C   0  0  0  0  0  3  0  0  0  0  0  0
  -30.0180  -19.8300   20.5090 C   0  0  0  0  0  0  0  0  0  0  0  0
  -30.4570  -17.2960   20.5430 C   0  0  0  0  0  0  0  0  0  0  0  0
  -30.6540  -19.9040   21.7690 C   0  0  0  0  0  0  0  0  0  0  0  0
  -30.8100  -21.1000   22.3840 F   0  0  0  0  0  0  0  0  0  0  0  0
  -31.0280  -14.7890   19.9880 C   0  0  0  0  0  0  0  0  0  0  0  0
  -30.7470  -12.5200   18.9640 C   0  0  0  0  0  2  0  0  0  0  0  0
  -29.7540  -12.6160   17.7820 C   0  0  0  0  0  2  0  0  0  0  0  0
  -28.3000  -12.4790   18.2760 C   0  0  0  0  0  2  0  0  0  0  0  0
  -27.9970  -13.3890   19.4950 C   0  0  0  0  0  3  0  0  0  0  0  0
  -29.1000  -13.2450   20.5660 C   0  0  0  0  0  2  0  0  0  0  0  0
  -30.3760  -13.5800   19.9220 N   0  0  0  0  0  0  0  0  0  0  0  0
  -32.2210  -14.8740   19.6830 O   0  0  0  0  0  0  0  0  0  0  0  0
  -30.2200  -15.9150   20.0720 N   0  0  0  0  0  0  0  0  0  0  0  0
  -29.2430  -15.6930   19.9750 H   0  0  0  0  0  0  0  0  0  0  0  0
  -25.6640  -14.0670   20.3260 C   0  0  0  0  0  0  0  0  0  0  0  0
  -24.5870  -13.3300   20.7300 C   0  0  0  0  0  0  0  0  0  0  0  0
  -24.9930  -11.9620   20.6650 C   0  0  0  0  0  0  0  0  0  0  0  0
  -26.6630  -13.1500   20.0370 N   0  0  0  0  0  0  0  0  0  0  0  0
  -26.2690  -11.8780   20.3050 N   0  0  0  0  0  0  0  0  0  0  0  0
  -24.2250  -10.7270   20.8670 C   0  0  0  0  0  0  0  0  0  0  0  0
  -24.6220   -9.7560   21.8110 C   0  0  0  0  0  3  0  0  0  0  0  0
  -23.8570   -8.5850   22.0000 C   0  0  0  0  0  3  0  0  0  0  0  0
  -22.6790   -8.3770   21.2420 C   0  0  0  0  0  0  0  0  0  0  0  0
  -22.3000   -9.3370   20.2870 C   0  0  0  0  0  3  0  0  0  0  0  0
  -23.0660  -10.4980   20.0980 C   0  0  0  0  0  3  0  0  0  0  0  0
  -21.8840   -7.2610   21.3450 O   0  0  0  0  0  0  0  0  0  0  0  0
  -21.7710   -6.5630   22.5220 C   0  0  0  0  0  0  0  0  0  0  0  0
  -21.2760   -7.1640   23.6990 C   0  0  0  0  0  3  0  0  0  0  0  0
  -21.1070   -6.3920   24.8660 C   0  0  0  0  0  3  0  0  0  0  0  0
  -21.4240   -5.0210   24.8570 C   0  0  0  0  0  0  0  0  0  0  0  0
  -21.9110   -4.4200   23.6830 C   0  0  0  0  0  3  0  0  0  0  0  0
  -22.0820   -5.1890   22.5180 C   0  0  0  0  0  0  0  0  0  0  0  0
  -22.5330   -4.6000   21.3840 F   0  0  0  0  0  0  0  0  0  0  0  0
  -21.2550   -4.2760   25.9740 F   0  0  0  0  0  0  0  0  0  0  0  0
  -23.2190  -13.8600   21.0550 C   0  0  0  0  0  0  0  0  0  0  0  0
  -22.5010  -13.1890   21.9490 N   0  0  0  0  0  0  0  0  0  0  0  0
  -22.8000  -14.9010   20.5540 O   0  0  0  0  0  0  0  0  0  0  0  0
  -22.8500  -12.3460   22.3800 H   0  0  0  0  0  0  0  0  0  0  0  0
  -21.5840  -13.5270   22.2070 H   0  0  0  0  0  0  0  0  0  0  0  0
  -25.8740  -15.4310   20.1500 N   0  0  0  0  0  0  0  0  0  0  0  0
  -25.1420  -16.1190   20.3000 H   0  0  0  0  0  0  0  0  0  0  0  0
  -26.7080  -15.8260   19.7400 H   0  0  0  0  0  0  0  0  0  0  0  0
  -29.2430  -23.7380   20.2350 C   0  0  0  0  0  0  0  0  0  0  0  0
  -27.6530  -22.0750   21.1240 C   0  0  0  0  0  1  0  0  0  0  0  0
  -28.9150  -22.3910   20.4390 N   0  0  0  0  0  0  0  0  0  0  0  0
  -30.3010  -24.0620   19.6820 O   0  0  0  0  0  0  0  0  0  0  0  0
  -28.2090  -24.9090   20.6100 C   0  0  0  0  0  2  0  0  0  0  0  0
  -28.5690  -26.3710   20.4410 O   0  0  0  0  0  0  0  0  0  0  0  0
  -24.7460  -31.9110   23.2300 C   0  0  0  0  0  0  0  0  0  0  0  0
  -27.4810  -27.2770   20.3450 C   0  0  0  0  0  0  0  0  0  0  0  0
  -23.6080  -30.4600   21.5950 C   0  0  0  0  0  3  0  0  0  0  0  0
  -25.1150  -28.9070   20.2390 C   0  0  0  0  0  0  0  0  0  0  0  0
  -26.1540  -30.8000   21.4760 C   0  0  0  0  0  2  0  0  0  0  0  0
  -26.2680  -29.4060   20.8590 C   0  0  0  0  0  0  0  0  0  0  0  0
  -27.4570  -28.6030   20.8990 C   0  0  0  0  0  3  0  0  0  0  0  0
  -26.3030  -26.8650   19.6750 C   0  0  0  0  0  3  0  0  0  0  0  0
  -25.1370  -27.6470   19.6330 C   0  0  0  0  0  3  0  0  0  0  0  0
  -23.8690  -29.7660   20.2360 C   0  0  0  0  0  2  0  0  0  0  0  0
  -24.8530  -31.0780   22.1560 N   0  0  0  0  0  0  0  0  0  0  0  0
  -23.6440  -32.1860   23.7280 O   0  0  0  0  0  0  0  0  0  0  0  0
  -22.9380  -29.4510   22.5610 C   0  0  0  0  0  0  0  0  0  0  0  0
  -21.6220  -29.2340   22.3960 N   0  0  0  0  0  0  0  0  0  0  0  0
  -23.6030  -28.8640   23.4180 O   0  0  0  0  0  0  0  0  0  0  0  0
  -21.1450  -29.7630   21.6820 H   0  0  0  0  0  0  0  0  0  0  0  0
  -18.2630  -27.9460   22.8020 C   0  0  0  0  0  0  0  0  0  0  0  0
  -20.7980  -28.2980   23.1650 C   0  0  0  0  0  3  0  0  0  0  0  0
  -20.9690  -26.8510   22.6490 C   0  0  0  0  0  2  0  0  0  0  0  0
  -19.9210  -26.4560   21.6040 C   0  0  0  0  0  2  0  0  0  0  0  0
  -18.5090  -26.5780   22.1860 C   0  0  0  0  0  2  0  0  0  0  0  0
  -19.3370  -28.7600   23.2460 C   0  0  0  0  0  0  0  0  0  0  0  0
  -19.0540  -30.0370   23.7780 C   0  0  0  0  0  3  0  0  0  0  0  0
  -17.7290  -30.4960   23.8780 C   0  0  0  0  0  3  0  0  0  0  0  0
  -16.6670  -29.6820   23.4470 C   0  0  0  0  0  3  0  0  0  0  0  0
  -16.9350  -28.4100   22.9110 C   0  0  0  0  0  3  0  0  0  0  0  0
  -26.0010  -32.5800   23.8700 C   0  0  0  0  0  3  0  0  0  0  0  0
  -26.5090  -31.8350   25.1660 C   0  0  1  0  0  0  0  0  0  0  0  0
  -25.3970  -31.5800   26.2080 C   0  0  0  0  0  1  0  0  0  0  0  0
  -27.1430  -30.4710   24.8070 C   0  0  0  0  0  1  0  0  0  0  0  0
  -27.6160  -32.6730   25.8500 C   0  0  0  0  0  1  0  0  0  0  0  0
  -25.6520  -33.9740   24.1820 N   0  0  0  0  0  0  0  0  0  0  0  0
  -25.9650  -35.0300   23.4200 C   0  0  0  0  0  0  0  0  0  0  0  0
  -26.6540  -34.9380   22.4010 O   0  0  0  0  0  0  0  0  0  0  0  0
  -25.0410  -34.1200   24.9740 H   0  0  0  0  0  0  0  0  0  0  0  0
  -24.2020  -36.7810   23.0180 C   0  0  0  0  0  1  0  0  0  0  0  0
  -25.4330  -36.4090   23.8580 C   0  0  0  0  0  3  0  0  0  0  0  0
  -27.5240  -37.3560   24.7320 C   0  0  0  0  0  1  0  0  0  0  0  0
  -26.4430  -37.4880   23.7590 N   0  0  0  0  0  0  0  0  0  0  0  0
  -26.0100  -38.4000   23.8830 H   0  0  0  0  0  0  0  0  0  0  0  0
  1 49  1  0
  1  5  1  0
  2  3  1  0
  4  5  2  0
  4  6  1  0
  5  7  1  0
  6  2  2  0
  7  8  1  0
  7  3  2  0
  9 17  1  0
 10 15  1  0
 11 12  1  0
 11 10  1  0
 13 12  1  0
 13 22  1  0
 13 14  1  0
 15  9  1  0
 15 14  1  0
 16  9  2  0
 17  6  1  0
 18 17  1  0
 19 20  2  0
 20 39  1  0
 21 20  1  0
 21 24  1  0
 22 23  1  0
 22 19  1  0
 23 21  2  0
 24 25  1  0
 25 26  2  0
 27 30  1  0
 27 26  1  0
 28 27  2  0
 29 28  1  0
 29 24  2  0
 30 31  1  0
 31 32  1  0
 32 33  2  0
 34 33  1  0
 34 38  1  0
 35 34  2  0
 36 31  2  0
 36 35  1  0
 37 36  1  0
 39 40  1  0
 40 43  1  0
 40 42  1  0
 41 39  2  0
 44 45  1  0
 44 19  1  0
 46 44  1  0
 47 49  1  0
 47 51  1  0
 49 48  1  0
 50 47  2  0
 52 51  1  0
 53 64  2  0
 54 52  1  0
 54 59  1  0
 55 63  1  0
 55 65  1  0
 56 58  1  0
 57 63  1  0
 58 59  2  0
 58 57  1  0
 60 54  2  0
 61 60  1  0
 61 56  2  0
 62 56  1  0
 62 55  1  0
 63 53  1  0
 65 67  2  0
 66 65  1  0
 68 66  1  0
 69 78  2  0
 69 74  1  0
 70 66  1  0
 70 74  1  0
 71 70  1  0
 72 73  1  0
 72 71  1  0
 73 69  1  0
 74 75  2  0
 75 76  1  0
 77 76  2  0
 78 77  1  0
 79 53  1  0
 79 84  1  0
 79 80  1  0
 80 83  1  1
 80 81  1  0
 82 80  1  0
 84 87  1  0
 85 89  1  0
 85 84  1  0
 86 85  2  0
 89 88  1  0
 91 89  1  0
 91 92  1  0
 91 90  1  0
M  ISO  4   9 100  17 100  51 101  52 101
M  END
>  <TORSDO>  (87) 
F 19

>  <SCORE>  (87) 
-13.974

>  <name>  (87) 
86

>  <ligand_id>  (87) 
86

>  <original_smiles>  (87) 
[H]c1c([H])c([H])c2c(c1[H])C([H])([H])C([H])([H])C([H])([H])C2([H])N([H])C(=O)C1([H])N(C(=O)C([H])(N([H])C(=O)C([H])(N([H])C([H])([H])[H])C([H])([H])[H])C(C([H])([H])[H])(C([H])([H])[H])C([H])([H])[H])C([H])([H])c2c([H])c(OC([H])([H])C(=O)N(C([H])([H])[H])C([H])([H])c3c([H])c(N([H])C(=O)N4C([H])([H])C([H])([H])C([H])([H])C([H])(n5nc(-c6c([H])c([H])c(Oc7c([H])c([H])c(F)c([H])c7F)c([H])c6[H])c(C(=O)N([H])[H])c5N([H])[H])C4([H])[H])c([H])c([H])c3F)c([H])c([H])c2C1([H])[H]

>  <smiles>  (87) 
[H]c1c([H])c([H])c2c(c1[H])C([H])([H])C([H])([H])C([H])([H])C2([H])N([H])C(=O)C1([H])N(C(=O)C([H])(N([H])C(=O)C([H])(N([H])C([H])([H])[H])C([H])([H])[H])C(C([H])([H])[H])(C([H])([H])[H])C([H])([H])[H])C([H])([H])c2c([H])c(OC([H])([H])C(=O)N(C([H])([H])[H])C([H])([H])c3c([H])c(N([H])C(=O)N4C([H])([H])C([H])([H])C([H])([H])C([H])(n5nc(-c6c([H])c([H])c(Oc7c([H])c([H])c(F)c([H])c7F)c([H])c6[H])c(C(=O)N([H])[H])c5N([H])[H])C4([H])[H])c([H])c([H])c3F)c([H])c([H])c2C1([H])[H]

$$$$
87:0:0
     RDKit          3D

 93101  0  0  1  0  0  0  0  0999 V2000
  -28.0720  -18.6810   20.6280 C   0  0  0  0  0  2  0  0  0  0  0  0
  -27.4830  -15.8220   21.6650 C   0  0  0  0  0  3  0  0  0  0  0  0
  -27.6370  -14.1930   21.9770 C   0  0  0  0  0  3  0  0  0  0  0  0
  -28.6190  -14.3710   19.0800 C   0  0  0  0  0  2  0  0  0  0  0  0
  -27.8680  -16.8000   20.4230 C   0  0  0  0  0  3  0  0  0  0  0  0
  -28.4360  -15.9500   19.2150 C   0  0  0  0  0  3  0  0  0  0  0  0
  -28.2510  -13.1530   20.7620 C   0  0  0  0  0  3  0  0  0  0  0  0
  -28.3840  -11.8160   21.0050 F   0  0  0  0  0  0  0  0  0  0  0  0
  -29.6930  -16.4850   18.5390 C   0  0  0  0  0  2  0  0  0  0  0  0
  -31.2870  -14.3460   19.0340 C   0  0  0  0  0  0  0  0  0  0  0  0
  -30.0270  -12.2770   18.3130 C   0  0  0  0  0  2  0  0  0  0  0  0
  -28.4390  -12.1390   17.4130 C   0  0  0  0  0  3  0  0  0  0  0  0
  -26.8120  -12.8660   17.7860 C   0  0  0  0  0  3  0  0  0  0  0  0
  -26.5010  -14.0730   19.2440 C   0  0  0  0  0  2  0  0  0  0  0  0
  -29.5180  -14.3110   20.5610 C   0  0  0  0  0  3  0  0  0  0  0  0
  -30.4930  -13.3900   19.5400 N   0  0  0  0  0  0  0  0  0  0  0  0
  -32.3420  -14.0220   18.5890 O   0  0  0  0  0  0  0  0  0  0  0  0
  -30.9430  -15.6700   18.8050 N   0  0  0  0  0  0  0  0  0  0  0  0
  -31.7640  -16.1730   18.5000 H   0  0  0  0  0  0  0  0  0  0  0  0
  -24.4470  -13.8160   20.4510 C   0  0  0  0  0  0  0  0  0  0  0  0
  -23.6600  -12.8550   20.9490 C   0  0  0  0  0  0  0  0  0  0  0  0
  -24.2920  -11.5870   20.7500 C   0  0  0  0  0  0  0  0  0  0  0  0
  -25.4500  -13.1880   19.8660 N   0  0  0  0  0  0  0  0  0  0  0  0
  -25.4650  -11.8120   20.1560 N   0  0  0  0  0  0  0  0  0  0  0  0
  -23.7240  -10.2350   20.9680 C   0  0  0  0  0  0  0  0  0  0  0  0
  -24.2590   -9.2710   21.8580 C   0  0  0  0  0  3  0  0  0  0  0  0
  -23.5920   -8.0370   22.0730 C   0  0  0  0  0  3  0  0  0  0  0  0
  -22.3770   -7.7540   21.4000 C   0  0  0  0  0  0  0  0  0  0  0  0
  -21.8650   -8.7030   20.5000 C   0  0  0  0  0  3  0  0  0  0  0  0
  -22.5310   -9.9200   20.2840 C   0  0  0  0  0  3  0  0  0  0  0  0
  -21.6670   -6.5810   21.5150 O   0  0  0  0  0  0  0  0  0  0  0  0
  -21.6650   -5.8380   22.6680 C   0  0  0  0  0  0  0  0  0  0  0  0
  -21.2620   -6.3820   23.9070 C   0  0  0  0  0  3  0  0  0  0  0  0
  -21.2090   -5.5620   25.0520 C   0  0  0  0  0  3  0  0  0  0  0  0
  -21.5500   -4.1980   24.9600 C   0  0  0  0  0  0  0  0  0  0  0  0
  -21.9410   -3.6520   23.7250 C   0  0  0  0  0  3  0  0  0  0  0  0
  -21.9930   -4.4690   22.5810 C   0  0  0  0  0  0  0  0  0  0  0  0
  -22.3480   -3.9320   21.3900 F   0  0  0  0  0  0  0  0  0  0  0  0
  -21.4980   -3.4100   26.0590 F   0  0  0  0  0  0  0  0  0  0  0  0
  -22.3000  -13.1760   21.4070 C   0  0  0  0  0  0  0  0  0  0  0  0
  -21.7720  -12.4060   22.3390 N   0  0  0  0  0  0  0  0  0  0  0  0
  -21.7310  -14.1770   20.9690 O   0  0  0  0  0  0  0  0  0  0  0  0
  -22.2730  -11.6070   22.6970 H   0  0  0  0  0  0  0  0  0  0  0  0
  -20.8520  -12.6110   22.7010 H   0  0  0  0  0  0  0  0  0  0  0  0
  -24.3800  -15.2010   20.3830 N   0  0  0  0  0  0  0  0  0  0  0  0
  -23.6020  -15.7250   20.7660 H   0  0  0  0  0  0  0  0  0  0  0  0
  -25.1390  -15.7810   20.0490 H   0  0  0  0  0  0  0  0  0  0  0  0
  -28.0920  -21.8520   20.2620 C   0  0  0  0  0  0  0  0  0  0  0  0
  -27.7920  -20.3340   19.9630 N   0  0  0  0  0  0  0  0  0  0  0  0
  -28.8730  -21.9710   21.2080 O   0  0  0  0  0  0  0  0  0  0  0  0
  -27.1830  -20.2740   19.1570 H   0  0  0  0  0  0  0  0  0  0  0  0
  -27.5760  -23.5550   19.6190 C   0  0  0  0  0  2  0  0  0  0  0  0
  -27.9840  -25.2650   19.9320 O   0  0  0  0  0  0  0  0  0  0  0  0
  -24.6870  -31.6200   22.9430 C   0  0  0  0  0  0  0  0  0  0  0  0
  -27.1550  -26.5790   19.8450 C   0  0  0  0  0  0  0  0  0  0  0  0
  -23.5170  -30.2460   21.2810 C   0  0  0  0  0  3  0  0  0  0  0  0
  -24.9670  -28.6690   19.8040 C   0  0  0  0  0  0  0  0  0  0  0  0
  -26.0950  -30.4060   21.1630 C   0  0  0  0  0  2  0  0  0  0  0  0
  -26.1570  -28.9890   20.4660 C   0  0  0  0  0  0  0  0  0  0  0  0
  -27.2470  -27.9660   20.4620 C   0  0  0  0  0  3  0  0  0  0  0  0
  -25.9690  -26.5100   19.0890 C   0  0  0  0  0  3  0  0  0  0  0  0
  -24.9180  -27.4670   19.0850 C   0  0  0  0  0  3  0  0  0  0  0  0
  -23.7590  -29.6100   19.8830 C   0  0  0  0  0  2  0  0  0  0  0  0
  -24.7920  -30.7920   21.8460 N   0  0  0  0  0  0  0  0  0  0  0  0
  -23.5900  -31.8870   23.4630 O   0  0  0  0  0  0  0  0  0  0  0  0
  -22.8340  -29.2180   22.2250 C   0  0  0  0  0  0  0  0  0  0  0  0
  -21.4990  -29.0600   22.1260 N   0  0  0  0  0  0  0  0  0  0  0  0
  -23.5130  -28.5680   23.0220 O   0  0  0  0  0  0  0  0  0  0  0  0
  -21.0000  -29.6370   21.4630 H   0  0  0  0  0  0  0  0  0  0  0  0
  -18.1270  -27.8460   22.7110 C   0  0  0  0  0  0  0  0  0  0  0  0
  -20.6970  -28.0930   22.8830 C   0  0  0  0  0  3  0  0  0  0  0  0
  -20.7670  -26.6890   22.2370 C   0  0  0  0  0  2  0  0  0  0  0  0
  -19.6240  -26.4200   21.2530 C   0  0  0  0  0  2  0  0  0  0  0  0
  -18.2700  -26.5350   21.9570 C   0  0  0  0  0  2  0  0  0  0  0  0
  -19.2660  -28.5840   23.1320 C   0  0  0  0  0  0  0  0  0  0  0  0
  -19.0730  -29.8100   23.8060 C   0  0  0  0  0  3  0  0  0  0  0  0
  -17.7760  -30.2990   24.0570 C   0  0  0  0  0  3  0  0  0  0  0  0
  -16.6540  -29.5590   23.6470 C   0  0  0  0  0  3  0  0  0  0  0  0
  -16.8300  -28.3330   22.9810 C   0  0  0  0  0  3  0  0  0  0  0  0
  -25.9380  -32.2840   23.5920 C   0  0  0  0  0  3  0  0  0  0  0  0
  -26.4800  -31.4870   24.8440 C   0  0  1  0  0  0  0  0  0  0  0  0
  -25.3970  -31.1870   25.9090 C   0  0  0  0  0  1  0  0  0  0  0  0
  -27.1000  -30.1380   24.4220 C   0  0  0  0  0  1  0  0  0  0  0  0
  -27.6100  -32.2930   25.5260 C   0  0  0  0  0  1  0  0  0  0  0  0
  -25.5700  -33.6560   23.9960 N   0  0  0  0  0  0  0  0  0  0  0  0
  -25.8580  -34.7700   23.3090 C   0  0  0  0  0  0  0  0  0  0  0  0
  -26.5180  -34.7530   22.2690 O   0  0  0  0  0  0  0  0  0  0  0  0
  -24.9760  -33.7390   24.8080 H   0  0  0  0  0  0  0  0  0  0  0  0
  -24.0620  -36.5280   23.1040 C   0  0  0  0  0  1  0  0  0  0  0  0
  -25.3350  -36.1140   23.8610 C   0  0  0  0  0  3  0  0  0  0  0  0
  -27.4520  -37.0340   24.7020 C   0  0  0  0  0  1  0  0  0  0  0  0
  -26.3260  -37.2100   23.7890 N   0  0  0  0  0  0  0  0  0  0  0  0
  -25.8900  -38.1050   23.9930 H   0  0  0  0  0  0  0  0  0  0  0  0
  2  3  2  0
  4  6  1  0
  5  1  1  0
  5  2  1  0
  6  9  1  0
  6  5  1  0
  7  8  1  0
  7  3  1  0
  9 18  1  0
 10 16  1  0
 11 16  1  0
 12 13  2  0
 12 11  1  0
 13 14  1  0
 14 23  1  0
 15  4  1  0
 15  7  1  0
 16 15  1  0
 17 10  2  0
 18 10  1  0
 19 18  1  0
 20 21  2  0
 21 40  1  0
 22 21  1  0
 22 25  1  0
 23 24  1  0
 23 20  1  0
 24 22  2  0
 25 26  1  0
 26 27  2  0
 28 31  1  0
 28 27  1  0
 29 28  2  0
 30 29  1  0
 30 25  2  0
 31 32  1  0
 32 33  1  0
 33 34  2  0
 35 34  1  0
 35 39  1  0
 36 35  2  0
 37 32  2  0
 37 36  1  0
 38 37  1  0
 40 41  1  0
 41 43  1  0
 41 44  1  0
 42 40  2  0
 45 20  1  0
 45 46  1  0
 47 45  1  0
 48 50  2  0
 49 48  1  0
 49  1  1  0
 51 49  1  0
 52 53  1  0
 52 48  1  0
 54 65  2  0
 55 53  1  0
 55 60  1  0
 56 64  1  0
 56 66  1  0
 57 63  1  0
 57 59  1  0
 58 64  1  0
 59 58  1  0
 60 59  2  0
 61 55  2  0
 62 61  1  0
 62 57  2  0
 63 56  1  0
 64 54  1  0
 66 68  2  0
 67 66  1  0
 69 67  1  0
 70 79  2  0
 70 75  1  0
 71 67  1  0
 71 75  1  0
 72 71  1  0
 73 74  1  0
 73 72  1  0
 74 70  1  0
 75 76  2  0
 76 77  1  0
 78 77  2  0
 79 78  1  0
 80 54  1  0
 80 85  1  0
 80 81  1  0
 81 84  1  1
 81 82  1  0
 83 81  1  0
 85 88  1  0
 86 90  1  0
 86 85  1  0
 87 86  2  0
 90 89  1  0
 92 90  1  0
 92 93  1  0
 92 91  1  0
M  ISO  4  10 100  18 100  52 101  53 101
M  END
>  <TORSDO>  (88) 
F 20

>  <SCORE>  (88) 
-10.680

>  <name>  (88) 
87

>  <ligand_id>  (88) 
87

>  <original_smiles>  (88) 
[H]c1c([H])c([H])c2c(c1[H])C([H])([H])C([H])([H])C([H])([H])C2([H])N([H])C(=O)C1([H])N(C(=O)C([H])(N([H])C(=O)C([H])(N([H])C([H])([H])[H])C([H])([H])[H])C(C([H])([H])[H])(C([H])([H])[H])C([H])([H])[H])C([H])([H])c2c([H])c(OC([H])([H])C(=O)N([H])C([H])([H])c3c([H])c([H])c(F)c([H])c3C([H])([H])N([H])C(=O)N3C([H])([H])C([H])([H])C([H])([H])C([H])(n4nc(-c5c([H])c([H])c(Oc6c([H])c([H])c(F)c([H])c6F)c([H])c5[H])c(C(=O)N([H])[H])c4N([H])[H])C3([H])[H])c([H])c([H])c2C1([H])[H]

>  <smiles>  (88) 
[H]c1c([H])c([H])c2c(c1[H])C([H])([H])C([H])([H])C([H])([H])C2([H])N([H])C(=O)C1([H])N(C(=O)C([H])(N([H])C(=O)C([H])(N([H])C([H])([H])[H])C([H])([H])[H])C(C([H])([H])[H])(C([H])([H])[H])C([H])([H])[H])C([H])([H])c2c([H])c(OC([H])([H])C(=O)N([H])C([H])([H])c3c([H])c([H])c(F)c([H])c3C([H])([H])N([H])C(=O)N3C([H])([H])C([H])([H])C([H])([H])C([H])(n4nc(-c5c([H])c([H])c(Oc6c([H])c([H])c(F)c([H])c6F)c([H])c5[H])c(C(=O)N([H])[H])c4N([H])[H])C3([H])[H])c([H])c([H])c2C1([H])[H]

$$$$
88:0:0
     RDKit          3D

 96105  0  0  1  0  0  0  0  0999 V2000
  -29.1830  -22.4420   21.8920 C   0  0  0  0  0  0  0  0  0  0  0  0
  -28.5160  -23.8370   21.8530 C   0  0  0  0  0  2  0  0  0  0  0  0
  -29.5100  -24.2680   19.6310 C   0  0  0  0  0  2  0  0  0  0  0  0
  -30.2310  -22.8910   19.6780 C   0  0  0  0  0  2  0  0  0  0  0  0
  -29.3120  -24.8700   21.0310 C   0  0  0  0  0  3  0  0  0  0  0  0
  -29.9100  -22.0100   20.8270 N   0  0  0  0  0  0  0  0  0  0  0  0
  -29.0260  -21.7520   22.9030 O   0  0  0  0  0  0  0  0  0  0  0  0
  -30.6720  -20.7220   20.8560 C   0  0  0  0  0  2  0  0  0  0  0  0
  -27.8990  -18.2690   19.8010 C   0  0  0  0  0  3  0  0  0  0  0  0
  -28.6340  -19.4420   20.0140 C   0  0  0  0  0  3  0  0  0  0  0  0
  -28.4550  -17.0240   20.1250 C   0  0  0  0  0  3  0  0  0  0  0  0
  -29.9330  -19.3920   20.5690 C   0  0  0  0  0  0  0  0  0  0  0  0
  -30.5170  -18.1050   20.8520 C   0  0  0  0  0  0  0  0  0  0  0  0
  -29.7670  -16.9060   20.6170 C   0  0  0  0  0  0  0  0  0  0  0  0
  -30.6970  -14.6480   20.1480 C   0  0  0  0  0  0  0  0  0  0  0  0
  -30.3550  -12.4530   19.0420 C   0  0  0  0  0  2  0  0  0  0  0  0
  -29.3580  -12.6040   17.8730 C   0  0  0  0  0  2  0  0  0  0  0  0
  -27.9060  -12.4500   18.3670 C   0  0  0  0  0  2  0  0  0  0  0  0
  -27.6130  -13.3290   19.6080 C   0  0  0  0  0  3  0  0  0  0  0  0
  -28.7160  -13.1640   20.6830 C   0  0  0  0  0  2  0  0  0  0  0  0
  -30.0250  -13.4600   20.0690 N   0  0  0  0  0  0  0  0  0  0  0  0
  -31.7300  -14.8650   19.5070 O   0  0  0  0  0  0  0  0  0  0  0  0
  -30.1720  -15.5740   20.9820 N   0  0  0  0  0  0  0  0  0  0  0  0
  -29.4990  -15.1240   21.5830 H   0  0  0  0  0  0  0  0  0  0  0  0
  -25.2640  -13.9770   20.4570 C   0  0  0  0  0  0  0  0  0  0  0  0
  -24.2060  -13.2210   20.8830 C   0  0  0  0  0  0  0  0  0  0  0  0
  -24.6360  -11.8620   20.7990 C   0  0  0  0  0  0  0  0  0  0  0  0
  -26.2790  -13.0800   20.1530 N   0  0  0  0  0  0  0  0  0  0  0  0
  -25.9050  -11.8020   20.4160 N   0  0  0  0  0  0  0  0  0  0  0  0
  -23.8940  -10.6130   21.0020 C   0  0  0  0  0  0  0  0  0  0  0  0
  -24.3460   -9.6230   21.9020 C   0  0  0  0  0  3  0  0  0  0  0  0
  -23.6030   -8.4390   22.0930 C   0  0  0  0  0  3  0  0  0  0  0  0
  -22.3950   -8.2370   21.3840 C   0  0  0  0  0  0  0  0  0  0  0  0
  -21.9600   -9.2150   20.4740 C   0  0  0  0  0  3  0  0  0  0  0  0
  -22.7040  -10.3910   20.2800 C   0  0  0  0  0  3  0  0  0  0  0  0
  -21.6230   -7.1040   21.4870 O   0  0  0  0  0  0  0  0  0  0  0  0
  -21.6160   -6.3380   22.6250 C   0  0  0  0  0  0  0  0  0  0  0  0
  -21.2510   -6.8730   23.8790 C   0  0  0  0  0  3  0  0  0  0  0  0
  -21.1900   -6.0360   25.0110 C   0  0  0  0  0  3  0  0  0  0  0  0
  -21.4820   -4.6640   24.8890 C   0  0  0  0  0  0  0  0  0  0  0  0
  -21.8410   -4.1300   23.6400 C   0  0  0  0  0  3  0  0  0  0  0  0
  -21.9040   -4.9640   22.5100 C   0  0  0  0  0  0  0  0  0  0  0  0
  -22.2300   -4.4380   21.3040 F   0  0  0  0  0  0  0  0  0  0  0  0
  -21.4160   -3.8580   25.9740 F   0  0  0  0  0  0  0  0  0  0  0  0
  -22.8370  -13.7230   21.2430 C   0  0  0  0  0  0  0  0  0  0  0  0
  -22.1460  -13.0350   22.1460 N   0  0  0  0  0  0  0  0  0  0  0  0
  -22.3890  -14.7630   20.7610 O   0  0  0  0  0  0  0  0  0  0  0  0
  -22.5180  -12.1930   22.5600 H   0  0  0  0  0  0  0  0  0  0  0  0
  -21.2310  -13.3570   22.4270 H   0  0  0  0  0  0  0  0  0  0  0  0
  -25.4240  -15.3450   20.2750 N   0  0  0  0  0  0  0  0  0  0  0  0
  -24.6460  -15.9840   20.3970 H   0  0  0  0  0  0  0  0  0  0  0  0
  -26.1860  -15.7530   19.7530 H   0  0  0  0  0  0  0  0  0  0  0  0
  -31.9240  -18.0650   22.9720 C   0  0  0  0  0  1  0  0  0  0  0  0
  -31.9210  -18.0070   21.4410 C   0  0  0  0  0  2  0  0  0  0  0  0
  -28.7340  -26.3310   21.0760 C   0  0  0  0  0  2  0  0  0  0  0  0
  -28.0560  -26.7340   19.8790 O   0  0  0  0  0  0  0  0  0  0  0  0
  -24.4850  -32.0010   23.2280 C   0  0  0  0  0  0  0  0  0  0  0  0
  -26.9440  -27.5430   20.0080 C   0  0  0  0  0  0  0  0  0  0  0  0
  -23.1940  -30.6250   21.6290 C   0  0  0  0  0  3  0  0  0  0  0  0
  -24.5710  -29.0850   20.1300 C   0  0  0  0  0  0  0  0  0  0  0  0
  -25.7130  -30.9550   21.3260 C   0  0  0  0  0  2  0  0  0  0  0  0
  -25.7600  -29.5840   20.6820 C   0  0  0  0  0  0  0  0  0  0  0  0
  -26.9510  -28.8160   20.6310 C   0  0  0  0  0  3  0  0  0  0  0  0
  -25.7460  -27.0710   19.4390 C   0  0  0  0  0  3  0  0  0  0  0  0
  -24.5590  -27.8240   19.5090 C   0  0  0  0  0  3  0  0  0  0  0  0
  -23.3380  -29.9560   20.2360 C   0  0  0  0  0  2  0  0  0  0  0  0
  -24.4840  -31.2090   22.1180 N   0  0  0  0  0  0  0  0  0  0  0  0
  -23.4320  -32.2780   23.8190 O   0  0  0  0  0  0  0  0  0  0  0  0
  -22.5750  -29.6010   22.6080 C   0  0  0  0  0  0  0  0  0  0  0  0
  -21.2520  -29.3900   22.4990 N   0  0  0  0  0  0  0  0  0  0  0  0
  -23.2800  -29.0000   23.4220 O   0  0  0  0  0  0  0  0  0  0  0  0
  -20.7420  -29.9270   21.8120 H   0  0  0  0  0  0  0  0  0  0  0  0
  -17.9210  -28.0860   23.0120 C   0  0  0  0  0  0  0  0  0  0  0  0
  -20.4650  -28.4450   23.2910 C   0  0  0  0  0  3  0  0  0  0  0  0
  -20.6240  -27.0030   22.7540 C   0  0  0  0  0  2  0  0  0  0  0  0
  -19.5410  -26.6140   21.7430 C   0  0  0  0  0  2  0  0  0  0  0  0
  -18.1500  -26.7260   22.3740 C   0  0  0  0  0  2  0  0  0  0  0  0
  -19.0080  -28.9000   23.4280 C   0  0  0  0  0  0  0  0  0  0  0  0
  -18.7410  -30.1690   23.9830 C   0  0  0  0  0  3  0  0  0  0  0  0
  -17.4180  -30.6270   24.1270 C   0  0  0  0  0  3  0  0  0  0  0  0
  -16.3440  -29.8130   23.7280 C   0  0  0  0  0  3  0  0  0  0  0  0
  -16.5970  -28.5440   23.1750 C   0  0  0  0  0  3  0  0  0  0  0  0
  -25.8030  -32.6140   23.7940 C   0  0  0  0  0  3  0  0  0  0  0  0
  -26.3700  -31.8290   25.0400 C   0  0  1  0  0  0  0  0  0  0  0  0
  -25.3230  -31.5880   26.1520 C   0  0  0  0  0  1  0  0  0  0  0  0
  -26.9270  -30.4510   24.6100 C   0  0  0  0  0  1  0  0  0  0  0  0
  -27.5520  -32.6110   25.6590 C   0  0  0  0  0  1  0  0  0  0  0  0
  -25.5270  -34.0130   24.1430 N   0  0  0  0  0  0  0  0  0  0  0  0
  -25.8530  -35.0660   23.3820 C   0  0  0  0  0  0  0  0  0  0  0  0
  -26.4920  -34.9610   22.3320 O   0  0  0  0  0  0  0  0  0  0  0  0
  -24.9590  -34.1700   24.9640 H   0  0  0  0  0  0  0  0  0  0  0  0
  -24.1580  -36.8960   23.0710 C   0  0  0  0  0  1  0  0  0  0  0  0
  -25.4000  -36.4580   23.8620 C   0  0  0  0  0  3  0  0  0  0  0  0
  -27.5610  -37.2910   24.6790 C   0  0  0  0  0  1  0  0  0  0  0  0
  -26.4520  -37.4910   23.7490 N   0  0  0  0  0  0  0  0  0  0  0  0
  -26.0660  -38.4170   23.9120 H   0  0  0  0  0  0  0  0  0  0  0  0
  1  7  2  0
  2  1  1  0
  3  4  1  0
  3  5  1  0
  4  6  1  0
  5 55  1  0
  5  2  1  0
  6  8  1  0
  6  1  1  0
  9 10  2  0
  9 11  1  0
 10 12  1  0
 11 14  2  0
 12 13  2  0
 12  8  1  0
 13 54  1  0
 14 13  1  0
 14 23  1  0
 15 23  1  0
 16 21  1  0
 17 18  1  0
 17 16  1  0
 19 18  1  0
 19 28  1  0
 19 20  1  0
 21 15  1  0
 21 20  1  0
 22 15  2  0
 23 24  1  0
 25 26  2  0
 26 45  1  0
 27 26  1  0
 27 30  1  0
 28 29  1  0
 28 25  1  0
 29 27  2  0
 30 31  1  0
 31 32  2  0
 33 36  1  0
 33 32  1  0
 34 33  2  0
 35 34  1  0
 35 30  2  0
 36 37  1  0
 37 38  1  0
 38 39  2  0
 40 39  1  0
 40 44  1  0
 41 40  2  0
 42 37  2  0
 42 41  1  0
 43 42  1  0
 45 46  1  0
 46 49  1  0
 46 48  1  0
 47 45  2  0
 50 51  1  0
 50 25  1  0
 52 50  1  0
 54 53  1  0
 56 58  1  0
 56 55  1  0
 57 68  2  0
 58 63  1  0
 59 67  1  0
 59 69  1  0
 60 66  1  0
 60 62  1  0
 61 67  1  0
 62 61  1  0
 63 62  2  0
 64 65  1  0
 64 58  2  0
 65 60  2  0
 66 59  1  0
 67 57  1  0
 69 71  2  0
 70 69  1  0
 72 70  1  0
 73 82  2  0
 73 78  1  0
 74 70  1  0
 74 78  1  0
 75 74  1  0
 76 77  1  0
 76 75  1  0
 77 73  1  0
 78 79  2  0
 79 80  1  0
 81 80  2  0
 82 81  1  0
 83 57  1  0
 83 88  1  0
 83 84  1  0
 84 87  1  1
 84 85  1  0
 86 84  1  0
 88 91  1  0
 89 93  1  0
 89 88  1  0
 90 89  2  0
 93 92  1  0
 95 93  1  0
 95 96  1  0
 95 94  1  0
M  ISO  4  15 100  23 100  55 101  56 101
M  END
>  <TORSDO>  (89) 
F 20

>  <SCORE>  (89) 
-13.110

>  <name>  (89) 
88

>  <ligand_id>  (89) 
88

>  <original_smiles>  (89) 
[H]c1c([H])c(N([H])C(=O)N2C([H])([H])C([H])([H])C([H])([H])C([H])(n3nc(-c4c([H])c([H])c(Oc5c([H])c([H])c(F)c([H])c5F)c([H])c4[H])c(C(=O)N([H])[H])c3N([H])[H])C2([H])[H])c(C([H])([H])C([H])([H])[H])c(C([H])([H])N2C(=O)C([H])([H])C([H])(C([H])([H])Oc3c([H])c([H])c4c(c3[H])C([H])([H])N(C(=O)C([H])(N([H])C(=O)C([H])(N([H])C([H])([H])[H])C([H])([H])[H])C(C([H])([H])[H])(C([H])([H])[H])C([H])([H])[H])C([H])(C(=O)N([H])C3([H])c5c([H])c([H])c([H])c([H])c5C([H])([H])C([H])([H])C3([H])[H])C4([H])[H])C([H])([H])C2([H])[H])c1[H]

>  <smiles>  (89) 
[H]c1c([H])c(N([H])C(=O)N2C([H])([H])C([H])([H])C([H])([H])C([H])(n3nc(-c4c([H])c([H])c(Oc5c([H])c([H])c(F)c([H])c5F)c([H])c4[H])c(C(=O)N([H])[H])c3N([H])[H])C2([H])[H])c(C([H])([H])C([H])([H])[H])c(C([H])([H])N2C(=O)C([H])([H])C([H])(C([H])([H])Oc3c([H])c([H])c4c(c3[H])C([H])([H])N(C(=O)C([H])(N([H])C(=O)C([H])(N([H])C([H])([H])[H])C([H])([H])[H])C(C([H])([H])[H])(C([H])([H])[H])C([H])([H])[H])C([H])(C(=O)N([H])C3([H])c5c([H])c([H])c([H])c([H])c5C([H])([H])C([H])([H])C3([H])[H])C4([H])[H])C([H])([H])C2([H])[H])c1[H]

$$$$
89:0:0
     RDKit          3D

 94102  0  0  1  0  0  0  0  0999 V2000
  -29.7280  -17.4110   18.7940 C   0  0  0  0  0  3  0  0  0  0  0  0
  -29.7650  -18.7130   20.8300 C   0  0  0  0  0  3  0  0  0  0  0  0
  -29.4800  -18.5890   18.0570 C   0  0  0  0  0  0  0  0  0  0  0  0
  -29.5260  -19.9640   20.1180 C   0  0  0  0  0  0  0  0  0  0  0  0
  -29.3810  -19.8610   18.7010 C   0  0  0  0  0  0  0  0  0  0  0  0
  -29.8860  -17.4130   20.1910 C   0  0  0  0  0  0  0  0  0  0  0  0
  -29.1260  -21.1140   17.8670 C   0  0  0  0  0  1  0  0  0  0  0  0
  -30.7880  -15.0010   20.4670 C   0  0  0  0  0  0  0  0  0  0  0  0
  -30.6450  -12.7360   19.4300 C   0  0  0  0  0  2  0  0  0  0  0  0
  -29.7400  -12.8470   18.1820 C   0  0  0  0  0  2  0  0  0  0  0  0
  -28.2560  -12.6670   18.5630 C   0  0  0  0  0  2  0  0  0  0  0  0
  -27.8530  -13.5110   19.8030 C   0  0  0  0  0  3  0  0  0  0  0  0
  -28.8820  -13.3830   20.9470 C   0  0  0  0  0  2  0  0  0  0  0  0
  -30.1940  -13.7590   20.4060 N   0  0  0  0  0  0  0  0  0  0  0  0
  -31.9500  -15.1430   20.0760 O   0  0  0  0  0  0  0  0  0  0  0  0
  -30.0300  -16.0950   20.8570 N   0  0  0  0  0  0  0  0  0  0  0  0
  -29.2370  -15.8430   21.4290 H   0  0  0  0  0  0  0  0  0  0  0  0
  -25.4380  -14.0620   20.4720 C   0  0  0  0  0  0  0  0  0  0  0  0
  -24.3730  -13.2720   20.8090 C   0  0  0  0  0  0  0  0  0  0  0  0
  -24.8540  -11.9270   20.7740 C   0  0  0  0  0  0  0  0  0  0  0  0
  -26.4990  -13.1990   20.2510 N   0  0  0  0  0  0  0  0  0  0  0  0
  -26.1520  -11.9080   20.4970 N   0  0  0  0  0  0  0  0  0  0  0  0
  -24.1370  -10.6540   20.9350 C   0  0  0  0  0  0  0  0  0  0  0  0
  -24.5350   -9.6970   21.8940 C   0  0  0  0  0  3  0  0  0  0  0  0
  -23.8180   -8.4900   22.0440 C   0  0  0  0  0  3  0  0  0  0  0  0
  -22.6880   -8.2310   21.2320 C   0  0  0  0  0  0  0  0  0  0  0  0
  -22.3090   -9.1770   20.2640 C   0  0  0  0  0  3  0  0  0  0  0  0
  -23.0270  -10.3760   20.1130 C   0  0  0  0  0  3  0  0  0  0  0  0
  -21.9460   -7.0760   21.2890 O   0  0  0  0  0  0  0  0  0  0  0  0
  -21.8260   -6.3520   22.4480 C   0  0  0  0  0  0  0  0  0  0  0  0
  -21.2510   -6.9030   23.6150 C   0  0  0  0  0  3  0  0  0  0  0  0
  -21.0820   -6.1040   24.7620 C   0  0  0  0  0  3  0  0  0  0  0  0
  -21.4800   -4.7530   24.7430 C   0  0  0  0  0  0  0  0  0  0  0  0
  -22.0490   -4.2010   23.5820 C   0  0  0  0  0  3  0  0  0  0  0  0
  -22.2180   -4.9990   22.4370 C   0  0  0  0  0  0  0  0  0  0  0  0
  -22.7470   -4.4560   21.3130 F   0  0  0  0  0  0  0  0  0  0  0  0
  -21.3120   -3.9820   25.8430 F   0  0  0  0  0  0  0  0  0  0  0  0
  -22.9640  -13.7300   21.0510 C   0  0  0  0  0  0  0  0  0  0  0  0
  -22.2170  -13.0060   21.8750 N   0  0  0  0  0  0  0  0  0  0  0  0
  -22.5320  -14.7650   20.5440 O   0  0  0  0  0  0  0  0  0  0  0  0
  -22.5780  -12.1680   22.3070 H   0  0  0  0  0  0  0  0  0  0  0  0
  -21.2700  -13.2930   22.0780 H   0  0  0  0  0  0  0  0  0  0  0  0
  -25.5900  -15.4370   20.3130 N   0  0  0  0  0  0  0  0  0  0  0  0
  -24.8110  -16.0780   20.4120 H   0  0  0  0  0  0  0  0  0  0  0  0
  -26.4370  -15.8900   19.9940 H   0  0  0  0  0  0  0  0  0  0  0  0
  -27.9220  -18.8210   16.0570 C   0  0  0  0  0  1  0  0  0  0  0  0
  -29.3170  -18.4130   16.5490 C   0  0  0  0  0  2  0  0  0  0  0  0
  -29.5320  -21.3860   20.8700 C   0  0  0  0  0  2  0  0  0  0  0  0
  -29.0430  -23.9760   20.5910 C   0  0  0  0  0  0  0  0  0  0  0  0
  -28.7610  -22.6280   20.4090 N   0  0  0  0  0  0  0  0  0  0  0  0
  -30.0910  -24.3240   21.1390 O   0  0  0  0  0  0  0  0  0  0  0  0
  -27.8750  -22.4330   19.9640 H   0  0  0  0  0  0  0  0  0  0  0  0
  -28.0170  -25.1080   20.1100 C   0  0  0  0  0  2  0  0  0  0  0  0
  -28.3120  -26.5680   20.3790 O   0  0  0  0  0  0  0  0  0  0  0  0
  -24.6750  -32.0880   23.4110 C   0  0  0  0  0  0  0  0  0  0  0  0
  -27.2300  -27.4850   20.3180 C   0  0  0  0  0  0  0  0  0  0  0  0
  -23.4490  -30.6890   21.7920 C   0  0  0  0  0  3  0  0  0  0  0  0
  -24.8790  -29.1420   20.3380 C   0  0  0  0  0  0  0  0  0  0  0  0
  -25.9920  -30.9950   21.5760 C   0  0  0  0  0  2  0  0  0  0  0  0
  -26.0600  -29.6130   20.9250 C   0  0  0  0  0  0  0  0  0  0  0  0
  -27.2390  -28.7960   20.9080 C   0  0  0  0  0  3  0  0  0  0  0  0
  -26.0250  -27.0970   19.6850 C   0  0  0  0  0  3  0  0  0  0  0  0
  -24.8670  -27.8920   19.7080 C   0  0  0  0  0  3  0  0  0  0  0  0
  -23.6440  -30.0170   20.4080 C   0  0  0  0  0  2  0  0  0  0  0  0
  -24.7250  -31.2760   22.3140 N   0  0  0  0  0  0  0  0  0  0  0  0
  -23.5980  -32.3650   23.9600 O   0  0  0  0  0  0  0  0  0  0  0  0
  -22.8020  -29.6710   22.7610 C   0  0  0  0  0  0  0  0  0  0  0  0
  -21.4920  -29.4150   22.5900 N   0  0  0  0  0  0  0  0  0  0  0  0
  -23.4770  -29.1140   23.6310 O   0  0  0  0  0  0  0  0  0  0  0  0
  -21.0050  -29.9160   21.8590 H   0  0  0  0  0  0  0  0  0  0  0  0
  -18.1650  -28.0540   23.0080 C   0  0  0  0  0  0  0  0  0  0  0  0
  -20.6930  -28.4610   23.3630 C   0  0  0  0  0  3  0  0  0  0  0  0
  -20.8920  -27.0180   22.8460 C   0  0  0  0  0  2  0  0  0  0  0  0
  -19.8500  -26.6000   21.8030 C   0  0  0  0  0  2  0  0  0  0  0  0
  -18.4380  -26.6940   22.3890 C   0  0  0  0  0  2  0  0  0  0  0  0
  -19.2240  -28.8910   23.4500 C   0  0  0  0  0  0  0  0  0  0  0  0
  -18.9150  -30.1590   23.9880 C   0  0  0  0  0  3  0  0  0  0  0  0
  -17.5790  -30.5930   24.0880 C   0  0  0  0  0  3  0  0  0  0  0  0
  -16.5340  -29.7550   23.6630 C   0  0  0  0  0  3  0  0  0  0  0  0
  -16.8270  -28.4880   23.1280 C   0  0  0  0  0  3  0  0  0  0  0  0
  -25.9640  -32.7260   24.0130 C   0  0  0  0  0  3  0  0  0  0  0  0
  -26.4990  -31.9600   25.2850 C   0  0  1  0  0  0  0  0  0  0  0  0
  -25.3980  -31.6310   26.3210 C   0  0  0  0  0  1  0  0  0  0  0  0
  -27.1780  -30.6300   24.8830 C   0  0  0  0  0  1  0  0  0  0  0  0
  -27.5830  -32.8090   25.9890 C   0  0  0  0  0  1  0  0  0  0  0  0
  -25.6540  -34.1230   24.3450 N   0  0  0  0  0  0  0  0  0  0  0  0
  -25.9050  -35.1720   23.5510 C   0  0  0  0  0  0  0  0  0  0  0  0
  -26.4940  -35.0640   22.4710 O   0  0  0  0  0  0  0  0  0  0  0  0
  -25.1170  -34.2780   25.1870 H   0  0  0  0  0  0  0  0  0  0  0  0
  -24.0900  -36.9040   23.3600 C   0  0  0  0  0  1  0  0  0  0  0  0
  -25.4310  -36.5580   24.0280 C   0  0  0  0  0  3  0  0  0  0  0  0
  -27.6080  -37.5420   24.5950 C   0  0  0  0  0  1  0  0  0  0  0  0
  -26.4080  -37.6370   23.7680 N   0  0  0  0  0  0  0  0  0  0  0  0
  -25.9870  -38.5500   23.9230 H   0  0  0  0  0  0  0  0  0  0  0  0
  1  6  1  0
  3  5  1  0
  3  1  2  0
  4  2  1  0
  4 48  1  0
  5  4  2  0
  6  2  2  0
  6 16  1  0
  7  5  1  0
  8 16  1  0
  9 14  1  0
 10 11  1  0
 10  9  1  0
 12 11  1  0
 12 21  1  0
 12 13  1  0
 14  8  1  0
 14 13  1  0
 15  8  2  0
 16 17  1  0
 18 19  2  0
 19 38  1  0
 20 19  1  0
 20 23  1  0
 21 18  1  0
 21 22  1  0
 22 20  2  0
 23 24  1  0
 24 25  2  0
 26 29  1  0
 26 25  1  0
 27 26  2  0
 28 27  1  0
 28 23  2  0
 29 30  1  0
 30 31  1  0
 31 32  2  0
 33 32  1  0
 33 37  1  0
 34 33  2  0
 35 30  2  0
 35 34  1  0
 36 35  1  0
 38 39  1  0
 39 42  1  0
 39 41  1  0
 40 38  2  0
 43 44  1  0
 43 18  1  0
 45 43  1  0
 46 47  1  0
 47  3  1  0
 49 51  2  0
 50 49  1  0
 50 48  1  0
 52 50  1  0
 53 54  1  0
 53 49  1  0
 55 66  2  0
 56 54  1  0
 56 61  1  0
 57 65  1  0
 57 67  1  0
 58 64  1  0
 58 60  1  0
 59 65  1  0
 60 59  1  0
 61 60  2  0
 62 63  1  0
 62 56  2  0
 63 58  2  0
 64 57  1  0
 65 55  1  0
 67 69  2  0
 68 67  1  0
 70 68  1  0
 71 80  2  0
 71 76  1  0
 72 68  1  0
 72 76  1  0
 73 72  1  0
 74 75  1  0
 74 73  1  0
 75 71  1  0
 76 77  2  0
 77 78  1  0
 79 78  2  0
 80 79  1  0
 81 55  1  0
 81 86  1  0
 81 82  1  0
 82 85  1  1
 82 83  1  0
 84 82  1  0
 86 89  1  0
 87 91  1  0
 87 86  1  0
 88 87  2  0
 91 90  1  0
 93 94  1  0
 93 91  1  0
 93 92  1  0
M  ISO  4   8 100  16 100  53 101  54 101
M  END
>  <TORSDO>  (90) 
F 20

>  <SCORE>  (90) 
-13.737

>  <name>  (90) 
89

>  <ligand_id>  (90) 
89

>  <original_smiles>  (90) 
[H]c1c([H])c([H])c2c(c1[H])C([H])([H])C([H])([H])C([H])([H])C2([H])N([H])C(=O)C1([H])N(C(=O)C([H])(N([H])C(=O)C([H])(N([H])C([H])([H])[H])C([H])([H])[H])C(C([H])([H])[H])(C([H])([H])[H])C([H])([H])[H])C([H])([H])c2c([H])c(OC([H])([H])C(=O)N([H])C([H])([H])c3c([H])c(N([H])C(=O)N4C([H])([H])C([H])([H])C([H])([H])C([H])(n5nc(-c6c([H])c([H])c(Oc7c([H])c([H])c(F)c([H])c7F)c([H])c6[H])c(C(=O)N([H])[H])c5N([H])[H])C4([H])[H])c([H])c(C([H])([H])C([H])([H])[H])c3C([H])([H])[H])c([H])c([H])c2C1([H])[H]

>  <smiles>  (90) 
[H]c1c([H])c([H])c2c(c1[H])C([H])([H])C([H])([H])C([H])([H])C2([H])N([H])C(=O)C1([H])N(C(=O)C([H])(N([H])C(=O)C([H])(N([H])C([H])([H])[H])C([H])([H])[H])C(C([H])([H])[H])(C([H])([H])[H])C([H])([H])[H])C([H])([H])c2c([H])c(OC([H])([H])C(=O)N([H])C([H])([H])c3c([H])c(N([H])C(=O)N4C([H])([H])C([H])([H])C([H])([H])C([H])(n5nc(-c6c([H])c([H])c(Oc7c([H])c([H])c(F)c([H])c7F)c([H])c6[H])c(C(=O)N([H])[H])c5N([H])[H])C4([H])[H])c([H])c(C([H])([H])C([H])([H])[H])c3C([H])([H])[H])c([H])c([H])c2C1([H])[H]

$$$$
90:0:0
     RDKit          3D

 92100  0  0  1  0  0  0  0  0999 V2000
  -30.2710  -21.7270   20.4740 C   0  0  0  0  0  2  0  0  0  0  0  0
  -28.9120  -19.4760   20.7200 C   0  0  0  0  0  3  0  0  0  0  0  0
  -28.8450  -18.0480   20.7510 C   0  0  0  0  0  3  0  0  0  0  0  0
  -31.1260  -17.9030   20.0080 C   0  0  0  0  0  3  0  0  0  0  0  0
  -30.0950  -20.1600   20.3450 C   0  0  0  0  0  0  0  0  0  0  0  0
  -29.9510  -17.2160   20.4140 C   0  0  0  0  0  0  0  0  0  0  0  0
  -31.1950  -19.3290   19.9770 C   0  0  0  0  0  0  0  0  0  0  0  0
  -32.3640  -19.9010   19.5980 F   0  0  0  0  0  0  0  0  0  0  0  0
  -30.5930  -14.6970   20.1250 C   0  0  0  0  0  0  0  0  0  0  0  0
  -30.3260  -12.4860   19.0220 C   0  0  0  0  0  2  0  0  0  0  0  0
  -29.3390  -12.6730   17.8510 C   0  0  0  0  0  2  0  0  0  0  0  0
  -27.8760  -12.5320   18.3230 C   0  0  0  0  0  2  0  0  0  0  0  0
  -27.5800  -13.3300   19.6240 C   0  0  0  0  0  3  0  0  0  0  0  0
  -28.6880  -13.1250   20.6840 C   0  0  0  0  0  2  0  0  0  0  0  0
  -29.9710  -13.4770   20.0560 N   0  0  0  0  0  0  0  0  0  0  0  0
  -31.7470  -14.8450   19.7120 O   0  0  0  0  0  0  0  0  0  0  0  0
  -29.7970  -15.7550   20.4900 N   0  0  0  0  0  0  0  0  0  0  0  0
  -28.8840  -15.4530   20.7930 H   0  0  0  0  0  0  0  0  0  0  0  0
  -25.2150  -13.9140   20.4430 C   0  0  0  0  0  0  0  0  0  0  0  0
  -24.1650  -13.1340   20.8460 C   0  0  0  0  0  0  0  0  0  0  0  0
  -24.6240  -11.7840   20.7750 C   0  0  0  0  0  0  0  0  0  0  0  0
  -26.2500  -13.0380   20.1530 N   0  0  0  0  0  0  0  0  0  0  0  0
  -25.9010  -11.7510   20.4130 N   0  0  0  0  0  0  0  0  0  0  0  0
  -23.9040  -10.5200   20.9760 C   0  0  0  0  0  0  0  0  0  0  0  0
  -24.3540   -9.5510   21.9010 C   0  0  0  0  0  3  0  0  0  0  0  0
  -23.6310   -8.3530   22.0930 C   0  0  0  0  0  3  0  0  0  0  0  0
  -22.4450   -8.1150   21.3590 C   0  0  0  0  0  0  0  0  0  0  0  0
  -22.0130   -9.0710   20.4240 C   0  0  0  0  0  3  0  0  0  0  0  0
  -22.7350  -10.2610   20.2310 C   0  0  0  0  0  3  0  0  0  0  0  0
  -21.6940   -6.9680   21.4570 O   0  0  0  0  0  0  0  0  0  0  0  0
  -21.6470   -6.2380   22.6170 C   0  0  0  0  0  0  0  0  0  0  0  0
  -21.1920   -6.7950   23.8320 C   0  0  0  0  0  3  0  0  0  0  0  0
  -21.0940   -5.9890   24.9820 C   0  0  0  0  0  3  0  0  0  0  0  0
  -21.4420   -4.6270   24.9200 C   0  0  0  0  0  0  0  0  0  0  0  0
  -21.8880   -4.0690   23.7080 C   0  0  0  0  0  3  0  0  0  0  0  0
  -21.9880   -4.8730   22.5590 C   0  0  0  0  0  0  0  0  0  0  0  0
  -22.4000   -4.3260   21.3900 F   0  0  0  0  0  0  0  0  0  0  0  0
  -21.3410   -3.8490   26.0240 F   0  0  0  0  0  0  0  0  0  0  0  0
  -22.7780  -13.6100   21.1800 C   0  0  0  0  0  0  0  0  0  0  0  0
  -22.0840  -12.9030   22.0660 N   0  0  0  0  0  0  0  0  0  0  0  0
  -22.3200  -14.6400   20.6880 O   0  0  0  0  0  0  0  0  0  0  0  0
  -22.4610  -12.0650   22.4810 H   0  0  0  0  0  0  0  0  0  0  0  0
  -21.1580  -13.2080   22.3330 H   0  0  0  0  0  0  0  0  0  0  0  0
  -25.3620  -15.2870   20.2760 N   0  0  0  0  0  0  0  0  0  0  0  0
  -24.5820  -15.9150   20.4320 H   0  0  0  0  0  0  0  0  0  0  0  0
  -26.1320  -15.7360   19.7950 H   0  0  0  0  0  0  0  0  0  0  0  0
  -29.2430  -24.0650   20.4190 C   0  0  0  0  0  0  0  0  0  0  0  0
  -28.4800  -22.3570   18.8080 C   0  0  0  0  0  1  0  0  0  0  0  0
  -29.2750  -22.7510   19.9740 N   0  0  0  0  0  0  0  0  0  0  0  0
  -29.9960  -24.4460   21.3200 O   0  0  0  0  0  0  0  0  0  0  0  0
  -28.2290  -25.1180   19.8100 C   0  0  0  0  0  2  0  0  0  0  0  0
  -28.3700  -26.5330   20.2370 O   0  0  0  0  0  0  0  0  0  0  0  0
  -24.5920  -31.8770   23.2430 C   0  0  0  0  0  0  0  0  0  0  0  0
  -27.2370  -27.3660   20.1660 C   0  0  0  0  0  0  0  0  0  0  0  0
  -23.3960  -30.4860   21.5900 C   0  0  0  0  0  3  0  0  0  0  0  0
  -24.8590  -28.9610   20.1570 C   0  0  0  0  0  0  0  0  0  0  0  0
  -25.9310  -30.8270   21.4090 C   0  0  0  0  0  2  0  0  0  0  0  0
  -26.0230  -29.4560   20.7530 C   0  0  0  0  0  0  0  0  0  0  0  0
  -27.2130  -28.6700   20.7490 C   0  0  0  0  0  3  0  0  0  0  0  0
  -26.0460  -26.9300   19.5350 C   0  0  0  0  0  3  0  0  0  0  0  0
  -24.8720  -27.7040   19.5370 C   0  0  0  0  0  3  0  0  0  0  0  0
  -23.6140  -29.8220   20.2060 C   0  0  0  0  0  2  0  0  0  0  0  0
  -24.6580  -31.0790   22.1370 N   0  0  0  0  0  0  0  0  0  0  0  0
  -23.5080  -32.1460   23.7800 O   0  0  0  0  0  0  0  0  0  0  0  0
  -22.7350  -29.4600   22.5420 C   0  0  0  0  0  0  0  0  0  0  0  0
  -21.4090  -29.2830   22.4150 N   0  0  0  0  0  0  0  0  0  0  0  0
  -23.4140  -28.8250   23.3530 O   0  0  0  0  0  0  0  0  0  0  0  0
  -20.9180  -29.8420   21.7290 H   0  0  0  0  0  0  0  0  0  0  0  0
  -18.0280  -28.1050   22.9250 C   0  0  0  0  0  0  0  0  0  0  0  0
  -20.5900  -28.3430   23.1820 C   0  0  0  0  0  3  0  0  0  0  0  0
  -20.6790  -26.9180   22.5900 C   0  0  0  0  0  2  0  0  0  0  0  0
  -19.5670  -26.6160   21.5790 C   0  0  0  0  0  2  0  0  0  0  0  0
  -18.1900  -26.7640   22.2310 C   0  0  0  0  0  2  0  0  0  0  0  0
  -19.1550  -28.8540   23.3570 C   0  0  0  0  0  0  0  0  0  0  0  0
  -18.9490  -30.1120   23.9650 C   0  0  0  0  0  3  0  0  0  0  0  0
  -17.6490  -30.6200   24.1460 C   0  0  0  0  0  3  0  0  0  0  0  0
  -16.5360  -29.8660   23.7320 C   0  0  0  0  0  3  0  0  0  0  0  0
  -16.7280  -28.6120   23.1260 C   0  0  0  0  0  3  0  0  0  0  0  0
  -25.8750  -32.5090   23.8660 C   0  0  0  0  0  3  0  0  0  0  0  0
  -26.3880  -31.7340   25.1420 C   0  0  1  0  0  0  0  0  0  0  0  0
  -25.2900  -31.4870   26.2010 C   0  0  0  0  0  1  0  0  0  0  0  0
  -26.9790  -30.3590   24.7490 C   0  0  0  0  0  1  0  0  0  0  0  0
  -27.5330  -32.5290   25.8110 C   0  0  0  0  0  1  0  0  0  0  0  0
  -25.5650  -33.9080   24.1990 N   0  0  0  0  0  0  0  0  0  0  0  0
  -25.8830  -34.9620   23.4340 C   0  0  0  0  0  0  0  0  0  0  0  0
  -26.5390  -34.8580   22.3940 O   0  0  0  0  0  0  0  0  0  0  0  0
  -24.9880  -34.0610   25.0130 H   0  0  0  0  0  0  0  0  0  0  0  0
  -24.1420  -36.7430   23.0970 C   0  0  0  0  0  1  0  0  0  0  0  0
  -25.3940  -36.3470   23.8950 C   0  0  0  0  0  3  0  0  0  0  0  0
  -27.5280  -37.2480   24.7040 C   0  0  0  0  0  1  0  0  0  0  0  0
  -26.4170  -37.4060   23.7690 N   0  0  0  0  0  0  0  0  0  0  0  0
  -26.0060  -38.3230   23.9220 H   0  0  0  0  0  0  0  0  0  0  0  0
  2  3  1  0
  4  6  1  0
  5  1  1  0
  5  2  2  0
  6 17  1  0
  6  3  2  0
  7  4  2  0
  7  5  1  0
  8  7  1  0
  9 17  1  0
 10 15  1  0
 11 12  1  0
 11 10  1  0
 13 12  1  0
 13 22  1  0
 13 14  1  0
 15  9  1  0
 15 14  1  0
 16  9  2  0
 17 18  1  0
 19 20  2  0
 20 39  1  0
 21 20  1  0
 21 24  1  0
 22 23  1  0
 22 19  1  0
 23 21  2  0
 24 25  1  0
 25 26  2  0
 27 30  1  0
 27 26  1  0
 28 27  2  0
 29 28  1  0
 29 24  2  0
 30 31  1  0
 31 32  1  0
 32 33  2  0
 34 33  1  0
 34 38  1  0
 35 34  2  0
 36 31  2  0
 36 35  1  0
 37 36  1  0
 39 40  1  0
 40 43  1  0
 40 42  1  0
 41 39  2  0
 44 45  1  0
 44 19  1  0
 46 44  1  0
 47 50  2  0
 48 49  1  0
 49 47  1  0
 49  1  1  0
 51 52  1  0
 51 47  1  0
 53 64  2  0
 54 52  1  0
 54 59  1  0
 55 63  1  0
 55 65  1  0
 56 62  1  0
 56 58  1  0
 57 63  1  0
 58 57  1  0
 59 58  2  0
 60 61  1  0
 60 54  2  0
 61 56  2  0
 62 55  1  0
 63 53  1  0
 65 67  2  0
 66 65  1  0
 68 66  1  0
 69 78  2  0
 69 74  1  0
 70 66  1  0
 70 74  1  0
 71 70  1  0
 72 73  1  0
 72 71  1  0
 73 69  1  0
 74 75  2  0
 75 76  1  0
 77 76  2  0
 78 77  1  0
 79 53  1  0
 79 84  1  0
 79 80  1  0
 80 83  1  1
 80 81  1  0
 82 80  1  0
 84 87  1  0
 85 89  1  0
 85 84  1  0
 86 85  2  0
 89 88  1  0
 91 89  1  0
 91 92  1  0
 91 90  1  0
M  ISO  4   9 100  17 100  51 101  52 101
M  END
>  <TORSDO>  (91) 
F 19

>  <SCORE>  (91) 
-14.274

>  <name>  (91) 
90

>  <ligand_id>  (91) 
90

>  <original_smiles>  (91) 
[H]c1c([H])c([H])c2c(c1[H])C([H])([H])C([H])([H])C([H])([H])C2([H])N([H])C(=O)C1([H])N(C(=O)C([H])(N([H])C(=O)C([H])(N([H])C([H])([H])[H])C([H])([H])[H])C(C([H])([H])[H])(C([H])([H])[H])C([H])([H])[H])C([H])([H])c2c([H])c(OC([H])([H])C(=O)N(C([H])([H])[H])C([H])([H])c3c([H])c([H])c(N([H])C(=O)N4C([H])([H])C([H])([H])C([H])([H])C([H])(n5nc(-c6c([H])c([H])c(Oc7c([H])c([H])c(F)c([H])c7F)c([H])c6[H])c(C(=O)N([H])[H])c5N([H])[H])C4([H])[H])c([H])c3F)c([H])c([H])c2C1([H])[H]

>  <smiles>  (91) 
[H]c1c([H])c([H])c2c(c1[H])C([H])([H])C([H])([H])C([H])([H])C2([H])N([H])C(=O)C1([H])N(C(=O)C([H])(N([H])C(=O)C([H])(N([H])C([H])([H])[H])C([H])([H])[H])C(C([H])([H])[H])(C([H])([H])[H])C([H])([H])[H])C([H])([H])c2c([H])c(OC([H])([H])C(=O)N(C([H])([H])[H])C([H])([H])c3c([H])c([H])c(N([H])C(=O)N4C([H])([H])C([H])([H])C([H])([H])C([H])(n5nc(-c6c([H])c([H])c(Oc7c([H])c([H])c(F)c([H])c7F)c([H])c6[H])c(C(=O)N([H])[H])c5N([H])[H])C4([H])[H])c([H])c3F)c([H])c([H])c2C1([H])[H]

$$$$
91:0:0
     RDKit          3D

 99107  0  0  1  0  0  0  0  0999 V2000
  -27.9600  -17.9490   20.9780 C   0  0  0  0  0  3  0  0  0  0  0  0
  -30.2260  -17.1350   19.5560 C   0  0  0  0  0  3  0  0  0  0  0  0
  -28.5050  -16.6730   21.2370 C   0  0  0  0  0  0  0  0  0  0  0  0
  -28.4830  -18.7860   19.9760 C   0  0  0  0  0  0  0  0  0  0  0  0
  -29.6640  -16.2540   20.5150 C   0  0  0  0  0  0  0  0  0  0  0  0
  -29.6400  -18.3830   19.2760 C   0  0  0  0  0  0  0  0  0  0  0  0
  -30.3550  -19.3920   18.0670 Cl  0  0  0  0  0  0  0  0  0  0  0  0
  -30.7750  -14.1550   19.8130 C   0  0  0  0  0  0  0  0  0  0  0  0
  -30.3740  -12.1220   18.4760 C   0  0  0  0  0  2  0  0  0  0  0  0
  -29.3670  -12.4490   17.3520 C   0  0  0  0  0  2  0  0  0  0  0  0
  -27.9110  -12.3330   17.8490 C   0  0  0  0  0  2  0  0  0  0  0  0
  -27.6790  -13.0810   19.1870 C   0  0  0  0  0  3  0  0  0  0  0  0
  -28.7710  -12.6890   20.2050 C   0  0  0  0  0  2  0  0  0  0  0  0
  -30.0880  -13.0000   19.6170 N   0  0  0  0  0  0  0  0  0  0  0  0
  -31.8010  -14.4570   19.1930 O   0  0  0  0  0  0  0  0  0  0  0  0
  -30.2210  -14.9560   20.7400 N   0  0  0  0  0  0  0  0  0  0  0  0
  -29.7330  -14.4100   21.4300 H   0  0  0  0  0  0  0  0  0  0  0  0
  -25.2940  -13.7250   19.9140 C   0  0  0  0  0  0  0  0  0  0  0  0
  -24.2430  -12.9740   20.3680 C   0  0  0  0  0  0  0  0  0  0  0  0
  -24.7140  -11.6270   20.4150 C   0  0  0  0  0  0  0  0  0  0  0  0
  -26.3380  -12.8360   19.7110 N   0  0  0  0  0  0  0  0  0  0  0  0
  -25.9940  -11.5750   20.0710 N   0  0  0  0  0  0  0  0  0  0  0  0
  -24.0100  -10.3760   20.7180 C   0  0  0  0  0  0  0  0  0  0  0  0
  -24.4630   -9.5000   21.7300 C   0  0  0  0  0  3  0  0  0  0  0  0
  -23.7590   -8.3110   22.0140 C   0  0  0  0  0  3  0  0  0  0  0  0
  -22.5900   -7.9870   21.2860 C   0  0  0  0  0  0  0  0  0  0  0  0
  -22.1560   -8.8500   20.2650 C   0  0  0  0  0  3  0  0  0  0  0  0
  -22.8600  -10.0320   19.9800 C   0  0  0  0  0  3  0  0  0  0  0  0
  -21.8560   -6.8410   21.4760 O   0  0  0  0  0  0  0  0  0  0  0  0
  -21.7860   -6.2240   22.7000 C   0  0  0  0  0  0  0  0  0  0  0  0
  -21.3340   -6.9050   23.8520 C   0  0  0  0  0  3  0  0  0  0  0  0
  -21.2100   -6.2130   25.0730 C   0  0  0  0  0  3  0  0  0  0  0  0
  -21.5310   -4.8440   25.1440 C   0  0  0  0  0  0  0  0  0  0  0  0
  -21.9780   -4.1660   23.9970 C   0  0  0  0  0  3  0  0  0  0  0  0
  -22.1020   -4.8530   22.7780 C   0  0  0  0  0  0  0  0  0  0  0  0
  -22.5130   -4.1880   21.6710 F   0  0  0  0  0  0  0  0  0  0  0  0
  -21.4050   -4.1790   26.3160 F   0  0  0  0  0  0  0  0  0  0  0  0
  -22.8500  -13.4600   20.6490 C   0  0  0  0  0  0  0  0  0  0  0  0
  -22.1590  -12.8300   21.5940 N   0  0  0  0  0  0  0  0  0  0  0  0
  -22.3860  -14.4370   20.0630 O   0  0  0  0  0  0  0  0  0  0  0  0
  -22.5460  -12.0390   22.0840 H   0  0  0  0  0  0  0  0  0  0  0  0
  -21.2260  -13.1410   21.8250 H   0  0  0  0  0  0  0  0  0  0  0  0
  -25.4600  -15.0840   19.6640 N   0  0  0  0  0  0  0  0  0  0  0  0
  -24.5860  -15.5850   19.5370 H   0  0  0  0  0  0  0  0  0  0  0  0
  -26.1080  -15.3240   18.9220 H   0  0  0  0  0  0  0  0  0  0  0  0
  -27.7630  -20.0840   19.6510 C   0  0  0  0  0  2  0  0  0  0  0  0
  -27.9850  -22.2220   20.8960 C   0  0  0  0  0  0  0  0  0  0  0  0
  -28.4820  -21.2680   20.1050 N   0  0  0  0  0  0  0  0  0  0  0  0
  -26.8970  -22.1280   21.4690 O   0  0  0  0  0  0  0  0  0  0  0  0
  -29.3810  -21.4400   19.6790 H   0  0  0  0  0  0  0  0  0  0  0  0
  -28.8530  -23.3810   20.9270 C   0  0  0  0  0  3  0  0  0  0  0  0
  -28.3510  -24.5950   21.2100 C   0  0  0  0  0  3  0  0  0  0  0  0
  -29.1570  -25.8740   21.1980 C   0  0  0  0  0  2  0  0  0  0  0  0
  -28.8910  -26.6060   20.0070 O   0  0  0  0  0  0  0  0  0  0  0  0
  -24.6500  -31.4890   22.9610 C   0  0  0  0  0  0  0  0  0  0  0  0
  -27.6860  -27.2570   19.9960 C   0  0  0  0  0  0  0  0  0  0  0  0
  -23.6070  -30.0510   21.2360 C   0  0  0  0  0  3  0  0  0  0  0  0
  -25.2150  -28.6030   19.8860 C   0  0  0  0  0  0  0  0  0  0  0  0
  -26.1140  -30.5450   21.1840 C   0  0  0  0  0  2  0  0  0  0  0  0
  -26.3040  -29.1870   20.5460 C   0  0  0  0  0  0  0  0  0  0  0  0
  -27.5420  -28.5180   20.6060 C   0  0  0  0  0  3  0  0  0  0  0  0
  -26.5890  -26.6740   19.3290 C   0  0  0  0  0  3  0  0  0  0  0  0
  -25.3490  -27.3410   19.2780 C   0  0  0  0  0  3  0  0  0  0  0  0
  -23.9270  -29.3950   19.8650 C   0  0  0  0  0  2  0  0  0  0  0  0
  -24.8040  -30.7090   21.8550 N   0  0  0  0  0  0  0  0  0  0  0  0
  -23.5290  -31.7020   23.4420 O   0  0  0  0  0  0  0  0  0  0  0  0
  -22.9540  -28.9890   22.1470 C   0  0  0  0  0  0  0  0  0  0  0  0
  -21.6430  -28.7690   21.9620 N   0  0  0  0  0  0  0  0  0  0  0  0
  -23.6250  -28.3670   22.9750 O   0  0  0  0  0  0  0  0  0  0  0  0
  -21.1620  -29.3270   21.2690 H   0  0  0  0  0  0  0  0  0  0  0  0
  -18.2800  -27.5030   22.3290 C   0  0  0  0  0  0  0  0  0  0  0  0
  -20.8260  -27.7900   22.6770 C   0  0  0  0  0  3  0  0  0  0  0  0
  -20.9670  -26.3840   22.0500 C   0  0  0  0  0  2  0  0  0  0  0  0
  -19.8960  -26.0820   20.9970 C   0  0  0  0  0  2  0  0  0  0  0  0
  -18.4970  -26.1820   21.6110 C   0  0  0  0  0  2  0  0  0  0  0  0
  -19.3750  -28.2650   22.8160 C   0  0  0  0  0  0  0  0  0  0  0  0
  -19.1220  -29.5030   23.4460 C   0  0  0  0  0  3  0  0  0  0  0  0
  -17.8050  -29.9790   23.5960 C   0  0  0  0  0  3  0  0  0  0  0  0
  -16.7250  -29.2120   23.1270 C   0  0  0  0  0  3  0  0  0  0  0  0
  -16.9620  -27.9760   22.5010 C   0  0  0  0  0  3  0  0  0  0  0  0
  -25.8690  -32.1700   23.6590 C   0  0  0  0  0  3  0  0  0  0  0  0
  -25.4650  -33.5330   24.0270 N   0  0  0  0  0  0  0  0  0  0  0  0
  -25.7590  -34.6300   23.3160 C   0  0  0  0  0  0  0  0  0  0  0  0
  -26.4720  -34.6040   22.3090 O   0  0  0  0  0  0  0  0  0  0  0  0
  -24.8340  -33.6230   24.8090 H   0  0  0  0  0  0  0  0  0  0  0  0
  -23.9300  -36.3180   22.9610 C   0  0  0  0  0  1  0  0  0  0  0  0
  -25.1690  -35.9680   23.8000 C   0  0  0  0  0  3  0  0  0  0  0  0
  -27.2190  -36.9550   24.7230 C   0  0  0  0  0  1  0  0  0  0  0  0
  -26.1360  -37.0880   23.7540 N   0  0  0  0  0  0  0  0  0  0  0  0
  -25.6680  -37.9740   23.9210 H   0  0  0  0  0  0  0  0  0  0  0  0
  -26.3830  -31.3790   24.9240 C   0  0  1  0  0  0  0  0  0  0  0  0
  -25.2640  -31.0180   25.9290 C   0  0  0  0  0  1  0  0  0  0  0  0
  -27.0770  -30.0640   24.4990 C   0  0  0  0  0  1  0  0  0  0  0  0
  -27.4450  -32.2190   25.6720 C   0  0  0  0  0  1  0  0  0  0  0  0
  -27.8210  -15.8140   22.3090 C   0  0  0  0  0  2  0  0  0  0  0  0
  -26.7310  -13.5990   22.4620 C   0  0  0  0  0  1  0  0  0  0  0  0
  -25.4130  -15.5130   21.7240 C   0  0  0  0  0  1  0  0  0  0  0  0
  -26.7670  -14.9070   21.7660 N   0  0  1  0  0  4  0  0  0  0  0  0
  -26.9860  -14.7140   20.7920 H   0  0  0  0  0  0  0  0  0  0  0  0
  1  3  1  0
  2  5  1  0
  3 95  1  0
  4  1  2  0
  5 16  1  0
  5  3  2  0
  6  2  2  0
  6  4  1  0
  7  6  1  0
  8 16  1  0
  9 14  1  0
 10 11  1  0
 10  9  1  0
 12 11  1  0
 12 21  1  0
 12 13  1  0
 14  8  1  0
 14 13  1  0
 15  8  2  0
 16 17  1  0
 18 19  2  0
 19 20  1  0
 19 38  1  0
 20 23  1  0
 21 18  1  0
 21 22  1  0
 22 20  2  0
 23 24  1  0
 24 25  2  0
 26 29  1  0
 26 25  1  0
 27 26  2  0
 28 27  1  0
 28 23  2  0
 29 30  1  0
 30 35  2  0
 30 31  1  0
 31 32  2  0
 32 33  1  0
 33 37  1  0
 34 33  2  0
 35 34  1  0
 36 35  1  0
 38 39  1  0
 39 42  1  0
 39 41  1  0
 40 38  2  0
 43 18  1  0
 44 43  1  0
 45 43  1  0
 46  4  1  0
 46 48  1  0
 47 51  1  0
 47 49  2  0
 48 47  1  0
 50 48  1  0
 51 52  2  0
 53 52  1  0
 54 53  1  0
 55 66  2  0
 56 54  1  0
 56 61  1  0
 57 65  1  0
 57 67  1  0
 58 60  1  0
 59 65  1  0
 60 61  2  0
 60 59  1  0
 62 56  2  0
 63 62  1  0
 63 58  2  0
 64 58  1  0
 64 57  1  0
 65 55  1  0
 67 69  2  0
 68 67  1  0
 70 68  1  0
 71 80  2  0
 71 76  1  0
 72 68  1  0
 72 76  1  0
 73 72  1  0
 74 75  1  0
 74 73  1  0
 75 71  1  0
 76 77  2  0
 77 78  1  0
 79 78  2  0
 80 79  1  0
 81 55  1  0
 81 82  1  0
 81 91  1  0
 82 85  1  0
 83 87  1  0
 83 82  1  0
 84 83  2  0
 87 86  1  0
 89 87  1  0
 89 90  1  0
 89 88  1  0
 91 94  1  1
 91 92  1  0
 93 91  1  0
 97 98  1  0
 98 95  1  0
 98 96  1  0
 98 99  1  6
M  ISO  4   8 100  16 100  53 101  54 101
M  END
>  <TORSDO>  (92) 
F 22

>  <SCORE>  (92) 
-3.252

>  <name>  (92) 
91

>  <ligand_id>  (92) 
91

>  <original_smiles>  (92) 
[H]C(C(=O)N([H])C([H])([H])c1c([H])c(C([H])([H])[N+]([H])(C([H])([H])[H])C([H])([H])[H])c(N([H])C(=O)N2C([H])([H])C([H])([H])C([H])([H])C([H])(n3nc(-c4c([H])c([H])c(Oc5c([H])c([H])c(F)c([H])c5F)c([H])c4[H])c(C(=O)N([H])[H])c3N([H])[H])C2([H])[H])c([H])c1Cl)=C([H])C([H])([H])Oc1c([H])c([H])c2c(c1[H])C([H])([H])N(C(=O)C([H])(N([H])C(=O)C([H])(N([H])C([H])([H])[H])C([H])([H])[H])C(C([H])([H])[H])(C([H])([H])[H])C([H])([H])[H])C([H])(C(=O)N([H])C1([H])c3c([H])c([H])c([H])c([H])c3C([H])([H])C([H])([H])C1([H])[H])C2([H])[H]

>  <smiles>  (92) 
[H]C(C(=O)N([H])C([H])([H])c1c([H])c(C([H])([H])[N+]([H])(C([H])([H])[H])C([H])([H])[H])c(N([H])C(=O)N2C([H])([H])C([H])([H])C([H])([H])C([H])(n3nc(-c4c([H])c([H])c(Oc5c([H])c([H])c(F)c([H])c5F)c([H])c4[H])c(C(=O)N([H])[H])c3N([H])[H])C2([H])[H])c([H])c1Cl)=C([H])C([H])([H])Oc1c([H])c([H])c2c(c1[H])C([H])([H])N(C(=O)C([H])(N([H])C(=O)C([H])(N([H])C([H])([H])[H])C([H])([H])[H])C(C([H])([H])[H])(C([H])([H])[H])C([H])([H])[H])C([H])(C(=O)N([H])C1([H])c3c([H])c([H])c([H])c([H])c3C([H])([H])C([H])([H])C1([H])[H])C2([H])[H]

$$$$
92:0:0
     RDKit          3D

 90 98  0  0  1  0  0  0  0  0999 V2000
  -30.4720  -22.4860   19.7680 C   0  0  0  0  0  3  0  0  0  0  0  0
  -31.5740  -21.6240   19.6790 C   0  0  0  0  0  3  0  0  0  0  0  0
  -29.2040  -22.0130   20.1150 C   0  0  0  0  0  0  0  0  0  0  0  0
  -31.5080  -20.2270   19.8920 C   0  0  0  0  0  0  0  0  0  0  0  0
  -29.1270  -20.4880   20.2480 C   0  0  0  0  0  0  0  0  0  0  0  0
  -30.2720  -19.5080   20.0980 C   0  0  0  0  0  0  0  0  0  0  0  0
  -32.9010  -19.5820   19.9280 C   0  0  0  0  0  1  0  0  0  0  0  0
  -27.7940  -19.8780   20.6430 C   0  0  0  0  0  1  0  0  0  0  0  0
  -28.0920  -23.1820   20.3300 C   0  0  0  0  0  3  0  0  0  0  0  0
  -27.7160  -24.5860   20.3400 C   0  0  0  0  0  3  0  0  0  0  0  0
  -28.1620  -25.9930   20.1370 O   0  0  0  0  0  0  0  0  0  0  0  0
  -24.5310  -31.7830   23.1410 C   0  0  0  0  0  0  0  0  0  0  0  0
  -27.1690  -27.0690   20.0820 C   0  0  0  0  0  0  0  0  0  0  0  0
  -23.3680  -30.4020   21.4660 C   0  0  0  0  0  3  0  0  0  0  0  0
  -24.8520  -28.8610   20.0300 C   0  0  0  0  0  0  0  0  0  0  0  0
  -25.9290  -30.6640   21.3560 C   0  0  0  0  0  2  0  0  0  0  0  0
  -26.0200  -29.2780   20.6840 C   0  0  0  0  0  0  0  0  0  0  0  0
  -27.1760  -28.3960   20.7030 C   0  0  0  0  0  3  0  0  0  0  0  0
  -25.9830  -26.7930   19.3630 C   0  0  0  0  0  3  0  0  0  0  0  0
  -24.8500  -27.6340   19.3530 C   0  0  0  0  0  3  0  0  0  0  0  0
  -23.6200  -29.7550   20.0760 C   0  0  0  0  0  2  0  0  0  0  0  0
  -24.6290  -30.9730   22.0420 N   0  0  0  0  0  0  0  0  0  0  0  0
  -23.4330  -32.0550   23.6520 O   0  0  0  0  0  0  0  0  0  0  0  0
  -22.6790  -29.3750   22.4020 C   0  0  0  0  0  0  0  0  0  0  0  0
  -21.3530  -29.2040   22.2580 N   0  0  0  0  0  0  0  0  0  0  0  0
  -23.3430  -28.7390   23.2230 O   0  0  0  0  0  0  0  0  0  0  0  0
  -20.8710  -29.7650   21.5690 H   0  0  0  0  0  0  0  0  0  0  0  0
  -17.9710  -27.9840   22.7220 C   0  0  0  0  0  0  0  0  0  0  0  0
  -20.5290  -28.2510   23.0070 C   0  0  0  0  0  3  0  0  0  0  0  0
  -20.6390  -26.8290   22.4080 C   0  0  0  0  0  2  0  0  0  0  0  0
  -19.5440  -26.5230   21.3820 C   0  0  0  0  0  2  0  0  0  0  0  0
  -18.1570  -26.6500   22.0180 C   0  0  0  0  0  2  0  0  0  0  0  0
  -19.0850  -28.7430   23.1730 C   0  0  0  0  0  0  0  0  0  0  0  0
  -18.8560  -29.9900   23.7930 C   0  0  0  0  0  3  0  0  0  0  0  0
  -17.5470  -30.4810   23.9650 C   0  0  0  0  0  3  0  0  0  0  0  0
  -16.4490  -29.7200   23.5290 C   0  0  0  0  0  3  0  0  0  0  0  0
  -16.6620  -28.4750   22.9120 C   0  0  0  0  0  3  0  0  0  0  0  0
  -25.7940  -32.4200   23.7950 C   0  0  0  0  0  3  0  0  0  0  0  0
  -25.4670  -33.8140   24.1360 N   0  0  0  0  0  0  0  0  0  0  0  0
  -25.7950  -34.8820   23.3990 C   0  0  0  0  0  0  0  0  0  0  0  0
  -26.4740  -34.8000   22.3710 O   0  0  0  0  0  0  0  0  0  0  0  0
  -24.8680  -33.9540   24.9370 H   0  0  0  0  0  0  0  0  0  0  0  0
  -24.0550  -36.6730   23.0720 C   0  0  0  0  0  1  0  0  0  0  0  0
  -25.2980  -36.2610   23.8770 C   0  0  0  0  0  3  0  0  0  0  0  0
  -27.4170  -37.1580   24.7350 C   0  0  0  0  0  1  0  0  0  0  0  0
  -26.3210  -37.3250   23.7830 N   0  0  0  0  0  0  0  0  0  0  0  0
  -25.9040  -38.2390   23.9380 H   0  0  0  0  0  0  0  0  0  0  0  0
  -26.2910  -31.6430   25.0770 C   0  0  1  0  0  0  0  0  0  0  0  0
  -25.1760  -31.3990   26.1210 C   0  0  0  0  0  1  0  0  0  0  0  0
  -26.8890  -30.2660   24.6970 C   0  0  0  0  0  1  0  0  0  0  0  0
  -27.4200  -32.4430   25.7710 C   0  0  0  0  0  1  0  0  0  0  0  0
  -30.5500  -17.8260   20.3080 C   0  0  0  0  0  2  0  0  0  0  0  0
  -30.5700  -15.1030   19.9970 C   0  0  0  0  0  0  0  0  0  0  0  0
  -30.3730  -12.7460   19.0400 C   0  0  0  0  0  2  0  0  0  0  0  0
  -29.3860  -12.6840   17.8510 C   0  0  0  0  0  2  0  0  0  0  0  0
  -27.9510  -12.4460   18.3590 C   0  0  0  0  0  2  0  0  0  0  0  0
  -27.5940  -13.3630   19.5580 C   0  0  0  0  0  3  0  0  0  0  0  0
  -28.7060  -13.4190   20.6260 C   0  0  0  0  0  2  0  0  0  0  0  0
  -29.9300  -13.8560   19.9430 N   0  0  0  0  0  0  0  0  0  0  0  0
  -31.7690  -15.0900   19.6940 O   0  0  0  0  0  0  0  0  0  0  0  0
  -29.8940  -16.3670   20.1930 N   0  0  0  0  0  0  0  0  0  0  0  0
  -28.9020  -16.3080   20.3660 H   0  0  0  0  0  0  0  0  0  0  0  0
  -25.2750  -13.9190   20.4690 C   0  0  0  0  0  0  0  0  0  0  0  0
  -24.2300  -13.1370   20.8750 C   0  0  0  0  0  0  0  0  0  0  0  0
  -24.6830  -11.7870   20.7760 C   0  0  0  0  0  0  0  0  0  0  0  0
  -26.2930  -13.0440   20.1340 N   0  0  0  0  0  0  0  0  0  0  0  0
  -25.9540  -11.7540   20.3880 N   0  0  0  0  0  0  0  0  0  0  0  0
  -23.9570  -10.5250   20.9720 C   0  0  0  0  0  0  0  0  0  0  0  0
  -24.3970   -9.5510   21.8950 C   0  0  0  0  0  3  0  0  0  0  0  0
  -23.6670   -8.3570   22.0790 C   0  0  0  0  0  3  0  0  0  0  0  0
  -22.4860   -8.1250   21.3350 C   0  0  0  0  0  0  0  0  0  0  0  0
  -22.0660   -9.0850   20.4010 C   0  0  0  0  0  3  0  0  0  0  0  0
  -22.7960  -10.2720   20.2150 C   0  0  0  0  0  3  0  0  0  0  0  0
  -21.7280   -6.9800   21.4260 O   0  0  0  0  0  0  0  0  0  0  0  0
  -21.6520   -6.2610   22.5910 C   0  0  0  0  0  0  0  0  0  0  0  0
  -21.1640   -6.8320   23.7880 C   0  0  0  0  0  3  0  0  0  0  0  0
  -21.0310   -6.0370   24.9430 C   0  0  0  0  0  3  0  0  0  0  0  0
  -21.3790   -4.6740   24.9060 C   0  0  0  0  0  0  0  0  0  0  0  0
  -21.8630   -4.1040   23.7170 C   0  0  0  0  0  3  0  0  0  0  0  0
  -21.9960   -4.8940   22.5620 C   0  0  0  0  0  0  0  0  0  0  0  0
  -22.4420   -4.3350   21.4110 F   0  0  0  0  0  0  0  0  0  0  0  0
  -21.2460   -3.9080   26.0160 F   0  0  0  0  0  0  0  0  0  0  0  0
  -22.8560  -13.6170   21.2360 C   0  0  0  0  0  0  0  0  0  0  0  0
  -22.1700  -12.9000   22.1230 N   0  0  0  0  0  0  0  0  0  0  0  0
  -22.4010  -14.6600   20.7710 O   0  0  0  0  0  0  0  0  0  0  0  0
  -22.5530  -12.0570   22.5230 H   0  0  0  0  0  0  0  0  0  0  0  0
  -21.2500  -13.2070   22.4040 H   0  0  0  0  0  0  0  0  0  0  0  0
  -25.4280  -15.2930   20.3240 N   0  0  0  0  0  0  0  0  0  0  0  0
  -24.6570  -15.9340   20.4790 H   0  0  0  0  0  0  0  0  0  0  0  0
  -26.2420  -15.7490   19.9330 H   0  0  0  0  0  0  0  0  0  0  0  0
  1  3  1  0
  2  1  2  0
  2  4  1  0
  3  5  2  0
  3  9  1  0
  4  7  1  0
  4  6  2  0
  5  8  1  0
  6  5  1  0
  6 52  1  0
  9 10  2  0
 11 10  1  0
 12 23  2  0
 13 11  1  0
 13 18  1  0
 14 22  1  0
 14 24  1  0
 15 21  1  0
 15 17  1  0
 16 22  1  0
 17 18  2  0
 17 16  1  0
 19 13  2  0
 20 19  1  0
 20 15  2  0
 21 14  1  0
 22 12  1  0
 24 26  2  0
 25 24  1  0
 27 25  1  0
 28 37  2  0
 28 33  1  0
 29 25  1  0
 29 33  1  0
 30 29  1  0
 31 32  1  0
 31 30  1  0
 32 28  1  0
 33 34  2  0
 34 35  1  0
 36 35  2  0
 37 36  1  0
 38 12  1  0
 38 39  1  0
 38 48  1  0
 39 42  1  0
 40 44  1  0
 40 39  1  0
 41 40  2  0
 44 43  1  0
 46 44  1  0
 46 47  1  0
 46 45  1  0
 48 51  1  1
 48 49  1  0
 50 48  1  0
 53 61  1  0
 54 59  1  0
 55 56  1  0
 55 54  1  0
 57 56  1  0
 57 66  1  0
 57 58  1  0
 59 53  1  0
 59 58  1  0
 60 53  2  0
 61 52  1  0
 61 62  1  0
 63 64  2  0
 64 83  1  0
 65 64  1  0
 65 68  1  0
 66 67  1  0
 66 63  1  0
 67 65  2  0
 68 69  1  0
 69 70  2  0
 71 74  1  0
 71 70  1  0
 72 71  2  0
 73 72  1  0
 73 68  2  0
 74 75  1  0
 75 76  1  0
 76 77  2  0
 78 77  1  0
 78 82  1  0
 79 78  2  0
 80 75  2  0
 80 79  1  0
 81 80  1  0
 83 84  1  0
 84 87  1  0
 84 86  1  0
 85 83  2  0
 88 63  1  0
 88 89  1  0
 90 88  1  0
M  ISO  4  10 101  11 101  53 100  61 100
M  END
>  <TORSDO>  (93) 
F 18

>  <SCORE>  (93) 
-14.839

>  <name>  (93) 
92

>  <ligand_id>  (93) 
92

>  <original_smiles>  (93) 
[H]C(Oc1c([H])c([H])c2c(c1[H])C([H])([H])N(C(=O)C([H])(N([H])C(=O)C([H])(N([H])C([H])([H])[H])C([H])([H])[H])C(C([H])([H])[H])(C([H])([H])[H])C([H])([H])[H])C([H])(C(=O)N([H])C1([H])c3c([H])c([H])c([H])c([H])c3C([H])([H])C([H])([H])C1([H])[H])C2([H])[H])=C([H])c1c([H])c([H])c(C([H])([H])[H])c(C([H])([H])N([H])C(=O)N2C([H])([H])C([H])([H])C([H])([H])C([H])(n3nc(-c4c([H])c([H])c(Oc5c([H])c([H])c(F)c([H])c5F)c([H])c4[H])c(C(=O)N([H])[H])c3N([H])[H])C2([H])[H])c1C([H])([H])[H]

>  <smiles>  (93) 
[H]C(Oc1c([H])c([H])c2c(c1[H])C([H])([H])N(C(=O)C([H])(N([H])C(=O)C([H])(N([H])C([H])([H])[H])C([H])([H])[H])C(C([H])([H])[H])(C([H])([H])[H])C([H])([H])[H])C([H])(C(=O)N([H])C1([H])c3c([H])c([H])c([H])c([H])c3C([H])([H])C([H])([H])C1([H])[H])C2([H])[H])=C([H])c1c([H])c([H])c(C([H])([H])[H])c(C([H])([H])N([H])C(=O)N2C([H])([H])C([H])([H])C([H])([H])C([H])(n3nc(-c4c([H])c([H])c(Oc5c([H])c([H])c(F)c([H])c5F)c([H])c4[H])c(C(=O)N([H])[H])c3N([H])[H])C2([H])[H])c1C([H])([H])[H]

$$$$
93:0:0
     RDKit          3D

 89 96  0  0  1  0  0  0  0  0999 V2000
  -29.7830  -20.5100   22.4300 C   0  0  0  0  0  3  0  0  0  0  0  0
  -28.7610  -20.7490   21.4840 C   0  0  0  0  0  3  0  0  0  0  0  0
  -31.0540  -20.0670   21.9990 C   0  0  0  0  0  3  0  0  0  0  0  0
  -29.1480  -20.7200   20.1330 C   0  0  0  0  0  0  0  0  0  0  0  0
  -30.0540  -19.3270   19.9360 C   0  0  0  0  0  0  0  0  0  0  0  0
  -31.2210  -19.5300   20.7060 C   0  0  0  0  0  0  0  0  0  0  0  0
  -32.7580  -18.8750   20.2750 Cl  0  0  0  0  0  0  0  0  0  0  0  0
  -30.6540  -16.1930   19.7510 C   0  0  0  0  0  0  0  0  0  0  0  0
  -30.7680  -13.6230   18.9340 C   0  0  0  0  0  2  0  0  0  0  0  0
  -29.8190  -13.1310   17.8030 C   0  0  0  0  0  2  0  0  0  0  0  0
  -28.4520  -12.7240   18.3700 C   0  0  0  0  0  2  0  0  0  0  0  0
  -27.9730  -13.7350   19.4340 C   0  0  0  0  0  3  0  0  0  0  0  0
  -29.0620  -14.1320   20.4620 C   0  0  0  0  0  2  0  0  0  0  0  0
  -30.1490  -14.8070   19.7040 N   0  0  0  0  0  0  0  0  0  0  0  0
  -31.8790  -16.1030   19.5270 O   0  0  0  0  0  0  0  0  0  0  0  0
  -29.8830  -17.5810   19.8130 N   0  0  0  0  0  0  0  0  0  0  0  0
  -28.9000  -17.3490   19.8130 H   0  0  0  0  0  0  0  0  0  0  0  0
  -25.6950  -14.2160   20.4360 C   0  0  0  0  0  0  0  0  0  0  0  0
  -24.6640  -13.4150   20.8390 C   0  0  0  0  0  0  0  0  0  0  0  0
  -25.1210  -12.0700   20.6790 C   0  0  0  0  0  0  0  0  0  0  0  0
  -26.7080  -13.3610   20.0480 N   0  0  0  0  0  0  0  0  0  0  0  0
  -26.3830  -12.0570   20.2580 N   0  0  0  0  0  0  0  0  0  0  0  0
  -24.4020  -10.7990   20.8460 C   0  0  0  0  0  0  0  0  0  0  0  0
  -24.7860   -9.8530   21.8220 C   0  0  0  0  0  3  0  0  0  0  0  0
  -24.0630   -8.6510   21.9790 C   0  0  0  0  0  3  0  0  0  0  0  0
  -22.9400   -8.3860   21.1590 C   0  0  0  0  0  0  0  0  0  0  0  0
  -22.5750   -9.3190   20.1740 C   0  0  0  0  0  3  0  0  0  0  0  0
  -23.3000  -10.5130   20.0160 C   0  0  0  0  0  3  0  0  0  0  0  0
  -22.1940   -7.2340   21.2230 O   0  0  0  0  0  0  0  0  0  0  0  0
  -21.9130   -6.6230   22.4190 C   0  0  0  0  0  0  0  0  0  0  0  0
  -21.1810   -7.2750   23.4350 C   0  0  0  0  0  3  0  0  0  0  0  0
  -20.8540   -6.5870   24.6210 C   0  0  0  0  0  3  0  0  0  0  0  0
  -21.2510   -5.2470   24.7890 C   0  0  0  0  0  0  0  0  0  0  0  0
  -21.9750   -4.5940   23.7760 C   0  0  0  0  0  3  0  0  0  0  0  0
  -22.3030   -5.2790   22.5930 C   0  0  0  0  0  0  0  0  0  0  0  0
  -22.9820   -4.6390   21.6110 F   0  0  0  0  0  0  0  0  0  0  0  0
  -20.9310   -4.5820   25.9240 F   0  0  0  0  0  0  0  0  0  0  0  0
  -23.2980  -13.8760   21.2510 C   0  0  0  0  0  0  0  0  0  0  0  0
  -22.6440  -13.1360   22.1370 N   0  0  0  0  0  0  0  0  0  0  0  0
  -22.8240  -14.9280   20.8230 O   0  0  0  0  0  0  0  0  0  0  0  0
  -23.0450  -12.2840   22.5010 H   0  0  0  0  0  0  0  0  0  0  0  0
  -21.7310  -13.4240   22.4570 H   0  0  0  0  0  0  0  0  0  0  0  0
  -25.8450  -15.5960   20.3310 N   0  0  0  0  0  0  0  0  0  0  0  0
  -25.0850  -16.2370   20.5330 H   0  0  0  0  0  0  0  0  0  0  0  0
  -26.6570  -16.0540   19.9390 H   0  0  0  0  0  0  0  0  0  0  0  0
  -29.1530  -22.5800   19.7300 C   0  0  0  0  0  2  0  0  0  0  0  0
  -28.1290  -23.9820   20.0360 N   0  0  0  0  0  2  0  0  0  0  0  0
  -27.6710  -23.8820   20.9370 H   0  0  0  0  0  0  0  0  0  0  0  0
  -28.3420  -25.8190   19.7670 O   0  0  0  0  0  1  0  0  0  0  0  0
  -24.7330  -31.9190   23.1700 C   0  0  0  0  0  0  0  0  0  0  0  0
  -27.3100  -27.0020   19.8890 C   0  0  0  0  0  0  0  0  0  0  0  0
  -23.5400  -30.5670   21.5000 C   0  0  0  0  0  3  0  0  0  0  0  0
  -24.9930  -29.0100   19.9820 C   0  0  0  0  0  0  0  0  0  0  0  0
  -26.1130  -30.7640   21.3290 C   0  0  0  0  0  2  0  0  0  0  0  0
  -26.1950  -29.3570   20.6100 C   0  0  0  0  0  0  0  0  0  0  0  0
  -27.3320  -28.3810   20.5350 C   0  0  0  0  0  3  0  0  0  0  0  0
  -26.0680  -26.8870   19.2110 C   0  0  0  0  0  3  0  0  0  0  0  0
  -24.9690  -27.8040   19.2590 C   0  0  0  0  0  3  0  0  0  0  0  0
  -23.7640  -29.9320   20.0960 C   0  0  0  0  0  2  0  0  0  0  0  0
  -24.8200  -31.1190   22.0510 N   0  0  0  0  0  0  0  0  0  0  0  0
  -23.6460  -32.1700   23.7180 O   0  0  0  0  0  0  0  0  0  0  0  0
  -22.8690  -29.5320   22.4440 C   0  0  0  0  0  0  0  0  0  0  0  0
  -21.5460  -29.3180   22.3160 N   0  0  0  0  0  0  0  0  0  0  0  0
  -23.5540  -28.9190   23.2660 O   0  0  0  0  0  0  0  0  0  0  0  0
  -21.0410  -29.8630   21.6300 H   0  0  0  0  0  0  0  0  0  0  0  0
  -18.2180  -27.9400   22.8060 C   0  0  0  0  0  0  0  0  0  0  0  0
  -20.7650  -28.3210   23.0590 C   0  0  0  0  0  3  0  0  0  0  0  0
  -20.9270  -26.9150   22.4360 C   0  0  0  0  0  2  0  0  0  0  0  0
  -19.8330  -26.5780   21.4180 C   0  0  0  0  0  2  0  0  0  0  0  0
  -18.4520  -26.6290   22.0760 C   0  0  0  0  0  2  0  0  0  0  0  0
  -19.3020  -28.7440   23.2520 C   0  0  0  0  0  0  0  0  0  0  0  0
  -19.0240  -29.9670   23.9000 C   0  0  0  0  0  3  0  0  0  0  0  0
  -17.6950  -30.3890   24.1040 C   0  0  0  0  0  3  0  0  0  0  0  0
  -16.6270  -29.5850   23.6690 C   0  0  0  0  0  3  0  0  0  0  0  0
  -16.8890  -28.3630   23.0260 C   0  0  0  0  0  3  0  0  0  0  0  0
  -25.9940  -32.5740   23.8120 C   0  0  0  0  0  3  0  0  0  0  0  0
  -25.6630  -33.9720   24.1580 N   0  0  0  0  0  0  0  0  0  0  0  0
  -25.9600  -35.0460   23.4140 C   0  0  0  0  0  0  0  0  0  0  0  0
  -26.5980  -34.9660   22.3620 O   0  0  0  0  0  0  0  0  0  0  0  0
  -25.0860  -34.1030   24.9760 H   0  0  0  0  0  0  0  0  0  0  0  0
  -24.1870  -36.8210   23.1770 C   0  0  0  0  0  1  0  0  0  0  0  0
  -25.4780  -36.4260   23.9130 C   0  0  0  0  0  3  0  0  0  0  0  0
  -27.6280  -37.3590   24.6500 C   0  0  0  0  0  1  0  0  0  0  0  0
  -26.4860  -37.4990   23.7510 N   0  0  0  0  0  0  0  0  0  0  0  0
  -26.0670  -38.4110   23.9070 H   0  0  0  0  0  0  0  0  0  0  0  0
  -26.4960  -31.8120   25.1020 C   0  0  1  0  0  0  0  0  0  0  0  0
  -25.3840  -31.5430   26.1430 C   0  0  0  0  0  1  0  0  0  0  0  0
  -27.1260  -30.4510   24.7340 C   0  0  0  0  0  1  0  0  0  0  0  0
  -27.6090  -32.6340   25.7950 C   0  0  0  0  0  1  0  0  0  0  0  0
  2  1  2  0
  3  1  1  0
  4  2  1  0
  5  4  2  3
  5  6  1  0
  6  3  2  0
  7  6  1  0
  8 16  1  0
  9 14  1  0
 10 11  1  0
 10  9  1  0
 12 11  1  0
 12 21  1  0
 12 13  1  0
 14  8  1  0
 14 13  1  0
 15  8  2  0
 16  5  1  0
 17 16  1  0
 18 19  2  0
 19 38  1  0
 20 19  1  0
 20 23  1  0
 21 22  1  0
 21 18  1  0
 22 20  2  0
 23 24  1  0
 24 25  2  0
 26 29  1  0
 26 25  1  0
 27 26  2  0
 28 27  1  0
 28 23  2  0
 29 30  1  0
 30 35  2  0
 30 31  1  0
 31 32  2  0
 32 33  1  0
 33 37  1  0
 34 33  2  0
 35 34  1  0
 36 35  1  0
 38 39  1  0
 39 42  1  0
 39 41  1  0
 40 38  2  0
 43 18  1  0
 43 44  1  0
 45 43  1  0
 46 47  1  0
 46  4  1  0
 47 48  1  0
 49 51  1  0
 50 61  2  0
 51 56  1  0
 52 60  1  0
 52 62  1  0
 53 59  1  0
 53 55  1  0
 54 60  1  0
 55 54  1  0
 56 55  2  0
 57 58  1  0
 57 51  2  0
 58 53  2  0
 59 52  1  0
 60 50  1  0
 62 64  2  0
 63 62  1  0
 65 63  1  0
 66 75  2  0
 66 71  1  0
 67 63  1  0
 67 71  1  0
 68 67  1  0
 69 70  1  0
 69 68  1  0
 70 66  1  0
 71 72  2  0
 72 73  1  0
 74 73  2  0
 75 74  1  0
 76 50  1  0
 76 77  1  0
 76 86  1  0
 77 80  1  0
 78 82  1  0
 78 77  1  0
 79 78  2  0
 82 81  1  0
 84 85  1  0
 84 82  1  0
 84 83  1  0
 86 89  1  1
 86 87  1  0
 88 86  1  0
M  ISO  4   8 100  16 100  47 101  49 101
M  END
>  <TORSDO>  (94) 
F 18

>  <SCORE>  (94) 
-15.001

>  <name>  (94) 
93

>  <ligand_id>  (94) 
93

>  <original_smiles>  (94) 
[H]c1c([H])c(Cl)c(N([H])C(=O)N2C([H])([H])C([H])([H])C([H])([H])C([H])(n3nc(-c4c([H])c([H])c(Oc5c([H])c([H])c(F)c([H])c5F)c([H])c4[H])c(C(=O)N([H])[H])c3N([H])[H])C2([H])[H])c(C([H])([H])N([H])Oc2c([H])c([H])c3c(c2[H])C([H])([H])N(C(=O)C([H])(N([H])C(=O)C([H])(N([H])C([H])([H])[H])C([H])([H])[H])C(C([H])([H])[H])(C([H])([H])[H])C([H])([H])[H])C([H])(C(=O)N([H])C2([H])c4c([H])c([H])c([H])c([H])c4C([H])([H])C([H])([H])C2([H])[H])C3([H])[H])c1[H]

>  <smiles>  (94) 
[H]c1c([H])c(Cl)c(N([H])C(=O)N2C([H])([H])C([H])([H])C([H])([H])C([H])(n3nc(-c4c([H])c([H])c(Oc5c([H])c([H])c(F)c([H])c5F)c([H])c4[H])c(C(=O)N([H])[H])c3N([H])[H])C2([H])[H])c(C([H])([H])N([H])Oc2c([H])c([H])c3c(c2[H])C([H])([H])N(C(=O)C([H])(N([H])C(=O)C([H])(N([H])C([H])([H])[H])C([H])([H])[H])C(C([H])([H])[H])(C([H])([H])[H])C([H])([H])[H])C([H])(C(=O)N([H])C2([H])c4c([H])c([H])c([H])c([H])c4C([H])([H])C([H])([H])C2([H])[H])C3([H])[H])c1[H]

$$$$
