0:0:0
     RDKit          3D

 98106  0  0  1  0  0  0  0  0999 V2000
  -32.1410  -21.1210   19.4690 C   0  0  0  0  0  0  0  0  0  0  0  0
  -33.5260  -22.0950   21.3000 C   0  0  0  0  0  1  0  0  0  0  0  0
  -32.9650  -20.9700   20.5370 N   0  0  0  0  0  0  0  0  0  0  0  0
  -31.6500  -20.1690   18.8490 O   0  0  0  0  0  0  0  0  0  0  0  0
  -31.7770  -22.5630   18.9920 C   0  0  0  0  0  0  0  0  0  0  0  0
  -30.4680  -22.8360   19.0430 N   0  0  0  0  0  0  0  0  0  0  0  0
  -32.6300  -23.3420   18.5570 O   0  0  0  0  0  0  0  0  0  0  0  0
  -29.8860  -22.0850   19.3960 H   0  0  0  0  0  0  0  0  0  0  0  0
  -29.7860  -23.9960   18.4790 C   0  0  0  0  0  2  0  0  0  0  0  0
  -29.7570  -25.2290   19.4080 C   0  0  0  0  0  2  0  0  0  0  0  0
  -28.5050  -26.0750   19.1280 C   0  0  0  0  0  2  0  0  0  0  0  0
  -28.4640  -27.2820   19.8920 O   0  0  0  0  0  0  0  0  0  0  0  0
  -24.6240  -32.0850   23.4680 C   0  0  0  0  0  0  0  0  0  0  0  0
  -27.2630  -27.9640   19.9570 C   0  0  0  0  0  0  0  0  0  0  0  0
  -23.3990  -30.8090   21.7400 C   0  0  0  0  0  3  0  0  0  0  0  0
  -24.8400  -29.4230   20.1610 C   0  0  0  0  0  0  0  0  0  0  0  0
  -25.9150  -31.2200   21.5220 C   0  0  0  0  0  2  0  0  0  0  0  0
  -26.0040  -29.9080   20.7700 C   0  0  0  0  0  0  0  0  0  0  0  0
  -27.2130  -29.1820   20.6740 C   0  0  0  0  0  3  0  0  0  0  0  0
  -26.0730  -27.4990   19.3400 C   0  0  0  0  0  3  0  0  0  0  0  0
  -24.8690  -28.2150   19.4490 C   0  0  0  0  0  3  0  0  0  0  0  0
  -23.5870  -30.2550   20.3020 C   0  0  0  0  0  2  0  0  0  0  0  0
  -24.6660  -31.3810   22.3020 N   0  0  0  0  0  0  0  0  0  0  0  0
  -23.5500  -32.2960   24.0490 O   0  0  0  0  0  0  0  0  0  0  0  0
  -22.7850  -29.6990   22.6220 C   0  0  0  0  0  0  0  0  0  0  0  0
  -21.4690  -29.4770   22.4730 N   0  0  0  0  0  0  0  0  0  0  0  0
  -23.4880  -29.0430   23.3950 O   0  0  0  0  0  0  0  0  0  0  0  0
  -20.9620  -30.0640   21.8260 H   0  0  0  0  0  0  0  0  0  0  0  0
  -18.1460  -28.1040   22.8270 C   0  0  0  0  0  0  0  0  0  0  0  0
  -20.6840  -28.4610   23.1700 C   0  0  0  0  0  3  0  0  0  0  0  0
  -20.8630  -27.0710   22.5160 C   0  0  0  0  0  2  0  0  0  0  0  0
  -19.7960  -26.7580   21.4610 C   0  0  0  0  0  2  0  0  0  0  0  0
  -18.3970  -26.8050   22.0830 C   0  0  0  0  0  2  0  0  0  0  0  0
  -19.2200  -28.8900   23.3240 C   0  0  0  0  0  0  0  0  0  0  0  0
  -18.9320  -30.1070   23.9780 C   0  0  0  0  0  3  0  0  0  0  0  0
  -17.6030  -30.5390   24.1440 C   0  0  0  0  0  3  0  0  0  0  0  0
  -16.5440  -29.7510   23.6630 C   0  0  0  0  0  3  0  0  0  0  0  0
  -16.8160  -28.5360   23.0110 C   0  0  0  0  0  3  0  0  0  0  0  0
  -25.9150  -32.6800   24.1110 C   0  0  0  0  0  3  0  0  0  0  0  0
  -25.6380  -34.0840   24.4400 N   0  0  0  0  0  0  0  0  0  0  0  0
  -25.9970  -35.1280   23.6810 C   0  0  0  0  0  0  0  0  0  0  0  0
  -26.6680  -35.0080   22.6530 O   0  0  0  0  0  0  0  0  0  0  0  0
  -25.0450  -34.2530   25.2390 H   0  0  0  0  0  0  0  0  0  0  0  0
  -24.3080  -36.9550   23.3190 C   0  0  0  0  0  1  0  0  0  0  0  0
  -25.5370  -36.5260   24.1350 C   0  0  0  0  0  3  0  0  0  0  0  0
  -27.6810  -37.3750   24.9800 C   0  0  0  0  0  1  0  0  0  0  0  0
  -26.5920  -37.5560   24.0230 N   0  0  0  0  0  0  0  0  0  0  0  0
  -26.2030  -38.4850   24.1590 H   0  0  0  0  0  0  0  0  0  0  0  0
  -26.3930  -31.8890   25.3900 C   0  0  1  0  0  0  0  0  0  0  0  0
  -25.2770  -31.6630   26.4350 C   0  0  0  0  0  1  0  0  0  0  0  0
  -26.9590  -30.5040   24.9940 C   0  0  0  0  0  1  0  0  0  0  0  0
  -27.5440  -32.6580   26.0810 C   0  0  0  0  0  1  0  0  0  0  0  0
  -33.3720  -19.6250   20.9800 C   0  0  0  0  0  2  0  0  0  0  0  0
  -30.1980  -17.2430   22.7560 C   0  0  0  0  0  3  0  0  0  0  0  0
  -30.5500  -18.4810   23.3220 C   0  0  0  0  0  3  0  0  0  0  0  0
  -31.8890  -17.5530   21.0280 C   0  0  0  0  0  3  0  0  0  0  0  0
  -32.2480  -18.7970   21.5980 C   0  0  0  0  0  0  0  0  0  0  0  0
  -30.8660  -16.7610   21.6100 C   0  0  0  0  0  0  0  0  0  0  0  0
  -31.5750  -19.2540   22.7520 C   0  0  0  0  0  0  0  0  0  0  0  0
  -31.9120  -20.4340   23.3210 F   0  0  0  0  0  0  0  0  0  0  0  0
  -30.8660  -14.7400   20.0930 C   0  0  0  0  0  0  0  0  0  0  0  0
  -30.5440  -12.5820   18.9260 C   0  0  0  0  0  2  0  0  0  0  0  0
  -29.5230  -12.6930   17.7780 C   0  0  0  0  0  2  0  0  0  0  0  0
  -28.0860  -12.5020   18.3000 C   0  0  0  0  0  2  0  0  0  0  0  0
  -27.7830  -13.3820   19.5400 C   0  0  0  0  0  3  0  0  0  0  0  0
  -28.9010  -13.2330   20.5960 C   0  0  0  0  0  2  0  0  0  0  0  0
  -30.1930  -13.5650   19.9610 N   0  0  0  0  0  0  0  0  0  0  0  0
  -31.8190  -15.0500   19.3700 O   0  0  0  0  0  0  0  0  0  0  0  0
  -30.4350  -15.4980   21.1160 N   0  0  0  0  0  0  0  0  0  0  0  0
  -29.6870  -15.0650   21.6360 H   0  0  0  0  0  0  0  0  0  0  0  0
  -25.4410  -13.9430   20.4560 C   0  0  0  0  0  0  0  0  0  0  0  0
  -24.4040  -13.1460   20.8640 C   0  0  0  0  0  0  0  0  0  0  0  0
  -24.8620  -11.8010   20.7250 C   0  0  0  0  0  0  0  0  0  0  0  0
  -26.4680  -13.0800   20.1010 N   0  0  0  0  0  0  0  0  0  0  0  0
  -26.1240  -11.7830   20.3160 N   0  0  0  0  0  0  0  0  0  0  0  0
  -24.1530  -10.5260   20.9040 C   0  0  0  0  0  0  0  0  0  0  0  0
  -24.5510   -9.5920   21.8860 C   0  0  0  0  0  3  0  0  0  0  0  0
  -23.8430   -8.3810   22.0490 C   0  0  0  0  0  3  0  0  0  0  0  0
  -22.7260   -8.0960   21.2290 C   0  0  0  0  0  0  0  0  0  0  0  0
  -22.3490   -9.0190   20.2380 C   0  0  0  0  0  3  0  0  0  0  0  0
  -23.0560  -10.2210   20.0730 C   0  0  0  0  0  3  0  0  0  0  0  0
  -21.9950   -6.9350   21.3000 O   0  0  0  0  0  0  0  0  0  0  0  0
  -21.7510   -6.3080   22.4950 C   0  0  0  0  0  0  0  0  0  0  0  0
  -21.0570   -6.9500   23.5440 C   0  0  0  0  0  3  0  0  0  0  0  0
  -20.7670   -6.2460   24.7300 C   0  0  0  0  0  3  0  0  0  0  0  0
  -21.1620   -4.9010   24.8660 C   0  0  0  0  0  0  0  0  0  0  0  0
  -21.8480   -4.2590   23.8200 C   0  0  0  0  0  3  0  0  0  0  0  0
  -22.1390   -4.9610   22.6370 C   0  0  0  0  0  0  0  0  0  0  0  0
  -22.7820   -4.3310   21.6240 F   0  0  0  0  0  0  0  0  0  0  0  0
  -20.8770   -4.2220   26.0020 F   0  0  0  0  0  0  0  0  0  0  0  0
  -23.0310  -13.6010   21.2700 C   0  0  0  0  0  0  0  0  0  0  0  0
  -22.3810  -12.8650   22.1640 N   0  0  0  0  0  0  0  0  0  0  0  0
  -22.5470  -14.6430   20.8300 O   0  0  0  0  0  0  0  0  0  0  0  0
  -22.7870  -12.0210   22.5410 H   0  0  0  0  0  0  0  0  0  0  0  0
  -21.4640  -13.1490   22.4770 H   0  0  0  0  0  0  0  0  0  0  0  0
  -25.5910  -15.3210   20.3420 N   0  0  0  0  0  0  0  0  0  0  0  0
  -24.8400  -15.9690   20.5480 H   0  0  0  0  0  0  0  0  0  0  0  0
  -26.4250  -15.7780   19.9910 H   0  0  0  0  0  0  0  0  0  0  0  0
  1  3  1  0
  3 53  1  0
  3  2  1  0
  4  1  2  0
  5  6  1  0
  5  1  1  0
  6  8  1  0
  7  5  2  0
  9  6  1  0
  9 10  1  0
 11 10  1  0
 11 12  1  0
 12 14  1  0
 13 24  2  0
 14 19  1  0
 15 23  1  0
 15 25  1  0
 16 22  1  0
 16 18  1  0
 17 23  1  0
 18 17  1  0
 19 18  2  0
 20 21  1  0
 20 14  2  0
 21 16  2  0
 22 15  1  0
 23 13  1  0
 25 27  2  0
 26 25  1  0
 28 26  1  0
 29 38  2  0
 29 34  1  0
 30 26  1  0
 30 34  1  0
 31 30  1  0
 32 33  1  0
 32 31  1  0
 33 29  1  0
 34 35  2  0
 35 36  1  0
 37 36  2  0
 38 37  1  0
 39 13  1  0
 39 40  1  0
 39 49  1  0
 40 43  1  0
 41 45  1  0
 41 40  1  0
 42 41  2  0
 45 44  1  0
 47 45  1  0
 47 48  1  0
 47 46  1  0
 49 52  1  1
 49 50  1  0
 51 49  1  0
 53 57  1  0
 54 55  1  0
 56 57  2  0
 56 58  1  0
 57 59  1  0
 58 54  2  0
 59 60  1  0
 59 55  2  0
 61 69  1  0
 62 67  1  0
 63 64  1  0
 63 62  1  0
 65 64  1  0
 65 74  1  0
 65 66  1  0
 67 61  1  0
 67 66  1  0
 68 61  2  0
 69 58  1  0
 69 70  1  0
 71 72  2  0
 72 91  1  0
 73 72  1  0
 73 76  1  0
 74 75  1  0
 74 71  1  0
 75 73  2  0
 76 77  1  0
 77 78  2  0
 79 82  1  0
 79 78  1  0
 80 79  2  0
 81 80  1  0
 81 76  2  0
 82 83  1  0
 83 88  2  0
 83 84  1  0
 84 85  2  0
 85 86  1  0
 86 90  1  0
 87 86  2  0
 88 87  1  0
 89 88  1  0
 91 92  1  0
 92 95  1  0
 92 94  1  0
 93 91  2  0
 96 71  1  0
 96 97  1  0
 98 96  1  0
M  ISO  4  11 101  12 101  61 100  69 100
M  END
>  <TORSDO>  (1) 
F 22

>  <SCORE>  (1) 
-11.180

>  <name>  (1) 
0

>  <ligand_id>  (1) 
0

>  <original_smiles>  (1) 
[H]c1c([H])c([H])c2c(c1[H])C([H])([H])C([H])([H])C([H])([H])C2([H])N([H])C(=O)C1([H])N(C(=O)C([H])(N([H])C(=O)C([H])(N([H])C([H])([H])[H])C([H])([H])[H])C(C([H])([H])[H])(C([H])([H])[H])C([H])([H])[H])C([H])([H])c2c([H])c(OC([H])([H])C([H])([H])C([H])([H])N([H])C(=O)C(=O)N(C([H])([H])[H])C([H])([H])c3c([H])c(N([H])C(=O)N4C([H])([H])C([H])([H])C([H])([H])C([H])(n5nc(-c6c([H])c([H])c(Oc7c([H])c([H])c(F)c([H])c7F)c([H])c6[H])c(C(=O)N([H])[H])c5N([H])[H])C4([H])[H])c([H])c([H])c3F)c([H])c([H])c2C1([H])[H]

>  <smiles>  (1) 
[H]c1c([H])c([H])c2c(c1[H])C([H])([H])C([H])([H])C([H])([H])C2([H])N([H])C(=O)C1([H])N(C(=O)C([H])(N([H])C(=O)C([H])(N([H])C([H])([H])[H])C([H])([H])[H])C(C([H])([H])[H])(C([H])([H])[H])C([H])([H])[H])C([H])([H])c2c([H])c(OC([H])([H])C([H])([H])C([H])([H])N([H])C(=O)C(=O)N(C([H])([H])[H])C([H])([H])c3c([H])c(N([H])C(=O)N4C([H])([H])C([H])([H])C([H])([H])C([H])(n5nc(-c6c([H])c([H])c(Oc7c([H])c([H])c(F)c([H])c7F)c([H])c6[H])c(C(=O)N([H])[H])c5N([H])[H])C4([H])[H])c([H])c([H])c3F)c([H])c([H])c2C1([H])[H]

$$$$
1:0:0
     RDKit          3D

 97105  0  0  1  0  0  0  0  0999 V2000
  -28.3490  -20.8890   20.2760 C   0  0  0  0  0  0  0  0  0  0  0  0
  -28.6580  -22.0680   20.8450 N   0  0  0  0  0  0  0  0  0  0  0  0
  -27.2620  -20.7180   19.7170 O   0  0  0  0  0  0  0  0  0  0  0  0
  -29.5530  -22.1380   21.3080 H   0  0  0  0  0  0  0  0  0  0  0  0
  -28.8090  -18.7380   21.0930 C   0  0  0  0  0  3  0  0  0  0  0  0
  -29.2160  -17.4630   21.2030 C   0  0  0  0  0  2  0  0  0  0  0  0
  -31.4720  -17.4770   20.4220 C   0  0  0  0  0  3  0  0  0  0  0  0
  -29.3440  -19.8240   20.4810 C   0  0  0  0  0  0  0  0  0  0  0  0
  -30.5980  -19.9500   19.9480 C   0  0  0  0  0  0  0  0  0  0  0  0
  -30.3330  -16.8420   20.7890 C   0  0  0  0  0  0  0  0  0  0  0  0
  -31.6790  -18.9290   20.1780 C   0  0  0  0  0  0  0  0  0  0  0  0
  -31.0350  -21.1310   19.0610 C   0  0  0  0  0  1  0  0  0  0  0  0
  -32.8880  -19.3080   20.1110 N   0  0  0  0  0  2  0  0  0  0  0  0
  -33.5340  -18.5420   20.2570 H   0  0  0  0  0  0  0  0  0  0  0  0
  -30.9110  -14.4870   20.0930 C   0  0  0  0  0  0  0  0  0  0  0  0
  -30.5750  -12.3360   18.9300 C   0  0  0  0  0  2  0  0  0  0  0  0
  -29.5760  -12.5640   17.7770 C   0  0  0  0  0  2  0  0  0  0  0  0
  -28.1220  -12.4270   18.2710 C   0  0  0  0  0  2  0  0  0  0  0  0
  -27.8520  -13.2490   19.5590 C   0  0  0  0  0  3  0  0  0  0  0  0
  -28.9530  -12.9850   20.6110 C   0  0  0  0  0  2  0  0  0  0  0  0
  -30.2580  -13.2980   19.9960 N   0  0  0  0  0  0  0  0  0  0  0  0
  -31.9850  -14.7060   19.5230 O   0  0  0  0  0  0  0  0  0  0  0  0
  -30.2000  -15.4360   20.7390 N   0  0  0  0  0  0  0  0  0  0  0  0
  -29.3450  -15.0780   21.1380 H   0  0  0  0  0  0  0  0  0  0  0  0
  -25.4980  -13.8770   20.3930 C   0  0  0  0  0  0  0  0  0  0  0  0
  -24.4380  -13.1130   20.8010 C   0  0  0  0  0  0  0  0  0  0  0  0
  -24.8790  -11.7560   20.7210 C   0  0  0  0  0  0  0  0  0  0  0  0
  -26.5180  -12.9870   20.0940 N   0  0  0  0  0  0  0  0  0  0  0  0
  -26.1500  -11.7050   20.3450 N   0  0  0  0  0  0  0  0  0  0  0  0
  -24.1470  -10.5000   20.9250 C   0  0  0  0  0  0  0  0  0  0  0  0
  -24.5440   -9.5650   21.9060 C   0  0  0  0  0  3  0  0  0  0  0  0
  -23.8150   -8.3720   22.0940 C   0  0  0  0  0  3  0  0  0  0  0  0
  -22.6730   -8.1050   21.3010 C   0  0  0  0  0  0  0  0  0  0  0  0
  -22.2950   -9.0290   20.3120 C   0  0  0  0  0  3  0  0  0  0  0  0
  -23.0250  -10.2140   20.1220 C   0  0  0  0  0  3  0  0  0  0  0  0
  -21.9180   -6.9610   21.3980 O   0  0  0  0  0  0  0  0  0  0  0  0
  -21.7360   -6.3160   22.5950 C   0  0  0  0  0  0  0  0  0  0  0  0
  -21.1350   -6.9550   23.7010 C   0  0  0  0  0  3  0  0  0  0  0  0
  -20.9040   -6.2350   24.8900 C   0  0  0  0  0  3  0  0  0  0  0  0
  -21.2640   -4.8760   24.9720 C   0  0  0  0  0  0  0  0  0  0  0  0
  -21.8570   -4.2370   23.8680 C   0  0  0  0  0  3  0  0  0  0  0  0
  -22.0900   -4.9550   22.6820 C   0  0  0  0  0  0  0  0  0  0  0  0
  -22.6430   -4.3290   21.6150 F   0  0  0  0  0  0  0  0  0  0  0  0
  -21.0360   -4.1810   26.1090 F   0  0  0  0  0  0  0  0  0  0  0  0
  -23.0630  -13.6020   21.1540 C   0  0  0  0  0  0  0  0  0  0  0  0
  -22.3710  -12.8950   22.0420 N   0  0  0  0  0  0  0  0  0  0  0  0
  -22.6140  -14.6440   20.6790 O   0  0  0  0  0  0  0  0  0  0  0  0
  -22.7490  -12.0510   22.4450 H   0  0  0  0  0  0  0  0  0  0  0  0
  -21.4510  -13.2050   22.3200 H   0  0  0  0  0  0  0  0  0  0  0  0
  -25.6760  -15.2490   20.2360 N   0  0  0  0  0  0  0  0  0  0  0  0
  -24.9320  -15.9160   20.4120 H   0  0  0  0  0  0  0  0  0  0  0  0
  -26.5080  -15.6780   19.8510 H   0  0  0  0  0  0  0  0  0  0  0  0
  -27.6620  -23.1160   21.0920 C   0  0  0  0  0  2  0  0  0  0  0  0
  -27.2610  -25.2540   22.3410 C   0  0  0  0  0  1  0  0  0  0  0  0
  -28.2290  -24.5330   21.3810 C   0  0  0  0  0  3  0  0  0  0  0  0
  -28.5260  -25.3300   20.0710 C   0  0  0  0  0  2  0  0  0  0  0  0
  -28.5670  -26.7670   20.2040 O   0  0  0  0  0  0  0  0  0  0  0  0
  -24.6890  -31.8420   23.3020 C   0  0  0  0  0  0  0  0  0  0  0  0
  -27.3900  -27.4920   20.1370 C   0  0  0  0  0  0  0  0  0  0  0  0
  -23.5160  -30.4960   21.5920 C   0  0  0  0  0  3  0  0  0  0  0  0
  -24.9970  -29.0100   20.1430 C   0  0  0  0  0  0  0  0  0  0  0  0
  -26.0480  -30.8570   21.4570 C   0  0  0  0  0  2  0  0  0  0  0  0
  -26.1430  -29.5080   20.7750 C   0  0  0  0  0  0  0  0  0  0  0  0
  -27.3400  -28.7570   20.7690 C   0  0  0  0  0  3  0  0  0  0  0  0
  -26.2250  -27.0180   19.4860 C   0  0  0  0  0  3  0  0  0  0  0  0
  -25.0340  -27.7650   19.4960 C   0  0  0  0  0  3  0  0  0  0  0  0
  -23.7520  -29.8640   20.1950 C   0  0  0  0  0  2  0  0  0  0  0  0
  -24.7700  -31.0780   22.1770 N   0  0  0  0  0  0  0  0  0  0  0  0
  -23.5960  -32.1040   23.8220 O   0  0  0  0  0  0  0  0  0  0  0  0
  -22.8420  -29.4460   22.5030 C   0  0  0  0  0  0  0  0  0  0  0  0
  -21.5140  -29.2960   22.3590 N   0  0  0  0  0  0  0  0  0  0  0  0
  -23.5070  -28.7730   23.2930 O   0  0  0  0  0  0  0  0  0  0  0  0
  -21.0390  -29.8840   21.6900 H   0  0  0  0  0  0  0  0  0  0  0  0
  -18.1050  -28.1980   22.8170 C   0  0  0  0  0  0  0  0  0  0  0  0
  -20.6710  -28.3460   23.0830 C   0  0  0  0  0  3  0  0  0  0  0  0
  -20.7190  -26.9480   22.4200 C   0  0  0  0  0  2  0  0  0  0  0  0
  -19.6000  -26.7340   21.3980 C   0  0  0  0  0  2  0  0  0  0  0  0
  -18.2300  -26.8840   22.0660 C   0  0  0  0  0  2  0  0  0  0  0  0
  -19.2530  -28.8940   23.2810 C   0  0  0  0  0  0  0  0  0  0  0  0
  -19.0820  -30.1320   23.9370 C   0  0  0  0  0  3  0  0  0  0  0  0
  -17.7970  -30.6680   24.1410 C   0  0  0  0  0  3  0  0  0  0  0  0
  -16.6620  -29.9640   23.6980 C   0  0  0  0  0  3  0  0  0  0  0  0
  -16.8200  -28.7300   23.0420 C   0  0  0  0  0  3  0  0  0  0  0  0
  -25.9620  -32.4430   23.9750 C   0  0  0  0  0  3  0  0  0  0  0  0
  -26.4360  -31.6340   25.2440 C   0  0  1  0  0  0  0  0  0  0  0  0
  -25.3100  -31.3770   26.2710 C   0  0  0  0  0  1  0  0  0  0  0  0
  -27.0180  -30.2640   24.8250 C   0  0  0  0  0  1  0  0  0  0  0  0
  -27.5760  -32.3990   25.9580 C   0  0  0  0  0  1  0  0  0  0  0  0
  -25.6590  -33.8370   24.3290 N   0  0  0  0  0  0  0  0  0  0  0  0
  -26.0300  -34.9010   23.6050 C   0  0  0  0  0  0  0  0  0  0  0  0
  -26.7310  -34.8120   22.5930 O   0  0  0  0  0  0  0  0  0  0  0  0
  -25.0360  -33.9830   25.1100 H   0  0  0  0  0  0  0  0  0  0  0  0
  -24.3370  -36.7210   23.2290 C   0  0  0  0  0  1  0  0  0  0  0  0
  -25.5430  -36.2840   24.0760 C   0  0  0  0  0  3  0  0  0  0  0  0
  -27.6530  -37.1230   25.0090 C   0  0  0  0  0  1  0  0  0  0  0  0
  -26.5930  -37.3250   24.0240 N   0  0  0  0  0  0  0  0  0  0  0  0
  -26.1940  -38.2470   24.1730 H   0  0  0  0  0  0  0  0  0  0  0  0
  1  8  1  0
  1  2  1  0
  2 53  1  0
  2  4  1  0
  3  1  2  0
  5  6  1  0
  7 10  2  0
  8  5  2  0
  9 11  2  0
  9  8  1  0
 10  6  1  0
 11  7  1  0
 12  9  1  0
 13 11  1  0
 13 14  1  0
 15 23  1  0
 16 21  1  0
 17 18  1  0
 17 16  1  0
 19 18  1  0
 19 28  1  0
 19 20  1  0
 21 15  1  0
 21 20  1  0
 22 15  2  0
 23 10  1  0
 23 24  1  0
 25 26  2  0
 26 45  1  0
 27 26  1  0
 27 30  1  0
 28 29  1  0
 28 25  1  0
 29 27  2  0
 30 31  1  0
 31 32  2  0
 33 36  1  0
 33 32  1  0
 34 33  2  0
 35 34  1  0
 35 30  2  0
 36 37  1  0
 37 42  2  0
 37 38  1  0
 38 39  2  0
 39 40  1  0
 40 44  1  0
 41 40  2  0
 42 41  1  0
 43 42  1  0
 45 46  1  0
 46 49  1  0
 46 48  1  0
 47 45  2  0
 50 25  1  0
 50 51  1  0
 52 50  1  0
 53 55  1  0
 55 54  1  0
 56 57  1  0
 56 55  1  0
 58 69  2  0
 59 57  1  0
 59 64  1  0
 60 68  1  0
 60 70  1  0
 61 67  1  0
 61 63  1  0
 62 68  1  0
 63 62  1  0
 64 63  2  0
 65 66  1  0
 65 59  2  0
 66 61  2  0
 67 60  1  0
 68 58  1  0
 70 72  2  0
 71 70  1  0
 73 71  1  0
 74 83  2  0
 74 79  1  0
 75 71  1  0
 75 79  1  0
 76 75  1  0
 77 78  1  0
 77 76  1  0
 78 74  1  0
 79 80  2  0
 80 81  1  0
 82 81  2  0
 83 82  1  0
 84 58  1  0
 84 89  1  0
 84 85  1  0
 85 88  1  1
 85 86  1  0
 87 85  1  0
 89 92  1  0
 90 94  1  0
 90 89  1  0
 91 90  2  0
 94 93  1  0
 96 94  1  0
 96 97  1  0
 96 95  1  0
M  ISO  4  15 100  23 100  56 101  57 101
M  END
>  <TORSDO>  (2) 
F 20

>  <SCORE>  (2) 
-13.259

>  <name>  (2) 
1

>  <ligand_id>  (2) 
1

>  <original_smiles>  (2) 
[H]N=c1c([H])c(N([H])C(=O)N2C([H])([H])C([H])([H])C([H])([H])C([H])(n3nc(-c4c([H])c([H])c(Oc5c([H])c([H])c(F)c([H])c5F)c([H])c4[H])c(C(=O)N([H])[H])c3N([H])[H])C2([H])[H])c([H])c([H])c(C(=O)N([H])C([H])([H])C([H])(C([H])([H])[H])C([H])([H])Oc2c([H])c([H])c3c(c2[H])C([H])([H])N(C(=O)C([H])(N([H])C(=O)C([H])(N([H])C([H])([H])[H])C([H])([H])[H])C(C([H])([H])[H])(C([H])([H])[H])C([H])([H])[H])C([H])(C(=O)N([H])C2([H])c4c([H])c([H])c([H])c([H])c4C([H])([H])C([H])([H])C2([H])[H])C3([H])[H])c1C([H])([H])[H]

>  <smiles>  (2) 
[H]N=c1c([H])c(N([H])C(=O)N2C([H])([H])C([H])([H])C([H])([H])C([H])(n3nc(-c4c([H])c([H])c(Oc5c([H])c([H])c(F)c([H])c5F)c([H])c4[H])c(C(=O)N([H])[H])c3N([H])[H])C2([H])[H])c([H])c([H])c(C(=O)N([H])C([H])([H])C([H])(C([H])([H])[H])C([H])([H])Oc2c([H])c([H])c3c(c2[H])C([H])([H])N(C(=O)C([H])(N([H])C(=O)C([H])(N([H])C([H])([H])[H])C([H])([H])[H])C(C([H])([H])[H])(C([H])([H])[H])C([H])([H])[H])C([H])(C(=O)N([H])C2([H])c4c([H])c([H])c([H])c([H])c4C([H])([H])C([H])([H])C2([H])[H])C3([H])[H])c1C([H])([H])[H]

$$$$
2:0:0
     RDKit          3D

 94102  0  0  1  0  0  0  0  0999 V2000
  -28.3660  -20.7730   19.9350 C   0  0  0  0  0  2  0  0  0  0  0  0
  -28.7710  -18.7570   21.4160 C   0  0  0  0  0  3  0  0  0  0  0  0
  -29.1690  -17.4250   21.6410 C   0  0  0  0  0  3  0  0  0  0  0  0
  -30.0780  -17.3270   19.3950 C   0  0  0  0  0  3  0  0  0  0  0  0
  -29.6590  -18.6600   19.1480 C   0  0  0  0  0  0  0  0  0  0  0  0
  -28.9830  -19.3830   20.1690 C   0  0  0  0  0  0  0  0  0  0  0  0
  -29.8160  -16.6880   20.6290 C   0  0  0  0  0  0  0  0  0  0  0  0
  -30.6630  -14.4090   20.0670 C   0  0  0  0  0  0  0  0  0  0  0  0
  -30.2680  -12.3070   18.8380 C   0  0  0  0  0  2  0  0  0  0  0  0
  -29.2430  -12.5850   17.7180 C   0  0  0  0  0  2  0  0  0  0  0  0
  -27.7960  -12.4680   18.2390 C   0  0  0  0  0  2  0  0  0  0  0  0
  -27.5750  -13.2390   19.5670 C   0  0  0  0  0  3  0  0  0  0  0  0
  -28.6970  -12.9160   20.5790 C   0  0  0  0  0  2  0  0  0  0  0  0
  -29.9930  -13.2300   19.9480 N   0  0  0  0  0  0  0  0  0  0  0  0
  -31.7040  -14.6590   19.4520 O   0  0  0  0  0  0  0  0  0  0  0  0
  -30.0780  -15.3060   20.8820 N   0  0  0  0  0  0  0  0  0  0  0  0
  -29.4610  -14.8840   21.5580 H   0  0  0  0  0  0  0  0  0  0  0  0
  -25.2350  -13.8630   20.4560 C   0  0  0  0  0  0  0  0  0  0  0  0
  -24.1830  -13.0960   20.8800 C   0  0  0  0  0  0  0  0  0  0  0  0
  -24.6200  -11.7390   20.7790 C   0  0  0  0  0  0  0  0  0  0  0  0
  -26.2490  -12.9740   20.1280 N   0  0  0  0  0  0  0  0  0  0  0  0
  -25.8830  -11.6900   20.3760 N   0  0  0  0  0  0  0  0  0  0  0  0
  -23.8900  -10.4810   20.9910 C   0  0  0  0  0  0  0  0  0  0  0  0
  -24.3670   -9.4930   21.8790 C   0  0  0  0  0  3  0  0  0  0  0  0
  -23.6390   -8.2990   22.0820 C   0  0  0  0  0  3  0  0  0  0  0  0
  -22.4210   -8.0860   21.3940 C   0  0  0  0  0  0  0  0  0  0  0  0
  -21.9610   -9.0640   20.4950 C   0  0  0  0  0  3  0  0  0  0  0  0
  -22.6890  -10.2490   20.2920 C   0  0  0  0  0  3  0  0  0  0  0  0
  -21.6640   -6.9450   21.5030 O   0  0  0  0  0  0  0  0  0  0  0  0
  -21.6600   -6.1910   22.6480 C   0  0  0  0  0  0  0  0  0  0  0  0
  -21.3170   -6.7430   23.9020 C   0  0  0  0  0  3  0  0  0  0  0  0
  -21.2560   -5.9160   25.0420 C   0  0  0  0  0  3  0  0  0  0  0  0
  -21.5290   -4.5400   24.9310 C   0  0  0  0  0  0  0  0  0  0  0  0
  -21.8660   -3.9880   23.6820 C   0  0  0  0  0  3  0  0  0  0  0  0
  -21.9270   -4.8120   22.5440 C   0  0  0  0  0  0  0  0  0  0  0  0
  -22.2310   -4.2710   21.3400 F   0  0  0  0  0  0  0  0  0  0  0  0
  -21.4630   -3.7450   26.0240 F   0  0  0  0  0  0  0  0  0  0  0  0
  -22.8180  -13.5850   21.2660 C   0  0  0  0  0  0  0  0  0  0  0  0
  -22.1490  -12.8870   22.1760 N   0  0  0  0  0  0  0  0  0  0  0  0
  -22.3530  -14.6220   20.7940 O   0  0  0  0  0  0  0  0  0  0  0  0
  -22.5400  -12.0480   22.5820 H   0  0  0  0  0  0  0  0  0  0  0  0
  -21.2350  -13.1970   22.4720 H   0  0  0  0  0  0  0  0  0  0  0  0
  -25.4110  -15.2360   20.3110 N   0  0  0  0  0  0  0  0  0  0  0  0
  -24.6730  -15.9030   20.5080 H   0  0  0  0  0  0  0  0  0  0  0  0
  -26.2590  -15.6670   19.9640 H   0  0  0  0  0  0  0  0  0  0  0  0
  -29.8390  -18.5300   16.6600 C   0  0  0  0  0  2  0  0  0  0  0  0
  -29.8210  -19.2360   17.8020 C   0  0  0  0  0  3  0  0  0  0  0  0
  -28.6260  -23.2030   19.8360 C   0  0  0  0  0  0  0  0  0  0  0  0
  -30.6330  -21.8410   20.3830 C   0  0  0  0  0  1  0  0  0  0  0  0
  -29.2060  -21.9880   20.0580 N   0  0  0  0  0  0  0  0  0  0  0  0
  -27.4160  -23.3090   19.6200 O   0  0  0  0  0  0  0  0  0  0  0  0
  -29.4940  -24.4820   19.8300 C   0  0  0  0  0  2  0  0  0  0  0  0
  -28.8610  -25.7380   19.1680 C   0  0  0  0  0  2  0  0  0  0  0  0
  -28.5350  -26.7440   20.1420 O   0  0  0  0  0  0  0  0  0  0  0  0
  -24.6450  -31.8430   23.2050 C   0  0  0  0  0  0  0  0  0  0  0  0
  -27.3290  -27.4200   20.1100 C   0  0  0  0  0  0  0  0  0  0  0  0
  -23.4420  -30.4160   21.5840 C   0  0  0  0  0  3  0  0  0  0  0  0
  -24.9040  -28.8900   20.1520 C   0  0  0  0  0  0  0  0  0  0  0  0
  -25.9620  -30.8060   21.3620 C   0  0  0  0  0  2  0  0  0  0  0  0
  -26.0590  -29.4330   20.7230 C   0  0  0  0  0  0  0  0  0  0  0  0
  -27.2680  -28.7010   20.7070 C   0  0  0  0  0  3  0  0  0  0  0  0
  -26.1440  -26.8800   19.5580 C   0  0  0  0  0  3  0  0  0  0  0  0
  -24.9390  -27.6080   19.5750 C   0  0  0  0  0  3  0  0  0  0  0  0
  -23.6500  -29.7340   20.2040 C   0  0  0  0  0  2  0  0  0  0  0  0
  -24.7020  -31.0350   22.1090 N   0  0  0  0  0  0  0  0  0  0  0  0
  -23.5650  -32.1070   23.7530 O   0  0  0  0  0  0  0  0  0  0  0  0
  -22.8140  -29.3900   22.5550 C   0  0  0  0  0  0  0  0  0  0  0  0
  -21.4910  -29.1900   22.4420 N   0  0  0  0  0  0  0  0  0  0  0  0
  -23.5140  -28.7770   23.3670 O   0  0  0  0  0  0  0  0  0  0  0  0
  -20.9840  -29.7390   21.7610 H   0  0  0  0  0  0  0  0  0  0  0  0
  -18.1390  -27.9560   22.9750 C   0  0  0  0  0  0  0  0  0  0  0  0
  -20.6950  -28.2470   23.2270 C   0  0  0  0  0  3  0  0  0  0  0  0
  -20.8120  -26.8130   22.6620 C   0  0  0  0  0  2  0  0  0  0  0  0
  -19.7080  -26.4680   21.6570 C   0  0  0  0  0  2  0  0  0  0  0  0
  -18.3280  -26.6030   22.3080 C   0  0  0  0  0  2  0  0  0  0  0  0
  -19.2510  -28.7340   23.3920 C   0  0  0  0  0  0  0  0  0  0  0  0
  -19.0210  -29.9990   23.9740 C   0  0  0  0  0  3  0  0  0  0  0  0
  -17.7120  -30.4870   24.1450 C   0  0  0  0  0  3  0  0  0  0  0  0
  -16.6150  -29.7040   23.7450 C   0  0  0  0  0  3  0  0  0  0  0  0
  -16.8280  -28.4420   23.1650 C   0  0  0  0  0  3  0  0  0  0  0  0
  -25.9290  -32.4960   23.8070 C   0  0  0  0  0  3  0  0  0  0  0  0
  -25.6020  -33.8880   24.1420 N   0  0  0  0  0  0  0  0  0  0  0  0
  -25.9000  -34.9450   23.3760 C   0  0  0  0  0  0  0  0  0  0  0  0
  -26.5520  -34.8530   22.3310 O   0  0  0  0  0  0  0  0  0  0  0  0
  -25.0220  -34.0340   24.9560 H   0  0  0  0  0  0  0  0  0  0  0  0
  -24.1240  -36.6970   23.0620 C   0  0  0  0  0  1  0  0  0  0  0  0
  -25.3950  -36.3230   23.8420 C   0  0  0  0  0  3  0  0  0  0  0  0
  -27.5340  -37.2510   24.6100 C   0  0  0  0  0  1  0  0  0  0  0  0
  -26.3990  -37.3980   23.7010 N   0  0  0  0  0  0  0  0  0  0  0  0
  -25.9780  -38.3080   23.8670 H   0  0  0  0  0  0  0  0  0  0  0  0
  -26.4800  -31.7330   25.0730 C   0  0  1  0  0  0  0  0  0  0  0  0
  -25.4110  -31.4790   26.1610 C   0  0  0  0  0  1  0  0  0  0  0  0
  -27.0800  -30.3650   24.6700 C   0  0  0  0  0  1  0  0  0  0  0  0
  -27.6280  -32.5460   25.7160 C   0  0  0  0  0  1  0  0  0  0  0  0
  1 50  1  0
  1  6  1  0
  2  3  1  0
  4  7  1  0
  5  4  2  0
  5  6  1  0
  6  2  2  0
  7 16  1  0
  7  3  2  0
  8 16  1  0
  9 14  1  0
 10 11  1  0
 10  9  1  0
 12 11  1  0
 12 21  1  0
 12 13  1  0
 14  8  1  0
 14 13  1  0
 15  8  2  0
 16 17  1  0
 18 19  2  0
 19 38  1  0
 20 19  1  0
 20 23  1  0
 21 22  1  0
 21 18  1  0
 22 20  2  0
 23 24  1  0
 24 25  2  0
 26 29  1  0
 26 25  1  0
 27 26  2  0
 28 27  1  0
 28 23  2  0
 29 30  1  0
 30 31  1  0
 31 32  2  0
 33 32  1  0
 33 37  1  0
 34 33  2  0
 35 30  2  0
 35 34  1  0
 36 35  1  0
 38 39  1  0
 39 42  1  0
 39 41  1  0
 40 38  2  0
 43 18  1  0
 43 44  1  0
 45 43  1  0
 46 47  2  0
 47  5  1  0
 48 50  1  0
 50 49  1  0
 51 48  2  0
 52 48  1  0
 53 52  1  0
 53 54  1  0
 55 66  2  0
 56 54  1  0
 56 61  1  0
 57 65  1  0
 57 67  1  0
 58 64  1  0
 58 60  1  0
 59 65  1  0
 60 59  1  0
 61 60  2  0
 62 63  1  0
 62 56  2  0
 63 58  2  0
 64 57  1  0
 65 55  1  0
 67 69  2  0
 68 67  1  0
 70 68  1  0
 71 80  2  0
 71 76  1  0
 72 68  1  0
 72 76  1  0
 73 72  1  0
 74 75  1  0
 74 73  1  0
 75 71  1  0
 76 77  2  0
 77 78  1  0
 79 78  2  0
 80 79  1  0
 81 55  1  0
 81 82  1  0
 81 91  1  0
 82 85  1  0
 83 87  1  0
 83 82  1  0
 84 83  2  0
 87 86  1  0
 89 87  1  0
 89 90  1  0
 89 88  1  0
 91 94  1  1
 91 92  1  0
 93 91  1  0
M  ISO  4   8 100  16 100  53 101  54 101
M  END
>  <TORSDO>  (3) 
F 21

>  <SCORE>  (3) 
-12.061

>  <name>  (3) 
2

>  <ligand_id>  (3) 
2

>  <original_smiles>  (3) 
[H]C([H])=C([H])c1c([H])c(N([H])C(=O)N2C([H])([H])C([H])([H])C([H])([H])C([H])(n3nc(-c4c([H])c([H])c(Oc5c([H])c([H])c(F)c([H])c5F)c([H])c4[H])c(C(=O)N([H])[H])c3N([H])[H])C2([H])[H])c([H])c([H])c1C([H])([H])N(C(=O)C([H])([H])C([H])([H])Oc1c([H])c([H])c2c(c1[H])C([H])([H])N(C(=O)C([H])(N([H])C(=O)C([H])(N([H])C([H])([H])[H])C([H])([H])[H])C(C([H])([H])[H])(C([H])([H])[H])C([H])([H])[H])C([H])(C(=O)N([H])C1([H])c3c([H])c([H])c([H])c([H])c3C([H])([H])C([H])([H])C1([H])[H])C2([H])[H])C([H])([H])[H]

>  <smiles>  (3) 
[H]C([H])=C([H])c1c([H])c(N([H])C(=O)N2C([H])([H])C([H])([H])C([H])([H])C([H])(n3nc(-c4c([H])c([H])c(Oc5c([H])c([H])c(F)c([H])c5F)c([H])c4[H])c(C(=O)N([H])[H])c3N([H])[H])C2([H])[H])c([H])c([H])c1C([H])([H])N(C(=O)C([H])([H])C([H])([H])Oc1c([H])c([H])c2c(c1[H])C([H])([H])N(C(=O)C([H])(N([H])C(=O)C([H])(N([H])C([H])([H])[H])C([H])([H])[H])C(C([H])([H])[H])(C([H])([H])[H])C([H])([H])[H])C([H])(C(=O)N([H])C1([H])c3c([H])c([H])c([H])c([H])c3C([H])([H])C([H])([H])C1([H])[H])C2([H])[H])C([H])([H])[H]

$$$$
3:0:0
     RDKit          3D

 89 97  0  0  1  0  0  0  0  0999 V2000
  -28.5390  -19.8240   19.7250 C   0  0  0  0  0  3  0  0  0  0  0  0
  -28.6980  -18.3800   19.6530 C   0  0  0  0  0  3  0  0  0  0  0  0
  -30.5550  -18.4800   21.0950 C   0  0  0  0  0  3  0  0  0  0  0  0
  -29.3350  -20.6870   20.5460 C   0  0  0  0  0  0  0  0  0  0  0  0
  -29.7010  -17.6100   20.3410 C   0  0  0  0  0  0  0  0  0  0  0  0
  -30.3750  -19.9240   21.1970 C   0  0  0  0  0  0  0  0  0  0  0  0
  -31.2330  -20.5970   22.0020 F   0  0  0  0  0  0  0  0  0  0  0  0
  -30.5270  -14.9650   20.2750 C   0  0  0  0  0  0  0  0  0  0  0  0
  -30.4220  -12.6260   19.3030 C   0  0  0  0  0  2  0  0  0  0  0  0
  -29.4600  -12.5990   18.0910 C   0  0  0  0  0  2  0  0  0  0  0  0
  -27.9990  -12.3990   18.5430 C   0  0  0  0  0  2  0  0  0  0  0  0
  -27.6170  -13.3000   19.7470 C   0  0  0  0  0  3  0  0  0  0  0  0
  -28.6960  -13.2760   20.8510 C   0  0  0  0  0  2  0  0  0  0  0  0
  -29.9600  -13.6960   20.2250 N   0  0  0  0  0  0  0  0  0  0  0  0
  -31.7300  -15.0780   20.0120 O   0  0  0  0  0  0  0  0  0  0  0  0
  -29.6560  -16.0770   20.3670 N   0  0  0  0  0  0  0  0  0  0  0  0
  -28.7080  -15.7370   20.3810 H   0  0  0  0  0  0  0  0  0  0  0  0
  -25.2440  -13.8700   20.5220 C   0  0  0  0  0  0  0  0  0  0  0  0
  -24.1880  -13.0890   20.9050 C   0  0  0  0  0  0  0  0  0  0  0  0
  -24.6570  -11.7400   20.8590 C   0  0  0  0  0  0  0  0  0  0  0  0
  -26.2870  -12.9970   20.2620 N   0  0  0  0  0  0  0  0  0  0  0  0
  -25.9440  -11.7110   20.5310 N   0  0  0  0  0  0  0  0  0  0  0  0
  -23.9370  -10.4730   21.0500 C   0  0  0  0  0  0  0  0  0  0  0  0
  -24.3810   -9.5030   21.9750 C   0  0  0  0  0  3  0  0  0  0  0  0
  -23.6610   -8.3020   22.1540 C   0  0  0  0  0  3  0  0  0  0  0  0
  -22.4820   -8.0630   21.4080 C   0  0  0  0  0  0  0  0  0  0  0  0
  -22.0570   -9.0230   20.4720 C   0  0  0  0  0  3  0  0  0  0  0  0
  -22.7780  -10.2140   20.2910 C   0  0  0  0  0  3  0  0  0  0  0  0
  -21.7320   -6.9150   21.4980 O   0  0  0  0  0  0  0  0  0  0  0  0
  -21.6910   -6.1710   22.6500 C   0  0  0  0  0  0  0  0  0  0  0  0
  -21.2530   -6.7200   23.8750 C   0  0  0  0  0  3  0  0  0  0  0  0
  -21.1590   -5.9010   25.0180 C   0  0  0  0  0  3  0  0  0  0  0  0
  -21.4940   -4.5360   24.9380 C   0  0  0  0  0  0  0  0  0  0  0  0
  -21.9240   -3.9870   23.7160 C   0  0  0  0  0  3  0  0  0  0  0  0
  -22.0190   -4.8030   22.5750 C   0  0  0  0  0  0  0  0  0  0  0  0
  -22.4130   -4.2640   21.3960 F   0  0  0  0  0  0  0  0  0  0  0  0
  -21.3960   -3.7470   26.0320 F   0  0  0  0  0  0  0  0  0  0  0  0
  -22.7910  -13.5580   21.1950 C   0  0  0  0  0  0  0  0  0  0  0  0
  -22.0760  -12.8520   22.0640 N   0  0  0  0  0  0  0  0  0  0  0  0
  -22.3440  -14.5850   20.6870 O   0  0  0  0  0  0  0  0  0  0  0  0
  -22.4530  -12.0220   22.4980 H   0  0  0  0  0  0  0  0  0  0  0  0
  -21.1400  -13.1480   22.3010 H   0  0  0  0  0  0  0  0  0  0  0  0
  -25.3940  -15.2440   20.3480 N   0  0  0  0  0  0  0  0  0  0  0  0
  -24.6210  -15.8860   20.4830 H   0  0  0  0  0  0  0  0  0  0  0  0
  -26.2070  -15.6880   19.9450 H   0  0  0  0  0  0  0  0  0  0  0  0
  -29.0960  -22.2460   20.8400 C   0  0  0  0  0  3  0  0  0  0  0  0
  -28.5150  -23.3840   20.2310 C   0  0  0  0  0  3  0  0  0  0  0  0
  -28.1570  -24.8490   20.8890 C   0  0  0  0  0  2  0  0  0  0  0  0
  -28.3420  -26.2510   20.2710 O   0  0  0  0  0  0  0  0  0  0  0  0
  -24.6260  -31.8920   23.2520 C   0  0  0  0  0  0  0  0  0  0  0  0
  -27.2650  -27.2030   20.2710 C   0  0  0  0  0  0  0  0  0  0  0  0
  -23.4470  -30.4820   21.6090 C   0  0  0  0  0  3  0  0  0  0  0  0
  -24.9180  -28.9070   20.2110 C   0  0  0  0  0  0  0  0  0  0  0  0
  -25.9980  -30.7690   21.4620 C   0  0  0  0  0  2  0  0  0  0  0  0
  -26.0890  -29.3750   20.8210 C   0  0  0  0  0  0  0  0  0  0  0  0
  -27.2670  -28.5410   20.8300 C   0  0  0  0  0  3  0  0  0  0  0  0
  -26.0670  -26.8210   19.6340 C   0  0  0  0  0  3  0  0  0  0  0  0
  -24.9170  -27.6410   19.6020 C   0  0  0  0  0  3  0  0  0  0  0  0
  -23.6830  -29.7950   20.2380 C   0  0  0  0  0  2  0  0  0  0  0  0
  -24.7100  -31.0700   22.1630 N   0  0  0  0  0  0  0  0  0  0  0  0
  -23.5340  -32.1740   23.7710 O   0  0  0  0  0  0  0  0  0  0  0  0
  -22.7660  -29.4760   22.5710 C   0  0  0  0  0  0  0  0  0  0  0  0
  -21.4370  -29.3060   22.4400 N   0  0  0  0  0  0  0  0  0  0  0  0
  -23.4340  -28.8500   23.3970 O   0  0  0  0  0  0  0  0  0  0  0  0
  -20.9550  -29.8640   21.7490 H   0  0  0  0  0  0  0  0  0  0  0  0
  -18.0510  -28.1270   22.9440 C   0  0  0  0  0  0  0  0  0  0  0  0
  -20.6110  -28.3720   23.2090 C   0  0  0  0  0  3  0  0  0  0  0  0
  -20.7030  -26.9410   22.6290 C   0  0  0  0  0  2  0  0  0  0  0  0
  -19.5970  -26.6280   21.6170 C   0  0  0  0  0  2  0  0  0  0  0  0
  -18.2180  -26.7780   22.2640 C   0  0  0  0  0  2  0  0  0  0  0  0
  -19.1750  -28.8820   23.3740 C   0  0  0  0  0  0  0  0  0  0  0  0
  -18.9630  -30.1430   23.9730 C   0  0  0  0  0  3  0  0  0  0  0  0
  -17.6600  -30.6490   24.1450 C   0  0  0  0  0  3  0  0  0  0  0  0
  -16.5520  -29.8910   23.7310 C   0  0  0  0  0  3  0  0  0  0  0  0
  -16.7480  -28.6310   23.1360 C   0  0  0  0  0  3  0  0  0  0  0  0
  -25.8950  -32.5370   23.8880 C   0  0  0  0  0  3  0  0  0  0  0  0
  -25.5780  -33.9390   24.1980 N   0  0  0  0  0  0  0  0  0  0  0  0
  -25.9200  -34.9870   23.4370 C   0  0  0  0  0  0  0  0  0  0  0  0
  -26.6020  -34.8750   22.4140 O   0  0  0  0  0  0  0  0  0  0  0  0
  -24.9720  -34.0990   24.9890 H   0  0  0  0  0  0  0  0  0  0  0  0
  -24.1990  -36.7820   23.0500 C   0  0  0  0  0  1  0  0  0  0  0  0
  -25.4290  -36.3810   23.8790 C   0  0  0  0  0  3  0  0  0  0  0  0
  -27.5560  -37.2680   24.7290 C   0  0  0  0  0  1  0  0  0  0  0  0
  -26.4640  -37.4320   23.7720 N   0  0  0  0  0  0  0  0  0  0  0  0
  -26.0560  -38.3520   23.9140 H   0  0  0  0  0  0  0  0  0  0  0  0
  -26.3910  -31.7850   25.1850 C   0  0  1  0  0  0  0  0  0  0  0  0
  -25.2810  -31.5640   26.2390 C   0  0  0  0  0  1  0  0  0  0  0  0
  -26.9800  -30.4010   24.8260 C   0  0  0  0  0  1  0  0  0  0  0  0
  -27.5290  -32.5910   25.8530 C   0  0  0  0  0  1  0  0  0  0  0  0
  1  4  1  0
  2  1  2  0
  2  5  1  0
  3  6  1  0
  4 46  1  0
  4  6  2  0
  5 16  1  0
  5  3  2  0
  6  7  1  0
  8 16  1  0
  9 14  1  0
 10 11  1  0
 10  9  1  0
 12 11  1  0
 12 21  1  0
 12 13  1  0
 14  8  1  0
 14 13  1  0
 15  8  2  0
 16 17  1  0
 18 19  2  0
 19 38  1  0
 20 19  1  0
 20 23  1  0
 21 18  1  0
 21 22  1  0
 22 20  2  0
 23 24  1  0
 24 25  2  0
 26 29  1  0
 26 25  1  0
 27 26  2  0
 28 27  1  0
 28 23  2  0
 29 30  1  0
 30 31  1  0
 31 32  2  0
 33 32  1  0
 33 37  1  0
 34 33  2  0
 35 30  2  0
 35 34  1  0
 36 35  1  0
 38 39  1  0
 39 42  1  0
 39 41  1  0
 40 38  2  0
 43 44  1  0
 43 18  1  0
 45 43  1  0
 47 46  2  0
 47 48  1  0
 49 51  1  0
 49 48  1  0
 50 61  2  0
 51 56  1  0
 52 60  1  0
 52 62  1  0
 53 59  1  0
 53 55  1  0
 54 60  1  0
 55 56  2  0
 55 54  1  0
 57 51  2  0
 58 57  1  0
 58 53  2  0
 59 52  1  0
 60 50  1  0
 62 64  2  0
 63 62  1  0
 65 63  1  0
 66 75  2  0
 66 71  1  0
 67 63  1  0
 67 71  1  0
 68 67  1  0
 69 70  1  0
 69 68  1  0
 70 66  1  0
 71 72  2  0
 72 73  1  0
 74 73  2  0
 75 74  1  0
 76 50  1  0
 76 77  1  0
 76 86  1  0
 77 80  1  0
 78 82  1  0
 78 77  1  0
 79 78  2  0
 82 81  1  0
 84 82  1  0
 84 85  1  0
 84 83  1  0
 86 89  1  1
 86 87  1  0
 88 86  1  0
M  ISO  4   8 100  16 100  48 101  49 101
M  END
>  <TORSDO>  (4) 
F 18

>  <SCORE>  (4) 
-14.810

>  <name>  (4) 
3

>  <ligand_id>  (4) 
3

>  <original_smiles>  (4) 
[H]C(=C([H])C([H])([H])Oc1c([H])c([H])c2c(c1[H])C([H])([H])N(C(=O)C([H])(N([H])C(=O)C([H])(N([H])C([H])([H])[H])C([H])([H])[H])C(C([H])([H])[H])(C([H])([H])[H])C([H])([H])[H])C([H])(C(=O)N([H])C1([H])c3c([H])c([H])c([H])c([H])c3C([H])([H])C([H])([H])C1([H])[H])C2([H])[H])c1c([H])c([H])c(N([H])C(=O)N2C([H])([H])C([H])([H])C([H])([H])C([H])(n3nc(-c4c([H])c([H])c(Oc5c([H])c([H])c(F)c([H])c5F)c([H])c4[H])c(C(=O)N([H])[H])c3N([H])[H])C2([H])[H])c([H])c1F

>  <smiles>  (4) 
[H]C(=C([H])C([H])([H])Oc1c([H])c([H])c2c(c1[H])C([H])([H])N(C(=O)C([H])(N([H])C(=O)C([H])(N([H])C([H])([H])[H])C([H])([H])[H])C(C([H])([H])[H])(C([H])([H])[H])C([H])([H])[H])C([H])(C(=O)N([H])C1([H])c3c([H])c([H])c([H])c([H])c3C([H])([H])C([H])([H])C1([H])[H])C2([H])[H])c1c([H])c([H])c(N([H])C(=O)N2C([H])([H])C([H])([H])C([H])([H])C([H])(n3nc(-c4c([H])c([H])c(Oc5c([H])c([H])c(F)c([H])c5F)c([H])c4[H])c(C(=O)N([H])[H])c3N([H])[H])C2([H])[H])c([H])c1F

$$$$
4:0:0
     RDKit          3D

 95103  0  0  1  0  0  0  0  0999 V2000
  -28.7350  -22.9540   19.4270 C   0  0  0  0  0  0  0  0  0  0  0  0
  -28.6240  -21.8310   20.1600 N   0  0  0  0  0  0  0  0  0  0  0  0
  -29.0600  -22.9130   18.2390 O   0  0  0  0  0  0  0  0  0  0  0  0
  -28.2110  -21.8840   21.0750 H   0  0  0  0  0  0  0  0  0  0  0  0
  -28.6030  -25.3800   19.5520 C   0  0  0  0  0  3  0  0  0  0  0  0
  -28.4850  -24.1900   20.1780 C   0  0  0  0  0  0  0  0  0  0  0  0
  -28.1880  -24.1420   21.4870 O   0  0  0  0  0  0  0  0  0  0  0  0
  -28.3640  -23.2610   21.7800 H   0  0  0  0  0  0  0  0  0  0  0  0
  -28.4940  -26.5990   20.1800 O   0  0  0  0  0  0  0  0  0  0  0  0
  -24.7380  -31.7650   23.2950 C   0  0  0  0  0  0  0  0  0  0  0  0
  -27.3120  -27.3080   20.1660 C   0  0  0  0  0  0  0  0  0  0  0  0
  -23.5310  -30.3930   21.6530 C   0  0  0  0  0  3  0  0  0  0  0  0
  -24.9370  -28.8420   20.2030 C   0  0  0  0  0  0  0  0  0  0  0  0
  -26.0460  -30.7160   21.4420 C   0  0  0  0  0  2  0  0  0  0  0  0
  -26.1020  -29.3460   20.7940 C   0  0  0  0  0  0  0  0  0  0  0  0
  -27.2880  -28.5790   20.7780 C   0  0  0  0  0  3  0  0  0  0  0  0
  -26.1270  -26.8150   19.5700 C   0  0  0  0  0  3  0  0  0  0  0  0
  -24.9420  -27.5750   19.5920 C   0  0  0  0  0  3  0  0  0  0  0  0
  -23.7100  -29.7170   20.2650 C   0  0  0  0  0  2  0  0  0  0  0  0
  -24.7940  -30.9720   22.1880 N   0  0  0  0  0  0  0  0  0  0  0  0
  -23.6570  -32.0450   23.8340 O   0  0  0  0  0  0  0  0  0  0  0  0
  -22.8710  -29.3830   22.6140 C   0  0  0  0  0  0  0  0  0  0  0  0
  -21.5490  -29.3370   22.4810 N   0  0  0  0  0  0  0  0  0  0  0  0
  -23.5180  -28.6720   23.3830 O   0  0  0  0  0  0  0  0  0  0  0  0
  -21.1680  -30.0490   21.8750 H   0  0  0  0  0  0  0  0  0  0  0  0
  -18.0970  -27.9800   22.9430 C   0  0  0  0  0  0  0  0  0  0  0  0
  -20.5770  -28.3440   22.8560 C   0  0  0  0  0  3  0  0  0  0  0  0
  -20.8050  -26.8460   22.6240 C   0  0  0  0  0  2  0  0  0  0  0  0
  -19.6770  -26.3250   21.7070 C   0  0  0  0  0  2  0  0  0  0  0  0
  -18.2760  -26.6060   22.2910 C   0  0  0  0  0  2  0  0  0  0  0  0
  -19.2080  -28.7730   23.3210 C   0  0  0  0  0  0  0  0  0  0  0  0
  -19.0160  -30.0240   23.9410 C   0  0  0  0  0  3  0  0  0  0  0  0
  -17.7130  -30.5190   24.1310 C   0  0  0  0  0  3  0  0  0  0  0  0
  -16.6060  -29.7530   23.7260 C   0  0  0  0  0  3  0  0  0  0  0  0
  -16.7970  -28.4820   23.1510 C   0  0  0  0  0  3  0  0  0  0  0  0
  -26.0290  -32.3740   23.9180 C   0  0  0  0  0  3  0  0  0  0  0  0
  -25.7250  -33.7630   24.2840 N   0  0  0  0  0  0  0  0  0  0  0  0
  -26.0470  -34.8310   23.5420 C   0  0  0  0  0  0  0  0  0  0  0  0
  -26.7050  -34.7490   22.5010 O   0  0  0  0  0  0  0  0  0  0  0  0
  -25.1420  -33.9000   25.0980 H   0  0  0  0  0  0  0  0  0  0  0  0
  -24.3140  -36.6290   23.2520 C   0  0  0  0  0  1  0  0  0  0  0  0
  -25.5670  -36.2090   24.0360 C   0  0  0  0  0  3  0  0  0  0  0  0
  -27.7180  -37.0700   24.8470 C   0  0  0  0  0  1  0  0  0  0  0  0
  -26.6000  -37.2620   23.9280 N   0  0  0  0  0  0  0  0  0  0  0  0
  -26.1980  -38.1790   24.1060 H   0  0  0  0  0  0  0  0  0  0  0  0
  -26.5490  -31.5630   25.1650 C   0  0  1  0  0  0  0  0  0  0  0  0
  -25.4630  -31.2910   26.2310 C   0  0  0  0  0  1  0  0  0  0  0  0
  -27.1340  -30.2010   24.7250 C   0  0  0  0  0  1  0  0  0  0  0  0
  -27.7040  -32.3380   25.8450 C   0  0  0  0  0  1  0  0  0  0  0  0
  -29.0070  -20.4960   19.6950 C   0  0  0  0  0  2  0  0  0  0  0  0
  -30.9950  -19.3290   22.7970 C   0  0  0  0  0  3  0  0  0  0  0  0
  -30.3440  -20.1690   21.8730 C   0  0  0  0  0  3  0  0  0  0  0  0
  -31.0400  -17.9400   22.5800 C   0  0  0  0  0  3  0  0  0  0  0  0
  -29.7800  -18.2230   20.5130 C   0  0  0  0  0  3  0  0  0  0  0  0
  -29.7290  -19.6210   20.7220 C   0  0  0  0  0  0  0  0  0  0  0  0
  -30.4420  -17.3760   21.4350 C   0  0  0  0  0  0  0  0  0  0  0  0
  -30.4590  -15.8640   21.2500 C   0  0  0  0  0  2  0  0  0  0  0  0
  -31.9630  -14.1920   20.0220 C   0  0  0  0  0  0  0  0  0  0  0  0
  -31.3800  -12.0360   18.9860 C   0  0  0  0  0  2  0  0  0  0  0  0
  -30.4430  -12.2890   17.7880 C   0  0  0  0  0  2  0  0  0  0  0  0
  -28.9670  -12.3700   18.2360 C   0  0  0  0  0  2  0  0  0  0  0  0
  -28.7680  -13.2860   19.4730 C   0  0  0  0  0  3  0  0  0  0  0  0
  -29.8060  -12.9370   20.5630 C   0  0  0  0  0  2  0  0  0  0  0  0
  -31.1370  -13.1070   19.9660 N   0  0  0  0  0  0  0  0  0  0  0  0
  -33.0990  -14.1720   19.5440 O   0  0  0  0  0  0  0  0  0  0  0  0
  -31.4360  -15.4060   20.2660 N   0  0  0  0  0  0  0  0  0  0  0  0
  -32.0640  -16.1410   19.9840 H   0  0  0  0  0  0  0  0  0  0  0  0
  -26.5100  -14.2450   20.2510 C   0  0  0  0  0  0  0  0  0  0  0  0
  -25.3450  -13.6390   20.6380 C   0  0  0  0  0  0  0  0  0  0  0  0
  -25.5900  -12.2330   20.5700 C   0  0  0  0  0  0  0  0  0  0  0  0
  -27.4000  -13.2180   19.9800 N   0  0  0  0  0  0  0  0  0  0  0  0
  -26.8510  -12.0010   20.2240 N   0  0  0  0  0  0  0  0  0  0  0  0
  -24.6850  -11.0940   20.7550 C   0  0  0  0  0  0  0  0  0  0  0  0
  -24.9970  -10.0390   21.6410 C   0  0  0  0  0  3  0  0  0  0  0  0
  -24.1010   -8.9620   21.8160 C   0  0  0  0  0  3  0  0  0  0  0  0
  -22.8790   -8.9330   21.1020 C   0  0  0  0  0  0  0  0  0  0  0  0
  -22.5850   -9.9730   20.2030 C   0  0  0  0  0  3  0  0  0  0  0  0
  -23.4800  -11.0420   20.0260 C   0  0  0  0  0  3  0  0  0  0  0  0
  -21.9610   -7.9150   21.1890 O   0  0  0  0  0  0  0  0  0  0  0  0
  -21.8190   -7.1690   22.3310 C   0  0  0  0  0  0  0  0  0  0  0  0
  -21.5730   -7.7690   23.5870 C   0  0  0  0  0  3  0  0  0  0  0  0
  -21.3610   -6.9620   24.7230 C   0  0  0  0  0  3  0  0  0  0  0  0
  -21.3890   -5.5600   24.6060 C   0  0  0  0  0  0  0  0  0  0  0  0
  -21.6260   -4.9610   23.3570 C   0  0  0  0  0  3  0  0  0  0  0  0
  -21.8380   -5.7640   22.2220 C   0  0  0  0  0  0  0  0  0  0  0  0
  -22.0460   -5.1820   21.0180 F   0  0  0  0  0  0  0  0  0  0  0  0
  -21.1790   -4.7840   25.6960 F   0  0  0  0  0  0  0  0  0  0  0  0
  -24.0450  -14.3180   20.9590 C   0  0  0  0  0  0  0  0  0  0  0  0
  -23.2730  -13.7590   21.8830 N   0  0  0  0  0  0  0  0  0  0  0  0
  -23.7300  -15.3770   20.4210 O   0  0  0  0  0  0  0  0  0  0  0  0
  -23.5410  -12.8980   22.3370 H   0  0  0  0  0  0  0  0  0  0  0  0
  -22.4000  -14.1980   22.1400 H   0  0  0  0  0  0  0  0  0  0  0  0
  -26.8800  -15.5780   20.0910 N   0  0  0  0  0  0  0  0  0  0  0  0
  -26.2320  -16.3440   20.2290 H   0  0  0  0  0  0  0  0  0  0  0  0
  -27.7770  -15.8810   19.7350 H   0  0  0  0  0  0  0  0  0  0  0  0
  1  2  1  0
  1  6  1  0
  2  4  1  0
  3  1  2  0
  5  6  2  0
  5  9  1  0
  6  7  1  0
  7  8  1  0
 10 21  2  0
 11  9  1  0
 11 16  1  0
 12 20  1  0
 12 22  1  0
 13 19  1  0
 13 15  1  0
 14 20  1  0
 15 14  1  0
 16 15  2  0
 17 18  1  0
 17 11  2  0
 18 13  2  0
 19 12  1  0
 20 10  1  0
 22 24  2  0
 23 22  1  0
 25 23  1  0
 26 35  2  0
 26 31  1  0
 27 23  1  0
 27 31  1  0
 28 27  1  0
 29 30  1  0
 29 28  1  0
 30 26  1  0
 31 32  2  0
 32 33  1  0
 34 33  2  0
 35 34  1  0
 36 10  1  0
 36 37  1  0
 36 46  1  0
 37 40  1  0
 38 42  1  0
 38 37  1  0
 39 38  2  0
 42 41  1  0
 44 42  1  0
 44 45  1  0
 44 43  1  0
 46 49  1  1
 46 47  1  0
 48 46  1  0
 50  2  1  0
 50 55  1  0
 52 51  2  0
 53 51  1  0
 54 55  2  0
 54 56  1  0
 55 52  1  0
 56 53  2  0
 57 56  1  0
 58 66  1  0
 59 64  1  0
 60 61  1  0
 60 59  1  0
 62 61  1  0
 62 71  1  0
 62 63  1  0
 64 58  1  0
 64 63  1  0
 65 58  2  0
 66 57  1  0
 67 66  1  0
 68 69  2  0
 69 88  1  0
 70 69  1  0
 70 73  1  0
 71 72  1  0
 71 68  1  0
 72 70  2  0
 73 74  1  0
 74 75  2  0
 76 79  1  0
 76 75  1  0
 77 76  2  0
 78 77  1  0
 78 73  2  0
 79 80  1  0
 80 81  1  0
 81 82  2  0
 83 82  1  0
 83 87  1  0
 84 83  2  0
 85 80  2  0
 85 84  1  0
 86 85  1  0
 88 89  1  0
 89 92  1  0
 89 91  1  0
 90 88  2  0
 93 94  1  0
 93 68  1  0
 95 93  1  0
M  ISO  4   5 101   9 101  58 100  66 100
M  END
>  <TORSDO>  (5) 
F 21

>  <SCORE>  (5) 
-12.468

>  <name>  (5) 
4

>  <ligand_id>  (5) 
4

>  <original_smiles>  (5) 
[H]OC(C(=O)N([H])C([H])([H])c1c([H])c([H])c([H])c(C([H])([H])N([H])C(=O)N2C([H])([H])C([H])([H])C([H])([H])C([H])(n3nc(-c4c([H])c([H])c(Oc5c([H])c([H])c(F)c([H])c5F)c([H])c4[H])c(C(=O)N([H])[H])c3N([H])[H])C2([H])[H])c1[H])=C([H])Oc1c([H])c([H])c2c(c1[H])C([H])([H])N(C(=O)C([H])(N([H])C(=O)C([H])(N([H])C([H])([H])[H])C([H])([H])[H])C(C([H])([H])[H])(C([H])([H])[H])C([H])([H])[H])C([H])(C(=O)N([H])C1([H])c3c([H])c([H])c([H])c([H])c3C([H])([H])C([H])([H])C1([H])[H])C2([H])[H]

>  <smiles>  (5) 
[H]OC(C(=O)N([H])C([H])([H])c1c([H])c([H])c([H])c(C([H])([H])N([H])C(=O)N2C([H])([H])C([H])([H])C([H])([H])C([H])(n3nc(-c4c([H])c([H])c(Oc5c([H])c([H])c(F)c([H])c5F)c([H])c4[H])c(C(=O)N([H])[H])c3N([H])[H])C2([H])[H])c1[H])=C([H])Oc1c([H])c([H])c2c(c1[H])C([H])([H])N(C(=O)C([H])(N([H])C(=O)C([H])(N([H])C([H])([H])[H])C([H])([H])[H])C(C([H])([H])[H])(C([H])([H])[H])C([H])([H])[H])C([H])(C(=O)N([H])C1([H])c3c([H])c([H])c([H])c([H])c3C([H])([H])C([H])([H])C1([H])[H])C2([H])[H]

$$$$
5:0:0
     RDKit          3D

 94102  0  0  1  0  0  0  0  0999 V2000
  -29.1850  -22.4900   21.1760 C   0  0  0  0  0  0  0  0  0  0  0  0
  -29.7820  -20.6550   19.5920 C   0  0  0  0  0  1  0  0  0  0  0  0
  -29.6060  -21.2040   20.9420 N   0  0  0  0  0  0  0  0  0  0  0  0
  -29.1830  -22.9710   22.3150 O   0  0  0  0  0  0  0  0  0  0  0  0
  -28.7540  -23.2860   20.0190 C   0  0  0  0  0  3  0  0  0  0  0  0
  -28.6240  -24.6340   20.1090 C   0  0  0  0  0  3  0  0  0  0  0  0
  -28.1470  -25.5390   18.9760 C   0  0  0  0  0  2  0  0  0  0  0  0
  -28.0900  -26.9330   19.3520 O   0  0  0  0  0  0  0  0  0  0  0  0
  -24.4840  -31.8320   23.0500 C   0  0  0  0  0  0  0  0  0  0  0  0
  -26.8850  -27.6140   19.4670 C   0  0  0  0  0  0  0  0  0  0  0  0
  -23.1440  -30.5030   21.4510 C   0  0  0  0  0  3  0  0  0  0  0  0
  -24.4760  -29.0850   19.8030 C   0  0  0  0  0  0  0  0  0  0  0  0
  -25.6380  -30.9210   21.0360 C   0  0  0  0  0  2  0  0  0  0  0  0
  -25.6790  -29.5920   20.3050 C   0  0  0  0  0  0  0  0  0  0  0  0
  -26.8810  -28.8670   20.1340 C   0  0  0  0  0  3  0  0  0  0  0  0
  -25.6540  -27.1350   18.9490 C   0  0  0  0  0  3  0  0  0  0  0  0
  -24.4600  -27.8580   19.1240 C   0  0  0  0  0  3  0  0  0  0  0  0
  -23.2280  -29.9090   20.0230 C   0  0  0  0  0  2  0  0  0  0  0  0
  -24.4460  -31.0980   21.9020 N   0  0  0  0  0  0  0  0  0  0  0  0
  -23.4570  -32.0480   23.7080 O   0  0  0  0  0  0  0  0  0  0  0  0
  -22.6120  -29.4120   22.4080 C   0  0  0  0  0  0  0  0  0  0  0  0
  -21.3000  -29.1350   22.3280 N   0  0  0  0  0  0  0  0  0  0  0  0
  -23.3730  -28.8170   23.1760 O   0  0  0  0  0  0  0  0  0  0  0  0
  -20.7470  -29.6650   21.6690 H   0  0  0  0  0  0  0  0  0  0  0  0
  -18.0540  -27.6370   22.8550 C   0  0  0  0  0  0  0  0  0  0  0  0
  -20.5810  -28.1240   23.1020 C   0  0  0  0  0  3  0  0  0  0  0  0
  -20.8090  -26.7130   22.5150 C   0  0  0  0  0  2  0  0  0  0  0  0
  -19.7290  -26.2960   21.5120 C   0  0  0  0  0  2  0  0  0  0  0  0
  -18.3460  -26.3130   22.1720 C   0  0  0  0  0  2  0  0  0  0  0  0
  -19.1030  -28.4950   23.2770 C   0  0  0  0  0  0  0  0  0  0  0  0
  -18.7790  -29.7330   23.8750 C   0  0  0  0  0  3  0  0  0  0  0  0
  -17.4370  -30.1120   24.0580 C   0  0  0  0  0  3  0  0  0  0  0  0
  -16.4010  -29.2510   23.6540 C   0  0  0  0  0  3  0  0  0  0  0  0
  -16.7110  -28.0160   23.0580 C   0  0  0  0  0  3  0  0  0  0  0  0
  -25.8150  -32.4540   23.5750 C   0  0  0  0  0  3  0  0  0  0  0  0
  -26.4690  -31.6200   24.7450 C   0  0  1  0  0  0  0  0  0  0  0  0
  -25.4800  -31.2490   25.8740 C   0  0  0  0  0  1  0  0  0  0  0  0
  -27.0810  -30.3070   24.2040 C   0  0  0  0  0  1  0  0  0  0  0  0
  -27.6310  -32.4250   25.3740 C   0  0  0  0  0  1  0  0  0  0  0  0
  -25.5190  -33.8220   24.0190 N   0  0  0  0  0  0  0  0  0  0  0  0
  -25.7500  -34.9220   23.2900 C   0  0  0  0  0  0  0  0  0  0  0  0
  -26.3100  -34.8930   22.1910 O   0  0  0  0  0  0  0  0  0  0  0  0
  -25.0100  -33.9170   24.8840 H   0  0  0  0  0  0  0  0  0  0  0  0
  -23.9570  -36.6820   23.2230 C   0  0  0  0  0  1  0  0  0  0  0  0
  -25.2870  -36.2690   23.8750 C   0  0  0  0  0  3  0  0  0  0  0  0
  -27.4770  -37.1610   24.5340 C   0  0  0  0  0  1  0  0  0  0  0  0
  -26.2800  -37.3550   23.7150 N   0  0  0  0  0  0  0  0  0  0  0  0
  -25.8740  -38.2540   23.9590 H   0  0  0  0  0  0  0  0  0  0  0  0
  -30.2990  -20.4790   22.0430 C   0  0  0  0  0  2  0  0  0  0  0  0
  -31.4670  -17.0510   23.3270 C   0  0  0  0  0  3  0  0  0  0  0  0
  -30.8060  -16.1400   22.4920 C   0  0  0  0  0  3  0  0  0  0  0  0
  -29.7360  -18.0020   21.3160 C   0  0  0  0  0  3  0  0  0  0  0  0
  -31.2860  -18.4360   23.1570 C   0  0  0  0  0  0  0  0  0  0  0  0
  -30.4310  -18.9370   22.1350 C   0  0  0  0  0  0  0  0  0  0  0  0
  -29.9420  -16.6010   21.4760 C   0  0  0  0  0  0  0  0  0  0  0  0
  -32.0220  -19.3670   24.1130 C   0  0  0  0  0  1  0  0  0  0  0  0
  -29.8570  -14.7700   19.8410 C   0  0  0  0  0  0  0  0  0  0  0  0
  -29.5260  -12.7160   18.5030 C   0  0  0  0  0  2  0  0  0  0  0  0
  -28.3850  -12.9180   17.4880 C   0  0  0  0  0  2  0  0  0  0  0  0
  -27.0220  -12.5910   18.1310 C   0  0  0  0  0  2  0  0  0  0  0  0
  -26.8260  -13.2850   19.5060 C   0  0  0  0  0  3  0  0  0  0  0  0
  -28.0640  -13.0850   20.4060 C   0  0  0  0  0  2  0  0  0  0  0  0
  -29.2390  -13.5720   19.6640 N   0  0  0  0  0  0  0  0  0  0  0  0
  -30.8430  -15.1160   19.1800 O   0  0  0  0  0  0  0  0  0  0  0  0
  -29.2580  -15.6290   20.6910 N   0  0  0  0  0  0  0  0  0  0  0  0
  -28.3280  -15.3810   20.9970 H   0  0  0  0  0  0  0  0  0  0  0  0
  -24.5230  -13.5670   20.6190 C   0  0  0  0  0  0  0  0  0  0  0  0
  -23.6230  -12.6550   21.0990 C   0  0  0  0  0  0  0  0  0  0  0  0
  -24.2230  -11.3720   20.9110 C   0  0  0  0  0  0  0  0  0  0  0  0
  -25.6070  -12.8300   20.1690 N   0  0  0  0  0  0  0  0  0  0  0  0
  -25.4400  -11.5020   20.4010 N   0  0  0  0  0  0  0  0  0  0  0  0
  -23.6820  -10.0230   21.1270 C   0  0  0  0  0  0  0  0  0  0  0  0
  -24.2220   -9.1590   22.1050 C   0  0  0  0  0  3  0  0  0  0  0  0
  -23.6750   -7.8740   22.3070 C   0  0  0  0  0  3  0  0  0  0  0  0
  -22.5750   -7.4430   21.5290 C   0  0  0  0  0  0  0  0  0  0  0  0
  -22.0550   -8.2970   20.5400 C   0  0  0  0  0  3  0  0  0  0  0  0
  -22.6050   -9.5750   20.3380 C   0  0  0  0  0  3  0  0  0  0  0  0
  -21.9930   -6.2030   21.6370 O   0  0  0  0  0  0  0  0  0  0  0  0
  -21.8950   -5.5580   22.8430 C   0  0  0  0  0  0  0  0  0  0  0  0
  -21.1950   -6.1170   23.9350 C   0  0  0  0  0  3  0  0  0  0  0  0
  -21.0600   -5.3880   25.1330 C   0  0  0  0  0  3  0  0  0  0  0  0
  -21.6140   -4.0990   25.2400 C   0  0  0  0  0  0  0  0  0  0  0  0
  -22.3070   -3.5380   24.1530 C   0  0  0  0  0  3  0  0  0  0  0  0
  -22.4440   -4.2650   22.9570 C   0  0  0  0  0  0  0  0  0  0  0  0
  -23.0950   -3.7100   21.9050 F   0  0  0  0  0  0  0  0  0  0  0  0
  -21.4780   -3.3950   26.3880 F   0  0  0  0  0  0  0  0  0  0  0  0
  -22.2420  -12.9450   21.6140 C   0  0  0  0  0  0  0  0  0  0  0  0
  -21.7580  -12.1450   22.5570 N   0  0  0  0  0  0  0  0  0  0  0  0
  -21.6030  -13.9180   21.2140 O   0  0  0  0  0  0  0  0  0  0  0  0
  -22.2910  -11.3580   22.9000 H   0  0  0  0  0  0  0  0  0  0  0  0
  -20.8400  -12.3190   22.9440 H   0  0  0  0  0  0  0  0  0  0  0  0
  -24.5070  -14.9540   20.5080 N   0  0  0  0  0  0  0  0  0  0  0  0
  -23.7010  -15.5090   20.7720 H   0  0  0  0  0  0  0  0  0  0  0  0
  -25.2390  -15.5030   20.0750 H   0  0  0  0  0  0  0  0  0  0  0  0
  1  4  2  0
  2  3  1  0
  3  1  1  0
  3 49  1  0
  5  6  2  0
  5  1  1  0
  7  8  1  0
  7  6  1  0
  8 10  1  0
  9 20  2  0
 10 15  1  0
 11 19  1  0
 11 21  1  0
 12 18  1  0
 12 14  1  0
 13 19  1  0
 14 13  1  0
 15 14  2  0
 16 17  1  0
 16 10  2  0
 17 12  2  0
 18 11  1  0
 19  9  1  0
 21 23  2  0
 22 21  1  0
 24 22  1  0
 25 34  2  0
 25 30  1  0
 26 22  1  0
 26 30  1  0
 27 26  1  0
 28 29  1  0
 28 27  1  0
 29 25  1  0
 30 31  2  0
 31 32  1  0
 33 32  2  0
 34 33  1  0
 35  9  1  0
 35 40  1  0
 35 36  1  0
 36 39  1  1
 36 37  1  0
 38 36  1  0
 40 43  1  0
 41 45  1  0
 41 40  1  0
 42 41  2  0
 45 44  1  0
 47 45  1  0
 47 48  1  0
 47 46  1  0
 49 54  1  0
 51 50  2  0
 52 55  2  0
 52 54  1  0
 53 50  1  0
 53 56  1  0
 54 53  2  0
 55 51  1  0
 57 65  1  0
 58 63  1  0
 59 60  1  0
 59 58  1  0
 61 60  1  0
 61 70  1  0
 61 62  1  0
 63 57  1  0
 63 62  1  0
 64 57  2  0
 65 66  1  0
 65 55  1  0
 67 68  2  0
 68 87  1  0
 69 68  1  0
 69 72  1  0
 70 71  1  0
 70 67  1  0
 71 69  2  0
 72 73  1  0
 73 74  2  0
 75 78  1  0
 75 74  1  0
 76 75  2  0
 77 76  1  0
 77 72  2  0
 78 79  1  0
 79 84  2  0
 79 80  1  0
 80 81  2  0
 81 82  1  0
 82 86  1  0
 83 82  2  0
 84 83  1  0
 85 84  1  0
 87 88  1  0
 88 90  1  0
 88 91  1  0
 89 87  2  0
 92 67  1  0
 92 93  1  0
 94 92  1  0
M  ISO  4   7 101   8 101  57 100  65 100
M  END
>  <TORSDO>  (6) 
F 20

>  <SCORE>  (6) 
-8.415

>  <name>  (6) 
5

>  <ligand_id>  (6) 
5

>  <original_smiles>  (6) 
[H]C(C(=O)N(C([H])([H])[H])C([H])([H])c1c([H])c(N([H])C(=O)N2C([H])([H])C([H])([H])C([H])([H])C([H])(n3nc(-c4c([H])c([H])c(Oc5c([H])c([H])c(F)c([H])c5F)c([H])c4[H])c(C(=O)N([H])[H])c3N([H])[H])C2([H])[H])c([H])c([H])c1C([H])([H])[H])=C([H])C([H])([H])Oc1c([H])c([H])c2c(c1[H])C([H])([H])N(C(=O)C([H])(N([H])C(=O)C([H])(N([H])C([H])([H])[H])C([H])([H])[H])C(C([H])([H])[H])(C([H])([H])[H])C([H])([H])[H])C([H])(C(=O)N([H])C1([H])c3c([H])c([H])c([H])c([H])c3C([H])([H])C([H])([H])C1([H])[H])C2([H])[H]

>  <smiles>  (6) 
[H]C(C(=O)N(C([H])([H])[H])C([H])([H])c1c([H])c(N([H])C(=O)N2C([H])([H])C([H])([H])C([H])([H])C([H])(n3nc(-c4c([H])c([H])c(Oc5c([H])c([H])c(F)c([H])c5F)c([H])c4[H])c(C(=O)N([H])[H])c3N([H])[H])C2([H])[H])c([H])c([H])c1C([H])([H])[H])=C([H])C([H])([H])Oc1c([H])c([H])c2c(c1[H])C([H])([H])N(C(=O)C([H])(N([H])C(=O)C([H])(N([H])C([H])([H])[H])C([H])([H])[H])C(C([H])([H])[H])(C([H])([H])[H])C([H])([H])[H])C([H])(C(=O)N([H])C1([H])c3c([H])c([H])c([H])c([H])c3C([H])([H])C([H])([H])C1([H])[H])C2([H])[H]

$$$$
6:0:0
     RDKit          3D

 93101  0  0  1  0  0  0  0  0999 V2000
  -29.5030  -23.1560   21.1760 C   0  0  0  0  0  0  0  0  0  0  0  0
  -30.1850  -22.0920   20.7030 N   0  0  0  0  0  0  0  0  0  0  0  0
  -28.9730  -23.1280   22.2880 O   0  0  0  0  0  0  0  0  0  0  0  0
  -30.5960  -22.1580   19.7810 H   0  0  0  0  0  0  0  0  0  0  0  0
  -30.3500  -20.8220   21.4320 C   0  0  0  0  0  2  0  0  0  0  0  0
  -32.4170  -18.9290   18.8010 C   0  0  0  0  0  3  0  0  0  0  0  0
  -31.8980  -19.9500   19.6150 C   0  0  0  0  0  3  0  0  0  0  0  0
  -31.9610  -17.6080   18.9430 C   0  0  0  0  0  3  0  0  0  0  0  0
  -30.9490  -19.6560   20.6160 C   0  0  0  0  0  0  0  0  0  0  0  0
  -30.5720  -18.2940   20.8330 C   0  0  0  0  0  0  0  0  0  0  0  0
  -31.0270  -17.2610   19.9500 C   0  0  0  0  0  0  0  0  0  0  0  0
  -29.6370  -17.9390   21.9850 C   0  0  0  0  0  1  0  0  0  0  0  0
  -30.9510  -14.7480   19.8500 C   0  0  0  0  0  0  0  0  0  0  0  0
  -30.5480  -12.4930   18.9210 C   0  0  0  0  0  2  0  0  0  0  0  0
  -29.5270  -12.5290   17.7690 C   0  0  0  0  0  2  0  0  0  0  0  0
  -28.1020  -12.3250   18.3160 C   0  0  0  0  0  2  0  0  0  0  0  0
  -27.7880  -13.2650   19.5050 C   0  0  0  0  0  3  0  0  0  0  0  0
  -28.9420  -13.3090   20.5460 C   0  0  0  0  0  2  0  0  0  0  0  0
  -30.2010  -13.5960   19.8370 N   0  0  0  0  0  0  0  0  0  0  0  0
  -32.1530  -14.6880   19.5980 O   0  0  0  0  0  0  0  0  0  0  0  0
  -28.9970  -16.1980   19.3300 C   0  0  0  0  0  1  0  0  0  0  0  0
  -30.3360  -15.9890   19.8780 N   0  0  0  0  0  0  0  0  0  0  0  0
  -25.5020  -13.9280   20.4650 C   0  0  0  0  0  0  0  0  0  0  0  0
  -24.4450  -13.1720   20.8870 C   0  0  0  0  0  0  0  0  0  0  0  0
  -24.8650  -11.8110   20.7700 C   0  0  0  0  0  0  0  0  0  0  0  0
  -26.4930  -13.0200   20.1120 N   0  0  0  0  0  0  0  0  0  0  0  0
  -26.1240  -11.7440   20.3630 N   0  0  0  0  0  0  0  0  0  0  0  0
  -24.1260  -10.5640   20.9620 C   0  0  0  0  0  0  0  0  0  0  0  0
  -24.5660   -9.5820   21.8750 C   0  0  0  0  0  3  0  0  0  0  0  0
  -23.8300   -8.3920   22.0520 C   0  0  0  0  0  3  0  0  0  0  0  0
  -22.6390   -8.1800   21.3170 C   0  0  0  0  0  0  0  0  0  0  0  0
  -22.2190   -9.1510   20.3910 C   0  0  0  0  0  3  0  0  0  0  0  0
  -22.9560  -10.3320   20.2110 C   0  0  0  0  0  3  0  0  0  0  0  0
  -21.8720   -7.0460   21.4080 O   0  0  0  0  0  0  0  0  0  0  0  0
  -21.7780   -6.3360   22.5770 C   0  0  0  0  0  0  0  0  0  0  0  0
  -21.2810   -6.9170   23.7640 C   0  0  0  0  0  3  0  0  0  0  0  0
  -21.1380   -6.1330   24.9260 C   0  0  0  0  0  3  0  0  0  0  0  0
  -21.4800   -4.7680   24.9000 C   0  0  0  0  0  0  0  0  0  0  0  0
  -21.9710   -4.1860   23.7190 C   0  0  0  0  0  3  0  0  0  0  0  0
  -22.1170   -4.9680   22.5590 C   0  0  0  0  0  0  0  0  0  0  0  0
  -22.5720   -4.3990   21.4170 F   0  0  0  0  0  0  0  0  0  0  0  0
  -21.3340   -4.0120   26.0140 F   0  0  0  0  0  0  0  0  0  0  0  0
  -23.0850  -13.6760   21.2780 C   0  0  0  0  0  0  0  0  0  0  0  0
  -22.4080  -12.9730   22.1780 N   0  0  0  0  0  0  0  0  0  0  0  0
  -22.6350  -14.7270   20.8200 O   0  0  0  0  0  0  0  0  0  0  0  0
  -22.7840  -12.1230   22.5720 H   0  0  0  0  0  0  0  0  0  0  0  0
  -21.4970  -13.2900   22.4820 H   0  0  0  0  0  0  0  0  0  0  0  0
  -25.6810  -15.3010   20.3220 N   0  0  0  0  0  0  0  0  0  0  0  0
  -24.9340  -15.9590   20.5150 H   0  0  0  0  0  0  0  0  0  0  0  0
  -26.5060  -15.7390   19.9360 H   0  0  0  0  0  0  0  0  0  0  0  0
  -29.3970  -24.4270   20.2980 C   0  0  0  0  0  2  0  0  0  0  0  0
  -28.4600  -25.5260   20.8810 C   0  0  0  0  0  2  0  0  0  0  0  0
  -28.5540  -26.7950   20.2040 O   0  0  0  0  0  0  0  0  0  0  0  0
  -24.5710  -31.8540   23.2840 C   0  0  0  0  0  0  0  0  0  0  0  0
  -27.3810  -27.5200   20.1980 C   0  0  0  0  0  0  0  0  0  0  0  0
  -23.4310  -30.4480   21.5980 C   0  0  0  0  0  3  0  0  0  0  0  0
  -24.9510  -28.9680   20.1790 C   0  0  0  0  0  0  0  0  0  0  0  0
  -25.9510  -30.8720   21.4520 C   0  0  0  0  0  2  0  0  0  0  0  0
  -26.0850  -29.5130   20.7950 C   0  0  0  0  0  0  0  0  0  0  0  0
  -27.3060  -28.7990   20.7980 C   0  0  0  0  0  3  0  0  0  0  0  0
  -26.2330  -26.9900   19.5730 C   0  0  0  0  0  3  0  0  0  0  0  0
  -25.0210  -27.7060   19.5630 C   0  0  0  0  0  3  0  0  0  0  0  0
  -23.6840  -29.7930   20.2140 C   0  0  0  0  0  2  0  0  0  0  0  0
  -24.6680  -31.0720   22.1710 N   0  0  0  0  0  0  0  0  0  0  0  0
  -23.4740  -32.0920   23.8070 O   0  0  0  0  0  0  0  0  0  0  0  0
  -22.7860  -29.3990   22.5310 C   0  0  0  0  0  0  0  0  0  0  0  0
  -21.4740  -29.1710   22.3610 N   0  0  0  0  0  0  0  0  0  0  0  0
  -23.4640  -28.7930   23.3640 O   0  0  0  0  0  0  0  0  0  0  0  0
  -20.9870  -29.7120   21.6590 H   0  0  0  0  0  0  0  0  0  0  0  0
  -18.1380  -27.8270   22.7090 C   0  0  0  0  0  0  0  0  0  0  0  0
  -20.6660  -28.2020   23.0980 C   0  0  0  0  0  3  0  0  0  0  0  0
  -20.8600  -26.7750   22.5340 C   0  0  0  0  0  2  0  0  0  0  0  0
  -19.8230  -26.3990   21.4720 C   0  0  0  0  0  2  0  0  0  0  0  0
  -18.4070  -26.4840   22.0500 C   0  0  0  0  0  2  0  0  0  0  0  0
  -19.2000  -28.6400   23.1860 C   0  0  0  0  0  0  0  0  0  0  0  0
  -18.8970  -29.8950   23.7580 C   0  0  0  0  0  3  0  0  0  0  0  0
  -17.5640  -30.3370   23.8600 C   0  0  0  0  0  3  0  0  0  0  0  0
  -16.5170  -29.5220   23.3990 C   0  0  0  0  0  3  0  0  0  0  0  0
  -16.8040  -28.2690   22.8290 C   0  0  0  0  0  3  0  0  0  0  0  0
  -25.8300  -32.5060   23.9380 C   0  0  0  0  0  3  0  0  0  0  0  0
  -26.3080  -31.7610   25.2440 C   0  0  1  0  0  0  0  0  0  0  0  0
  -25.1780  -31.5270   26.2750 C   0  0  0  0  0  1  0  0  0  0  0  0
  -26.9210  -30.3850   24.8950 C   0  0  0  0  0  1  0  0  0  0  0  0
  -27.4250  -32.5790   25.9350 C   0  0  0  0  0  1  0  0  0  0  0  0
  -25.5040  -33.9080   24.2270 N   0  0  0  0  0  0  0  0  0  0  0  0
  -25.8610  -34.9450   23.4570 C   0  0  0  0  0  0  0  0  0  0  0  0
  -26.5680  -34.8230   22.4540 O   0  0  0  0  0  0  0  0  0  0  0  0
  -24.8790  -34.0770   25.0010 H   0  0  0  0  0  0  0  0  0  0  0  0
  -24.1360  -36.7190   23.0000 C   0  0  0  0  0  1  0  0  0  0  0  0
  -25.3490  -36.3400   23.8660 C   0  0  0  0  0  3  0  0  0  0  0  0
  -27.4420  -37.2590   24.7630 C   0  0  0  0  0  1  0  0  0  0  0  0
  -26.3800  -37.3950   23.7690 N   0  0  0  0  0  0  0  0  0  0  0  0
  -25.9630  -38.3160   23.8750 H   0  0  0  0  0  0  0  0  0  0  0  0
  1  3  2  0
  2  1  1  0
  2  5  1  0
  4  2  1  0
  6  8  2  0
  6  7  1  0
  7  9  2  0
  8 11  1  0
  9 10  1  0
  9  5  1  0
 10 12  1  0
 11 10  2  0
 13 22  1  0
 14 19  1  0
 15 16  1  0
 15 14  1  0
 17 16  1  0
 17 26  1  0
 17 18  1  0
 19 13  1  0
 19 18  1  0
 20 13  2  0
 21 22  1  0
 22 11  1  0
 23 24  2  0
 24 43  1  0
 25 24  1  0
 25 28  1  0
 26 27  1  0
 26 23  1  0
 27 25  2  0
 28 29  1  0
 29 30  2  0
 31 34  1  0
 31 30  1  0
 32 31  2  0
 33 32  1  0
 33 28  2  0
 34 35  1  0
 35 36  1  0
 36 37  2  0
 38 37  1  0
 38 42  1  0
 39 38  2  0
 40 35  2  0
 40 39  1  0
 41 40  1  0
 43 44  1  0
 44 47  1  0
 44 46  1  0
 45 43  2  0
 48 23  1  0
 48 49  1  0
 50 48  1  0
 51 52  1  0
 51  1  1  0
 53 52  1  0
 54 65  2  0
 55 53  1  0
 55 60  1  0
 56 64  1  0
 56 66  1  0
 57 63  1  0
 57 59  1  0
 58 64  1  0
 59 60  2  0
 59 58  1  0
 61 55  2  0
 62 61  1  0
 62 57  2  0
 63 56  1  0
 64 54  1  0
 66 68  2  0
 67 66  1  0
 69 67  1  0
 70 79  2  0
 70 75  1  0
 71 67  1  0
 71 75  1  0
 72 71  1  0
 73 74  1  0
 73 72  1  0
 74 70  1  0
 75 76  2  0
 76 77  1  0
 78 77  2  0
 79 78  1  0
 80 54  1  0
 80 85  1  0
 80 81  1  0
 81 84  1  1
 81 82  1  0
 83 81  1  0
 85 88  1  0
 86 90  1  0
 86 85  1  0
 87 86  2  0
 90 89  1  0
 92 90  1  0
 92 93  1  0
 92 91  1  0
M  ISO  4  13 100  22 100  52 101  53 101
M  END
>  <TORSDO>  (7) 
F 20

>  <SCORE>  (7) 
-13.154

>  <name>  (7) 
6

>  <ligand_id>  (7) 
6

>  <original_smiles>  (7) 
[H]c1c([H])c(N(C(=O)N2C([H])([H])C([H])([H])C([H])([H])C([H])(n3nc(-c4c([H])c([H])c(Oc5c([H])c([H])c(F)c([H])c5F)c([H])c4[H])c(C(=O)N([H])[H])c3N([H])[H])C2([H])[H])C([H])([H])[H])c(C([H])([H])[H])c(C([H])([H])N([H])C(=O)C([H])([H])C([H])([H])Oc2c([H])c([H])c3c(c2[H])C([H])([H])N(C(=O)C([H])(N([H])C(=O)C([H])(N([H])C([H])([H])[H])C([H])([H])[H])C(C([H])([H])[H])(C([H])([H])[H])C([H])([H])[H])C([H])(C(=O)N([H])C2([H])c4c([H])c([H])c([H])c([H])c4C([H])([H])C([H])([H])C2([H])[H])C3([H])[H])c1[H]

>  <smiles>  (7) 
[H]c1c([H])c(N(C(=O)N2C([H])([H])C([H])([H])C([H])([H])C([H])(n3nc(-c4c([H])c([H])c(Oc5c([H])c([H])c(F)c([H])c5F)c([H])c4[H])c(C(=O)N([H])[H])c3N([H])[H])C2([H])[H])C([H])([H])[H])c(C([H])([H])[H])c(C([H])([H])N([H])C(=O)C([H])([H])C([H])([H])Oc2c([H])c([H])c3c(c2[H])C([H])([H])N(C(=O)C([H])(N([H])C(=O)C([H])(N([H])C([H])([H])[H])C([H])([H])[H])C(C([H])([H])[H])(C([H])([H])[H])C([H])([H])[H])C([H])(C(=O)N([H])C2([H])c4c([H])c([H])c([H])c([H])c4C([H])([H])C([H])([H])C2([H])[H])C3([H])[H])c1[H]

$$$$
7:0:0
     RDKit          3D

 94102  0  0  1  0  0  0  0  0999 V2000
  -29.7170  -22.3680   21.6220 C   0  0  0  0  0  0  0  0  0  0  0  0
  -30.3410  -21.1960   21.3950 N   0  0  0  0  0  0  0  0  0  0  0  0
  -28.7710  -22.4850   22.4030 O   0  0  0  0  0  0  0  0  0  0  0  0
  -31.0450  -21.2060   20.6700 H   0  0  0  0  0  0  0  0  0  0  0  0
  -30.5190  -20.1320   22.3870 C   0  0  0  0  0  2  0  0  0  0  0  0
  -28.5270  -18.6720   22.9060 C   0  0  0  0  0  3  0  0  0  0  0  0
  -28.3050  -16.4030   22.0360 C   0  0  0  0  0  3  0  0  0  0  0  0
  -30.2080  -17.7780   21.3790 C   0  0  0  0  0  3  0  0  0  0  0  0
  -27.8180  -17.4580   22.8380 C   0  0  0  0  0  0  0  0  0  0  0  0
  -29.7270  -18.8400   22.1900 C   0  0  0  0  0  0  0  0  0  0  0  0
  -29.4980  -16.5520   21.2980 C   0  0  0  0  0  0  0  0  0  0  0  0
  -26.5310  -17.2900   23.6220 C   0  0  0  0  0  1  0  0  0  0  0  0
  -30.6690  -14.5020   20.5140 C   0  0  0  0  0  0  0  0  0  0  0  0
  -30.4200  -12.3130   19.4200 C   0  0  0  0  0  2  0  0  0  0  0  0
  -29.4930  -12.5170   18.2030 C   0  0  0  0  0  2  0  0  0  0  0  0
  -28.0120  -12.3770   18.6100 C   0  0  0  0  0  2  0  0  0  0  0  0
  -27.6570  -13.2110   19.8760 C   0  0  0  0  0  3  0  0  0  0  0  0
  -28.7070  -12.9930   20.9920 C   0  0  0  0  0  2  0  0  0  0  0  0
  -30.0230  -13.3080   20.4250 N   0  0  0  0  0  0  0  0  0  0  0  0
  -31.8600  -14.6370   20.2280 O   0  0  0  0  0  0  0  0  0  0  0  0
  -29.8720  -15.5720   20.3340 N   0  0  0  0  0  0  0  0  0  0  0  0
  -30.2210  -16.0400   19.5110 H   0  0  0  0  0  0  0  0  0  0  0  0
  -25.2560  -13.8210   20.5700 C   0  0  0  0  0  0  0  0  0  0  0  0
  -24.1820  -13.0480   20.9190 C   0  0  0  0  0  0  0  0  0  0  0  0
  -24.6390  -11.6940   20.8740 C   0  0  0  0  0  0  0  0  0  0  0  0
  -26.3000  -12.9380   20.3390 N   0  0  0  0  0  0  0  0  0  0  0  0
  -25.9300  -11.6540   20.5730 N   0  0  0  0  0  0  0  0  0  0  0  0
  -23.9060  -10.4320   21.0390 C   0  0  0  0  0  0  0  0  0  0  0  0
  -24.3620   -9.4240   21.9170 C   0  0  0  0  0  3  0  0  0  0  0  0
  -23.6300   -8.2270   22.0740 C   0  0  0  0  0  3  0  0  0  0  0  0
  -22.4280   -8.0300   21.3540 C   0  0  0  0  0  0  0  0  0  0  0  0
  -21.9910   -9.0270   20.4650 C   0  0  0  0  0  3  0  0  0  0  0  0
  -22.7230  -10.2150   20.3040 C   0  0  0  0  0  3  0  0  0  0  0  0
  -21.6650   -6.8880   21.4240 O   0  0  0  0  0  0  0  0  0  0  0  0
  -21.6880   -6.0740   22.5280 C   0  0  0  0  0  0  0  0  0  0  0  0
  -21.4020   -6.5640   23.8220 C   0  0  0  0  0  3  0  0  0  0  0  0
  -21.3650   -5.6790   24.9180 C   0  0  0  0  0  3  0  0  0  0  0  0
  -21.6040   -4.3050   24.7240 C   0  0  0  0  0  0  0  0  0  0  0  0
  -21.8820   -3.8150   23.4350 C   0  0  0  0  0  3  0  0  0  0  0  0
  -21.9200   -4.6960   22.3410 C   0  0  0  0  0  0  0  0  0  0  0  0
  -22.1670   -4.2160   21.0990 F   0  0  0  0  0  0  0  0  0  0  0  0
  -21.5620   -3.4530   25.7740 F   0  0  0  0  0  0  0  0  0  0  0  0
  -22.7850  -13.5260   21.1860 C   0  0  0  0  0  0  0  0  0  0  0  0
  -22.0470  -12.8280   22.0410 N   0  0  0  0  0  0  0  0  0  0  0  0
  -22.3520  -14.5570   20.6690 O   0  0  0  0  0  0  0  0  0  0  0  0
  -22.4050  -11.9940   22.4850 H   0  0  0  0  0  0  0  0  0  0  0  0
  -21.1070  -13.1310   22.2560 H   0  0  0  0  0  0  0  0  0  0  0  0
  -25.4220  -15.1940   20.4030 N   0  0  0  0  0  0  0  0  0  0  0  0
  -24.6430  -15.8390   20.4820 H   0  0  0  0  0  0  0  0  0  0  0  0
  -26.2720  -15.6400   20.0830 H   0  0  0  0  0  0  0  0  0  0  0  0
  -30.3430  -23.6150   20.9740 C   0  0  0  0  0  2  0  0  0  0  0  0
  -29.4200  -24.5050   20.0970 C   0  0  0  0  0  2  0  0  0  0  0  0
  -28.4790  -25.4980   20.8260 C   0  0  0  0  0  2  0  0  0  0  0  0
  -28.4250  -26.7260   20.0810 O   0  0  0  0  0  0  0  0  0  0  0  0
  -24.6130  -31.8670   23.2040 C   0  0  0  0  0  0  0  0  0  0  0  0
  -27.2480  -27.4360   20.1260 C   0  0  0  0  0  0  0  0  0  0  0  0
  -23.4060  -30.4790   21.5460 C   0  0  0  0  0  3  0  0  0  0  0  0
  -24.8610  -28.9460   20.1160 C   0  0  0  0  0  0  0  0  0  0  0  0
  -25.9290  -30.8360   21.3580 C   0  0  0  0  0  2  0  0  0  0  0  0
  -26.0150  -29.4660   20.7180 C   0  0  0  0  0  0  0  0  0  0  0  0
  -27.2110  -28.7150   20.7210 C   0  0  0  0  0  3  0  0  0  0  0  0
  -26.0810  -26.9240   19.5190 C   0  0  0  0  0  3  0  0  0  0  0  0
  -24.8890  -27.6750   19.5130 C   0  0  0  0  0  3  0  0  0  0  0  0
  -23.6200  -29.8080   20.1600 C   0  0  0  0  0  2  0  0  0  0  0  0
  -24.6660  -31.0750   22.0950 N   0  0  0  0  0  0  0  0  0  0  0  0
  -23.5300  -32.1460   23.7370 O   0  0  0  0  0  0  0  0  0  0  0  0
  -22.7440  -29.4580   22.4990 C   0  0  0  0  0  0  0  0  0  0  0  0
  -21.4150  -29.3000   22.3820 N   0  0  0  0  0  0  0  0  0  0  0  0
  -23.4230  -28.8130   23.3040 O   0  0  0  0  0  0  0  0  0  0  0  0
  -20.9330  -29.8770   21.7080 H   0  0  0  0  0  0  0  0  0  0  0  0
  -18.0250  -28.1400   22.8490 C   0  0  0  0  0  0  0  0  0  0  0  0
  -20.5840  -28.3630   23.1390 C   0  0  0  0  0  3  0  0  0  0  0  0
  -20.6750  -26.9390   22.5440 C   0  0  0  0  0  2  0  0  0  0  0  0
  -19.5730  -26.6380   21.5240 C   0  0  0  0  0  2  0  0  0  0  0  0
  -18.1910  -26.7940   22.1630 C   0  0  0  0  0  2  0  0  0  0  0  0
  -19.1500  -28.8840   23.2930 C   0  0  0  0  0  0  0  0  0  0  0  0
  -18.9420  -30.1450   23.8920 C   0  0  0  0  0  3  0  0  0  0  0  0
  -17.6420  -30.6600   24.0560 C   0  0  0  0  0  3  0  0  0  0  0  0
  -16.5320  -29.9100   23.6320 C   0  0  0  0  0  3  0  0  0  0  0  0
  -16.7240  -28.6520   23.0340 C   0  0  0  0  0  3  0  0  0  0  0  0
  -25.9010  -32.4830   23.8380 C   0  0  0  0  0  3  0  0  0  0  0  0
  -25.5880  -33.8630   24.2320 N   0  0  0  0  0  0  0  0  0  0  0  0
  -25.9030  -34.9490   23.5130 C   0  0  0  0  0  0  0  0  0  0  0  0
  -26.5600  -34.8940   22.4700 O   0  0  0  0  0  0  0  0  0  0  0  0
  -25.0090  -33.9810   25.0500 H   0  0  0  0  0  0  0  0  0  0  0  0
  -24.1490  -36.7320   23.2630 C   0  0  0  0  0  1  0  0  0  0  0  0
  -25.4110  -36.3120   24.0330 C   0  0  0  0  0  3  0  0  0  0  0  0
  -27.5580  -37.1810   24.8470 C   0  0  0  0  0  1  0  0  0  0  0  0
  -26.4290  -37.3800   23.9410 N   0  0  0  0  0  0  0  0  0  0  0  0
  -26.0190  -38.2890   24.1380 H   0  0  0  0  0  0  0  0  0  0  0  0
  -26.4450  -31.6630   25.0730 C   0  0  1  0  0  0  0  0  0  0  0  0
  -25.3700  -31.3770   26.1470 C   0  0  0  0  0  1  0  0  0  0  0  0
  -27.0290  -30.3070   24.6120 C   0  0  0  0  0  1  0  0  0  0  0  0
  -27.6030  -32.4350   25.7490 C   0  0  0  0  0  1  0  0  0  0  0  0
  1  3  2  0
  2  1  1  0
  2  5  1  0
  4  2  1  0
  7  9  2  0
  8 10  1  0
  9  6  1  0
  9 12  1  0
 10  5  1  0
 10  6  2  0
 11  8  2  0
 11  7  1  0
 14 19  1  0
 15 16  1  0
 15 14  1  0
 17 16  1  0
 17 26  1  0
 17 18  1  0
 19 13  1  0
 19 18  1  0
 20 13  2  0
 21 13  1  0
 21 11  1  0
 22 21  1  0
 23 24  2  0
 24 43  1  0
 25 24  1  0
 25 28  1  0
 26 23  1  0
 26 27  1  0
 27 25  2  0
 28 29  1  0
 29 30  2  0
 31 34  1  0
 31 30  1  0
 32 31  2  0
 33 32  1  0
 33 28  2  0
 34 35  1  0
 35 36  1  0
 36 37  2  0
 38 37  1  0
 38 42  1  0
 39 38  2  0
 40 35  2  0
 40 39  1  0
 41 40  1  0
 43 44  1  0
 44 47  1  0
 44 46  1  0
 45 43  2  0
 48 49  1  0
 48 23  1  0
 50 48  1  0
 51  1  1  0
 52 53  1  0
 52 51  1  0
 54 56  1  0
 54 53  1  0
 55 66  2  0
 56 61  1  0
 57 65  1  0
 57 67  1  0
 58 64  1  0
 58 60  1  0
 59 65  1  0
 60 61  2  0
 60 59  1  0
 62 56  2  0
 63 62  1  0
 63 58  2  0
 64 57  1  0
 65 55  1  0
 67 69  2  0
 68 67  1  0
 70 68  1  0
 71 80  2  0
 71 76  1  0
 72 68  1  0
 72 76  1  0
 73 72  1  0
 74 75  1  0
 74 73  1  0
 75 71  1  0
 76 77  2  0
 77 78  1  0
 79 78  2  0
 80 79  1  0
 81 55  1  0
 81 82  1  0
 81 91  1  0
 82 85  1  0
 83 87  1  0
 83 82  1  0
 84 83  2  0
 87 86  1  0
 89 87  1  0
 89 90  1  0
 89 88  1  0
 91 94  1  1
 91 92  1  0
 93 91  1  0
M  ISO  4  13 100  21 100  53 101  54 101
M  END
>  <TORSDO>  (8) 
F 21

>  <SCORE>  (8) 
13.620

>  <name>  (8) 
7

>  <ligand_id>  (8) 
7

>  <original_smiles>  (8) 
[H]c1c([H])c([H])c2c(c1[H])C([H])([H])C([H])([H])C([H])([H])C2([H])N([H])C(=O)C1([H])N(C(=O)C([H])(N([H])C(=O)C([H])(N([H])C([H])([H])[H])C([H])([H])[H])C(C([H])([H])[H])(C([H])([H])[H])C([H])([H])[H])C([H])([H])c2c([H])c(OC([H])([H])C([H])([H])C([H])([H])C(=O)N([H])C([H])([H])c3c([H])c(N([H])C(=O)N4C([H])([H])C([H])([H])C([H])([H])C([H])(n5nc(-c6c([H])c([H])c(Oc7c([H])c([H])c(F)c([H])c7F)c([H])c6[H])c(C(=O)N([H])[H])c5N([H])[H])C4([H])[H])c([H])c(C([H])([H])[H])c3[H])c([H])c([H])c2C1([H])[H]

>  <smiles>  (8) 
[H]c1c([H])c([H])c2c(c1[H])C([H])([H])C([H])([H])C([H])([H])C2([H])N([H])C(=O)C1([H])N(C(=O)C([H])(N([H])C(=O)C([H])(N([H])C([H])([H])[H])C([H])([H])[H])C(C([H])([H])[H])(C([H])([H])[H])C([H])([H])[H])C([H])([H])c2c([H])c(OC([H])([H])C([H])([H])C([H])([H])C(=O)N([H])C([H])([H])c3c([H])c(N([H])C(=O)N4C([H])([H])C([H])([H])C([H])([H])C([H])(n5nc(-c6c([H])c([H])c(Oc7c([H])c([H])c(F)c([H])c7F)c([H])c6[H])c(C(=O)N([H])[H])c5N([H])[H])C4([H])[H])c([H])c(C([H])([H])[H])c3[H])c([H])c([H])c2C1([H])[H]

$$$$
8:0:0
     RDKit          3D

 95103  0  0  1  0  0  0  0  0999 V2000
  -28.3220  -20.6720   20.3550 C   0  0  0  0  0  0  0  0  0  0  0  0
  -29.0180  -21.8260   20.4380 N   0  0  0  0  0  0  0  0  0  0  0  0
  -27.0910  -20.6410   20.4270 O   0  0  0  0  0  0  0  0  0  0  0  0
  -30.0170  -21.7450   20.3160 H   0  0  0  0  0  0  0  0  0  0  0  0
  -30.0430  -19.0710   21.2780 C   0  0  0  0  0  3  0  0  0  0  0  0
  -30.5390  -17.7600   21.4620 C   0  0  0  0  0  3  0  0  0  0  0  0
  -29.2460  -17.0200   19.5420 C   0  0  0  0  0  3  0  0  0  0  0  0
  -29.0770  -19.3590   20.2850 C   0  0  0  0  0  0  0  0  0  0  0  0
  -28.7100  -18.3200   19.3800 C   0  0  0  0  0  0  0  0  0  0  0  0
  -30.1120  -16.7160   20.6170 C   0  0  0  0  0  0  0  0  0  0  0  0
  -27.7020  -18.5310   18.2600 C   0  0  0  0  0  1  0  0  0  0  0  0
  -30.9560  -14.4660   20.1250 C   0  0  0  0  0  0  0  0  0  0  0  0
  -30.5730  -12.3250   18.9490 C   0  0  0  0  0  2  0  0  0  0  0  0
  -29.5680  -12.5480   17.7960 C   0  0  0  0  0  2  0  0  0  0  0  0
  -28.1300  -12.3790   18.3220 C   0  0  0  0  0  2  0  0  0  0  0  0
  -27.8560  -13.2430   19.5770 C   0  0  0  0  0  3  0  0  0  0  0  0
  -28.9580  -13.0140   20.6360 C   0  0  0  0  0  2  0  0  0  0  0  0
  -30.2680  -13.2930   20.0140 N   0  0  0  0  0  0  0  0  0  0  0  0
  -31.9930  -14.7090   19.4990 O   0  0  0  0  0  0  0  0  0  0  0  0
  -30.4070  -15.3640   20.9530 N   0  0  0  0  0  0  0  0  0  0  0  0
  -29.7300  -14.9520   21.5780 H   0  0  0  0  0  0  0  0  0  0  0  0
  -25.5170  -13.8810   20.4610 C   0  0  0  0  0  0  0  0  0  0  0  0
  -24.4580  -13.1180   20.8650 C   0  0  0  0  0  0  0  0  0  0  0  0
  -24.8910  -11.7590   20.7570 C   0  0  0  0  0  0  0  0  0  0  0  0
  -26.5280  -12.9900   20.1290 N   0  0  0  0  0  0  0  0  0  0  0  0
  -26.1570  -11.7080   20.3710 N   0  0  0  0  0  0  0  0  0  0  0  0
  -24.1610  -10.5030   20.9460 C   0  0  0  0  0  0  0  0  0  0  0  0
  -24.5720   -9.5470   21.9020 C   0  0  0  0  0  3  0  0  0  0  0  0
  -23.8440   -8.3500   22.0780 C   0  0  0  0  0  3  0  0  0  0  0  0
  -22.6900   -8.1010   21.2980 C   0  0  0  0  0  0  0  0  0  0  0  0
  -22.2970   -9.0470   20.3350 C   0  0  0  0  0  3  0  0  0  0  0  0
  -23.0260  -10.2350   20.1570 C   0  0  0  0  0  3  0  0  0  0  0  0
  -21.9330   -6.9590   21.3810 O   0  0  0  0  0  0  0  0  0  0  0  0
  -21.7750   -6.2860   22.5660 C   0  0  0  0  0  0  0  0  0  0  0  0
  -21.1900   -6.8950   23.6980 C   0  0  0  0  0  3  0  0  0  0  0  0
  -20.9860   -6.1450   24.8730 C   0  0  0  0  0  3  0  0  0  0  0  0
  -21.3540   -4.7860   24.9140 C   0  0  0  0  0  0  0  0  0  0  0  0
  -21.9340   -4.1770   23.7870 C   0  0  0  0  0  3  0  0  0  0  0  0
  -22.1410   -4.9260   22.6160 C   0  0  0  0  0  0  0  0  0  0  0  0
  -22.6790   -4.3280   21.5250 F   0  0  0  0  0  0  0  0  0  0  0  0
  -21.1510   -4.0650   26.0420 F   0  0  0  0  0  0  0  0  0  0  0  0
  -23.0860  -13.6030   21.2400 C   0  0  0  0  0  0  0  0  0  0  0  0
  -22.3950  -12.8760   22.1110 N   0  0  0  0  0  0  0  0  0  0  0  0
  -22.6410  -14.6620   20.7980 O   0  0  0  0  0  0  0  0  0  0  0  0
  -22.7690  -12.0180   22.4890 H   0  0  0  0  0  0  0  0  0  0  0  0
  -21.4770  -13.1790   22.4020 H   0  0  0  0  0  0  0  0  0  0  0  0
  -25.7010  -15.2550   20.3260 N   0  0  0  0  0  0  0  0  0  0  0  0
  -24.9610  -15.9190   20.5270 H   0  0  0  0  0  0  0  0  0  0  0  0
  -26.5660  -15.6940   20.0360 H   0  0  0  0  0  0  0  0  0  0  0  0
  -28.5460  -23.0630   21.1190 C   0  0  0  0  0  2  0  0  0  0  0  0
  -26.6890  -24.6760   21.4600 C   0  0  0  0  0  1  0  0  0  0  0  0
  -26.7940  -23.4350   19.2660 C   0  0  0  0  0  1  0  0  0  0  0  0
  -27.6470  -24.1250   20.3590 C   0  0  2  0  0  0  0  0  0  0  0  0
  -28.4840  -25.2950   19.6600 C   0  0  0  0  0  2  0  0  0  0  0  0
  -28.5150  -26.6560   20.1930 O   0  0  0  0  0  0  0  0  0  0  0  0
  -24.6590  -31.8440   23.2090 C   0  0  0  0  0  0  0  0  0  0  0  0
  -27.4000  -27.4740   20.0710 C   0  0  0  0  0  0  0  0  0  0  0  0
  -23.5030  -30.4590   21.5140 C   0  0  0  0  0  3  0  0  0  0  0  0
  -25.0070  -28.9990   20.0630 C   0  0  0  0  0  0  0  0  0  0  0  0
  -26.0350  -30.8410   21.4050 C   0  0  0  0  0  2  0  0  0  0  0  0
  -26.1450  -29.4970   20.7090 C   0  0  0  0  0  0  0  0  0  0  0  0
  -27.3400  -28.7330   20.7270 C   0  0  0  0  0  3  0  0  0  0  0  0
  -26.2630  -27.0660   19.3350 C   0  0  0  0  0  3  0  0  0  0  0  0
  -25.0640  -27.7870   19.3670 C   0  0  0  0  0  3  0  0  0  0  0  0
  -23.7480  -29.8290   20.1260 C   0  0  0  0  0  2  0  0  0  0  0  0
  -24.7470  -31.0620   22.0980 N   0  0  0  0  0  0  0  0  0  0  0  0
  -23.5640  -32.1020   23.7280 O   0  0  0  0  0  0  0  0  0  0  0  0
  -22.8520  -29.4010   22.4370 C   0  0  0  0  0  0  0  0  0  0  0  0
  -21.5390  -29.1870   22.2540 N   0  0  0  0  0  0  0  0  0  0  0  0
  -23.5230  -28.7860   23.2730 O   0  0  0  0  0  0  0  0  0  0  0  0
  -21.0680  -29.7260   21.5390 H   0  0  0  0  0  0  0  0  0  0  0  0
  -18.1590  -27.9870   22.6800 C   0  0  0  0  0  0  0  0  0  0  0  0
  -20.7110  -28.2420   22.9990 C   0  0  0  0  0  3  0  0  0  0  0  0
  -20.8200  -26.8090   22.4070 C   0  0  0  0  0  2  0  0  0  0  0  0
  -19.7440  -26.4860   21.3760 C   0  0  0  0  0  2  0  0  0  0  0  0
  -18.3430  -26.6600   21.9570 C   0  0  0  0  0  2  0  0  0  0  0  0
  -19.2670  -28.7380   23.1500 C   0  0  0  0  0  0  0  0  0  0  0  0
  -19.0250  -29.9830   23.7730 C   0  0  0  0  0  3  0  0  0  0  0  0
  -17.7140  -30.4610   23.9530 C   0  0  0  0  0  3  0  0  0  0  0  0
  -16.6210  -29.6930   23.5140 C   0  0  0  0  0  3  0  0  0  0  0  0
  -16.8480  -28.4640   22.8680 C   0  0  0  0  0  3  0  0  0  0  0  0
  -25.9260  -32.4780   23.8670 C   0  0  0  0  0  3  0  0  0  0  0  0
  -26.4290  -31.7000   25.1440 C   0  0  1  0  0  0  0  0  0  0  0  0
  -25.3090  -31.4310   26.1760 C   0  0  0  0  0  1  0  0  0  0  0  0
  -27.0440  -30.3320   24.7590 C   0  0  0  0  0  1  0  0  0  0  0  0
  -27.5530  -32.5070   25.8400 C   0  0  0  0  0  1  0  0  0  0  0  0
  -25.5990  -33.8700   24.1970 N   0  0  0  0  0  0  0  0  0  0  0  0
  -25.9390  -34.9290   23.4510 C   0  0  0  0  0  0  0  0  0  0  0  0
  -26.6340  -34.8400   22.4340 O   0  0  0  0  0  0  0  0  0  0  0  0
  -24.9800  -34.0120   24.9840 H   0  0  0  0  0  0  0  0  0  0  0  0
  -24.2050  -36.7060   23.0680 C   0  0  0  0  0  1  0  0  0  0  0  0
  -25.4250  -36.3040   23.9110 C   0  0  0  0  0  3  0  0  0  0  0  0
  -27.5220  -37.1970   24.8290 C   0  0  0  0  0  1  0  0  0  0  0  0
  -26.4540  -37.3650   23.8460 N   0  0  0  0  0  0  0  0  0  0  0  0
  -26.0310  -38.2790   23.9860 H   0  0  0  0  0  0  0  0  0  0  0  0
  1  3  2  0
  1  2  1  0
  2 50  1  0
  4  2  1  0
  5  6  1  0
  7 10  1  0
  8  1  1  0
  8  5  2  0
  9  7  2  0
  9  8  1  0
 10 20  1  0
 10  6  2  0
 11  9  1  0
 12 20  1  0
 13 18  1  0
 14 15  1  0
 14 13  1  0
 16 15  1  0
 16 25  1  0
 16 17  1  0
 18 12  1  0
 18 17  1  0
 19 12  2  0
 20 21  1  0
 22 23  2  0
 23 42  1  0
 24 23  1  0
 24 27  1  0
 25 26  1  0
 25 22  1  0
 26 24  2  0
 27 28  1  0
 28 29  2  0
 30 33  1  0
 30 29  1  0
 31 30  2  0
 32 31  1  0
 32 27  2  0
 33 34  1  0
 34 39  2  0
 34 35  1  0
 35 36  2  0
 36 37  1  0
 37 41  1  0
 38 37  2  0
 39 38  1  0
 40 39  1  0
 42 43  1  0
 43 46  1  0
 43 45  1  0
 44 42  2  0
 47 22  1  0
 47 48  1  0
 49 47  1  0
 53 52  1  6
 53 50  1  0
 53 51  1  0
 54 55  1  0
 54 53  1  0
 56 67  2  0
 57 55  1  0
 57 62  1  0
 58 66  1  0
 58 68  1  0
 59 65  1  0
 59 61  1  0
 60 66  1  0
 61 62  2  0
 61 60  1  0
 63 64  1  0
 63 57  2  0
 64 59  2  0
 65 58  1  0
 66 56  1  0
 68 70  2  0
 69 68  1  0
 71 69  1  0
 72 81  2  0
 72 77  1  0
 73 69  1  0
 73 77  1  0
 74 73  1  0
 75 76  1  0
 75 74  1  0
 76 72  1  0
 77 78  2  0
 78 79  1  0
 80 79  2  0
 81 80  1  0
 82 56  1  0
 82 87  1  0
 82 83  1  0
 83 86  1  1
 83 84  1  0
 85 83  1  0
 87 90  1  0
 88 92  1  0
 88 87  1  0
 89 88  2  0
 92 91  1  0
 94 92  1  0
 94 95  1  0
 94 93  1  0
M  ISO  4  12 100  20 100  54 101  55 101
M  END
>  <TORSDO>  (9) 
F 20

>  <SCORE>  (9) 
-13.413

>  <name>  (9) 
8

>  <ligand_id>  (9) 
8

>  <original_smiles>  (9) 
[H]c1c([H])c([H])c2c(c1[H])C([H])([H])C([H])([H])C([H])([H])C2([H])N([H])C(=O)C1([H])N(C(=O)C([H])(N([H])C(=O)C([H])(N([H])C([H])([H])[H])C([H])([H])[H])C(C([H])([H])[H])(C([H])([H])[H])C([H])([H])[H])C([H])([H])c2c([H])c(OC([H])([H])C(C([H])([H])[H])(C([H])([H])[H])C([H])([H])N([H])C(=O)c3c([H])c([H])c(N([H])C(=O)N4C([H])([H])C([H])([H])C([H])([H])C([H])(n5nc(-c6c([H])c([H])c(Oc7c([H])c([H])c(F)c([H])c7F)c([H])c6[H])c(C(=O)N([H])[H])c5N([H])[H])C4([H])[H])c([H])c3C([H])([H])[H])c([H])c([H])c2C1([H])[H]

>  <smiles>  (9) 
[H]c1c([H])c([H])c2c(c1[H])C([H])([H])C([H])([H])C([H])([H])C2([H])N([H])C(=O)C1([H])N(C(=O)C([H])(N([H])C(=O)C([H])(N([H])C([H])([H])[H])C([H])([H])[H])C(C([H])([H])[H])(C([H])([H])[H])C([H])([H])[H])C([H])([H])c2c([H])c(OC([H])([H])C(C([H])([H])[H])(C([H])([H])[H])C([H])([H])N([H])C(=O)c3c([H])c([H])c(N([H])C(=O)N4C([H])([H])C([H])([H])C([H])([H])C([H])(n5nc(-c6c([H])c([H])c(Oc7c([H])c([H])c(F)c([H])c7F)c([H])c6[H])c(C(=O)N([H])[H])c5N([H])[H])C4([H])[H])c([H])c3C([H])([H])[H])c([H])c([H])c2C1([H])[H]

$$$$
9:0:0
     RDKit          3D

 94102  0  0  1  0  0  0  0  0999 V2000
  -28.7310  -20.5290   20.5780 C   0  0  0  0  0  0  0  0  0  0  0  0
  -29.2600  -21.7440   20.3090 N   0  0  0  0  0  0  0  0  0  0  0  0
  -27.5140  -20.3640   20.6950 O   0  0  0  0  0  0  0  0  0  0  0  0
  -30.2660  -21.7880   20.2150 H   0  0  0  0  0  0  0  0  0  0  0  0
  -31.8940  -18.6300   21.5800 C   0  0  0  0  0  3  0  0  0  0  0  0
  -30.9600  -19.6480   21.3320 C   0  0  0  0  0  3  0  0  0  0  0  0
  -31.5660  -17.2900   21.3160 C   0  0  0  0  0  3  0  0  0  0  0  0
  -29.7010  -19.3680   20.7530 C   0  0  0  0  0  0  0  0  0  0  0  0
  -29.3820  -17.9960   20.4480 C   0  0  0  0  0  0  0  0  0  0  0  0
  -30.3030  -16.9490   20.7790 C   0  0  0  0  0  0  0  0  0  0  0  0
  -28.0840  -17.6320   19.7280 C   0  0  0  0  0  1  0  0  0  0  0  0
  -30.6660  -14.5330   20.1750 C   0  0  0  0  0  0  0  0  0  0  0  0
  -30.3200  -12.3870   19.0050 C   0  0  0  0  0  2  0  0  0  0  0  0
  -29.3380  -12.6350   17.8410 C   0  0  0  0  0  2  0  0  0  0  0  0
  -27.8760  -12.5020   18.3160 C   0  0  0  0  0  2  0  0  0  0  0  0
  -27.5950  -13.2930   19.6220 C   0  0  0  0  0  3  0  0  0  0  0  0
  -28.6950  -13.0390   20.6800 C   0  0  0  0  0  2  0  0  0  0  0  0
  -29.9930  -13.3540   20.0640 N   0  0  0  0  0  0  0  0  0  0  0  0
  -31.7950  -14.7010   19.7030 O   0  0  0  0  0  0  0  0  0  0  0  0
  -29.9370  -15.5650   20.6600 N   0  0  0  0  0  0  0  0  0  0  0  0
  -28.9840  -15.3340   20.8980 H   0  0  0  0  0  0  0  0  0  0  0  0
  -25.2230  -13.8960   20.4130 C   0  0  0  0  0  0  0  0  0  0  0  0
  -24.1670  -13.1220   20.8130 C   0  0  0  0  0  0  0  0  0  0  0  0
  -24.6250  -11.7710   20.7570 C   0  0  0  0  0  0  0  0  0  0  0  0
  -26.2600  -13.0160   20.1440 N   0  0  0  0  0  0  0  0  0  0  0  0
  -25.9060  -11.7330   20.4070 N   0  0  0  0  0  0  0  0  0  0  0  0
  -23.9040  -10.5090   20.9580 C   0  0  0  0  0  0  0  0  0  0  0  0
  -24.3530   -9.5470   21.8890 C   0  0  0  0  0  3  0  0  0  0  0  0
  -23.6330   -8.3480   22.0830 C   0  0  0  0  0  3  0  0  0  0  0  0
  -22.4520   -8.1040   21.3440 C   0  0  0  0  0  0  0  0  0  0  0  0
  -22.0230   -9.0560   20.4020 C   0  0  0  0  0  3  0  0  0  0  0  0
  -22.7410  -10.2460   20.2070 C   0  0  0  0  0  3  0  0  0  0  0  0
  -21.7020   -6.9580   21.4470 O   0  0  0  0  0  0  0  0  0  0  0  0
  -21.6540   -6.2290   22.6080 C   0  0  0  0  0  0  0  0  0  0  0  0
  -21.2070   -6.7920   23.8230 C   0  0  0  0  0  3  0  0  0  0  0  0
  -21.1080   -5.9880   24.9760 C   0  0  0  0  0  3  0  0  0  0  0  0
  -21.4480   -4.6230   24.9150 C   0  0  0  0  0  0  0  0  0  0  0  0
  -21.8900   -4.0610   23.7050 C   0  0  0  0  0  3  0  0  0  0  0  0
  -21.9900   -4.8610   22.5540 C   0  0  0  0  0  0  0  0  0  0  0  0
  -22.3940   -4.3090   21.3840 F   0  0  0  0  0  0  0  0  0  0  0  0
  -21.3490   -3.8500   26.0200 F   0  0  0  0  0  0  0  0  0  0  0  0
  -22.7800  -13.6020   21.1320 C   0  0  0  0  0  0  0  0  0  0  0  0
  -22.0740  -12.8990   22.0120 N   0  0  0  0  0  0  0  0  0  0  0  0
  -22.3300  -14.6350   20.6380 O   0  0  0  0  0  0  0  0  0  0  0  0
  -22.4510  -12.0650   22.4370 H   0  0  0  0  0  0  0  0  0  0  0  0
  -21.1430  -13.2010   22.2620 H   0  0  0  0  0  0  0  0  0  0  0  0
  -25.3810  -15.2670   20.2370 N   0  0  0  0  0  0  0  0  0  0  0  0
  -24.6100  -15.9150   20.3590 H   0  0  0  0  0  0  0  0  0  0  0  0
  -26.2100  -15.7050   19.8630 H   0  0  0  0  0  0  0  0  0  0  0  0
  -28.4940  -23.0030   20.1580 C   0  0  0  0  0  2  0  0  0  0  0  0
  -30.1550  -24.6680   21.2190 C   0  0  0  0  0  1  0  0  0  0  0  0
  -29.3690  -24.2880   19.9550 C   0  0  0  0  0  3  0  0  0  0  0  0
  -28.5950  -25.5140   19.3510 C   0  0  0  0  0  2  0  0  0  0  0  0
  -28.4230  -26.6850   20.2010 O   0  0  0  0  0  0  0  0  0  0  0  0
  -24.6050  -31.9340   23.2360 C   0  0  0  0  0  0  0  0  0  0  0  0
  -27.2540  -27.4440   20.1550 C   0  0  0  0  0  0  0  0  0  0  0  0
  -23.4120  -30.5360   21.5900 C   0  0  0  0  0  3  0  0  0  0  0  0
  -24.8690  -29.0060   20.1680 C   0  0  0  0  0  0  0  0  0  0  0  0
  -25.9490  -30.8730   21.4200 C   0  0  0  0  0  2  0  0  0  0  0  0
  -26.0310  -29.5040   20.7680 C   0  0  0  0  0  0  0  0  0  0  0  0
  -27.2220  -28.7310   20.7620 C   0  0  0  0  0  3  0  0  0  0  0  0
  -26.0580  -26.9780   19.5540 C   0  0  0  0  0  3  0  0  0  0  0  0
  -24.8810  -27.7440   19.5610 C   0  0  0  0  0  3  0  0  0  0  0  0
  -23.6320  -29.8720   20.2070 C   0  0  0  0  0  2  0  0  0  0  0  0
  -24.6740  -31.1300   22.1370 N   0  0  0  0  0  0  0  0  0  0  0  0
  -23.5190  -32.2070   23.7650 O   0  0  0  0  0  0  0  0  0  0  0  0
  -22.7550  -29.5080   22.5400 C   0  0  0  0  0  0  0  0  0  0  0  0
  -21.4290  -29.3340   22.4140 N   0  0  0  0  0  0  0  0  0  0  0  0
  -23.4350  -28.8710   23.3500 O   0  0  0  0  0  0  0  0  0  0  0  0
  -20.9400  -29.9030   21.7380 H   0  0  0  0  0  0  0  0  0  0  0  0
  -18.0430  -28.1770   22.9340 C   0  0  0  0  0  0  0  0  0  0  0  0
  -20.6060  -28.3970   23.1800 C   0  0  0  0  0  3  0  0  0  0  0  0
  -20.6820  -26.9710   22.5860 C   0  0  0  0  0  2  0  0  0  0  0  0
  -19.5650  -26.6770   21.5790 C   0  0  0  0  0  2  0  0  0  0  0  0
  -18.1930  -26.8330   22.2410 C   0  0  0  0  0  2  0  0  0  0  0  0
  -19.1780  -28.9190   23.3610 C   0  0  0  0  0  0  0  0  0  0  0  0
  -18.9830  -30.1770   23.9700 C   0  0  0  0  0  3  0  0  0  0  0  0
  -17.6870  -30.6960   24.1540 C   0  0  0  0  0  3  0  0  0  0  0  0
  -16.5680  -29.9520   23.7430 C   0  0  0  0  0  3  0  0  0  0  0  0
  -16.7460  -28.6940   23.1380 C   0  0  0  0  0  3  0  0  0  0  0  0
  -25.8850  -32.5680   23.8640 C   0  0  0  0  0  3  0  0  0  0  0  0
  -26.3960  -31.8020   25.1460 C   0  0  1  0  0  0  0  0  0  0  0  0
  -25.2960  -31.5610   26.2060 C   0  0  0  0  0  1  0  0  0  0  0  0
  -26.9910  -30.4280   24.7640 C   0  0  0  0  0  1  0  0  0  0  0  0
  -27.5340  -32.6070   25.8160 C   0  0  0  0  0  1  0  0  0  0  0  0
  -25.5710  -33.9660   24.1860 N   0  0  0  0  0  0  0  0  0  0  0  0
  -25.9040  -35.0170   23.4240 C   0  0  0  0  0  0  0  0  0  0  0  0
  -26.5820  -34.9120   22.3980 O   0  0  0  0  0  0  0  0  0  0  0  0
  -24.9670  -34.1230   24.9800 H   0  0  0  0  0  0  0  0  0  0  0  0
  -24.1760  -36.8060   23.0490 C   0  0  0  0  0  1  0  0  0  0  0  0
  -25.4090  -36.4050   23.8750 C   0  0  0  0  0  3  0  0  0  0  0  0
  -27.5310  -37.2940   24.7310 C   0  0  0  0  0  1  0  0  0  0  0  0
  -26.4400  -37.4600   23.7730 N   0  0  0  0  0  0  0  0  0  0  0  0
  -26.0300  -38.3780   23.9160 H   0  0  0  0  0  0  0  0  0  0  0  0
  1  3  2  0
  1  8  1  0
  2  1  1  0
  4  2  1  0
  6  5  1  0
  7  5  2  0
  8  6  2  0
  9  8  1  0
  9 10  2  0
 10  7  1  0
 11  9  1  0
 12 20  1  0
 13 18  1  0
 14 15  1  0
 14 13  1  0
 16 15  1  0
 16 25  1  0
 16 17  1  0
 18 12  1  0
 18 17  1  0
 19 12  2  0
 20 10  1  0
 20 21  1  0
 22 23  2  0
 23 42  1  0
 24 23  1  0
 24 27  1  0
 25 26  1  0
 25 22  1  0
 26 24  2  0
 27 28  1  0
 28 29  2  0
 30 33  1  0
 30 29  1  0
 31 30  2  0
 32 31  1  0
 32 27  2  0
 33 34  1  0
 34 35  1  0
 35 36  2  0
 37 36  1  0
 37 41  1  0
 38 37  2  0
 39 34  2  0
 39 38  1  0
 40 39  1  0
 42 43  1  0
 43 46  1  0
 43 45  1  0
 44 42  2  0
 47 48  1  0
 47 22  1  0
 49 47  1  0
 50  2  1  0
 52 50  1  0
 52 51  1  0
 53 52  1  0
 53 54  1  0
 55 66  2  0
 56 54  1  0
 56 61  1  0
 57 65  1  0
 57 67  1  0
 58 64  1  0
 58 60  1  0
 59 65  1  0
 60 59  1  0
 61 60  2  0
 62 63  1  0
 62 56  2  0
 63 58  2  0
 64 57  1  0
 65 55  1  0
 67 69  2  0
 68 67  1  0
 70 68  1  0
 71 80  2  0
 71 76  1  0
 72 68  1  0
 72 76  1  0
 73 72  1  0
 74 75  1  0
 74 73  1  0
 75 71  1  0
 76 77  2  0
 77 78  1  0
 79 78  2  0
 80 79  1  0
 81 55  1  0
 81 86  1  0
 81 82  1  0
 82 85  1  1
 82 83  1  0
 84 82  1  0
 86 89  1  0
 87 91  1  0
 87 86  1  0
 88 87  2  0
 91 90  1  0
 93 91  1  0
 93 94  1  0
 93 92  1  0
M  ISO  4  12 100  20 100  53 101  54 101
M  END
>  <TORSDO>  (10) 
F 20

>  <SCORE>  (10) 
-14.002

>  <name>  (10) 
9

>  <ligand_id>  (10) 
9

>  <original_smiles>  (10) 
[H]c1c([H])c(C(=O)N([H])C([H])([H])C([H])(C([H])([H])[H])C([H])([H])Oc2c([H])c([H])c3c(c2[H])C([H])([H])N(C(=O)C([H])(N([H])C(=O)C([H])(N([H])C([H])([H])[H])C([H])([H])[H])C(C([H])([H])[H])(C([H])([H])[H])C([H])([H])[H])C([H])(C(=O)N([H])C2([H])c4c([H])c([H])c([H])c([H])c4C([H])([H])C([H])([H])C2([H])[H])C3([H])[H])c(C([H])([H])[H])c(N([H])C(=O)N2C([H])([H])C([H])([H])C([H])([H])C([H])(n3nc(-c4c([H])c([H])c(Oc5c([H])c([H])c(F)c([H])c5F)c([H])c4[H])c(C(=O)N([H])[H])c3N([H])[H])C2([H])[H])c1[H]

>  <smiles>  (10) 
[H]c1c([H])c(C(=O)N([H])C([H])([H])C([H])(C([H])([H])[H])C([H])([H])Oc2c([H])c([H])c3c(c2[H])C([H])([H])N(C(=O)C([H])(N([H])C(=O)C([H])(N([H])C([H])([H])[H])C([H])([H])[H])C(C([H])([H])[H])(C([H])([H])[H])C([H])([H])[H])C([H])(C(=O)N([H])C2([H])c4c([H])c([H])c([H])c([H])c4C([H])([H])C([H])([H])C2([H])[H])C3([H])[H])c(C([H])([H])[H])c(N([H])C(=O)N2C([H])([H])C([H])([H])C([H])([H])C([H])(n3nc(-c4c([H])c([H])c(Oc5c([H])c([H])c(F)c([H])c5F)c([H])c4[H])c(C(=O)N([H])[H])c3N([H])[H])C2([H])[H])c1[H]

$$$$
10:0:0
     RDKit          3D

 94102  0  0  1  0  0  0  0  0999 V2000
  -29.6300  -18.7960   22.3700 C   0  0  0  0  0  3  0  0  0  0  0  0
  -29.8490  -17.5010   21.8550 C   0  0  0  0  0  3  0  0  0  0  0  0
  -30.5330  -18.5100   19.7560 C   0  0  0  0  0  3  0  0  0  0  0  0
  -29.8420  -19.9620   21.5990 C   0  0  0  0  0  0  0  0  0  0  0  0
  -30.3400  -19.8660   20.2700 C   0  0  0  0  0  0  0  0  0  0  0  0
  -30.2960  -17.3010   20.5320 C   0  0  0  0  0  0  0  0  0  0  0  0
  -31.0210  -14.7820   20.1790 C   0  0  0  0  0  0  0  0  0  0  0  0
  -30.7370  -12.4380   19.3320 C   0  0  0  0  0  2  0  0  0  0  0  0
  -29.7970  -12.4440   18.1080 C   0  0  0  0  0  2  0  0  0  0  0  0
  -28.3210  -12.3870   18.5490 C   0  0  0  0  0  2  0  0  0  0  0  0
  -27.9930  -13.3920   19.6840 C   0  0  0  0  0  3  0  0  0  0  0  0
  -29.0450  -13.3390   20.8110 C   0  0  0  0  0  2  0  0  0  0  0  0
  -30.3500  -13.5820   20.1830 N   0  0  0  0  0  0  0  0  0  0  0  0
  -32.2340  -14.8240   19.9590 O   0  0  0  0  0  0  0  0  0  0  0  0
  -30.2300  -15.9130   20.0160 N   0  0  0  0  0  0  0  0  0  0  0  0
  -29.2840  -15.6250   19.8240 H   0  0  0  0  0  0  0  0  0  0  0  0
  -25.6670  -14.1840   20.4230 C   0  0  0  0  0  0  0  0  0  0  0  0
  -24.5450  -13.5000   20.8060 C   0  0  0  0  0  0  0  0  0  0  0  0
  -24.8980  -12.1150   20.7840 C   0  0  0  0  0  0  0  0  0  0  0  0
  -26.6350  -13.2200   20.1890 N   0  0  0  0  0  0  0  0  0  0  0  0
  -26.1800  -11.9720   20.4710 N   0  0  0  0  0  0  0  0  0  0  0  0
  -24.0760  -10.9160   20.9850 C   0  0  0  0  0  0  0  0  0  0  0  0
  -24.4550   -9.9050   21.8950 C   0  0  0  0  0  3  0  0  0  0  0  0
  -23.6380   -8.7700   22.0830 C   0  0  0  0  0  3  0  0  0  0  0  0
  -22.4280   -8.6370   21.3620 C   0  0  0  0  0  0  0  0  0  0  0  0
  -22.0680   -9.6370   20.4420 C   0  0  0  0  0  3  0  0  0  0  0  0
  -22.8840  -10.7640   20.2500 C   0  0  0  0  0  3  0  0  0  0  0  0
  -21.5840   -7.5580   21.4630 O   0  0  0  0  0  0  0  0  0  0  0  0
  -21.5230   -6.7970   22.6020 C   0  0  0  0  0  0  0  0  0  0  0  0
  -21.2110   -7.3610   23.8590 C   0  0  0  0  0  3  0  0  0  0  0  0
  -21.0860   -6.5330   24.9910 C   0  0  0  0  0  3  0  0  0  0  0  0
  -21.2690   -5.1420   24.8710 C   0  0  0  0  0  0  0  0  0  0  0  0
  -21.5760   -4.5780   23.6200 C   0  0  0  0  0  3  0  0  0  0  0  0
  -21.6990   -5.4030   22.4890 C   0  0  0  0  0  0  0  0  0  0  0  0
  -21.9720   -4.8510   21.2810 F   0  0  0  0  0  0  0  0  0  0  0  0
  -21.1450   -4.3430   25.9580 F   0  0  0  0  0  0  0  0  0  0  0  0
  -23.1920  -14.0890   21.0800 C   0  0  0  0  0  0  0  0  0  0  0  0
  -22.4210  -13.4660   21.9660 N   0  0  0  0  0  0  0  0  0  0  0  0
  -22.8290  -15.1340   20.5420 O   0  0  0  0  0  0  0  0  0  0  0  0
  -22.7270  -12.6180   22.4210 H   0  0  0  0  0  0  0  0  0  0  0  0
  -21.5120  -13.8450   22.1920 H   0  0  0  0  0  0  0  0  0  0  0  0
  -25.9380  -15.5360   20.2320 N   0  0  0  0  0  0  0  0  0  0  0  0
  -25.2350  -16.2540   20.3630 H   0  0  0  0  0  0  0  0  0  0  0  0
  -26.8140  -15.9060   19.8820 H   0  0  0  0  0  0  0  0  0  0  0  0
  -28.5170  -21.9860   21.8870 C   0  0  0  0  0  2  0  0  0  0  0  0
  -27.4960  -22.7150   21.4970 C   0  0  0  0  0  1  0  0  0  0  0  0
  -29.5490  -21.2540   22.2380 C   0  0  0  0  0  2  0  0  0  0  0  0
  -30.7570  -21.1930   19.4680 C   0  0  0  0  0  2  0  0  0  0  0  0
  -30.1110  -23.7530   19.4580 C   0  0  0  0  0  0  0  0  0  0  0  0
  -28.7110  -22.0490   18.3410 C   0  0  0  0  0  1  0  0  0  0  0  0
  -29.8370  -22.3990   19.2040 N   0  0  0  0  0  0  0  0  0  0  0  0
  -31.1040  -24.0740   20.1180 O   0  0  0  0  0  0  0  0  0  0  0  0
  -29.1870  -24.9400   18.8800 C   0  0  0  0  0  2  0  0  0  0  0  0
  -29.3140  -26.3620   19.3820 O   0  0  0  0  0  0  0  0  0  0  0  0
  -24.8480  -30.8940   22.9390 C   0  0  0  0  0  0  0  0  0  0  0  0
  -28.1410  -27.1660   19.3810 C   0  0  0  0  0  0  0  0  0  0  0  0
  -23.9190  -29.6960   20.9930 C   0  0  0  0  0  3  0  0  0  0  0  0
  -25.6230  -28.5710   19.4520 C   0  0  0  0  0  0  0  0  0  0  0  0
  -26.4250  -30.2660   21.0870 C   0  0  0  0  0  2  0  0  0  0  0  0
  -26.6990  -29.0400   20.2180 C   0  0  0  0  0  0  0  0  0  0  0  0
  -27.9600  -28.3550   20.1710 C   0  0  0  0  0  3  0  0  0  0  0  0
  -27.0290  -26.7750   18.5960 C   0  0  0  0  0  3  0  0  0  0  0  0
  -25.7960  -27.4480   18.6320 C   0  0  0  0  0  3  0  0  0  0  0  0
  -24.2980  -29.3030   19.5430 C   0  0  0  0  0  2  0  0  0  0  0  0
  -25.0780  -30.2940   21.7330 N   0  0  0  0  0  0  0  0  0  0  0  0
  -23.7060  -30.9710   23.4150 O   0  0  0  0  0  0  0  0  0  0  0  0
  -23.3040  -28.4670   21.7060 C   0  0  0  0  0  0  0  0  0  0  0  0
  -22.0110  -28.2040   21.4520 N   0  0  0  0  0  0  0  0  0  0  0  0
  -23.9920  -27.7630   22.4520 O   0  0  0  0  0  0  0  0  0  0  0  0
  -21.5120  -28.8330   20.8380 H   0  0  0  0  0  0  0  0  0  0  0  0
  -18.7300  -26.6710   21.5170 C   0  0  0  0  0  0  0  0  0  0  0  0
  -21.2420  -27.0730   21.9820 C   0  0  0  0  0  3  0  0  0  0  0  0
  -21.4930  -25.7920   21.1530 C   0  0  0  0  0  2  0  0  0  0  0  0
  -20.4670  -25.5870   20.0330 C   0  0  0  0  0  2  0  0  0  0  0  0
  -19.0520  -25.4960   20.6100 C   0  0  0  0  0  2  0  0  0  0  0  0
  -19.7580  -27.4220   22.1480 C   0  0  0  0  0  0  0  0  0  0  0  0
  -19.4030  -28.5260   22.9540 C   0  0  0  0  0  3  0  0  0  0  0  0
  -18.0530  -28.8840   23.1310 C   0  0  0  0  0  3  0  0  0  0  0  0
  -17.0400  -28.1270   22.5180 C   0  0  0  0  0  3  0  0  0  0  0  0
  -17.3780  -27.0210   21.7180 C   0  0  0  0  0  3  0  0  0  0  0  0
  -26.0090  -31.5240   23.7670 C   0  0  0  0  0  3  0  0  0  0  0  0
  -26.4210  -30.6550   25.0180 C   0  0  1  0  0  0  0  0  0  0  0  0
  -25.2310  -30.2710   25.9310 C   0  0  0  0  0  1  0  0  0  0  0  0
  -27.1140  -29.3480   24.5730 C   0  0  0  0  0  1  0  0  0  0  0  0
  -27.4500  -31.4310   25.8760 C   0  0  0  0  0  1  0  0  0  0  0  0
  -25.5740  -32.8620   24.1910 N   0  0  0  0  0  0  0  0  0  0  0  0
  -25.9310  -34.0060   23.5930 C   0  0  0  0  0  0  0  0  0  0  0  0
  -26.7290  -34.0490   22.6540 O   0  0  0  0  0  0  0  0  0  0  0  0
  -24.8750  -32.8980   24.9190 H   0  0  0  0  0  0  0  0  0  0  0  0
  -24.1560  -35.7430   23.2000 C   0  0  0  0  0  1  0  0  0  0  0  0
  -25.3050  -35.3110   24.1240 C   0  0  0  0  0  3  0  0  0  0  0  0
  -27.2610  -36.1890   25.3180 C   0  0  0  0  0  1  0  0  0  0  0  0
  -26.2750  -36.4180   24.2630 N   0  0  0  0  0  0  0  0  0  0  0  0
  -25.8000  -37.2940   24.4590 H   0  0  0  0  0  0  0  0  0  0  0  0
  2  1  1  0
  3  5  2  0
  3  6  1  0
  4 47  1  0
  4  1  2  0
  5  4  1  0
  6  2  2  0
  7 13  1  0
  8 13  1  0
  9 10  1  0
  9  8  1  0
 11 10  1  0
 11 20  1  0
 11 12  1  0
 13 12  1  0
 14  7  2  0
 15  7  1  0
 15  6  1  0
 16 15  1  0
 17 18  2  0
 18 37  1  0
 19 18  1  0
 19 22  1  0
 20 17  1  0
 20 21  1  0
 21 19  2  0
 22 23  1  0
 23 24  2  0
 25 28  1  0
 25 24  1  0
 26 25  2  0
 27 26  1  0
 27 22  2  0
 28 29  1  0
 29 30  1  0
 30 31  2  0
 32 31  1  0
 32 36  1  0
 33 32  2  0
 34 29  2  0
 34 33  1  0
 35 34  1  0
 37 38  1  0
 38 41  1  0
 38 40  1  0
 39 37  2  0
 42 43  1  0
 42 17  1  0
 44 42  1  0
 45 47  1  0
 46 45  1  0
 48  5  1  0
 49 52  2  0
 50 51  1  0
 51 49  1  0
 51 48  1  0
 53 54  1  0
 53 49  1  0
 55 66  2  0
 56 54  1  0
 56 61  1  0
 57 67  1  0
 57 65  1  0
 58 64  1  0
 58 60  1  0
 59 65  1  0
 60 59  1  0
 61 60  2  0
 62 63  1  0
 62 56  2  0
 63 58  2  0
 64 57  1  0
 65 55  1  0
 67 69  2  0
 68 67  1  0
 70 68  1  0
 71 80  2  0
 71 76  1  0
 72 68  1  0
 72 76  1  0
 73 72  1  0
 74 75  1  0
 74 73  1  0
 75 71  1  0
 76 77  2  0
 77 78  1  0
 79 78  2  0
 80 79  1  0
 81 55  1  0
 81 86  1  0
 81 82  1  0
 82 85  1  1
 82 83  1  0
 84 82  1  0
 86 89  1  0
 87 91  1  0
 87 86  1  0
 88 87  2  0
 91 90  1  0
 91 93  1  0
 93 94  1  0
 93 92  1  0
M  ISO  4   7 100  15 100  53 101  54 101
M  END
>  <TORSDO>  (11) 
F 20

>  <SCORE>  (11) 
-9.436

>  <name>  (11) 
10

>  <ligand_id>  (11) 
10

>  <original_smiles>  (11) 
[H]C([H])=C=C([H])c1c([H])c([H])c(N([H])C(=O)N2C([H])([H])C([H])([H])C([H])([H])C([H])(n3nc(-c4c([H])c([H])c(Oc5c([H])c([H])c(F)c([H])c5F)c([H])c4[H])c(C(=O)N([H])[H])c3N([H])[H])C2([H])[H])c([H])c1C([H])([H])N(C(=O)C([H])([H])Oc1c([H])c([H])c2c(c1[H])C([H])([H])N(C(=O)C([H])(N([H])C(=O)C([H])(N([H])C([H])([H])[H])C([H])([H])[H])C(C([H])([H])[H])(C([H])([H])[H])C([H])([H])[H])C([H])(C(=O)N([H])C1([H])c3c([H])c([H])c([H])c([H])c3C([H])([H])C([H])([H])C1([H])[H])C2([H])[H])C([H])([H])[H]

>  <smiles>  (11) 
[H]C([H])=C=C([H])c1c([H])c([H])c(N([H])C(=O)N2C([H])([H])C([H])([H])C([H])([H])C([H])(n3nc(-c4c([H])c([H])c(Oc5c([H])c([H])c(F)c([H])c5F)c([H])c4[H])c(C(=O)N([H])[H])c3N([H])[H])C2([H])[H])c([H])c1C([H])([H])N(C(=O)C([H])([H])Oc1c([H])c([H])c2c(c1[H])C([H])([H])N(C(=O)C([H])(N([H])C(=O)C([H])(N([H])C([H])([H])[H])C([H])([H])[H])C(C([H])([H])[H])(C([H])([H])[H])C([H])([H])[H])C([H])(C(=O)N([H])C1([H])c3c([H])c([H])c([H])c([H])c3C([H])([H])C([H])([H])C1([H])[H])C2([H])[H])C([H])([H])[H]

$$$$
11:0:0
     RDKit          3D

 95103  0  0  1  0  0  0  0  0999 V2000
  -27.3910  -22.6660   21.1410 C   0  0  0  0  0  0  0  0  0  0  0  0
  -28.3130  -21.8020   21.5700 N   0  0  0  0  0  0  0  0  0  0  0  0
  -26.3730  -22.3240   20.5350 O   0  0  0  0  0  0  0  0  0  0  0  0
  -29.0870  -22.1750   22.1000 H   0  0  0  0  0  0  0  0  0  0  0  0
  -27.7840  -24.0310   21.4270 C   0  0  0  0  0  3  0  0  0  0  0  0
  -27.9470  -24.9010   20.4120 C   0  0  0  0  0  3  0  0  0  0  0  0
  -28.4290  -26.3290   20.5750 C   0  0  0  0  0  2  0  0  0  0  0  0
  -28.1000  -27.1450   19.4530 O   0  0  0  0  0  0  0  0  0  0  0  0
  -24.7770  -31.9720   23.4570 C   0  0  0  0  0  0  0  0  0  0  0  0
  -26.9710  -27.8940   19.6460 C   0  0  0  0  0  0  0  0  0  0  0  0
  -23.3920  -30.7730   21.8190 C   0  0  0  0  0  3  0  0  0  0  0  0
  -24.6290  -29.3910   20.0740 C   0  0  0  0  0  0  0  0  0  0  0  0
  -25.8670  -31.1410   21.3680 C   0  0  0  0  0  2  0  0  0  0  0  0
  -25.8510  -29.8430   20.5900 C   0  0  0  0  0  0  0  0  0  0  0  0
  -27.0290  -29.0980   20.3770 C   0  0  0  0  0  3  0  0  0  0  0  0
  -25.7440  -27.4520   19.1140 C   0  0  0  0  0  3  0  0  0  0  0  0
  -24.5680  -28.1970   19.3290 C   0  0  0  0  0  3  0  0  0  0  0  0
  -23.4180  -30.2480   20.3550 C   0  0  0  0  0  2  0  0  0  0  0  0
  -24.7070  -31.3010   22.2750 N   0  0  0  0  0  0  0  0  0  0  0  0
  -23.7610  -32.1930   24.1310 O   0  0  0  0  0  0  0  0  0  0  0  0
  -22.8250  -29.6670   22.7330 C   0  0  0  0  0  0  0  0  0  0  0  0
  -21.5050  -29.5530   22.6420 N   0  0  0  0  0  0  0  0  0  0  0  0
  -23.5400  -28.9460   23.4300 O   0  0  0  0  0  0  0  0  0  0  0  0
  -21.0630  -30.2800   22.0980 H   0  0  0  0  0  0  0  0  0  0  0  0
  -18.1520  -27.9440   22.9740 C   0  0  0  0  0  0  0  0  0  0  0  0
  -20.6020  -28.4870   22.9910 C   0  0  0  0  0  3  0  0  0  0  0  0
  -20.9470  -27.0120   22.7550 C   0  0  0  0  0  2  0  0  0  0  0  0
  -19.8940  -26.4130   21.7970 C   0  0  0  0  0  2  0  0  0  0  0  0
  -18.4540  -26.5900   22.3280 C   0  0  0  0  0  2  0  0  0  0  0  0
  -19.1860  -28.8130   23.3970 C   0  0  0  0  0  0  0  0  0  0  0  0
  -18.8760  -30.0450   24.0060 C   0  0  0  0  0  3  0  0  0  0  0  0
  -17.5330  -30.4390   24.1500 C   0  0  0  0  0  3  0  0  0  0  0  0
  -16.5010  -29.5950   23.7010 C   0  0  0  0  0  3  0  0  0  0  0  0
  -16.8100  -28.3460   23.1300 C   0  0  0  0  0  3  0  0  0  0  0  0
  -26.1310  -32.5080   24.0090 C   0  0  0  0  0  3  0  0  0  0  0  0
  -25.9020  -33.8820   24.4720 N   0  0  0  0  0  0  0  0  0  0  0  0
  -26.2360  -34.9760   23.7800 C   0  0  0  0  0  0  0  0  0  0  0  0
  -26.8420  -34.9330   22.7050 O   0  0  0  0  0  0  0  0  0  0  0  0
  -25.3640  -33.9970   25.3190 H   0  0  0  0  0  0  0  0  0  0  0  0
  -24.5660  -36.8510   23.6790 C   0  0  0  0  0  1  0  0  0  0  0  0
  -25.8360  -36.3390   24.3750 C   0  0  0  0  0  3  0  0  0  0  0  0
  -28.0590  -37.0630   25.1250 C   0  0  0  0  0  1  0  0  0  0  0  0
  -26.9040  -37.3560   24.2790 N   0  0  0  0  0  0  0  0  0  0  0  0
  -26.5500  -38.2750   24.5310 H   0  0  0  0  0  0  0  0  0  0  0  0
  -26.7250  -31.6110   25.1600 C   0  0  1  0  0  0  0  0  0  0  0  0
  -25.7230  -31.3120   26.2990 C   0  0  0  0  0  1  0  0  0  0  0  0
  -27.2140  -30.2580   24.5900 C   0  0  0  0  0  1  0  0  0  0  0  0
  -27.9620  -32.3060   25.7720 C   0  0  0  0  0  1  0  0  0  0  0  0
  -28.3910  -20.3770   21.2580 C   0  0  0  0  0  2  0  0  0  0  0  0
  -32.3240  -19.2220   19.7740 C   0  0  0  0  0  3  0  0  0  0  0  0
  -32.1800  -20.3800   20.5600 C   0  0  0  0  0  3  0  0  0  0  0  0
  -29.9290  -18.8110   19.9510 C   0  0  0  0  0  3  0  0  0  0  0  0
  -31.2030  -18.4250   19.4640 C   0  0  0  0  0  0  0  0  0  0  0  0
  -29.7740  -19.9750   20.7450 C   0  0  0  0  0  0  0  0  0  0  0  0
  -30.9170  -20.7570   21.0520 C   0  0  0  0  0  0  0  0  0  0  0  0
  -30.8110  -22.1750   22.0370 Cl  0  0  0  0  0  0  0  0  0  0  0  0
  -31.3750  -17.2030   18.5610 C   0  0  0  0  0  2  0  0  0  0  0  0
  -31.6640  -14.7710   18.9420 C   0  0  0  0  0  0  0  0  0  0  0  0
  -31.4610  -12.3100   18.8890 C   0  0  0  0  0  2  0  0  0  0  0  0
  -30.4590  -11.9040   17.7900 C   0  0  0  0  0  2  0  0  0  0  0  0
  -29.0140  -11.9080   18.3290 C   0  0  0  0  0  2  0  0  0  0  0  0
  -28.6710  -13.2130   19.0970 C   0  0  0  0  0  3  0  0  0  0  0  0
  -29.7800  -13.5650   20.1160 C   0  0  0  0  0  2  0  0  0  0  0  0
  -31.0620  -13.6360   19.3930 N   0  0  0  0  0  0  0  0  0  0  0  0
  -32.7010  -14.7560   18.2710 O   0  0  0  0  0  0  0  0  0  0  0  0
  -31.0140  -15.9240   19.1820 N   0  0  0  0  0  0  0  0  0  0  0  0
  -30.1810  -15.9000   19.7480 H   0  0  0  0  0  0  0  0  0  0  0  0
  -26.5190  -14.1490   20.1580 C   0  0  0  0  0  0  0  0  0  0  0  0
  -25.3920  -13.5360   20.6340 C   0  0  0  0  0  0  0  0  0  0  0  0
  -25.6060  -12.1330   20.4700 C   0  0  0  0  0  0  0  0  0  0  0  0
  -27.3600  -13.1290   19.7390 N   0  0  0  0  0  0  0  0  0  0  0  0
  -26.8180  -11.9070   19.9780 N   0  0  0  0  0  0  0  0  0  0  0  0
  -24.7040  -10.9960   20.6950 C   0  0  0  0  0  0  0  0  0  0  0  0
  -25.0490   -9.9440   21.5700 C   0  0  0  0  0  3  0  0  0  0  0  0
  -24.1590   -8.8680   21.7820 C   0  0  0  0  0  3  0  0  0  0  0  0
  -22.9090   -8.8390   21.1200 C   0  0  0  0  0  0  0  0  0  0  0  0
  -22.5810   -9.8790   20.2310 C   0  0  0  0  0  3  0  0  0  0  0  0
  -23.4690  -10.9460   20.0170 C   0  0  0  0  0  3  0  0  0  0  0  0
  -21.9890   -7.8270   21.2490 O   0  0  0  0  0  0  0  0  0  0  0  0
  -21.8420   -7.1350   22.4250 C   0  0  0  0  0  0  0  0  0  0  0  0
  -21.5210   -7.7830   23.6390 C   0  0  0  0  0  3  0  0  0  0  0  0
  -21.3090   -7.0230   24.8070 C   0  0  0  0  0  3  0  0  0  0  0  0
  -21.4090   -5.6190   24.7650 C   0  0  0  0  0  0  0  0  0  0  0  0
  -21.7230   -4.9730   23.5560 C   0  0  0  0  0  3  0  0  0  0  0  0
  -21.9380   -5.7290   22.3900 C   0  0  0  0  0  0  0  0  0  0  0  0
  -22.2190   -5.0990   21.2240 F   0  0  0  0  0  0  0  0  0  0  0  0
  -21.2000   -4.8890   25.8850 F   0  0  0  0  0  0  0  0  0  0  0  0
  -24.1420  -14.2130   21.1230 C   0  0  0  0  0  0  0  0  0  0  0  0
  -23.4460  -13.6020   22.0750 N   0  0  0  0  0  0  0  0  0  0  0  0
  -23.8020  -15.3150   20.6940 O   0  0  0  0  0  0  0  0  0  0  0  0
  -23.7340  -12.7100   22.4470 H   0  0  0  0  0  0  0  0  0  0  0  0
  -22.6120  -14.0380   22.4410 H   0  0  0  0  0  0  0  0  0  0  0  0
  -26.8960  -15.4840   20.0220 N   0  0  0  0  0  0  0  0  0  0  0  0
  -26.2730  -16.2540   20.2380 H   0  0  0  0  0  0  0  0  0  0  0  0
  -27.7520  -15.7870   19.5760 H   0  0  0  0  0  0  0  0  0  0  0  0
  1  5  1  0
  1  2  1  0
  2  4  1  0
  3  1  2  0
  6  7  1  0
  6  5  2  0
  8 10  1  0
  8  7  1  0
  9 20  2  0
 10 15  1  0
 11 19  1  0
 11 21  1  0
 12 18  1  0
 12 14  1  0
 13 19  1  0
 14 13  1  0
 15 14  2  0
 16 17  1  0
 16 10  2  0
 17 12  2  0
 18 11  1  0
 19  9  1  0
 21 23  2  0
 22 21  1  0
 24 22  1  0
 25 34  2  0
 25 30  1  0
 26 22  1  0
 26 30  1  0
 27 26  1  0
 28 29  1  0
 28 27  1  0
 29 25  1  0
 30 31  2  0
 31 32  1  0
 33 32  2  0
 34 33  1  0
 35  9  1  0
 35 36  1  0
 35 45  1  0
 36 39  1  0
 37 41  1  0
 37 36  1  0
 38 37  2  0
 41 40  1  0
 43 41  1  0
 43 44  1  0
 43 42  1  0
 45 48  1  1
 45 46  1  0
 47 45  1  0
 49  2  1  0
 50 51  1  0
 51 55  2  0
 52 54  2  0
 53 50  2  0
 53 52  1  0
 54 55  1  0
 54 49  1  0
 55 56  1  0
 57 66  1  0
 57 53  1  0
 58 66  1  0
 58 64  1  0
 59 64  1  0
 60 61  1  0
 60 59  1  0
 62 61  1  0
 62 71  1  0
 62 63  1  0
 64 63  1  0
 65 58  2  0
 66 67  1  0
 68 69  2  0
 69 88  1  0
 70 69  1  0
 70 73  1  0
 71 72  1  0
 71 68  1  0
 72 70  2  0
 73 74  1  0
 74 75  2  0
 76 79  1  0
 76 75  1  0
 77 76  2  0
 78 77  1  0
 78 73  2  0
 79 80  1  0
 80 81  1  0
 81 82  2  0
 83 82  1  0
 83 87  1  0
 84 83  2  0
 85 80  2  0
 85 84  1  0
 86 85  1  0
 88 89  1  0
 89 92  1  0
 89 91  1  0
 90 88  2  0
 93 68  1  0
 93 94  1  0
 95 93  1  0
M  ISO  4   7 101   8 101  58 100  66 100
M  END
>  <TORSDO>  (12) 
F 21

>  <SCORE>  (12) 
-11.498

>  <name>  (12) 
11

>  <ligand_id>  (12) 
11

>  <original_smiles>  (12) 
[H]C(C(=O)N([H])C([H])([H])c1c([H])c(C([H])([H])N([H])C(=O)N2C([H])([H])C([H])([H])C([H])([H])C([H])(n3nc(-c4c([H])c([H])c(Oc5c([H])c([H])c(F)c([H])c5F)c([H])c4[H])c(C(=O)N([H])[H])c3N([H])[H])C2([H])[H])c([H])c([H])c1Cl)=C([H])C([H])([H])Oc1c([H])c([H])c2c(c1[H])C([H])([H])N(C(=O)C([H])(N([H])C(=O)C([H])(N([H])C([H])([H])[H])C([H])([H])[H])C(C([H])([H])[H])(C([H])([H])[H])C([H])([H])[H])C([H])(C(=O)N([H])C1([H])c3c([H])c([H])c([H])c([H])c3C([H])([H])C([H])([H])C1([H])[H])C2([H])[H]

>  <smiles>  (12) 
[H]C(C(=O)N([H])C([H])([H])c1c([H])c(C([H])([H])N([H])C(=O)N2C([H])([H])C([H])([H])C([H])([H])C([H])(n3nc(-c4c([H])c([H])c(Oc5c([H])c([H])c(F)c([H])c5F)c([H])c4[H])c(C(=O)N([H])[H])c3N([H])[H])C2([H])[H])c([H])c([H])c1Cl)=C([H])C([H])([H])Oc1c([H])c([H])c2c(c1[H])C([H])([H])N(C(=O)C([H])(N([H])C(=O)C([H])(N([H])C([H])([H])[H])C([H])([H])[H])C(C([H])([H])[H])(C([H])([H])[H])C([H])([H])[H])C([H])(C(=O)N([H])C1([H])c3c([H])c([H])c([H])c([H])c3C([H])([H])C([H])([H])C1([H])[H])C2([H])[H]

$$$$
12:0:0
     RDKit          3D

 93101  0  0  1  0  0  0  0  0999 V2000
  -28.8240  -21.6190   19.6500 C   0  0  0  0  0  0  0  0  0  0  0  0
  -28.8880  -20.5000   20.4250 N   0  0  0  0  0  0  0  0  0  0  0  0
  -28.7780  -21.5510   18.4230 O   0  0  0  0  0  0  0  0  0  0  0  0
  -28.7520  -20.6710   21.4090 H   0  0  0  0  0  0  0  0  0  0  0  0
  -28.9040  -22.8890   20.4090 C   0  0  0  0  0  3  0  0  0  0  0  0
  -28.3240  -24.0780   20.0400 C   0  0  0  0  0  3  0  0  0  0  0  0
  -28.4120  -25.4180   20.8320 C   0  0  0  0  0  2  0  0  0  0  0  0
  -28.3790  -26.6750   20.0890 O   0  0  0  0  0  0  0  0  0  0  0  0
  -24.5820  -31.9350   23.2430 C   0  0  0  0  0  0  0  0  0  0  0  0
  -27.2210  -27.4430   20.1600 C   0  0  0  0  0  0  0  0  0  0  0  0
  -23.3750  -30.5260   21.6110 C   0  0  0  0  0  3  0  0  0  0  0  0
  -24.8250  -28.9760   20.1930 C   0  0  0  0  0  0  0  0  0  0  0  0
  -25.9040  -30.8760   21.4020 C   0  0  0  0  0  2  0  0  0  0  0  0
  -25.9910  -29.4990   20.7670 C   0  0  0  0  0  0  0  0  0  0  0  0
  -27.1930  -28.7410   20.7440 C   0  0  0  0  0  3  0  0  0  0  0  0
  -26.0330  -26.9460   19.5830 C   0  0  0  0  0  3  0  0  0  0  0  0
  -24.8420  -27.6980   19.6060 C   0  0  0  0  0  3  0  0  0  0  0  0
  -23.5840  -29.8430   20.2330 C   0  0  0  0  0  2  0  0  0  0  0  0
  -24.6390  -31.1280   22.1440 N   0  0  0  0  0  0  0  0  0  0  0  0
  -23.5020  -32.2090   23.7850 O   0  0  0  0  0  0  0  0  0  0  0  0
  -22.7280  -29.5090   22.5770 C   0  0  0  0  0  0  0  0  0  0  0  0
  -21.4030  -29.3210   22.4510 N   0  0  0  0  0  0  0  0  0  0  0  0
  -23.4140  -28.8850   23.3910 O   0  0  0  0  0  0  0  0  0  0  0  0
  -20.9120  -29.8780   21.7650 H   0  0  0  0  0  0  0  0  0  0  0  0
  -18.0360  -28.1160   22.9520 C   0  0  0  0  0  0  0  0  0  0  0  0
  -20.5930  -28.3770   23.2200 C   0  0  0  0  0  3  0  0  0  0  0  0
  -20.6980  -26.9470   22.6410 C   0  0  0  0  0  2  0  0  0  0  0  0
  -19.5920  -26.6220   21.6290 C   0  0  0  0  0  2  0  0  0  0  0  0
  -18.2120  -26.7650   22.2770 C   0  0  0  0  0  2  0  0  0  0  0  0
  -19.1530  -28.8790   23.3830 C   0  0  0  0  0  0  0  0  0  0  0  0
  -18.9380  -30.1440   23.9700 C   0  0  0  0  0  3  0  0  0  0  0  0
  -17.6350  -30.6480   24.1270 C   0  0  0  0  0  3  0  0  0  0  0  0
  -16.5300  -29.8830   23.7160 C   0  0  0  0  0  3  0  0  0  0  0  0
  -16.7310  -28.6180   23.1360 C   0  0  0  0  0  3  0  0  0  0  0  0
  -25.8700  -32.5690   23.8620 C   0  0  0  0  0  3  0  0  0  0  0  0
  -26.3930  -31.7990   25.1360 C   0  0  1  0  0  0  0  0  0  0  0  0
  -25.3060  -31.5580   26.2080 C   0  0  0  0  0  1  0  0  0  0  0  0
  -26.9780  -30.4240   24.7360 C   0  0  0  0  0  1  0  0  0  0  0  0
  -27.5390  -32.5990   25.7990 C   0  0  0  0  0  1  0  0  0  0  0  0
  -25.5580  -33.9660   24.1920 N   0  0  0  0  0  0  0  0  0  0  0  0
  -25.8810  -35.0190   23.4290 C   0  0  0  0  0  0  0  0  0  0  0  0
  -26.5450  -34.9170   22.3940 O   0  0  0  0  0  0  0  0  0  0  0  0
  -24.9690  -34.1180   24.9970 H   0  0  0  0  0  0  0  0  0  0  0  0
  -24.1440  -36.8070   23.0950 C   0  0  0  0  0  1  0  0  0  0  0  0
  -25.3970  -36.4060   23.8910 C   0  0  0  0  0  3  0  0  0  0  0  0
  -27.5340  -37.3050   24.6960 C   0  0  0  0  0  1  0  0  0  0  0  0
  -26.4220  -37.4620   23.7610 N   0  0  0  0  0  0  0  0  0  0  0  0
  -26.0140  -38.3790   23.9100 H   0  0  0  0  0  0  0  0  0  0  0  0
  -29.1500  -19.0580   20.0780 C   0  0  0  0  0  2  0  0  0  0  0  0
  -31.3140  -18.5630   23.2040 C   0  0  0  0  0  3  0  0  0  0  0  0
  -31.3200  -17.1830   23.4230 C   0  0  0  0  0  3  0  0  0  0  0  0
  -30.6590  -19.0870   22.0830 C   0  0  0  0  0  3  0  0  0  0  0  0
  -30.7620  -16.3360   22.4610 C   0  0  0  0  0  3  0  0  0  0  0  0
  -29.9780  -18.2690   21.1430 C   0  0  0  0  0  0  0  0  0  0  0  0
  -30.1410  -16.8240   21.2800 C   0  0  0  0  0  0  0  0  0  0  0  0
  -30.4670  -14.6740   20.0450 C   0  0  0  0  0  0  0  0  0  0  0  0
  -30.1980  -12.4690   18.9190 C   0  0  0  0  0  2  0  0  0  0  0  0
  -29.1890  -12.6340   17.7660 C   0  0  0  0  0  2  0  0  0  0  0  0
  -27.7390  -12.4850   18.2750 C   0  0  0  0  0  2  0  0  0  0  0  0
  -27.4580  -13.3020   19.5680 C   0  0  0  0  0  3  0  0  0  0  0  0
  -28.5770  -13.1120   20.6100 C   0  0  0  0  0  2  0  0  0  0  0  0
  -29.8330  -13.4680   19.9440 N   0  0  0  0  0  0  0  0  0  0  0  0
  -31.6270  -14.8130   19.6430 O   0  0  0  0  0  0  0  0  0  0  0  0
  -29.7090  -15.7710   20.3840 N   0  0  0  0  0  0  0  0  0  0  0  0
  -28.7110  -15.6570   20.3040 H   0  0  0  0  0  0  0  0  0  0  0  0
  -25.1020  -13.8710   20.4150 C   0  0  0  0  0  0  0  0  0  0  0  0
  -24.0640  -13.0890   20.8390 C   0  0  0  0  0  0  0  0  0  0  0  0
  -24.5380  -11.7400   20.7740 C   0  0  0  0  0  0  0  0  0  0  0  0
  -26.1410  -13.0040   20.1190 N   0  0  0  0  0  0  0  0  0  0  0  0
  -25.8100  -11.7160   20.3940 N   0  0  0  0  0  0  0  0  0  0  0  0
  -23.8340  -10.4700   20.9880 C   0  0  0  0  0  0  0  0  0  0  0  0
  -24.3040   -9.5090   21.9100 C   0  0  0  0  0  3  0  0  0  0  0  0
  -23.5950   -8.3060   22.1120 C   0  0  0  0  0  3  0  0  0  0  0  0
  -22.4030   -8.0550   21.3920 C   0  0  0  0  0  0  0  0  0  0  0  0
  -21.9530   -9.0050   20.4580 C   0  0  0  0  0  3  0  0  0  0  0  0
  -22.6630  -10.2000   20.2540 C   0  0  0  0  0  3  0  0  0  0  0  0
  -21.6630   -6.9030   21.5050 O   0  0  0  0  0  0  0  0  0  0  0  0
  -21.6420   -6.1700   22.6650 C   0  0  0  0  0  0  0  0  0  0  0  0
  -21.2340   -6.7310   23.8950 C   0  0  0  0  0  3  0  0  0  0  0  0
  -21.1600   -5.9230   25.0480 C   0  0  0  0  0  3  0  0  0  0  0  0
  -21.4890   -4.5570   24.9720 C   0  0  0  0  0  0  0  0  0  0  0  0
  -21.8930   -3.9950   23.7470 C   0  0  0  0  0  3  0  0  0  0  0  0
  -21.9670   -4.8000   22.5970 C   0  0  0  0  0  0  0  0  0  0  0  0
  -22.3360   -4.2490   21.4160 F   0  0  0  0  0  0  0  0  0  0  0  0
  -21.4120   -3.7790   26.0780 F   0  0  0  0  0  0  0  0  0  0  0  0
  -22.6790  -13.5510   21.1760 C   0  0  0  0  0  0  0  0  0  0  0  0
  -21.9950  -12.8470   22.0700 N   0  0  0  0  0  0  0  0  0  0  0  0
  -22.2090  -14.5790   20.6830 O   0  0  0  0  0  0  0  0  0  0  0  0
  -22.3850  -12.0190   22.4950 H   0  0  0  0  0  0  0  0  0  0  0  0
  -21.0640  -13.1380   22.3290 H   0  0  0  0  0  0  0  0  0  0  0  0
  -25.2400  -15.2460   20.2320 N   0  0  0  0  0  0  0  0  0  0  0  0
  -24.4430  -15.8660   20.3400 H   0  0  0  0  0  0  0  0  0  0  0  0
  -26.0170  -15.6870   19.7580 H   0  0  0  0  0  0  0  0  0  0  0  0
  1  5  1  0
  1  2  1  0
  2  4  1  0
  3  1  2  0
  6  5  2  0
  6  7  1  0
  8 10  1  0
  8  7  1  0
  9 20  2  0
 10 15  1  0
 11 19  1  0
 11 21  1  0
 12 18  1  0
 12 14  1  0
 13 19  1  0
 14 13  1  0
 15 14  2  0
 16 17  1  0
 16 10  2  0
 17 12  2  0
 18 11  1  0
 19  9  1  0
 21 23  2  0
 22 21  1  0
 24 22  1  0
 25 34  2  0
 25 30  1  0
 26 22  1  0
 26 30  1  0
 27 26  1  0
 28 29  1  0
 28 27  1  0
 29 25  1  0
 30 31  2  0
 31 32  1  0
 33 32  2  0
 34 33  1  0
 35  9  1  0
 35 40  1  0
 35 36  1  0
 36 39  1  1
 36 37  1  0
 38 36  1  0
 40 43  1  0
 41 45  1  0
 41 40  1  0
 42 41  2  0
 45 44  1  0
 47 45  1  0
 47 48  1  0
 47 46  1  0
 49  2  1  0
 49 54  1  0
 50 51  1  0
 52 50  2  0
 53 51  2  0
 54 55  2  0
 54 52  1  0
 55 53  1  0
 56 64  1  0
 57 62  1  0
 58 59  1  0
 58 57  1  0
 60 59  1  0
 60 69  1  0
 60 61  1  0
 62 56  1  0
 62 61  1  0
 63 56  2  0
 64 55  1  0
 65 64  1  0
 66 67  2  0
 67 86  1  0
 68 67  1  0
 68 71  1  0
 69 70  1  0
 69 66  1  0
 70 68  2  0
 71 72  1  0
 72 73  2  0
 74 77  1  0
 74 73  1  0
 75 74  2  0
 76 75  1  0
 76 71  2  0
 77 78  1  0
 78 79  1  0
 79 80  2  0
 81 80  1  0
 81 85  1  0
 82 81  2  0
 83 78  2  0
 83 82  1  0
 84 83  1  0
 86 87  1  0
 87 90  1  0
 87 89  1  0
 88 86  2  0
 91 92  1  0
 91 66  1  0
 93 91  1  0
M  ISO  4   7 101   8 101  56 100  64 100
M  END
>  <TORSDO>  (13) 
F 20

>  <SCORE>  (13) 
-12.351

>  <name>  (13) 
12

>  <ligand_id>  (13) 
12

>  <original_smiles>  (13) 
[H]C(C(=O)N([H])C([H])([H])c1c([H])c([H])c([H])c([H])c1N([H])C(=O)N1C([H])([H])C([H])([H])C([H])([H])C([H])(n2nc(-c3c([H])c([H])c(Oc4c([H])c([H])c(F)c([H])c4F)c([H])c3[H])c(C(=O)N([H])[H])c2N([H])[H])C1([H])[H])=C([H])C([H])([H])Oc1c([H])c([H])c2c(c1[H])C([H])([H])N(C(=O)C([H])(N([H])C(=O)C([H])(N([H])C([H])([H])[H])C([H])([H])[H])C(C([H])([H])[H])(C([H])([H])[H])C([H])([H])[H])C([H])(C(=O)N([H])C1([H])c3c([H])c([H])c([H])c([H])c3C([H])([H])C([H])([H])C1([H])[H])C2([H])[H]

>  <smiles>  (13) 
[H]C(C(=O)N([H])C([H])([H])c1c([H])c([H])c([H])c([H])c1N([H])C(=O)N1C([H])([H])C([H])([H])C([H])([H])C([H])(n2nc(-c3c([H])c([H])c(Oc4c([H])c([H])c(F)c([H])c4F)c([H])c3[H])c(C(=O)N([H])[H])c2N([H])[H])C1([H])[H])=C([H])C([H])([H])Oc1c([H])c([H])c2c(c1[H])C([H])([H])N(C(=O)C([H])(N([H])C(=O)C([H])(N([H])C([H])([H])[H])C([H])([H])[H])C(C([H])([H])[H])(C([H])([H])[H])C([H])([H])[H])C([H])(C(=O)N([H])C1([H])c3c([H])c([H])c([H])c([H])c3C([H])([H])C([H])([H])C1([H])[H])C2([H])[H]

$$$$
13:0:0
     RDKit          3D

 92100  0  0  1  0  0  0  0  0999 V2000
  -28.4740  -20.7580   19.7270 C   0  0  0  0  0  2  0  0  0  0  0  0
  -31.4990  -19.1100   21.5950 C   0  0  0  0  0  3  0  0  0  0  0  0
  -30.5930  -20.1090   21.1580 C   0  0  0  0  0  3  0  0  0  0  0  0
  -31.2590  -17.7280   21.3960 C   0  0  0  0  0  3  0  0  0  0  0  0
  -29.4020  -19.7370   20.5050 C   0  0  0  0  0  0  0  0  0  0  0  0
  -30.0580  -17.2740   20.8060 C   0  0  0  0  0  0  0  0  0  0  0  0
  -29.1420  -18.3060   20.3860 C   0  0  0  0  0  0  0  0  0  0  0  0
  -27.9860  -17.9020   19.8060 F   0  0  0  0  0  0  0  0  0  0  0  0
  -30.5680  -14.7400   20.4270 C   0  0  0  0  0  0  0  0  0  0  0  0
  -30.3840  -12.4820   19.3740 C   0  0  0  0  0  2  0  0  0  0  0  0
  -29.4380  -12.5730   18.1530 C   0  0  0  0  0  2  0  0  0  0  0  0
  -27.9660  -12.3960   18.5820 C   0  0  0  0  0  2  0  0  0  0  0  0
  -27.6000  -13.2580   19.8190 C   0  0  0  0  0  3  0  0  0  0  0  0
  -28.6640  -13.1430   20.9350 C   0  0  0  0  0  2  0  0  0  0  0  0
  -29.9550  -13.5110   20.3430 N   0  0  0  0  0  0  0  0  0  0  0  0
  -31.7430  -14.8700   20.0690 O   0  0  0  0  0  0  0  0  0  0  0  0
  -29.7630  -15.8310   20.6940 N   0  0  0  0  0  0  0  0  0  0  0  0
  -28.7880  -15.5980   20.7860 H   0  0  0  0  0  0  0  0  0  0  0  0
  -25.2160  -13.8440   20.5470 C   0  0  0  0  0  0  0  0  0  0  0  0
  -24.1510  -13.0680   20.9150 C   0  0  0  0  0  0  0  0  0  0  0  0
  -24.6140  -11.7180   20.8810 C   0  0  0  0  0  0  0  0  0  0  0  0
  -26.2590  -12.9650   20.3100 N   0  0  0  0  0  0  0  0  0  0  0  0
  -25.9040  -11.6790   20.5710 N   0  0  0  0  0  0  0  0  0  0  0  0
  -23.8890  -10.4550   21.0710 C   0  0  0  0  0  0  0  0  0  0  0  0
  -24.3360   -9.4800   21.9900 C   0  0  0  0  0  3  0  0  0  0  0  0
  -23.6120   -8.2820   22.1680 C   0  0  0  0  0  3  0  0  0  0  0  0
  -22.4280   -8.0500   21.4270 C   0  0  0  0  0  0  0  0  0  0  0  0
  -22.0020   -9.0150   20.4980 C   0  0  0  0  0  3  0  0  0  0  0  0
  -22.7250  -10.2040   20.3180 C   0  0  0  0  0  3  0  0  0  0  0  0
  -21.6760   -6.9030   21.5130 O   0  0  0  0  0  0  0  0  0  0  0  0
  -21.6500   -6.1440   22.6570 C   0  0  0  0  0  0  0  0  0  0  0  0
  -21.2510   -6.6810   23.9010 C   0  0  0  0  0  3  0  0  0  0  0  0
  -21.1720   -5.8470   25.0350 C   0  0  0  0  0  3  0  0  0  0  0  0
  -21.4840   -4.4790   24.9260 C   0  0  0  0  0  0  0  0  0  0  0  0
  -21.8760   -3.9410   23.6880 C   0  0  0  0  0  3  0  0  0  0  0  0
  -21.9570   -4.7730   22.5560 C   0  0  0  0  0  0  0  0  0  0  0  0
  -22.3150   -4.2430   21.3610 F   0  0  0  0  0  0  0  0  0  0  0  0
  -21.4020   -3.6780   26.0140 F   0  0  0  0  0  0  0  0  0  0  0  0
  -22.7540  -13.5440   21.1880 C   0  0  0  0  0  0  0  0  0  0  0  0
  -22.0270  -12.8500   22.0580 N   0  0  0  0  0  0  0  0  0  0  0  0
  -22.3160  -14.5690   20.6680 O   0  0  0  0  0  0  0  0  0  0  0  0
  -22.3930  -12.0220   22.5030 H   0  0  0  0  0  0  0  0  0  0  0  0
  -21.0900  -13.1570   22.2820 H   0  0  0  0  0  0  0  0  0  0  0  0
  -25.3740  -15.2150   20.3710 N   0  0  0  0  0  0  0  0  0  0  0  0
  -24.5930  -15.8560   20.4670 H   0  0  0  0  0  0  0  0  0  0  0  0
  -26.2110  -15.6660   20.0250 H   0  0  0  0  0  0  0  0  0  0  0  0
  -28.6030  -23.4870   20.2460 C   0  0  0  0  0  0  0  0  0  0  0  0
  -26.8410  -22.3580   19.0080 C   0  0  0  0  0  1  0  0  0  0  0  0
  -28.0620  -22.2500   19.8460 N   0  0  0  0  0  0  0  0  0  0  0  0
  -29.7030  -23.5650   20.7980 O   0  0  0  0  0  0  0  0  0  0  0  0
  -27.7530  -24.8450   19.9470 C   0  0  0  0  0  2  0  0  0  0  0  0
  -28.1860  -26.2690   20.2490 O   0  0  0  0  0  0  0  0  0  0  0  0
  -24.6130  -31.9050   23.2400 C   0  0  0  0  0  0  0  0  0  0  0  0
  -27.1470  -27.2460   20.1730 C   0  0  0  0  0  0  0  0  0  0  0  0
  -23.3970  -30.5180   21.6100 C   0  0  0  0  0  3  0  0  0  0  0  0
  -24.8280  -28.9610   20.1740 C   0  0  0  0  0  0  0  0  0  0  0  0
  -25.9500  -30.7830   21.4370 C   0  0  0  0  0  2  0  0  0  0  0  0
  -26.0120  -29.4040   20.7790 C   0  0  0  0  0  0  0  0  0  0  0  0
  -27.1740  -28.5560   20.7730 C   0  0  0  0  0  3  0  0  0  0  0  0
  -25.9370  -26.9060   19.5180 C   0  0  0  0  0  3  0  0  0  0  0  0
  -24.7990  -27.7220   19.5320 C   0  0  0  0  0  3  0  0  0  0  0  0
  -23.6000  -29.8480   20.2310 C   0  0  0  0  0  2  0  0  0  0  0  0
  -24.6710  -31.0890   22.1480 N   0  0  0  0  0  0  0  0  0  0  0  0
  -23.5340  -32.1900   23.7750 O   0  0  0  0  0  0  0  0  0  0  0  0
  -22.7260  -29.5020   22.5700 C   0  0  0  0  0  0  0  0  0  0  0  0
  -21.3990  -29.3340   22.4440 N   0  0  0  0  0  0  0  0  0  0  0  0
  -23.4020  -28.8680   23.3840 O   0  0  0  0  0  0  0  0  0  0  0  0
  -20.9090  -29.8900   21.7580 H   0  0  0  0  0  0  0  0  0  0  0  0
  -18.0170  -28.1560   22.9700 C   0  0  0  0  0  0  0  0  0  0  0  0
  -20.5800  -28.3970   23.2210 C   0  0  0  0  0  3  0  0  0  0  0  0
  -20.6710  -26.9660   22.6360 C   0  0  0  0  0  2  0  0  0  0  0  0
  -19.5580  -26.6590   21.6320 C   0  0  0  0  0  2  0  0  0  0  0  0
  -18.1850  -26.8070   22.2950 C   0  0  0  0  0  2  0  0  0  0  0  0
  -19.1450  -28.9090   23.3900 C   0  0  0  0  0  0  0  0  0  0  0  0
  -18.9400  -30.1730   23.9820 C   0  0  0  0  0  3  0  0  0  0  0  0
  -17.6390  -30.6890   24.1480 C   0  0  0  0  0  3  0  0  0  0  0  0
  -16.5260  -29.9310   23.7480 C   0  0  0  0  0  3  0  0  0  0  0  0
  -16.7150  -28.6660   23.1660 C   0  0  0  0  0  3  0  0  0  0  0  0
  -25.8980  -32.5280   23.8580 C   0  0  0  0  0  3  0  0  0  0  0  0
  -26.4070  -31.7530   25.1350 C   0  0  1  0  0  0  0  0  0  0  0  0
  -25.3130  -31.5250   26.2040 C   0  0  0  0  0  1  0  0  0  0  0  0
  -26.9890  -30.3730   24.7490 C   0  0  0  0  0  1  0  0  0  0  0  0
  -27.5640  -32.5430   25.7880 C   0  0  0  0  0  1  0  0  0  0  0  0
  -25.5940  -33.9290   24.1920 N   0  0  0  0  0  0  0  0  0  0  0  0
  -25.9160  -34.9790   23.4240 C   0  0  0  0  0  0  0  0  0  0  0  0
  -26.5660  -34.8690   22.3810 O   0  0  0  0  0  0  0  0  0  0  0  0
  -25.0100  -34.0840   25.0000 H   0  0  0  0  0  0  0  0  0  0  0  0
  -24.1840  -36.7710   23.0920 C   0  0  0  0  0  1  0  0  0  0  0  0
  -25.4390  -36.3680   23.8830 C   0  0  0  0  0  3  0  0  0  0  0  0
  -27.5880  -37.2520   24.6720 C   0  0  0  0  0  1  0  0  0  0  0  0
  -26.4710  -37.4190   23.7460 N   0  0  0  0  0  0  0  0  0  0  0  0
  -26.0720  -38.3410   23.8970 H   0  0  0  0  0  0  0  0  0  0  0  0
  1 49  1  0
  1  5  1  0
  3  2  2  0
  4  2  1  0
  5  3  1  0
  6  4  2  0
  7  5  2  0
  7  6  1  0
  8  7  1  0
  9 17  1  0
 10 15  1  0
 11 12  1  0
 11 10  1  0
 13 12  1  0
 13 22  1  0
 13 14  1  0
 15  9  1  0
 15 14  1  0
 16  9  2  0
 17 18  1  0
 17  6  1  0
 19 20  2  0
 20 39  1  0
 21 20  1  0
 21 24  1  0
 22 19  1  0
 22 23  1  0
 23 21  2  0
 24 25  1  0
 25 26  2  0
 27 30  1  0
 27 26  1  0
 28 27  2  0
 29 28  1  0
 29 24  2  0
 30 31  1  0
 31 32  1  0
 32 33  2  0
 34 33  1  0
 34 38  1  0
 35 34  2  0
 36 31  2  0
 36 35  1  0
 37 36  1  0
 39 40  1  0
 40 43  1  0
 40 42  1  0
 41 39  2  0
 44 45  1  0
 44 19  1  0
 46 44  1  0
 47 50  2  0
 48 49  1  0
 49 47  1  0
 51 47  1  0
 51 52  1  0
 53 64  2  0
 54 52  1  0
 54 59  1  0
 55 63  1  0
 55 65  1  0
 56 62  1  0
 56 58  1  0
 57 63  1  0
 58 57  1  0
 59 58  2  0
 60 61  1  0
 60 54  2  0
 61 56  2  0
 62 55  1  0
 63 53  1  0
 65 67  2  0
 66 65  1  0
 68 66  1  0
 69 78  2  0
 69 74  1  0
 70 66  1  0
 70 74  1  0
 71 70  1  0
 72 73  1  0
 72 71  1  0
 73 69  1  0
 74 75  2  0
 75 76  1  0
 77 76  2  0
 78 77  1  0
 79 53  1  0
 79 84  1  0
 79 80  1  0
 80 83  1  1
 80 81  1  0
 82 80  1  0
 84 87  1  0
 85 89  1  0
 85 84  1  0
 86 85  2  0
 89 88  1  0
 91 89  1  0
 91 92  1  0
 91 90  1  0
M  ISO  4   9 100  17 100  51 101  52 101
M  END
>  <TORSDO>  (14) 
F 19

>  <SCORE>  (14) 
-14.698

>  <name>  (14) 
13

>  <ligand_id>  (14) 
13

>  <original_smiles>  (14) 
[H]c1c([H])c(N([H])C(=O)N2C([H])([H])C([H])([H])C([H])([H])C([H])(n3nc(-c4c([H])c([H])c(Oc5c([H])c([H])c(F)c([H])c5F)c([H])c4[H])c(C(=O)N([H])[H])c3N([H])[H])C2([H])[H])c(F)c(C([H])([H])N(C(=O)C([H])([H])Oc2c([H])c([H])c3c(c2[H])C([H])([H])N(C(=O)C([H])(N([H])C(=O)C([H])(N([H])C([H])([H])[H])C([H])([H])[H])C(C([H])([H])[H])(C([H])([H])[H])C([H])([H])[H])C([H])(C(=O)N([H])C2([H])c4c([H])c([H])c([H])c([H])c4C([H])([H])C([H])([H])C2([H])[H])C3([H])[H])C([H])([H])[H])c1[H]

>  <smiles>  (14) 
[H]c1c([H])c(N([H])C(=O)N2C([H])([H])C([H])([H])C([H])([H])C([H])(n3nc(-c4c([H])c([H])c(Oc5c([H])c([H])c(F)c([H])c5F)c([H])c4[H])c(C(=O)N([H])[H])c3N([H])[H])C2([H])[H])c(F)c(C([H])([H])N(C(=O)C([H])([H])Oc2c([H])c([H])c3c(c2[H])C([H])([H])N(C(=O)C([H])(N([H])C(=O)C([H])(N([H])C([H])([H])[H])C([H])([H])[H])C(C([H])([H])[H])(C([H])([H])[H])C([H])([H])[H])C([H])(C(=O)N([H])C2([H])c4c([H])c([H])c([H])c([H])c4C([H])([H])C([H])([H])C2([H])[H])C3([H])[H])C([H])([H])[H])c1[H]

$$$$
14:0:0
     RDKit          3D

 95103  0  0  1  0  0  0  0  0999 V2000
  -29.3760  -21.7650   20.1130 C   0  0  0  0  0  0  0  0  0  0  0  0
  -29.6310  -23.0770   19.8770 N   0  0  0  0  0  0  0  0  0  0  0  0
  -28.2410  -21.3310   20.3210 O   0  0  0  0  0  0  0  0  0  0  0  0
  -30.6200  -23.2840   19.8370 H   0  0  0  0  0  0  0  0  0  0  0  0
  -29.7370  -25.0110   18.4670 C   0  0  0  0  0  1  0  0  0  0  0  0
  -27.6030  -23.7260   18.5460 C   0  0  0  0  0  1  0  0  0  0  0  0
  -28.7930  -24.2190   19.3950 C   0  0  1  0  0  0  0  0  0  0  0  0
  -28.2750  -25.1790   20.5320 C   0  0  0  0  0  2  0  0  0  0  0  0
  -28.3350  -26.5990   20.2010 O   0  0  0  0  0  0  0  0  0  0  0  0
  -24.5680  -31.8820   23.2250 C   0  0  0  0  0  0  0  0  0  0  0  0
  -27.1670  -27.3490   20.2010 C   0  0  0  0  0  0  0  0  0  0  0  0
  -23.3490  -30.4750   21.5960 C   0  0  0  0  0  3  0  0  0  0  0  0
  -24.7870  -28.9030   20.1870 C   0  0  0  0  0  0  0  0  0  0  0  0
  -25.8800  -30.8000   21.3950 C   0  0  0  0  0  2  0  0  0  0  0  0
  -25.9540  -29.4190   20.7650 C   0  0  0  0  0  0  0  0  0  0  0  0
  -27.1480  -28.6550   20.7560 C   0  0  0  0  0  3  0  0  0  0  0  0
  -25.9820  -26.8560   19.6140 C   0  0  0  0  0  3  0  0  0  0  0  0
  -24.8000  -27.6230   19.6040 C   0  0  0  0  0  3  0  0  0  0  0  0
  -23.5510  -29.7770   20.2260 C   0  0  0  0  0  2  0  0  0  0  0  0
  -24.6180  -31.0690   22.1290 N   0  0  0  0  0  0  0  0  0  0  0  0
  -23.4900  -32.1720   23.7600 O   0  0  0  0  0  0  0  0  0  0  0  0
  -22.6870  -29.4730   22.5700 C   0  0  0  0  0  0  0  0  0  0  0  0
  -21.3650  -29.2800   22.4240 N   0  0  0  0  0  0  0  0  0  0  0  0
  -23.3600  -28.8690   23.4100 O   0  0  0  0  0  0  0  0  0  0  0  0
  -20.8850  -29.8180   21.7180 H   0  0  0  0  0  0  0  0  0  0  0  0
  -18.0020  -28.0290   22.8550 C   0  0  0  0  0  0  0  0  0  0  0  0
  -20.5430  -28.3520   23.2000 C   0  0  0  0  0  3  0  0  0  0  0  0
  -20.6950  -26.9050   22.6780 C   0  0  0  0  0  2  0  0  0  0  0  0
  -19.6340  -26.5240   21.6400 C   0  0  0  0  0  2  0  0  0  0  0  0
  -18.2280  -26.6620   22.2340 C   0  0  0  0  0  2  0  0  0  0  0  0
  -19.0900  -28.8290   23.2950 C   0  0  0  0  0  0  0  0  0  0  0  0
  -18.8270  -30.1080   23.8330 C   0  0  0  0  0  3  0  0  0  0  0  0
  -17.5080  -30.5870   23.9390 C   0  0  0  0  0  3  0  0  0  0  0  0
  -16.4340  -29.7850   23.5160 C   0  0  0  0  0  3  0  0  0  0  0  0
  -16.6810  -28.5090   22.9800 C   0  0  0  0  0  3  0  0  0  0  0  0
  -25.8590  -32.5070   23.8380 C   0  0  0  0  0  3  0  0  0  0  0  0
  -26.3800  -31.7340   25.1120 C   0  0  1  0  0  0  0  0  0  0  0  0
  -25.2920  -31.5000   26.1860 C   0  0  0  0  0  1  0  0  0  0  0  0
  -26.9550  -30.3540   24.7160 C   0  0  0  0  0  1  0  0  0  0  0  0
  -27.5360  -32.5250   25.7690 C   0  0  0  0  0  1  0  0  0  0  0  0
  -25.5600  -33.9080   24.1670 N   0  0  0  0  0  0  0  0  0  0  0  0
  -25.8990  -34.9570   23.4050 C   0  0  0  0  0  0  0  0  0  0  0  0
  -26.5690  -34.8480   22.3740 O   0  0  0  0  0  0  0  0  0  0  0  0
  -24.9630  -34.0700   24.9640 H   0  0  0  0  0  0  0  0  0  0  0  0
  -24.1810  -36.7600   23.0490 C   0  0  0  0  0  1  0  0  0  0  0  0
  -25.4200  -36.3490   23.8610 C   0  0  0  0  0  3  0  0  0  0  0  0
  -27.5600  -37.2210   24.6870 C   0  0  0  0  0  1  0  0  0  0  0  0
  -26.4590  -37.3950   23.7450 N   0  0  0  0  0  0  0  0  0  0  0  0
  -26.0580  -38.3180   23.8920 H   0  0  0  0  0  0  0  0  0  0  0  0
  -30.5960  -20.7890   20.0100 C   0  0  0  0  0  2  0  0  0  0  0  0
  -30.9330  -18.2990   22.9770 C   0  0  0  0  0  3  0  0  0  0  0  0
  -30.9000  -17.0560   22.3230 C   0  0  0  0  0  3  0  0  0  0  0  0
  -30.5910  -18.2010   20.1980 C   0  0  0  0  0  3  0  0  0  0  0  0
  -30.8010  -19.5070   22.2560 C   0  0  0  0  0  0  0  0  0  0  0  0
  -30.6200  -19.4780   20.8470 C   0  0  0  0  0  0  0  0  0  0  0  0
  -30.7410  -16.9850   20.9270 C   0  0  0  0  0  0  0  0  0  0  0  0
  -30.8710  -20.8120   23.0340 C   0  0  0  0  0  1  0  0  0  0  0  0
  -31.3380  -14.6530   20.0800 C   0  0  0  0  0  0  0  0  0  0  0  0
  -31.0160  -12.4560   18.9710 C   0  0  0  0  0  2  0  0  0  0  0  0
  -30.0470  -12.6450   17.7820 C   0  0  0  0  0  2  0  0  0  0  0  0
  -28.5750  -12.5690   18.2430 C   0  0  0  0  0  2  0  0  0  0  0  0
  -28.2910  -13.4550   19.4830 C   0  0  0  0  0  3  0  0  0  0  0  0
  -29.3510  -13.2000   20.5780 C   0  0  0  0  0  2  0  0  0  0  0  0
  -30.6720  -13.4670   19.9830 N   0  0  0  0  0  0  0  0  0  0  0  0
  -32.5010  -14.8060   19.6920 O   0  0  0  0  0  0  0  0  0  0  0  0
  -30.5090  -15.6880   20.3650 N   0  0  0  0  0  0  0  0  0  0  0  0
  -29.5700  -15.3500   20.5120 H   0  0  0  0  0  0  0  0  0  0  0  0
  -25.9560  -14.2180   20.2500 C   0  0  0  0  0  0  0  0  0  0  0  0
  -24.8470  -13.5130   20.6340 C   0  0  0  0  0  0  0  0  0  0  0  0
  -25.2180  -12.1350   20.5810 C   0  0  0  0  0  0  0  0  0  0  0  0
  -26.9350  -13.2700   19.9890 N   0  0  0  0  0  0  0  0  0  0  0  0
  -26.4960  -12.0130   20.2450 N   0  0  0  0  0  0  0  0  0  0  0  0
  -24.4160  -10.9210   20.7730 C   0  0  0  0  0  0  0  0  0  0  0  0
  -24.7840   -9.9330   21.7120 C   0  0  0  0  0  3  0  0  0  0  0  0
  -23.9880   -8.7810   21.8860 C   0  0  0  0  0  3  0  0  0  0  0  0
  -22.8080   -8.6120   21.1250 C   0  0  0  0  0  0  0  0  0  0  0  0
  -22.4590   -9.5890   20.1750 C   0  0  0  0  0  3  0  0  0  0  0  0
  -23.2560  -10.7310   19.9980 C   0  0  0  0  0  3  0  0  0  0  0  0
  -21.9840   -7.5150   21.2110 O   0  0  0  0  0  0  0  0  0  0  0  0
  -21.8460   -6.8100   22.3790 C   0  0  0  0  0  0  0  0  0  0  0  0
  -21.4200   -7.4250   23.5760 C   0  0  0  0  0  3  0  0  0  0  0  0
  -21.2230   -6.6490   24.7360 C   0  0  0  0  0  3  0  0  0  0  0  0
  -21.4450   -5.2590   24.7000 C   0  0  0  0  0  0  0  0  0  0  0  0
  -21.8640   -4.6430   23.5080 C   0  0  0  0  0  3  0  0  0  0  0  0
  -22.0620   -5.4160   22.3510 C   0  0  0  0  0  0  0  0  0  0  0  0
  -22.4450   -4.8150   21.1990 F   0  0  0  0  0  0  0  0  0  0  0  0
  -21.2500   -4.5120   25.8120 F   0  0  0  0  0  0  0  0  0  0  0  0
  -23.4890  -14.0770   20.9410 C   0  0  0  0  0  0  0  0  0  0  0  0
  -22.7390  -13.4280   21.8240 N   0  0  0  0  0  0  0  0  0  0  0  0
  -23.1060  -15.1300   20.4330 O   0  0  0  0  0  0  0  0  0  0  0  0
  -23.0620  -12.5740   22.2540 H   0  0  0  0  0  0  0  0  0  0  0  0
  -21.8290  -13.7900   22.0730 H   0  0  0  0  0  0  0  0  0  0  0  0
  -26.2080  -15.5770   20.0780 N   0  0  0  0  0  0  0  0  0  0  0  0
  -25.4830  -16.2750   20.1990 H   0  0  0  0  0  0  0  0  0  0  0  0
  -27.0690  -15.9620   19.7130 H   0  0  0  0  0  0  0  0  0  0  0  0
  1  3  2  0
  2  1  1  0
  4  2  1  0
  7  5  1  6
  6  7  1  0
  7  2  1  0
  7  8  1  0
  9  8  1  0
 10 21  2  0
 11  9  1  0
 11 16  1  0
 12 20  1  0
 12 22  1  0
 13 19  1  0
 13 15  1  0
 14 20  1  0
 15 14  1  0
 16 15  2  0
 17 11  2  0
 18 17  1  0
 18 13  2  0
 19 12  1  0
 20 10  1  0
 22 24  2  0
 23 22  1  0
 25 23  1  0
 26 35  2  0
 26 31  1  0
 27 23  1  0
 27 31  1  0
 28 27  1  0
 29 30  1  0
 29 28  1  0
 30 26  1  0
 31 32  2  0
 32 33  1  0
 34 33  2  0
 35 34  1  0
 36 10  1  0
 36 41  1  0
 36 37  1  0
 37 40  1  1
 37 38  1  0
 39 37  1  0
 41 44  1  0
 42 46  1  0
 42 41  1  0
 43 42  2  0
 46 45  1  0
 48 46  1  0
 48 49  1  0
 48 47  1  0
 50  1  1  0
 50 55  1  0
 52 51  1  0
 53 55  2  0
 53 56  1  0
 54 51  2  0
 54 57  1  0
 55 54  1  0
 56 52  2  0
 58 66  1  0
 59 64  1  0
 60 61  1  0
 60 59  1  0
 62 61  1  0
 62 71  1  0
 62 63  1  0
 64 58  1  0
 64 63  1  0
 65 58  2  0
 66 67  1  0
 66 56  1  0
 68 69  2  0
 69 88  1  0
 70 69  1  0
 70 73  1  0
 71 72  1  0
 71 68  1  0
 72 70  2  0
 73 74  1  0
 74 75  2  0
 76 79  1  0
 76 75  1  0
 77 76  2  0
 78 77  1  0
 78 73  2  0
 79 80  1  0
 80 81  1  0
 81 82  2  0
 83 82  1  0
 83 87  1  0
 84 83  2  0
 85 80  2  0
 85 84  1  0
 86 85  1  0
 88 89  1  0
 89 92  1  0
 89 91  1  0
 90 88  2  0
 93 94  1  0
 93 68  1  0
 95 93  1  0
M  ISO  4   8 101   9 101  58 100  66 100
M  END
>  <TORSDO>  (15) 
F 20

>  <SCORE>  (15) 
-13.137

>  <name>  (15) 
14

>  <ligand_id>  (15) 
14

>  <original_smiles>  (15) 
[H]c1c([H])c([H])c2c(c1[H])C([H])([H])C([H])([H])C([H])([H])C2([H])N([H])C(=O)C1([H])N(C(=O)C([H])(N([H])C(=O)C([H])(N([H])C([H])([H])[H])C([H])([H])[H])C(C([H])([H])[H])(C([H])([H])[H])C([H])([H])[H])C([H])([H])c2c([H])c(OC([H])([H])C(N([H])C(=O)C([H])([H])c3c([H])c(N([H])C(=O)N4C([H])([H])C([H])([H])C([H])([H])C([H])(n5nc(-c6c([H])c([H])c(Oc7c([H])c([H])c(F)c([H])c7F)c([H])c6[H])c(C(=O)N([H])[H])c5N([H])[H])C4([H])[H])c([H])c([H])c3C([H])([H])[H])(C([H])([H])[H])C([H])([H])[H])c([H])c([H])c2C1([H])[H]

>  <smiles>  (15) 
[H]c1c([H])c([H])c2c(c1[H])C([H])([H])C([H])([H])C([H])([H])C2([H])N([H])C(=O)C1([H])N(C(=O)C([H])(N([H])C(=O)C([H])(N([H])C([H])([H])[H])C([H])([H])[H])C(C([H])([H])[H])(C([H])([H])[H])C([H])([H])[H])C([H])([H])c2c([H])c(OC([H])([H])C(N([H])C(=O)C([H])([H])c3c([H])c(N([H])C(=O)N4C([H])([H])C([H])([H])C([H])([H])C([H])(n5nc(-c6c([H])c([H])c(Oc7c([H])c([H])c(F)c([H])c7F)c([H])c6[H])c(C(=O)N([H])[H])c5N([H])[H])C4([H])[H])c([H])c([H])c3C([H])([H])[H])(C([H])([H])[H])C([H])([H])[H])c([H])c([H])c2C1([H])[H]

$$$$
15:0:0
     RDKit          3D

 92100  0  0  1  0  0  0  0  0999 V2000
  -28.7230  -21.1390   19.8560 C   0  0  0  0  0  2  0  0  0  0  0  0
  -30.5490  -20.0650   21.3540 C   0  0  0  0  0  3  0  0  0  0  0  0
  -31.2760  -18.9710   21.8730 C   0  0  0  0  0  3  0  0  0  0  0  0
  -29.1890  -18.4770   20.1110 C   0  0  0  0  0  3  0  0  0  0  0  0
  -29.4760  -19.8660   20.4620 C   0  0  0  0  0  0  0  0  0  0  0  0
  -29.9370  -17.3290   20.6160 C   0  0  0  0  0  0  0  0  0  0  0  0
  -30.9790  -17.6350   21.5250 C   0  0  0  0  0  0  0  0  0  0  0  0
  -31.6820  -16.6430   22.1230 F   0  0  0  0  0  0  0  0  0  0  0  0
  -30.4140  -14.7970   20.0800 C   0  0  0  0  0  0  0  0  0  0  0  0
  -30.1720  -12.5730   18.9520 C   0  0  0  0  0  2  0  0  0  0  0  0
  -29.1470  -12.6860   17.8020 C   0  0  0  0  0  2  0  0  0  0  0  0
  -27.7130  -12.4730   18.3250 C   0  0  0  0  0  2  0  0  0  0  0  0
  -27.4160  -13.2990   19.6030 C   0  0  0  0  0  3  0  0  0  0  0  0
  -28.5490  -13.1680   20.6440 C   0  0  0  0  0  2  0  0  0  0  0  0
  -29.7940  -13.5710   19.9780 N   0  0  0  0  0  0  0  0  0  0  0  0
  -31.5820  -14.9200   19.6980 O   0  0  0  0  0  0  0  0  0  0  0  0
  -29.6100  -15.9050   20.3270 N   0  0  0  0  0  0  0  0  0  0  0  0
  -28.6280  -15.6880   20.3530 H   0  0  0  0  0  0  0  0  0  0  0  0
  -25.0690  -13.8310   20.4930 C   0  0  0  0  0  0  0  0  0  0  0  0
  -24.0410  -13.0300   20.9080 C   0  0  0  0  0  0  0  0  0  0  0  0
  -24.5240  -11.6880   20.8140 C   0  0  0  0  0  0  0  0  0  0  0  0
  -26.1100  -12.9760   20.1700 N   0  0  0  0  0  0  0  0  0  0  0  0
  -25.7930  -11.6810   20.4260 N   0  0  0  0  0  0  0  0  0  0  0  0
  -23.8310  -10.4080   21.0120 C   0  0  0  0  0  0  0  0  0  0  0  0
  -24.3120   -9.4420   21.9230 C   0  0  0  0  0  3  0  0  0  0  0  0
  -23.6170   -8.2270   22.1090 C   0  0  0  0  0  3  0  0  0  0  0  0
  -22.4280   -7.9710   21.3870 C   0  0  0  0  0  0  0  0  0  0  0  0
  -21.9660   -8.9260   20.4640 C   0  0  0  0  0  3  0  0  0  0  0  0
  -22.6620  -10.1320   20.2760 C   0  0  0  0  0  3  0  0  0  0  0  0
  -21.7010   -6.8090   21.4860 O   0  0  0  0  0  0  0  0  0  0  0  0
  -21.6890   -6.0620   22.6370 C   0  0  0  0  0  0  0  0  0  0  0  0
  -21.2470   -6.5970   23.8660 C   0  0  0  0  0  3  0  0  0  0  0  0
  -21.1860   -5.7750   25.0100 C   0  0  0  0  0  3  0  0  0  0  0  0
  -21.5560   -4.4200   24.9250 C   0  0  0  0  0  0  0  0  0  0  0  0
  -21.9900   -3.8850   23.6990 C   0  0  0  0  0  3  0  0  0  0  0  0
  -22.0540   -4.7030   22.5580 C   0  0  0  0  0  0  0  0  0  0  0  0
  -22.4530   -4.1780   21.3750 F   0  0  0  0  0  0  0  0  0  0  0  0
  -21.4890   -3.6280   26.0200 F   0  0  0  0  0  0  0  0  0  0  0  0
  -22.6550  -13.4740   21.2760 C   0  0  0  0  0  0  0  0  0  0  0  0
  -21.9890  -12.7380   22.1590 N   0  0  0  0  0  0  0  0  0  0  0  0
  -22.1730  -14.5080   20.8150 O   0  0  0  0  0  0  0  0  0  0  0  0
  -22.3940  -11.9010   22.5520 H   0  0  0  0  0  0  0  0  0  0  0  0
  -21.0610  -13.0160   22.4470 H   0  0  0  0  0  0  0  0  0  0  0  0
  -25.1950  -15.2090   20.3400 N   0  0  0  0  0  0  0  0  0  0  0  0
  -24.4190  -15.8390   20.5110 H   0  0  0  0  0  0  0  0  0  0  0  0
  -25.9940  -15.6740   19.9290 H   0  0  0  0  0  0  0  0  0  0  0  0
  -28.5050  -23.7730   19.9560 C   0  0  0  0  0  0  0  0  0  0  0  0
  -28.7300  -22.5220   20.5230 N   0  0  0  0  0  0  0  0  0  0  0  0
  -28.4830  -23.8930   18.7290 O   0  0  0  0  0  0  0  0  0  0  0  0
  -28.7590  -22.5080   21.5340 H   0  0  0  0  0  0  0  0  0  0  0  0
  -28.1970  -25.0750   20.8460 C   0  0  0  0  0  2  0  0  0  0  0  0
  -28.3500  -26.4470   20.2420 O   0  0  0  0  0  0  0  0  0  0  0  0
  -24.6080  -31.9160   23.2570 C   0  0  0  0  0  0  0  0  0  0  0  0
  -27.2430  -27.3210   20.2390 C   0  0  0  0  0  0  0  0  0  0  0  0
  -23.4180  -30.5110   21.6110 C   0  0  0  0  0  3  0  0  0  0  0  0
  -24.8810  -28.9510   20.2000 C   0  0  0  0  0  0  0  0  0  0  0  0
  -25.9600  -30.8260   21.4440 C   0  0  0  0  0  2  0  0  0  0  0  0
  -26.0490  -29.4410   20.8020 C   0  0  0  0  0  0  0  0  0  0  0  0
  -27.2350  -28.6410   20.8040 C   0  0  0  0  0  3  0  0  0  0  0  0
  -26.0540  -26.8900   19.6170 C   0  0  0  0  0  3  0  0  0  0  0  0
  -24.8890  -27.6820   19.5970 C   0  0  0  0  0  3  0  0  0  0  0  0
  -23.6450  -29.8280   20.2350 C   0  0  0  0  0  2  0  0  0  0  0  0
  -24.6820  -31.1030   22.1610 N   0  0  0  0  0  0  0  0  0  0  0  0
  -23.5200  -32.1930   23.7830 O   0  0  0  0  0  0  0  0  0  0  0  0
  -22.7490  -29.4980   22.5710 C   0  0  0  0  0  0  0  0  0  0  0  0
  -21.4230  -29.3200   22.4380 N   0  0  0  0  0  0  0  0  0  0  0  0
  -23.4220  -28.8740   23.3950 O   0  0  0  0  0  0  0  0  0  0  0  0
  -20.9380  -29.8760   21.7470 H   0  0  0  0  0  0  0  0  0  0  0  0
  -18.0420  -28.1260   22.9280 C   0  0  0  0  0  0  0  0  0  0  0  0
  -20.6010  -28.3820   23.2040 C   0  0  0  0  0  3  0  0  0  0  0  0
  -20.7010  -26.9510   22.6260 C   0  0  0  0  0  2  0  0  0  0  0  0
  -19.6010  -26.6320   21.6090 C   0  0  0  0  0  2  0  0  0  0  0  0
  -18.2190  -26.7780   22.2500 C   0  0  0  0  0  2  0  0  0  0  0  0
  -19.1620  -28.8860   23.3620 C   0  0  0  0  0  0  0  0  0  0  0  0
  -18.9430  -30.1480   23.9570 C   0  0  0  0  0  3  0  0  0  0  0  0
  -17.6390  -30.6510   24.1230 C   0  0  0  0  0  3  0  0  0  0  0  0
  -16.5340  -29.8880   23.7050 C   0  0  0  0  0  3  0  0  0  0  0  0
  -16.7370  -28.6270   23.1130 C   0  0  0  0  0  3  0  0  0  0  0  0
  -25.8840  -32.5540   23.8870 C   0  0  0  0  0  3  0  0  0  0  0  0
  -26.3870  -31.7930   25.1750 C   0  0  1  0  0  0  0  0  0  0  0  0
  -25.2810  -31.5620   26.2310 C   0  0  0  0  0  1  0  0  0  0  0  0
  -26.9770  -30.4130   24.8010 C   0  0  0  0  0  1  0  0  0  0  0  0
  -27.5280  -32.5950   25.8440 C   0  0  0  0  0  1  0  0  0  0  0  0
  -25.5720  -33.9540   24.2040 N   0  0  0  0  0  0  0  0  0  0  0  0
  -25.9040  -35.0020   23.4390 C   0  0  0  0  0  0  0  0  0  0  0  0
  -26.5750  -34.8910   22.4090 O   0  0  0  0  0  0  0  0  0  0  0  0
  -24.9770  -34.1140   25.0040 H   0  0  0  0  0  0  0  0  0  0  0  0
  -24.1860  -36.8010   23.0610 C   0  0  0  0  0  1  0  0  0  0  0  0
  -25.4180  -36.3940   23.8870 C   0  0  0  0  0  3  0  0  0  0  0  0
  -27.5430  -37.2800   24.7410 C   0  0  0  0  0  1  0  0  0  0  0  0
  -26.4540  -37.4440   23.7800 N   0  0  0  0  0  0  0  0  0  0  0  0
  -26.0480  -38.3660   23.9160 H   0  0  0  0  0  0  0  0  0  0  0  0
  1  5  1  0
  1 48  1  0
  2  3  1  0
  4  5  1  0
  4  6  2  0
  5  2  2  0
  6  7  1  0
  7  3  2  0
  7  8  1  0
  9 17  1  0
 10 15  1  0
 11 12  1  0
 11 10  1  0
 13 12  1  0
 13 22  1  0
 13 14  1  0
 15  9  1  0
 15 14  1  0
 16  9  2  0
 17 18  1  0
 17  6  1  0
 19 20  2  0
 20 39  1  0
 21 20  1  0
 21 24  1  0
 22 23  1  0
 22 19  1  0
 23 21  2  0
 24 25  1  0
 25 26  2  0
 27 30  1  0
 27 26  1  0
 28 27  2  0
 29 28  1  0
 29 24  2  0
 30 31  1  0
 31 32  1  0
 32 33  2  0
 34 33  1  0
 34 38  1  0
 35 34  2  0
 36 31  2  0
 36 35  1  0
 37 36  1  0
 39 40  1  0
 40 43  1  0
 40 42  1  0
 41 39  2  0
 44 19  1  0
 44 45  1  0
 46 44  1  0
 47 48  1  0
 47 51  1  0
 48 50  1  0
 49 47  2  0
 52 51  1  0
 53 64  2  0
 54 52  1  0
 54 59  1  0
 55 63  1  0
 55 65  1  0
 56 62  1  0
 56 58  1  0
 57 63  1  0
 58 59  2  0
 58 57  1  0
 60 54  2  0
 61 60  1  0
 61 56  2  0
 62 55  1  0
 63 53  1  0
 65 67  2  0
 66 65  1  0
 68 66  1  0
 69 78  2  0
 69 74  1  0
 70 66  1  0
 70 74  1  0
 71 70  1  0
 72 73  1  0
 72 71  1  0
 73 69  1  0
 74 75  2  0
 75 76  1  0
 77 76  2  0
 78 77  1  0
 79 53  1  0
 79 84  1  0
 79 80  1  0
 80 83  1  1
 80 81  1  0
 82 80  1  0
 84 87  1  0
 85 89  1  0
 85 84  1  0
 86 85  2  0
 89 88  1  0
 91 89  1  0
 91 92  1  0
 91 90  1  0
M  ISO  4   9 100  17 100  51 101  52 101
M  END
>  <TORSDO>  (16) 
F 19

>  <SCORE>  (16) 
-14.222

>  <name>  (16) 
15

>  <ligand_id>  (16) 
15

>  <original_smiles>  (16) 
[H]c1c([H])c([H])c2c(c1[H])C([H])([H])C([H])([H])C([H])([H])C2([H])N([H])C(=O)C1([H])N(C(=O)C([H])(N([H])C(=O)C([H])(N([H])C([H])([H])[H])C([H])([H])[H])C(C([H])([H])[H])(C([H])([H])[H])C([H])([H])[H])C([H])([H])c2c([H])c(OC([H])([H])C(=O)N([H])C([H])([H])c3c([H])c([H])c(F)c(N([H])C(=O)N4C([H])([H])C([H])([H])C([H])([H])C([H])(n5nc(-c6c([H])c([H])c(Oc7c([H])c([H])c(F)c([H])c7F)c([H])c6[H])c(C(=O)N([H])[H])c5N([H])[H])C4([H])[H])c3[H])c([H])c([H])c2C1([H])[H]

>  <smiles>  (16) 
[H]c1c([H])c([H])c2c(c1[H])C([H])([H])C([H])([H])C([H])([H])C2([H])N([H])C(=O)C1([H])N(C(=O)C([H])(N([H])C(=O)C([H])(N([H])C([H])([H])[H])C([H])([H])[H])C(C([H])([H])[H])(C([H])([H])[H])C([H])([H])[H])C([H])([H])c2c([H])c(OC([H])([H])C(=O)N([H])C([H])([H])c3c([H])c([H])c(F)c(N([H])C(=O)N4C([H])([H])C([H])([H])C([H])([H])C([H])(n5nc(-c6c([H])c([H])c(Oc7c([H])c([H])c(F)c([H])c7F)c([H])c6[H])c(C(=O)N([H])[H])c5N([H])[H])C4([H])[H])c3[H])c([H])c([H])c2C1([H])[H]

$$$$
16:0:0
     RDKit          3D

 91 99  0  0  1  0  0  0  0  0999 V2000
  -29.2610  -24.0590   20.3970 C   0  0  0  0  0  0  0  0  0  0  0  0
  -29.0930  -22.7010   20.5350 N   0  0  0  0  0  0  0  0  0  0  0  0
  -30.3830  -24.5330   20.1950 O   0  0  0  0  0  0  0  0  0  0  0  0
  -28.1590  -22.3530   20.7130 H   0  0  0  0  0  0  0  0  0  0  0  0
  -30.2090  -21.6960   20.5130 C   0  0  0  0  0  2  0  0  0  0  0  0
  -28.7970  -19.4360   20.7510 C   0  0  0  0  0  3  0  0  0  0  0  0
  -31.1520  -19.3080   20.3020 C   0  0  0  0  0  3  0  0  0  0  0  0
  -28.7470  -18.0040   20.7720 C   0  0  0  0  0  3  0  0  0  0  0  0
  -31.1030  -17.8840   20.3160 C   0  0  0  0  0  3  0  0  0  0  0  0
  -30.0100  -20.1310   20.5140 C   0  0  0  0  0  0  0  0  0  0  0  0
  -29.8960  -17.1830   20.5540 C   0  0  0  0  0  0  0  0  0  0  0  0
  -30.5790  -14.6800   20.2110 C   0  0  0  0  0  0  0  0  0  0  0  0
  -30.3560  -12.4550   19.1140 C   0  0  0  0  0  2  0  0  0  0  0  0
  -29.3830  -12.6090   17.9230 C   0  0  0  0  0  2  0  0  0  0  0  0
  -27.9210  -12.4310   18.3850 C   0  0  0  0  0  2  0  0  0  0  0  0
  -27.5940  -13.2660   19.6500 C   0  0  0  0  0  3  0  0  0  0  0  0
  -28.6790  -13.0920   20.7370 C   0  0  0  0  0  2  0  0  0  0  0  0
  -29.9710  -13.4530   20.1330 N   0  0  0  0  0  0  0  0  0  0  0  0
  -31.7290  -14.8450   19.7930 O   0  0  0  0  0  0  0  0  0  0  0  0
  -29.7690  -15.7200   20.6020 N   0  0  0  0  0  0  0  0  0  0  0  0
  -28.8570  -15.3950   20.8880 H   0  0  0  0  0  0  0  0  0  0  0  0
  -25.2220  -13.8580   20.4370 C   0  0  0  0  0  0  0  0  0  0  0  0
  -24.1650  -13.0810   20.8280 C   0  0  0  0  0  0  0  0  0  0  0  0
  -24.6250  -11.7290   20.7680 C   0  0  0  0  0  0  0  0  0  0  0  0
  -26.2580  -12.9790   20.1640 N   0  0  0  0  0  0  0  0  0  0  0  0
  -25.9060  -11.6930   20.4210 N   0  0  0  0  0  0  0  0  0  0  0  0
  -23.9040  -10.4650   20.9640 C   0  0  0  0  0  0  0  0  0  0  0  0
  -24.3390   -9.5040   21.9020 C   0  0  0  0  0  3  0  0  0  0  0  0
  -23.6190   -8.3050   22.0860 C   0  0  0  0  0  3  0  0  0  0  0  0
  -22.4490   -8.0580   21.3290 C   0  0  0  0  0  0  0  0  0  0  0  0
  -22.0310   -9.0090   20.3800 C   0  0  0  0  0  3  0  0  0  0  0  0
  -22.7530  -10.1990   20.1940 C   0  0  0  0  0  3  0  0  0  0  0  0
  -21.7000   -6.9100   21.4220 O   0  0  0  0  0  0  0  0  0  0  0  0
  -21.6190   -6.1940   22.5890 C   0  0  0  0  0  0  0  0  0  0  0  0
  -21.1600   -6.7760   23.7920 C   0  0  0  0  0  3  0  0  0  0  0  0
  -21.0280   -5.9840   24.9500 C   0  0  0  0  0  3  0  0  0  0  0  0
  -21.3450   -4.6140   24.9080 C   0  0  0  0  0  0  0  0  0  0  0  0
  -21.7990   -4.0320   23.7110 C   0  0  0  0  0  3  0  0  0  0  0  0
  -21.9320   -4.8190   22.5530 C   0  0  0  0  0  0  0  0  0  0  0  0
  -22.3470   -4.2480   21.3980 F   0  0  0  0  0  0  0  0  0  0  0  0
  -21.2110   -3.8530   26.0200 F   0  0  0  0  0  0  0  0  0  0  0  0
  -22.7750  -13.5560   21.1420 C   0  0  0  0  0  0  0  0  0  0  0  0
  -22.0720  -12.8500   22.0200 N   0  0  0  0  0  0  0  0  0  0  0  0
  -22.3200  -14.5860   20.6410 O   0  0  0  0  0  0  0  0  0  0  0  0
  -22.4520  -12.0190   22.4480 H   0  0  0  0  0  0  0  0  0  0  0  0
  -21.1400  -13.1460   22.2700 H   0  0  0  0  0  0  0  0  0  0  0  0
  -25.3820  -15.2310   20.2700 N   0  0  0  0  0  0  0  0  0  0  0  0
  -24.6130  -15.8810   20.3940 H   0  0  0  0  0  0  0  0  0  0  0  0
  -26.2080  -15.6720   19.8850 H   0  0  0  0  0  0  0  0  0  0  0  0
  -28.0390  -25.0490   20.5000 C   0  0  0  0  0  2  0  0  0  0  0  0
  -28.3210  -26.4850   20.2210 O   0  0  0  0  0  0  0  0  0  0  0  0
  -24.6200  -31.8920   23.2420 C   0  0  0  0  0  0  0  0  0  0  0  0
  -27.2110  -27.3440   20.1720 C   0  0  0  0  0  0  0  0  0  0  0  0
  -23.4070  -30.5010   21.6050 C   0  0  0  0  0  3  0  0  0  0  0  0
  -24.8480  -28.9580   20.1640 C   0  0  0  0  0  0  0  0  0  0  0  0
  -25.9450  -30.8190   21.4100 C   0  0  0  0  0  2  0  0  0  0  0  0
  -26.0190  -29.4420   20.7600 C   0  0  0  0  0  0  0  0  0  0  0  0
  -27.2050  -28.6480   20.7540 C   0  0  0  0  0  3  0  0  0  0  0  0
  -26.0220  -26.9210   19.5370 C   0  0  0  0  0  3  0  0  0  0  0  0
  -24.8520  -27.7020   19.5410 C   0  0  0  0  0  3  0  0  0  0  0  0
  -23.6120  -29.8320   20.2200 C   0  0  0  0  0  2  0  0  0  0  0  0
  -24.6760  -31.0890   22.1410 N   0  0  0  0  0  0  0  0  0  0  0  0
  -23.5410  -32.1680   23.7830 O   0  0  0  0  0  0  0  0  0  0  0  0
  -22.7490  -29.4790   22.5630 C   0  0  0  0  0  0  0  0  0  0  0  0
  -21.4240  -29.3010   22.4390 N   0  0  0  0  0  0  0  0  0  0  0  0
  -23.4310  -28.8530   23.3780 O   0  0  0  0  0  0  0  0  0  0  0  0
  -20.9320  -29.8570   21.7520 H   0  0  0  0  0  0  0  0  0  0  0  0
  -18.0480  -28.1040   22.9470 C   0  0  0  0  0  0  0  0  0  0  0  0
  -20.6070  -28.3630   23.2110 C   0  0  0  0  0  3  0  0  0  0  0  0
  -20.7080  -26.9310   22.6350 C   0  0  0  0  0  2  0  0  0  0  0  0
  -19.6030  -26.6100   21.6230 C   0  0  0  0  0  2  0  0  0  0  0  0
  -18.2230  -26.7550   22.2700 C   0  0  0  0  0  2  0  0  0  0  0  0
  -19.1670  -28.8660   23.3740 C   0  0  0  0  0  0  0  0  0  0  0  0
  -18.9490  -30.1290   23.9660 C   0  0  0  0  0  3  0  0  0  0  0  0
  -17.6450  -30.6300   24.1360 C   0  0  0  0  0  3  0  0  0  0  0  0
  -16.5400  -29.8640   23.7240 C   0  0  0  0  0  3  0  0  0  0  0  0
  -16.7430  -28.6020   23.1360 C   0  0  0  0  0  3  0  0  0  0  0  0
  -25.9070  -32.5210   23.8580 C   0  0  0  0  0  3  0  0  0  0  0  0
  -26.4370  -31.7370   25.1220 C   0  0  1  0  0  0  0  0  0  0  0  0
  -25.3540  -31.4870   26.1970 C   0  0  0  0  0  1  0  0  0  0  0  0
  -27.0170  -30.3630   24.7130 C   0  0  0  0  0  1  0  0  0  0  0  0
  -27.5930  -32.5250   25.7810 C   0  0  0  0  0  1  0  0  0  0  0  0
  -25.5970  -33.9150   24.2060 N   0  0  0  0  0  0  0  0  0  0  0  0
  -25.9010  -34.9750   23.4450 C   0  0  0  0  0  0  0  0  0  0  0  0
  -26.5410  -34.8820   22.3940 O   0  0  0  0  0  0  0  0  0  0  0  0
  -25.0270  -34.0600   25.0250 H   0  0  0  0  0  0  0  0  0  0  0  0
  -24.1400  -36.7500   23.1630 C   0  0  0  0  0  1  0  0  0  0  0  0
  -25.4170  -36.3580   23.9230 C   0  0  0  0  0  3  0  0  0  0  0  0
  -27.5740  -37.2640   24.6700 C   0  0  0  0  0  1  0  0  0  0  0  0
  -26.4330  -37.4220   23.7720 N   0  0  0  0  0  0  0  0  0  0  0  0
  -26.0230  -38.3370   23.9360 H   0  0  0  0  0  0  0  0  0  0  0  0
  1 50  1  0
  1  2  1  0
  2  4  1  0
  3  1  2  0
  5 10  1  0
  5  2  1  0
  6  8  1  0
  7  9  2  0
  7 10  1  0
  9 11  1  0
 10  6  2  0
 11 20  1  0
 11  8  2  0
 12 20  1  0
 13 18  1  0
 14 15  1  0
 14 13  1  0
 16 15  1  0
 16 25  1  0
 16 17  1  0
 18 12  1  0
 18 17  1  0
 19 12  2  0
 20 21  1  0
 22 23  2  0
 23 42  1  0
 24 23  1  0
 24 27  1  0
 25 26  1  0
 25 22  1  0
 26 24  2  0
 27 28  1  0
 28 29  2  0
 30 33  1  0
 30 29  1  0
 31 30  2  0
 32 31  1  0
 32 27  2  0
 33 34  1  0
 34 35  1  0
 35 36  2  0
 37 36  1  0
 37 41  1  0
 38 37  2  0
 39 34  2  0
 39 38  1  0
 40 39  1  0
 42 43  1  0
 43 46  1  0
 43 45  1  0
 44 42  2  0
 47 48  1  0
 47 22  1  0
 49 47  1  0
 51 50  1  0
 52 63  2  0
 53 51  1  0
 53 58  1  0
 54 62  1  0
 54 64  1  0
 55 61  1  0
 55 57  1  0
 56 62  1  0
 57 56  1  0
 58 57  2  0
 59 60  1  0
 59 53  2  0
 60 55  2  0
 61 54  1  0
 62 52  1  0
 64 66  2  0
 65 64  1  0
 67 65  1  0
 68 77  2  0
 68 73  1  0
 69 65  1  0
 69 73  1  0
 70 69  1  0
 71 72  1  0
 71 70  1  0
 72 68  1  0
 73 74  2  0
 74 75  1  0
 76 75  2  0
 77 76  1  0
 78 52  1  0
 78 83  1  0
 78 79  1  0
 79 82  1  1
 79 80  1  0
 81 79  1  0
 83 86  1  0
 84 88  1  0
 84 83  1  0
 85 84  2  0
 88 87  1  0
 90 88  1  0
 90 91  1  0
 90 89  1  0
M  ISO  4  12 100  20 100  50 101  51 101
M  END
>  <TORSDO>  (17) 
F 19

>  <SCORE>  (17) 
-14.083

>  <name>  (17) 
16

>  <ligand_id>  (17) 
16

>  <original_smiles>  (17) 
[H]c1c([H])c([H])c2c(c1[H])C([H])([H])C([H])([H])C([H])([H])C2([H])N([H])C(=O)C1([H])N(C(=O)C([H])(N([H])C(=O)C([H])(N([H])C([H])([H])[H])C([H])([H])[H])C(C([H])([H])[H])(C([H])([H])[H])C([H])([H])[H])C([H])([H])c2c([H])c(OC([H])([H])C(=O)N([H])C([H])([H])c3c([H])c([H])c(N([H])C(=O)N4C([H])([H])C([H])([H])C([H])([H])C([H])(n5nc(-c6c([H])c([H])c(Oc7c([H])c([H])c(F)c([H])c7F)c([H])c6[H])c(C(=O)N([H])[H])c5N([H])[H])C4([H])[H])c([H])c3[H])c([H])c([H])c2C1([H])[H]

>  <smiles>  (17) 
[H]c1c([H])c([H])c2c(c1[H])C([H])([H])C([H])([H])C([H])([H])C2([H])N([H])C(=O)C1([H])N(C(=O)C([H])(N([H])C(=O)C([H])(N([H])C([H])([H])[H])C([H])([H])[H])C(C([H])([H])[H])(C([H])([H])[H])C([H])([H])[H])C([H])([H])c2c([H])c(OC([H])([H])C(=O)N([H])C([H])([H])c3c([H])c([H])c(N([H])C(=O)N4C([H])([H])C([H])([H])C([H])([H])C([H])(n5nc(-c6c([H])c([H])c(Oc7c([H])c([H])c(F)c([H])c7F)c([H])c6[H])c(C(=O)N([H])[H])c5N([H])[H])C4([H])[H])c([H])c3[H])c([H])c([H])c2C1([H])[H]

$$$$
17:0:0
     RDKit          3D

 93101  0  0  1  0  0  0  0  0999 V2000
  -28.9320  -23.0610   20.0700 C   0  0  0  0  0  0  0  0  0  0  0  0
  -28.7330  -21.7470   20.3540 N   0  0  0  0  0  0  0  0  0  0  0  0
  -29.8570  -23.4370   19.3480 O   0  0  0  0  0  0  0  0  0  0  0  0
  -27.9620  -21.5210   20.9680 H   0  0  0  0  0  0  0  0  0  0  0  0
  -29.3620  -20.5890   19.6640 C   0  0  0  0  0  2  0  0  0  0  0  0
  -31.2810  -17.2610   21.8080 C   0  0  0  0  0  3  0  0  0  0  0  0
  -31.6600  -18.5910   22.0680 C   0  0  0  0  0  3  0  0  0  0  0  0
  -29.5790  -18.0790   20.2700 C   0  0  0  0  0  3  0  0  0  0  0  0
  -29.9720  -19.4340   20.5020 C   0  0  0  0  0  0  0  0  0  0  0  0
  -30.2390  -16.9810   20.8980 C   0  0  0  0  0  0  0  0  0  0  0  0
  -31.0270  -19.6700   21.4190 C   0  0  0  0  0  0  0  0  0  0  0  0
  -31.6120  -21.2650   21.7430 Cl  0  0  0  0  0  0  0  0  0  0  0  0
  -30.5760  -14.5620   20.2850 C   0  0  0  0  0  0  0  0  0  0  0  0
  -30.2750  -12.3920   19.1340 C   0  0  0  0  0  2  0  0  0  0  0  0
  -29.2950  -12.5780   17.9560 C   0  0  0  0  0  2  0  0  0  0  0  0
  -27.8350  -12.4230   18.4270 C   0  0  0  0  0  2  0  0  0  0  0  0
  -27.5230  -13.2550   19.7000 C   0  0  0  0  0  3  0  0  0  0  0  0
  -28.6130  -13.0530   20.7770 C   0  0  0  0  0  2  0  0  0  0  0  0
  -29.9110  -13.3760   20.1650 N   0  0  0  0  0  0  0  0  0  0  0  0
  -31.7260  -14.7160   19.8630 O   0  0  0  0  0  0  0  0  0  0  0  0
  -29.8210  -15.6210   20.6770 N   0  0  0  0  0  0  0  0  0  0  0  0
  -28.8400  -15.4280   20.8030 H   0  0  0  0  0  0  0  0  0  0  0  0
  -25.1450  -13.8490   20.4820 C   0  0  0  0  0  0  0  0  0  0  0  0
  -24.0910  -13.0710   20.8780 C   0  0  0  0  0  0  0  0  0  0  0  0
  -24.5560  -11.7210   20.8280 C   0  0  0  0  0  0  0  0  0  0  0  0
  -26.1860  -12.9720   20.2170 N   0  0  0  0  0  0  0  0  0  0  0  0
  -25.8370  -11.6870   20.4840 N   0  0  0  0  0  0  0  0  0  0  0  0
  -23.8380  -10.4560   21.0320 C   0  0  0  0  0  0  0  0  0  0  0  0
  -24.3030   -9.4820   21.9440 C   0  0  0  0  0  3  0  0  0  0  0  0
  -23.5850   -8.2810   22.1360 C   0  0  0  0  0  3  0  0  0  0  0  0
  -22.3910   -8.0450   21.4140 C   0  0  0  0  0  0  0  0  0  0  0  0
  -21.9450   -9.0070   20.4920 C   0  0  0  0  0  3  0  0  0  0  0  0
  -22.6620  -10.2010   20.2990 C   0  0  0  0  0  3  0  0  0  0  0  0
  -21.6420   -6.8960   21.5150 O   0  0  0  0  0  0  0  0  0  0  0  0
  -21.6420   -6.1370   22.6580 C   0  0  0  0  0  0  0  0  0  0  0  0
  -21.2700   -6.6730   23.9090 C   0  0  0  0  0  3  0  0  0  0  0  0
  -21.2150   -5.8410   25.0440 C   0  0  0  0  0  3  0  0  0  0  0  0
  -21.5230   -4.4720   24.9300 C   0  0  0  0  0  0  0  0  0  0  0  0
  -21.8900   -3.9340   23.6840 C   0  0  0  0  0  3  0  0  0  0  0  0
  -21.9460   -4.7640   22.5510 C   0  0  0  0  0  0  0  0  0  0  0  0
  -22.2790   -4.2370   21.3480 F   0  0  0  0  0  0  0  0  0  0  0  0
  -21.4650   -3.6700   26.0200 F   0  0  0  0  0  0  0  0  0  0  0  0
  -22.6990  -13.5420   21.1900 C   0  0  0  0  0  0  0  0  0  0  0  0
  -21.9950  -12.8400   22.0700 N   0  0  0  0  0  0  0  0  0  0  0  0
  -22.2450  -14.5690   20.6870 O   0  0  0  0  0  0  0  0  0  0  0  0
  -22.3750  -12.0110   22.5010 H   0  0  0  0  0  0  0  0  0  0  0  0
  -21.0630  -13.1400   22.3200 H   0  0  0  0  0  0  0  0  0  0  0  0
  -25.2980  -15.2220   20.3060 N   0  0  0  0  0  0  0  0  0  0  0  0
  -24.5260  -15.8670   20.4330 H   0  0  0  0  0  0  0  0  0  0  0  0
  -26.1250  -15.6680   19.9290 H   0  0  0  0  0  0  0  0  0  0  0  0
  -27.9120  -24.1070   20.6050 C   0  0  0  0  0  2  0  0  0  0  0  0
  -28.4460  -25.5170   21.0540 C   0  0  0  0  0  2  0  0  0  0  0  0
  -28.3820  -26.6370   20.1320 O   0  0  0  0  0  0  0  0  0  0  0  0
  -24.5970  -31.8850   23.2350 C   0  0  0  0  0  0  0  0  0  0  0  0
  -27.2330  -27.4080   20.1680 C   0  0  0  0  0  0  0  0  0  0  0  0
  -23.3940  -30.4890   21.5880 C   0  0  0  0  0  3  0  0  0  0  0  0
  -24.8490  -28.9460   20.1650 C   0  0  0  0  0  0  0  0  0  0  0  0
  -25.9250  -30.8350   21.3990 C   0  0  0  0  0  2  0  0  0  0  0  0
  -26.0100  -29.4590   20.7600 C   0  0  0  0  0  0  0  0  0  0  0  0
  -27.2070  -28.7000   20.7550 C   0  0  0  0  0  3  0  0  0  0  0  0
  -26.0590  -26.9210   19.5600 C   0  0  0  0  0  3  0  0  0  0  0  0
  -24.8710  -27.6780   19.5580 C   0  0  0  0  0  3  0  0  0  0  0  0
  -23.6080  -29.8100   20.2090 C   0  0  0  0  0  2  0  0  0  0  0  0
  -24.6570  -31.0850   22.1320 N   0  0  0  0  0  0  0  0  0  0  0  0
  -23.5150  -32.1580   23.7720 O   0  0  0  0  0  0  0  0  0  0  0  0
  -22.7370  -29.4670   22.5450 C   0  0  0  0  0  0  0  0  0  0  0  0
  -21.4130  -29.2820   22.4100 N   0  0  0  0  0  0  0  0  0  0  0  0
  -23.4170  -28.8440   23.3650 O   0  0  0  0  0  0  0  0  0  0  0  0
  -20.9260  -29.8370   21.7190 H   0  0  0  0  0  0  0  0  0  0  0  0
  -18.0410  -28.0710   22.8810 C   0  0  0  0  0  0  0  0  0  0  0  0
  -20.5940  -28.3430   23.1750 C   0  0  0  0  0  3  0  0  0  0  0  0
  -20.7090  -26.9120   22.6020 C   0  0  0  0  0  2  0  0  0  0  0  0
  -19.6180  -26.5820   21.5790 C   0  0  0  0  0  2  0  0  0  0  0  0
  -18.2290  -26.7210   22.2100 C   0  0  0  0  0  2  0  0  0  0  0  0
  -19.1520  -28.8400   23.3190 C   0  0  0  0  0  0  0  0  0  0  0  0
  -18.9210  -30.1040   23.9040 C   0  0  0  0  0  3  0  0  0  0  0  0
  -17.6130  -30.6000   24.0550 C   0  0  0  0  0  3  0  0  0  0  0  0
  -16.5170  -29.8290   23.6330 C   0  0  0  0  0  3  0  0  0  0  0  0
  -16.7310  -28.5670   23.0510 C   0  0  0  0  0  3  0  0  0  0  0  0
  -25.8820  -32.5140   23.8600 C   0  0  0  0  0  3  0  0  0  0  0  0
  -26.3950  -31.7410   25.1360 C   0  0  1  0  0  0  0  0  0  0  0  0
  -25.3000  -31.5060   26.2030 C   0  0  0  0  0  1  0  0  0  0  0  0
  -26.9760  -30.3610   24.7440 C   0  0  0  0  0  1  0  0  0  0  0  0
  -27.5470  -32.5320   25.8000 C   0  0  0  0  0  1  0  0  0  0  0  0
  -25.5740  -33.9120   24.1890 N   0  0  0  0  0  0  0  0  0  0  0  0
  -25.9100  -34.9640   23.4290 C   0  0  0  0  0  0  0  0  0  0  0  0
  -26.5800  -34.8590   22.3990 O   0  0  0  0  0  0  0  0  0  0  0  0
  -24.9800  -34.0680   24.9900 H   0  0  0  0  0  0  0  0  0  0  0  0
  -24.1830  -36.7570   23.0720 C   0  0  0  0  0  1  0  0  0  0  0  0
  -25.4220  -36.3520   23.8850 C   0  0  0  0  0  3  0  0  0  0  0  0
  -27.5600  -37.2340   24.7130 C   0  0  0  0  0  1  0  0  0  0  0  0
  -26.4560  -37.4050   23.7720 N   0  0  0  0  0  0  0  0  0  0  0  0
  -26.0510  -38.3250   23.9220 H   0  0  0  0  0  0  0  0  0  0  0  0
  1  2  1  0
  1 51  1  0
  2  4  1  0
  3  1  2  0
  5  2  1  0
  5  9  1  0
  6  7  1  0
  8  9  2  0
  8 10  1  0
  9 11  1  0
 10  6  2  0
 11 12  1  0
 11  7  2  0
 13 21  1  0
 14 19  1  0
 15 16  1  0
 15 14  1  0
 17 16  1  0
 17 26  1  0
 17 18  1  0
 19 13  1  0
 19 18  1  0
 20 13  2  0
 21 22  1  0
 21 10  1  0
 23 24  2  0
 24 43  1  0
 25 24  1  0
 25 28  1  0
 26 23  1  0
 26 27  1  0
 27 25  2  0
 28 29  1  0
 29 30  2  0
 31 34  1  0
 31 30  1  0
 32 31  2  0
 33 32  1  0
 33 28  2  0
 34 35  1  0
 35 36  1  0
 36 37  2  0
 38 37  1  0
 38 42  1  0
 39 38  2  0
 40 35  2  0
 40 39  1  0
 41 40  1  0
 43 44  1  0
 44 47  1  0
 44 46  1  0
 45 43  2  0
 48 49  1  0
 48 23  1  0
 50 48  1  0
 51 52  1  0
 53 55  1  0
 53 52  1  0
 54 65  2  0
 55 60  1  0
 56 64  1  0
 56 66  1  0
 57 63  1  0
 57 59  1  0
 58 64  1  0
 59 58  1  0
 60 59  2  0
 61 55  2  0
 62 61  1  0
 62 57  2  0
 63 56  1  0
 64 54  1  0
 66 68  2  0
 67 66  1  0
 69 67  1  0
 70 79  2  0
 70 75  1  0
 71 67  1  0
 71 75  1  0
 72 71  1  0
 73 74  1  0
 73 72  1  0
 74 70  1  0
 75 76  2  0
 76 77  1  0
 78 77  2  0
 79 78  1  0
 80 54  1  0
 80 85  1  0
 80 81  1  0
 81 84  1  1
 81 82  1  0
 83 81  1  0
 85 88  1  0
 86 90  1  0
 86 85  1  0
 87 86  2  0
 90 89  1  0
 92 90  1  0
 92 93  1  0
 92 91  1  0
M  ISO  4  13 100  21 100  52 101  53 101
M  END
>  <TORSDO>  (18) 
F 20

>  <SCORE>  (18) 
-13.929

>  <name>  (18) 
17

>  <ligand_id>  (18) 
17

>  <original_smiles>  (18) 
[H]c1c([H])c([H])c2c(c1[H])C([H])([H])C([H])([H])C([H])([H])C2([H])N([H])C(=O)C1([H])N(C(=O)C([H])(N([H])C(=O)C([H])(N([H])C([H])([H])[H])C([H])([H])[H])C(C([H])([H])[H])(C([H])([H])[H])C([H])([H])[H])C([H])([H])c2c([H])c(OC([H])([H])C([H])([H])C(=O)N([H])C([H])([H])c3c([H])c(N([H])C(=O)N4C([H])([H])C([H])([H])C([H])([H])C([H])(n5nc(-c6c([H])c([H])c(Oc7c([H])c([H])c(F)c([H])c7F)c([H])c6[H])c(C(=O)N([H])[H])c5N([H])[H])C4([H])[H])c([H])c([H])c3Cl)c([H])c([H])c2C1([H])[H]

>  <smiles>  (18) 
[H]c1c([H])c([H])c2c(c1[H])C([H])([H])C([H])([H])C([H])([H])C2([H])N([H])C(=O)C1([H])N(C(=O)C([H])(N([H])C(=O)C([H])(N([H])C([H])([H])[H])C([H])([H])[H])C(C([H])([H])[H])(C([H])([H])[H])C([H])([H])[H])C([H])([H])c2c([H])c(OC([H])([H])C([H])([H])C(=O)N([H])C([H])([H])c3c([H])c(N([H])C(=O)N4C([H])([H])C([H])([H])C([H])([H])C([H])(n5nc(-c6c([H])c([H])c(Oc7c([H])c([H])c(F)c([H])c7F)c([H])c6[H])c(C(=O)N([H])[H])c5N([H])[H])C4([H])[H])c([H])c([H])c3Cl)c([H])c([H])c2C1([H])[H]

$$$$
18:0:0
     RDKit          3D

 96104  0  0  1  0  0  0  0  0999 V2000
  -29.5610  -18.3630   21.8090 C   0  0  0  0  0  3  0  0  0  0  0  0
  -29.9400  -17.1050   21.3040 C   0  0  0  0  0  3  0  0  0  0  0  0
  -30.7700  -18.2250   19.3240 C   0  0  0  0  0  3  0  0  0  0  0  0
  -29.7560  -19.5760   21.0890 C   0  0  0  0  0  0  0  0  0  0  0  0
  -30.3880  -19.5210   19.7970 C   0  0  0  0  0  0  0  0  0  0  0  0
  -30.5460  -17.0110   20.0370 C   0  0  0  0  0  0  0  0  0  0  0  0
  -31.5880  -14.6970   19.7070 C   0  0  0  0  0  0  0  0  0  0  0  0
  -31.1730  -12.4510   18.7580 C   0  0  0  0  0  2  0  0  0  0  0  0
  -30.1360  -12.5890   17.6190 C   0  0  0  0  0  2  0  0  0  0  0  0
  -28.6940  -12.5330   18.1710 C   0  0  0  0  0  2  0  0  0  0  0  0
  -28.4850  -13.4850   19.3810 C   0  0  0  0  0  3  0  0  0  0  0  0
  -29.6170  -13.3280   20.4200 C   0  0  0  0  0  2  0  0  0  0  0  0
  -30.8940  -13.5260   19.7230 N   0  0  0  0  0  0  0  0  0  0  0  0
  -32.7680  -14.7500   19.3610 O   0  0  0  0  0  0  0  0  0  0  0  0
  -30.8000  -15.7540   19.3840 N   0  0  0  0  0  0  0  0  0  0  0  0
  -30.7510  -15.8180   18.3810 H   0  0  0  0  0  0  0  0  0  0  0  0
  -26.2960  -14.2780   20.4650 C   0  0  0  0  0  0  0  0  0  0  0  0
  -25.1820  -13.6000   20.8680 C   0  0  0  0  0  0  0  0  0  0  0  0
  -25.4460  -12.2200   20.6180 C   0  0  0  0  0  0  0  0  0  0  0  0
  -27.1770  -13.3140   19.9940 N   0  0  0  0  0  0  0  0  0  0  0  0
  -26.6790  -12.0620   20.1490 N   0  0  0  0  0  0  0  0  0  0  0  0
  -24.5810  -11.0430   20.7440 C   0  0  0  0  0  0  0  0  0  0  0  0
  -24.9610   -9.9260   21.5180 C   0  0  0  0  0  3  0  0  0  0  0  0
  -24.1060   -8.8110   21.6370 C   0  0  0  0  0  3  0  0  0  0  0  0
  -22.8500   -8.8080   20.9810 C   0  0  0  0  0  0  0  0  0  0  0  0
  -22.4850   -9.9130   20.1930 C   0  0  0  0  0  3  0  0  0  0  0  0
  -23.3420  -11.0190   20.0720 C   0  0  0  0  0  3  0  0  0  0  0  0
  -21.9630   -7.7590   21.0180 O   0  0  0  0  0  0  0  0  0  0  0  0
  -21.8870   -6.9180   22.1000 C   0  0  0  0  0  0  0  0  0  0  0  0
  -21.6130   -7.3950   23.3990 C   0  0  0  0  0  3  0  0  0  0  0  0
  -21.4800   -6.4850   24.4670 C   0  0  0  0  0  3  0  0  0  0  0  0
  -21.6090   -5.1030   24.2380 C   0  0  0  0  0  0  0  0  0  0  0  0
  -21.8720   -4.6260   22.9420 C   0  0  0  0  0  3  0  0  0  0  0  0
  -22.0110   -5.5320   21.8750 C   0  0  0  0  0  0  0  0  0  0  0  0
  -22.2440   -5.0650   20.6260 F   0  0  0  0  0  0  0  0  0  0  0  0
  -21.4740   -4.2300   25.2640 F   0  0  0  0  0  0  0  0  0  0  0  0
  -23.8990  -14.2010   21.3720 C   0  0  0  0  0  0  0  0  0  0  0  0
  -23.1910  -13.4870   22.2390 N   0  0  0  0  0  0  0  0  0  0  0  0
  -23.5400  -15.3260   21.0300 O   0  0  0  0  0  0  0  0  0  0  0  0
  -23.5000  -12.5720   22.5300 H   0  0  0  0  0  0  0  0  0  0  0  0
  -22.3310  -13.8570   22.6200 H   0  0  0  0  0  0  0  0  0  0  0  0
  -26.6390  -15.6310   20.4360 N   0  0  0  0  0  0  0  0  0  0  0  0
  -26.0130  -16.3640   20.7400 H   0  0  0  0  0  0  0  0  0  0  0  0
  -27.5330  -15.9790   20.1170 H   0  0  0  0  0  0  0  0  0  0  0  0
  -27.9690  -21.4060   20.9870 C   0  0  0  0  0  1  0  0  0  0  0  0
  -29.1820  -20.8390   21.7430 C   0  0  2  0  0  0  0  0  0  0  0  0
  -30.1190  -21.7550   21.9390 F   0  0  0  0  0  0  0  0  0  0  0  0
  -28.7250  -20.5710   22.9710 F   0  0  0  0  0  0  0  0  0  0  0  0
  -30.6510  -20.6970   18.7870 C   0  0  0  0  0  2  0  0  0  0  0  0
  -30.4790  -23.1180   19.4890 C   0  0  0  0  0  0  0  0  0  0  0  0
  -29.1360  -22.3120   17.6320 C   0  0  0  0  0  1  0  0  0  0  0  0
  -29.9760  -22.0400   18.8140 N   0  0  0  0  0  0  0  0  0  0  0  0
  -31.5370  -23.0470   20.1270 O   0  0  0  0  0  0  0  0  0  0  0  0
  -29.6950  -24.4640   19.5600 C   0  0  0  0  0  2  0  0  0  0  0  0
  -30.0830  -25.4930   18.4600 C   0  0  0  0  0  2  0  0  0  0  0  0
  -29.7340  -26.8710   18.7620 O   0  0  0  0  0  0  0  0  0  0  0  0
  -25.0350  -30.5380   22.6940 C   0  0  0  0  0  0  0  0  0  0  0  0
  -28.4170  -27.2930   18.8830 C   0  0  0  0  0  0  0  0  0  0  0  0
  -24.0770  -29.1890   20.8600 C   0  0  0  0  0  3  0  0  0  0  0  0
  -25.7550  -28.2470   19.1810 C   0  0  0  0  0  0  0  0  0  0  0  0
  -26.4610  -30.1090   20.6910 C   0  0  0  0  0  2  0  0  0  0  0  0
  -26.8040  -28.9040   19.8320 C   0  0  0  0  0  0  0  0  0  0  0  0
  -28.1330  -28.4300   19.6840 C   0  0  0  0  0  3  0  0  0  0  0  0
  -27.3300  -26.6430   18.2450 C   0  0  0  0  0  3  0  0  0  0  0  0
  -26.0120  -27.1140   18.3940 C   0  0  0  0  0  3  0  0  0  0  0  0
  -24.3610  -28.8030   19.3830 C   0  0  0  0  0  2  0  0  0  0  0  0
  -25.2080  -29.9570   21.4750 N   0  0  0  0  0  0  0  0  0  0  0  0
  -23.9500  -30.4710   23.2890 O   0  0  0  0  0  0  0  0  0  0  0  0
  -23.7110  -27.9060   21.6440 C   0  0  0  0  0  0  0  0  0  0  0  0
  -22.4710  -27.4250   21.4600 N   0  0  0  0  0  0  0  0  0  0  0  0
  -24.5380  -27.3600   22.3790 O   0  0  0  0  0  0  0  0  0  0  0  0
  -21.8420  -27.9410   20.8640 H   0  0  0  0  0  0  0  0  0  0  0  0
  -19.5350  -25.3220   21.6510 C   0  0  0  0  0  0  0  0  0  0  0  0
  -21.9300  -26.2070   22.0650 C   0  0  0  0  0  3  0  0  0  0  0  0
  -22.4100  -24.9420   21.3170 C   0  0  0  0  0  2  0  0  0  0  0  0
  -21.4400  -24.4860   20.2230 C   0  0  0  0  0  2  0  0  0  0  0  0
  -20.0720  -24.1640   20.8280 C   0  0  0  0  0  2  0  0  0  0  0  0
  -20.4080  -26.2880   22.2210 C   0  0  0  0  0  0  0  0  0  0  0  0
  -19.8560  -27.3620   22.9520 C   0  0  0  0  0  3  0  0  0  0  0  0
  -18.4630  -27.4800   23.1210 C   0  0  0  0  0  3  0  0  0  0  0  0
  -17.6060  -26.5190   22.5560 C   0  0  0  0  0  3  0  0  0  0  0  0
  -18.1400  -25.4440   21.8280 C   0  0  0  0  0  3  0  0  0  0  0  0
  -26.1810  -31.3300   23.3920 C   0  0  0  0  0  3  0  0  0  0  0  0
  -25.6080  -32.5870   23.8950 N   0  0  0  0  0  0  0  0  0  0  0  0
  -25.7760  -33.7840   23.3160 C   0  0  0  0  0  0  0  0  0  0  0  0
  -26.4980  -33.9570   22.3310 O   0  0  0  0  0  0  0  0  0  0  0  0
  -24.9600  -32.5080   24.6650 H   0  0  0  0  0  0  0  0  0  0  0  0
  -23.7810  -35.3010   23.0870 C   0  0  0  0  0  1  0  0  0  0  0  0
  -25.0240  -34.9820   23.9330 C   0  0  0  0  0  3  0  0  0  0  0  0
  -26.9250  -36.0640   25.0530 C   0  0  0  0  0  1  0  0  0  0  0  0
  -25.8600  -36.1960   24.0620 N   0  0  0  0  0  0  0  0  0  0  0  0
  -25.2890  -36.9990   24.3130 H   0  0  0  0  0  0  0  0  0  0  0  0
  -26.8750  -30.5270   24.5630 C   0  0  1  0  0  0  0  0  0  0  0  0
  -25.8780  -29.9540   25.5980 C   0  0  0  0  0  1  0  0  0  0  0  0
  -27.7060  -29.3500   24.0010 C   0  0  0  0  0  1  0  0  0  0  0  0
  -27.8630  -31.4490   25.3180 C   0  0  0  0  0  1  0  0  0  0  0  0
  2  1  1  0
  3  5  2  0
  3  6  1  0
  4 46  1  0
  4  1  2  0
  5  4  1  0
  6  2  2  0
  7 13  1  0
  8 13  1  0
  9 10  1  0
  9  8  1  0
 11 10  1  0
 11 20  1  0
 11 12  1  0
 13 12  1  0
 14  7  2  0
 15  7  1  0
 15  6  1  0
 16 15  1  0
 17 18  2  0
 18 37  1  0
 19 22  1  0
 19 18  1  0
 20 21  1  0
 20 17  1  0
 21 19  2  0
 22 23  1  0
 23 24  2  0
 25 28  1  0
 25 24  1  0
 26 25  2  0
 27 26  1  0
 27 22  2  0
 28 29  1  0
 29 30  1  0
 30 31  2  0
 32 31  1  0
 32 36  1  0
 33 32  2  0
 34 29  2  0
 34 33  1  0
 35 34  1  0
 37 38  1  0
 38 40  1  0
 38 41  1  0
 39 37  2  0
 42 17  1  0
 42 43  1  0
 44 42  1  0
 46 45  1  6
 46 47  1  0
 46 48  1  0
 49 52  1  0
 49  5  1  0
 50 54  1  0
 50 53  2  0
 51 52  1  0
 52 50  1  0
 55 56  1  0
 55 54  1  0
 56 58  1  0
 57 68  2  0
 58 63  1  0
 59 67  1  0
 59 69  1  0
 60 66  1  0
 60 62  1  0
 61 67  1  0
 62 61  1  0
 63 62  2  0
 64 65  1  0
 64 58  2  0
 65 60  2  0
 66 59  1  0
 67 57  1  0
 69 71  2  0
 70 69  1  0
 72 70  1  0
 73 82  2  0
 73 78  1  0
 74 70  1  0
 74 78  1  0
 75 74  1  0
 76 77  1  0
 76 75  1  0
 77 73  1  0
 78 79  2  0
 79 80  1  0
 81 80  2  0
 82 81  1  0
 83 57  1  0
 83 84  1  0
 83 93  1  0
 84 87  1  0
 85 84  1  0
 85 89  1  0
 86 85  2  0
 89 88  1  0
 89 91  1  0
 91 92  1  0
 91 90  1  0
 93 96  1  1
 93 94  1  0
 95 93  1  0
M  ISO  4   7 100  15 100  55 101  56 101
M  END
>  <TORSDO>  (19) 
F 21

>  <SCORE>  (19) 
-6.576

>  <name>  (19) 
18

>  <ligand_id>  (19) 
18

>  <original_smiles>  (19) 
[H]c1c([H])c([H])c2c(c1[H])C([H])([H])C([H])([H])C([H])([H])C2([H])N([H])C(=O)C1([H])N(C(=O)C([H])(N([H])C(=O)C([H])(N([H])C([H])([H])[H])C([H])([H])[H])C(C([H])([H])[H])(C([H])([H])[H])C([H])([H])[H])C([H])([H])c2c([H])c(OC([H])([H])C([H])([H])C(=O)N(C([H])([H])[H])C([H])([H])c3c([H])c(N([H])C(=O)N4C([H])([H])C([H])([H])C([H])([H])C([H])(n5nc(-c6c([H])c([H])c(Oc7c([H])c([H])c(F)c([H])c7F)c([H])c6[H])c(C(=O)N([H])[H])c5N([H])[H])C4([H])[H])c([H])c([H])c3C(F)(F)C([H])([H])[H])c([H])c([H])c2C1([H])[H]

>  <smiles>  (19) 
[H]c1c([H])c([H])c2c(c1[H])C([H])([H])C([H])([H])C([H])([H])C2([H])N([H])C(=O)C1([H])N(C(=O)C([H])(N([H])C(=O)C([H])(N([H])C([H])([H])[H])C([H])([H])[H])C(C([H])([H])[H])(C([H])([H])[H])C([H])([H])[H])C([H])([H])c2c([H])c(OC([H])([H])C([H])([H])C(=O)N(C([H])([H])[H])C([H])([H])c3c([H])c(N([H])C(=O)N4C([H])([H])C([H])([H])C([H])([H])C([H])(n5nc(-c6c([H])c([H])c(Oc7c([H])c([H])c(F)c([H])c7F)c([H])c6[H])c(C(=O)N([H])[H])c5N([H])[H])C4([H])[H])c([H])c([H])c3C(F)(F)C([H])([H])[H])c([H])c([H])c2C1([H])[H]

$$$$
19:0:0
     RDKit          3D

 93101  0  0  1  0  0  0  0  0999 V2000
  -29.5640  -21.2240   20.7200 C   0  0  0  0  0  0  0  0  0  0  0  0
  -29.1580  -22.3680   20.0520 N   0  0  0  0  0  0  0  0  0  0  0  0
  -29.7670  -21.2810   21.9340 O   0  0  0  0  0  0  0  0  0  0  0  0
  -28.9550  -22.2500   19.0690 H   0  0  0  0  0  0  0  0  0  0  0  0
  -30.2810  -19.9540   18.6370 C   0  0  0  0  0  3  0  0  0  0  0  0
  -30.6510  -18.8090   17.9060 C   0  0  0  0  0  3  0  0  0  0  0  0
  -29.8390  -19.8710   19.9740 C   0  0  0  0  0  0  0  0  0  0  0  0
  -29.8050  -18.5180   20.5550 C   0  0  0  0  0  0  0  0  0  0  0  0
  -30.2270  -17.3230   19.8210 C   0  0  0  0  0  0  0  0  0  0  0  0
  -30.6230  -17.5220   18.4740 C   0  0  0  0  0  0  0  0  0  0  0  0
  -29.3170  -18.3280   21.9850 C   0  0  0  0  0  1  0  0  0  0  0  0
  -30.9340  -16.4720   17.6780 F   0  0  0  0  0  0  0  0  0  0  0  0
  -30.9070  -14.8080   19.9720 C   0  0  0  0  0  0  0  0  0  0  0  0
  -30.6360  -12.5620   18.9250 C   0  0  0  0  0  2  0  0  0  0  0  0
  -29.6280  -12.6880   17.7610 C   0  0  0  0  0  2  0  0  0  0  0  0
  -28.1840  -12.5140   18.2710 C   0  0  0  0  0  2  0  0  0  0  0  0
  -27.8920  -13.3610   19.5380 C   0  0  0  0  0  3  0  0  0  0  0  0
  -29.0150  -13.2230   20.5900 C   0  0  0  0  0  2  0  0  0  0  0  0
  -30.2800  -13.5830   19.9380 N   0  0  0  0  0  0  0  0  0  0  0  0
  -32.0690  -14.9110   19.5660 O   0  0  0  0  0  0  0  0  0  0  0  0
  -30.1690  -15.9250   20.3360 N   0  0  0  0  0  0  0  0  0  0  0  0
  -29.3330  -15.7090   20.8560 H   0  0  0  0  0  0  0  0  0  0  0  0
  -25.5590  -13.9400   20.4330 C   0  0  0  0  0  0  0  0  0  0  0  0
  -24.5100  -13.1590   20.8380 C   0  0  0  0  0  0  0  0  0  0  0  0
  -24.9570  -11.8070   20.7260 C   0  0  0  0  0  0  0  0  0  0  0  0
  -26.5780  -13.0640   20.0980 N   0  0  0  0  0  0  0  0  0  0  0  0
  -26.2260  -11.7730   20.3370 N   0  0  0  0  0  0  0  0  0  0  0  0
  -24.2320  -10.5430   20.9110 C   0  0  0  0  0  0  0  0  0  0  0  0
  -24.6500   -9.5820   21.8580 C   0  0  0  0  0  3  0  0  0  0  0  0
  -23.9240   -8.3830   22.0310 C   0  0  0  0  0  3  0  0  0  0  0  0
  -22.7640   -8.1380   21.2570 C   0  0  0  0  0  0  0  0  0  0  0  0
  -22.3640   -9.0890   20.3010 C   0  0  0  0  0  3  0  0  0  0  0  0
  -23.0920  -10.2770   20.1260 C   0  0  0  0  0  3  0  0  0  0  0  0
  -22.0110   -6.9920   21.3390 O   0  0  0  0  0  0  0  0  0  0  0  0
  -21.8560   -6.3150   22.5220 C   0  0  0  0  0  0  0  0  0  0  0  0
  -21.2720   -6.9210   23.6560 C   0  0  0  0  0  3  0  0  0  0  0  0
  -21.0680   -6.1680   24.8300 C   0  0  0  0  0  3  0  0  0  0  0  0
  -21.4380   -4.8100   24.8690 C   0  0  0  0  0  0  0  0  0  0  0  0
  -22.0160   -4.2040   23.7400 C   0  0  0  0  0  3  0  0  0  0  0  0
  -22.2220   -4.9540   22.5690 C   0  0  0  0  0  0  0  0  0  0  0  0
  -22.7590   -4.3600   21.4770 F   0  0  0  0  0  0  0  0  0  0  0  0
  -21.2360   -4.0850   25.9950 F   0  0  0  0  0  0  0  0  0  0  0  0
  -23.1360  -13.6350   21.2110 C   0  0  0  0  0  0  0  0  0  0  0  0
  -22.4580  -12.9140   22.0980 N   0  0  0  0  0  0  0  0  0  0  0  0
  -22.6750  -14.6800   20.7550 O   0  0  0  0  0  0  0  0  0  0  0  0
  -22.8450  -12.0670   22.4870 H   0  0  0  0  0  0  0  0  0  0  0  0
  -21.5390  -13.2140   22.3920 H   0  0  0  0  0  0  0  0  0  0  0  0
  -25.7230  -15.3160   20.2980 N   0  0  0  0  0  0  0  0  0  0  0  0
  -24.9690  -15.9680   20.4790 H   0  0  0  0  0  0  0  0  0  0  0  0
  -26.5450  -15.7590   19.9060 H   0  0  0  0  0  0  0  0  0  0  0  0
  -29.1930  -23.8170   20.5530 C   0  0  0  0  0  3  0  0  0  0  0  0
  -28.1820  -24.9230   19.9520 C   0  0  0  0  0  3  0  0  0  0  0  0
  -28.3620  -26.3920   20.2300 O   0  0  0  0  0  0  0  0  0  0  0  0
  -24.5520  -31.8180   23.1690 C   0  0  0  0  0  0  0  0  0  0  0  0
  -27.2550  -27.2700   20.1340 C   0  0  0  0  0  0  0  0  0  0  0  0
  -23.3900  -30.4110   21.5080 C   0  0  0  0  0  3  0  0  0  0  0  0
  -24.8810  -28.8890   20.0870 C   0  0  0  0  0  0  0  0  0  0  0  0
  -25.9300  -30.7540   21.3630 C   0  0  0  0  0  2  0  0  0  0  0  0
  -26.0360  -29.3780   20.7070 C   0  0  0  0  0  0  0  0  0  0  0  0
  -27.2270  -28.5800   20.7210 C   0  0  0  0  0  3  0  0  0  0  0  0
  -26.0790  -26.8560   19.4690 C   0  0  0  0  0  3  0  0  0  0  0  0
  -24.9070  -27.6370   19.4540 C   0  0  0  0  0  3  0  0  0  0  0  0
  -23.6320  -29.7490   20.1260 C   0  0  0  0  0  2  0  0  0  0  0  0
  -24.6430  -31.0130   22.0700 N   0  0  0  0  0  0  0  0  0  0  0  0
  -23.4580  -32.0810   23.6890 O   0  0  0  0  0  0  0  0  0  0  0  0
  -22.7270  -29.3810   22.4540 C   0  0  0  0  0  0  0  0  0  0  0  0
  -21.4060  -29.1810   22.3040 N   0  0  0  0  0  0  0  0  0  0  0  0
  -23.4010  -28.7640   23.2840 O   0  0  0  0  0  0  0  0  0  0  0  0
  -20.9200  -29.7340   21.6110 H   0  0  0  0  0  0  0  0  0  0  0  0
  -18.0330  -27.9520   22.7650 C   0  0  0  0  0  0  0  0  0  0  0  0
  -20.5890  -28.2280   23.0570 C   0  0  0  0  0  3  0  0  0  0  0  0
  -20.7050  -26.8050   22.4650 C   0  0  0  0  0  2  0  0  0  0  0  0
  -19.6130  -26.4850   21.4380 C   0  0  0  0  0  2  0  0  0  0  0  0
  -18.2250  -26.6120   22.0740 C   0  0  0  0  0  2  0  0  0  0  0  0
  -19.1440  -28.7180   23.2110 C   0  0  0  0  0  0  0  0  0  0  0  0
  -18.9100  -29.9730   23.8150 C   0  0  0  0  0  3  0  0  0  0  0  0
  -17.6010  -30.4610   23.9800 C   0  0  0  0  0  3  0  0  0  0  0  0
  -16.5050  -29.6930   23.5510 C   0  0  0  0  0  3  0  0  0  0  0  0
  -16.7220  -28.4400   22.9490 C   0  0  0  0  0  3  0  0  0  0  0  0
  -25.8180  -32.4650   23.8120 C   0  0  0  0  0  3  0  0  0  0  0  0
  -26.3250  -31.6960   25.0920 C   0  0  1  0  0  0  0  0  0  0  0  0
  -25.2180  -31.4320   26.1400 C   0  0  0  0  0  1  0  0  0  0  0  0
  -26.9400  -30.3310   24.7030 C   0  0  0  0  0  1  0  0  0  0  0  0
  -27.4490  -32.5070   25.7790 C   0  0  0  0  0  1  0  0  0  0  0  0
  -25.4850  -33.8570   24.1450 N   0  0  0  0  0  0  0  0  0  0  0  0
  -25.8130  -34.9210   23.3980 C   0  0  0  0  0  0  0  0  0  0  0  0
  -26.4970  -34.8330   22.3760 O   0  0  0  0  0  0  0  0  0  0  0  0
  -24.8780  -33.9980   24.9390 H   0  0  0  0  0  0  0  0  0  0  0  0
  -24.0750  -36.7010   23.0240 C   0  0  0  0  0  1  0  0  0  0  0  0
  -25.3010  -36.2990   23.8590 C   0  0  0  0  0  3  0  0  0  0  0  0
  -27.4020  -37.2030   24.7540 C   0  0  0  0  0  1  0  0  0  0  0  0
  -26.3260  -37.3640   23.7800 N   0  0  0  0  0  0  0  0  0  0  0  0
  -25.9060  -38.2790   23.9210 H   0  0  0  0  0  0  0  0  0  0  0  0
  1  3  2  0
  2 51  1  0
  2  1  1  0
  4  2  1  0
  5  7  1  0
  6 10  1  0
  6  5  2  0
  7  8  2  0
  7  1  1  0
  8 11  1  0
  9 21  1  0
  9  8  1  0
 10  9  2  0
 12 10  1  0
 13 21  1  0
 14 19  1  0
 15 16  1  0
 15 14  1  0
 17 16  1  0
 17 26  1  0
 17 18  1  0
 19 13  1  0
 19 18  1  0
 20 13  2  0
 21 22  1  0
 23 24  2  0
 24 43  1  0
 25 24  1  0
 25 28  1  0
 26 27  1  0
 26 23  1  0
 27 25  2  0
 28 29  1  0
 29 30  2  0
 31 34  1  0
 31 30  1  0
 32 31  2  0
 33 32  1  0
 33 28  2  0
 34 35  1  0
 35 40  2  0
 35 36  1  0
 36 37  2  0
 37 38  1  0
 38 42  1  0
 39 38  2  0
 40 39  1  0
 41 40  1  0
 43 44  1  0
 44 47  1  0
 44 46  1  0
 45 43  2  0
 48 23  1  0
 48 49  1  0
 50 48  1  0
 52 53  1  0
 52 51  2  0
 54 65  2  0
 55 53  1  0
 55 60  1  0
 56 64  1  0
 56 66  1  0
 57 63  1  0
 57 59  1  0
 58 64  1  0
 59 60  2  0
 59 58  1  0
 61 55  2  0
 62 61  1  0
 62 57  2  0
 63 56  1  0
 64 54  1  0
 66 68  2  0
 67 66  1  0
 69 67  1  0
 70 79  2  0
 70 75  1  0
 71 67  1  0
 71 75  1  0
 72 71  1  0
 73 74  1  0
 73 72  1  0
 74 70  1  0
 75 76  2  0
 76 77  1  0
 78 77  2  0
 79 78  1  0
 80 54  1  0
 80 85  1  0
 80 81  1  0
 81 84  1  1
 81 82  1  0
 83 81  1  0
 85 88  1  0
 86 90  1  0
 86 85  1  0
 87 86  2  0
 90 89  1  0
 92 90  1  0
 92 93  1  0
 92 91  1  0
M  ISO  4  13 100  21 100  52 101  53 101
M  END
>  <TORSDO>  (20) 
F 19

>  <SCORE>  (20) 
-12.785

>  <name>  (20) 
19

>  <ligand_id>  (20) 
19

>  <original_smiles>  (20) 
[H]c1c([H])c([H])c2c(c1[H])C([H])([H])C([H])([H])C([H])([H])C2([H])N([H])C(=O)C1([H])N(C(=O)C([H])(N([H])C(=O)C([H])(N([H])C([H])([H])[H])C([H])([H])[H])C(C([H])([H])[H])(C([H])([H])[H])C([H])([H])[H])C([H])([H])c2c([H])c(OC([H])([H])C([H])([H])N([H])C(=O)c3c([H])c([H])c(F)c(N([H])C(=O)N4C([H])([H])C([H])([H])C([H])([H])C([H])(n5nc(-c6c([H])c([H])c(Oc7c([H])c([H])c(F)c([H])c7F)c([H])c6[H])c(C(=O)N([H])[H])c5N([H])[H])C4([H])[H])c3C([H])([H])[H])c([H])c([H])c2C1([H])[H]

>  <smiles>  (20) 
[H]c1c([H])c([H])c2c(c1[H])C([H])([H])C([H])([H])C([H])([H])C2([H])N([H])C(=O)C1([H])N(C(=O)C([H])(N([H])C(=O)C([H])(N([H])C([H])([H])[H])C([H])([H])[H])C(C([H])([H])[H])(C([H])([H])[H])C([H])([H])[H])C([H])([H])c2c([H])c(OC([H])([H])C([H])([H])N([H])C(=O)c3c([H])c([H])c(F)c(N([H])C(=O)N4C([H])([H])C([H])([H])C([H])([H])C([H])(n5nc(-c6c([H])c([H])c(Oc7c([H])c([H])c(F)c([H])c7F)c([H])c6[H])c(C(=O)N([H])[H])c5N([H])[H])C4([H])[H])c3C([H])([H])[H])c([H])c([H])c2C1([H])[H]

$$$$
20:0:0
     RDKit          3D

 97106  0  0  1  0  0  0  0  0999 V2000
  -30.2290  -22.9830   21.1120 C   0  0  0  0  0  0  0  0  0  0  0  0
  -31.9930  -21.0860   20.7350 C   0  0  0  0  0  0  0  0  0  0  0  0
  -33.1670  -20.4960   21.0130 C   0  0  0  0  0  2  0  0  0  0  0  0
  -29.9060  -24.3060   21.0800 C   0  0  0  0  0  3  0  0  0  0  0  0
  -31.6660  -22.4760   21.3310 C   0  0  0  0  0  2  0  0  0  0  0  0
  -29.2560  -21.8420   20.9030 C   0  0  0  0  0  2  0  0  0  0  0  0
  -29.7130  -21.0630   19.6780 C   0  0  0  0  0  2  0  0  0  0  0  0
  -31.0260  -20.4760   19.9240 N   0  0  0  0  0  0  0  0  0  0  0  0
  -31.0520  -17.6990   17.4610 C   0  0  0  0  0  3  0  0  0  0  0  0
  -31.2040  -18.9720   18.0400 C   0  0  0  0  0  3  0  0  0  0  0  0
  -30.7260  -16.5990   18.2730 C   0  0  0  0  0  3  0  0  0  0  0  0
  -31.0460  -19.1540   19.4320 C   0  0  0  0  0  0  0  0  0  0  0  0
  -30.5800  -16.7520   19.6730 C   0  0  0  0  0  0  0  0  0  0  0  0
  -30.7420  -18.0340   20.2570 C   0  0  0  0  0  0  0  0  0  0  0  0
  -30.5250  -18.2280   21.9660 Cl  0  0  0  0  0  0  0  0  0  0  0  0
  -30.9500  -14.4840   20.4070 C   0  0  0  0  0  0  0  0  0  0  0  0
  -30.5710  -12.3240   19.3400 C   0  0  0  0  0  2  0  0  0  0  0  0
  -29.6640  -12.5680   18.1170 C   0  0  0  0  0  2  0  0  0  0  0  0
  -28.1770  -12.4890   18.5180 C   0  0  0  0  0  2  0  0  0  0  0  0
  -27.8410  -13.3220   19.7860 C   0  0  0  0  0  3  0  0  0  0  0  0
  -28.8870  -13.1120   20.9070 C   0  0  0  0  0  2  0  0  0  0  0  0
  -30.2250  -13.3390   20.3420 N   0  0  0  0  0  0  0  0  0  0  0  0
  -32.1510  -14.5510   20.1370 O   0  0  0  0  0  0  0  0  0  0  0  0
  -30.2340  -15.6120   20.4620 N   0  0  0  0  0  0  0  0  0  0  0  0
  -29.2670  -15.5260   20.7360 H   0  0  0  0  0  0  0  0  0  0  0  0
  -25.4310  -13.9420   20.4480 C   0  0  0  0  0  0  0  0  0  0  0  0
  -24.3560  -13.1760   20.8080 C   0  0  0  0  0  0  0  0  0  0  0  0
  -24.8130  -11.8220   20.8030 C   0  0  0  0  0  0  0  0  0  0  0  0
  -26.4800  -13.0560   20.2500 N   0  0  0  0  0  0  0  0  0  0  0  0
  -26.1090  -11.7780   20.5240 N   0  0  0  0  0  0  0  0  0  0  0  0
  -24.0790  -10.5630   20.9930 C   0  0  0  0  0  0  0  0  0  0  0  0
  -24.4950   -9.6040   21.9420 C   0  0  0  0  0  3  0  0  0  0  0  0
  -23.7660   -8.4060   22.1180 C   0  0  0  0  0  3  0  0  0  0  0  0
  -22.6060   -8.1630   21.3430 C   0  0  0  0  0  0  0  0  0  0  0  0
  -22.2110   -9.1100   20.3810 C   0  0  0  0  0  3  0  0  0  0  0  0
  -22.9410  -10.2970   20.2040 C   0  0  0  0  0  3  0  0  0  0  0  0
  -21.8480   -7.0200   21.4290 O   0  0  0  0  0  0  0  0  0  0  0  0
  -21.7670   -6.2930   22.5900 C   0  0  0  0  0  0  0  0  0  0  0  0
  -21.3050   -6.8630   23.7970 C   0  0  0  0  0  3  0  0  0  0  0  0
  -21.1780   -6.0620   24.9510 C   0  0  0  0  0  3  0  0  0  0  0  0
  -21.4980   -4.6930   24.8950 C   0  0  0  0  0  0  0  0  0  0  0  0
  -21.9500   -4.1210   23.6920 C   0  0  0  0  0  3  0  0  0  0  0  0
  -22.0810   -4.9200   22.5420 C   0  0  0  0  0  0  0  0  0  0  0  0
  -22.4990   -4.3600   21.3810 F   0  0  0  0  0  0  0  0  0  0  0  0
  -21.3670   -3.9210   25.9990 F   0  0  0  0  0  0  0  0  0  0  0  0
  -22.9520  -13.6550   21.0480 C   0  0  0  0  0  0  0  0  0  0  0  0
  -22.2000  -12.9730   21.9080 N   0  0  0  0  0  0  0  0  0  0  0  0
  -22.5270  -14.6740   20.5050 O   0  0  0  0  0  0  0  0  0  0  0  0
  -22.5490  -12.1480   22.3750 H   0  0  0  0  0  0  0  0  0  0  0  0
  -21.2570  -13.2830   22.1030 H   0  0  0  0  0  0  0  0  0  0  0  0
  -25.5960  -15.3080   20.2480 N   0  0  0  0  0  0  0  0  0  0  0  0
  -24.8180  -15.9540   20.3210 H   0  0  0  0  0  0  0  0  0  0  0  0
  -26.4380  -15.7460   19.8970 H   0  0  0  0  0  0  0  0  0  0  0  0
  -27.7400  -24.2530   19.5000 O   0  0  0  0  0  1  0  0  0  0  0  0
  -27.4740  -25.0470   21.9000 O   0  0  0  0  0  1  0  0  0  0  0  0
  -28.2610  -25.0220   20.6530 S   0  0  1  0  0  0  0  0  0  0  0  0
  -28.3810  -26.6490   20.1190 O   0  0  0  0  0  0  0  0  0  0  0  0
  -24.5690  -31.8580   23.1780 C   0  0  0  0  0  0  0  0  0  0  0  0
  -27.2230  -27.4090   20.0950 C   0  0  0  0  0  0  0  0  0  0  0  0
  -23.3680  -30.4530   21.5360 C   0  0  0  0  0  3  0  0  0  0  0  0
  -24.8270  -28.9280   20.0990 C   0  0  0  0  0  0  0  0  0  0  0  0
  -25.8940  -30.8170   21.3360 C   0  0  0  0  0  2  0  0  0  0  0  0
  -25.9830  -29.4450   20.6960 C   0  0  0  0  0  0  0  0  0  0  0  0
  -27.1840  -28.6930   20.6920 C   0  0  0  0  0  3  0  0  0  0  0  0
  -26.0520  -26.9280   19.4630 C   0  0  0  0  0  3  0  0  0  0  0  0
  -24.8560  -27.6700   19.4780 C   0  0  0  0  0  3  0  0  0  0  0  0
  -23.5790  -29.7800   20.1530 C   0  0  0  0  0  2  0  0  0  0  0  0
  -24.6300  -31.0570   22.0760 N   0  0  0  0  0  0  0  0  0  0  0  0
  -23.4860  -32.1250   23.7190 O   0  0  0  0  0  0  0  0  0  0  0  0
  -22.7200  -29.4280   22.4960 C   0  0  0  0  0  0  0  0  0  0  0  0
  -21.3920  -29.2590   22.3830 N   0  0  0  0  0  0  0  0  0  0  0  0
  -23.4080  -28.7900   23.2940 O   0  0  0  0  0  0  0  0  0  0  0  0
  -20.8990  -29.8290   21.7100 H   0  0  0  0  0  0  0  0  0  0  0  0
  -18.0110  -28.0950   22.9210 C   0  0  0  0  0  0  0  0  0  0  0  0
  -20.5750  -28.3200   23.1530 C   0  0  0  0  0  3  0  0  0  0  0  0
  -20.6500  -26.8970   22.5530 C   0  0  0  0  0  2  0  0  0  0  0  0
  -19.5260  -26.6030   21.5540 C   0  0  0  0  0  2  0  0  0  0  0  0
  -18.1590  -26.7530   22.2250 C   0  0  0  0  0  2  0  0  0  0  0  0
  -19.1450  -28.8380   23.3420 C   0  0  0  0  0  0  0  0  0  0  0  0
  -18.9510  -30.0950   23.9550 C   0  0  0  0  0  3  0  0  0  0  0  0
  -17.6560  -30.6110   24.1470 C   0  0  0  0  0  3  0  0  0  0  0  0
  -16.5350  -29.8650   23.7410 C   0  0  0  0  0  3  0  0  0  0  0  0
  -16.7150  -28.6080   23.1350 C   0  0  0  0  0  3  0  0  0  0  0  0
  -25.8530  -32.4910   23.8000 C   0  0  0  0  0  3  0  0  0  0  0  0
  -25.5400  -33.8880   24.1310 N   0  0  0  0  0  0  0  0  0  0  0  0
  -25.8790  -34.9440   23.3780 C   0  0  0  0  0  0  0  0  0  0  0  0
  -26.5590  -34.8440   22.3530 O   0  0  0  0  0  0  0  0  0  0  0  0
  -24.9360  -34.0390   24.9260 H   0  0  0  0  0  0  0  0  0  0  0  0
  -24.1630  -36.7460   22.9960 C   0  0  0  0  0  1  0  0  0  0  0  0
  -25.3830  -36.3310   23.8330 C   0  0  0  0  0  3  0  0  0  0  0  0
  -27.5080  -37.1990   24.7110 C   0  0  0  0  0  1  0  0  0  0  0  0
  -26.4180  -37.3850   23.7560 N   0  0  0  0  0  0  0  0  0  0  0  0
  -26.0080  -38.3010   23.9210 H   0  0  0  0  0  0  0  0  0  0  0  0
  -26.3760  -31.7170   25.0710 C   0  0  1  0  0  0  0  0  0  0  0  0
  -25.2900  -31.4760   26.1460 C   0  0  0  0  0  1  0  0  0  0  0  0
  -26.9590  -30.3430   24.6710 C   0  0  0  0  0  1  0  0  0  0  0  0
  -27.5290  -32.5120   25.7280 C   0  0  0  0  0  1  0  0  0  0  0  0
  1  5  1  0
  2  3  2  0
  2  5  1  0
  4  1  2  0
  6  1  1  0
  7  8  1  0
  7  6  1  0
  8  2  1  0
  9 10  2  0
  9 11  1  0
 10 12  1  0
 11 13  2  0
 12  8  1  0
 12 14  2  0
 13 14  1  0
 13 24  1  0
 14 15  1  0
 16 24  1  0
 17 22  1  0
 18 19  1  0
 18 17  1  0
 20 19  1  0
 20 29  1  0
 20 21  1  0
 22 16  1  0
 22 21  1  0
 23 16  2  0
 24 25  1  0
 26 27  2  0
 27 46  1  0
 28 27  1  0
 28 31  1  0
 29 26  1  0
 29 30  1  0
 30 28  2  0
 31 32  1  0
 32 33  2  0
 34 37  1  0
 34 33  1  0
 35 34  2  0
 36 35  1  0
 36 31  2  0
 37 38  1  0
 38 39  1  0
 39 40  2  0
 41 40  1  0
 41 45  1  0
 42 41  2  0
 43 38  2  0
 43 42  1  0
 44 43  1  0
 46 47  1  0
 47 50  1  0
 47 49  1  0
 48 46  2  0
 51 52  1  0
 51 26  1  0
 53 51  1  0
 56 54  1  6
 56  4  1  0
 56 55  1  0
 57 56  1  0
 58 69  2  0
 59 57  1  0
 59 64  1  0
 60 68  1  0
 60 70  1  0
 61 67  1  0
 61 63  1  0
 62 68  1  0
 63 62  1  0
 64 63  2  0
 65 66  1  0
 65 59  2  0
 66 61  2  0
 67 60  1  0
 68 58  1  0
 70 72  2  0
 71 70  1  0
 73 71  1  0
 74 83  2  0
 74 79  1  0
 75 71  1  0
 75 79  1  0
 76 75  1  0
 77 78  1  0
 77 76  1  0
 78 74  1  0
 79 80  2  0
 80 81  1  0
 82 81  2  0
 83 82  1  0
 84 58  1  0
 84 85  1  0
 84 94  1  0
 85 88  1  0
 86 90  1  0
 86 85  1  0
 87 86  2  0
 90 89  1  0
 92 90  1  0
 92 93  1  0
 92 91  1  0
 94 97  1  1
 94 95  1  0
 96 94  1  0
M  ISO  4  16 100  24 100  56 101  57 101
M  END
>  <TORSDO>  (21) 
F 18

>  <SCORE>  (21) 
-14.588

>  <name>  (21) 
20

>  <ligand_id>  (21) 
20

>  <original_smiles>  (21) 
[H]C([H])=C1N(c2c([H])c([H])c([H])c(N([H])C(=O)N3C([H])([H])C([H])([H])C([H])([H])C([H])(n4nc(-c5c([H])c([H])c(Oc6c([H])c([H])c(F)c([H])c6F)c([H])c5[H])c(C(=O)N([H])[H])c4N([H])[H])C3([H])[H])c2Cl)C([H])([H])C([H])([H])C(=C([H])S(=O)(=O)Oc2c([H])c([H])c3c(c2[H])C([H])([H])N(C(=O)C([H])(N([H])C(=O)C([H])(N([H])C([H])([H])[H])C([H])([H])[H])C(C([H])([H])[H])(C([H])([H])[H])C([H])([H])[H])C([H])(C(=O)N([H])C2([H])c4c([H])c([H])c([H])c([H])c4C([H])([H])C([H])([H])C2([H])[H])C3([H])[H])C1([H])[H]

>  <smiles>  (21) 
[H]C([H])=C1N(c2c([H])c([H])c([H])c(N([H])C(=O)N3C([H])([H])C([H])([H])C([H])([H])C([H])(n4nc(-c5c([H])c([H])c(Oc6c([H])c([H])c(F)c([H])c6F)c([H])c5[H])c(C(=O)N([H])[H])c4N([H])[H])C3([H])[H])c2Cl)C([H])([H])C([H])([H])C(=C([H])S(=O)(=O)Oc2c([H])c([H])c3c(c2[H])C([H])([H])N(C(=O)C([H])(N([H])C(=O)C([H])(N([H])C([H])([H])[H])C([H])([H])[H])C(C([H])([H])[H])(C([H])([H])[H])C([H])([H])[H])C([H])(C(=O)N([H])C2([H])c4c([H])c([H])c([H])c([H])c4C([H])([H])C([H])([H])C2([H])[H])C3([H])[H])C1([H])[H]

$$$$
21:0:0
     RDKit          3D

 98106  0  0  1  0  0  0  0  0999 V2000
  -29.0360  -20.7380   20.3370 C   0  0  0  0  0  0  0  0  0  0  0  0
  -27.7120  -20.6180   20.2560 N   0  0  0  0  0  4  0  0  0  0  0  0
  -29.5830  -21.9630   20.1390 N   0  0  0  0  0  0  0  0  0  0  0  0
  -27.1080  -21.3820   20.0090 H   0  0  0  0  0  0  0  0  0  0  0  0
  -27.2990  -19.7180   20.4430 H   0  0  0  0  0  0  0  0  0  0  0  0
  -30.5940  -22.0170   20.1840 H   0  0  0  0  0  0  0  0  0  0  0  0
  -30.8540  -19.7180   21.6660 C   0  0  0  0  0  3  0  0  0  0  0  0
  -31.2510  -17.3130   21.7560 C   0  0  0  0  0  3  0  0  0  0  0  0
  -29.8300  -19.5370   20.7060 C   0  0  0  0  0  0  0  0  0  0  0  0
  -29.5540  -18.2100   20.2250 C   0  0  0  0  0  0  0  0  0  0  0  0
  -30.2380  -17.0930   20.7980 C   0  0  0  0  0  0  0  0  0  0  0  0
  -31.5710  -18.6180   22.1690 C   0  0  0  0  0  0  0  0  0  0  0  0
  -28.5570  -17.9580   19.0910 C   0  0  0  0  0  1  0  0  0  0  0  0
  -32.5430  -18.8180   23.0910 F   0  0  0  0  0  0  0  0  0  0  0  0
  -30.6020  -14.7270   20.0830 C   0  0  0  0  0  0  0  0  0  0  0  0
  -30.2970  -12.5740   18.9180 C   0  0  0  0  0  2  0  0  0  0  0  0
  -29.2780  -12.7630   17.7740 C   0  0  0  0  0  2  0  0  0  0  0  0
  -27.8330  -12.5940   18.2880 C   0  0  0  0  0  2  0  0  0  0  0  0
  -27.5490  -13.4110   19.5810 C   0  0  0  0  0  3  0  0  0  0  0  0
  -28.6730  -13.1950   20.6200 C   0  0  0  0  0  2  0  0  0  0  0  0
  -29.9510  -13.5380   19.9730 N   0  0  0  0  0  0  0  0  0  0  0  0
  -31.7310  -14.9230   19.6270 O   0  0  0  0  0  0  0  0  0  0  0  0
  -29.8320  -15.7490   20.5130 N   0  0  0  0  0  0  0  0  0  0  0  0
  -28.8590  -15.5330   20.6540 H   0  0  0  0  0  0  0  0  0  0  0  0
  -25.1940  -13.9750   20.4590 C   0  0  0  0  0  0  0  0  0  0  0  0
  -24.1590  -13.1810   20.8740 C   0  0  0  0  0  0  0  0  0  0  0  0
  -24.6280  -11.8330   20.7740 C   0  0  0  0  0  0  0  0  0  0  0  0
  -26.2300  -13.1100   20.1360 N   0  0  0  0  0  0  0  0  0  0  0  0
  -25.8960  -11.8170   20.3830 N   0  0  0  0  0  0  0  0  0  0  0  0
  -23.9240  -10.5590   20.9690 C   0  0  0  0  0  0  0  0  0  0  0  0
  -24.3870   -9.5950   21.8910 C   0  0  0  0  0  3  0  0  0  0  0  0
  -23.6860   -8.3850   22.0750 C   0  0  0  0  0  3  0  0  0  0  0  0
  -22.5080   -8.1280   21.3350 C   0  0  0  0  0  0  0  0  0  0  0  0
  -22.0640   -9.0800   20.4020 C   0  0  0  0  0  3  0  0  0  0  0  0
  -22.7670  -10.2830   20.2150 C   0  0  0  0  0  3  0  0  0  0  0  0
  -21.7750   -6.9690   21.4290 O   0  0  0  0  0  0  0  0  0  0  0  0
  -21.7200   -6.2440   22.5920 C   0  0  0  0  0  0  0  0  0  0  0  0
  -21.2170   -6.7960   23.7910 C   0  0  0  0  0  3  0  0  0  0  0  0
  -21.1110   -5.9950   24.9450 C   0  0  0  0  0  3  0  0  0  0  0  0
  -21.5010   -4.6420   24.9020 C   0  0  0  0  0  0  0  0  0  0  0  0
  -21.9990   -4.0900   23.7090 C   0  0  0  0  0  3  0  0  0  0  0  0
  -22.1060   -4.8890   22.5560 C   0  0  0  0  0  0  0  0  0  0  0  0
  -22.5660   -4.3480   21.4030 F   0  0  0  0  0  0  0  0  0  0  0  0
  -21.3910   -3.8680   26.0070 F   0  0  0  0  0  0  0  0  0  0  0  0
  -22.7770  -13.6360   21.2430 C   0  0  0  0  0  0  0  0  0  0  0  0
  -22.1000  -12.9030   22.1210 N   0  0  0  0  0  0  0  0  0  0  0  0
  -22.3040  -14.6770   20.7880 O   0  0  0  0  0  0  0  0  0  0  0  0
  -22.4950  -12.0630   22.5170 H   0  0  0  0  0  0  0  0  0  0  0  0
  -21.1720  -13.1850   22.4010 H   0  0  0  0  0  0  0  0  0  0  0  0
  -25.3300  -15.3530   20.3130 N   0  0  0  0  0  0  0  0  0  0  0  0
  -24.5440  -15.9780   20.4630 H   0  0  0  0  0  0  0  0  0  0  0  0
  -26.1140  -15.8080   19.8660 H   0  0  0  0  0  0  0  0  0  0  0  0
  -28.8740  -23.2340   19.7830 C   0  0  0  0  0  2  0  0  0  0  0  0
  -28.8440  -23.8490   22.2310 C   0  0  0  0  0  1  0  0  0  0  0  0
  -30.4680  -25.0120   20.7230 C   0  0  0  0  0  1  0  0  0  0  0  0
  -29.0530  -24.4110   20.8020 C   0  0  1  0  0  0  0  0  0  0  0  0
  -27.9510  -25.5140   20.5670 C   0  0  0  0  0  2  0  0  0  0  0  0
  -28.2560  -26.8150   19.9930 O   0  0  0  0  0  0  0  0  0  0  0  0
  -24.5330  -31.9840   23.2160 C   0  0  0  0  0  0  0  0  0  0  0  0
  -27.1320  -27.6330   19.9520 C   0  0  0  0  0  0  0  0  0  0  0  0
  -23.2990  -30.6140   21.5700 C   0  0  0  0  0  3  0  0  0  0  0  0
  -24.7320  -29.1390   20.0610 C   0  0  0  0  0  0  0  0  0  0  0  0
  -25.8190  -31.0020   21.3190 C   0  0  0  0  0  2  0  0  0  0  0  0
  -25.9030  -29.6500   20.6330 C   0  0  0  0  0  0  0  0  0  0  0  0
  -27.1110  -28.9060   20.5760 C   0  0  0  0  0  3  0  0  0  0  0  0
  -25.9490  -27.1710   19.3340 C   0  0  0  0  0  3  0  0  0  0  0  0
  -24.7520  -27.9020   19.3990 C   0  0  0  0  0  3  0  0  0  0  0  0
  -23.4790  -29.9780   20.1660 C   0  0  0  0  0  2  0  0  0  0  0  0
  -24.5700  -31.2110   22.0940 N   0  0  0  0  0  0  0  0  0  0  0  0
  -23.4620  -32.2340   23.7900 O   0  0  0  0  0  0  0  0  0  0  0  0
  -22.6830  -29.5590   22.5180 C   0  0  0  0  0  0  0  0  0  0  0  0
  -21.3620  -29.3500   22.4040 N   0  0  0  0  0  0  0  0  0  0  0  0
  -23.3900  -28.9360   23.3150 O   0  0  0  0  0  0  0  0  0  0  0  0
  -20.8480  -29.9160   21.7440 H   0  0  0  0  0  0  0  0  0  0  0  0
  -18.0320  -28.0280   22.9120 C   0  0  0  0  0  0  0  0  0  0  0  0
  -20.5840  -28.3670   23.1570 C   0  0  0  0  0  3  0  0  0  0  0  0
  -20.7300  -26.9560   22.5460 C   0  0  0  0  0  2  0  0  0  0  0  0
  -19.6180  -26.6030   21.5560 C   0  0  0  0  0  2  0  0  0  0  0  0
  -18.2480  -26.6860   22.2360 C   0  0  0  0  0  2  0  0  0  0  0  0
  -19.1310  -28.8220   23.3380 C   0  0  0  0  0  0  0  0  0  0  0  0
  -18.8790  -30.0720   23.9440 C   0  0  0  0  0  3  0  0  0  0  0  0
  -17.5630  -30.5340   24.1210 C   0  0  0  0  0  3  0  0  0  0  0  0
  -16.4780  -29.7410   23.7080 C   0  0  0  0  0  3  0  0  0  0  0  0
  -16.7130  -28.4880   23.1140 C   0  0  0  0  0  3  0  0  0  0  0  0
  -25.8290  -32.6110   23.8160 C   0  0  0  0  0  3  0  0  0  0  0  0
  -26.3710  -31.8350   25.0780 C   0  0  1  0  0  0  0  0  0  0  0  0
  -25.2930  -31.5890   26.1600 C   0  0  0  0  0  1  0  0  0  0  0  0
  -26.9510  -30.4600   24.6680 C   0  0  0  0  0  1  0  0  0  0  0  0
  -27.5290  -32.6300   25.7270 C   0  0  0  0  0  1  0  0  0  0  0  0
  -25.5310  -34.0080   24.1540 N   0  0  0  0  0  0  0  0  0  0  0  0
  -25.8590  -35.0630   23.3970 C   0  0  0  0  0  0  0  0  0  0  0  0
  -26.5150  -34.9620   22.3570 O   0  0  0  0  0  0  0  0  0  0  0  0
  -24.9480  -34.1610   24.9620 H   0  0  0  0  0  0  0  0  0  0  0  0
  -24.1440  -36.8680   23.0420 C   0  0  0  0  0  1  0  0  0  0  0  0
  -25.3770  -36.4500   23.8600 C   0  0  0  0  0  3  0  0  0  0  0  0
  -27.5040  -37.3170   24.7240 C   0  0  0  0  0  1  0  0  0  0  0  0
  -26.4170  -37.4970   23.7670 N   0  0  0  0  0  0  0  0  0  0  0  0
  -26.0160  -38.4200   23.9110 H   0  0  0  0  0  0  0  0  0  0  0  0
  1  9  1  0
  2  1  2  0
  2  5  1  0
  3  6  1  0
  3  1  1  0
  4  2  1  0
  7 12  1  0
  8 12  2  0
  9  7  2  0
 10  9  1  0
 10 11  2  0
 11  8  1  0
 12 14  1  0
 13 10  1  0
 15 23  1  0
 16 21  1  0
 17 18  1  0
 17 16  1  0
 19 18  1  0
 19 28  1  0
 19 20  1  0
 21 15  1  0
 21 20  1  0
 22 15  2  0
 23 24  1  0
 23 11  1  0
 25 26  2  0
 26 45  1  0
 27 26  1  0
 27 30  1  0
 28 29  1  0
 28 25  1  0
 29 27  2  0
 30 31  1  0
 31 32  2  0
 33 36  1  0
 33 32  1  0
 34 33  2  0
 35 34  1  0
 35 30  2  0
 36 37  1  0
 37 38  1  0
 38 39  2  0
 40 39  1  0
 40 44  1  0
 41 40  2  0
 42 37  2  0
 42 41  1  0
 43 42  1  0
 45 46  1  0
 46 49  1  0
 46 48  1  0
 47 45  2  0
 50 25  1  0
 50 51  1  0
 52 50  1  0
 53  3  1  0
 53 56  1  0
 56 55  1  1
 56 54  1  0
 57 56  1  0
 58 57  1  0
 59 70  2  0
 60 58  1  0
 60 65  1  0
 61 69  1  0
 61 71  1  0
 62 68  1  0
 62 64  1  0
 63 69  1  0
 64 63  1  0
 65 64  2  0
 66 67  1  0
 66 60  2  0
 67 62  2  0
 68 61  1  0
 69 59  1  0
 71 73  2  0
 72 71  1  0
 74 72  1  0
 75 84  2  0
 75 80  1  0
 76 72  1  0
 76 80  1  0
 77 76  1  0
 78 79  1  0
 78 77  1  0
 79 75  1  0
 80 81  2  0
 81 82  1  0
 83 82  2  0
 84 83  1  0
 85 59  1  0
 85 90  1  0
 85 86  1  0
 86 89  1  1
 86 87  1  0
 88 86  1  0
 90 93  1  0
 91 95  1  0
 91 90  1  0
 92 91  2  0
 95 94  1  0
 97 95  1  0
 97 98  1  0
 97 96  1  0
M  ISO  4  15 100  23 100  57 101  58 101
M  END
>  <TORSDO>  (22) 
F 20

>  <SCORE>  (22) 
-13.697

>  <name>  (22) 
21

>  <ligand_id>  (22) 
21

>  <original_smiles>  (22) 
[H]c1c([H])c([H])c2c(c1[H])C([H])([H])C([H])([H])C([H])([H])C2([H])N([H])C(=O)C1([H])N(C(=O)C([H])(N([H])C(=O)C([H])(N([H])C([H])([H])[H])C([H])([H])[H])C(C([H])([H])[H])(C([H])([H])[H])C([H])([H])[H])C([H])([H])c2c([H])c(OC([H])([H])C(C([H])([H])[H])(C([H])([H])[H])C([H])([H])[N+]([H])=C(c3c([H])c(F)c([H])c(N([H])C(=O)N4C([H])([H])C([H])([H])C([H])([H])C([H])(n5nc(-c6c([H])c([H])c(Oc7c([H])c([H])c(F)c([H])c7F)c([H])c6[H])c(C(=O)N([H])[H])c5N([H])[H])C4([H])[H])c3C([H])([H])[H])N([H])[H])c([H])c([H])c2C1([H])[H]

>  <smiles>  (22) 
[H]c1c([H])c([H])c2c(c1[H])C([H])([H])C([H])([H])C([H])([H])C2([H])N([H])C(=O)C1([H])N(C(=O)C([H])(N([H])C(=O)C([H])(N([H])C([H])([H])[H])C([H])([H])[H])C(C([H])([H])[H])(C([H])([H])[H])C([H])([H])[H])C([H])([H])c2c([H])c(OC([H])([H])C(C([H])([H])[H])(C([H])([H])[H])C([H])([H])[N+]([H])=C(c3c([H])c(F)c([H])c(N([H])C(=O)N4C([H])([H])C([H])([H])C([H])([H])C([H])(n5nc(-c6c([H])c([H])c(Oc7c([H])c([H])c(F)c([H])c7F)c([H])c6[H])c(C(=O)N([H])[H])c5N([H])[H])C4([H])[H])c3C([H])([H])[H])N([H])[H])c([H])c([H])c2C1([H])[H]

$$$$
22:0:0
     RDKit          3D

 93101  0  0  1  0  0  0  0  0999 V2000
  -28.5120  -22.7570   20.4440 C   0  0  0  0  0  0  0  0  0  0  0  0
  -30.5640  -21.7810   21.4540 C   0  0  0  0  0  1  0  0  0  0  0  0
  -29.2000  -21.6920   20.9320 N   0  0  0  0  0  0  0  0  0  0  0  0
  -27.3890  -22.6100   19.9510 O   0  0  0  0  0  0  0  0  0  0  0  0
  -28.6090  -20.3370   20.9830 C   0  0  0  0  0  2  0  0  0  0  0  0
  -30.5420  -17.0640   18.8300 C   0  0  0  0  0  3  0  0  0  0  0  0
  -30.4510  -18.3250   18.2210 C   0  0  0  0  0  3  0  0  0  0  0  0
  -29.3980  -17.9430   20.7880 C   0  0  0  0  0  3  0  0  0  0  0  0
  -29.3160  -19.2250   20.1900 C   0  0  0  0  0  0  0  0  0  0  0  0
  -30.0130  -16.8530   20.1250 C   0  0  0  0  0  0  0  0  0  0  0  0
  -29.8330  -19.4020   18.8780 C   0  0  0  0  0  0  0  0  0  0  0  0
  -29.7180  -20.8800   17.9890 Cl  0  0  0  0  0  0  0  0  0  0  0  0
  -30.7620  -14.5070   20.3840 C   0  0  0  0  0  0  0  0  0  0  0  0
  -30.4670  -12.3370   19.2840 C   0  0  0  0  0  2  0  0  0  0  0  0
  -29.5370  -12.5570   18.0700 C   0  0  0  0  0  2  0  0  0  0  0  0
  -28.0590  -12.4370   18.4890 C   0  0  0  0  0  2  0  0  0  0  0  0
  -27.7190  -13.2780   19.7490 C   0  0  0  0  0  3  0  0  0  0  0  0
  -28.7660  -13.0520   20.8660 C   0  0  0  0  0  2  0  0  0  0  0  0
  -30.0990  -13.3250   20.3060 N   0  0  0  0  0  0  0  0  0  0  0  0
  -31.9220  -14.6560   19.9880 O   0  0  0  0  0  0  0  0  0  0  0  0
  -30.0070  -15.5640   20.7440 N   0  0  0  0  0  0  0  0  0  0  0  0
  -29.1850  -15.3430   21.2850 H   0  0  0  0  0  0  0  0  0  0  0  0
  -25.3140  -13.8960   20.4350 C   0  0  0  0  0  0  0  0  0  0  0  0
  -24.2390  -13.1290   20.8020 C   0  0  0  0  0  0  0  0  0  0  0  0
  -24.7010  -11.7770   20.7920 C   0  0  0  0  0  0  0  0  0  0  0  0
  -26.3600  -13.0120   20.2210 N   0  0  0  0  0  0  0  0  0  0  0  0
  -25.9940  -11.7340   20.4950 N   0  0  0  0  0  0  0  0  0  0  0  0
  -23.9690  -10.5180   20.9890 C   0  0  0  0  0  0  0  0  0  0  0  0
  -24.3940   -9.5570   21.9320 C   0  0  0  0  0  3  0  0  0  0  0  0
  -23.6680   -8.3620   22.1160 C   0  0  0  0  0  3  0  0  0  0  0  0
  -22.5020   -8.1160   21.3550 C   0  0  0  0  0  0  0  0  0  0  0  0
  -22.0940   -9.0660   20.4020 C   0  0  0  0  0  3  0  0  0  0  0  0
  -22.8210  -10.2540   20.2160 C   0  0  0  0  0  3  0  0  0  0  0  0
  -21.7420   -6.9750   21.4510 O   0  0  0  0  0  0  0  0  0  0  0  0
  -21.6880   -6.2410   22.6080 C   0  0  0  0  0  0  0  0  0  0  0  0
  -21.2500   -6.8050   23.8260 C   0  0  0  0  0  3  0  0  0  0  0  0
  -21.1400   -5.9970   24.9760 C   0  0  0  0  0  3  0  0  0  0  0  0
  -21.4580   -4.6280   24.9090 C   0  0  0  0  0  0  0  0  0  0  0  0
  -21.8870   -4.0640   23.6940 C   0  0  0  0  0  3  0  0  0  0  0  0
  -21.9990   -4.8690   22.5480 C   0  0  0  0  0  0  0  0  0  0  0  0
  -22.3930   -4.3150   21.3770 F   0  0  0  0  0  0  0  0  0  0  0  0
  -21.3470   -3.8490   26.0130 F   0  0  0  0  0  0  0  0  0  0  0  0
  -22.8380  -13.6090   21.0540 C   0  0  0  0  0  0  0  0  0  0  0  0
  -22.1000  -12.9270   21.9230 N   0  0  0  0  0  0  0  0  0  0  0  0
  -22.4040  -14.6270   20.5160 O   0  0  0  0  0  0  0  0  0  0  0  0
  -22.4650  -12.1080   22.3870 H   0  0  0  0  0  0  0  0  0  0  0  0
  -21.1580  -13.2290   22.1270 H   0  0  0  0  0  0  0  0  0  0  0  0
  -25.4850  -15.2640   20.2440 N   0  0  0  0  0  0  0  0  0  0  0  0
  -24.7330  -15.9330   20.3600 H   0  0  0  0  0  0  0  0  0  0  0  0
  -26.3480  -15.6900   19.9290 H   0  0  0  0  0  0  0  0  0  0  0  0
  -29.1120  -24.1920   20.4970 C   0  0  0  0  0  2  0  0  0  0  0  0
  -28.0630  -25.2390   20.0550 C   0  0  0  0  0  2  0  0  0  0  0  0
  -28.3360  -26.6510   20.2030 O   0  0  0  0  0  0  0  0  0  0  0  0
  -24.5850  -31.8920   23.2700 C   0  0  0  0  0  0  0  0  0  0  0  0
  -27.1970  -27.4460   20.1500 C   0  0  0  0  0  0  0  0  0  0  0  0
  -23.3710  -30.5030   21.6280 C   0  0  0  0  0  3  0  0  0  0  0  0
  -24.8150  -28.9870   20.1830 C   0  0  0  0  0  0  0  0  0  0  0  0
  -25.9020  -30.8550   21.4240 C   0  0  0  0  0  2  0  0  0  0  0  0
  -25.9830  -29.4920   20.7670 C   0  0  0  0  0  0  0  0  0  0  0  0
  -27.1790  -28.7300   20.7490 C   0  0  0  0  0  3  0  0  0  0  0  0
  -26.0030  -26.9840   19.5340 C   0  0  0  0  0  3  0  0  0  0  0  0
  -24.8210  -27.7320   19.5620 C   0  0  0  0  0  3  0  0  0  0  0  0
  -23.5740  -29.8430   20.2430 C   0  0  0  0  0  2  0  0  0  0  0  0
  -24.6380  -31.0980   22.1650 N   0  0  0  0  0  0  0  0  0  0  0  0
  -23.5050  -32.1610   23.8140 O   0  0  0  0  0  0  0  0  0  0  0  0
  -22.7230  -29.4700   22.5810 C   0  0  0  0  0  0  0  0  0  0  0  0
  -21.3990  -29.2800   22.4510 N   0  0  0  0  0  0  0  0  0  0  0  0
  -23.4080  -28.8460   23.3950 O   0  0  0  0  0  0  0  0  0  0  0  0
  -20.9050  -29.8380   21.7710 H   0  0  0  0  0  0  0  0  0  0  0  0
  -18.0330  -28.0600   22.9330 C   0  0  0  0  0  0  0  0  0  0  0  0
  -20.5870  -28.3360   23.2180 C   0  0  0  0  0  3  0  0  0  0  0  0
  -20.7030  -26.9050   22.6440 C   0  0  0  0  0  2  0  0  0  0  0  0
  -19.6090  -26.5730   21.6230 C   0  0  0  0  0  2  0  0  0  0  0  0
  -18.2230  -26.7110   22.2600 C   0  0  0  0  0  2  0  0  0  0  0  0
  -19.1440  -28.8300   23.3690 C   0  0  0  0  0  0  0  0  0  0  0  0
  -18.9140  -30.0940   23.9540 C   0  0  0  0  0  3  0  0  0  0  0  0
  -17.6050  -30.5880   24.1100 C   0  0  0  0  0  3  0  0  0  0  0  0
  -16.5080  -29.8130   23.6940 C   0  0  0  0  0  3  0  0  0  0  0  0
  -16.7230  -28.5520   23.1110 C   0  0  0  0  0  3  0  0  0  0  0  0
  -25.8730  -32.5200   23.8870 C   0  0  0  0  0  3  0  0  0  0  0  0
  -26.3940  -31.7450   25.1580 C   0  0  1  0  0  0  0  0  0  0  0  0
  -25.3070  -31.5080   26.2330 C   0  0  0  0  0  1  0  0  0  0  0  0
  -26.9720  -30.3680   24.7590 C   0  0  0  0  0  1  0  0  0  0  0  0
  -27.5480  -32.5380   25.8170 C   0  0  0  0  0  1  0  0  0  0  0  0
  -25.5680  -33.9180   24.2170 N   0  0  0  0  0  0  0  0  0  0  0  0
  -25.8920  -34.9680   23.4510 C   0  0  0  0  0  0  0  0  0  0  0  0
  -26.5510  -34.8640   22.4130 O   0  0  0  0  0  0  0  0  0  0  0  0
  -24.9850  -34.0750   25.0260 H   0  0  0  0  0  0  0  0  0  0  0  0
  -24.1610  -36.7600   23.1100 C   0  0  0  0  0  1  0  0  0  0  0  0
  -25.4080  -36.3580   23.9110 C   0  0  0  0  0  3  0  0  0  0  0  0
  -27.5490  -37.2430   24.7240 C   0  0  0  0  0  1  0  0  0  0  0  0
  -26.4400  -37.4110   23.7890 N   0  0  0  0  0  0  0  0  0  0  0  0
  -26.0330  -38.3300   23.9410 H   0  0  0  0  0  0  0  0  0  0  0  0
  1 51  1  0
  1  3  1  0
  3  5  1  0
  3  2  1  0
  4  1  2  0
  6 10  1  0
  7  6  2  0
  7 11  1  0
  9  8  1  0
  9  5  1  0
 10 21  1  0
 10  8  2  0
 11  9  2  0
 12 11  1  0
 13 21  1  0
 14 19  1  0
 15 16  1  0
 15 14  1  0
 17 16  1  0
 17 26  1  0
 17 18  1  0
 19 13  1  0
 19 18  1  0
 20 13  2  0
 21 22  1  0
 23 24  2  0
 24 43  1  0
 25 24  1  0
 25 28  1  0
 26 23  1  0
 26 27  1  0
 27 25  2  0
 28 29  1  0
 29 30  2  0
 31 34  1  0
 31 30  1  0
 32 31  2  0
 33 32  1  0
 33 28  2  0
 34 35  1  0
 35 36  1  0
 36 37  2  0
 38 37  1  0
 38 42  1  0
 39 38  2  0
 40 35  2  0
 40 39  1  0
 41 40  1  0
 43 44  1  0
 44 47  1  0
 44 46  1  0
 45 43  2  0
 48 49  1  0
 48 23  1  0
 50 48  1  0
 52 53  1  0
 52 51  1  0
 54 65  2  0
 55 53  1  0
 55 60  1  0
 56 64  1  0
 56 66  1  0
 57 63  1  0
 57 59  1  0
 58 64  1  0
 59 58  1  0
 60 59  2  0
 61 62  1  0
 61 55  2  0
 62 57  2  0
 63 56  1  0
 64 54  1  0
 66 68  2  0
 67 66  1  0
 69 67  1  0
 70 79  2  0
 70 75  1  0
 71 67  1  0
 71 75  1  0
 72 71  1  0
 73 74  1  0
 73 72  1  0
 74 70  1  0
 75 76  2  0
 76 77  1  0
 78 77  2  0
 79 78  1  0
 80 54  1  0
 80 85  1  0
 80 81  1  0
 81 84  1  1
 81 82  1  0
 83 81  1  0
 85 88  1  0
 86 90  1  0
 86 85  1  0
 87 86  2  0
 90 89  1  0
 92 90  1  0
 92 93  1  0
 92 91  1  0
M  ISO  4  13 100  21 100  52 101  53 101
M  END
>  <TORSDO>  (23) 
F 20

>  <SCORE>  (23) 
-14.036

>  <name>  (23) 
22

>  <ligand_id>  (23) 
22

>  <original_smiles>  (23) 
[H]c1c([H])c([H])c2c(c1[H])C([H])([H])C([H])([H])C([H])([H])C2([H])N([H])C(=O)C1([H])N(C(=O)C([H])(N([H])C(=O)C([H])(N([H])C([H])([H])[H])C([H])([H])[H])C(C([H])([H])[H])(C([H])([H])[H])C([H])([H])[H])C([H])([H])c2c([H])c(OC([H])([H])C([H])([H])C(=O)N(C([H])([H])[H])C([H])([H])c3c([H])c(N([H])C(=O)N4C([H])([H])C([H])([H])C([H])([H])C([H])(n5nc(-c6c([H])c([H])c(Oc7c([H])c([H])c(F)c([H])c7F)c([H])c6[H])c(C(=O)N([H])[H])c5N([H])[H])C4([H])[H])c([H])c([H])c3Cl)c([H])c([H])c2C1([H])[H]

>  <smiles>  (23) 
[H]c1c([H])c([H])c2c(c1[H])C([H])([H])C([H])([H])C([H])([H])C2([H])N([H])C(=O)C1([H])N(C(=O)C([H])(N([H])C(=O)C([H])(N([H])C([H])([H])[H])C([H])([H])[H])C(C([H])([H])[H])(C([H])([H])[H])C([H])([H])[H])C([H])([H])c2c([H])c(OC([H])([H])C([H])([H])C(=O)N(C([H])([H])[H])C([H])([H])c3c([H])c(N([H])C(=O)N4C([H])([H])C([H])([H])C([H])([H])C([H])(n5nc(-c6c([H])c([H])c(Oc7c([H])c([H])c(F)c([H])c7F)c([H])c6[H])c(C(=O)N([H])[H])c5N([H])[H])C4([H])[H])c([H])c([H])c3Cl)c([H])c([H])c2C1([H])[H]

$$$$
23:0:0
     RDKit          3D

 99107  0  0  1  0  0  0  0  0999 V2000
  -27.8260  -22.5140   18.3650 C   0  0  0  0  0  0  0  0  0  0  0  0
  -28.5190  -21.4770   17.8600 N   0  0  0  0  0  0  0  0  0  0  0  0
  -26.8370  -22.3500   19.0850 O   0  0  0  0  0  0  0  0  0  0  0  0
  -29.3360  -21.6740   17.2950 H   0  0  0  0  0  0  0  0  0  0  0  0
  -28.0330  -20.0900   17.8100 C   0  0  0  0  0  2  0  0  0  0  0  0
  -28.2460  -18.8000   19.9710 C   0  0  0  0  0  3  0  0  0  0  0  0
  -28.7050  -17.7050   20.7320 C   0  0  0  0  0  3  0  0  0  0  0  0
  -30.2960  -17.1740   18.9810 C   0  0  0  0  0  3  0  0  0  0  0  0
  -28.7670  -19.0640   18.6850 C   0  0  0  0  0  0  0  0  0  0  0  0
  -29.8510  -18.2750   18.2040 C   0  0  0  0  0  0  0  0  0  0  0  0
  -29.7040  -16.8460   20.2240 C   0  0  0  0  0  0  0  0  0  0  0  0
  -30.7800  -14.6260   20.5130 C   0  0  0  0  0  0  0  0  0  0  0  0
  -30.5440  -12.4640   19.3730 C   0  0  0  0  0  2  0  0  0  0  0  0
  -29.6210  -12.6920   18.1570 C   0  0  0  0  0  2  0  0  0  0  0  0
  -28.1370  -12.5500   18.5530 C   0  0  0  0  0  2  0  0  0  0  0  0
  -27.7760  -13.3610   19.8290 C   0  0  0  0  0  3  0  0  0  0  0  0
  -28.8130  -13.1110   20.9490 C   0  0  0  0  0  2  0  0  0  0  0  0
  -30.1490  -13.4260   20.4130 N   0  0  0  0  0  0  0  0  0  0  0  0
  -31.9260  -14.8240   20.0950 O   0  0  0  0  0  0  0  0  0  0  0  0
  -30.0070  -15.6430   20.9450 N   0  0  0  0  0  0  0  0  0  0  0  0
  -29.2780  -15.3460   21.5740 H   0  0  0  0  0  0  0  0  0  0  0  0
  -25.3510  -13.9660   20.4560 C   0  0  0  0  0  0  0  0  0  0  0  0
  -24.2770  -13.1930   20.8080 C   0  0  0  0  0  0  0  0  0  0  0  0
  -24.7470  -11.8430   20.8130 C   0  0  0  0  0  0  0  0  0  0  0  0
  -26.4100  -13.0880   20.2710 N   0  0  0  0  0  0  0  0  0  0  0  0
  -26.0450  -11.8080   20.5370 N   0  0  0  0  0  0  0  0  0  0  0  0
  -24.0270  -10.5800   21.0050 C   0  0  0  0  0  0  0  0  0  0  0  0
  -24.4450   -9.6300   21.9620 C   0  0  0  0  0  3  0  0  0  0  0  0
  -23.7270   -8.4240   22.1340 C   0  0  0  0  0  3  0  0  0  0  0  0
  -22.5790   -8.1640   21.3470 C   0  0  0  0  0  0  0  0  0  0  0  0
  -22.1820   -9.1030   20.3800 C   0  0  0  0  0  3  0  0  0  0  0  0
  -22.9000  -10.2980   20.2080 C   0  0  0  0  0  3  0  0  0  0  0  0
  -21.8350   -7.0120   21.4260 O   0  0  0  0  0  0  0  0  0  0  0  0
  -21.7520   -6.2890   22.5890 C   0  0  0  0  0  0  0  0  0  0  0  0
  -21.2790   -6.8600   23.7900 C   0  0  0  0  0  3  0  0  0  0  0  0
  -21.1490   -6.0650   24.9460 C   0  0  0  0  0  3  0  0  0  0  0  0
  -21.4770   -4.6970   24.9020 C   0  0  0  0  0  0  0  0  0  0  0  0
  -21.9440   -4.1230   23.7040 C   0  0  0  0  0  3  0  0  0  0  0  0
  -22.0760   -4.9170   22.5510 C   0  0  0  0  0  0  0  0  0  0  0  0
  -22.5060   -4.3550   21.3950 F   0  0  0  0  0  0  0  0  0  0  0  0
  -21.3470   -3.9310   26.0070 F   0  0  0  0  0  0  0  0  0  0  0  0
  -22.8690  -13.6630   21.0340 C   0  0  0  0  0  0  0  0  0  0  0  0
  -22.1250  -12.9800   21.9000 N   0  0  0  0  0  0  0  0  0  0  0  0
  -22.4310  -14.6700   20.4790 O   0  0  0  0  0  0  0  0  0  0  0  0
  -22.4840  -12.1650   22.3700 H   0  0  0  0  0  0  0  0  0  0  0  0
  -21.1790  -13.2780   22.0930 H   0  0  0  0  0  0  0  0  0  0  0  0
  -25.5110  -15.3360   20.2670 N   0  0  0  0  0  0  0  0  0  0  0  0
  -24.7440  -15.9910   20.3710 H   0  0  0  0  0  0  0  0  0  0  0  0
  -26.3710  -15.7800   19.9710 H   0  0  0  0  0  0  0  0  0  0  0  0
  -31.8550  -17.8570   16.5960 C   0  0  0  0  0  1  0  0  0  0  0  0
  -30.4990  -18.5510   16.8400 C   0  0  2  0  0  0  0  0  0  0  0  0
  -30.7230  -19.8610   16.7080 F   0  0  0  0  0  0  0  0  0  0  0  0
  -29.6590  -18.1630   15.8790 F   0  0  0  0  0  0  0  0  0  0  0  0
  -28.2070  -23.9480   17.9340 C   0  0  0  0  0  2  0  0  0  0  0  0
  -29.0630  -24.6920   18.9650 C   0  0  0  0  0  0  0  0  0  0  0  0
  -30.3230  -24.7870   18.8420 N   0  0  0  0  0  0  0  0  0  0  0  0
  -30.6680  -24.3150   18.0120 H   0  0  0  0  0  0  0  0  0  0  0  0
  -28.3330  -25.3430   20.1490 C   0  0  0  0  0  2  0  0  0  0  0  0
  -28.3900  -26.7900   20.1560 O   0  0  0  0  0  0  0  0  0  0  0  0
  -24.5700  -31.9800   23.2680 C   0  0  0  0  0  0  0  0  0  0  0  0
  -27.2050  -27.5070   20.1880 C   0  0  0  0  0  0  0  0  0  0  0  0
  -23.3610  -30.5680   21.6390 C   0  0  0  0  0  3  0  0  0  0  0  0
  -24.8070  -29.0220   20.2230 C   0  0  0  0  0  0  0  0  0  0  0  0
  -25.8880  -30.9220   21.4310 C   0  0  0  0  0  2  0  0  0  0  0  0
  -25.9700  -29.5450   20.8020 C   0  0  0  0  0  0  0  0  0  0  0  0
  -27.1700  -28.7920   20.7840 C   0  0  0  0  0  3  0  0  0  0  0  0
  -26.0200  -27.0100   19.5980 C   0  0  0  0  0  3  0  0  0  0  0  0
  -24.8270  -27.7520   19.6250 C   0  0  0  0  0  3  0  0  0  0  0  0
  -23.5690  -29.8830   20.2650 C   0  0  0  0  0  2  0  0  0  0  0  0
  -24.6250  -31.1710   22.1700 N   0  0  0  0  0  0  0  0  0  0  0  0
  -23.4890  -32.2530   23.8070 O   0  0  0  0  0  0  0  0  0  0  0  0
  -22.7060  -29.5540   22.6050 C   0  0  0  0  0  0  0  0  0  0  0  0
  -21.3820  -29.3670   22.4730 N   0  0  0  0  0  0  0  0  0  0  0  0
  -23.3870  -28.9340   23.4250 O   0  0  0  0  0  0  0  0  0  0  0  0
  -20.8940  -29.9180   21.7810 H   0  0  0  0  0  0  0  0  0  0  0  0
  -18.0050  -28.1720   22.9630 C   0  0  0  0  0  0  0  0  0  0  0  0
  -20.5630  -28.4330   23.2450 C   0  0  0  0  0  3  0  0  0  0  0  0
  -20.6690  -26.9990   22.6760 C   0  0  0  0  0  2  0  0  0  0  0  0
  -19.5710  -26.6710   21.6590 C   0  0  0  0  0  2  0  0  0  0  0  0
  -18.1850  -26.8180   22.2970 C   0  0  0  0  0  2  0  0  0  0  0  0
  -19.1210  -28.9360   23.3940 C   0  0  0  0  0  0  0  0  0  0  0  0
  -18.9000  -30.2030   23.9770 C   0  0  0  0  0  3  0  0  0  0  0  0
  -17.5950  -30.7080   24.1290 C   0  0  0  0  0  3  0  0  0  0  0  0
  -16.4920  -29.9400   23.7180 C   0  0  0  0  0  3  0  0  0  0  0  0
  -16.6980  -28.6740   23.1410 C   0  0  0  0  0  3  0  0  0  0  0  0
  -25.8560  -32.6110   23.8820 C   0  0  0  0  0  3  0  0  0  0  0  0
  -25.5480  -34.0110   24.2020 N   0  0  0  0  0  0  0  0  0  0  0  0
  -25.8900  -35.0560   23.4360 C   0  0  0  0  0  0  0  0  0  0  0  0
  -26.5650  -34.9440   22.4090 O   0  0  0  0  0  0  0  0  0  0  0  0
  -24.9430  -34.1760   24.9930 H   0  0  0  0  0  0  0  0  0  0  0  0
  -24.1730  -36.8560   23.0560 C   0  0  0  0  0  1  0  0  0  0  0  0
  -25.4050  -36.4500   23.8800 C   0  0  0  0  0  3  0  0  0  0  0  0
  -27.5390  -37.3330   24.7190 C   0  0  0  0  0  1  0  0  0  0  0  0
  -26.4440  -37.4980   23.7680 N   0  0  0  0  0  0  0  0  0  0  0  0
  -26.0390  -38.4220   23.9060 H   0  0  0  0  0  0  0  0  0  0  0  0
  -26.3740  -31.8440   25.1600 C   0  0  1  0  0  0  0  0  0  0  0  0
  -25.2800  -31.6110   26.2280 C   0  0  0  0  0  1  0  0  0  0  0  0
  -26.9590  -30.4660   24.7720 C   0  0  0  0  0  1  0  0  0  0  0  0
  -27.5260  -32.6400   25.8170 C   0  0  0  0  0  1  0  0  0  0  0  0
  1  3  2  0
  2  1  1  0
  4  2  1  0
  5  2  1  0
  5  9  1  0
  6  7  1  0
  8 11  1  0
  9  6  2  0
 10  9  1  0
 10  8  2  0
 11  7  2  0
 11 20  1  0
 12 20  1  0
 13 18  1  0
 14 15  1  0
 14 13  1  0
 16 15  1  0
 16 25  1  0
 16 17  1  0
 18 12  1  0
 18 17  1  0
 19 12  2  0
 20 21  1  0
 22 23  2  0
 23 24  1  0
 23 42  1  0
 24 27  1  0
 25 22  1  0
 25 26  1  0
 26 24  2  0
 27 28  1  0
 28 29  2  0
 30 33  1  0
 30 29  1  0
 31 30  2  0
 32 31  1  0
 32 27  2  0
 33 34  1  0
 34 35  1  0
 35 36  2  0
 37 36  1  0
 37 41  1  0
 38 37  2  0
 39 34  2  0
 39 38  1  0
 40 39  1  0
 42 43  1  0
 43 46  1  0
 43 45  1  0
 44 42  2  0
 47 48  1  0
 47 22  1  0
 49 47  1  0
 51 50  1  1
 51 10  1  0
 52 51  1  0
 53 51  1  0
 54  1  1  0
 54 55  1  0
 55 58  1  0
 56 55  2  0
 57 56  1  0
 58 59  1  0
 59 61  1  0
 60 71  2  0
 61 66  1  0
 62 70  1  0
 62 72  1  0
 63 69  1  0
 63 65  1  0
 64 70  1  0
 65 64  1  0
 66 65  2  0
 67 68  1  0
 67 61  2  0
 68 63  2  0
 69 62  1  0
 70 60  1  0
 72 74  2  0
 73 72  1  0
 75 73  1  0
 76 85  2  0
 76 81  1  0
 77 73  1  0
 77 81  1  0
 78 77  1  0
 79 80  1  0
 79 78  1  0
 80 76  1  0
 81 82  2  0
 82 83  1  0
 84 83  2  0
 85 84  1  0
 86 60  1  0
 86 87  1  0
 86 96  1  0
 87 90  1  0
 88 92  1  0
 88 87  1  0
 89 88  2  0
 92 91  1  0
 94 92  1  0
 94 95  1  0
 94 93  1  0
 96 99  1  1
 96 97  1  0
 98 96  1  0
M  ISO  4  12 100  20 100  58 101  59 101
M  END
>  <TORSDO>  (24) 
F 22

>  <SCORE>  (24) 
-13.494

>  <name>  (24) 
23

>  <ligand_id>  (24) 
23

>  <original_smiles>  (24) 
[H]N=C(C([H])([H])Oc1c([H])c([H])c2c(c1[H])C([H])([H])N(C(=O)C([H])(N([H])C(=O)C([H])(N([H])C([H])([H])[H])C([H])([H])[H])C(C([H])([H])[H])(C([H])([H])[H])C([H])([H])[H])C([H])(C(=O)N([H])C1([H])c3c([H])c([H])c([H])c([H])c3C([H])([H])C([H])([H])C1([H])[H])C2([H])[H])C([H])([H])C(=O)N([H])C([H])([H])c1c([H])c([H])c(N([H])C(=O)N2C([H])([H])C([H])([H])C([H])([H])C([H])(n3nc(-c4c([H])c([H])c(Oc5c([H])c([H])c(F)c([H])c5F)c([H])c4[H])c(C(=O)N([H])[H])c3N([H])[H])C2([H])[H])c([H])c1C(F)(F)C([H])([H])[H]

>  <smiles>  (24) 
[H]N=C(C([H])([H])Oc1c([H])c([H])c2c(c1[H])C([H])([H])N(C(=O)C([H])(N([H])C(=O)C([H])(N([H])C([H])([H])[H])C([H])([H])[H])C(C([H])([H])[H])(C([H])([H])[H])C([H])([H])[H])C([H])(C(=O)N([H])C1([H])c3c([H])c([H])c([H])c([H])c3C([H])([H])C([H])([H])C1([H])[H])C2([H])[H])C([H])([H])C(=O)N([H])C([H])([H])c1c([H])c([H])c(N([H])C(=O)N2C([H])([H])C([H])([H])C([H])([H])C([H])(n3nc(-c4c([H])c([H])c(Oc5c([H])c([H])c(F)c([H])c5F)c([H])c4[H])c(C(=O)N([H])[H])c3N([H])[H])C2([H])[H])c([H])c1C(F)(F)C([H])([H])[H]

$$$$
24:0:0
     RDKit          3D

 95104  0  0  1  0  0  0  0  0999 V2000
  -29.6660  -22.4100   20.9750 C   0  0  0  0  0  0  0  0  0  0  0  0
  -29.4010  -23.9990   21.0470 C   0  0  0  0  0  2  0  0  0  0  0  0
  -28.2720  -23.8910   18.9180 C   0  0  0  0  0  2  0  0  0  0  0  0
  -28.1960  -22.2900   19.0850 C   0  0  0  0  0  2  0  0  0  0  0  0
  -28.2470  -24.7380   20.2390 C   0  0  0  0  0  3  0  0  0  0  0  0
  -29.1580  -21.5780   20.0010 N   0  0  0  0  0  0  0  0  0  0  0  0
  -30.4010  -21.9470   21.8550 O   0  0  0  0  0  0  0  0  0  0  0  0
  -31.2630  -19.0190   18.0770 C   0  0  0  0  0  3  0  0  0  0  0  0
  -31.0590  -17.7670   18.6760 C   0  0  0  0  0  3  0  0  0  0  0  0
  -30.6250  -20.1980   18.5180 C   0  0  0  0  0  0  0  0  0  0  0  0
  -29.5390  -18.8480   20.2460 C   0  0  0  0  0  0  0  0  0  0  0  0
  -29.7480  -20.1990   19.6420 C   0  0  0  0  0  0  0  0  0  0  0  0
  -30.1810  -17.5880   19.7660 C   0  0  0  0  0  0  0  0  0  0  0  0
  -28.5970  -18.7330   21.4300 C   0  0  0  0  0  1  0  0  0  0  0  0
  -30.6500  -14.9400   19.9560 C   0  0  0  0  0  0  0  0  0  0  0  0
  -30.3860  -12.6450   18.9530 C   0  0  0  0  0  2  0  0  0  0  0  0
  -29.3920  -12.7290   17.7730 C   0  0  0  0  0  2  0  0  0  0  0  0
  -27.9500  -12.5330   18.2810 C   0  0  0  0  0  2  0  0  0  0  0  0
  -27.6380  -13.3880   19.5380 C   0  0  0  0  0  3  0  0  0  0  0  0
  -28.7610  -13.3150   20.5960 C   0  0  0  0  0  2  0  0  0  0  0  0
  -30.0100  -13.7060   19.9290 N   0  0  0  0  0  0  0  0  0  0  0  0
  -31.8330  -14.9640   19.5990 O   0  0  0  0  0  0  0  0  0  0  0  0
  -29.9450  -16.1450   20.2140 N   0  0  0  0  0  0  0  0  0  0  0  0
  -29.0390  -15.9920   20.6310 H   0  0  0  0  0  0  0  0  0  0  0  0
  -25.3010  -13.9590   20.4150 C   0  0  0  0  0  0  0  0  0  0  0  0
  -24.2540  -13.1820   20.8240 C   0  0  0  0  0  0  0  0  0  0  0  0
  -24.7100  -11.8300   20.7410 C   0  0  0  0  0  0  0  0  0  0  0  0
  -26.3250  -13.0840   20.1000 N   0  0  0  0  0  0  0  0  0  0  0  0
  -25.9820  -11.7930   20.3600 N   0  0  0  0  0  0  0  0  0  0  0  0
  -23.9860  -10.5670   20.9470 C   0  0  0  0  0  0  0  0  0  0  0  0
  -24.4380   -9.5970   21.8680 C   0  0  0  0  0  3  0  0  0  0  0  0
  -23.7160   -8.4010   22.0620 C   0  0  0  0  0  3  0  0  0  0  0  0
  -22.5240   -8.1670   21.3360 C   0  0  0  0  0  0  0  0  0  0  0  0
  -22.0880   -9.1250   20.4030 C   0  0  0  0  0  3  0  0  0  0  0  0
  -22.8140  -10.3120   20.2080 C   0  0  0  0  0  3  0  0  0  0  0  0
  -21.7720   -7.0210   21.4400 O   0  0  0  0  0  0  0  0  0  0  0  0
  -21.7190   -6.2960   22.6050 C   0  0  0  0  0  0  0  0  0  0  0  0
  -21.2910   -6.8740   23.8200 C   0  0  0  0  0  3  0  0  0  0  0  0
  -21.1810   -6.0780   24.9780 C   0  0  0  0  0  3  0  0  0  0  0  0
  -21.4920   -4.7060   24.9200 C   0  0  0  0  0  0  0  0  0  0  0  0
  -21.9100   -4.1270   23.7090 C   0  0  0  0  0  3  0  0  0  0  0  0
  -22.0190   -4.9210   22.5540 C   0  0  0  0  0  0  0  0  0  0  0  0
  -22.4050   -4.3550   21.3850 F   0  0  0  0  0  0  0  0  0  0  0  0
  -21.3770   -3.9390   26.0270 F   0  0  0  0  0  0  0  0  0  0  0  0
  -22.8740  -13.6610   21.1750 C   0  0  0  0  0  0  0  0  0  0  0  0
  -22.1850  -12.9560   22.0660 N   0  0  0  0  0  0  0  0  0  0  0  0
  -22.4190  -14.6990   20.6970 O   0  0  0  0  0  0  0  0  0  0  0  0
  -22.5670  -12.1180   22.4770 H   0  0  0  0  0  0  0  0  0  0  0  0
  -21.2630  -13.2650   22.3410 H   0  0  0  0  0  0  0  0  0  0  0  0
  -25.4600  -15.3340   20.2560 N   0  0  0  0  0  0  0  0  0  0  0  0
  -24.7010  -15.9830   20.4350 H   0  0  0  0  0  0  0  0  0  0  0  0
  -26.2800  -15.7800   19.8630 H   0  0  0  0  0  0  0  0  0  0  0  0
  -30.7590  -21.5010   16.4100 C   0  0  0  0  0  2  0  0  0  0  0  0
  -30.8910  -21.4220   17.7430 C   0  0  0  0  0  3  0  0  0  0  0  0
  -28.3590  -26.2900   20.1870 O   0  0  0  0  0  0  0  0  0  0  0  0
  -24.6430  -31.8710   23.2330 C   0  0  0  0  0  0  0  0  0  0  0  0
  -27.2500  -27.2030   20.1720 C   0  0  0  0  0  0  0  0  0  0  0  0
  -23.4400  -30.4710   21.5950 C   0  0  0  0  0  3  0  0  0  0  0  0
  -24.8900  -28.8970   20.1700 C   0  0  0  0  0  0  0  0  0  0  0  0
  -25.9900  -30.7600   21.4130 C   0  0  0  0  0  2  0  0  0  0  0  0
  -26.0720  -29.3690   20.7590 C   0  0  0  0  0  0  0  0  0  0  0  0
  -27.2510  -28.5410   20.7340 C   0  0  0  0  0  3  0  0  0  0  0  0
  -26.0380  -26.8130   19.5660 C   0  0  0  0  0  3  0  0  0  0  0  0
  -24.8850  -27.6300   19.5630 C   0  0  0  0  0  3  0  0  0  0  0  0
  -23.6580  -29.7860   20.2190 C   0  0  0  0  0  2  0  0  0  0  0  0
  -24.7120  -31.0550   22.1360 N   0  0  0  0  0  0  0  0  0  0  0  0
  -23.5580  -32.1490   23.7670 O   0  0  0  0  0  0  0  0  0  0  0  0
  -22.7680  -29.4650   22.5600 C   0  0  0  0  0  0  0  0  0  0  0  0
  -21.4400  -29.2910   22.4390 N   0  0  0  0  0  0  0  0  0  0  0  0
  -23.4440  -28.8390   23.3800 O   0  0  0  0  0  0  0  0  0  0  0  0
  -20.9490  -29.8500   21.7540 H   0  0  0  0  0  0  0  0  0  0  0  0
  -18.0640  -28.0800   22.9500 C   0  0  0  0  0  0  0  0  0  0  0  0
  -20.6240  -28.3500   23.2110 C   0  0  0  0  0  3  0  0  0  0  0  0
  -20.7270  -26.9180   22.6350 C   0  0  0  0  0  2  0  0  0  0  0  0
  -19.6240  -26.5920   21.6220 C   0  0  0  0  0  2  0  0  0  0  0  0
  -18.2440  -26.7320   22.2700 C   0  0  0  0  0  2  0  0  0  0  0  0
  -19.1820  -28.8460   23.3780 C   0  0  0  0  0  0  0  0  0  0  0  0
  -18.9610  -30.1050   23.9760 C   0  0  0  0  0  3  0  0  0  0  0  0
  -17.6540  -30.6010   24.1470 C   0  0  0  0  0  3  0  0  0  0  0  0
  -16.5510  -29.8330   23.7360 C   0  0  0  0  0  3  0  0  0  0  0  0
  -16.7570  -28.5730   23.1440 C   0  0  0  0  0  3  0  0  0  0  0  0
  -25.9210  -32.5090   23.8580 C   0  0  0  0  0  3  0  0  0  0  0  0
  -25.6040  -33.9070   24.1960 N   0  0  0  0  0  0  0  0  0  0  0  0
  -25.9190  -34.9660   23.4380 C   0  0  0  0  0  0  0  0  0  0  0  0
  -26.5720  -34.8690   22.3960 O   0  0  0  0  0  0  0  0  0  0  0  0
  -25.0260  -34.0530   25.0100 H   0  0  0  0  0  0  0  0  0  0  0  0
  -24.1670  -36.7490   23.1330 C   0  0  0  0  0  1  0  0  0  0  0  0
  -25.4330  -36.3510   23.9100 C   0  0  0  0  0  3  0  0  0  0  0  0
  -27.5820  -37.2540   24.6840 C   0  0  0  0  0  1  0  0  0  0  0  0
  -26.4530  -37.4130   23.7690 N   0  0  0  0  0  0  0  0  0  0  0  0
  -26.0430  -38.3290   23.9270 H   0  0  0  0  0  0  0  0  0  0  0  0
  -26.4370  -31.7390   25.1360 C   0  0  1  0  0  0  0  0  0  0  0  0
  -25.3450  -31.5010   26.2050 C   0  0  0  0  0  1  0  0  0  0  0  0
  -27.0210  -30.3610   24.7480 C   0  0  0  0  0  1  0  0  0  0  0  0
  -27.5860  -32.5350   25.7980 C   0  0  0  0  0  1  0  0  0  0  0  0
  1  2  1  0
  1  7  2  0
  3  4  1  0
  3  5  1  0
  4  6  1  0
  5 55  1  0
  5  2  1  0
  6  1  1  0
  8 10  2  0
  8  9  1  0
  9 13  2  0
 10 12  1  0
 11 14  1  0
 12  6  1  0
 12 11  2  0
 13 23  1  0
 13 11  1  0
 15 23  1  0
 16 21  1  0
 17 18  1  0
 17 16  1  0
 19 18  1  0
 19 28  1  0
 19 20  1  0
 21 15  1  0
 21 20  1  0
 22 15  2  0
 23 24  1  0
 25 26  2  0
 26 45  1  0
 27 26  1  0
 27 30  1  0
 28 29  1  0
 28 25  1  0
 29 27  2  0
 30 31  1  0
 31 32  2  0
 33 36  1  0
 33 32  1  0
 34 33  2  0
 35 34  1  0
 35 30  2  0
 36 37  1  0
 37 38  1  0
 38 39  2  0
 40 39  1  0
 40 44  1  0
 41 40  2  0
 42 37  2  0
 42 41  1  0
 43 42  1  0
 45 46  1  0
 46 49  1  0
 46 48  1  0
 47 45  2  0
 50 25  1  0
 50 51  1  0
 52 50  1  0
 53 54  2  0
 54 10  1  0
 56 67  2  0
 57 55  1  0
 57 62  1  0
 58 66  1  0
 58 68  1  0
 59 65  1  0
 59 61  1  0
 60 66  1  0
 61 60  1  0
 62 61  2  0
 63 57  2  0
 64 63  1  0
 64 59  2  0
 65 58  1  0
 66 56  1  0
 68 70  2  0
 69 68  1  0
 71 69  1  0
 72 81  2  0
 72 77  1  0
 73 69  1  0
 73 77  1  0
 74 73  1  0
 75 76  1  0
 75 74  1  0
 76 72  1  0
 77 78  2  0
 78 79  1  0
 80 79  2  0
 81 80  1  0
 82 56  1  0
 82 83  1  0
 82 92  1  0
 83 86  1  0
 84 88  1  0
 84 83  1  0
 85 84  2  0
 88 87  1  0
 90 88  1  0
 90 91  1  0
 90 89  1  0
 92 95  1  1
 92 93  1  0
 94 92  1  0
M  ISO  4   5 101  15 100  23 100  55 101
M  END
>  <TORSDO>  (25) 
F 18

>  <SCORE>  (25) 
-13.689

>  <name>  (25) 
24

>  <ligand_id>  (25) 
24

>  <original_smiles>  (25) 
[H]C([H])=C([H])c1c([H])c([H])c(N([H])C(=O)N2C([H])([H])C([H])([H])C([H])([H])C([H])(n3nc(-c4c([H])c([H])c(Oc5c([H])c([H])c(F)c([H])c5F)c([H])c4[H])c(C(=O)N([H])[H])c3N([H])[H])C2([H])[H])c(C([H])([H])[H])c1N1C(=O)C([H])([H])C([H])(Oc2c([H])c([H])c3c(c2[H])C([H])([H])N(C(=O)C([H])(N([H])C(=O)C([H])(N([H])C([H])([H])[H])C([H])([H])[H])C(C([H])([H])[H])(C([H])([H])[H])C([H])([H])[H])C([H])(C(=O)N([H])C2([H])c4c([H])c([H])c([H])c([H])c4C([H])([H])C([H])([H])C2([H])[H])C3([H])[H])C([H])([H])C1([H])[H]

>  <smiles>  (25) 
[H]C([H])=C([H])c1c([H])c([H])c(N([H])C(=O)N2C([H])([H])C([H])([H])C([H])([H])C([H])(n3nc(-c4c([H])c([H])c(Oc5c([H])c([H])c(F)c([H])c5F)c([H])c4[H])c(C(=O)N([H])[H])c3N([H])[H])C2([H])[H])c(C([H])([H])[H])c1N1C(=O)C([H])([H])C([H])(Oc2c([H])c([H])c3c(c2[H])C([H])([H])N(C(=O)C([H])(N([H])C(=O)C([H])(N([H])C([H])([H])[H])C([H])([H])[H])C(C([H])([H])[H])(C([H])([H])[H])C([H])([H])[H])C([H])(C(=O)N([H])C2([H])c4c([H])c([H])c([H])c([H])c4C([H])([H])C([H])([H])C2([H])[H])C3([H])[H])C([H])([H])C1([H])[H]

$$$$
25:0:0
     RDKit          3D

 90 98  0  0  1  0  0  0  0  0999 V2000
  -30.9820  -19.3230   19.7690 C   0  0  0  0  0  3  0  0  0  0  0  0
  -31.0120  -17.9050   19.9330 C   0  0  0  0  0  3  0  0  0  0  0  0
  -28.6320  -19.3530   20.2090 C   0  0  0  0  0  3  0  0  0  0  0  0
  -29.7960  -20.0990   19.8980 C   0  0  0  0  0  0  0  0  0  0  0  0
  -28.6470  -17.9320   20.3900 C   0  0  0  0  0  0  0  0  0  0  0  0
  -29.8450  -17.1590   20.2510 C   0  0  0  0  0  0  0  0  0  0  0  0
  -27.3220  -17.2770   20.7520 C   0  0  0  0  0  1  0  0  0  0  0  0
  -30.5680  -14.6570   19.9510 C   0  0  0  0  0  0  0  0  0  0  0  0
  -30.2960  -12.4090   18.9160 C   0  0  0  0  0  2  0  0  0  0  0  0
  -29.2780  -12.5240   17.7590 C   0  0  0  0  0  2  0  0  0  0  0  0
  -27.8340  -12.3740   18.2780 C   0  0  0  0  0  2  0  0  0  0  0  0
  -27.5550  -13.2510   19.5270 C   0  0  0  0  0  3  0  0  0  0  0  0
  -28.6760  -13.0940   20.5790 C   0  0  0  0  0  2  0  0  0  0  0  0
  -29.9510  -13.4310   19.9240 N   0  0  0  0  0  0  0  0  0  0  0  0
  -31.6940  -14.8130   19.4690 O   0  0  0  0  0  0  0  0  0  0  0  0
  -29.8010  -15.6990   20.4100 N   0  0  0  0  0  0  0  0  0  0  0  0
  -28.9560  -15.3670   20.8470 H   0  0  0  0  0  0  0  0  0  0  0  0
  -25.2260  -13.8750   20.4160 C   0  0  0  0  0  0  0  0  0  0  0  0
  -24.1710  -13.1140   20.8380 C   0  0  0  0  0  0  0  0  0  0  0  0
  -24.6000  -11.7550   20.7360 C   0  0  0  0  0  0  0  0  0  0  0  0
  -26.2340  -12.9820   20.0900 N   0  0  0  0  0  0  0  0  0  0  0  0
  -25.8660  -11.7000   20.3410 N   0  0  0  0  0  0  0  0  0  0  0  0
  -23.8600  -10.5030   20.9370 C   0  0  0  0  0  0  0  0  0  0  0  0
  -24.2950   -9.5270   21.8600 C   0  0  0  0  0  3  0  0  0  0  0  0
  -23.5550   -8.3390   22.0470 C   0  0  0  0  0  3  0  0  0  0  0  0
  -22.3670   -8.1190   21.3110 C   0  0  0  0  0  0  0  0  0  0  0  0
  -21.9510   -9.0830   20.3760 C   0  0  0  0  0  3  0  0  0  0  0  0
  -22.6910  -10.2620   20.1860 C   0  0  0  0  0  3  0  0  0  0  0  0
  -21.5990   -6.9840   21.4090 O   0  0  0  0  0  0  0  0  0  0  0  0
  -21.5150   -6.2700   22.5770 C   0  0  0  0  0  0  0  0  0  0  0  0
  -21.0380   -6.8500   23.7720 C   0  0  0  0  0  3  0  0  0  0  0  0
  -20.9030   -6.0620   24.9330 C   0  0  0  0  0  3  0  0  0  0  0  0
  -21.2360   -4.6950   24.8990 C   0  0  0  0  0  0  0  0  0  0  0  0
  -21.7050   -4.1140   23.7080 C   0  0  0  0  0  3  0  0  0  0  0  0
  -21.8420   -4.9000   22.5490 C   0  0  0  0  0  0  0  0  0  0  0  0
  -22.2750   -4.3300   21.3990 F   0  0  0  0  0  0  0  0  0  0  0  0
  -21.0980   -3.9350   26.0100 F   0  0  0  0  0  0  0  0  0  0  0  0
  -22.8060  -13.6100   21.2180 C   0  0  0  0  0  0  0  0  0  0  0  0
  -22.1290  -12.9110   22.1220 N   0  0  0  0  0  0  0  0  0  0  0  0
  -22.3520  -14.6540   20.7500 O   0  0  0  0  0  0  0  0  0  0  0  0
  -22.5110  -12.0670   22.5220 H   0  0  0  0  0  0  0  0  0  0  0  0
  -21.2160  -13.2250   22.4190 H   0  0  0  0  0  0  0  0  0  0  0  0
  -25.4020  -15.2450   20.2590 N   0  0  0  0  0  0  0  0  0  0  0  0
  -24.6400  -15.8980   20.4050 H   0  0  0  0  0  0  0  0  0  0  0  0
  -26.2080  -15.6700   19.8170 H   0  0  0  0  0  0  0  0  0  0  0  0
  -29.8400  -21.6320   19.7480 C   0  0  0  0  0  3  0  0  0  0  0  0
  -28.8920  -22.5260   19.7710 N   0  0  0  0  0  0  0  0  0  0  0  0
  -29.2530  -23.9900   19.7150 C   0  0  0  0  0  3  0  0  0  0  0  0
  -28.0600  -24.9960   19.4030 C   0  0  0  0  0  3  0  0  0  0  0  0
  -28.2620  -26.4570   19.5820 O   0  0  0  0  0  0  0  0  0  0  0  0
  -24.5180  -31.6010   22.9990 C   0  0  0  0  0  0  0  0  0  0  0  0
  -27.1240  -27.2820   19.6110 C   0  0  0  0  0  0  0  0  0  0  0  0
  -23.2940  -30.2780   21.3140 C   0  0  0  0  0  3  0  0  0  0  0  0
  -24.7290  -28.8440   19.7600 C   0  0  0  0  0  0  0  0  0  0  0  0
  -25.8210  -30.6570   21.0790 C   0  0  0  0  0  2  0  0  0  0  0  0
  -25.9070  -29.3210   20.3500 C   0  0  0  0  0  0  0  0  0  0  0  0
  -27.1060  -28.5530   20.2650 C   0  0  0  0  0  3  0  0  0  0  0  0
  -25.9180  -26.8590   19.0020 C   0  0  0  0  0  3  0  0  0  0  0  0
  -24.7370  -27.6200   19.0780 C   0  0  0  0  0  3  0  0  0  0  0  0
  -23.4780  -29.6870   19.8910 C   0  0  0  0  0  2  0  0  0  0  0  0
  -24.5640  -30.8590   21.8550 N   0  0  0  0  0  0  0  0  0  0  0  0
  -23.4460  -31.8260   23.5770 O   0  0  0  0  0  0  0  0  0  0  0  0
  -22.6760  -29.1940   22.2300 C   0  0  0  0  0  0  0  0  0  0  0  0
  -21.3480  -29.0040   22.1330 N   0  0  0  0  0  0  0  0  0  0  0  0
  -23.3880  -28.5300   22.9870 O   0  0  0  0  0  0  0  0  0  0  0  0
  -20.8320  -29.5940   21.4950 H   0  0  0  0  0  0  0  0  0  0  0  0
  -18.0010  -27.7460   22.6730 C   0  0  0  0  0  0  0  0  0  0  0  0
  -20.5650  -28.0120   22.8690 C   0  0  0  0  0  3  0  0  0  0  0  0
  -20.6580  -26.6210   22.2000 C   0  0  0  0  0  2  0  0  0  0  0  0
  -19.5220  -26.3530   21.2070 C   0  0  0  0  0  2  0  0  0  0  0  0
  -18.1630  -26.4430   21.9070 C   0  0  0  0  0  2  0  0  0  0  0  0
  -19.1290  -28.4890   23.1120 C   0  0  0  0  0  0  0  0  0  0  0  0
  -18.9220  -29.7090   23.7920 C   0  0  0  0  0  3  0  0  0  0  0  0
  -17.6200  -30.1860   24.0350 C   0  0  0  0  0  3  0  0  0  0  0  0
  -16.5080  -29.4380   23.6140 C   0  0  0  0  0  3  0  0  0  0  0  0
  -16.6980  -28.2200   22.9380 C   0  0  0  0  0  3  0  0  0  0  0  0
  -25.8080  -32.2190   23.6230 C   0  0  0  0  0  3  0  0  0  0  0  0
  -26.3700  -31.3870   24.8400 C   0  0  1  0  0  0  0  0  0  0  0  0
  -25.3120  -31.0800   25.9250 C   0  0  0  0  0  1  0  0  0  0  0  0
  -26.9550  -30.0400   24.3570 C   0  0  0  0  0  1  0  0  0  0  0  0
  -27.5320  -32.1570   25.5100 C   0  0  0  0  0  1  0  0  0  0  0  0
  -25.4840  -33.5910   24.0400 N   0  0  0  0  0  0  0  0  0  0  0  0
  -25.7730  -34.6900   23.3310 C   0  0  0  0  0  0  0  0  0  0  0  0
  -26.4100  -34.6570   22.2750 O   0  0  0  0  0  0  0  0  0  0  0  0
  -24.9170  -33.6900   24.8690 H   0  0  0  0  0  0  0  0  0  0  0  0
  -24.0030  -36.4650   23.1340 C   0  0  0  0  0  1  0  0  0  0  0  0
  -25.2770  -36.0420   23.8810 C   0  0  0  0  0  3  0  0  0  0  0  0
  -27.4190  -36.9250   24.6970 C   0  0  0  0  0  1  0  0  0  0  0  0
  -26.2860  -37.1200   23.7930 N   0  0  0  0  0  0  0  0  0  0  0  0
  -25.8690  -38.0230   23.9990 H   0  0  0  0  0  0  0  0  0  0  0  0
  1  4  2  0
  1  2  1  0
  2  6  2  0
  3  5  2  0
  4  3  1  0
  5  7  1  0
  6  5  1  0
  6 16  1  0
  8 16  1  0
  9 14  1  0
 10 11  1  0
 10  9  1  0
 12 11  1  0
 12 21  1  0
 12 13  1  0
 14  8  1  0
 14 13  1  0
 15  8  2  0
 16 17  1  0
 18 19  2  0
 19 38  1  0
 20 19  1  0
 20 23  1  0
 21 22  1  0
 21 18  1  0
 22 20  2  0
 23 24  1  0
 24 25  2  0
 26 29  1  0
 26 25  1  0
 27 26  2  0
 28 27  1  0
 28 23  2  0
 29 30  1  0
 30 31  1  0
 31 32  2  0
 33 32  1  0
 33 37  1  0
 34 33  2  0
 35 30  2  0
 35 34  1  0
 36 35  1  0
 38 39  1  0
 39 42  1  0
 39 41  1  0
 40 38  2  0
 43 44  1  0
 43 18  1  0
 45 43  1  0
 46 47  2  0
 46  4  1  0
 48 47  1  0
 49 50  1  0
 49 48  2  0
 50 52  1  0
 51 62  2  0
 52 57  1  0
 53 61  1  0
 53 63  1  0
 54 60  1  0
 54 56  1  0
 55 61  1  0
 56 55  1  0
 57 56  2  0
 58 59  1  0
 58 52  2  0
 59 54  2  0
 60 53  1  0
 61 51  1  0
 63 65  2  0
 64 63  1  0
 66 64  1  0
 67 76  2  0
 67 72  1  0
 68 64  1  0
 68 72  1  0
 69 68  1  0
 70 71  1  0
 70 69  1  0
 71 67  1  0
 72 73  2  0
 73 74  1  0
 75 74  2  0
 76 75  1  0
 77 51  1  0
 77 82  1  0
 77 78  1  0
 78 81  1  1
 78 79  1  0
 80 78  1  0
 82 85  1  0
 83 87  1  0
 83 82  1  0
 84 83  2  0
 87 86  1  0
 89 87  1  0
 89 90  1  0
 89 88  1  0
M  ISO  4   8 100  16 100  49 101  50 101
M  END
>  <TORSDO>  (26) 
F 19

>  <SCORE>  (26) 
-13.134

>  <name>  (26) 
25

>  <ligand_id>  (26) 
25

>  <original_smiles>  (26) 
[H]C(=NC([H])([H])C([H])([H])Oc1c([H])c([H])c2c(c1[H])C([H])([H])N(C(=O)C([H])(N([H])C(=O)C([H])(N([H])C([H])([H])[H])C([H])([H])[H])C(C([H])([H])[H])(C([H])([H])[H])C([H])([H])[H])C([H])(C(=O)N([H])C1([H])c3c([H])c([H])c([H])c([H])c3C([H])([H])C([H])([H])C1([H])[H])C2([H])[H])c1c([H])c([H])c(N([H])C(=O)N2C([H])([H])C([H])([H])C([H])([H])C([H])(n3nc(-c4c([H])c([H])c(Oc5c([H])c([H])c(F)c([H])c5F)c([H])c4[H])c(C(=O)N([H])[H])c3N([H])[H])C2([H])[H])c(C([H])([H])[H])c1[H]

>  <smiles>  (26) 
[H]C(=NC([H])([H])C([H])([H])Oc1c([H])c([H])c2c(c1[H])C([H])([H])N(C(=O)C([H])(N([H])C(=O)C([H])(N([H])C([H])([H])[H])C([H])([H])[H])C(C([H])([H])[H])(C([H])([H])[H])C([H])([H])[H])C([H])(C(=O)N([H])C1([H])c3c([H])c([H])c([H])c([H])c3C([H])([H])C([H])([H])C1([H])[H])C2([H])[H])c1c([H])c([H])c(N([H])C(=O)N2C([H])([H])C([H])([H])C([H])([H])C([H])(n3nc(-c4c([H])c([H])c(Oc5c([H])c([H])c(F)c([H])c5F)c([H])c4[H])c(C(=O)N([H])[H])c3N([H])[H])C2([H])[H])c(C([H])([H])[H])c1[H]

$$$$
26:0:0
     RDKit          3D

 96104  0  0  1  0  0  0  0  0999 V2000
  -29.7690  -19.2330   21.0200 C   0  0  0  0  0  3  0  0  0  0  0  0
  -32.0740  -18.4720   21.0370 C   0  0  0  0  0  3  0  0  0  0  0  0
  -30.1730  -20.5860   20.7530 C   0  0  0  0  0  0  0  0  0  0  0  0
  -30.7110  -18.1680   21.1630 C   0  0  0  0  0  0  0  0  0  0  0  0
  -31.5730  -20.8380   20.5860 C   0  0  0  0  0  0  0  0  0  0  0  0
  -32.5030  -19.7920   20.8010 C   0  0  0  0  0  0  0  0  0  0  0  0
  -32.1350  -22.2360   20.2970 C   0  0  0  0  0  1  0  0  0  0  0  0
  -29.1670  -21.7400   20.8930 C   0  0  0  0  0  0  0  0  0  0  0  0
  -29.3150  -22.8360   20.1110 N   0  0  0  0  0  0  0  0  0  0  0  0
  -28.3000  -21.6850   21.7690 O   0  0  0  0  0  0  0  0  0  0  0  0
  -29.9270  -22.6420   19.3230 H   0  0  0  0  0  0  0  0  0  0  0  0
  -29.4730  -24.5000   22.0220 C   0  0  0  0  0  1  0  0  0  0  0  0
  -29.2720  -24.2840   20.5110 C   0  0  0  0  0  3  0  0  0  0  0  0
  -28.0970  -25.1590   19.9760 C   0  0  0  0  0  2  0  0  0  0  0  0
  -28.2970  -26.5980   20.1970 O   0  0  0  0  0  0  0  0  0  0  0  0
  -24.5630  -31.9270   23.2490 C   0  0  0  0  0  0  0  0  0  0  0  0
  -27.1740  -27.4160   20.1660 C   0  0  0  0  0  0  0  0  0  0  0  0
  -23.3560  -30.5260   21.6080 C   0  0  0  0  0  3  0  0  0  0  0  0
  -24.8080  -28.9900   20.1780 C   0  0  0  0  0  0  0  0  0  0  0  0
  -25.8940  -30.8610   21.4230 C   0  0  0  0  0  2  0  0  0  0  0  0
  -25.9720  -29.4890   20.7730 C   0  0  0  0  0  0  0  0  0  0  0  0
  -27.1630  -28.7080   20.7630 C   0  0  0  0  0  3  0  0  0  0  0  0
  -25.9870  -26.9680   19.5440 C   0  0  0  0  0  3  0  0  0  0  0  0
  -24.8150  -27.7320   19.5610 C   0  0  0  0  0  3  0  0  0  0  0  0
  -23.5690  -29.8600   20.2250 C   0  0  0  0  0  2  0  0  0  0  0  0
  -24.6230  -31.1190   22.1520 N   0  0  0  0  0  0  0  0  0  0  0  0
  -23.4790  -32.2000   23.7860 O   0  0  0  0  0  0  0  0  0  0  0  0
  -22.6980  -29.5060   22.5630 C   0  0  0  0  0  0  0  0  0  0  0  0
  -21.3760  -29.3170   22.4280 N   0  0  0  0  0  0  0  0  0  0  0  0
  -23.3760  -28.8890   23.3910 O   0  0  0  0  0  0  0  0  0  0  0  0
  -20.8880  -29.8710   21.7380 H   0  0  0  0  0  0  0  0  0  0  0  0
  -18.0050  -28.0940   22.8930 C   0  0  0  0  0  0  0  0  0  0  0  0
  -20.5590  -28.3740   23.1930 C   0  0  0  0  0  3  0  0  0  0  0  0
  -20.6770  -26.9400   22.6280 C   0  0  0  0  0  2  0  0  0  0  0  0
  -19.5900  -26.6010   21.6040 C   0  0  0  0  0  2  0  0  0  0  0  0
  -18.2010  -26.7400   22.2320 C   0  0  0  0  0  2  0  0  0  0  0  0
  -19.1120  -28.8670   23.3310 C   0  0  0  0  0  0  0  0  0  0  0  0
  -18.8770  -30.1320   23.9130 C   0  0  0  0  0  3  0  0  0  0  0  0
  -17.5670  -30.6240   24.0640 C   0  0  0  0  0  3  0  0  0  0  0  0
  -16.4730  -29.8480   23.6430 C   0  0  0  0  0  3  0  0  0  0  0  0
  -16.6940  -28.5870   23.0640 C   0  0  0  0  0  3  0  0  0  0  0  0
  -25.8460  -32.5550   23.8710 C   0  0  0  0  0  3  0  0  0  0  0  0
  -25.5420  -33.9550   24.1850 N   0  0  0  0  0  0  0  0  0  0  0  0
  -25.8900  -35.0010   23.4210 C   0  0  0  0  0  0  0  0  0  0  0  0
  -26.5700  -34.8850   22.3980 O   0  0  0  0  0  0  0  0  0  0  0  0
  -24.9420  -34.1240   24.9790 H   0  0  0  0  0  0  0  0  0  0  0  0
  -24.1890  -36.8120   23.0160 C   0  0  0  0  0  1  0  0  0  0  0  0
  -25.4040  -36.3970   23.8630 C   0  0  0  0  0  3  0  0  0  0  0  0
  -27.5230  -37.2660   24.7500 C   0  0  0  0  0  1  0  0  0  0  0  0
  -26.4500  -37.4400   23.7740 N   0  0  0  0  0  0  0  0  0  0  0  0
  -26.0470  -38.3630   23.9020 H   0  0  0  0  0  0  0  0  0  0  0  0
  -26.3530  -31.7950   25.1560 C   0  0  1  0  0  0  0  0  0  0  0  0
  -25.2520  -31.5720   26.2180 C   0  0  0  0  0  1  0  0  0  0  0  0
  -26.9340  -30.4110   24.7850 C   0  0  0  0  0  1  0  0  0  0  0  0
  -27.5030  -32.5900   25.8170 C   0  0  0  0  0  1  0  0  0  0  0  0
  -34.3610  -19.9580   22.2330 C   0  0  0  0  0  1  0  0  0  0  0  0
  -33.8410  -20.0750   20.9040 O   0  0  0  0  0  0  0  0  0  0  0  0
  -30.3580  -16.7850   21.7670 C   0  0  0  0  0  2  0  0  0  0  0  0
  -30.6940  -14.6460   20.4000 C   0  0  0  0  0  0  0  0  0  0  0  0
  -30.4230  -12.4970   19.1920 C   0  0  0  0  0  2  0  0  0  0  0  0
  -29.4530  -12.6800   18.0050 C   0  0  0  0  0  2  0  0  0  0  0  0
  -27.9900  -12.5200   18.4700 C   0  0  0  0  0  2  0  0  0  0  0  0
  -27.6600  -13.3380   19.7470 C   0  0  0  0  0  3  0  0  0  0  0  0
  -28.7360  -13.1200   20.8270 C   0  0  0  0  0  2  0  0  0  0  0  0
  -30.0370  -13.4640   20.2260 N   0  0  0  0  0  0  0  0  0  0  0  0
  -31.8480  -14.8360   20.0080 O   0  0  0  0  0  0  0  0  0  0  0  0
  -29.9380  -15.6400   20.9210 N   0  0  0  0  0  0  0  0  0  0  0  0
  -28.9710  -15.3850   21.0370 H   0  0  0  0  0  0  0  0  0  0  0  0
  -25.2620  -13.9160   20.4800 C   0  0  0  0  0  0  0  0  0  0  0  0
  -24.2060  -13.1290   20.8590 C   0  0  0  0  0  0  0  0  0  0  0  0
  -24.6820  -11.7820   20.8220 C   0  0  0  0  0  0  0  0  0  0  0  0
  -26.3130  -13.0450   20.2420 N   0  0  0  0  0  0  0  0  0  0  0  0
  -25.9730  -11.7570   20.5050 N   0  0  0  0  0  0  0  0  0  0  0  0
  -23.9700  -10.5090   21.0130 C   0  0  0  0  0  0  0  0  0  0  0  0
  -24.4070   -9.5460   21.9490 C   0  0  0  0  0  3  0  0  0  0  0  0
  -23.6880   -8.3420   22.1280 C   0  0  0  0  0  3  0  0  0  0  0  0
  -22.5190   -8.0950   21.3690 C   0  0  0  0  0  0  0  0  0  0  0  0
  -22.1010   -9.0480   20.4220 C   0  0  0  0  0  3  0  0  0  0  0  0
  -22.8210  -10.2410   20.2420 C   0  0  0  0  0  3  0  0  0  0  0  0
  -21.7770   -6.9430   21.4570 O   0  0  0  0  0  0  0  0  0  0  0  0
  -21.7140   -6.2090   22.6160 C   0  0  0  0  0  0  0  0  0  0  0  0
  -21.2420   -6.7670   23.8240 C   0  0  0  0  0  3  0  0  0  0  0  0
  -21.1350   -5.9630   24.9770 C   0  0  0  0  0  3  0  0  0  0  0  0
  -21.4860   -4.6020   24.9200 C   0  0  0  0  0  0  0  0  0  0  0  0
  -21.9500   -4.0420   23.7160 C   0  0  0  0  0  3  0  0  0  0  0  0
  -22.0600   -4.8420   22.5660 C   0  0  0  0  0  0  0  0  0  0  0  0
  -22.4900   -4.2960   21.4050 F   0  0  0  0  0  0  0  0  0  0  0  0
  -21.3730   -3.8250   26.0240 F   0  0  0  0  0  0  0  0  0  0  0  0
  -22.8080  -13.5940   21.1390 C   0  0  0  0  0  0  0  0  0  0  0  0
  -22.0900  -12.8820   22.0060 N   0  0  0  0  0  0  0  0  0  0  0  0
  -22.3580  -14.6180   20.6320 O   0  0  0  0  0  0  0  0  0  0  0  0
  -22.4650  -12.0520   22.4420 H   0  0  0  0  0  0  0  0  0  0  0  0
  -21.1560  -13.1800   22.2460 H   0  0  0  0  0  0  0  0  0  0  0  0
  -25.4110  -15.2870   20.3010 N   0  0  0  0  0  0  0  0  0  0  0  0
  -24.6490  -15.9470   20.4130 H   0  0  0  0  0  0  0  0  0  0  0  0
  -26.2550  -15.7210   19.9390 H   0  0  0  0  0  0  0  0  0  0  0  0
  1  4  1  0
  2  4  2  0
  3  8  1  0
  3  1  2  0
  4 58  1  0
  5  3  1  0
  5  6  2  0
  6 57  1  0
  6  2  1  0
  7  5  1  0
  8 10  2  0
  9 13  1  0
  9  8  1  0
 11  9  1  0
 13 12  1  0
 14 15  1  0
 14 13  1  0
 16 27  2  0
 17 15  1  0
 17 22  1  0
 18 26  1  0
 18 28  1  0
 19 25  1  0
 19 21  1  0
 20 26  1  0
 21 20  1  0
 22 21  2  0
 23 24  1  0
 23 17  2  0
 24 19  2  0
 25 18  1  0
 26 16  1  0
 28 30  2  0
 29 28  1  0
 31 29  1  0
 32 41  2  0
 32 37  1  0
 33 29  1  0
 33 37  1  0
 34 33  1  0
 35 36  1  0
 35 34  1  0
 36 32  1  0
 37 38  2  0
 38 39  1  0
 40 39  2  0
 41 40  1  0
 42 16  1  0
 42 43  1  0
 42 52  1  0
 43 46  1  0
 44 48  1  0
 44 43  1  0
 45 44  2  0
 48 47  1  0
 50 48  1  0
 50 51  1  0
 50 49  1  0
 52 55  1  1
 52 53  1  0
 54 52  1  0
 57 56  1  0
 59 67  1  0
 60 65  1  0
 61 62  1  0
 61 60  1  0
 63 62  1  0
 63 72  1  0
 63 64  1  0
 65 59  1  0
 65 64  1  0
 66 59  2  0
 67 68  1  0
 67 58  1  0
 69 70  2  0
 70 89  1  0
 71 70  1  0
 71 74  1  0
 72 69  1  0
 72 73  1  0
 73 71  2  0
 74 75  1  0
 75 76  2  0
 77 80  1  0
 77 76  1  0
 78 77  2  0
 79 78  1  0
 79 74  2  0
 80 81  1  0
 81 82  1  0
 82 83  2  0
 84 83  1  0
 84 88  1  0
 85 84  2  0
 86 81  2  0
 86 85  1  0
 87 86  1  0
 89 90  1  0
 90 93  1  0
 90 92  1  0
 91 89  2  0
 94 95  1  0
 94 69  1  0
 96 94  1  0
M  ISO  4  14 101  15 101  59 100  67 100
M  END
>  <TORSDO>  (27) 
F 21

>  <SCORE>  (27) 
-14.090

>  <name>  (27) 
26

>  <ligand_id>  (27) 
26

>  <original_smiles>  (27) 
[H]c1c([H])c([H])c2c(c1[H])C([H])([H])C([H])([H])C([H])([H])C2([H])N([H])C(=O)C1([H])N(C(=O)C([H])(N([H])C(=O)C([H])(N([H])C([H])([H])[H])C([H])([H])[H])C(C([H])([H])[H])(C([H])([H])[H])C([H])([H])[H])C([H])([H])c2c([H])c(OC([H])([H])C([H])(N([H])C(=O)c3c([H])c(C([H])([H])N([H])C(=O)N4C([H])([H])C([H])([H])C([H])([H])C([H])(n5nc(-c6c([H])c([H])c(Oc7c([H])c([H])c(F)c([H])c7F)c([H])c6[H])c(C(=O)N([H])[H])c5N([H])[H])C4([H])[H])c([H])c(OC([H])([H])[H])c3C([H])([H])[H])C([H])([H])[H])c([H])c([H])c2C1([H])[H]

>  <smiles>  (27) 
[H]c1c([H])c([H])c2c(c1[H])C([H])([H])C([H])([H])C([H])([H])C2([H])N([H])C(=O)C1([H])N(C(=O)C([H])(N([H])C(=O)C([H])(N([H])C([H])([H])[H])C([H])([H])[H])C(C([H])([H])[H])(C([H])([H])[H])C([H])([H])[H])C([H])([H])c2c([H])c(OC([H])([H])C([H])(N([H])C(=O)c3c([H])c(C([H])([H])N([H])C(=O)N4C([H])([H])C([H])([H])C([H])([H])C([H])(n5nc(-c6c([H])c([H])c(Oc7c([H])c([H])c(F)c([H])c7F)c([H])c6[H])c(C(=O)N([H])[H])c5N([H])[H])C4([H])[H])c([H])c(OC([H])([H])[H])c3C([H])([H])[H])C([H])([H])[H])c([H])c([H])c2C1([H])[H]

$$$$
27:0:0
     RDKit          3D

 97105  0  0  1  0  0  0  0  0999 V2000
  -29.6630  -19.8260   18.5490 C   0  0  0  0  0  0  0  0  0  0  0  0
  -29.2490  -20.2280   19.7820 N   0  0  0  0  0  0  0  0  0  0  0  0
  -29.8010  -18.6340   18.2520 O   0  0  0  0  0  0  0  0  0  0  0  0
  -29.8440  -20.5640   16.2600 C   0  0  0  0  0  3  0  0  0  0  0  0
  -29.8620  -20.8830   17.5690 C   0  0  0  0  0  3  0  0  0  0  0  0
  -29.9950  -21.1750   13.9020 C   0  0  0  0  0  2  0  0  0  0  0  0
  -30.0210  -21.5290   15.1970 C   0  0  0  0  0  3  0  0  0  0  0  0
  -28.8200  -19.1360   20.7270 C   0  0  0  0  0  2  0  0  0  0  0  0
  -31.6790  -18.9550   23.2770 C   0  0  0  0  0  3  0  0  0  0  0  0
  -31.6880  -17.6180   23.6810 C   0  0  0  0  0  3  0  0  0  0  0  0
  -30.7790  -19.3750   22.2860 C   0  0  0  0  0  3  0  0  0  0  0  0
  -30.8430  -16.6970   23.0430 C   0  0  0  0  0  3  0  0  0  0  0  0
  -29.8840  -18.4800   21.6440 C   0  0  0  0  0  0  0  0  0  0  0  0
  -29.9810  -17.0710   21.9750 C   0  0  0  0  0  0  0  0  0  0  0  0
  -29.9110  -15.0410   20.5490 C   0  0  0  0  0  0  0  0  0  0  0  0
  -29.7190  -12.9860   19.1760 C   0  0  0  0  0  2  0  0  0  0  0  0
  -28.7030  -13.1680   18.0340 C   0  0  0  0  0  2  0  0  0  0  0  0
  -27.2870  -12.8140   18.5150 C   0  0  0  0  0  2  0  0  0  0  0  0
  -26.9270  -13.5090   19.8560 C   0  0  0  0  0  3  0  0  0  0  0  0
  -28.0490  -13.3500   20.9040 C   0  0  0  0  0  2  0  0  0  0  0  0
  -29.2960  -13.8450   20.3030 N   0  0  0  0  0  0  0  0  0  0  0  0
  -30.9750  -15.3250   19.9910 O   0  0  0  0  0  0  0  0  0  0  0  0
  -29.2840  -15.9710   21.3340 N   0  0  0  0  0  0  0  0  0  0  0  0
  -28.3290  -15.7920   21.6110 H   0  0  0  0  0  0  0  0  0  0  0  0
  -24.5490  -13.7920   20.7800 C   0  0  0  0  0  0  0  0  0  0  0  0
  -23.5710  -12.8870   21.0930 C   0  0  0  0  0  0  0  0  0  0  0  0
  -24.1360  -11.5980   20.8460 C   0  0  0  0  0  0  0  0  0  0  0  0
  -25.6410  -13.0470   20.3670 N   0  0  0  0  0  0  0  0  0  0  0  0
  -25.4010  -11.7120   20.4630 N   0  0  0  0  0  0  0  0  0  0  0  0
  -23.5250  -10.2630   20.9000 C   0  0  0  0  0  0  0  0  0  0  0  0
  -24.0840   -9.2240   21.6760 C   0  0  0  0  0  3  0  0  0  0  0  0
  -23.4700   -7.9530   21.7210 C   0  0  0  0  0  3  0  0  0  0  0  0
  -22.2820   -7.7120   20.9910 C   0  0  0  0  0  0  0  0  0  0  0  0
  -21.7420   -8.7420   20.2000 C   0  0  0  0  0  3  0  0  0  0  0  0
  -22.3570  -10.0060   20.1520 C   0  0  0  0  0  3  0  0  0  0  0  0
  -21.6310   -6.5020   20.9540 O   0  0  0  0  0  0  0  0  0  0  0  0
  -21.6980   -5.6170   22.0010 C   0  0  0  0  0  0  0  0  0  0  0  0
  -21.2890   -5.9720   23.3050 C   0  0  0  0  0  3  0  0  0  0  0  0
  -21.3090   -5.0100   24.3350 C   0  0  0  0  0  3  0  0  0  0  0  0
  -21.7270   -3.6940   24.0620 C   0  0  0  0  0  0  0  0  0  0  0  0
  -22.1270   -3.3370   22.7630 C   0  0  0  0  0  3  0  0  0  0  0  0
  -22.1100   -4.2950   21.7340 C   0  0  0  0  0  0  0  0  0  0  0  0
  -22.4770   -3.9400   20.4800 F   0  0  0  0  0  0  0  0  0  0  0  0
  -21.7370   -2.7690   25.0500 F   0  0  0  0  0  0  0  0  0  0  0  0
  -22.1620  -13.2000   21.5050 C   0  0  0  0  0  0  0  0  0  0  0  0
  -21.5600  -12.3470   22.3240 N   0  0  0  0  0  0  0  0  0  0  0  0
  -21.6020  -14.2350   21.1410 O   0  0  0  0  0  0  0  0  0  0  0  0
  -22.0230  -11.5060   22.6400 H   0  0  0  0  0  0  0  0  0  0  0  0
  -20.6210  -12.5320   22.6450 H   0  0  0  0  0  0  0  0  0  0  0  0
  -24.5970  -15.1840   20.7910 N   0  0  0  0  0  0  0  0  0  0  0  0
  -23.7850  -15.7450   21.0170 H   0  0  0  0  0  0  0  0  0  0  0  0
  -25.3730  -15.7340   20.4440 H   0  0  0  0  0  0  0  0  0  0  0  0
  -29.3010  -21.6650   20.2590 C   0  0  0  0  0  2  0  0  0  0  0  0
  -28.2370  -22.7170   19.7570 C   0  0  0  0  0  2  0  0  0  0  0  0
  -28.7380  -24.2220   19.7120 C   0  0  0  0  0  3  0  0  0  0  0  0
  -27.6110  -25.3210   19.7160 C   0  0  0  0  0  3  0  0  0  0  0  0
  -27.9440  -26.7370   19.4550 O   0  0  0  0  0  0  0  0  0  0  0  0
  -24.6340  -31.8980   23.2270 C   0  0  0  0  0  0  0  0  0  0  0  0
  -26.8670  -27.6220   19.5640 C   0  0  0  0  0  0  0  0  0  0  0  0
  -23.2680  -30.6750   21.5790 C   0  0  0  0  0  3  0  0  0  0  0  0
  -24.5550  -29.2580   19.8960 C   0  0  0  0  0  0  0  0  0  0  0  0
  -25.7910  -30.9720   21.2130 C   0  0  0  0  0  2  0  0  0  0  0  0
  -25.7820  -29.6660   20.4390 C   0  0  0  0  0  0  0  0  0  0  0  0
  -26.9450  -28.8610   20.2660 C   0  0  0  0  0  3  0  0  0  0  0  0
  -25.6270  -27.2900   18.9710 C   0  0  0  0  0  3  0  0  0  0  0  0
  -24.4820  -28.0770   19.1500 C   0  0  0  0  0  3  0  0  0  0  0  0
  -23.3460  -30.1390   20.1290 C   0  0  0  0  0  2  0  0  0  0  0  0
  -24.5880  -31.1940   22.0620 N   0  0  0  0  0  0  0  0  0  0  0  0
  -23.6060  -32.1380   23.8750 O   0  0  0  0  0  0  0  0  0  0  0  0
  -22.6730  -29.5760   22.4920 C   0  0  0  0  0  0  0  0  0  0  0  0
  -21.3500  -29.3610   22.3880 N   0  0  0  0  0  0  0  0  0  0  0  0
  -23.3950  -28.9290   23.2540 O   0  0  0  0  0  0  0  0  0  0  0  0
  -20.8300  -29.9420   21.7470 H   0  0  0  0  0  0  0  0  0  0  0  0
  -18.0460  -27.9530   22.8120 C   0  0  0  0  0  0  0  0  0  0  0  0
  -20.5810  -28.3560   23.1210 C   0  0  0  0  0  3  0  0  0  0  0  0
  -20.7750  -26.9470   22.5140 C   0  0  0  0  0  2  0  0  0  0  0  0
  -19.7050  -26.5830   21.4800 C   0  0  0  0  0  2  0  0  0  0  0  0
  -18.3080  -26.6310   22.1070 C   0  0  0  0  0  2  0  0  0  0  0  0
  -19.1120  -28.7690   23.2750 C   0  0  0  0  0  0  0  0  0  0  0  0
  -18.8150  -30.0020   23.8950 C   0  0  0  0  0  3  0  0  0  0  0  0
  -17.4810  -30.4220   24.0590 C   0  0  0  0  0  3  0  0  0  0  0  0
  -16.4280  -29.6030   23.6170 C   0  0  0  0  0  3  0  0  0  0  0  0
  -16.7100  -28.3730   22.9950 C   0  0  0  0  0  3  0  0  0  0  0  0
  -25.9780  -32.4540   23.7910 C   0  0  0  0  0  3  0  0  0  0  0  0
  -25.7350  -33.8360   24.2270 N   0  0  0  0  0  0  0  0  0  0  0  0
  -26.0690  -34.9290   23.5250 C   0  0  0  0  0  0  0  0  0  0  0  0
  -26.6840  -34.8750   22.4580 O   0  0  0  0  0  0  0  0  0  0  0  0
  -25.1900  -33.9570   25.0700 H   0  0  0  0  0  0  0  0  0  0  0  0
  -24.3910  -36.7960   23.3880 C   0  0  0  0  0  1  0  0  0  0  0  0
  -25.6560  -36.2980   24.1030 C   0  0  0  0  0  3  0  0  0  0  0  0
  -27.8620  -37.0500   24.8740 C   0  0  0  0  0  1  0  0  0  0  0  0
  -26.7180  -37.3210   24.0060 N   0  0  0  0  0  0  0  0  0  0  0  0
  -26.3550  -38.2410   24.2370 H   0  0  0  0  0  0  0  0  0  0  0  0
  -26.5620  -31.5890   24.9740 C   0  0  1  0  0  0  0  0  0  0  0  0
  -25.5380  -31.3090   26.1010 C   0  0  0  0  0  1  0  0  0  0  0  0
  -27.0720  -30.2230   24.4540 C   0  0  0  0  0  1  0  0  0  0  0  0
  -27.7870  -32.3030   25.5900 C   0  0  0  0  0  1  0  0  0  0  0  0
  1  2  1  0
  2 53  1  0
  2  8  1  0
  3  1  2  0
  4  5  2  0
  5  1  1  0
  6  7  2  0
  7  4  1  0
  8 13  1  0
  9 10  1  0
 11  9  2  0
 12 10  2  0
 13 14  2  0
 13 11  1  0
 14 12  1  0
 15 23  1  0
 16 21  1  0
 17 18  1  0
 17 16  1  0
 19 18  1  0
 19 28  1  0
 19 20  1  0
 21 15  1  0
 21 20  1  0
 22 15  2  0
 23 24  1  0
 23 14  1  0
 25 50  1  0
 25 26  2  0
 26 45  1  0
 27 30  1  0
 27 26  1  0
 28 29  1  0
 28 25  1  0
 29 27  2  0
 30 31  1  0
 31 32  2  0
 33 32  1  0
 34 33  2  0
 35 34  1  0
 35 30  2  0
 36 33  1  0
 36 37  1  0
 37 38  1  0
 38 39  2  0
 40 39  1  0
 40 44  1  0
 41 40  2  0
 42 37  2  0
 42 41  1  0
 43 42  1  0
 45 46  1  0
 46 48  1  0
 46 49  1  0
 47 45  2  0
 50 51  1  0
 52 50  1  0
 54 53  1  0
 55 56  2  0
 55 54  1  0
 57 59  1  0
 57 56  1  0
 58 69  2  0
 59 64  1  0
 60 68  1  0
 60 70  1  0
 61 67  1  0
 61 63  1  0
 62 68  1  0
 63 62  1  0
 64 63  2  0
 65 66  1  0
 65 59  2  0
 66 61  2  0
 67 60  1  0
 68 58  1  0
 70 72  2  0
 71 70  1  0
 73 71  1  0
 74 83  2  0
 74 79  1  0
 75 71  1  0
 75 79  1  0
 76 75  1  0
 77 78  1  0
 77 76  1  0
 78 74  1  0
 79 80  2  0
 80 81  1  0
 82 81  2  0
 83 82  1  0
 84 58  1  0
 84 85  1  0
 84 94  1  0
 85 88  1  0
 86 90  1  0
 86 85  1  0
 87 86  2  0
 90 89  1  0
 92 90  1  0
 92 93  1  0
 92 91  1  0
 94 97  1  1
 94 95  1  0
 96 94  1  0
M  ISO  4  15 100  23 100  56 101  57 101
M  END
>  <TORSDO>  (28) 
F 24

>  <SCORE>  (28) 
-8.420

>  <name>  (28) 
27

>  <ligand_id>  (28) 
27

>  <original_smiles>  (28) 
[H]C([H])=C([H])C([H])=C([H])C(=O)N(C([H])([H])c1c([H])c([H])c([H])c([H])c1N([H])C(=O)N1C([H])([H])C([H])([H])C([H])([H])C([H])(n2nc(-c3c([H])c([H])c(Oc4c([H])c([H])c(F)c([H])c4F)c([H])c3[H])c(C(=O)N([H])[H])c2N([H])[H])C1([H])[H])C([H])([H])C([H])([H])C([H])([H])C([H])([H])Oc1c([H])c([H])c2c(c1[H])C([H])([H])N(C(=O)C([H])(N([H])C(=O)C([H])(N([H])C([H])([H])[H])C([H])([H])[H])C(C([H])([H])[H])(C([H])([H])[H])C([H])([H])[H])C([H])(C(=O)N([H])C1([H])c3c([H])c([H])c([H])c([H])c3C([H])([H])C([H])([H])C1([H])[H])C2([H])[H]

>  <smiles>  (28) 
[H]C([H])=C([H])C([H])=C([H])C(=O)N(C([H])([H])c1c([H])c([H])c([H])c([H])c1N([H])C(=O)N1C([H])([H])C([H])([H])C([H])([H])C([H])(n2nc(-c3c([H])c([H])c(Oc4c([H])c([H])c(F)c([H])c4F)c([H])c3[H])c(C(=O)N([H])[H])c2N([H])[H])C1([H])[H])C([H])([H])C([H])([H])C([H])([H])C([H])([H])Oc1c([H])c([H])c2c(c1[H])C([H])([H])N(C(=O)C([H])(N([H])C(=O)C([H])(N([H])C([H])([H])[H])C([H])([H])[H])C(C([H])([H])[H])(C([H])([H])[H])C([H])([H])[H])C([H])(C(=O)N([H])C1([H])c3c([H])c([H])c([H])c([H])c3C([H])([H])C([H])([H])C1([H])[H])C2([H])[H]

$$$$
28:0:0
     RDKit          3D

 95103  0  0  1  0  0  0  0  0999 V2000
  -29.5720  -22.3370   19.5910 C   0  0  0  0  0  0  0  0  0  0  0  0
  -29.4300  -21.0030   19.4670 N   0  0  0  0  0  0  0  0  0  0  0  0
  -30.6790  -22.8760   19.5130 O   0  0  0  0  0  0  0  0  0  0  0  0
  -28.4910  -20.6380   19.5310 H   0  0  0  0  0  0  0  0  0  0  0  0
  -28.3410  -24.2880   20.2380 C   0  0  0  0  0  0  0  0  0  0  0  0
  -28.2830  -25.4970   20.7580 C   0  0  0  0  0  3  0  0  0  0  0  0
  -28.2990  -23.0460   19.7810 C   0  0  0  0  0  0  0  0  0  0  0  0
  -26.9660  -22.3860   19.4460 C   0  0  0  0  0  1  0  0  0  0  0  0
  -28.3390  -26.7170   20.1220 O   0  0  0  0  0  0  0  0  0  0  0  0
  -24.5640  -31.9230   23.2410 C   0  0  0  0  0  0  0  0  0  0  0  0
  -27.1890  -27.4710   20.1560 C   0  0  0  0  0  0  0  0  0  0  0  0
  -23.3550  -30.5280   21.5960 C   0  0  0  0  0  3  0  0  0  0  0  0
  -24.8040  -28.9820   20.1750 C   0  0  0  0  0  0  0  0  0  0  0  0
  -25.8830  -30.8720   21.4050 C   0  0  0  0  0  2  0  0  0  0  0  0
  -25.9650  -29.5010   20.7650 C   0  0  0  0  0  0  0  0  0  0  0  0
  -27.1650  -28.7510   20.7530 C   0  0  0  0  0  3  0  0  0  0  0  0
  -26.0130  -26.9620   19.5670 C   0  0  0  0  0  3  0  0  0  0  0  0
  -24.8200  -27.7090   19.5760 C   0  0  0  0  0  3  0  0  0  0  0  0
  -23.5640  -29.8480   20.2190 C   0  0  0  0  0  2  0  0  0  0  0  0
  -24.6190  -31.1230   22.1390 N   0  0  0  0  0  0  0  0  0  0  0  0
  -23.4840  -32.2040   23.7790 O   0  0  0  0  0  0  0  0  0  0  0  0
  -22.6960  -29.5120   22.5560 C   0  0  0  0  0  0  0  0  0  0  0  0
  -21.3710  -29.3420   22.4290 N   0  0  0  0  0  0  0  0  0  0  0  0
  -23.3750  -28.8770   23.3680 O   0  0  0  0  0  0  0  0  0  0  0  0
  -20.8890  -29.9020   21.7410 H   0  0  0  0  0  0  0  0  0  0  0  0
  -17.9830  -28.1870   22.9340 C   0  0  0  0  0  0  0  0  0  0  0  0
  -20.5450  -28.4110   23.1960 C   0  0  0  0  0  3  0  0  0  0  0  0
  -20.6290  -26.9850   22.6090 C   0  0  0  0  0  2  0  0  0  0  0  0
  -19.5180  -26.6810   21.5980 C   0  0  0  0  0  2  0  0  0  0  0  0
  -18.1400  -26.8400   22.2490 C   0  0  0  0  0  2  0  0  0  0  0  0
  -19.1140  -28.9320   23.3620 C   0  0  0  0  0  0  0  0  0  0  0  0
  -18.9150  -30.1940   23.9620 C   0  0  0  0  0  3  0  0  0  0  0  0
  -17.6180  -30.7130   24.1380 C   0  0  0  0  0  3  0  0  0  0  0  0
  -16.5010  -29.9650   23.7230 C   0  0  0  0  0  3  0  0  0  0  0  0
  -16.6840  -28.7040   23.1280 C   0  0  0  0  0  3  0  0  0  0  0  0
  -25.8550  -32.5450   23.8640 C   0  0  0  0  0  3  0  0  0  0  0  0
  -26.3670  -31.7690   25.1390 C   0  0  1  0  0  0  0  0  0  0  0  0
  -25.2720  -31.5370   26.2050 C   0  0  0  0  0  1  0  0  0  0  0  0
  -26.9430  -30.3900   24.7430 C   0  0  0  0  0  1  0  0  0  0  0  0
  -27.5240  -32.5560   25.8000 C   0  0  0  0  0  1  0  0  0  0  0  0
  -25.5570  -33.9450   24.1950 N   0  0  0  0  0  0  0  0  0  0  0  0
  -25.8910  -34.9920   23.4320 C   0  0  0  0  0  0  0  0  0  0  0  0
  -26.5540  -34.8820   22.3970 O   0  0  0  0  0  0  0  0  0  0  0  0
  -24.9730  -34.1060   25.0030 H   0  0  0  0  0  0  0  0  0  0  0  0
  -24.1680  -36.7900   23.0760 C   0  0  0  0  0  1  0  0  0  0  0  0
  -25.4120  -36.3850   23.8840 C   0  0  0  0  0  3  0  0  0  0  0  0
  -27.5560  -37.2620   24.6990 C   0  0  0  0  0  1  0  0  0  0  0  0
  -26.4500  -37.4330   23.7600 N   0  0  0  0  0  0  0  0  0  0  0  0
  -26.0500  -38.3570   23.9040 H   0  0  0  0  0  0  0  0  0  0  0  0
  -30.4910  -20.0270   19.1920 C   0  0  0  0  0  2  0  0  0  0  0  0
  -31.6350  -18.4540   22.5380 C   0  0  0  0  0  3  0  0  0  0  0  0
  -31.1410  -17.1450   22.4120 C   0  0  0  0  0  3  0  0  0  0  0  0
  -30.2430  -17.7130   20.2180 C   0  0  0  0  0  3  0  0  0  0  0  0
  -31.4540  -19.4030   21.5060 C   0  0  0  0  0  0  0  0  0  0  0  0
  -30.7320  -19.0400   20.3370 C   0  0  0  0  0  0  0  0  0  0  0  0
  -30.4650  -16.7570   21.2400 C   0  0  0  0  0  0  0  0  0  0  0  0
  -32.0650  -20.7820   21.7000 C   0  0  0  0  0  1  0  0  0  0  0  0
  -30.6130  -14.4640   20.3950 C   0  0  0  0  0  0  0  0  0  0  0  0
  -30.2610  -12.3550   19.1680 C   0  0  0  0  0  2  0  0  0  0  0  0
  -29.3060  -12.6280   17.9900 C   0  0  0  0  0  2  0  0  0  0  0  0
  -27.8380  -12.4710   18.4360 C   0  0  0  0  0  2  0  0  0  0  0  0
  -27.5240  -13.2690   19.7350 C   0  0  0  0  0  3  0  0  0  0  0  0
  -28.5980  -12.9960   20.8170 C   0  0  0  0  0  2  0  0  0  0  0  0
  -29.9190  -13.3030   20.2400 N   0  0  0  0  0  0  0  0  0  0  0  0
  -31.6990  -14.6740   19.8490 O   0  0  0  0  0  0  0  0  0  0  0  0
  -29.9990  -15.4200   21.1140 N   0  0  0  0  0  0  0  0  0  0  0  0
  -29.1300  -15.1810   21.5660 H   0  0  0  0  0  0  0  0  0  0  0  0
  -25.1220  -13.8490   20.4650 C   0  0  0  0  0  0  0  0  0  0  0  0
  -24.0670  -13.0650   20.8490 C   0  0  0  0  0  0  0  0  0  0  0  0
  -24.5440  -11.7190   20.8180 C   0  0  0  0  0  0  0  0  0  0  0  0
  -26.1770  -12.9800   20.2280 N   0  0  0  0  0  0  0  0  0  0  0  0
  -25.8320  -11.6930   20.4940 N   0  0  0  0  0  0  0  0  0  0  0  0
  -23.8350  -10.4490   21.0200 C   0  0  0  0  0  0  0  0  0  0  0  0
  -24.2900   -9.4870   21.9490 C   0  0  0  0  0  3  0  0  0  0  0  0
  -23.5800   -8.2820   22.1390 C   0  0  0  0  0  3  0  0  0  0  0  0
  -22.4020   -8.0290   21.3980 C   0  0  0  0  0  0  0  0  0  0  0  0
  -21.9650   -8.9800   20.4590 C   0  0  0  0  0  3  0  0  0  0  0  0
  -22.6750  -10.1770   20.2660 C   0  0  0  0  0  3  0  0  0  0  0  0
  -21.6620   -6.8750   21.4940 O   0  0  0  0  0  0  0  0  0  0  0  0
  -21.6440   -6.1290   22.6450 C   0  0  0  0  0  0  0  0  0  0  0  0
  -21.2440   -6.6760   23.8840 C   0  0  0  0  0  3  0  0  0  0  0  0
  -21.1700   -5.8530   25.0280 C   0  0  0  0  0  3  0  0  0  0  0  0
  -21.4900   -4.4850   24.9330 C   0  0  0  0  0  0  0  0  0  0  0  0
  -21.8890   -3.9380   23.7000 C   0  0  0  0  0  3  0  0  0  0  0  0
  -21.9630   -4.7590   22.5590 C   0  0  0  0  0  0  0  0  0  0  0  0
  -22.3230   -4.2210   21.3700 F   0  0  0  0  0  0  0  0  0  0  0  0
  -21.4180   -3.6930   26.0290 F   0  0  0  0  0  0  0  0  0  0  0  0
  -22.6670  -13.5280   21.1340 C   0  0  0  0  0  0  0  0  0  0  0  0
  -21.9540  -12.8300   22.0110 N   0  0  0  0  0  0  0  0  0  0  0  0
  -22.2120  -14.5450   20.6160 O   0  0  0  0  0  0  0  0  0  0  0  0
  -22.3310  -12.0110   22.4640 H   0  0  0  0  0  0  0  0  0  0  0  0
  -21.0140  -13.1240   22.2350 H   0  0  0  0  0  0  0  0  0  0  0  0
  -25.2600  -15.2220   20.2770 N   0  0  0  0  0  0  0  0  0  0  0  0
  -24.4740  -15.8570   20.3700 H   0  0  0  0  0  0  0  0  0  0  0  0
  -26.0980  -15.6780   19.9400 H   0  0  0  0  0  0  0  0  0  0  0  0
  1  7  1  0
  2  4  1  0
  2  1  1  0
  3  1  2  0
  5  6  2  0
  7  5  2  0
  8  7  1  0
  9 11  1  0
  9  6  1  0
 10 21  2  0
 11 16  1  0
 12 20  1  0
 12 22  1  0
 13 19  1  0
 13 15  1  0
 14 20  1  0
 15 14  1  0
 16 15  2  0
 17 18  1  0
 17 11  2  0
 18 13  2  0
 19 12  1  0
 20 10  1  0
 22 24  2  0
 23 22  1  0
 25 23  1  0
 26 35  2  0
 26 31  1  0
 27 23  1  0
 27 31  1  0
 28 27  1  0
 29 30  1  0
 29 28  1  0
 30 26  1  0
 31 32  2  0
 32 33  1  0
 34 33  2  0
 35 34  1  0
 36 10  1  0
 36 41  1  0
 36 37  1  0
 37 40  1  1
 37 38  1  0
 39 37  1  0
 41 44  1  0
 42 46  1  0
 42 41  1  0
 43 42  2  0
 46 45  1  0
 48 46  1  0
 48 49  1  0
 48 47  1  0
 50  2  1  0
 50 55  1  0
 52 51  1  0
 53 55  2  0
 53 56  1  0
 54 57  1  0
 54 51  2  0
 55 54  1  0
 56 52  2  0
 58 66  1  0
 59 64  1  0
 60 61  1  0
 60 59  1  0
 62 61  1  0
 62 71  1  0
 62 63  1  0
 64 58  1  0
 64 63  1  0
 65 58  2  0
 66 56  1  0
 66 67  1  0
 68 69  2  0
 69 88  1  0
 70 69  1  0
 70 73  1  0
 71 68  1  0
 71 72  1  0
 72 70  2  0
 73 74  1  0
 74 75  2  0
 76 79  1  0
 76 75  1  0
 77 76  2  0
 78 77  1  0
 78 73  2  0
 79 80  1  0
 80 81  1  0
 81 82  2  0
 83 82  1  0
 83 87  1  0
 84 83  2  0
 85 80  2  0
 85 84  1  0
 86 85  1  0
 88 89  1  0
 89 92  1  0
 89 91  1  0
 90 88  2  0
 93 94  1  0
 93 68  1  0
 95 93  1  0
M  ISO  4   6 101   9 101  58 100  66 100
M  END
>  <TORSDO>  (29) 
F 19

>  <SCORE>  (29) 
-14.116

>  <name>  (29) 
28

>  <ligand_id>  (29) 
28

>  <original_smiles>  (29) 
[H]C(=C=C(C(=O)N([H])C([H])([H])c1c([H])c(N([H])C(=O)N2C([H])([H])C([H])([H])C([H])([H])C([H])(n3nc(-c4c([H])c([H])c(Oc5c([H])c([H])c(F)c([H])c5F)c([H])c4[H])c(C(=O)N([H])[H])c3N([H])[H])C2([H])[H])c([H])c([H])c1C([H])([H])[H])C([H])([H])[H])Oc1c([H])c([H])c2c(c1[H])C([H])([H])N(C(=O)C([H])(N([H])C(=O)C([H])(N([H])C([H])([H])[H])C([H])([H])[H])C(C([H])([H])[H])(C([H])([H])[H])C([H])([H])[H])C([H])(C(=O)N([H])C1([H])c3c([H])c([H])c([H])c([H])c3C([H])([H])C([H])([H])C1([H])[H])C2([H])[H]

>  <smiles>  (29) 
[H]C(=C=C(C(=O)N([H])C([H])([H])c1c([H])c(N([H])C(=O)N2C([H])([H])C([H])([H])C([H])([H])C([H])(n3nc(-c4c([H])c([H])c(Oc5c([H])c([H])c(F)c([H])c5F)c([H])c4[H])c(C(=O)N([H])[H])c3N([H])[H])C2([H])[H])c([H])c([H])c1C([H])([H])[H])C([H])([H])[H])Oc1c([H])c([H])c2c(c1[H])C([H])([H])N(C(=O)C([H])(N([H])C(=O)C([H])(N([H])C([H])([H])[H])C([H])([H])[H])C(C([H])([H])[H])(C([H])([H])[H])C([H])([H])[H])C([H])(C(=O)N([H])C1([H])c3c([H])c([H])c([H])c([H])c3C([H])([H])C([H])([H])C1([H])[H])C2([H])[H]

$$$$
29:0:0
     RDKit          3D

 95103  0  0  1  0  0  0  0  0999 V2000
  -29.3150  -20.4240   20.3500 C   0  0  0  0  0  0  0  0  0  0  0  0
  -28.1930  -20.1400   19.6890 N   0  0  0  0  0  4  0  0  0  0  0  0
  -29.7570  -21.7070   20.3260 N   0  0  0  0  0  0  0  0  0  0  0  0
  -27.8220  -19.2030   19.7430 H   0  0  0  0  0  0  0  0  0  0  0  0
  -27.6640  -20.8290   19.1820 H   0  0  0  0  0  0  0  0  0  0  0  0
  -30.6620  -21.8560   20.7500 H   0  0  0  0  0  0  0  0  0  0  0  0
  -31.1960  -18.4110   23.0300 C   0  0  0  0  0  3  0  0  0  0  0  0
  -31.0460  -17.0980   22.5380 C   0  0  0  0  0  3  0  0  0  0  0  0
  -29.8830  -17.9910   20.5980 C   0  0  0  0  0  3  0  0  0  0  0  0
  -29.9930  -19.3280   21.0990 C   0  0  0  0  0  0  0  0  0  0  0  0
  -30.6600  -19.5270   22.3450 C   0  0  0  0  0  0  0  0  0  0  0  0
  -30.3750  -16.8710   21.3190 C   0  0  0  0  0  0  0  0  0  0  0  0
  -30.7760  -20.8890   23.0310 C   0  0  0  0  0  1  0  0  0  0  0  0
  -30.7240  -14.5380   20.4030 C   0  0  0  0  0  0  0  0  0  0  0  0
  -30.4210  -12.3720   19.2260 C   0  0  0  0  0  2  0  0  0  0  0  0
  -29.4710  -12.5520   18.0230 C   0  0  0  0  0  2  0  0  0  0  0  0
  -27.9960  -12.4190   18.4570 C   0  0  0  0  0  2  0  0  0  0  0  0
  -27.6630  -13.2790   19.7070 C   0  0  0  0  0  3  0  0  0  0  0  0
  -28.7190  -13.0650   20.8150 C   0  0  0  0  0  2  0  0  0  0  0  0
  -30.0450  -13.3640   20.2470 N   0  0  0  0  0  0  0  0  0  0  0  0
  -31.8570  -14.7210   19.9460 O   0  0  0  0  0  0  0  0  0  0  0  0
  -29.9940  -15.5400   20.9460 N   0  0  0  0  0  0  0  0  0  0  0  0
  -29.0390  -15.2910   21.1550 H   0  0  0  0  0  0  0  0  0  0  0  0
  -25.2810  -13.9350   20.4340 C   0  0  0  0  0  0  0  0  0  0  0  0
  -24.2000  -13.1840   20.8100 C   0  0  0  0  0  0  0  0  0  0  0  0
  -24.6350  -11.8240   20.7780 C   0  0  0  0  0  0  0  0  0  0  0  0
  -26.3070  -13.0320   20.1960 N   0  0  0  0  0  0  0  0  0  0  0  0
  -25.9210  -11.7570   20.4620 N   0  0  0  0  0  0  0  0  0  0  0  0
  -23.8860  -10.5760   20.9790 C   0  0  0  0  0  0  0  0  0  0  0  0
  -24.3060   -9.6070   21.9150 C   0  0  0  0  0  3  0  0  0  0  0  0
  -23.5590   -8.4240   22.1050 C   0  0  0  0  0  3  0  0  0  0  0  0
  -22.3780   -8.2050   21.3620 C   0  0  0  0  0  0  0  0  0  0  0  0
  -21.9740   -9.1650   20.4180 C   0  0  0  0  0  3  0  0  0  0  0  0
  -22.7200  -10.3380   20.2240 C   0  0  0  0  0  3  0  0  0  0  0  0
  -21.6020   -7.0750   21.4590 O   0  0  0  0  0  0  0  0  0  0  0  0
  -21.5480   -6.3370   22.6130 C   0  0  0  0  0  0  0  0  0  0  0  0
  -21.1400   -6.9020   23.8410 C   0  0  0  0  0  3  0  0  0  0  0  0
  -21.0320   -6.0900   24.9890 C   0  0  0  0  0  3  0  0  0  0  0  0
  -21.3210   -4.7150   24.9090 C   0  0  0  0  0  0  0  0  0  0  0  0
  -21.7230   -4.1490   23.6840 C   0  0  0  0  0  3  0  0  0  0  0  0
  -21.8320   -4.9580   22.5400 C   0  0  0  0  0  0  0  0  0  0  0  0
  -22.1970   -4.4040   21.3590 F   0  0  0  0  0  0  0  0  0  0  0  0
  -21.2080   -3.9350   26.0090 F   0  0  0  0  0  0  0  0  0  0  0  0
  -22.8140  -13.6910   21.0920 C   0  0  0  0  0  0  0  0  0  0  0  0
  -22.0800  -13.0090   21.9640 N   0  0  0  0  0  0  0  0  0  0  0  0
  -22.3920  -14.7240   20.5740 O   0  0  0  0  0  0  0  0  0  0  0  0
  -22.4360  -12.1730   22.4000 H   0  0  0  0  0  0  0  0  0  0  0  0
  -21.1470  -13.3270   22.1900 H   0  0  0  0  0  0  0  0  0  0  0  0
  -25.4710  -15.3020   20.2550 N   0  0  0  0  0  0  0  0  0  0  0  0
  -24.7120  -15.9650   20.3730 H   0  0  0  0  0  0  0  0  0  0  0  0
  -26.3240  -15.7370   19.9240 H   0  0  0  0  0  0  0  0  0  0  0  0
  -29.1340  -22.8670   19.6220 C   0  0  0  0  0  2  0  0  0  0  0  0
  -29.2900  -24.2570   20.3130 C   0  0  0  0  0  2  0  0  0  0  0  0
  -28.2350  -25.2700   19.7820 C   0  0  0  0  0  2  0  0  0  0  0  0
  -28.3200  -26.6430   20.2400 O   0  0  0  0  0  0  0  0  0  0  0  0
  -24.5850  -31.9240   23.2780 C   0  0  0  0  0  0  0  0  0  0  0  0
  -27.1650  -27.4210   20.1930 C   0  0  0  0  0  0  0  0  0  0  0  0
  -23.3510  -30.5340   21.6460 C   0  0  0  0  0  3  0  0  0  0  0  0
  -24.7860  -28.9830   20.2090 C   0  0  0  0  0  0  0  0  0  0  0  0
  -25.8830  -30.8580   21.4340 C   0  0  0  0  0  2  0  0  0  0  0  0
  -25.9520  -29.4820   20.8020 C   0  0  0  0  0  0  0  0  0  0  0  0
  -27.1390  -28.7050   20.7990 C   0  0  0  0  0  3  0  0  0  0  0  0
  -25.9780  -26.9690   19.5660 C   0  0  0  0  0  3  0  0  0  0  0  0
  -24.7970  -27.7280   19.5860 C   0  0  0  0  0  3  0  0  0  0  0  0
  -23.5440  -29.8470   20.2680 C   0  0  0  0  0  2  0  0  0  0  0  0
  -24.6260  -31.1190   22.1780 N   0  0  0  0  0  0  0  0  0  0  0  0
  -23.5120  -32.2040   23.8290 O   0  0  0  0  0  0  0  0  0  0  0  0
  -22.6950  -29.5250   22.6150 C   0  0  0  0  0  0  0  0  0  0  0  0
  -21.3720  -29.3380   22.4890 N   0  0  0  0  0  0  0  0  0  0  0  0
  -23.3750  -28.9080   23.4380 O   0  0  0  0  0  0  0  0  0  0  0  0
  -20.8780  -29.8870   21.7980 H   0  0  0  0  0  0  0  0  0  0  0  0
  -18.0060  -28.1240   22.9780 C   0  0  0  0  0  0  0  0  0  0  0  0
  -20.5580  -28.4050   23.2670 C   0  0  0  0  0  3  0  0  0  0  0  0
  -20.6760  -26.9660   22.7120 C   0  0  0  0  0  2  0  0  0  0  0  0
  -19.5890  -26.6190   21.6920 C   0  0  0  0  0  2  0  0  0  0  0  0
  -18.2000  -26.7660   22.3210 C   0  0  0  0  0  2  0  0  0  0  0  0
  -19.1140  -28.9010   23.4070 C   0  0  0  0  0  0  0  0  0  0  0  0
  -18.8820  -30.1710   23.9790 C   0  0  0  0  0  3  0  0  0  0  0  0
  -17.5720  -30.6670   24.1240 C   0  0  0  0  0  3  0  0  0  0  0  0
  -16.4770  -29.8860   23.7150 C   0  0  0  0  0  3  0  0  0  0  0  0
  -16.6940  -28.6160   23.1500 C   0  0  0  0  0  3  0  0  0  0  0  0
  -25.8820  -32.5520   23.8800 C   0  0  0  0  0  3  0  0  0  0  0  0
  -26.4070  -31.7810   25.1520 C   0  0  1  0  0  0  0  0  0  0  0  0
  -25.3260  -31.5430   26.2330 C   0  0  0  0  0  1  0  0  0  0  0  0
  -26.9860  -30.4030   24.7600 C   0  0  0  0  0  1  0  0  0  0  0  0
  -27.5710  -32.5700   25.8020 C   0  0  0  0  0  1  0  0  0  0  0  0
  -25.5850  -33.9520   24.2120 N   0  0  0  0  0  0  0  0  0  0  0  0
  -25.9000  -35.0010   23.4380 C   0  0  0  0  0  0  0  0  0  0  0  0
  -26.5490  -34.8900   22.3930 O   0  0  0  0  0  0  0  0  0  0  0  0
  -25.0100  -34.1080   25.0260 H   0  0  0  0  0  0  0  0  0  0  0  0
  -24.1770  -36.8060   23.1030 C   0  0  0  0  0  1  0  0  0  0  0  0
  -25.4280  -36.3940   23.8960 C   0  0  0  0  0  3  0  0  0  0  0  0
  -27.5790  -37.2780   24.6880 C   0  0  0  0  0  1  0  0  0  0  0  0
  -26.4620  -37.4420   23.7590 N   0  0  0  0  0  0  0  0  0  0  0  0
  -26.0610  -38.3630   23.9090 H   0  0  0  0  0  0  0  0  0  0  0  0
  1 10  1  0
  2  4  1  0
  2  1  2  0
  3  1  1  0
  3  6  1  0
  5  2  1  0
  8  7  1  0
  9 10  2  0
  9 12  1  0
 10 11  1  0
 11  7  2  0
 11 13  1  0
 12  8  2  0
 14 22  1  0
 15 20  1  0
 16 17  1  0
 16 15  1  0
 18 17  1  0
 18 27  1  0
 18 19  1  0
 20 14  1  0
 20 19  1  0
 21 14  2  0
 22 23  1  0
 22 12  1  0
 24 25  2  0
 25 44  1  0
 26 25  1  0
 26 29  1  0
 27 24  1  0
 27 28  1  0
 28 26  2  0
 29 30  1  0
 30 31  2  0
 32 35  1  0
 32 31  1  0
 33 32  2  0
 34 33  1  0
 34 29  2  0
 35 36  1  0
 36 37  1  0
 37 38  2  0
 39 38  1  0
 39 43  1  0
 40 39  2  0
 41 36  2  0
 41 40  1  0
 42 41  1  0
 44 45  1  0
 45 48  1  0
 45 47  1  0
 46 44  2  0
 49 50  1  0
 49 24  1  0
 51 49  1  0
 52 53  1  0
 52  3  1  0
 54 55  1  0
 54 53  1  0
 56 67  2  0
 57 55  1  0
 57 62  1  0
 58 66  1  0
 58 68  1  0
 59 65  1  0
 59 61  1  0
 60 66  1  0
 61 60  1  0
 62 61  2  0
 63 64  1  0
 63 57  2  0
 64 59  2  0
 65 58  1  0
 66 56  1  0
 68 70  2  0
 69 68  1  0
 71 69  1  0
 72 81  2  0
 72 77  1  0
 73 69  1  0
 73 77  1  0
 74 73  1  0
 75 76  1  0
 75 74  1  0
 76 72  1  0
 77 78  2  0
 78 79  1  0
 80 79  2  0
 81 80  1  0
 82 56  1  0
 82 87  1  0
 82 83  1  0
 83 86  1  1
 83 84  1  0
 85 83  1  0
 87 90  1  0
 88 92  1  0
 88 87  1  0
 89 88  2  0
 92 91  1  0
 94 92  1  0
 94 95  1  0
 94 93  1  0
M  ISO  4  14 100  22 100  54 101  55 101
M  END
>  <TORSDO>  (30) 
F 20

>  <SCORE>  (30) 
-13.467

>  <name>  (30) 
29

>  <ligand_id>  (30) 
29

>  <original_smiles>  (30) 
[H]c1c([H])c([H])c2c(c1[H])C([H])([H])C([H])([H])C([H])([H])C2([H])N([H])C(=O)C1([H])N(C(=O)C([H])(N([H])C(=O)C([H])(N([H])C([H])([H])[H])C([H])([H])[H])C(C([H])([H])[H])(C([H])([H])[H])C([H])([H])[H])C([H])([H])c2c([H])c(OC([H])([H])C([H])([H])C([H])([H])[N+]([H])=C(c3c([H])c(N([H])C(=O)N4C([H])([H])C([H])([H])C([H])([H])C([H])(n5nc(-c6c([H])c([H])c(Oc7c([H])c([H])c(F)c([H])c7F)c([H])c6[H])c(C(=O)N([H])[H])c5N([H])[H])C4([H])[H])c([H])c([H])c3C([H])([H])[H])N([H])[H])c([H])c([H])c2C1([H])[H]

>  <smiles>  (30) 
[H]c1c([H])c([H])c2c(c1[H])C([H])([H])C([H])([H])C([H])([H])C2([H])N([H])C(=O)C1([H])N(C(=O)C([H])(N([H])C(=O)C([H])(N([H])C([H])([H])[H])C([H])([H])[H])C(C([H])([H])[H])(C([H])([H])[H])C([H])([H])[H])C([H])([H])c2c([H])c(OC([H])([H])C([H])([H])C([H])([H])[N+]([H])=C(c3c([H])c(N([H])C(=O)N4C([H])([H])C([H])([H])C([H])([H])C([H])(n5nc(-c6c([H])c([H])c(Oc7c([H])c([H])c(F)c([H])c7F)c([H])c6[H])c(C(=O)N([H])[H])c5N([H])[H])C4([H])[H])c([H])c([H])c3C([H])([H])[H])N([H])[H])c([H])c([H])c2C1([H])[H]

$$$$
30:0:0
     RDKit          3D

 97106  0  0  1  0  0  0  0  0999 V2000
  -26.8160  -24.8500   21.5900 C   0  0  0  0  0  0  0  0  0  0  0  0
  -27.8750  -25.0620   20.6760 C   0  0  0  0  0  3  0  0  0  0  0  0
  -26.0330  -23.6940   21.4550 C   0  0  0  0  0  0  0  0  0  0  0  0
  -28.8110  -23.9170   20.2540 C   0  0  0  0  0  0  0  0  0  0  0  0
  -25.0970  -23.3990   22.3930 C   0  0  0  0  0  2  0  0  0  0  0  0
  -26.0880  -22.8220   20.2210 C   0  0  0  0  0  2  0  0  0  0  0  0
  -27.2480  -21.8730   20.3490 C   0  0  0  0  0  2  0  0  0  0  0  0
  -28.5560  -22.5350   20.4380 N   0  0  0  0  0  0  0  0  0  0  0  0
  -26.5360  -25.7090   22.4640 O   0  0  0  0  0  0  0  0  0  0  0  0
  -29.9320  -24.2390   19.8580 O   0  0  0  0  0  0  0  0  0  0  0  0
  -28.2570  -26.4360   20.4100 O   0  0  0  0  0  0  0  0  0  0  0  0
  -24.6030  -31.9810   23.2660 C   0  0  0  0  0  0  0  0  0  0  0  0
  -27.2490  -27.4210   20.2350 C   0  0  0  0  0  0  0  0  0  0  0  0
  -23.4280  -30.5990   21.5950 C   0  0  0  0  0  3  0  0  0  0  0  0
  -24.9070  -29.0800   20.1560 C   0  0  0  0  0  0  0  0  0  0  0  0
  -25.9700  -30.9230   21.4520 C   0  0  0  0  0  2  0  0  0  0  0  0
  -26.0640  -29.5490   20.7920 C   0  0  0  0  0  0  0  0  0  0  0  0
  -27.2380  -28.7270   20.8350 C   0  0  0  0  0  3  0  0  0  0  0  0
  -26.0920  -27.0450   19.5170 C   0  0  0  0  0  3  0  0  0  0  0  0
  -24.9310  -27.8390   19.5010 C   0  0  0  0  0  3  0  0  0  0  0  0
  -23.6630  -29.9490   20.2080 C   0  0  0  0  0  2  0  0  0  0  0  0
  -24.6860  -31.1850   22.1600 N   0  0  0  0  0  0  0  0  0  0  0  0
  -23.5090  -32.2500   23.7870 O   0  0  0  0  0  0  0  0  0  0  0  0
  -22.7570  -29.5680   22.5400 C   0  0  0  0  0  0  0  0  0  0  0  0
  -21.4300  -29.3960   22.4070 N   0  0  0  0  0  0  0  0  0  0  0  0
  -23.4300  -28.9340   23.3550 O   0  0  0  0  0  0  0  0  0  0  0  0
  -20.9410  -29.9600   21.7280 H   0  0  0  0  0  0  0  0  0  0  0  0
  -18.0450  -28.2240   22.9030 C   0  0  0  0  0  0  0  0  0  0  0  0
  -20.6090  -28.4470   23.1620 C   0  0  0  0  0  3  0  0  0  0  0  0
  -20.6920  -27.0300   22.5500 C   0  0  0  0  0  2  0  0  0  0  0  0
  -19.5810  -26.7440   21.5360 C   0  0  0  0  0  2  0  0  0  0  0  0
  -18.2030  -26.8910   22.1880 C   0  0  0  0  0  2  0  0  0  0  0  0
  -19.1760  -28.9630   23.3410 C   0  0  0  0  0  0  0  0  0  0  0  0
  -18.9750  -30.2170   23.9570 C   0  0  0  0  0  3  0  0  0  0  0  0
  -17.6760  -30.7270   24.1460 C   0  0  0  0  0  3  0  0  0  0  0  0
  -16.5610  -29.9860   23.7190 C   0  0  0  0  0  3  0  0  0  0  0  0
  -16.7450  -28.7360   23.1010 C   0  0  0  0  0  3  0  0  0  0  0  0
  -25.8730  -32.6180   23.9140 C   0  0  0  0  0  3  0  0  0  0  0  0
  -25.5640  -34.0220   24.2280 N   0  0  0  0  0  0  0  0  0  0  0  0
  -25.9080  -35.0650   23.4610 C   0  0  0  0  0  0  0  0  0  0  0  0
  -26.5860  -34.9470   22.4370 O   0  0  0  0  0  0  0  0  0  0  0  0
  -24.9750  -34.1920   25.0280 H   0  0  0  0  0  0  0  0  0  0  0  0
  -24.1810  -36.8520   23.0790 C   0  0  0  0  0  1  0  0  0  0  0  0
  -25.4200  -36.4600   23.9000 C   0  0  0  0  0  3  0  0  0  0  0  0
  -27.5490  -37.3540   24.7270 C   0  0  0  0  0  1  0  0  0  0  0  0
  -26.4480  -37.5160   23.7830 N   0  0  0  0  0  0  0  0  0  0  0  0
  -26.0370  -38.4350   23.9200 H   0  0  0  0  0  0  0  0  0  0  0  0
  -26.3550  -31.8570   25.2090 C   0  0  1  0  0  0  0  0  0  0  0  0
  -25.2350  -31.6320   26.2500 C   0  0  0  0  0  1  0  0  0  0  0  0
  -26.9460  -30.4780   24.8390 C   0  0  0  0  0  1  0  0  0  0  0  0
  -27.4900  -32.6580   25.8940 C   0  0  0  0  0  1  0  0  0  0  0  0
  -29.5970  -21.4600   20.8060 C   0  0  0  0  0  2  0  0  0  0  0  0
  -30.6700  -18.8250   18.0890 C   0  0  0  0  0  3  0  0  0  0  0  0
  -30.5520  -17.5810   18.7360 C   0  0  0  0  0  3  0  0  0  0  0  0
  -29.7390  -18.7440   20.7060 C   0  0  0  0  0  3  0  0  0  0  0  0
  -30.3760  -20.0470   18.7390 C   0  0  0  0  0  0  0  0  0  0  0  0
  -29.8400  -20.0540   20.0580 C   0  0  0  0  0  0  0  0  0  0  0  0
  -30.1230  -17.4770   20.0810 C   0  0  0  0  0  0  0  0  0  0  0  0
  -30.7470  -21.3230   17.9940 C   0  0  0  0  0  1  0  0  0  0  0  0
  -30.7480  -14.9520   20.3830 C   0  0  0  0  0  0  0  0  0  0  0  0
  -30.5530  -12.6510   19.4180 C   0  0  0  0  0  2  0  0  0  0  0  0
  -29.6440  -12.7120   18.1680 C   0  0  0  0  0  2  0  0  0  0  0  0
  -28.1690  -12.5290   18.5720 C   0  0  0  0  0  2  0  0  0  0  0  0
  -27.7700  -13.4350   19.7660 C   0  0  0  0  0  3  0  0  0  0  0  0
  -28.8050  -13.3660   20.9120 C   0  0  0  0  0  2  0  0  0  0  0  0
  -30.1140  -13.7230   20.3490 N   0  0  0  0  0  0  0  0  0  0  0  0
  -31.9270  -15.0220   20.0210 O   0  0  0  0  0  0  0  0  0  0  0  0
  -30.0290  -16.1100   20.6840 N   0  0  0  0  0  0  0  0  0  0  0  0
  -29.2090  -15.9540   21.2480 H   0  0  0  0  0  0  0  0  0  0  0  0
  -25.3640  -14.0240   20.4210 C   0  0  0  0  0  0  0  0  0  0  0  0
  -24.2970  -13.2500   20.7850 C   0  0  0  0  0  0  0  0  0  0  0  0
  -24.7660  -11.9020   20.7910 C   0  0  0  0  0  0  0  0  0  0  0  0
  -26.4180  -13.1450   20.2320 N   0  0  0  0  0  0  0  0  0  0  0  0
  -26.0670  -11.8650   20.5170 N   0  0  0  0  0  0  0  0  0  0  0  0
  -24.0400  -10.6380   20.9880 C   0  0  0  0  0  0  0  0  0  0  0  0
  -24.4570   -9.6880   21.9450 C   0  0  0  0  0  3  0  0  0  0  0  0
  -23.7320   -8.4910   22.1280 C   0  0  0  0  0  3  0  0  0  0  0  0
  -22.5720   -8.2380   21.3560 C   0  0  0  0  0  0  0  0  0  0  0  0
  -22.1740   -9.1770   20.3880 C   0  0  0  0  0  3  0  0  0  0  0  0
  -22.9010  -10.3650   20.2020 C   0  0  0  0  0  3  0  0  0  0  0  0
  -21.8190   -7.0940   21.4500 O   0  0  0  0  0  0  0  0  0  0  0  0
  -21.7550   -6.3660   22.6120 C   0  0  0  0  0  0  0  0  0  0  0  0
  -21.3160   -6.9370   23.8270 C   0  0  0  0  0  3  0  0  0  0  0  0
  -21.2000   -6.1330   24.9790 C   0  0  0  0  0  3  0  0  0  0  0  0
  -21.5140   -4.7620   24.9170 C   0  0  0  0  0  0  0  0  0  0  0  0
  -21.9490   -4.1940   23.7070 C   0  0  0  0  0  3  0  0  0  0  0  0
  -22.0650   -4.9930   22.5570 C   0  0  0  0  0  0  0  0  0  0  0  0
  -22.4640   -4.4340   21.3890 F   0  0  0  0  0  0  0  0  0  0  0  0
  -21.3970   -3.9890   26.0210 F   0  0  0  0  0  0  0  0  0  0  0  0
  -22.8900  -13.7290   21.0130 C   0  0  0  0  0  0  0  0  0  0  0  0
  -22.1470  -13.0440   21.8770 N   0  0  0  0  0  0  0  0  0  0  0  0
  -22.4580  -14.7330   20.4560 O   0  0  0  0  0  0  0  0  0  0  0  0
  -22.5120  -12.2300   22.3480 H   0  0  0  0  0  0  0  0  0  0  0  0
  -21.2040  -13.3450   22.0740 H   0  0  0  0  0  0  0  0  0  0  0  0
  -25.5340  -15.3880   20.2220 N   0  0  0  0  0  0  0  0  0  0  0  0
  -24.7640  -16.0470   20.2670 H   0  0  0  0  0  0  0  0  0  0  0  0
  -26.3950  -15.8080   19.8920 H   0  0  0  0  0  0  0  0  0  0  0  0
  1  9  2  0
  2 11  1  0
  2  1  1  0
  3  1  1  0
  3  5  2  0
  4  8  1  0
  4  2  1  0
  6  7  1  0
  6  3  1  0
  7  8  1  0
  8 52  1  0
 10  4  2  0
 12 23  2  0
 13 11  1  0
 13 18  1  0
 14 22  1  0
 14 24  1  0
 15 21  1  0
 15 17  1  0
 16 22  1  0
 17 18  2  0
 17 16  1  0
 19 13  2  0
 20 19  1  0
 20 15  2  0
 21 14  1  0
 22 12  1  0
 24 26  2  0
 25 24  1  0
 27 25  1  0
 28 37  2  0
 28 33  1  0
 29 25  1  0
 29 33  1  0
 30 29  1  0
 31 32  1  0
 31 30  1  0
 32 28  1  0
 33 34  2  0
 34 35  1  0
 36 35  2  0
 37 36  1  0
 38 12  1  0
 38 39  1  0
 38 48  1  0
 39 42  1  0
 40 44  1  0
 40 39  1  0
 41 40  2  0
 44 43  1  0
 46 44  1  0
 46 47  1  0
 46 45  1  0
 48 51  1  1
 48 49  1  0
 50 48  1  0
 53 54  2  0
 53 56  1  0
 54 58  1  0
 56 57  2  0
 57 55  1  0
 57 52  1  0
 58 68  1  0
 58 55  2  0
 59 56  1  0
 60 68  1  0
 61 66  1  0
 62 63  1  0
 62 61  1  0
 64 63  1  0
 64 73  1  0
 64 65  1  0
 66 60  1  0
 66 65  1  0
 67 60  2  0
 68 69  1  0
 70 71  2  0
 71 72  1  0
 71 90  1  0
 72 75  1  0
 73 70  1  0
 73 74  1  0
 74 72  2  0
 75 76  1  0
 76 77  2  0
 78 81  1  0
 78 77  1  0
 79 78  2  0
 80 79  1  0
 80 75  2  0
 81 82  1  0
 82 83  1  0
 83 84  2  0
 85 84  1  0
 85 89  1  0
 86 85  2  0
 87 82  2  0
 87 86  1  0
 88 87  1  0
 90 91  1  0
 91 94  1  0
 91 93  1  0
 92 90  2  0
 95 96  1  0
 95 70  1  0
 97 95  1  0
M  ISO  4   2 101  11 101  60 100  68 100
M  END
>  <TORSDO>  (31) 
F 18

>  <SCORE>  (31) 
-14.703

>  <name>  (31) 
30

>  <ligand_id>  (31) 
30

>  <original_smiles>  (31) 
[H]C([H])=C1C([O-])=C(Oc2c([H])c([H])c3c(c2[H])C([H])([H])N(C(=O)C([H])(N([H])C(=O)C([H])(N([H])C([H])([H])[H])C([H])([H])[H])C(C([H])([H])[H])(C([H])([H])[H])C([H])([H])[H])C([H])(C(=O)N([H])C2([H])c4c([H])c([H])c([H])c([H])c4C([H])([H])C([H])([H])C2([H])[H])C3([H])[H])C(=O)N(C([H])([H])c2c([H])c(N([H])C(=O)N3C([H])([H])C([H])([H])C([H])([H])C([H])(n4nc(-c5c([H])c([H])c(Oc6c([H])c([H])c(F)c([H])c6F)c([H])c5[H])c(C(=O)N([H])[H])c4N([H])[H])C3([H])[H])c([H])c([H])c2C([H])([H])[H])C([H])([H])C1([H])[H]

>  <smiles>  (31) 
[H]C([H])=C1C([O-])=C(Oc2c([H])c([H])c3c(c2[H])C([H])([H])N(C(=O)C([H])(N([H])C(=O)C([H])(N([H])C([H])([H])[H])C([H])([H])[H])C(C([H])([H])[H])(C([H])([H])[H])C([H])([H])[H])C([H])(C(=O)N([H])C2([H])c4c([H])c([H])c([H])c([H])c4C([H])([H])C([H])([H])C2([H])[H])C3([H])[H])C(=O)N(C([H])([H])c2c([H])c(N([H])C(=O)N3C([H])([H])C([H])([H])C([H])([H])C([H])(n4nc(-c5c([H])c([H])c(Oc6c([H])c([H])c(F)c([H])c6F)c([H])c5[H])c(C(=O)N([H])[H])c4N([H])[H])C3([H])[H])c([H])c([H])c2C([H])([H])[H])C([H])([H])C1([H])[H]

$$$$
31:0:0
     RDKit          3D

 93101  0  0  1  0  0  0  0  0999 V2000
  -28.7310  -22.9420   20.1400 C   0  0  0  0  0  0  0  0  0  0  0  0
  -31.0170  -22.3690   20.9050 C   0  0  0  0  0  1  0  0  0  0  0  0
  -29.7720  -22.0730   20.1910 N   0  0  0  0  0  0  0  0  0  0  0  0
  -27.5670  -22.5540   19.9960 O   0  0  0  0  0  0  0  0  0  0  0  0
  -29.1140  -24.3530   20.0670 C   0  0  0  0  0  3  0  0  0  0  0  0
  -28.1940  -25.2990   20.3320 C   0  0  0  0  0  3  0  0  0  0  0  0
  -28.3850  -26.6550   20.1700 O   0  0  0  0  0  0  0  0  0  0  0  0
  -24.6110  -31.8730   23.2250 C   0  0  0  0  0  0  0  0  0  0  0  0
  -27.2400  -27.4270   20.1380 C   0  0  0  0  0  0  0  0  0  0  0  0
  -23.4010  -30.4680   21.5900 C   0  0  0  0  0  3  0  0  0  0  0  0
  -24.8490  -28.9370   20.1590 C   0  0  0  0  0  0  0  0  0  0  0  0
  -25.9260  -30.8280   21.3820 C   0  0  0  0  0  2  0  0  0  0  0  0
  -26.0100  -29.4560   20.7470 C   0  0  0  0  0  0  0  0  0  0  0  0
  -27.2090  -28.7050   20.7420 C   0  0  0  0  0  3  0  0  0  0  0  0
  -26.0670  -26.9400   19.5150 C   0  0  0  0  0  3  0  0  0  0  0  0
  -24.8700  -27.6750   19.5440 C   0  0  0  0  0  3  0  0  0  0  0  0
  -23.6060  -29.7950   20.2090 C   0  0  0  0  0  2  0  0  0  0  0  0
  -24.6660  -31.0700   22.1260 N   0  0  0  0  0  0  0  0  0  0  0  0
  -23.5320  -32.1440   23.7700 O   0  0  0  0  0  0  0  0  0  0  0  0
  -22.7570  -29.4430   22.5510 C   0  0  0  0  0  0  0  0  0  0  0  0
  -21.4300  -29.2640   22.4360 N   0  0  0  0  0  0  0  0  0  0  0  0
  -23.4460  -28.8120   23.3570 O   0  0  0  0  0  0  0  0  0  0  0  0
  -20.9330  -29.8280   21.7610 H   0  0  0  0  0  0  0  0  0  0  0  0
  -18.0580  -28.0790   22.9590 C   0  0  0  0  0  0  0  0  0  0  0  0
  -20.6180  -28.3260   23.2120 C   0  0  0  0  0  3  0  0  0  0  0  0
  -20.7110  -26.8950   22.6330 C   0  0  0  0  0  2  0  0  0  0  0  0
  -19.6000  -26.5780   21.6280 C   0  0  0  0  0  2  0  0  0  0  0  0
  -18.2240  -26.7290   22.2820 C   0  0  0  0  0  2  0  0  0  0  0  0
  -19.1830  -28.8360   23.3820 C   0  0  0  0  0  0  0  0  0  0  0  0
  -18.9730  -30.1000   23.9740 C   0  0  0  0  0  3  0  0  0  0  0  0
  -17.6710  -30.6080   24.1470 C   0  0  0  0  0  3  0  0  0  0  0  0
  -16.5620  -29.8470   23.7400 C   0  0  0  0  0  3  0  0  0  0  0  0
  -16.7560  -28.5840   23.1520 C   0  0  0  0  0  3  0  0  0  0  0  0
  -25.8990  -32.5070   23.8380 C   0  0  0  0  0  3  0  0  0  0  0  0
  -26.4310  -31.7310   25.1050 C   0  0  1  0  0  0  0  0  0  0  0  0
  -25.3490  -31.4800   26.1810 C   0  0  0  0  0  1  0  0  0  0  0  0
  -27.0160  -30.3600   24.6950 C   0  0  0  0  0  1  0  0  0  0  0  0
  -27.5830  -32.5260   25.7620 C   0  0  0  0  0  1  0  0  0  0  0  0
  -25.5870  -33.9010   24.1750 N   0  0  0  0  0  0  0  0  0  0  0  0
  -25.9140  -34.9570   23.4180 C   0  0  0  0  0  0  0  0  0  0  0  0
  -26.5820  -34.8600   22.3850 O   0  0  0  0  0  0  0  0  0  0  0  0
  -24.9960  -34.0520   24.9800 H   0  0  0  0  0  0  0  0  0  0  0  0
  -24.1830  -36.7460   23.0660 C   0  0  0  0  0  1  0  0  0  0  0  0
  -25.4230  -36.3420   23.8800 C   0  0  0  0  0  3  0  0  0  0  0  0
  -27.5560  -37.2260   24.7170 C   0  0  0  0  0  1  0  0  0  0  0  0
  -26.4530  -37.3990   23.7740 N   0  0  0  0  0  0  0  0  0  0  0  0
  -26.0450  -38.3160   23.9310 H   0  0  0  0  0  0  0  0  0  0  0  0
  -29.7590  -20.8450   19.3710 C   0  0  0  0  0  2  0  0  0  0  0  0
  -31.2120  -18.8480   20.0000 C   0  0  0  0  0  3  0  0  0  0  0  0
  -31.3470  -17.4980   20.3860 C   0  0  0  0  0  3  0  0  0  0  0  0
  -28.9980  -17.4440   21.0040 C   0  0  0  0  0  3  0  0  0  0  0  0
  -29.9550  -19.4910   20.0580 C   0  0  0  0  0  0  0  0  0  0  0  0
  -30.2200  -16.7610   20.8300 C   0  0  0  0  0  0  0  0  0  0  0  0
  -28.8590  -18.7930   20.6090 C   0  0  0  0  0  0  0  0  0  0  0  0
  -27.6460  -19.3880   20.6900 F   0  0  0  0  0  0  0  0  0  0  0  0
  -30.7740  -14.4280   20.2470 C   0  0  0  0  0  0  0  0  0  0  0  0
  -30.3540  -12.3380   19.0060 C   0  0  0  0  0  2  0  0  0  0  0  0
  -29.3770  -12.6150   17.8470 C   0  0  0  0  0  2  0  0  0  0  0  0
  -27.9150  -12.4890   18.3170 C   0  0  0  0  0  2  0  0  0  0  0  0
  -27.6430  -13.2660   19.6310 C   0  0  0  0  0  3  0  0  0  0  0  0
  -28.7360  -12.9930   20.6920 C   0  0  0  0  0  2  0  0  0  0  0  0
  -30.0540  -13.2820   20.0960 N   0  0  0  0  0  0  0  0  0  0  0  0
  -31.8270  -14.6310   19.6400 O   0  0  0  0  0  0  0  0  0  0  0  0
  -30.2460  -15.3510   21.0750 N   0  0  0  0  0  0  0  0  0  0  0  0
  -29.4820  -14.9950   21.6310 H   0  0  0  0  0  0  0  0  0  0  0  0
  -25.2660  -13.8600   20.4180 C   0  0  0  0  0  0  0  0  0  0  0  0
  -24.2110  -13.0820   20.8130 C   0  0  0  0  0  0  0  0  0  0  0  0
  -24.6720  -11.7310   20.7550 C   0  0  0  0  0  0  0  0  0  0  0  0
  -26.3050  -12.9840   20.1480 N   0  0  0  0  0  0  0  0  0  0  0  0
  -25.9520  -11.6970   20.4050 N   0  0  0  0  0  0  0  0  0  0  0  0
  -23.9530  -10.4670   20.9580 C   0  0  0  0  0  0  0  0  0  0  0  0
  -24.3970   -9.5080   21.8950 C   0  0  0  0  0  3  0  0  0  0  0  0
  -23.6790   -8.3070   22.0840 C   0  0  0  0  0  3  0  0  0  0  0  0
  -22.5030   -8.0570   21.3380 C   0  0  0  0  0  0  0  0  0  0  0  0
  -22.0800   -9.0040   20.3880 C   0  0  0  0  0  3  0  0  0  0  0  0
  -22.7970  -10.1960   20.1970 C   0  0  0  0  0  3  0  0  0  0  0  0
  -21.7530   -6.9100   21.4390 O   0  0  0  0  0  0  0  0  0  0  0  0
  -21.6850   -6.1940   22.6090 C   0  0  0  0  0  0  0  0  0  0  0  0
  -21.2330   -6.7760   23.8130 C   0  0  0  0  0  3  0  0  0  0  0  0
  -21.1130   -5.9860   24.9740 C   0  0  0  0  0  3  0  0  0  0  0  0
  -21.4330   -4.6170   24.9330 C   0  0  0  0  0  0  0  0  0  0  0  0
  -21.8780   -4.0340   23.7330 C   0  0  0  0  0  3  0  0  0  0  0  0
  -22.0010   -4.8210   22.5730 C   0  0  0  0  0  0  0  0  0  0  0  0
  -22.4090   -4.2510   21.4140 F   0  0  0  0  0  0  0  0  0  0  0  0
  -21.3110   -3.8560   26.0460 F   0  0  0  0  0  0  0  0  0  0  0  0
  -22.8250  -13.5530   21.1390 C   0  0  0  0  0  0  0  0  0  0  0  0
  -22.1280  -12.8480   22.0240 N   0  0  0  0  0  0  0  0  0  0  0  0
  -22.3680  -14.5820   20.6430 O   0  0  0  0  0  0  0  0  0  0  0  0
  -22.5100  -12.0150   22.4470 H   0  0  0  0  0  0  0  0  0  0  0  0
  -21.1960  -13.1440   22.2810 H   0  0  0  0  0  0  0  0  0  0  0  0
  -25.4250  -15.2320   20.2470 N   0  0  0  0  0  0  0  0  0  0  0  0
  -24.6670  -15.8910   20.3900 H   0  0  0  0  0  0  0  0  0  0  0  0
  -26.2660  -15.6690   19.8930 H   0  0  0  0  0  0  0  0  0  0  0  0
  1  3  1  0
  3  2  1  0
  4  1  2  0
  5  1  1  0
  5  6  2  0
  7  6  1  0
  8 19  2  0
  9  7  1  0
  9 14  1  0
 10 18  1  0
 10 20  1  0
 11 17  1  0
 11 13  1  0
 12 18  1  0
 13 12  1  0
 14 13  2  0
 15 16  1  0
 15  9  2  0
 16 11  2  0
 17 10  1  0
 18  8  1  0
 20 22  2  0
 21 20  1  0
 23 21  1  0
 24 33  2  0
 24 29  1  0
 25 21  1  0
 25 29  1  0
 26 25  1  0
 27 28  1  0
 27 26  1  0
 28 24  1  0
 29 30  2  0
 30 31  1  0
 32 31  2  0
 33 32  1  0
 34  8  1  0
 34 39  1  0
 34 35  1  0
 35 38  1  1
 35 36  1  0
 37 35  1  0
 39 42  1  0
 40 44  1  0
 40 39  1  0
 41 40  2  0
 44 43  1  0
 46 44  1  0
 46 47  1  0
 46 45  1  0
 48 52  1  0
 48  3  1  0
 49 52  2  0
 49 50  1  0
 50 53  2  0
 52 54  1  0
 53 51  1  0
 53 64  1  0
 54 55  1  0
 54 51  2  0
 56 64  1  0
 57 62  1  0
 58 59  1  0
 58 57  1  0
 60 59  1  0
 60 69  1  0
 60 61  1  0
 62 56  1  0
 62 61  1  0
 63 56  2  0
 64 65  1  0
 66 67  2  0
 67 86  1  0
 68 67  1  0
 68 71  1  0
 69 70  1  0
 69 66  1  0
 70 68  2  0
 71 72  1  0
 72 73  2  0
 74 77  1  0
 74 73  1  0
 75 74  2  0
 76 75  1  0
 76 71  2  0
 77 78  1  0
 78 79  1  0
 79 80  2  0
 81 80  1  0
 81 85  1  0
 82 81  2  0
 83 78  2  0
 83 82  1  0
 84 83  1  0
 86 87  1  0
 87 90  1  0
 87 89  1  0
 88 86  2  0
 91 92  1  0
 91 66  1  0
 93 91  1  0
M  ISO  4   6 101   7 101  56 100  64 100
M  END
>  <TORSDO>  (32) 
F 19

>  <SCORE>  (32) 
-14.311

>  <name>  (32) 
31

>  <ligand_id>  (32) 
31

>  <original_smiles>  (32) 
[H]C(Oc1c([H])c([H])c2c(c1[H])C([H])([H])N(C(=O)C([H])(N([H])C(=O)C([H])(N([H])C([H])([H])[H])C([H])([H])[H])C(C([H])([H])[H])(C([H])([H])[H])C([H])([H])[H])C([H])(C(=O)N([H])C1([H])c3c([H])c([H])c([H])c([H])c3C([H])([H])C([H])([H])C1([H])[H])C2([H])[H])=C([H])C(=O)N(C([H])([H])[H])C([H])([H])c1c([H])c([H])c(N([H])C(=O)N2C([H])([H])C([H])([H])C([H])([H])C([H])(n3nc(-c4c([H])c([H])c(Oc5c([H])c([H])c(F)c([H])c5F)c([H])c4[H])c(C(=O)N([H])[H])c3N([H])[H])C2([H])[H])c([H])c1F

>  <smiles>  (32) 
[H]C(Oc1c([H])c([H])c2c(c1[H])C([H])([H])N(C(=O)C([H])(N([H])C(=O)C([H])(N([H])C([H])([H])[H])C([H])([H])[H])C(C([H])([H])[H])(C([H])([H])[H])C([H])([H])[H])C([H])(C(=O)N([H])C1([H])c3c([H])c([H])c([H])c([H])c3C([H])([H])C([H])([H])C1([H])[H])C2([H])[H])=C([H])C(=O)N(C([H])([H])[H])C([H])([H])c1c([H])c([H])c(N([H])C(=O)N2C([H])([H])C([H])([H])C([H])([H])C([H])(n3nc(-c4c([H])c([H])c(Oc5c([H])c([H])c(F)c([H])c5F)c([H])c4[H])c(C(=O)N([H])[H])c3N([H])[H])C2([H])[H])c([H])c1F

$$$$
32:0:0
     RDKit          3D

 94102  0  0  1  0  0  0  0  0999 V2000
  -27.8200  -17.9700   20.8390 C   0  0  0  0  0  3  0  0  0  0  0  0
  -29.6620  -13.9470   18.7800 C   0  0  0  0  0  2  0  0  0  0  0  0
  -28.8410  -13.3430   20.6070 C   0  0  0  0  0  2  0  0  0  0  0  0
  -28.7140  -16.3690   19.0420 C   0  0  0  0  0  2  0  0  0  0  0  0
  -29.5410  -15.3550   18.3160 C   0  0  0  0  0  3  0  0  0  0  0  0
  -28.0730  -16.2750   20.4090 C   0  0  0  0  0  0  0  0  0  0  0  0
  -28.0130  -14.7990   21.2400 C   0  0  0  0  0  3  0  0  0  0  0  0
  -27.3450  -14.7510   22.8330 Cl  0  0  0  0  0  0  0  0  0  0  0  0
  -30.9220  -15.7900   17.8440 C   0  0  0  0  0  2  0  0  0  0  0  0
  -32.2380  -14.0140   19.3720 C   0  0  0  0  0  0  0  0  0  0  0  0
  -30.8550  -11.8430   19.1010 C   0  0  0  0  0  3  0  0  0  0  0  0
  -29.3390  -11.5070   18.0830 C   0  0  0  0  0  3  0  0  0  0  0  0
  -27.7840  -12.4620   17.9020 C   0  0  0  0  0  2  0  0  0  0  0  0
  -27.4290  -14.0380   18.9330 C   0  0  0  0  0  2  0  0  0  0  0  0
  -30.3260  -14.5190   20.4860 C   0  0  0  0  0  3  0  0  0  0  0  0
  -31.3020  -13.2620   19.9710 N   0  0  0  0  0  0  0  0  0  0  0  0
  -33.3590  -13.6340   19.3880 O   0  0  0  0  0  0  0  0  0  0  0  0
  -32.0370  -15.1830   18.6600 N   0  0  0  0  0  0  0  0  0  0  0  0
  -32.9110  -15.6700   18.5140 H   0  0  0  0  0  0  0  0  0  0  0  0
  -25.2900  -14.0200   20.1860 C   0  0  0  0  0  0  0  0  0  0  0  0
  -24.3950  -13.1360   20.6590 C   0  0  0  0  0  0  0  0  0  0  0  0
  -24.9500  -11.8310   20.5500 C   0  0  0  0  0  3  0  0  0  0  0  0
  -26.2870  -13.3110   19.6680 N   0  0  0  0  0  0  0  0  0  0  0  0
  -26.1850  -11.9630   20.0660 N   0  0  0  0  0  2  0  0  0  0  0  0
  -24.2800  -10.5220   20.7610 C   0  0  0  0  0  0  0  0  0  0  0  0
  -24.7070   -9.5450   21.6910 C   0  0  0  0  0  3  0  0  0  0  0  0
  -23.9570   -8.3560   21.8750 C   0  0  0  0  0  3  0  0  0  0  0  0
  -22.7610   -8.1320   21.1450 C   0  0  0  0  0  0  0  0  0  0  0  0
  -22.3660   -9.0890   20.1940 C   0  0  0  0  0  3  0  0  0  0  0  0
  -23.1160  -10.2650   20.0100 C   0  0  0  0  0  3  0  0  0  0  0  0
  -21.9700   -7.0100   21.2440 O   0  0  0  0  0  0  0  0  0  0  0  0
  -21.8320   -6.3150   22.4200 C   0  0  0  0  0  0  0  0  0  0  0  0
  -21.3010   -6.9100   23.5880 C   0  0  0  0  0  3  0  0  0  0  0  0
  -21.1080   -6.1320   24.7460 C   0  0  0  0  0  3  0  0  0  0  0  0
  -21.4330   -4.7630   24.7410 C   0  0  0  0  0  0  0  0  0  0  0  0
  -21.9520   -4.1670   23.5780 C   0  0  0  0  0  3  0  0  0  0  0  0
  -22.1460   -4.9390   22.4210 C   0  0  0  0  0  0  0  0  0  0  0  0
  -22.6190   -4.3510   21.2950 F   0  0  0  0  0  0  0  0  0  0  0  0
  -21.2460   -4.0170   25.8550 F   0  0  0  0  0  0  0  0  0  0  0  0
  -23.0180  -13.5610   20.9910 C   0  0  0  0  0  0  0  0  0  0  0  0
  -22.3370  -12.8720   21.8880 N   0  0  0  0  0  0  0  0  0  0  0  0
  -22.5590  -14.5730   20.4680 O   0  0  0  0  0  0  0  0  0  0  0  0
  -22.7050  -12.0340   22.3130 H   0  0  0  0  0  0  0  0  0  0  0  0
  -21.3890  -13.1430   22.1130 H   0  0  0  0  0  0  0  0  0  0  0  0
  -25.3150  -15.3950   20.0850 N   0  0  0  0  0  0  0  0  0  0  0  0
  -24.5040  -15.9480   20.3510 H   0  0  0  0  0  0  0  0  0  0  0  0
  -26.0790  -15.9320   19.6960 H   0  0  0  0  0  0  0  0  0  0  0  0
  -28.1860  -20.8650   20.1870 C   0  0  0  0  0  0  0  0  0  0  0  0
  -27.9130  -19.4190   19.9520 N   0  0  0  0  0  0  0  0  0  0  0  0
  -28.5120  -21.1410   21.3360 O   0  0  0  0  0  0  0  0  0  0  0  0
  -27.6610  -19.2810   18.9810 H   0  0  0  0  0  0  0  0  0  0  0  0
  -28.1860  -22.2860   19.1290 C   0  0  0  0  0  3  0  0  0  0  0  0
  -27.8840  -24.0560   19.4230 C   0  0  0  0  0  3  0  0  0  0  0  0
  -28.0050  -25.5350   18.6410 O   0  0  0  0  0  0  0  0  0  0  0  0
  -24.7620  -31.0980   22.5450 C   0  0  0  0  0  0  0  0  0  0  0  0
  -27.0900  -26.6970   18.7770 C   0  0  0  0  0  0  0  0  0  0  0  0
  -23.4850  -29.9050   20.8170 C   0  0  0  0  0  3  0  0  0  0  0  0
  -24.8460  -28.5840   19.0690 C   0  0  0  0  0  0  0  0  0  0  0  0
  -26.0260  -30.2120   20.5210 C   0  0  0  0  0  2  0  0  0  0  0  0
  -26.0660  -28.9030   19.6810 C   0  0  0  0  0  0  0  0  0  0  0  0
  -27.1970  -27.9810   19.5110 C   0  0  0  0  0  3  0  0  0  0  0  0
  -25.8650  -26.5700   18.0960 C   0  0  0  0  0  3  0  0  0  0  0  0
  -24.7740  -27.4550   18.2410 C   0  0  0  0  0  3  0  0  0  0  0  0
  -23.6230  -29.4570   19.3380 C   0  0  0  0  0  2  0  0  0  0  0  0
  -24.7830  -30.4320   21.3470 N   0  0  0  0  0  0  0  0  0  0  0  0
  -23.7080  -31.2610   23.1830 O   0  0  0  0  0  0  0  0  0  0  0  0
  -22.9070  -28.7410   21.6690 C   0  0  0  0  0  0  0  0  0  0  0  0
  -21.5810  -28.5250   21.6090 N   0  0  0  0  0  0  0  0  0  0  0  0
  -23.6570  -28.0420   22.3570 O   0  0  0  0  0  0  0  0  0  0  0  0
  -21.0240  -29.1490   21.0410 H   0  0  0  0  0  0  0  0  0  0  0  0
  -18.2980  -27.0860   22.1530 C   0  0  0  0  0  0  0  0  0  0  0  0
  -20.8550  -27.4500   22.2930 C   0  0  0  0  0  3  0  0  0  0  0  0
  -20.9820  -26.1160   21.5220 C   0  0  0  0  0  2  0  0  0  0  0  0
  -19.8280  -25.8740   20.5420 C   0  0  0  0  0  2  0  0  0  0  0  0
  -18.4890  -25.8540   21.2850 C   0  0  0  0  0  2  0  0  0  0  0  0
  -19.4080  -27.8430   22.6140 C   0  0  0  0  0  0  0  0  0  0  0  0
  -19.1700  -28.9960   23.3930 C   0  0  0  0  0  3  0  0  0  0  0  0
  -17.8580  -29.3950   23.7100 C   0  0  0  0  0  3  0  0  0  0  0  0
  -16.7640  -28.6340   23.2610 C   0  0  0  0  0  3  0  0  0  0  0  0
  -16.9860  -27.4800   22.4880 C   0  0  0  0  0  3  0  0  0  0  0  0
  -26.0600  -31.6960   23.1680 C   0  0  0  0  0  3  0  0  0  0  0  0
  -25.7010  -32.9620   23.8300 N   0  0  0  0  0  0  0  0  0  0  0  0
  -25.9270  -34.1830   23.3260 C   0  0  0  0  0  0  0  0  0  0  0  0
  -26.5240  -34.3610   22.2620 O   0  0  0  0  0  0  0  0  0  0  0  0
  -25.1550  -32.8880   24.6760 H   0  0  0  0  0  0  0  0  0  0  0  0
  -24.0940  -35.9040   23.5080 C   0  0  0  0  0  1  0  0  0  0  0  0
  -25.4080  -35.3970   24.1240 C   0  0  0  0  0  3  0  0  0  0  0  0
  -27.5430  -36.2100   25.0290 C   0  0  0  0  0  1  0  0  0  0  0  0
  -26.3790  -36.5110   24.2010 N   0  0  0  0  0  0  0  0  0  0  0  0
  -25.9350  -37.3500   24.5660 H   0  0  0  0  0  0  0  0  0  0  0  0
  -26.7570  -30.7230   24.2000 C   0  0  1  0  0  0  0  0  0  0  0  0
  -25.8040  -30.1900   25.2970 C   0  0  0  0  0  1  0  0  0  0  0  0
  -27.3700  -29.4980   23.4840 C   0  0  0  0  0  1  0  0  0  0  0  0
  -27.9290  -31.4530   24.8990 C   0  0  0  0  0  1  0  0  0  0  0  0
  3  7  1  0
  4  6  1  0
  5  9  1  0
  5  2  1  0
  5  4  1  0
  6  1  2  0
  6  7  1  0
  7  8  1  0
  9 18  1  0
 10 17  2  0
 10 16  1  0
 11 16  1  0
 12 11  2  0
 13 12  1  0
 13 14  1  0
 14 23  1  0
 15  2  1  0
 15  3  1  0
 16 15  1  0
 18 10  1  0
 19 18  1  0
 20 21  2  0
 21 40  1  0
 22 21  1  0
 22 25  1  0
 23 24  1  0
 23 20  1  0
 24 22  1  0
 25 26  1  0
 26 27  2  0
 28 31  1  0
 28 27  1  0
 29 28  2  0
 30 29  1  0
 30 25  2  0
 31 32  1  0
 32 37  2  0
 32 33  1  0
 33 34  2  0
 35 34  1  0
 35 39  1  0
 36 35  2  0
 37 36  1  0
 38 37  1  0
 40 41  1  0
 41 44  1  0
 41 43  1  0
 42 40  2  0
 45 20  1  0
 45 46  1  0
 47 45  1  0
 48 50  2  0
 49 48  1  0
 49  1  1  0
 51 49  1  0
 52 53  2  0
 52 48  1  0
 54 56  1  0
 54 53  1  0
 55 66  2  0
 56 61  1  0
 57 65  1  0
 57 67  1  0
 58 64  1  0
 58 60  1  0
 59 65  1  0
 60 59  1  0
 61 60  2  0
 62 63  1  0
 62 56  2  0
 63 58  2  0
 64 57  1  0
 65 55  1  0
 67 69  2  0
 68 67  1  0
 70 68  1  0
 71 80  2  0
 71 76  1  0
 72 68  1  0
 72 76  1  0
 73 72  1  0
 74 75  1  0
 74 73  1  0
 75 71  1  0
 76 77  2  0
 77 78  1  0
 79 78  2  0
 80 79  1  0
 81 55  1  0
 81 82  1  0
 81 91  1  0
 82 85  1  0
 83 82  1  0
 83 87  1  0
 84 83  2  0
 87 86  1  0
 87 89  1  0
 89 90  1  0
 89 88  1  0
 91 94  1  1
 91 92  1  0
 93 91  1  0
M  ISO  4  10 100  18 100  53 101  54 101
M  END
>  <TORSDO>  (33) 
F 21

>  <SCORE>  (33) 
-7.240

>  <name>  (33) 
32

>  <ligand_id>  (33) 
32

>  <original_smiles>  (33) 
[H]c1c([H])c([H])c2c(c1[H])C([H])([H])C([H])([H])C([H])([H])C2([H])N([H])C(=O)C1([H])N(C(=O)C([H])(N([H])C(=O)C([H])(N([H])C([H])([H])[H])C([H])([H])[H])C(C([H])([H])[H])(C([H])([H])[H])C([H])([H])[H])C([H])([H])c2c([H])c(OC([H])([H])C([H])([H])C(=O)N([H])C([H])([H])c3c([H])c(C([H])([H])N([H])C(=O)N4C([H])([H])C([H])([H])C([H])([H])C([H])(n5nc(-c6c([H])c([H])c(Oc7c([H])c([H])c(F)c([H])c7F)c([H])c6[H])c(C(=O)N([H])[H])c5N([H])[H])C4([H])[H])c([H])c([H])c3Cl)c([H])c([H])c2C1([H])[H]

>  <smiles>  (33) 
[H]c1c([H])c([H])c2c(c1[H])C([H])([H])C([H])([H])C([H])([H])C2([H])N([H])C(=O)C1([H])N(C(=O)C([H])(N([H])C(=O)C([H])(N([H])C([H])([H])[H])C([H])([H])[H])C(C([H])([H])[H])(C([H])([H])[H])C([H])([H])[H])C([H])([H])c2c([H])c(OC([H])([H])C([H])([H])C(=O)N([H])C([H])([H])c3c([H])c(C([H])([H])N([H])C(=O)N4C([H])([H])C([H])([H])C([H])([H])C([H])(n5nc(-c6c([H])c([H])c(Oc7c([H])c([H])c(F)c([H])c7F)c([H])c6[H])c(C(=O)N([H])[H])c5N([H])[H])C4([H])[H])c([H])c([H])c3Cl)c([H])c([H])c2C1([H])[H]

$$$$
33:0:0
     RDKit          3D

 94102  0  0  1  0  0  0  0  0999 V2000
  -28.0980  -22.1950   20.0440 C   0  0  0  0  0  0  0  0  0  0  0  0
  -28.8780  -21.3950   20.7670 N   0  0  0  0  0  0  0  0  0  0  0  0
  -26.9880  -21.8580   19.6270 O   0  0  0  0  0  0  0  0  0  0  0  0
  -29.7640  -21.7730   21.0650 H   0  0  0  0  0  0  0  0  0  0  0  0
  -28.7370  -23.4830   19.8350 C   0  0  0  0  0  3  0  0  0  0  0  0
  -28.0580  -24.4990   19.2740 C   0  0  0  0  0  3  0  0  0  0  0  0
  -28.6260  -25.8810   19.0020 C   0  0  0  0  0  2  0  0  0  0  0  0
  -28.3810  -26.8160   20.0570 O   0  0  0  0  0  0  0  0  0  0  0  0
  -24.5940  -31.9080   23.2650 C   0  0  0  0  0  0  0  0  0  0  0  0
  -27.1900  -27.5110   20.0790 C   0  0  0  0  0  0  0  0  0  0  0  0
  -23.3620  -30.5290   21.6240 C   0  0  0  0  0  3  0  0  0  0  0  0
  -24.7920  -29.0090   20.1650 C   0  0  0  0  0  0  0  0  0  0  0  0
  -25.8860  -30.8840   21.3990 C   0  0  0  0  0  2  0  0  0  0  0  0
  -25.9570  -29.5200   20.7460 C   0  0  0  0  0  0  0  0  0  0  0  0
  -27.1560  -28.7720   20.7150 C   0  0  0  0  0  3  0  0  0  0  0  0
  -25.9990  -27.0160   19.4990 C   0  0  0  0  0  3  0  0  0  0  0  0
  -24.8050  -27.7510   19.5480 C   0  0  0  0  0  3  0  0  0  0  0  0
  -23.5530  -29.8690   20.2330 C   0  0  0  0  0  2  0  0  0  0  0  0
  -24.6330  -31.1200   22.1550 N   0  0  0  0  0  0  0  0  0  0  0  0
  -23.5200  -32.1800   23.8180 O   0  0  0  0  0  0  0  0  0  0  0  0
  -22.7230  -29.4930   22.5760 C   0  0  0  0  0  0  0  0  0  0  0  0
  -21.4000  -29.3050   22.4480 N   0  0  0  0  0  0  0  0  0  0  0  0
  -23.4130  -28.8640   23.3810 O   0  0  0  0  0  0  0  0  0  0  0  0
  -20.9070  -29.8680   21.7690 H   0  0  0  0  0  0  0  0  0  0  0  0
  -18.0360  -28.0820   22.9330 C   0  0  0  0  0  0  0  0  0  0  0  0
  -20.5880  -28.3570   23.2110 C   0  0  0  0  0  3  0  0  0  0  0  0
  -20.7040  -26.9280   22.6340 C   0  0  0  0  0  2  0  0  0  0  0  0
  -19.6060  -26.6000   21.6150 C   0  0  0  0  0  2  0  0  0  0  0  0
  -18.2210  -26.7360   22.2530 C   0  0  0  0  0  2  0  0  0  0  0  0
  -19.1470  -28.8520   23.3660 C   0  0  0  0  0  0  0  0  0  0  0  0
  -18.9200  -30.1140   23.9570 C   0  0  0  0  0  3  0  0  0  0  0  0
  -17.6110  -30.6060   24.1200 C   0  0  0  0  0  3  0  0  0  0  0  0
  -16.5140  -29.8340   23.7020 C   0  0  0  0  0  3  0  0  0  0  0  0
  -16.7260  -28.5730   23.1170 C   0  0  0  0  0  3  0  0  0  0  0  0
  -25.8910  -32.5270   23.8760 C   0  0  0  0  0  3  0  0  0  0  0  0
  -26.4220  -31.7410   25.1370 C   0  0  1  0  0  0  0  0  0  0  0  0
  -25.3420  -31.4860   26.2120 C   0  0  0  0  0  1  0  0  0  0  0  0
  -27.0010  -30.3690   24.7190 C   0  0  0  0  0  1  0  0  0  0  0  0
  -27.5830  -32.5250   25.7940 C   0  0  0  0  0  1  0  0  0  0  0  0
  -25.5950  -33.9240   24.2200 N   0  0  0  0  0  0  0  0  0  0  0  0
  -25.9190  -34.9800   23.4600 C   0  0  0  0  0  0  0  0  0  0  0  0
  -26.5760  -34.8800   22.4210 O   0  0  0  0  0  0  0  0  0  0  0  0
  -25.0260  -34.0790   25.0400 H   0  0  0  0  0  0  0  0  0  0  0  0
  -24.1880  -36.7740   23.1300 C   0  0  0  0  0  1  0  0  0  0  0  0
  -25.4350  -36.3660   23.9300 C   0  0  0  0  0  3  0  0  0  0  0  0
  -27.5800  -37.2360   24.7490 C   0  0  0  0  0  1  0  0  0  0  0  0
  -26.4690  -37.4170   23.8180 N   0  0  0  0  0  0  0  0  0  0  0  0
  -26.0650  -38.3360   23.9820 H   0  0  0  0  0  0  0  0  0  0  0  0
  -28.6130  -20.0250   21.1820 C   0  0  0  0  0  2  0  0  0  0  0  0
  -32.1950  -18.5150   20.9800 C   0  0  0  0  0  3  0  0  0  0  0  0
  -31.8810  -17.1510   20.8650 C   0  0  0  0  0  3  0  0  0  0  0  0
  -29.5150  -17.7000   20.9800 C   0  0  0  0  0  3  0  0  0  0  0  0
  -31.1830  -19.4880   21.1030 C   0  0  0  0  0  0  0  0  0  0  0  0
  -29.8140  -19.0780   21.0780 C   0  0  0  0  0  0  0  0  0  0  0  0
  -30.5340  -16.7310   20.8630 C   0  0  0  0  0  0  0  0  0  0  0  0
  -31.6380  -20.9290   21.2960 C   0  0  0  0  0  1  0  0  0  0  0  0
  -30.7760  -14.3890   20.0940 C   0  0  0  0  0  0  0  0  0  0  0  0
  -30.3790  -12.2480   18.9470 C   0  0  0  0  0  2  0  0  0  0  0  0
  -29.3840  -12.4740   17.7910 C   0  0  0  0  0  2  0  0  0  0  0  0
  -27.9300  -12.3640   18.2900 C   0  0  0  0  0  2  0  0  0  0  0  0
  -27.6670  -13.1990   19.5710 C   0  0  0  0  0  3  0  0  0  0  0  0
  -28.7710  -12.9530   20.6250 C   0  0  0  0  0  2  0  0  0  0  0  0
  -30.0730  -13.2310   19.9950 N   0  0  0  0  0  0  0  0  0  0  0  0
  -31.8480  -14.5680   19.5080 O   0  0  0  0  0  0  0  0  0  0  0  0
  -30.1640  -15.3610   20.7890 N   0  0  0  0  0  0  0  0  0  0  0  0
  -29.2520  -15.1160   21.1430 H   0  0  0  0  0  0  0  0  0  0  0  0
  -25.3090  -13.8340   20.3860 C   0  0  0  0  0  0  0  0  0  0  0  0
  -24.2520  -13.0730   20.8070 C   0  0  0  0  0  0  0  0  0  0  0  0
  -24.6960  -11.7160   20.7530 C   0  0  0  0  0  0  0  0  0  0  0  0
  -26.3330  -12.9420   20.1100 N   0  0  0  0  0  0  0  0  0  0  0  0
  -25.9690  -11.6620   20.3830 N   0  0  0  0  0  0  0  0  0  0  0  0
  -23.9650  -10.4610   20.9750 C   0  0  0  0  0  0  0  0  0  0  0  0
  -24.4110   -9.5020   21.9110 C   0  0  0  0  0  3  0  0  0  0  0  0
  -23.6800   -8.3130   22.1200 C   0  0  0  0  0  3  0  0  0  0  0  0
  -22.4900   -8.0740   21.3920 C   0  0  0  0  0  0  0  0  0  0  0  0
  -22.0660   -9.0200   20.4430 C   0  0  0  0  0  3  0  0  0  0  0  0
  -22.7970  -10.2010   20.2320 C   0  0  0  0  0  3  0  0  0  0  0  0
  -21.7300   -6.9360   21.5100 O   0  0  0  0  0  0  0  0  0  0  0  0
  -21.6750   -6.2260   22.6840 C   0  0  0  0  0  0  0  0  0  0  0  0
  -21.2640   -6.8200   23.8960 C   0  0  0  0  0  3  0  0  0  0  0  0
  -21.1560   -6.0360   25.0630 C   0  0  0  0  0  3  0  0  0  0  0  0
  -21.4500   -4.6600   25.0180 C   0  0  0  0  0  0  0  0  0  0  0  0
  -21.8550   -4.0660   23.8080 C   0  0  0  0  0  3  0  0  0  0  0  0
  -21.9650   -4.8470   22.6450 C   0  0  0  0  0  0  0  0  0  0  0  0
  -22.3350   -4.2650   21.4780 F   0  0  0  0  0  0  0  0  0  0  0  0
  -21.3380   -3.9050   26.1350 F   0  0  0  0  0  0  0  0  0  0  0  0
  -22.8740  -13.5640   21.1470 C   0  0  0  0  0  0  0  0  0  0  0  0
  -22.1810  -12.8740   22.0470 N   0  0  0  0  0  0  0  0  0  0  0  0
  -22.4240  -14.5960   20.6520 O   0  0  0  0  0  0  0  0  0  0  0  0
  -22.5550  -12.0360   22.4650 H   0  0  0  0  0  0  0  0  0  0  0  0
  -21.2590  -13.1860   22.3170 H   0  0  0  0  0  0  0  0  0  0  0  0
  -25.4760  -15.2020   20.1930 N   0  0  0  0  0  0  0  0  0  0  0  0
  -24.7070  -15.8540   20.3010 H   0  0  0  0  0  0  0  0  0  0  0  0
  -26.2930  -15.6210   19.7670 H   0  0  0  0  0  0  0  0  0  0  0  0
  1  2  1  0
  2  4  1  0
  2 49  1  0
  3  1  2  0
  5  1  1  0
  6  5  2  0
  7  6  1  0
  7  8  1  0
  8 10  1  0
  9 20  2  0
 10 15  1  0
 11 19  1  0
 11 21  1  0
 12 18  1  0
 12 14  1  0
 13 19  1  0
 14 13  1  0
 15 14  2  0
 16 17  1  0
 16 10  2  0
 17 12  2  0
 18 11  1  0
 19  9  1  0
 21 23  2  0
 22 21  1  0
 24 22  1  0
 25 34  2  0
 25 30  1  0
 26 22  1  0
 26 30  1  0
 27 26  1  0
 28 29  1  0
 28 27  1  0
 29 25  1  0
 30 31  2  0
 31 32  1  0
 33 32  2  0
 34 33  1  0
 35  9  1  0
 35 40  1  0
 35 36  1  0
 36 39  1  1
 36 37  1  0
 38 36  1  0
 40 43  1  0
 41 45  1  0
 41 40  1  0
 42 41  2  0
 45 44  1  0
 47 45  1  0
 47 48  1  0
 47 46  1  0
 50 53  1  0
 51 50  2  0
 52 54  1  0
 53 56  1  0
 54 53  2  0
 54 49  1  0
 55 51  1  0
 55 52  2  0
 57 65  1  0
 58 63  1  0
 59 60  1  0
 59 58  1  0
 61 60  1  0
 61 70  1  0
 61 62  1  0
 63 57  1  0
 63 62  1  0
 64 57  2  0
 65 55  1  0
 65 66  1  0
 67 68  2  0
 68 87  1  0
 69 68  1  0
 69 72  1  0
 70 71  1  0
 70 67  1  0
 71 69  2  0
 72 73  1  0
 73 74  2  0
 75 78  1  0
 75 74  1  0
 76 75  2  0
 77 76  1  0
 77 72  2  0
 78 79  1  0
 79 80  1  0
 80 81  2  0
 82 81  1  0
 82 86  1  0
 83 82  2  0
 84 79  2  0
 84 83  1  0
 85 84  1  0
 87 88  1  0
 88 91  1  0
 88 90  1  0
 89 87  2  0
 92 93  1  0
 92 67  1  0
 94 92  1  0
M  ISO  4   7 101   8 101  57 100  65 100
M  END
>  <TORSDO>  (34) 
F 20

>  <SCORE>  (34) 
-13.564

>  <name>  (34) 
33

>  <ligand_id>  (34) 
33

>  <original_smiles>  (34) 
[H]C(C(=O)N([H])C([H])([H])c1c([H])c(N([H])C(=O)N2C([H])([H])C([H])([H])C([H])([H])C([H])(n3nc(-c4c([H])c([H])c(Oc5c([H])c([H])c(F)c([H])c5F)c([H])c4[H])c(C(=O)N([H])[H])c3N([H])[H])C2([H])[H])c([H])c([H])c1C([H])([H])[H])=C([H])C([H])([H])Oc1c([H])c([H])c2c(c1[H])C([H])([H])N(C(=O)C([H])(N([H])C(=O)C([H])(N([H])C([H])([H])[H])C([H])([H])[H])C(C([H])([H])[H])(C([H])([H])[H])C([H])([H])[H])C([H])(C(=O)N([H])C1([H])c3c([H])c([H])c([H])c([H])c3C([H])([H])C([H])([H])C1([H])[H])C2([H])[H]

>  <smiles>  (34) 
[H]C(C(=O)N([H])C([H])([H])c1c([H])c(N([H])C(=O)N2C([H])([H])C([H])([H])C([H])([H])C([H])(n3nc(-c4c([H])c([H])c(Oc5c([H])c([H])c(F)c([H])c5F)c([H])c4[H])c(C(=O)N([H])[H])c3N([H])[H])C2([H])[H])c([H])c([H])c1C([H])([H])[H])=C([H])C([H])([H])Oc1c([H])c([H])c2c(c1[H])C([H])([H])N(C(=O)C([H])(N([H])C(=O)C([H])(N([H])C([H])([H])[H])C([H])([H])[H])C(C([H])([H])[H])(C([H])([H])[H])C([H])([H])[H])C([H])(C(=O)N([H])C1([H])c3c([H])c([H])c([H])c([H])c3C([H])([H])C([H])([H])C1([H])[H])C2([H])[H]

$$$$
34:0:0
     RDKit          3D

 97106  0  0  1  0  0  0  0  0999 V2000
  -30.9100  -23.2330   22.1790 C   0  0  0  0  0  0  0  0  0  0  0  0
  -30.2080  -24.6170   22.2340 C   0  0  0  0  0  2  0  0  0  0  0  0
  -30.1450  -24.6160   19.7520 C   0  0  0  0  0  2  0  0  0  0  0  0
  -31.1260  -23.4200   19.7170 C   0  0  0  0  0  2  0  0  0  0  0  0
  -30.3740  -25.5080   20.9830 C   0  0  0  0  0  3  0  0  0  0  0  0
  -31.2720  -22.6770   20.9870 N   0  0  0  0  0  0  0  0  0  0  0  0
  -31.1310  -22.6740   23.2570 O   0  0  0  0  0  0  0  0  0  0  0  0
  -32.1980  -21.5050   20.9210 C   0  0  0  0  0  2  0  0  0  0  0  0
  -31.5890  -19.4910   19.4560 C   0  0  0  0  0  3  0  0  0  0  0  0
  -31.2390  -18.1330   19.2640 C   0  0  0  0  0  3  0  0  0  0  0  0
  -31.3500  -19.2210   21.8390 C   0  0  0  0  0  3  0  0  0  0  0  0
  -31.6570  -20.0620   20.7440 C   0  0  0  0  0  0  0  0  0  0  0  0
  -30.9710  -17.8560   21.6580 C   0  0  0  0  0  0  0  0  0  0  0  0
  -30.9090  -17.2750   20.3490 C   0  0  0  0  0  0  0  0  0  0  0  0
  -30.5500  -17.0890   22.8980 C   0  0  0  0  0  1  0  0  0  0  0  0
  -30.9500  -14.7590   20.1080 C   0  0  0  0  0  0  0  0  0  0  0  0
  -30.6430  -12.4360   19.2320 C   0  0  0  0  0  2  0  0  0  0  0  0
  -29.6600  -12.3980   18.0450 C   0  0  0  0  0  2  0  0  0  0  0  0
  -28.1990  -12.2690   18.5300 C   0  0  0  0  0  2  0  0  0  0  0  0
  -27.8550  -13.2050   19.7170 C   0  0  0  0  0  3  0  0  0  0  0  0
  -28.9830  -13.2570   20.7810 C   0  0  0  0  0  2  0  0  0  0  0  0
  -30.2470  -13.5680   20.0900 N   0  0  0  0  0  0  0  0  0  0  0  0
  -32.1630  -14.7400   19.8770 O   0  0  0  0  0  0  0  0  0  0  0  0
  -29.2470  -16.1680   19.1930 C   0  0  0  0  0  0  0  0  0  0  0  0
  -28.1480  -17.1700   19.5590 C   0  0  0  0  0  1  0  0  0  0  0  0
  -30.2840  -15.9830   20.0500 N   0  0  0  0  0  0  0  0  0  0  0  0
  -29.2040  -15.6660   18.0640 O   0  0  0  0  0  0  0  0  0  0  0  0
  -25.5560  -13.8610   20.6430 C   0  0  0  0  0  0  0  0  0  0  0  0
  -24.4860  -13.1140   21.0410 C   0  0  0  0  0  0  0  0  0  0  0  0
  -24.8920  -11.7510   20.9070 C   0  0  0  0  0  0  0  0  0  0  0  0
  -26.5450  -12.9540   20.2930 N   0  0  0  0  0  0  0  0  0  0  0  0
  -26.1590  -11.6770   20.5200 N   0  0  0  0  0  0  0  0  0  0  0  0
  -24.1310  -10.5100   21.0640 C   0  0  0  0  0  0  0  0  0  0  0  0
  -24.5350   -9.5190   21.9840 C   0  0  0  0  0  3  0  0  0  0  0  0
  -23.7790   -8.3400   22.1370 C   0  0  0  0  0  3  0  0  0  0  0  0
  -22.6050   -8.1440   21.3720 C   0  0  0  0  0  0  0  0  0  0  0  0
  -22.2220   -9.1230   20.4400 C   0  0  0  0  0  3  0  0  0  0  0  0
  -22.9770  -10.2950   20.2840 C   0  0  0  0  0  3  0  0  0  0  0  0
  -21.8250   -7.0150   21.4330 O   0  0  0  0  0  0  0  0  0  0  0  0
  -21.6570   -6.3220   22.6050 C   0  0  0  0  0  0  0  0  0  0  0  0
  -21.1140   -6.9250   23.7590 C   0  0  0  0  0  3  0  0  0  0  0  0
  -20.8960   -6.1540   24.9200 C   0  0  0  0  0  3  0  0  0  0  0  0
  -21.2120   -4.7820   24.9220 C   0  0  0  0  0  0  0  0  0  0  0  0
  -21.7500   -4.1800   23.7710 C   0  0  0  0  0  3  0  0  0  0  0  0
  -21.9710   -4.9480   22.6150 C   0  0  0  0  0  0  0  0  0  0  0  0
  -22.4680   -4.3600   21.5000 F   0  0  0  0  0  0  0  0  0  0  0  0
  -20.9970   -4.0370   26.0320 F   0  0  0  0  0  0  0  0  0  0  0  0
  -23.1270  -13.6280   21.4150 C   0  0  0  0  0  0  0  0  0  0  0  0
  -22.4260  -12.9230   22.2950 N   0  0  0  0  0  0  0  0  0  0  0  0
  -22.7010  -14.6900   20.9650 O   0  0  0  0  0  0  0  0  0  0  0  0
  -22.7860  -12.0660   22.6900 H   0  0  0  0  0  0  0  0  0  0  0  0
  -21.5130  -13.2460   22.5750 H   0  0  0  0  0  0  0  0  0  0  0  0
  -25.7460  -15.2330   20.5190 N   0  0  0  0  0  0  0  0  0  0  0  0
  -24.9820  -15.8820   20.6750 H   0  0  0  0  0  0  0  0  0  0  0  0
  -26.5470  -15.6560   20.0750 H   0  0  0  0  0  0  0  0  0  0  0  0
  -29.5090  -26.8240   21.0150 C   0  0  0  0  0  2  0  0  0  0  0  0
  -28.3370  -26.6830   20.1960 O   0  0  0  0  0  0  0  0  0  0  0  0
  -24.5380  -31.9550   23.3280 C   0  0  0  0  0  0  0  0  0  0  0  0
  -27.2290  -27.5120   20.2780 C   0  0  0  0  0  0  0  0  0  0  0  0
  -23.3350  -30.5490   21.6880 C   0  0  0  0  0  3  0  0  0  0  0  0
  -24.8060  -28.9990   20.2870 C   0  0  0  0  0  0  0  0  0  0  0  0
  -25.8600  -30.9160   21.4860 C   0  0  0  0  0  2  0  0  0  0  0  0
  -25.9630  -29.5320   20.8700 C   0  0  0  0  0  0  0  0  0  0  0  0
  -27.1780  -28.7970   20.8730 C   0  0  0  0  0  3  0  0  0  0  0  0
  -26.0500  -26.9980   19.6880 C   0  0  0  0  0  3  0  0  0  0  0  0
  -24.8420  -27.7250   19.6970 C   0  0  0  0  0  3  0  0  0  0  0  0
  -23.5570  -29.8560   20.3180 C   0  0  0  0  0  2  0  0  0  0  0  0
  -24.5970  -31.1510   22.2310 N   0  0  0  0  0  0  0  0  0  0  0  0
  -23.4550  -32.2320   23.8640 O   0  0  0  0  0  0  0  0  0  0  0  0
  -22.6760  -29.5350   22.6540 C   0  0  0  0  0  0  0  0  0  0  0  0
  -21.3580  -29.3330   22.5020 N   0  0  0  0  0  0  0  0  0  0  0  0
  -23.3520  -28.9330   23.4920 O   0  0  0  0  0  0  0  0  0  0  0  0
  -20.8730  -29.8760   21.8010 H   0  0  0  0  0  0  0  0  0  0  0  0
  -17.9940  -28.0850   22.9440 C   0  0  0  0  0  0  0  0  0  0  0  0
  -20.5400  -28.3940   23.2710 C   0  0  0  0  0  3  0  0  0  0  0  0
  -20.6820  -26.9550   22.7260 C   0  0  0  0  0  2  0  0  0  0  0  0
  -19.6110  -26.5920   21.6920 C   0  0  0  0  0  2  0  0  0  0  0  0
  -18.2110  -26.7240   22.3000 C   0  0  0  0  0  2  0  0  0  0  0  0
  -19.0880  -28.8730   23.3870 C   0  0  0  0  0  0  0  0  0  0  0  0
  -18.8340  -30.1430   23.9480 C   0  0  0  0  0  3  0  0  0  0  0  0
  -17.5160  -30.6250   24.0720 C   0  0  0  0  0  3  0  0  0  0  0  0
  -16.4360  -29.8340   23.6430 C   0  0  0  0  0  3  0  0  0  0  0  0
  -16.6760  -28.5670   23.0840 C   0  0  0  0  0  3  0  0  0  0  0  0
  -25.8230  -32.5870   23.9490 C   0  0  0  0  0  3  0  0  0  0  0  0
  -26.3180  -31.8410   25.2460 C   0  0  1  0  0  0  0  0  0  0  0  0
  -25.2070  -31.6280   26.3000 C   0  0  0  0  0  1  0  0  0  0  0  0
  -26.9020  -30.4550   24.8830 C   0  0  0  0  0  1  0  0  0  0  0  0
  -27.4590  -32.6450   25.9110 C   0  0  0  0  0  1  0  0  0  0  0  0
  -25.5270  -33.9970   24.2340 N   0  0  0  0  0  0  0  0  0  0  0  0
  -25.8910  -35.0230   23.4520 C   0  0  0  0  0  0  0  0  0  0  0  0
  -26.5760  -34.8820   22.4370 O   0  0  0  0  0  0  0  0  0  0  0  0
  -24.9150  -34.1840   25.0150 H   0  0  0  0  0  0  0  0  0  0  0  0
  -24.1960  -36.8310   23.0180 C   0  0  0  0  0  1  0  0  0  0  0  0
  -25.4180  -36.4320   23.8610 C   0  0  0  0  0  3  0  0  0  0  0  0
  -27.5530  -37.3100   24.7050 C   0  0  0  0  0  1  0  0  0  0  0  0
  -26.4700  -37.4650   23.7350 N   0  0  0  0  0  0  0  0  0  0  0  0
  -26.0750  -38.3950   23.8450 H   0  0  0  0  0  0  0  0  0  0  0  0
  1  2  1  0
  1  7  2  0
  3  5  1  0
  4  3  1  0
  4  6  1  0
  5 56  1  0
  5  2  1  0
  6  1  1  0
  8  6  1  0
  9 12  1  0
 10  9  2  0
 10 14  1  0
 12  8  1  0
 12 11  2  0
 13 11  1  0
 13 15  1  0
 14 13  2  0
 17 22  1  0
 18 19  1  0
 18 17  1  0
 20 19  1  0
 20 31  1  0
 20 21  1  0
 22 16  1  0
 22 21  1  0
 23 16  2  0
 24 25  1  0
 24 26  1  0
 26 16  1  0
 26 14  1  0
 27 24  2  0
 28 29  2  0
 29 48  1  0
 30 29  1  0
 30 33  1  0
 31 32  1  0
 31 28  1  0
 32 30  2  0
 33 34  1  0
 34 35  2  0
 36 39  1  0
 36 35  1  0
 37 36  2  0
 38 37  1  0
 38 33  2  0
 39 40  1  0
 40 45  2  0
 40 41  1  0
 41 42  2  0
 42 43  1  0
 43 47  1  0
 44 43  2  0
 45 44  1  0
 46 45  1  0
 48 49  1  0
 49 52  1  0
 49 51  1  0
 50 48  2  0
 53 28  1  0
 53 54  1  0
 55 53  1  0
 57 59  1  0
 57 56  1  0
 58 69  2  0
 59 64  1  0
 60 68  1  0
 60 70  1  0
 61 67  1  0
 61 63  1  0
 62 68  1  0
 63 64  2  0
 63 62  1  0
 65 66  1  0
 65 59  2  0
 66 61  2  0
 67 60  1  0
 68 58  1  0
 70 72  2  0
 71 70  1  0
 73 71  1  0
 74 83  2  0
 74 79  1  0
 75 71  1  0
 75 79  1  0
 76 75  1  0
 77 78  1  0
 77 76  1  0
 78 74  1  0
 79 80  2  0
 80 81  1  0
 82 81  2  0
 83 82  1  0
 84 58  1  0
 84 89  1  0
 84 85  1  0
 85 88  1  1
 85 86  1  0
 87 85  1  0
 89 92  1  0
 90 94  1  0
 90 89  1  0
 91 90  2  0
 94 93  1  0
 96 97  1  0
 96 94  1  0
 96 95  1  0
M  ISO  4  16 100  26 100  56 101  57 101
M  END
>  <TORSDO>  (35) 
F 19

>  <SCORE>  (35) 
-12.302

>  <name>  (35) 
34

>  <ligand_id>  (35) 
34

>  <original_smiles>  (35) 
[H]c1c([H])c([H])c2c(c1[H])C([H])([H])C([H])([H])C([H])([H])C2([H])N([H])C(=O)C1([H])N(C(=O)C([H])(N([H])C(=O)C([H])(N([H])C([H])([H])[H])C([H])([H])[H])C(C([H])([H])[H])(C([H])([H])[H])C([H])([H])[H])C([H])([H])c2c([H])c(OC([H])([H])C3([H])C([H])([H])C(=O)N(C([H])([H])c4c([H])c([H])c(N(C(=O)N5C([H])([H])C([H])([H])C([H])([H])C([H])(n6nc(-c7c([H])c([H])c(Oc8c([H])c([H])c(F)c([H])c8F)c([H])c7[H])c(C(=O)N([H])[H])c6N([H])[H])C5([H])[H])C(=O)C([H])([H])[H])c(C([H])([H])[H])c4[H])C([H])([H])C3([H])[H])c([H])c([H])c2C1([H])[H]

>  <smiles>  (35) 
[H]c1c([H])c([H])c2c(c1[H])C([H])([H])C([H])([H])C([H])([H])C2([H])N([H])C(=O)C1([H])N(C(=O)C([H])(N([H])C(=O)C([H])(N([H])C([H])([H])[H])C([H])([H])[H])C(C([H])([H])[H])(C([H])([H])[H])C([H])([H])[H])C([H])([H])c2c([H])c(OC([H])([H])C3([H])C([H])([H])C(=O)N(C([H])([H])c4c([H])c([H])c(N(C(=O)N5C([H])([H])C([H])([H])C([H])([H])C([H])(n6nc(-c7c([H])c([H])c(Oc8c([H])c([H])c(F)c([H])c8F)c([H])c7[H])c(C(=O)N([H])[H])c6N([H])[H])C5([H])[H])C(=O)C([H])([H])[H])c(C([H])([H])[H])c4[H])C([H])([H])C3([H])[H])c([H])c([H])c2C1([H])[H]

$$$$
35:0:0
     RDKit          3D

 97105  0  0  1  0  0  0  0  0999 V2000
  -27.9870  -22.2780   21.1750 C   0  0  0  0  0  3  0  0  0  0  0  0
  -28.0760  -24.7080   20.6510 C   0  0  0  0  0  0  0  0  0  0  0  0
  -26.5580  -22.3010   21.6620 C   0  0  0  0  0  1  0  0  0  0  0  0
  -28.5830  -23.3630   20.6030 N   0  0  0  0  0  0  0  0  0  0  0  0
  -28.6260  -21.0890   21.3050 N   0  0  0  0  0  0  0  0  0  0  0  0
  -27.2070  -25.0370   21.4670 O   0  0  0  0  0  0  0  0  0  0  0  0
  -29.3910  -23.1660   20.0350 H   0  0  0  0  0  0  0  0  0  0  0  0
  -28.0970  -20.3270   21.7090 H   0  0  0  0  0  0  0  0  0  0  0  0
  -30.0180  -20.7310   20.9870 C   0  0  0  0  0  2  0  0  0  0  0  0
  -30.2490  -19.5960   18.7650 C   0  0  0  0  0  3  0  0  0  0  0  0
  -30.3510  -17.1870   18.4980 C   0  0  0  0  0  3  0  0  0  0  0  0
  -30.1100  -19.4500   20.1620 C   0  0  0  0  0  0  0  0  0  0  0  0
  -30.0660  -18.1450   20.7370 C   0  0  0  0  0  0  0  0  0  0  0  0
  -30.2200  -17.0070   19.8970 C   0  0  0  0  0  0  0  0  0  0  0  0
  -30.3640  -18.4700   17.9350 C   0  0  0  0  0  0  0  0  0  0  0  0
  -29.8770  -17.9290   22.2360 C   0  0  0  0  0  1  0  0  0  0  0  0
  -30.5230  -18.6610   16.2280 Cl  0  0  0  0  0  0  0  0  0  0  0  0
  -30.9050  -14.6470   20.0070 C   0  0  0  0  0  0  0  0  0  0  0  0
  -30.5810  -12.4580   18.9530 C   0  0  0  0  0  2  0  0  0  0  0  0
  -29.5910  -12.6390   17.7830 C   0  0  0  0  0  2  0  0  0  0  0  0
  -28.1370  -12.5080   18.2770 C   0  0  0  0  0  2  0  0  0  0  0  0
  -27.8460  -13.3710   19.5340 C   0  0  0  0  0  3  0  0  0  0  0  0
  -28.9460  -13.1800   20.6040 C   0  0  0  0  0  2  0  0  0  0  0  0
  -30.2490  -13.4580   19.9770 N   0  0  0  0  0  0  0  0  0  0  0  0
  -32.0250  -14.8140   19.5140 O   0  0  0  0  0  0  0  0  0  0  0  0
  -30.1840  -15.6900   20.4510 N   0  0  0  0  0  0  0  0  0  0  0  0
  -29.3870  -15.4710   21.0270 H   0  0  0  0  0  0  0  0  0  0  0  0
  -25.4890  -13.9790   20.3780 C   0  0  0  0  0  0  0  0  0  0  0  0
  -24.4320  -13.2030   20.7730 C   0  0  0  0  0  0  0  0  0  0  0  0
  -24.8770  -11.8490   20.6730 C   0  0  0  0  0  0  0  0  0  0  0  0
  -26.5130  -13.0970   20.0680 N   0  0  0  0  0  0  0  0  0  0  0  0
  -26.1500  -11.8090   20.3000 N   0  0  0  0  0  0  0  0  0  0  0  0
  -24.1490  -10.5870   20.8540 C   0  0  0  0  0  0  0  0  0  0  0  0
  -24.5450   -9.6370   21.8230 C   0  0  0  0  0  3  0  0  0  0  0  0
  -23.8170   -8.4390   21.9900 C   0  0  0  0  0  3  0  0  0  0  0  0
  -22.6790   -8.1820   21.1890 C   0  0  0  0  0  0  0  0  0  0  0  0
  -22.3030   -9.1200   20.2120 C   0  0  0  0  0  3  0  0  0  0  0  0
  -23.0310  -10.3090   20.0430 C   0  0  0  0  0  3  0  0  0  0  0  0
  -21.9260   -7.0350   21.2650 O   0  0  0  0  0  0  0  0  0  0  0  0
  -21.7250   -6.3820   22.4540 C   0  0  0  0  0  0  0  0  0  0  0  0
  -21.1170   -7.0180   23.5580 C   0  0  0  0  0  3  0  0  0  0  0  0
  -20.8680   -6.2900   24.7380 C   0  0  0  0  0  3  0  0  0  0  0  0
  -21.2140   -4.9290   24.8140 C   0  0  0  0  0  0  0  0  0  0  0  0
  -21.8130   -4.2920   23.7130 C   0  0  0  0  0  3  0  0  0  0  0  0
  -22.0660   -5.0170   22.5350 C   0  0  0  0  0  0  0  0  0  0  0  0
  -22.6240   -4.3940   21.4700 F   0  0  0  0  0  0  0  0  0  0  0  0
  -20.9660   -4.2280   25.9450 F   0  0  0  0  0  0  0  0  0  0  0  0
  -23.0560  -13.6810   21.1340 C   0  0  0  0  0  0  0  0  0  0  0  0
  -22.3710  -12.9650   22.0190 N   0  0  0  0  0  0  0  0  0  0  0  0
  -22.5980  -14.7230   20.6680 O   0  0  0  0  0  0  0  0  0  0  0  0
  -22.7560  -12.1210   22.4160 H   0  0  0  0  0  0  0  0  0  0  0  0
  -21.4490  -13.2660   22.3050 H   0  0  0  0  0  0  0  0  0  0  0  0
  -25.6630  -15.3520   20.2380 N   0  0  0  0  0  0  0  0  0  0  0  0
  -24.9090  -16.0130   20.3940 H   0  0  0  0  0  0  0  0  0  0  0  0
  -26.4980  -15.7890   19.8680 H   0  0  0  0  0  0  0  0  0  0  0  0
  -28.6760  -25.6900   19.6190 C   0  0  0  0  0  2  0  0  0  0  0  0
  -28.6090  -27.0600   20.0470 O   0  0  0  0  0  0  0  0  0  0  0  0
  -24.7390  -31.9540   23.3990 C   0  0  0  0  0  0  0  0  0  0  0  0
  -27.4110  -27.7510   20.0300 C   0  0  0  0  0  0  0  0  0  0  0  0
  -23.5400  -30.6540   21.6700 C   0  0  0  0  0  3  0  0  0  0  0  0
  -25.0000  -29.2270   20.1430 C   0  0  0  0  0  0  0  0  0  0  0  0
  -26.0620  -31.0400   21.4990 C   0  0  0  0  0  2  0  0  0  0  0  0
  -26.1520  -29.7160   20.7690 C   0  0  0  0  0  0  0  0  0  0  0  0
  -27.3550  -28.9820   20.7170 C   0  0  0  0  0  3  0  0  0  0  0  0
  -26.2440  -27.2820   19.3790 C   0  0  0  0  0  3  0  0  0  0  0  0
  -25.0420  -28.0080   19.4460 C   0  0  0  0  0  3  0  0  0  0  0  0
  -23.7480  -30.0660   20.2500 C   0  0  0  0  0  2  0  0  0  0  0  0
  -24.7980  -31.2260   22.2480 N   0  0  0  0  0  0  0  0  0  0  0  0
  -23.6570  -32.1900   23.9550 O   0  0  0  0  0  0  0  0  0  0  0  0
  -22.8970  -29.5700   22.5650 C   0  0  0  0  0  0  0  0  0  0  0  0
  -21.5770  -29.3750   22.4100 N   0  0  0  0  0  0  0  0  0  0  0  0
  -23.5820  -28.9100   23.3510 O   0  0  0  0  0  0  0  0  0  0  0  0
  -21.0870  -29.9580   21.7460 H   0  0  0  0  0  0  0  0  0  0  0  0
  -18.2190  -28.1080   22.7980 C   0  0  0  0  0  0  0  0  0  0  0  0
  -20.7690  -28.3850   23.1170 C   0  0  0  0  0  3  0  0  0  0  0  0
  -20.9000  -26.9900   22.4620 C   0  0  0  0  0  2  0  0  0  0  0  0
  -19.8130  -26.7110   21.4180 C   0  0  0  0  0  2  0  0  0  0  0  0
  -18.4210  -26.8000   22.0510 C   0  0  0  0  0  2  0  0  0  0  0  0
  -19.3210  -28.8600   23.2850 C   0  0  0  0  0  0  0  0  0  0  0  0
  -19.0800  -30.0870   23.9400 C   0  0  0  0  0  3  0  0  0  0  0  0
  -17.7670  -30.5610   24.1180 C   0  0  0  0  0  3  0  0  0  0  0  0
  -16.6780  -29.8070   23.6460 C   0  0  0  0  0  3  0  0  0  0  0  0
  -16.9050  -28.5850   22.9900 C   0  0  0  0  0  3  0  0  0  0  0  0
  -26.0240  -32.5500   24.0560 C   0  0  0  0  0  3  0  0  0  0  0  0
  -26.5100  -31.7330   25.3160 C   0  0  1  0  0  0  0  0  0  0  0  0
  -25.3940  -31.4660   26.3530 C   0  0  0  0  0  1  0  0  0  0  0  0
  -27.0900  -30.3650   24.8870 C   0  0  0  0  0  1  0  0  0  0  0  0
  -27.6540  -32.4970   26.0240 C   0  0  0  0  0  1  0  0  0  0  0  0
  -25.7270  -33.9430   24.4160 N   0  0  0  0  0  0  0  0  0  0  0  0
  -26.0930  -35.0090   23.6900 C   0  0  0  0  0  0  0  0  0  0  0  0
  -26.7820  -34.9210   22.6710 O   0  0  0  0  0  0  0  0  0  0  0  0
  -25.1010  -34.0850   25.1940 H   0  0  0  0  0  0  0  0  0  0  0  0
  -24.3920  -36.8330   23.3530 C   0  0  0  0  0  1  0  0  0  0  0  0
  -25.6160  -36.3920   24.1710 C   0  0  0  0  0  3  0  0  0  0  0  0
  -27.7450  -37.2320   25.0610 C   0  0  0  0  0  1  0  0  0  0  0  0
  -26.6620  -37.4330   24.1000 N   0  0  0  0  0  0  0  0  0  0  0  0
  -26.2660  -38.3560   24.2540 H   0  0  0  0  0  0  0  0  0  0  0  0
  1  5  1  0
  1  3  1  0
  2  6  2  0
  4  2  1  0
  4  1  1  0
  5  8  1  0
  7  4  1  0
  9  5  1  0
 10 12  1  0
 11 14  2  0
 12 13  2  0
 12  9  1  0
 13 16  1  0
 14 26  1  0
 14 13  1  0
 15 11  1  0
 15 10  2  0
 17 15  1  0
 18 26  1  0
 19 24  1  0
 20 21  1  0
 20 19  1  0
 22 21  1  0
 22 31  1  0
 22 23  1  0
 24 18  1  0
 24 23  1  0
 25 18  2  0
 26 27  1  0
 28 29  2  0
 29 48  1  0
 30 29  1  0
 30 33  1  0
 31 32  1  0
 31 28  1  0
 32 30  2  0
 33 34  1  0
 34 35  2  0
 36 39  1  0
 36 35  1  0
 37 36  2  0
 38 37  1  0
 38 33  2  0
 39 40  1  0
 40 45  2  0
 40 41  1  0
 41 42  2  0
 42 43  1  0
 43 47  1  0
 44 43  2  0
 45 44  1  0
 46 45  1  0
 48 49  1  0
 49 52  1  0
 49 51  1  0
 50 48  2  0
 53 28  1  0
 53 54  1  0
 55 53  1  0
 56 57  1  0
 56  2  1  0
 58 69  2  0
 59 57  1  0
 59 64  1  0
 60 68  1  0
 60 70  1  0
 61 67  1  0
 61 63  1  0
 62 68  1  0
 63 62  1  0
 64 63  2  0
 65 66  1  0
 65 59  2  0
 66 61  2  0
 67 60  1  0
 68 58  1  0
 70 72  2  0
 71 70  1  0
 73 71  1  0
 74 83  2  0
 74 79  1  0
 75 71  1  0
 75 79  1  0
 76 75  1  0
 77 78  1  0
 77 76  1  0
 78 74  1  0
 79 80  2  0
 80 81  1  0
 82 81  2  0
 83 82  1  0
 84 58  1  0
 84 89  1  0
 84 85  1  0
 85 88  1  1
 85 86  1  0
 87 85  1  0
 89 92  1  0
 90 94  1  0
 90 89  1  0
 91 90  2  0
 94 93  1  0
 96 94  1  0
 96 97  1  0
 96 95  1  0
M  ISO  4  18 100  26 100  56 101  57 101
M  END
>  <TORSDO>  (36) 
F 19

>  <SCORE>  (36) 
-12.747

>  <name>  (36) 
35

>  <ligand_id>  (36) 
35

>  <original_smiles>  (36) 
[H]c1c([H])c([H])c2c(c1[H])C([H])([H])C([H])([H])C([H])([H])C2([H])N([H])C(=O)C1([H])N(C(=O)C([H])(N([H])C(=O)C([H])(N([H])C([H])([H])[H])C([H])([H])[H])C(C([H])([H])[H])(C([H])([H])[H])C([H])([H])[H])C([H])([H])c2c([H])c(OC([H])([H])C(=O)N([H])C(=[N+]([H])C([H])([H])c3c([H])c(Cl)c([H])c(N([H])C(=O)N4C([H])([H])C([H])([H])C([H])([H])C([H])(n5nc(-c6c([H])c([H])c(Oc7c([H])c([H])c(F)c([H])c7F)c([H])c6[H])c(C(=O)N([H])[H])c5N([H])[H])C4([H])[H])c3C([H])([H])[H])C([H])([H])[H])c([H])c([H])c2C1([H])[H]

>  <smiles>  (36) 
[H]c1c([H])c([H])c2c(c1[H])C([H])([H])C([H])([H])C([H])([H])C2([H])N([H])C(=O)C1([H])N(C(=O)C([H])(N([H])C(=O)C([H])(N([H])C([H])([H])[H])C([H])([H])[H])C(C([H])([H])[H])(C([H])([H])[H])C([H])([H])[H])C([H])([H])c2c([H])c(OC([H])([H])C(=O)N([H])C(=[N+]([H])C([H])([H])c3c([H])c(Cl)c([H])c(N([H])C(=O)N4C([H])([H])C([H])([H])C([H])([H])C([H])(n5nc(-c6c([H])c([H])c(Oc7c([H])c([H])c(F)c([H])c7F)c([H])c6[H])c(C(=O)N([H])[H])c5N([H])[H])C4([H])[H])c3C([H])([H])[H])C([H])([H])[H])c([H])c([H])c2C1([H])[H]

$$$$
36:0:0
     RDKit          3D

 94103  0  0  1  0  0  0  0  0999 V2000
  -28.7480  -21.1540   20.3710 C   0  0  0  0  0  2  0  0  0  0  0  0
  -30.6560  -20.1310   18.9490 C   0  0  0  0  0  3  0  0  0  0  0  0
  -31.2460  -17.7400   18.9170 C   0  0  0  0  0  3  0  0  0  0  0  0
  -29.6270  -19.9090   19.8870 C   0  0  0  0  0  0  0  0  0  0  0  0
  -29.4630  -18.5340   20.3600 C   0  0  0  0  0  0  0  0  0  0  0  0
  -30.2460  -17.4030   19.8610 C   0  0  0  0  0  0  0  0  0  0  0  0
  -31.4570  -19.0710   18.4920 C   0  0  0  0  0  0  0  0  0  0  0  0
  -28.4660  -18.2980   21.4870 C   0  0  0  0  0  1  0  0  0  0  0  0
  -32.7390  -19.4140   17.3930 Cl  0  0  0  0  0  0  0  0  0  0  0  0
  -30.7610  -14.8120   19.9570 C   0  0  0  0  0  0  0  0  0  0  0  0
  -30.4720  -12.5440   18.9510 C   0  0  0  0  0  2  0  0  0  0  0  0
  -29.4780  -12.6550   17.7740 C   0  0  0  0  0  2  0  0  0  0  0  0
  -28.0260  -12.5030   18.2690 C   0  0  0  0  0  2  0  0  0  0  0  0
  -27.7270  -13.3410   19.5430 C   0  0  0  0  0  3  0  0  0  0  0  0
  -28.8530  -13.2320   20.5940 C   0  0  0  0  0  2  0  0  0  0  0  0
  -30.1120  -13.5940   19.9320 N   0  0  0  0  0  0  0  0  0  0  0  0
  -31.9360  -14.8750   19.5930 O   0  0  0  0  0  0  0  0  0  0  0  0
  -30.0240  -15.9660   20.2250 N   0  0  0  0  0  0  0  0  0  0  0  0
  -29.1170  -15.7830   20.6270 H   0  0  0  0  0  0  0  0  0  0  0  0
  -25.3930  -13.9020   20.4480 C   0  0  0  0  0  0  0  0  0  0  0  0
  -24.3500  -13.1180   20.8610 C   0  0  0  0  0  0  0  0  0  0  0  0
  -24.8040  -11.7660   20.7510 C   0  0  0  0  0  0  0  0  0  0  0  0
  -26.4160  -13.0310   20.1090 N   0  0  0  0  0  0  0  0  0  0  0  0
  -26.0740  -11.7390   20.3530 N   0  0  0  0  0  0  0  0  0  0  0  0
  -24.0800  -10.5000   20.9380 C   0  0  0  0  0  0  0  0  0  0  0  0
  -24.5160   -9.5310   21.8680 C   0  0  0  0  0  3  0  0  0  0  0  0
  -23.7930   -8.3300   22.0420 C   0  0  0  0  0  3  0  0  0  0  0  0
  -22.6210   -8.0910   21.2840 C   0  0  0  0  0  0  0  0  0  0  0  0
  -22.2060   -9.0500   20.3420 C   0  0  0  0  0  3  0  0  0  0  0  0
  -22.9300  -10.2410   20.1660 C   0  0  0  0  0  3  0  0  0  0  0  0
  -21.8680   -6.9450   21.3710 O   0  0  0  0  0  0  0  0  0  0  0  0
  -21.7540   -6.2430   22.5470 C   0  0  0  0  0  0  0  0  0  0  0  0
  -21.2320   -6.8330   23.7170 C   0  0  0  0  0  3  0  0  0  0  0  0
  -21.0660   -6.0560   24.8820 C   0  0  0  0  0  3  0  0  0  0  0  0
  -21.4160   -4.6920   24.8760 C   0  0  0  0  0  0  0  0  0  0  0  0
  -21.9300   -4.1020   23.7070 C   0  0  0  0  0  3  0  0  0  0  0  0
  -22.0960   -4.8760   22.5460 C   0  0  0  0  0  0  0  0  0  0  0  0
  -22.5710   -4.2990   21.4150 F   0  0  0  0  0  0  0  0  0  0  0  0
  -21.2520   -3.9430   25.9900 F   0  0  0  0  0  0  0  0  0  0  0  0
  -22.9720  -13.5910   21.2350 C   0  0  0  0  0  0  0  0  0  0  0  0
  -22.2870  -12.8660   22.1140 N   0  0  0  0  0  0  0  0  0  0  0  0
  -22.5130  -14.6370   20.7800 O   0  0  0  0  0  0  0  0  0  0  0  0
  -22.6700  -12.0210   22.5120 H   0  0  0  0  0  0  0  0  0  0  0  0
  -21.3660  -13.1680   22.3980 H   0  0  0  0  0  0  0  0  0  0  0  0
  -25.5490  -15.2790   20.3120 N   0  0  0  0  0  0  0  0  0  0  0  0
  -24.7860  -15.9240   20.4860 H   0  0  0  0  0  0  0  0  0  0  0  0
  -26.3650  -15.7300   19.9200 H   0  0  0  0  0  0  0  0  0  0  0  0
  -28.8680  -23.7790   20.4310 C   0  0  0  0  0  0  0  0  0  0  0  0
  -27.8380  -24.3010   18.3630 C   0  0  0  0  0  2  0  0  0  0  0  0
  -28.3270  -22.8220   18.4090 C   0  0  0  0  0  2  0  0  0  0  0  0
  -28.6090  -25.0220   19.4940 C   0  0  0  0  0  3  0  0  0  0  0  0
  -28.8100  -22.5670   19.7750 N   0  0  0  0  0  0  0  0  0  0  0  0
  -29.0850  -23.9090   21.6410 O   0  0  0  0  0  0  0  0  0  0  0  0
  -28.3900  -26.4140   20.0970 O   0  0  0  0  0  0  0  0  0  0  0  0
  -24.6630  -31.8740   23.1900 C   0  0  0  0  0  0  0  0  0  0  0  0
  -27.2480  -27.2560   20.0830 C   0  0  0  0  0  0  0  0  0  0  0  0
  -23.4450  -30.4780   21.5590 C   0  0  0  0  0  3  0  0  0  0  0  0
  -24.8820  -28.9180   20.1260 C   0  0  0  0  0  0  0  0  0  0  0  0
  -25.9920  -30.7750   21.3650 C   0  0  0  0  0  2  0  0  0  0  0  0
  -26.0650  -29.3910   20.7110 C   0  0  0  0  0  0  0  0  0  0  0  0
  -27.2410  -28.5700   20.6810 C   0  0  0  0  0  3  0  0  0  0  0  0
  -26.0270  -26.8550   19.5060 C   0  0  0  0  0  3  0  0  0  0  0  0
  -24.8680  -27.6530   19.5260 C   0  0  0  0  0  3  0  0  0  0  0  0
  -23.6470  -29.7960   20.1820 C   0  0  0  0  0  2  0  0  0  0  0  0
  -24.7200  -31.0640   22.0920 N   0  0  0  0  0  0  0  0  0  0  0  0
  -23.5820  -32.1510   23.7310 O   0  0  0  0  0  0  0  0  0  0  0  0
  -22.7920  -29.4600   22.5270 C   0  0  0  0  0  0  0  0  0  0  0  0
  -21.4650  -29.2810   22.4170 N   0  0  0  0  0  0  0  0  0  0  0  0
  -23.4810  -28.8320   23.3360 O   0  0  0  0  0  0  0  0  0  0  0  0
  -20.9630  -29.8620   21.7580 H   0  0  0  0  0  0  0  0  0  0  0  0
  -18.0910  -28.0770   22.9510 C   0  0  0  0  0  0  0  0  0  0  0  0
  -20.6540  -28.3370   23.1900 C   0  0  0  0  0  3  0  0  0  0  0  0
  -20.7420  -26.9060   22.6110 C   0  0  0  0  0  2  0  0  0  0  0  0
  -19.6290  -26.5840   21.6070 C   0  0  0  0  0  2  0  0  0  0  0  0
  -18.2570  -26.7270   22.2700 C   0  0  0  0  0  2  0  0  0  0  0  0
  -19.2150  -28.8380   23.3680 C   0  0  0  0  0  0  0  0  0  0  0  0
  -19.0050  -30.0990   23.9670 C   0  0  0  0  0  3  0  0  0  0  0  0
  -17.7030  -30.6010   24.1480 C   0  0  0  0  0  3  0  0  0  0  0  0
  -16.5930  -29.8360   23.7480 C   0  0  0  0  0  3  0  0  0  0  0  0
  -16.7880  -28.5760   23.1560 C   0  0  0  0  0  3  0  0  0  0  0  0
  -25.9470  -32.5110   23.8060 C   0  0  0  0  0  3  0  0  0  0  0  0
  -25.6290  -33.9030   24.1530 N   0  0  0  0  0  0  0  0  0  0  0  0
  -25.9360  -34.9690   23.3990 C   0  0  0  0  0  0  0  0  0  0  0  0
  -26.5850  -34.8850   22.3550 O   0  0  0  0  0  0  0  0  0  0  0  0
  -25.0470  -34.0420   24.9640 H   0  0  0  0  0  0  0  0  0  0  0  0
  -24.1900  -36.7560   23.0960 C   0  0  0  0  0  1  0  0  0  0  0  0
  -25.4460  -36.3480   23.8830 C   0  0  0  0  0  3  0  0  0  0  0  0
  -27.5820  -37.2400   24.7000 C   0  0  0  0  0  1  0  0  0  0  0  0
  -26.4670  -37.4120   23.7730 N   0  0  0  0  0  0  0  0  0  0  0  0
  -26.0550  -38.3260   23.9440 H   0  0  0  0  0  0  0  0  0  0  0  0
  -26.4790  -31.7380   25.0750 C   0  0  1  0  0  0  0  0  0  0  0  0
  -25.3990  -31.4830   26.1540 C   0  0  0  0  0  1  0  0  0  0  0  0
  -27.0700  -30.3680   24.6690 C   0  0  0  0  0  1  0  0  0  0  0  0
  -27.6250  -32.5400   25.7360 C   0  0  0  0  0  1  0  0  0  0  0  0
  2  4  1  0
  3  6  2  0
  4  5  2  0
  4  1  1  0
  5  8  1  0
  6 18  1  0
  6  5  1  0
  7  3  1  0
  7  2  2  0
  9  7  1  0
 10 18  1  0
 11 16  1  0
 12 13  1  0
 12 11  1  0
 14 13  1  0
 14 23  1  0
 14 15  1  0
 16 10  1  0
 16 15  1  0
 17 10  2  0
 18 19  1  0
 20 21  2  0
 21 40  1  0
 22 21  1  0
 22 25  1  0
 23 24  1  0
 23 20  1  0
 24 22  2  0
 25 26  1  0
 26 27  2  0
 28 31  1  0
 28 27  1  0
 29 28  2  0
 30 29  1  0
 30 25  2  0
 31 32  1  0
 32 33  1  0
 33 34  2  0
 35 34  1  0
 35 39  1  0
 36 35  2  0
 37 32  2  0
 37 36  1  0
 38 37  1  0
 40 41  1  0
 41 44  1  0
 41 43  1  0
 42 40  2  0
 45 20  1  0
 45 46  1  0
 47 45  1  0
 48 53  2  0
 49 50  1  0
 49 51  1  0
 50 52  1  0
 51 54  1  0
 51 48  1  0
 52  1  1  0
 52 48  1  0
 55 66  2  0
 56 54  1  0
 56 61  1  0
 57 65  1  0
 57 67  1  0
 58 64  1  0
 58 60  1  0
 59 65  1  0
 60 59  1  0
 61 60  2  0
 62 63  1  0
 62 56  2  0
 63 58  2  0
 64 57  1  0
 65 55  1  0
 67 69  2  0
 68 67  1  0
 70 68  1  0
 71 80  2  0
 71 76  1  0
 72 68  1  0
 72 76  1  0
 73 72  1  0
 74 75  1  0
 74 73  1  0
 75 71  1  0
 76 77  2  0
 77 78  1  0
 79 78  2  0
 80 79  1  0
 81 55  1  0
 81 82  1  0
 81 91  1  0
 82 85  1  0
 83 87  1  0
 83 82  1  0
 84 83  2  0
 87 86  1  0
 89 87  1  0
 89 90  1  0
 89 88  1  0
 91 94  1  1
 91 92  1  0
 93 91  1  0
M  ISO  4  10 100  18 100  51 101  54 101
M  END
>  <TORSDO>  (37) 
F 18

>  <SCORE>  (37) 
-13.266

>  <name>  (37) 
36

>  <ligand_id>  (37) 
36

>  <original_smiles>  (37) 
[H]c1c([H])c([H])c2c(c1[H])C([H])([H])C([H])([H])C([H])([H])C2([H])N([H])C(=O)C1([H])N(C(=O)C([H])(N([H])C(=O)C([H])(N([H])C([H])([H])[H])C([H])([H])[H])C(C([H])([H])[H])(C([H])([H])[H])C([H])([H])[H])C([H])([H])c2c([H])c(OC3([H])C(=O)N(C([H])([H])c4c([H])c(Cl)c([H])c(N([H])C(=O)N5C([H])([H])C([H])([H])C([H])([H])C([H])(n6nc(-c7c([H])c([H])c(Oc8c([H])c([H])c(F)c([H])c8F)c([H])c7[H])c(C(=O)N([H])[H])c6N([H])[H])C5([H])[H])c4C([H])([H])[H])C([H])([H])C3([H])[H])c([H])c([H])c2C1([H])[H]

>  <smiles>  (37) 
[H]c1c([H])c([H])c2c(c1[H])C([H])([H])C([H])([H])C([H])([H])C2([H])N([H])C(=O)C1([H])N(C(=O)C([H])(N([H])C(=O)C([H])(N([H])C([H])([H])[H])C([H])([H])[H])C(C([H])([H])[H])(C([H])([H])[H])C([H])([H])[H])C([H])([H])c2c([H])c(OC3([H])C(=O)N(C([H])([H])c4c([H])c(Cl)c([H])c(N([H])C(=O)N5C([H])([H])C([H])([H])C([H])([H])C([H])(n6nc(-c7c([H])c([H])c(Oc8c([H])c([H])c(F)c([H])c8F)c([H])c7[H])c(C(=O)N([H])[H])c6N([H])[H])C5([H])[H])c4C([H])([H])[H])C([H])([H])C3([H])[H])c([H])c([H])c2C1([H])[H]

$$$$
37:0:0
     RDKit          3D

 96104  0  0  1  0  0  0  0  0999 V2000
  -28.8170  -19.0300   20.7660 C   0  0  0  0  0  3  0  0  0  0  0  0
  -28.9610  -17.6710   21.1160 C   0  0  0  0  0  3  0  0  0  0  0  0
  -30.8410  -17.4900   19.5980 C   0  0  0  0  0  3  0  0  0  0  0  0
  -29.6630  -19.6310   19.8080 C   0  0  0  0  0  0  0  0  0  0  0  0
  -30.7110  -18.8540   19.2350 C   0  0  0  0  0  0  0  0  0  0  0  0
  -29.9600  -16.8720   20.5210 C   0  0  0  0  0  0  0  0  0  0  0  0
  -30.6700  -14.4750   20.2600 C   0  0  0  0  0  0  0  0  0  0  0  0
  -30.3230  -12.3510   19.0700 C   0  0  0  0  0  2  0  0  0  0  0  0
  -29.3520  -12.6130   17.8980 C   0  0  0  0  0  2  0  0  0  0  0  0
  -27.8860  -12.4860   18.3620 C   0  0  0  0  0  2  0  0  0  0  0  0
  -27.5970  -13.2850   19.6620 C   0  0  0  0  0  3  0  0  0  0  0  0
  -28.6760  -13.0040   20.7320 C   0  0  0  0  0  2  0  0  0  0  0  0
  -29.9930  -13.3020   20.1430 N   0  0  0  0  0  0  0  0  0  0  0  0
  -31.7930  -14.6460   19.7770 O   0  0  0  0  0  0  0  0  0  0  0  0
  -29.9770  -15.4740   20.8450 N   0  0  0  0  0  0  0  0  0  0  0  0
  -29.1740  -15.1500   21.3630 H   0  0  0  0  0  0  0  0  0  0  0  0
  -25.2120  -13.9000   20.4130 C   0  0  0  0  0  0  0  0  0  0  0  0
  -24.1500  -13.1310   20.8060 C   0  0  0  0  0  0  0  0  0  0  0  0
  -24.6080  -11.7780   20.7700 C   0  0  0  0  0  0  0  0  0  0  0  0
  -26.2520  -13.0160   20.1660 N   0  0  0  0  0  0  0  0  0  0  0  0
  -25.8920  -11.7350   20.4370 N   0  0  0  0  0  0  0  0  0  0  0  0
  -23.8830  -10.5170   20.9790 C   0  0  0  0  0  0  0  0  0  0  0  0
  -24.3350   -9.5500   21.9030 C   0  0  0  0  0  3  0  0  0  0  0  0
  -23.6110   -8.3550   22.0990 C   0  0  0  0  0  3  0  0  0  0  0  0
  -22.4210   -8.1170   21.3710 C   0  0  0  0  0  0  0  0  0  0  0  0
  -21.9880   -9.0740   20.4350 C   0  0  0  0  0  3  0  0  0  0  0  0
  -22.7120  -10.2610   20.2380 C   0  0  0  0  0  3  0  0  0  0  0  0
  -21.6670   -6.9740   21.4760 O   0  0  0  0  0  0  0  0  0  0  0  0
  -21.6440   -6.2300   22.6290 C   0  0  0  0  0  0  0  0  0  0  0  0
  -21.2540   -6.7860   23.8660 C   0  0  0  0  0  3  0  0  0  0  0  0
  -21.1780   -5.9690   25.0130 C   0  0  0  0  0  3  0  0  0  0  0  0
  -21.4820   -4.5990   24.9220 C   0  0  0  0  0  0  0  0  0  0  0  0
  -21.8670   -4.0410   23.6890 C   0  0  0  0  0  3  0  0  0  0  0  0
  -21.9440   -4.8550   22.5450 C   0  0  0  0  0  0  0  0  0  0  0  0
  -22.2940   -4.3100   21.3550 F   0  0  0  0  0  0  0  0  0  0  0  0
  -21.4030   -3.8120   26.0210 F   0  0  0  0  0  0  0  0  0  0  0  0
  -22.7590  -13.6110   21.1050 C   0  0  0  0  0  0  0  0  0  0  0  0
  -22.0480  -12.9200   21.9890 N   0  0  0  0  0  0  0  0  0  0  0  0
  -22.3120  -14.6360   20.5910 O   0  0  0  0  0  0  0  0  0  0  0  0
  -22.4220  -12.0920   22.4260 H   0  0  0  0  0  0  0  0  0  0  0  0
  -21.1160  -13.2250   22.2310 H   0  0  0  0  0  0  0  0  0  0  0  0
  -25.3780  -15.2700   20.2290 N   0  0  0  0  0  0  0  0  0  0  0  0
  -24.6160  -15.9270   20.3510 H   0  0  0  0  0  0  0  0  0  0  0  0
  -26.2230  -15.7040   19.8790 H   0  0  0  0  0  0  0  0  0  0  0  0
  -31.6810  -19.4420   18.2080 C   0  0  1  0  0  0  0  0  0  0  0  0
  -32.7010  -18.6200   17.9540 F   0  0  0  0  0  0  0  0  0  0  0  0
  -31.0430  -19.6640   17.0580 F   0  0  0  0  0  0  0  0  0  0  0  0
  -32.1980  -20.5900   18.6450 F   0  0  0  0  0  0  0  0  0  0  0  0
  -29.3700  -21.0740   19.3630 C   0  0  0  0  0  2  0  0  0  0  0  0
  -29.1160  -23.4010   20.1290 C   0  0  0  0  0  0  0  0  0  0  0  0
  -30.7160  -21.9310   21.3240 C   0  0  0  0  0  1  0  0  0  0  0  0
  -29.6960  -22.1790   20.2950 N   0  0  0  0  0  0  0  0  0  0  0  0
  -28.3100  -23.6180   19.2180 O   0  0  0  0  0  0  0  0  0  0  0  0
  -29.4650  -24.5580   21.0920 C   0  0  0  0  0  2  0  0  0  0  0  0
  -28.3820  -25.6560   21.2400 C   0  0  0  0  0  2  0  0  0  0  0  0
  -28.4660  -26.7080   20.2680 O   0  0  0  0  0  0  0  0  0  0  0  0
  -24.6200  -31.8950   23.2640 C   0  0  0  0  0  0  0  0  0  0  0  0
  -27.3200  -27.4660   20.2330 C   0  0  0  0  0  0  0  0  0  0  0  0
  -23.4370  -30.4790   21.6150 C   0  0  0  0  0  3  0  0  0  0  0  0
  -24.9170  -28.9440   20.2100 C   0  0  0  0  0  0  0  0  0  0  0  0
  -25.9610  -30.8560   21.4380 C   0  0  0  0  0  2  0  0  0  0  0  0
  -26.0640  -29.4830   20.8080 C   0  0  0  0  0  0  0  0  0  0  0  0
  -27.2720  -28.7500   20.8170 C   0  0  0  0  0  3  0  0  0  0  0  0
  -26.1610  -26.9370   19.6270 C   0  0  0  0  0  3  0  0  0  0  0  0
  -24.9590  -27.6690   19.6170 C   0  0  0  0  0  3  0  0  0  0  0  0
  -23.6650  -29.7930   20.2400 C   0  0  0  0  0  2  0  0  0  0  0  0
  -24.6910  -31.0910   22.1640 N   0  0  0  0  0  0  0  0  0  0  0  0
  -23.5320  -32.1630   23.7930 O   0  0  0  0  0  0  0  0  0  0  0  0
  -22.7820  -29.4590   22.5740 C   0  0  0  0  0  0  0  0  0  0  0  0
  -21.4590  -29.2740   22.4380 N   0  0  0  0  0  0  0  0  0  0  0  0
  -23.4620  -28.8380   23.3940 O   0  0  0  0  0  0  0  0  0  0  0  0
  -20.9720  -29.8300   21.7490 H   0  0  0  0  0  0  0  0  0  0  0  0
  -18.0830  -28.0790   22.9140 C   0  0  0  0  0  0  0  0  0  0  0  0
  -20.6380  -28.3370   23.2030 C   0  0  0  0  0  3  0  0  0  0  0  0
  -20.7450  -26.9050   22.6290 C   0  0  0  0  0  2  0  0  0  0  0  0
  -19.6500  -26.5820   21.6080 C   0  0  0  0  0  2  0  0  0  0  0  0
  -18.2640  -26.7290   22.2420 C   0  0  0  0  0  2  0  0  0  0  0  0
  -19.1990  -28.8410   23.3510 C   0  0  0  0  0  0  0  0  0  0  0  0
  -18.9770  -30.1060   23.9380 C   0  0  0  0  0  3  0  0  0  0  0  0
  -17.6710  -30.6100   24.0920 C   0  0  0  0  0  3  0  0  0  0  0  0
  -16.5690  -29.8440   23.6720 C   0  0  0  0  0  3  0  0  0  0  0  0
  -16.7760  -28.5820   23.0890 C   0  0  0  0  0  3  0  0  0  0  0  0
  -25.8970  -32.5350   23.8930 C   0  0  0  0  0  3  0  0  0  0  0  0
  -25.5790  -33.9320   24.2150 N   0  0  0  0  0  0  0  0  0  0  0  0
  -25.9120  -34.9820   23.4500 C   0  0  0  0  0  0  0  0  0  0  0  0
  -26.5890  -34.8750   22.4240 O   0  0  0  0  0  0  0  0  0  0  0  0
  -24.9780  -34.0880   25.0110 H   0  0  0  0  0  0  0  0  0  0  0  0
  -24.1730  -36.7590   23.0740 C   0  0  0  0  0  1  0  0  0  0  0  0
  -25.4120  -36.3690   23.8950 C   0  0  0  0  0  3  0  0  0  0  0  0
  -27.5380  -37.2720   24.7280 C   0  0  0  0  0  1  0  0  0  0  0  0
  -26.4380  -37.4290   23.7800 N   0  0  0  0  0  0  0  0  0  0  0  0
  -26.0250  -38.3460   23.9220 H   0  0  0  0  0  0  0  0  0  0  0  0
  -26.4080  -31.7680   25.1750 C   0  0  1  0  0  0  0  0  0  0  0  0
  -25.3090  -31.5290   26.2360 C   0  0  0  0  0  1  0  0  0  0  0  0
  -27.0000  -30.3930   24.7870 C   0  0  0  0  0  1  0  0  0  0  0  0
  -27.5510  -32.5700   25.8430 C   0  0  0  0  0  1  0  0  0  0  0  0
  1  2  1  0
  3  6  1  0
  4  1  2  0
  5  3  2  0
  5  4  1  0
  6 15  1  0
  6  2  2  0
  7 15  1  0
  8 13  1  0
  9 10  1  0
  9  8  1  0
 11 10  1  0
 11 20  1  0
 11 12  1  0
 13  7  1  0
 13 12  1  0
 14  7  2  0
 15 16  1  0
 17 18  2  0
 18 37  1  0
 19 18  1  0
 19 22  1  0
 20 17  1  0
 20 21  1  0
 21 19  2  0
 22 23  1  0
 23 24  2  0
 25 28  1  0
 25 24  1  0
 26 25  2  0
 27 26  1  0
 27 22  2  0
 28 29  1  0
 29 30  1  0
 30 31  2  0
 32 31  1  0
 32 36  1  0
 33 32  2  0
 34 29  2  0
 34 33  1  0
 35 34  1  0
 37 38  1  0
 38 41  1  0
 38 40  1  0
 39 37  2  0
 42 43  1  0
 42 17  1  0
 44 42  1  0
 45 48  1  1
 45  5  1  0
 46 45  1  0
 47 45  1  0
 49  4  1  0
 49 52  1  0
 50 52  1  0
 50 54  1  0
 52 51  1  0
 53 50  2  0
 54 55  1  0
 56 55  1  0
 57 68  2  0
 58 56  1  0
 58 63  1  0
 59 67  1  0
 59 69  1  0
 60 66  1  0
 60 62  1  0
 61 67  1  0
 62 63  2  0
 62 61  1  0
 64 58  2  0
 65 64  1  0
 65 60  2  0
 66 59  1  0
 67 57  1  0
 69 71  2  0
 70 69  1  0
 72 70  1  0
 73 82  2  0
 73 78  1  0
 74 70  1  0
 74 78  1  0
 75 74  1  0
 76 77  1  0
 76 75  1  0
 77 73  1  0
 78 79  2  0
 79 80  1  0
 81 80  2  0
 82 81  1  0
 83 57  1  0
 83 84  1  0
 83 93  1  0
 84 87  1  0
 85 89  1  0
 85 84  1  0
 86 85  2  0
 89 88  1  0
 91 89  1  0
 91 92  1  0
 91 90  1  0
 93 96  1  1
 93 94  1  0
 95 93  1  0
M  ISO  4   7 100  15 100  55 101  56 101
M  END
>  <TORSDO>  (38) 
F 21

>  <SCORE>  (38) 
-13.460

>  <name>  (38) 
37

>  <ligand_id>  (38) 
37

>  <original_smiles>  (38) 
[H]c1c([H])c([H])c2c(c1[H])C([H])([H])C([H])([H])C([H])([H])C2([H])N([H])C(=O)C1([H])N(C(=O)C([H])(N([H])C(=O)C([H])(N([H])C([H])([H])[H])C([H])([H])[H])C(C([H])([H])[H])(C([H])([H])[H])C([H])([H])[H])C([H])([H])c2c([H])c(OC([H])([H])C([H])([H])C(=O)N(C([H])([H])[H])C([H])([H])c3c([H])c([H])c(N([H])C(=O)N4C([H])([H])C([H])([H])C([H])([H])C([H])(n5nc(-c6c([H])c([H])c(Oc7c([H])c([H])c(F)c([H])c7F)c([H])c6[H])c(C(=O)N([H])[H])c5N([H])[H])C4([H])[H])c([H])c3C(F)(F)F)c([H])c([H])c2C1([H])[H]

>  <smiles>  (38) 
[H]c1c([H])c([H])c2c(c1[H])C([H])([H])C([H])([H])C([H])([H])C2([H])N([H])C(=O)C1([H])N(C(=O)C([H])(N([H])C(=O)C([H])(N([H])C([H])([H])[H])C([H])([H])[H])C(C([H])([H])[H])(C([H])([H])[H])C([H])([H])[H])C([H])([H])c2c([H])c(OC([H])([H])C([H])([H])C(=O)N(C([H])([H])[H])C([H])([H])c3c([H])c([H])c(N([H])C(=O)N4C([H])([H])C([H])([H])C([H])([H])C([H])(n5nc(-c6c([H])c([H])c(Oc7c([H])c([H])c(F)c([H])c7F)c([H])c6[H])c(C(=O)N([H])[H])c5N([H])[H])C4([H])[H])c([H])c3C(F)(F)F)c([H])c([H])c2C1([H])[H]

$$$$
38:0:0
     RDKit          3D

 95103  0  0  1  0  0  0  0  0999 V2000
  -28.9710  -17.9690   21.1180 C   0  0  0  0  0  3  0  0  0  0  0  0
  -28.9290  -19.3890   21.0250 C   0  0  0  0  0  3  0  0  0  0  0  0
  -30.9480  -17.9230   19.7570 C   0  0  0  0  0  3  0  0  0  0  0  0
  -30.9180  -19.3540   19.6470 C   0  0  0  0  0  0  0  0  0  0  0  0
  -29.9750  -17.1910   20.4880 C   0  0  0  0  0  0  0  0  0  0  0  0
  -29.8890  -20.1260   20.2830 C   0  0  0  0  0  0  0  0  0  0  0  0
  -30.6470  -14.7070   20.0960 C   0  0  0  0  0  0  0  0  0  0  0  0
  -30.3620  -12.5030   18.9820 C   0  0  0  0  0  2  0  0  0  0  0  0
  -29.3540  -12.6730   17.8230 C   0  0  0  0  0  2  0  0  0  0  0  0
  -27.9040  -12.5090   18.3240 C   0  0  0  0  0  2  0  0  0  0  0  0
  -27.6190  -13.3360   19.6050 C   0  0  0  0  0  3  0  0  0  0  0  0
  -28.7350  -13.1410   20.6580 C   0  0  0  0  0  2  0  0  0  0  0  0
  -30.0180  -13.4910   20.0240 N   0  0  0  0  0  0  0  0  0  0  0  0
  -31.7700  -14.8760   19.6130 O   0  0  0  0  0  0  0  0  0  0  0  0
  -29.9030  -15.7340   20.6110 N   0  0  0  0  0  0  0  0  0  0  0  0
  -29.0620  -15.4020   21.0600 H   0  0  0  0  0  0  0  0  0  0  0  0
  -25.2680  -13.9240   20.4610 C   0  0  0  0  0  0  0  0  0  0  0  0
  -24.2170  -13.1450   20.8670 C   0  0  0  0  0  0  0  0  0  0  0  0
  -24.6720  -11.7930   20.7760 C   0  0  0  0  0  0  0  0  0  0  0  0
  -26.2950  -13.0460   20.1510 N   0  0  0  0  0  0  0  0  0  0  0  0
  -25.9440  -11.7590   20.3980 N   0  0  0  0  0  0  0  0  0  0  0  0
  -23.9510  -10.5280   20.9690 C   0  0  0  0  0  0  0  0  0  0  0  0
  -24.3970   -9.5570   21.8930 C   0  0  0  0  0  3  0  0  0  0  0  0
  -23.6750   -8.3580   22.0750 C   0  0  0  0  0  3  0  0  0  0  0  0
  -22.4950   -8.1190   21.3320 C   0  0  0  0  0  0  0  0  0  0  0  0
  -22.0690   -9.0790   20.3960 C   0  0  0  0  0  3  0  0  0  0  0  0
  -22.7920  -10.2700   20.2120 C   0  0  0  0  0  3  0  0  0  0  0  0
  -21.7440   -6.9720   21.4250 O   0  0  0  0  0  0  0  0  0  0  0  0
  -21.6620   -6.2580   22.5940 C   0  0  0  0  0  0  0  0  0  0  0  0
  -21.1410   -6.8220   23.7780 C   0  0  0  0  0  3  0  0  0  0  0  0
  -21.0090   -6.0310   24.9370 C   0  0  0  0  0  3  0  0  0  0  0  0
  -21.3900   -4.6760   24.9120 C   0  0  0  0  0  0  0  0  0  0  0  0
  -21.9030   -4.1110   23.7300 C   0  0  0  0  0  3  0  0  0  0  0  0
  -22.0350   -4.8990   22.5740 C   0  0  0  0  0  0  0  0  0  0  0  0
  -22.5100   -4.3430   21.4340 F   0  0  0  0  0  0  0  0  0  0  0  0
  -21.2570   -3.9150   26.0220 F   0  0  0  0  0  0  0  0  0  0  0  0
  -22.8380  -13.6180   21.2260 C   0  0  0  0  0  0  0  0  0  0  0  0
  -22.1520  -12.8950   22.1050 N   0  0  0  0  0  0  0  0  0  0  0  0
  -22.3810  -14.6620   20.7650 O   0  0  0  0  0  0  0  0  0  0  0  0
  -22.5350  -12.0510   22.5020 H   0  0  0  0  0  0  0  0  0  0  0  0
  -21.2290  -13.1920   22.3880 H   0  0  0  0  0  0  0  0  0  0  0  0
  -25.4300  -15.2980   20.3110 N   0  0  0  0  0  0  0  0  0  0  0  0
  -24.6750  -15.9540   20.4720 H   0  0  0  0  0  0  0  0  0  0  0  0
  -26.2600  -15.7390   19.9360 H   0  0  0  0  0  0  0  0  0  0  0  0
  -33.0920  -20.6990   19.7010 C   0  0  0  0  0  1  0  0  0  0  0  0
  -32.0160  -20.0410   18.8230 C   0  0  2  0  0  0  0  0  0  0  0  0
  -31.4850  -20.9740   18.0310 F   0  0  0  0  0  0  0  0  0  0  0  0
  -32.6300  -19.1650   18.0260 F   0  0  0  0  0  0  0  0  0  0  0  0
  -28.9400  -22.5440   20.4480 C   0  0  0  0  0  0  0  0  0  0  0  0
  -29.8960  -21.5920   20.2040 N   0  0  0  0  0  0  0  0  0  0  0  0
  -27.7860  -22.2440   20.7600 O   0  0  0  0  0  0  0  0  0  0  0  0
  -30.7610  -21.9840   19.8600 H   0  0  0  0  0  0  0  0  0  0  0  0
  -29.3230  -24.0750   20.3320 C   0  0  0  0  0  3  0  0  0  0  0  0
  -28.1450  -25.1130   20.0760 C   0  0  0  0  0  3  0  0  0  0  0  0
  -28.3800  -26.5700   20.2040 O   0  0  0  0  0  0  0  0  0  0  0  0
  -24.6420  -31.8940   23.3100 C   0  0  0  0  0  0  0  0  0  0  0  0
  -27.2540  -27.4080   20.1670 C   0  0  0  0  0  0  0  0  0  0  0  0
  -23.4340  -30.5270   21.6470 C   0  0  0  0  0  3  0  0  0  0  0  0
  -24.8830  -29.0090   20.1930 C   0  0  0  0  0  0  0  0  0  0  0  0
  -25.9720  -30.8560   21.4630 C   0  0  0  0  0  2  0  0  0  0  0  0
  -26.0520  -29.4910   20.7910 C   0  0  0  0  0  0  0  0  0  0  0  0
  -27.2420  -28.7040   20.7650 C   0  0  0  0  0  3  0  0  0  0  0  0
  -26.0560  -26.9770   19.5460 C   0  0  0  0  0  3  0  0  0  0  0  0
  -24.8850  -27.7580   19.5620 C   0  0  0  0  0  3  0  0  0  0  0  0
  -23.6440  -29.8780   20.2570 C   0  0  0  0  0  2  0  0  0  0  0  0
  -24.7020  -31.1070   22.1990 N   0  0  0  0  0  0  0  0  0  0  0  0
  -23.5600  -32.1620   23.8520 O   0  0  0  0  0  0  0  0  0  0  0  0
  -22.7730  -29.4910   22.5890 C   0  0  0  0  0  0  0  0  0  0  0  0
  -21.4490  -29.3070   22.4480 N   0  0  0  0  0  0  0  0  0  0  0  0
  -23.4510  -28.8570   23.4010 O   0  0  0  0  0  0  0  0  0  0  0  0
  -20.9620  -29.8760   21.7710 H   0  0  0  0  0  0  0  0  0  0  0  0
  -18.0760  -28.0910   22.9180 C   0  0  0  0  0  0  0  0  0  0  0  0
  -20.6330  -28.3520   23.1990 C   0  0  0  0  0  3  0  0  0  0  0  0
  -20.7390  -26.9300   22.5980 C   0  0  0  0  0  2  0  0  0  0  0  0
  -19.6400  -26.6220   21.5750 C   0  0  0  0  0  2  0  0  0  0  0  0
  -18.2560  -26.7540   22.2180 C   0  0  0  0  0  2  0  0  0  0  0  0
  -19.1920  -28.8490   23.3620 C   0  0  0  0  0  0  0  0  0  0  0  0
  -18.9700  -30.1030   23.9730 C   0  0  0  0  0  3  0  0  0  0  0  0
  -17.6640  -30.5980   24.1470 C   0  0  0  0  0  3  0  0  0  0  0  0
  -16.5620  -29.8360   23.7190 C   0  0  0  0  0  3  0  0  0  0  0  0
  -16.7690  -28.5860   23.1100 C   0  0  0  0  0  3  0  0  0  0  0  0
  -25.9270  -32.5150   23.9430 C   0  0  0  0  0  3  0  0  0  0  0  0
  -26.4190  -31.7440   25.2300 C   0  0  1  0  0  0  0  0  0  0  0  0
  -25.3100  -31.5200   26.2860 C   0  0  0  0  0  1  0  0  0  0  0  0
  -26.9990  -30.3600   24.8520 C   0  0  0  0  0  1  0  0  0  0  0  0
  -27.5680  -32.5330   25.9030 C   0  0  0  0  0  1  0  0  0  0  0  0
  -25.6320  -33.9180   24.2650 N   0  0  0  0  0  0  0  0  0  0  0  0
  -25.9390  -34.9600   23.4810 C   0  0  0  0  0  0  0  0  0  0  0  0
  -26.5720  -34.8410   22.4290 O   0  0  0  0  0  0  0  0  0  0  0  0
  -25.0690  -34.0860   25.0860 H   0  0  0  0  0  0  0  0  0  0  0  0
  -24.1860  -36.7380   23.1800 C   0  0  0  0  0  1  0  0  0  0  0  0
  -25.4680  -36.3550   23.9350 C   0  0  0  0  0  3  0  0  0  0  0  0
  -27.6310  -37.2690   24.6490 C   0  0  0  0  0  1  0  0  0  0  0  0
  -26.4880  -37.4100   23.7520 N   0  0  0  0  0  0  0  0  0  0  0  0
  -26.0830  -38.3300   23.8990 H   0  0  0  0  0  0  0  0  0  0  0  0
  2  1  1  0
  3  5  1  0
  4  3  2  0
  4  6  1  0
  5 15  1  0
  5  1  2  0
  6  2  2  0
  7 15  1  0
  8 13  1  0
  9 10  1  0
  9  8  1  0
 11 10  1  0
 11 20  1  0
 11 12  1  0
 13  7  1  0
 13 12  1  0
 14  7  2  0
 15 16  1  0
 17 18  2  0
 18 37  1  0
 19 18  1  0
 19 22  1  0
 20 21  1  0
 20 17  1  0
 21 19  2  0
 22 23  1  0
 23 24  2  0
 25 28  1  0
 25 24  1  0
 26 25  2  0
 27 26  1  0
 27 22  2  0
 28 29  1  0
 29 30  1  0
 30 31  2  0
 32 31  1  0
 32 36  1  0
 33 32  2  0
 34 29  2  0
 34 33  1  0
 35 34  1  0
 37 38  1  0
 38 41  1  0
 38 40  1  0
 39 37  2  0
 42 17  1  0
 42 43  1  0
 44 42  1  0
 46  4  1  0
 46 45  1  1
 47 46  1  0
 48 46  1  0
 49 51  2  0
 50  6  1  0
 50 49  1  0
 52 50  1  0
 53 49  1  0
 54 55  1  0
 54 53  2  0
 56 67  2  0
 57 55  1  0
 57 62  1  0
 58 66  1  0
 58 68  1  0
 59 65  1  0
 59 61  1  0
 60 66  1  0
 61 60  1  0
 62 61  2  0
 63 64  1  0
 63 57  2  0
 64 59  2  0
 65 58  1  0
 66 56  1  0
 68 70  2  0
 69 68  1  0
 71 69  1  0
 72 81  2  0
 72 77  1  0
 73 69  1  0
 73 77  1  0
 74 73  1  0
 75 76  1  0
 75 74  1  0
 76 72  1  0
 77 78  2  0
 78 79  1  0
 80 79  2  0
 81 80  1  0
 82 56  1  0
 82 87  1  0
 82 83  1  0
 83 86  1  1
 83 84  1  0
 85 83  1  0
 87 90  1  0
 88 92  1  0
 88 87  1  0
 89 88  2  0
 92 91  1  0
 94 95  1  0
 94 92  1  0
 94 93  1  0
M  ISO  4   7 100  15 100  54 101  55 101
M  END
>  <TORSDO>  (39) 
F 20

>  <SCORE>  (39) 
-13.454

>  <name>  (39) 
38

>  <ligand_id>  (39) 
38

>  <original_smiles>  (39) 
[H]c1c([H])c([H])c2c(c1[H])C([H])([H])C([H])([H])C([H])([H])C2([H])N([H])C(=O)C1([H])N(C(=O)C([H])(N([H])C(=O)C([H])(N([H])C([H])([H])[H])C([H])([H])[H])C(C([H])([H])[H])(C([H])([H])[H])C([H])([H])[H])C([H])([H])c2c([H])c(OC([H])([H])C([H])([H])C(=O)N([H])c3c([H])c([H])c(N([H])C(=O)N4C([H])([H])C([H])([H])C([H])([H])C([H])(n5nc(-c6c([H])c([H])c(Oc7c([H])c([H])c(F)c([H])c7F)c([H])c6[H])c(C(=O)N([H])[H])c5N([H])[H])C4([H])[H])c([H])c3C(F)(F)C([H])([H])[H])c([H])c([H])c2C1([H])[H]

>  <smiles>  (39) 
[H]c1c([H])c([H])c2c(c1[H])C([H])([H])C([H])([H])C([H])([H])C2([H])N([H])C(=O)C1([H])N(C(=O)C([H])(N([H])C(=O)C([H])(N([H])C([H])([H])[H])C([H])([H])[H])C(C([H])([H])[H])(C([H])([H])[H])C([H])([H])[H])C([H])([H])c2c([H])c(OC([H])([H])C([H])([H])C(=O)N([H])c3c([H])c([H])c(N([H])C(=O)N4C([H])([H])C([H])([H])C([H])([H])C([H])(n5nc(-c6c([H])c([H])c(Oc7c([H])c([H])c(F)c([H])c7F)c([H])c6[H])c(C(=O)N([H])[H])c5N([H])[H])C4([H])[H])c([H])c3C(F)(F)C([H])([H])[H])c([H])c([H])c2C1([H])[H]

$$$$
39:0:0
     RDKit          3D

 94102  0  0  1  0  0  0  0  0999 V2000
  -29.8320  -20.6720   20.1960 C   0  0  0  0  0  0  0  0  0  0  0  0
  -29.4780  -21.8180   20.8280 N   0  0  0  0  0  0  0  0  0  0  0  0
  -29.9290  -20.6210   18.9680 O   0  0  0  0  0  0  0  0  0  0  0  0
  -29.3510  -21.7440   21.8270 H   0  0  0  0  0  0  0  0  0  0  0  0
  -31.2730  -18.2730   22.8880 C   0  0  0  0  0  3  0  0  0  0  0  0
  -30.9520  -17.0140   22.3520 C   0  0  0  0  0  3  0  0  0  0  0  0
  -29.8180  -18.1270   20.5060 C   0  0  0  0  0  3  0  0  0  0  0  0
  -30.1540  -19.4230   21.0200 C   0  0  0  0  0  0  0  0  0  0  0  0
  -30.9060  -19.4720   22.2360 C   0  0  0  0  0  0  0  0  0  0  0  0
  -30.2260  -16.9200   21.1500 C   0  0  0  0  0  0  0  0  0  0  0  0
  -31.3810  -20.7700   22.8790 C   0  0  0  0  0  1  0  0  0  0  0  0
  -30.5970  -14.5720   20.3130 C   0  0  0  0  0  0  0  0  0  0  0  0
  -30.3030  -12.4130   19.1300 C   0  0  0  0  0  2  0  0  0  0  0  0
  -29.3260  -12.6140   17.9520 C   0  0  0  0  0  2  0  0  0  0  0  0
  -27.8640  -12.4560   18.4200 C   0  0  0  0  0  2  0  0  0  0  0  0
  -27.5520  -13.2780   19.6980 C   0  0  0  0  0  3  0  0  0  0  0  0
  -28.6380  -13.0570   20.7760 C   0  0  0  0  0  2  0  0  0  0  0  0
  -29.9360  -13.3880   20.1700 N   0  0  0  0  0  0  0  0  0  0  0  0
  -31.7520  -14.7380   19.9100 O   0  0  0  0  0  0  0  0  0  0  0  0
  -29.8210  -15.6220   20.6850 N   0  0  0  0  0  0  0  0  0  0  0  0
  -28.8360  -15.4170   20.7590 H   0  0  0  0  0  0  0  0  0  0  0  0
  -25.1710  -13.8780   20.4600 C   0  0  0  0  0  0  0  0  0  0  0  0
  -24.1120  -13.1020   20.8490 C   0  0  0  0  0  0  0  0  0  0  0  0
  -24.5760  -11.7520   20.8060 C   0  0  0  0  0  0  0  0  0  0  0  0
  -26.2120  -12.9980   20.2070 N   0  0  0  0  0  0  0  0  0  0  0  0
  -25.8600  -11.7150   20.4730 N   0  0  0  0  0  0  0  0  0  0  0  0
  -23.8570  -10.4880   21.0050 C   0  0  0  0  0  0  0  0  0  0  0  0
  -24.3030   -9.5230   21.9330 C   0  0  0  0  0  3  0  0  0  0  0  0
  -23.5830   -8.3220   22.1200 C   0  0  0  0  0  3  0  0  0  0  0  0
  -22.4020   -8.0800   21.3780 C   0  0  0  0  0  0  0  0  0  0  0  0
  -21.9760   -9.0350   20.4390 C   0  0  0  0  0  3  0  0  0  0  0  0
  -22.6970  -10.2260   20.2500 C   0  0  0  0  0  3  0  0  0  0  0  0
  -21.6540   -6.9320   21.4740 O   0  0  0  0  0  0  0  0  0  0  0  0
  -21.6200   -6.1890   22.6270 C   0  0  0  0  0  0  0  0  0  0  0  0
  -21.2010   -6.7400   23.8580 C   0  0  0  0  0  3  0  0  0  0  0  0
  -21.1160   -5.9240   25.0020 C   0  0  0  0  0  3  0  0  0  0  0  0
  -21.4400   -4.5560   24.9180 C   0  0  0  0  0  0  0  0  0  0  0  0
  -21.8530   -4.0040   23.6920 C   0  0  0  0  0  3  0  0  0  0  0  0
  -21.9400   -4.8190   22.5490 C   0  0  0  0  0  0  0  0  0  0  0  0
  -22.3180   -4.2770   21.3660 F   0  0  0  0  0  0  0  0  0  0  0  0
  -21.3510   -3.7680   26.0150 F   0  0  0  0  0  0  0  0  0  0  0  0
  -22.7200  -13.5770   21.1480 C   0  0  0  0  0  0  0  0  0  0  0  0
  -22.0060  -12.8720   22.0200 N   0  0  0  0  0  0  0  0  0  0  0  0
  -22.2720  -14.6060   20.6420 O   0  0  0  0  0  0  0  0  0  0  0  0
  -22.3820  -12.0390   22.4490 H   0  0  0  0  0  0  0  0  0  0  0  0
  -21.0720  -13.1730   22.2630 H   0  0  0  0  0  0  0  0  0  0  0  0
  -25.3270  -15.2490   20.2790 N   0  0  0  0  0  0  0  0  0  0  0  0
  -24.5510  -15.8940   20.3900 H   0  0  0  0  0  0  0  0  0  0  0  0
  -26.1540  -15.6910   19.8980 H   0  0  0  0  0  0  0  0  0  0  0  0
  -29.6490  -23.1990   20.2870 C   0  0  0  0  0  2  0  0  0  0  0  0
  -28.3830  -24.1020   20.2940 C   0  0  0  0  0  0  0  0  0  0  0  0
  -27.3510  -23.7150   19.7370 O   0  0  0  0  0  0  0  0  0  0  0  0
  -28.4200  -25.4790   21.0300 C   0  0  0  0  0  2  0  0  0  0  0  0
  -28.3970  -26.6430   20.1560 O   0  0  0  0  0  0  0  0  0  0  0  0
  -24.6000  -31.9110   23.2140 C   0  0  0  0  0  0  0  0  0  0  0  0
  -27.2460  -27.4130   20.1820 C   0  0  0  0  0  0  0  0  0  0  0  0
  -23.4030  -30.5020   21.5740 C   0  0  0  0  0  3  0  0  0  0  0  0
  -24.8610  -28.9510   20.1650 C   0  0  0  0  0  0  0  0  0  0  0  0
  -25.9320  -30.8500   21.3880 C   0  0  0  0  0  2  0  0  0  0  0  0
  -26.0210  -29.4700   20.7550 C   0  0  0  0  0  0  0  0  0  0  0  0
  -27.2200  -28.7110   20.7560 C   0  0  0  0  0  3  0  0  0  0  0  0
  -26.0710  -26.9170   19.5820 C   0  0  0  0  0  3  0  0  0  0  0  0
  -24.8830  -27.6760   19.5720 C   0  0  0  0  0  3  0  0  0  0  0  0
  -23.6200  -29.8180   20.1990 C   0  0  0  0  0  2  0  0  0  0  0  0
  -24.6630  -31.1030   22.1180 N   0  0  0  0  0  0  0  0  0  0  0  0
  -23.5160  -32.1880   23.7470 O   0  0  0  0  0  0  0  0  0  0  0  0
  -22.7430  -29.4870   22.5370 C   0  0  0  0  0  0  0  0  0  0  0  0
  -21.4180  -29.3110   22.4070 N   0  0  0  0  0  0  0  0  0  0  0  0
  -23.4210  -28.8600   23.3550 O   0  0  0  0  0  0  0  0  0  0  0  0
  -20.9310  -29.8690   21.7210 H   0  0  0  0  0  0  0  0  0  0  0  0
  -18.0350  -28.1430   22.9140 C   0  0  0  0  0  0  0  0  0  0  0  0
  -20.5950  -28.3760   23.1760 C   0  0  0  0  0  3  0  0  0  0  0  0
  -20.6820  -26.9470   22.5930 C   0  0  0  0  0  2  0  0  0  0  0  0
  -19.5730  -26.6390   21.5810 C   0  0  0  0  0  2  0  0  0  0  0  0
  -18.1960  -26.7950   22.2310 C   0  0  0  0  0  2  0  0  0  0  0  0
  -19.1610  -28.8910   23.3430 C   0  0  0  0  0  0  0  0  0  0  0  0
  -18.9580  -30.1550   23.9400 C   0  0  0  0  0  3  0  0  0  0  0  0
  -17.6590  -30.6690   24.1120 C   0  0  0  0  0  3  0  0  0  0  0  0
  -16.5460  -29.9150   23.6990 C   0  0  0  0  0  3  0  0  0  0  0  0
  -16.7350  -28.6530   23.1070 C   0  0  0  0  0  3  0  0  0  0  0  0
  -25.8830  -32.5440   23.8390 C   0  0  0  0  0  3  0  0  0  0  0  0
  -26.3970  -31.7750   25.1180 C   0  0  1  0  0  0  0  0  0  0  0  0
  -25.3010  -31.5400   26.1830 C   0  0  0  0  0  1  0  0  0  0  0  0
  -26.9810  -30.3980   24.7280 C   0  0  0  0  0  1  0  0  0  0  0  0
  -27.5470  -32.5700   25.7800 C   0  0  0  0  0  1  0  0  0  0  0  0
  -25.5740  -33.9430   24.1640 N   0  0  0  0  0  0  0  0  0  0  0  0
  -25.9120  -34.9930   23.4030 C   0  0  0  0  0  0  0  0  0  0  0  0
  -26.5900  -34.8870   22.3780 O   0  0  0  0  0  0  0  0  0  0  0  0
  -24.9710  -34.0980   24.9590 H   0  0  0  0  0  0  0  0  0  0  0  0
  -24.1930  -36.7900   23.0260 C   0  0  0  0  0  1  0  0  0  0  0  0
  -25.4230  -36.3830   23.8540 C   0  0  0  0  0  3  0  0  0  0  0  0
  -27.5480  -37.2620   24.7110 C   0  0  0  0  0  1  0  0  0  0  0  0
  -26.4600  -37.4320   23.7530 N   0  0  0  0  0  0  0  0  0  0  0  0
  -26.0540  -38.3530   23.8950 H   0  0  0  0  0  0  0  0  0  0  0  0
  1  2  1  0
  1  8  1  0
  2  4  1  0
  3  1  2  0
  6  5  1  0
  7  8  2  0
  7 10  1  0
  8  9  1  0
  9 11  1  0
  9  5  2  0
 10  6  2  0
 12 20  1  0
 13 18  1  0
 14 15  1  0
 14 13  1  0
 16 15  1  0
 16 25  1  0
 16 17  1  0
 18 12  1  0
 18 17  1  0
 19 12  2  0
 20 21  1  0
 20 10  1  0
 22 23  2  0
 23 42  1  0
 24 23  1  0
 24 27  1  0
 25 22  1  0
 25 26  1  0
 26 24  2  0
 27 28  1  0
 28 29  2  0
 30 33  1  0
 30 29  1  0
 31 30  2  0
 32 31  1  0
 32 27  2  0
 33 34  1  0
 34 35  1  0
 35 36  2  0
 37 36  1  0
 37 41  1  0
 38 37  2  0
 39 34  2  0
 39 38  1  0
 40 39  1  0
 42 43  1  0
 43 46  1  0
 43 45  1  0
 44 42  2  0
 47 48  1  0
 47 22  1  0
 49 47  1  0
 50 51  1  0
 50  2  1  0
 51 53  1  0
 52 51  2  0
 54 56  1  0
 54 53  1  0
 55 66  2  0
 56 61  1  0
 57 65  1  0
 57 67  1  0
 58 64  1  0
 58 60  1  0
 59 65  1  0
 60 61  2  0
 60 59  1  0
 62 56  2  0
 63 62  1  0
 63 58  2  0
 64 57  1  0
 65 55  1  0
 67 69  2  0
 68 67  1  0
 70 68  1  0
 71 80  2  0
 71 76  1  0
 72 68  1  0
 72 76  1  0
 73 72  1  0
 74 75  1  0
 74 73  1  0
 75 71  1  0
 76 77  2  0
 77 78  1  0
 79 78  2  0
 80 79  1  0
 81 55  1  0
 81 86  1  0
 81 82  1  0
 82 85  1  1
 82 83  1  0
 84 82  1  0
 86 89  1  0
 87 91  1  0
 87 86  1  0
 88 87  2  0
 91 90  1  0
 93 91  1  0
 93 94  1  0
 93 92  1  0
M  ISO  4  12 100  20 100  53 101  54 101
M  END
>  <TORSDO>  (40) 
F 20

>  <SCORE>  (40) 
-13.846

>  <name>  (40) 
39

>  <ligand_id>  (40) 
39

>  <original_smiles>  (40) 
[H]c1c([H])c([H])c2c(c1[H])C([H])([H])C([H])([H])C([H])([H])C2([H])N([H])C(=O)C1([H])N(C(=O)C([H])(N([H])C(=O)C([H])(N([H])C([H])([H])[H])C([H])([H])[H])C(C([H])([H])[H])(C([H])([H])[H])C([H])([H])[H])C([H])([H])c2c([H])c(OC([H])([H])C(=O)C([H])([H])N([H])C(=O)c3c([H])c(N([H])C(=O)N4C([H])([H])C([H])([H])C([H])([H])C([H])(n5nc(-c6c([H])c([H])c(Oc7c([H])c([H])c(F)c([H])c7F)c([H])c6[H])c(C(=O)N([H])[H])c5N([H])[H])C4([H])[H])c([H])c([H])c3C([H])([H])[H])c([H])c([H])c2C1([H])[H]

>  <smiles>  (40) 
[H]c1c([H])c([H])c2c(c1[H])C([H])([H])C([H])([H])C([H])([H])C2([H])N([H])C(=O)C1([H])N(C(=O)C([H])(N([H])C(=O)C([H])(N([H])C([H])([H])[H])C([H])([H])[H])C(C([H])([H])[H])(C([H])([H])[H])C([H])([H])[H])C([H])([H])c2c([H])c(OC([H])([H])C(=O)C([H])([H])N([H])C(=O)c3c([H])c(N([H])C(=O)N4C([H])([H])C([H])([H])C([H])([H])C([H])(n5nc(-c6c([H])c([H])c(Oc7c([H])c([H])c(F)c([H])c7F)c([H])c6[H])c(C(=O)N([H])[H])c5N([H])[H])C4([H])[H])c([H])c([H])c3C([H])([H])[H])c([H])c([H])c2C1([H])[H]

$$$$
40:0:0
     RDKit          3D

 93101  0  0  1  0  0  0  0  0999 V2000
  -28.9020  -22.8470   19.6160 C   0  0  0  0  0  0  0  0  0  0  0  0
  -29.1260  -21.7130   20.3180 N   0  0  0  0  0  0  0  0  0  0  0  0
  -28.9640  -22.8560   18.3830 O   0  0  0  0  0  0  0  0  0  0  0  0
  -29.0320  -21.7450   21.3240 H   0  0  0  0  0  0  0  0  0  0  0  0
  -29.3780  -20.3900   19.6990 C   0  0  0  0  0  2  0  0  0  0  0  0
  -31.1540  -18.5570   22.6070 C   0  0  0  0  0  3  0  0  0  0  0  0
  -30.6450  -19.5740   21.7760 C   0  0  0  0  0  3  0  0  0  0  0  0
  -30.9760  -17.2030   22.2690 C   0  0  0  0  0  3  0  0  0  0  0  0
  -29.9450  -19.2580   20.5910 C   0  0  0  0  0  0  0  0  0  0  0  0
  -29.7930  -17.8780   20.2330 C   0  0  0  0  0  0  0  0  0  0  0  0
  -30.2990  -16.8480   21.0840 C   0  0  0  0  0  0  0  0  0  0  0  0
  -29.0660  -17.5020   18.9440 C   0  0  0  0  0  1  0  0  0  0  0  0
  -30.6830  -14.4860   20.2980 C   0  0  0  0  0  0  0  0  0  0  0  0
  -30.3640  -12.3270   19.1290 C   0  0  0  0  0  2  0  0  0  0  0  0
  -29.3930  -12.5230   17.9450 C   0  0  0  0  0  2  0  0  0  0  0  0
  -27.9290  -12.3830   18.4070 C   0  0  0  0  0  2  0  0  0  0  0  0
  -27.6190  -13.2390   19.6630 C   0  0  0  0  0  3  0  0  0  0  0  0
  -28.6900  -13.0070   20.7530 C   0  0  0  0  0  2  0  0  0  0  0  0
  -30.0090  -13.3080   20.1670 N   0  0  0  0  0  0  0  0  0  0  0  0
  -31.7950  -14.6800   19.8010 O   0  0  0  0  0  0  0  0  0  0  0  0
  -29.9720  -15.4670   20.8930 N   0  0  0  0  0  0  0  0  0  0  0  0
  -29.0670  -15.1840   21.2320 H   0  0  0  0  0  0  0  0  0  0  0  0
  -25.2510  -13.8920   20.4320 C   0  0  0  0  0  0  0  0  0  0  0  0
  -24.1730  -13.1400   20.8130 C   0  0  0  0  0  0  0  0  0  0  0  0
  -24.6100  -11.7800   20.7760 C   0  0  0  0  0  0  0  0  0  0  0  0
  -26.2720  -12.9920   20.1710 N   0  0  0  0  0  0  0  0  0  0  0  0
  -25.8920  -11.7170   20.4400 N   0  0  0  0  0  0  0  0  0  0  0  0
  -23.8650  -10.5320   20.9870 C   0  0  0  0  0  0  0  0  0  0  0  0
  -24.3040   -9.5580   21.9100 C   0  0  0  0  0  3  0  0  0  0  0  0
  -23.5650   -8.3730   22.1040 C   0  0  0  0  0  3  0  0  0  0  0  0
  -22.3720   -8.1530   21.3760 C   0  0  0  0  0  0  0  0  0  0  0  0
  -21.9510   -9.1170   20.4420 C   0  0  0  0  0  3  0  0  0  0  0  0
  -22.6910  -10.2940   20.2450 C   0  0  0  0  0  3  0  0  0  0  0  0
  -21.6030   -7.0190   21.4840 O   0  0  0  0  0  0  0  0  0  0  0  0
  -21.5750   -6.2730   22.6340 C   0  0  0  0  0  0  0  0  0  0  0  0
  -21.1940   -6.8320   23.8740 C   0  0  0  0  0  3  0  0  0  0  0  0
  -21.1110   -6.0140   25.0190 C   0  0  0  0  0  3  0  0  0  0  0  0
  -21.3970   -4.6380   24.9240 C   0  0  0  0  0  0  0  0  0  0  0  0
  -21.7690   -4.0780   23.6900 C   0  0  0  0  0  3  0  0  0  0  0  0
  -21.8540   -4.8940   22.5460 C   0  0  0  0  0  0  0  0  0  0  0  0
  -22.1940   -4.3460   21.3550 F   0  0  0  0  0  0  0  0  0  0  0  0
  -21.3070   -3.8500   26.0210 F   0  0  0  0  0  0  0  0  0  0  0  0
  -22.7910  -13.6450   21.1130 C   0  0  0  0  0  0  0  0  0  0  0  0
  -22.0670  -12.9660   21.9960 N   0  0  0  0  0  0  0  0  0  0  0  0
  -22.3640  -14.6790   20.6010 O   0  0  0  0  0  0  0  0  0  0  0  0
  -22.4240  -12.1280   22.4290 H   0  0  0  0  0  0  0  0  0  0  0  0
  -21.1430  -13.2930   22.2440 H   0  0  0  0  0  0  0  0  0  0  0  0
  -25.4470  -15.2610   20.2760 N   0  0  0  0  0  0  0  0  0  0  0  0
  -24.7240  -15.9420   20.4810 H   0  0  0  0  0  0  0  0  0  0  0  0
  -26.3310  -15.6860   20.0260 H   0  0  0  0  0  0  0  0  0  0  0  0
  -28.5440  -24.1520   20.3740 C   0  0  0  0  0  2  0  0  0  0  0  0
  -28.6300  -25.4560   19.5140 C   0  0  0  0  0  2  0  0  0  0  0  0
  -28.4340  -26.6940   20.2330 O   0  0  0  0  0  0  0  0  0  0  0  0
  -24.5970  -31.8910   23.2380 C   0  0  0  0  0  0  0  0  0  0  0  0
  -27.2380  -27.3980   20.1940 C   0  0  0  0  0  0  0  0  0  0  0  0
  -23.3920  -30.4830   21.6010 C   0  0  0  0  0  3  0  0  0  0  0  0
  -24.8440  -28.9290   20.1900 C   0  0  0  0  0  0  0  0  0  0  0  0
  -25.9180  -30.8330   21.4010 C   0  0  0  0  0  2  0  0  0  0  0  0
  -26.0030  -29.4510   20.7770 C   0  0  0  0  0  0  0  0  0  0  0  0
  -27.1960  -28.6900   20.7770 C   0  0  0  0  0  3  0  0  0  0  0  0
  -26.0510  -26.8920   19.6120 C   0  0  0  0  0  3  0  0  0  0  0  0
  -24.8650  -27.6500   19.6090 C   0  0  0  0  0  3  0  0  0  0  0  0
  -23.6050  -29.7980   20.2250 C   0  0  0  0  0  2  0  0  0  0  0  0
  -24.6540  -31.0850   22.1400 N   0  0  0  0  0  0  0  0  0  0  0  0
  -23.5140  -32.1700   23.7740 O   0  0  0  0  0  0  0  0  0  0  0  0
  -22.7350  -29.4690   22.5660 C   0  0  0  0  0  0  0  0  0  0  0  0
  -21.4100  -29.2890   22.4350 N   0  0  0  0  0  0  0  0  0  0  0  0
  -23.4130  -28.8490   23.3910 O   0  0  0  0  0  0  0  0  0  0  0  0
  -20.9260  -29.8430   21.7420 H   0  0  0  0  0  0  0  0  0  0  0  0
  -18.0340  -28.0920   22.9100 C   0  0  0  0  0  0  0  0  0  0  0  0
  -20.5880  -28.3570   23.2050 C   0  0  0  0  0  3  0  0  0  0  0  0
  -20.6990  -26.9210   22.6410 C   0  0  0  0  0  2  0  0  0  0  0  0
  -19.6050  -26.5890   21.6200 C   0  0  0  0  0  2  0  0  0  0  0  0
  -18.2180  -26.7370   22.2500 C   0  0  0  0  0  2  0  0  0  0  0  0
  -19.1460  -28.8590   23.3450 C   0  0  0  0  0  0  0  0  0  0  0  0
  -18.9220  -30.1270   23.9230 C   0  0  0  0  0  3  0  0  0  0  0  0
  -17.6150  -30.6270   24.0730 C   0  0  0  0  0  3  0  0  0  0  0  0
  -16.5150  -29.8570   23.6540 C   0  0  0  0  0  3  0  0  0  0  0  0
  -16.7260  -28.5920   23.0790 C   0  0  0  0  0  3  0  0  0  0  0  0
  -25.8830  -32.5210   23.8580 C   0  0  0  0  0  3  0  0  0  0  0  0
  -26.4030  -31.7480   25.1300 C   0  0  1  0  0  0  0  0  0  0  0  0
  -25.3140  -31.5100   26.2020 C   0  0  0  0  0  1  0  0  0  0  0  0
  -26.9830  -30.3700   24.7290 C   0  0  0  0  0  1  0  0  0  0  0  0
  -27.5560  -32.5380   25.7920 C   0  0  0  0  0  1  0  0  0  0  0  0
  -25.5760  -33.9190   24.1910 N   0  0  0  0  0  0  0  0  0  0  0  0
  -25.9050  -34.9720   23.4330 C   0  0  0  0  0  0  0  0  0  0  0  0
  -26.5740  -34.8690   22.3990 O   0  0  0  0  0  0  0  0  0  0  0  0
  -24.9840  -34.0730   24.9960 H   0  0  0  0  0  0  0  0  0  0  0  0
  -24.1770  -36.7640   23.0740 C   0  0  0  0  0  1  0  0  0  0  0  0
  -25.4160  -36.3610   23.8890 C   0  0  0  0  0  3  0  0  0  0  0  0
  -27.5540  -37.2440   24.7160 C   0  0  0  0  0  1  0  0  0  0  0  0
  -26.4490  -37.4150   23.7780 N   0  0  0  0  0  0  0  0  0  0  0  0
  -26.0430  -38.3330   23.9300 H   0  0  0  0  0  0  0  0  0  0  0  0
  1  2  1  0
  1 51  1  0
  2  4  1  0
  3  1  2  0
  5  2  1  0
  5  9  1  0
  7  6  2  0
  8  6  1  0
  9  7  1  0
 10  9  2  0
 10 11  1  0
 11  8  2  0
 12 10  1  0
 13 21  1  0
 14 19  1  0
 15 16  1  0
 15 14  1  0
 17 16  1  0
 17 26  1  0
 17 18  1  0
 19 13  1  0
 19 18  1  0
 20 13  2  0
 21 11  1  0
 21 22  1  0
 23 24  2  0
 24 43  1  0
 25 24  1  0
 25 28  1  0
 26 23  1  0
 26 27  1  0
 27 25  2  0
 28 29  1  0
 29 30  2  0
 31 34  1  0
 31 30  1  0
 32 31  2  0
 33 32  1  0
 33 28  2  0
 34 35  1  0
 35 36  1  0
 36 37  2  0
 38 37  1  0
 38 42  1  0
 39 38  2  0
 40 35  2  0
 40 39  1  0
 41 40  1  0
 43 44  1  0
 44 47  1  0
 44 46  1  0
 45 43  2  0
 48 23  1  0
 48 49  1  0
 50 48  1  0
 52 53  1  0
 52 51  1  0
 54 65  2  0
 55 53  1  0
 55 60  1  0
 56 64  1  0
 56 66  1  0
 57 63  1  0
 57 59  1  0
 58 64  1  0
 59 60  2  0
 59 58  1  0
 61 55  2  0
 62 61  1  0
 62 57  2  0
 63 56  1  0
 64 54  1  0
 66 68  2  0
 67 66  1  0
 69 67  1  0
 70 79  2  0
 70 75  1  0
 71 67  1  0
 71 75  1  0
 72 71  1  0
 73 74  1  0
 73 72  1  0
 74 70  1  0
 75 76  2  0
 76 77  1  0
 78 77  2  0
 79 78  1  0
 80 54  1  0
 80 85  1  0
 80 81  1  0
 81 84  1  1
 81 82  1  0
 83 81  1  0
 85 88  1  0
 86 90  1  0
 86 85  1  0
 87 86  2  0
 90 89  1  0
 92 90  1  0
 92 93  1  0
 92 91  1  0
M  ISO  4  13 100  21 100  52 101  53 101
M  END
>  <TORSDO>  (41) 
F 20

>  <SCORE>  (41) 
-13.821

>  <name>  (41) 
40

>  <ligand_id>  (41) 
40

>  <original_smiles>  (41) 
[H]c1c([H])c(N([H])C(=O)N2C([H])([H])C([H])([H])C([H])([H])C([H])(n3nc(-c4c([H])c([H])c(Oc5c([H])c([H])c(F)c([H])c5F)c([H])c4[H])c(C(=O)N([H])[H])c3N([H])[H])C2([H])[H])c(C([H])([H])[H])c(C([H])([H])N([H])C(=O)C([H])([H])C([H])([H])Oc2c([H])c([H])c3c(c2[H])C([H])([H])N(C(=O)C([H])(N([H])C(=O)C([H])(N([H])C([H])([H])[H])C([H])([H])[H])C(C([H])([H])[H])(C([H])([H])[H])C([H])([H])[H])C([H])(C(=O)N([H])C2([H])c4c([H])c([H])c([H])c([H])c4C([H])([H])C([H])([H])C2([H])[H])C3([H])[H])c1[H]

>  <smiles>  (41) 
[H]c1c([H])c(N([H])C(=O)N2C([H])([H])C([H])([H])C([H])([H])C([H])(n3nc(-c4c([H])c([H])c(Oc5c([H])c([H])c(F)c([H])c5F)c([H])c4[H])c(C(=O)N([H])[H])c3N([H])[H])C2([H])[H])c(C([H])([H])[H])c(C([H])([H])N([H])C(=O)C([H])([H])C([H])([H])Oc2c([H])c([H])c3c(c2[H])C([H])([H])N(C(=O)C([H])(N([H])C(=O)C([H])(N([H])C([H])([H])[H])C([H])([H])[H])C(C([H])([H])[H])(C([H])([H])[H])C([H])([H])[H])C([H])(C(=O)N([H])C2([H])c4c([H])c([H])c([H])c([H])c4C([H])([H])C([H])([H])C2([H])[H])C3([H])[H])c1[H]

$$$$
41:0:0
     RDKit          3D

 94102  0  0  1  0  0  0  0  0999 V2000
  -28.0980  -22.1950   20.0440 C   0  0  0  0  0  0  0  0  0  0  0  0
  -28.8780  -21.3950   20.7670 N   0  0  0  0  0  0  0  0  0  0  0  0
  -26.9880  -21.8580   19.6270 O   0  0  0  0  0  0  0  0  0  0  0  0
  -29.7640  -21.7730   21.0650 H   0  0  0  0  0  0  0  0  0  0  0  0
  -28.7370  -23.4830   19.8350 C   0  0  0  0  0  3  0  0  0  0  0  0
  -28.0580  -24.4990   19.2740 C   0  0  0  0  0  3  0  0  0  0  0  0
  -28.6260  -25.8810   19.0020 C   0  0  0  0  0  2  0  0  0  0  0  0
  -28.3810  -26.8160   20.0570 O   0  0  0  0  0  0  0  0  0  0  0  0
  -24.5940  -31.9080   23.2650 C   0  0  0  0  0  0  0  0  0  0  0  0
  -27.1900  -27.5110   20.0790 C   0  0  0  0  0  0  0  0  0  0  0  0
  -23.3620  -30.5290   21.6240 C   0  0  0  0  0  3  0  0  0  0  0  0
  -24.7920  -29.0090   20.1650 C   0  0  0  0  0  0  0  0  0  0  0  0
  -25.8860  -30.8840   21.3990 C   0  0  0  0  0  2  0  0  0  0  0  0
  -25.9570  -29.5200   20.7460 C   0  0  0  0  0  0  0  0  0  0  0  0
  -27.1560  -28.7720   20.7150 C   0  0  0  0  0  3  0  0  0  0  0  0
  -25.9990  -27.0160   19.4990 C   0  0  0  0  0  3  0  0  0  0  0  0
  -24.8050  -27.7510   19.5480 C   0  0  0  0  0  3  0  0  0  0  0  0
  -23.5530  -29.8690   20.2330 C   0  0  0  0  0  2  0  0  0  0  0  0
  -24.6330  -31.1200   22.1550 N   0  0  0  0  0  0  0  0  0  0  0  0
  -23.5200  -32.1800   23.8180 O   0  0  0  0  0  0  0  0  0  0  0  0
  -22.7230  -29.4930   22.5760 C   0  0  0  0  0  0  0  0  0  0  0  0
  -21.4000  -29.3050   22.4480 N   0  0  0  0  0  0  0  0  0  0  0  0
  -23.4130  -28.8640   23.3810 O   0  0  0  0  0  0  0  0  0  0  0  0
  -20.9070  -29.8680   21.7690 H   0  0  0  0  0  0  0  0  0  0  0  0
  -18.0360  -28.0820   22.9330 C   0  0  0  0  0  0  0  0  0  0  0  0
  -20.5880  -28.3570   23.2110 C   0  0  0  0  0  3  0  0  0  0  0  0
  -20.7040  -26.9280   22.6340 C   0  0  0  0  0  2  0  0  0  0  0  0
  -19.6060  -26.6000   21.6150 C   0  0  0  0  0  2  0  0  0  0  0  0
  -18.2210  -26.7360   22.2530 C   0  0  0  0  0  2  0  0  0  0  0  0
  -19.1470  -28.8520   23.3660 C   0  0  0  0  0  0  0  0  0  0  0  0
  -18.9200  -30.1140   23.9570 C   0  0  0  0  0  3  0  0  0  0  0  0
  -17.6110  -30.6060   24.1200 C   0  0  0  0  0  3  0  0  0  0  0  0
  -16.5140  -29.8340   23.7020 C   0  0  0  0  0  3  0  0  0  0  0  0
  -16.7260  -28.5730   23.1170 C   0  0  0  0  0  3  0  0  0  0  0  0
  -25.8910  -32.5270   23.8760 C   0  0  0  0  0  3  0  0  0  0  0  0
  -26.4220  -31.7410   25.1370 C   0  0  1  0  0  0  0  0  0  0  0  0
  -25.3420  -31.4860   26.2120 C   0  0  0  0  0  1  0  0  0  0  0  0
  -27.0010  -30.3690   24.7190 C   0  0  0  0  0  1  0  0  0  0  0  0
  -27.5830  -32.5250   25.7940 C   0  0  0  0  0  1  0  0  0  0  0  0
  -25.5950  -33.9240   24.2200 N   0  0  0  0  0  0  0  0  0  0  0  0
  -25.9190  -34.9800   23.4600 C   0  0  0  0  0  0  0  0  0  0  0  0
  -26.5760  -34.8800   22.4210 O   0  0  0  0  0  0  0  0  0  0  0  0
  -25.0260  -34.0790   25.0400 H   0  0  0  0  0  0  0  0  0  0  0  0
  -24.1880  -36.7740   23.1300 C   0  0  0  0  0  1  0  0  0  0  0  0
  -25.4350  -36.3660   23.9300 C   0  0  0  0  0  3  0  0  0  0  0  0
  -27.5800  -37.2360   24.7490 C   0  0  0  0  0  1  0  0  0  0  0  0
  -26.4690  -37.4170   23.8180 N   0  0  0  0  0  0  0  0  0  0  0  0
  -26.0650  -38.3360   23.9820 H   0  0  0  0  0  0  0  0  0  0  0  0
  -28.6130  -20.0250   21.1820 C   0  0  0  0  0  2  0  0  0  0  0  0
  -32.1950  -18.5150   20.9800 C   0  0  0  0  0  3  0  0  0  0  0  0
  -31.8810  -17.1510   20.8650 C   0  0  0  0  0  3  0  0  0  0  0  0
  -29.5150  -17.7000   20.9800 C   0  0  0  0  0  3  0  0  0  0  0  0
  -31.1830  -19.4880   21.1030 C   0  0  0  0  0  0  0  0  0  0  0  0
  -29.8140  -19.0780   21.0780 C   0  0  0  0  0  0  0  0  0  0  0  0
  -30.5340  -16.7310   20.8630 C   0  0  0  0  0  0  0  0  0  0  0  0
  -31.6380  -20.9290   21.2960 C   0  0  0  0  0  1  0  0  0  0  0  0
  -30.7760  -14.3890   20.0940 C   0  0  0  0  0  0  0  0  0  0  0  0
  -30.3790  -12.2480   18.9470 C   0  0  0  0  0  2  0  0  0  0  0  0
  -29.3840  -12.4740   17.7910 C   0  0  0  0  0  2  0  0  0  0  0  0
  -27.9300  -12.3640   18.2900 C   0  0  0  0  0  2  0  0  0  0  0  0
  -27.6670  -13.1990   19.5710 C   0  0  0  0  0  3  0  0  0  0  0  0
  -28.7710  -12.9530   20.6250 C   0  0  0  0  0  2  0  0  0  0  0  0
  -30.0730  -13.2310   19.9950 N   0  0  0  0  0  0  0  0  0  0  0  0
  -31.8480  -14.5680   19.5080 O   0  0  0  0  0  0  0  0  0  0  0  0
  -30.1640  -15.3610   20.7890 N   0  0  0  0  0  0  0  0  0  0  0  0
  -29.2520  -15.1160   21.1430 H   0  0  0  0  0  0  0  0  0  0  0  0
  -25.3090  -13.8340   20.3860 C   0  0  0  0  0  0  0  0  0  0  0  0
  -24.2520  -13.0730   20.8070 C   0  0  0  0  0  0  0  0  0  0  0  0
  -24.6960  -11.7160   20.7530 C   0  0  0  0  0  0  0  0  0  0  0  0
  -26.3330  -12.9420   20.1100 N   0  0  0  0  0  0  0  0  0  0  0  0
  -25.9690  -11.6620   20.3830 N   0  0  0  0  0  0  0  0  0  0  0  0
  -23.9650  -10.4610   20.9750 C   0  0  0  0  0  0  0  0  0  0  0  0
  -24.4110   -9.5020   21.9110 C   0  0  0  0  0  3  0  0  0  0  0  0
  -23.6800   -8.3130   22.1200 C   0  0  0  0  0  3  0  0  0  0  0  0
  -22.4900   -8.0740   21.3920 C   0  0  0  0  0  0  0  0  0  0  0  0
  -22.0660   -9.0200   20.4430 C   0  0  0  0  0  3  0  0  0  0  0  0
  -22.7970  -10.2010   20.2320 C   0  0  0  0  0  3  0  0  0  0  0  0
  -21.7300   -6.9360   21.5100 O   0  0  0  0  0  0  0  0  0  0  0  0
  -21.6750   -6.2260   22.6840 C   0  0  0  0  0  0  0  0  0  0  0  0
  -21.2640   -6.8200   23.8960 C   0  0  0  0  0  3  0  0  0  0  0  0
  -21.1560   -6.0360   25.0630 C   0  0  0  0  0  3  0  0  0  0  0  0
  -21.4500   -4.6600   25.0180 C   0  0  0  0  0  0  0  0  0  0  0  0
  -21.8550   -4.0660   23.8080 C   0  0  0  0  0  3  0  0  0  0  0  0
  -21.9650   -4.8470   22.6450 C   0  0  0  0  0  0  0  0  0  0  0  0
  -22.3350   -4.2650   21.4780 F   0  0  0  0  0  0  0  0  0  0  0  0
  -21.3380   -3.9050   26.1350 F   0  0  0  0  0  0  0  0  0  0  0  0
  -22.8740  -13.5640   21.1470 C   0  0  0  0  0  0  0  0  0  0  0  0
  -22.1810  -12.8740   22.0470 N   0  0  0  0  0  0  0  0  0  0  0  0
  -22.4240  -14.5960   20.6520 O   0  0  0  0  0  0  0  0  0  0  0  0
  -22.5550  -12.0360   22.4650 H   0  0  0  0  0  0  0  0  0  0  0  0
  -21.2590  -13.1860   22.3170 H   0  0  0  0  0  0  0  0  0  0  0  0
  -25.4760  -15.2020   20.1930 N   0  0  0  0  0  0  0  0  0  0  0  0
  -24.7070  -15.8540   20.3010 H   0  0  0  0  0  0  0  0  0  0  0  0
  -26.2930  -15.6210   19.7670 H   0  0  0  0  0  0  0  0  0  0  0  0
  1  2  1  0
  2  4  1  0
  2 49  1  0
  3  1  2  0
  5  1  1  0
  6  5  2  0
  7  6  1  0
  7  8  1  0
  8 10  1  0
  9 20  2  0
 10 15  1  0
 11 19  1  0
 11 21  1  0
 12 18  1  0
 12 14  1  0
 13 19  1  0
 14 13  1  0
 15 14  2  0
 16 17  1  0
 16 10  2  0
 17 12  2  0
 18 11  1  0
 19  9  1  0
 21 23  2  0
 22 21  1  0
 24 22  1  0
 25 34  2  0
 25 30  1  0
 26 22  1  0
 26 30  1  0
 27 26  1  0
 28 29  1  0
 28 27  1  0
 29 25  1  0
 30 31  2  0
 31 32  1  0
 33 32  2  0
 34 33  1  0
 35  9  1  0
 35 40  1  0
 35 36  1  0
 36 39  1  1
 36 37  1  0
 38 36  1  0
 40 43  1  0
 41 45  1  0
 41 40  1  0
 42 41  2  0
 45 44  1  0
 47 45  1  0
 47 48  1  0
 47 46  1  0
 50 53  1  0
 51 50  2  0
 52 54  1  0
 53 56  1  0
 54 53  2  0
 54 49  1  0
 55 51  1  0
 55 52  2  0
 57 65  1  0
 58 63  1  0
 59 60  1  0
 59 58  1  0
 61 60  1  0
 61 70  1  0
 61 62  1  0
 63 57  1  0
 63 62  1  0
 64 57  2  0
 65 55  1  0
 65 66  1  0
 67 68  2  0
 68 87  1  0
 69 68  1  0
 69 72  1  0
 70 71  1  0
 70 67  1  0
 71 69  2  0
 72 73  1  0
 73 74  2  0
 75 78  1  0
 75 74  1  0
 76 75  2  0
 77 76  1  0
 77 72  2  0
 78 79  1  0
 79 80  1  0
 80 81  2  0
 82 81  1  0
 82 86  1  0
 83 82  2  0
 84 79  2  0
 84 83  1  0
 85 84  1  0
 87 88  1  0
 88 91  1  0
 88 90  1  0
 89 87  2  0
 92 93  1  0
 92 67  1  0
 94 92  1  0
M  ISO  4   7 101   8 101  57 100  65 100
M  END
>  <TORSDO>  (42) 
F 20

>  <SCORE>  (42) 
-13.564

>  <name>  (42) 
41

>  <ligand_id>  (42) 
41

>  <original_smiles>  (42) 
[H]C(C(=O)N([H])C([H])([H])c1c([H])c(N([H])C(=O)N2C([H])([H])C([H])([H])C([H])([H])C([H])(n3nc(-c4c([H])c([H])c(Oc5c([H])c([H])c(F)c([H])c5F)c([H])c4[H])c(C(=O)N([H])[H])c3N([H])[H])C2([H])[H])c([H])c([H])c1C([H])([H])[H])=C([H])C([H])([H])Oc1c([H])c([H])c2c(c1[H])C([H])([H])N(C(=O)C([H])(N([H])C(=O)C([H])(N([H])C([H])([H])[H])C([H])([H])[H])C(C([H])([H])[H])(C([H])([H])[H])C([H])([H])[H])C([H])(C(=O)N([H])C1([H])c3c([H])c([H])c([H])c([H])c3C([H])([H])C([H])([H])C1([H])[H])C2([H])[H]

>  <smiles>  (42) 
[H]C(C(=O)N([H])C([H])([H])c1c([H])c(N([H])C(=O)N2C([H])([H])C([H])([H])C([H])([H])C([H])(n3nc(-c4c([H])c([H])c(Oc5c([H])c([H])c(F)c([H])c5F)c([H])c4[H])c(C(=O)N([H])[H])c3N([H])[H])C2([H])[H])c([H])c([H])c1C([H])([H])[H])=C([H])C([H])([H])Oc1c([H])c([H])c2c(c1[H])C([H])([H])N(C(=O)C([H])(N([H])C(=O)C([H])(N([H])C([H])([H])[H])C([H])([H])[H])C(C([H])([H])[H])(C([H])([H])[H])C([H])([H])[H])C([H])(C(=O)N([H])C1([H])c3c([H])c([H])c([H])c([H])c3C([H])([H])C([H])([H])C1([H])[H])C2([H])[H]

$$$$
42:0:0
     RDKit          3D

 92100  0  0  1  0  0  0  0  0999 V2000
  -29.9320  -23.3790   19.1630 C   0  0  0  0  0  0  0  0  0  0  0  0
  -29.9680  -22.1260   19.6530 N   0  0  0  0  0  0  0  0  0  0  0  0
  -30.1510  -23.6100   17.9710 O   0  0  0  0  0  0  0  0  0  0  0  0
  -29.8040  -21.9660   20.6370 H   0  0  0  0  0  0  0  0  0  0  0  0
  -30.2870  -20.9810   18.7950 C   0  0  0  0  0  2  0  0  0  0  0  0
  -29.6210  -19.2580   20.6320 C   0  0  0  0  0  3  0  0  0  0  0  0
  -30.7520  -18.5230   18.6140 C   0  0  0  0  0  3  0  0  0  0  0  0
  -29.5580  -17.9150   21.0780 C   0  0  0  0  0  3  0  0  0  0  0  0
  -30.6910  -17.1890   19.0560 C   0  0  0  0  0  3  0  0  0  0  0  0
  -30.2200  -19.5720   19.3900 C   0  0  0  0  0  0  0  0  0  0  0  0
  -30.0990  -16.8620   20.3010 C   0  0  0  0  0  0  0  0  0  0  0  0
  -30.6780  -14.4440   20.3070 C   0  0  0  0  0  0  0  0  0  0  0  0
  -30.3300  -12.2940   19.1740 C   0  0  0  0  0  2  0  0  0  0  0  0
  -29.3760  -12.5370   17.9860 C   0  0  0  0  0  2  0  0  0  0  0  0
  -27.9070  -12.4170   18.4350 C   0  0  0  0  0  2  0  0  0  0  0  0
  -27.6010  -13.2420   19.7150 C   0  0  0  0  0  3  0  0  0  0  0  0
  -28.6710  -12.9990   20.8040 C   0  0  0  0  0  2  0  0  0  0  0  0
  -29.9920  -13.2740   20.2190 N   0  0  0  0  0  0  0  0  0  0  0  0
  -31.8270  -14.5740   19.8730 O   0  0  0  0  0  0  0  0  0  0  0  0
  -29.9730  -15.5060   20.7480 N   0  0  0  0  0  0  0  0  0  0  0  0
  -29.1370  -15.2870   21.2710 H   0  0  0  0  0  0  0  0  0  0  0  0
  -25.2140  -13.8640   20.4510 C   0  0  0  0  0  0  0  0  0  0  0  0
  -24.1460  -13.0980   20.8360 C   0  0  0  0  0  0  0  0  0  0  0  0
  -24.6010  -11.7440   20.8070 C   0  0  0  0  0  0  0  0  0  0  0  0
  -26.2520  -12.9770   20.2120 N   0  0  0  0  0  0  0  0  0  0  0  0
  -25.8860  -11.6970   20.4830 N   0  0  0  0  0  0  0  0  0  0  0  0
  -23.8710  -10.4860   21.0120 C   0  0  0  0  0  0  0  0  0  0  0  0
  -24.3200   -9.5140   21.9340 C   0  0  0  0  0  3  0  0  0  0  0  0
  -23.5920   -8.3210   22.1260 C   0  0  0  0  0  3  0  0  0  0  0  0
  -22.4010   -8.0900   21.3970 C   0  0  0  0  0  0  0  0  0  0  0  0
  -21.9720   -9.0500   20.4640 C   0  0  0  0  0  3  0  0  0  0  0  0
  -22.7010  -10.2350   20.2690 C   0  0  0  0  0  3  0  0  0  0  0  0
  -21.6430   -6.9490   21.5000 O   0  0  0  0  0  0  0  0  0  0  0  0
  -21.6260   -6.1960   22.6470 C   0  0  0  0  0  0  0  0  0  0  0  0
  -21.2470   -6.7430   23.8910 C   0  0  0  0  0  3  0  0  0  0  0  0
  -21.1760   -5.9180   25.0310 C   0  0  0  0  0  3  0  0  0  0  0  0
  -21.4760   -4.5460   24.9280 C   0  0  0  0  0  0  0  0  0  0  0  0
  -21.8500   -3.9990   23.6880 C   0  0  0  0  0  3  0  0  0  0  0  0
  -21.9210   -4.8220   22.5500 C   0  0  0  0  0  0  0  0  0  0  0  0
  -22.2610   -4.2840   21.3540 F   0  0  0  0  0  0  0  0  0  0  0  0
  -21.4000   -3.7510   26.0210 F   0  0  0  0  0  0  0  0  0  0  0  0
  -22.7540  -13.5830   21.1240 C   0  0  0  0  0  0  0  0  0  0  0  0
  -22.0350  -12.8960   22.0040 N   0  0  0  0  0  0  0  0  0  0  0  0
  -22.3140  -14.6060   20.6030 O   0  0  0  0  0  0  0  0  0  0  0  0
  -22.4040  -12.0680   22.4480 H   0  0  0  0  0  0  0  0  0  0  0  0
  -21.1020  -13.2020   22.2370 H   0  0  0  0  0  0  0  0  0  0  0  0
  -25.3820  -15.2320   20.2650 N   0  0  0  0  0  0  0  0  0  0  0  0
  -24.6200  -15.8920   20.3790 H   0  0  0  0  0  0  0  0  0  0  0  0
  -26.2300  -15.6670   19.9220 H   0  0  0  0  0  0  0  0  0  0  0  0
  -29.6370  -24.5590   20.1010 C   0  0  0  0  0  2  0  0  0  0  0  0
  -28.3720  -25.3400   19.6820 C   0  0  0  0  0  2  0  0  0  0  0  0
  -28.3860  -26.6920   20.1610 O   0  0  0  0  0  0  0  0  0  0  0  0
  -24.5820  -31.8630   23.2180 C   0  0  0  0  0  0  0  0  0  0  0  0
  -27.2040  -27.4090   20.1290 C   0  0  0  0  0  0  0  0  0  0  0  0
  -23.3670  -30.4660   21.5790 C   0  0  0  0  0  3  0  0  0  0  0  0
  -24.8090  -28.9270   20.1500 C   0  0  0  0  0  0  0  0  0  0  0  0
  -25.8930  -30.8150   21.3760 C   0  0  0  0  0  2  0  0  0  0  0  0
  -25.9700  -29.4430   20.7360 C   0  0  0  0  0  0  0  0  0  0  0  0
  -27.1670  -28.6900   20.7260 C   0  0  0  0  0  3  0  0  0  0  0  0
  -26.0180  -26.9120   19.5310 C   0  0  0  0  0  3  0  0  0  0  0  0
  -24.8280  -27.6600   19.5460 C   0  0  0  0  0  3  0  0  0  0  0  0
  -23.5700  -29.7900   20.1990 C   0  0  0  0  0  2  0  0  0  0  0  0
  -24.6330  -31.0620   22.1160 N   0  0  0  0  0  0  0  0  0  0  0  0
  -23.5030  -32.1390   23.7610 O   0  0  0  0  0  0  0  0  0  0  0  0
  -22.7160  -29.4460   22.5400 C   0  0  0  0  0  0  0  0  0  0  0  0
  -21.3910  -29.2620   22.4110 N   0  0  0  0  0  0  0  0  0  0  0  0
  -23.3970  -28.8220   23.3580 O   0  0  0  0  0  0  0  0  0  0  0  0
  -20.9010  -29.8180   21.7220 H   0  0  0  0  0  0  0  0  0  0  0  0
  -18.0160  -28.0710   22.9020 C   0  0  0  0  0  0  0  0  0  0  0  0
  -20.5720  -28.3270   23.1820 C   0  0  0  0  0  3  0  0  0  0  0  0
  -20.6770  -26.8950   22.6110 C   0  0  0  0  0  2  0  0  0  0  0  0
  -19.5780  -26.5700   21.5940 C   0  0  0  0  0  2  0  0  0  0  0  0
  -18.1940  -26.7190   22.2320 C   0  0  0  0  0  2  0  0  0  0  0  0
  -19.1330  -28.8330   23.3330 C   0  0  0  0  0  0  0  0  0  0  0  0
  -18.9140  -30.0990   23.9190 C   0  0  0  0  0  3  0  0  0  0  0  0
  -17.6090  -30.6040   24.0770 C   0  0  0  0  0  3  0  0  0  0  0  0
  -16.5060  -29.8370   23.6620 C   0  0  0  0  0  3  0  0  0  0  0  0
  -16.7100  -28.5740   23.0810 C   0  0  0  0  0  3  0  0  0  0  0  0
  -25.8730  -32.4880   23.8340 C   0  0  0  0  0  3  0  0  0  0  0  0
  -26.3910  -31.7160   25.1090 C   0  0  1  0  0  0  0  0  0  0  0  0
  -25.3000  -31.4850   26.1810 C   0  0  0  0  0  1  0  0  0  0  0  0
  -26.9660  -30.3360   24.7140 C   0  0  0  0  0  1  0  0  0  0  0  0
  -27.5490  -32.5060   25.7660 C   0  0  0  0  0  1  0  0  0  0  0  0
  -25.5730  -33.8890   24.1600 N   0  0  0  0  0  0  0  0  0  0  0  0
  -25.9080  -34.9350   23.3930 C   0  0  0  0  0  0  0  0  0  0  0  0
  -26.5740  -34.8240   22.3600 O   0  0  0  0  0  0  0  0  0  0  0  0
  -24.9830  -34.0510   24.9620 H   0  0  0  0  0  0  0  0  0  0  0  0
  -24.1870  -36.7320   23.0340 C   0  0  0  0  0  1  0  0  0  0  0  0
  -25.4280  -36.3280   23.8450 C   0  0  0  0  0  3  0  0  0  0  0  0
  -27.5680  -37.2060   24.6670 C   0  0  0  0  0  1  0  0  0  0  0  0
  -26.4650  -37.3760   23.7250 N   0  0  0  0  0  0  0  0  0  0  0  0
  -26.0640  -38.2980   23.8690 H   0  0  0  0  0  0  0  0  0  0  0  0
  1  2  1  0
  1 50  1  0
  2  4  1  0
  3  1  2  0
  5 10  1  0
  5  2  1  0
  6  8  1  0
  7  9  2  0
  7 10  1  0
  9 11  1  0
 10  6  2  0
 11 20  1  0
 11  8  2  0
 12 20  1  0
 13 18  1  0
 14 15  1  0
 14 13  1  0
 16 15  1  0
 16 25  1  0
 16 17  1  0
 18 12  1  0
 18 17  1  0
 19 12  2  0
 20 21  1  0
 22 23  2  0
 23 42  1  0
 24 23  1  0
 24 27  1  0
 25 22  1  0
 25 26  1  0
 26 24  2  0
 27 28  1  0
 28 29  2  0
 30 33  1  0
 30 29  1  0
 31 30  2  0
 32 31  1  0
 32 27  2  0
 33 34  1  0
 34 35  1  0
 35 36  2  0
 37 36  1  0
 37 41  1  0
 38 37  2  0
 39 34  2  0
 39 38  1  0
 40 39  1  0
 42 43  1  0
 43 46  1  0
 43 45  1  0
 44 42  2  0
 47 48  1  0
 47 22  1  0
 49 47  1  0
 51 50  1  0
 51 52  1  0
 53 64  2  0
 54 52  1  0
 54 59  1  0
 55 63  1  0
 55 65  1  0
 56 62  1  0
 56 58  1  0
 57 63  1  0
 58 57  1  0
 59 58  2  0
 60 61  1  0
 60 54  2  0
 61 56  2  0
 62 55  1  0
 63 53  1  0
 65 67  2  0
 66 65  1  0
 68 66  1  0
 69 78  2  0
 69 74  1  0
 70 66  1  0
 70 74  1  0
 71 70  1  0
 72 73  1  0
 72 71  1  0
 73 69  1  0
 74 75  2  0
 75 76  1  0
 77 76  2  0
 78 77  1  0
 79 53  1  0
 79 84  1  0
 79 80  1  0
 80 83  1  1
 80 81  1  0
 82 80  1  0
 84 87  1  0
 85 89  1  0
 85 84  1  0
 86 85  2  0
 89 88  1  0
 91 89  1  0
 91 92  1  0
 91 90  1  0
M  ISO  4  12 100  20 100  51 101  52 101
M  END
>  <TORSDO>  (43) 
F 20

>  <SCORE>  (43) 
-13.723

>  <name>  (43) 
42

>  <ligand_id>  (43) 
42

>  <original_smiles>  (43) 
[H]c1c([H])c([H])c2c(c1[H])C([H])([H])C([H])([H])C([H])([H])C2([H])N([H])C(=O)C1([H])N(C(=O)C([H])(N([H])C(=O)C([H])(N([H])C([H])([H])[H])C([H])([H])[H])C(C([H])([H])[H])(C([H])([H])[H])C([H])([H])[H])C([H])([H])c2c([H])c(OC([H])([H])C([H])([H])C(=O)N([H])C([H])([H])c3c([H])c([H])c(N([H])C(=O)N4C([H])([H])C([H])([H])C([H])([H])C([H])(n5nc(-c6c([H])c([H])c(Oc7c([H])c([H])c(F)c([H])c7F)c([H])c6[H])c(C(=O)N([H])[H])c5N([H])[H])C4([H])[H])c([H])c3[H])c([H])c([H])c2C1([H])[H]

>  <smiles>  (43) 
[H]c1c([H])c([H])c2c(c1[H])C([H])([H])C([H])([H])C([H])([H])C2([H])N([H])C(=O)C1([H])N(C(=O)C([H])(N([H])C(=O)C([H])(N([H])C([H])([H])[H])C([H])([H])[H])C(C([H])([H])[H])(C([H])([H])[H])C([H])([H])[H])C([H])([H])c2c([H])c(OC([H])([H])C([H])([H])C(=O)N([H])C([H])([H])c3c([H])c([H])c(N([H])C(=O)N4C([H])([H])C([H])([H])C([H])([H])C([H])(n5nc(-c6c([H])c([H])c(Oc7c([H])c([H])c(F)c([H])c7F)c([H])c6[H])c(C(=O)N([H])[H])c5N([H])[H])C4([H])[H])c([H])c3[H])c([H])c([H])c2C1([H])[H]

$$$$
43:0:0
     RDKit          3D

101110  0  0  1  0  0  0  0  0999 V2000
  -27.8740  -24.0970   20.1980 C   0  0  0  0  0  3  0  0  0  0  0  0
  -29.0560  -23.2360   20.7850 C   0  0  0  0  0  0  0  0  0  0  0  0
  -29.1100  -21.8960   20.5520 N   0  0  0  0  0  0  0  0  0  0  0  0
  -29.8770  -23.7790   21.5230 O   0  0  0  0  0  0  0  0  0  0  0  0
  -28.4470  -21.5350   19.8800 H   0  0  0  0  0  0  0  0  0  0  0  0
  -29.7780  -20.8500   21.3640 C   0  0  0  0  0  2  0  0  0  0  0  0
  -31.9310  -18.9660   18.8370 C   0  0  0  0  0  3  0  0  0  0  0  0
  -31.2940  -19.9780   19.5690 C   0  0  0  0  0  3  0  0  0  0  0  0
  -31.6450  -17.6170   19.0980 C   0  0  0  0  0  3  0  0  0  0  0  0
  -30.3640  -19.6560   20.5740 C   0  0  0  0  0  0  0  0  0  0  0  0
  -30.0730  -18.2730   20.8440 C   0  0  0  0  0  0  0  0  0  0  0  0
  -30.7240  -17.2260   20.1050 C   0  0  0  0  0  0  0  0  0  0  0  0
  -29.0620  -17.9170   21.9300 C   0  0  0  0  0  1  0  0  0  0  0  0
  -31.0900  -14.7070   19.9530 C   0  0  0  0  0  0  0  0  0  0  0  0
  -30.6950  -12.5040   18.9200 C   0  0  0  0  0  2  0  0  0  0  0  0
  -29.7090  -12.6790   17.7460 C   0  0  0  0  0  2  0  0  0  0  0  0
  -28.2550  -12.5720   18.2420 C   0  0  0  0  0  2  0  0  0  0  0  0
  -27.9800  -13.4490   19.4960 C   0  0  0  0  0  3  0  0  0  0  0  0
  -29.0850  -13.2810   20.5630 C   0  0  0  0  0  2  0  0  0  0  0  0
  -30.3810  -13.5420   19.9180 N   0  0  0  0  0  0  0  0  0  0  0  0
  -32.2390  -14.7630   19.5130 O   0  0  0  0  0  0  0  0  0  0  0  0
  -30.4180  -15.8230   20.3470 N   0  0  0  0  0  0  0  0  0  0  0  0
  -29.5290  -15.6390   20.7820 H   0  0  0  0  0  0  0  0  0  0  0  0
  -25.6490  -14.0930   20.3730 C   0  0  0  0  0  0  0  0  0  0  0  0
  -24.5820  -13.3380   20.7790 C   0  0  0  0  0  0  0  0  0  0  0  0
  -24.9980  -11.9760   20.6770 C   0  0  0  0  0  0  0  0  0  0  0  0
  -26.6500  -13.1910   20.0480 N   0  0  0  0  0  0  0  0  0  0  0  0
  -26.2660  -11.9110   20.2890 N   0  0  0  0  0  0  0  0  0  0  0  0
  -24.2410  -10.7320   20.8700 C   0  0  0  0  0  0  0  0  0  0  0  0
  -24.6390   -9.7670   21.8220 C   0  0  0  0  0  3  0  0  0  0  0  0
  -23.8850   -8.5860   22.0020 C   0  0  0  0  0  3  0  0  0  0  0  0
  -22.7210   -8.3620   21.2290 C   0  0  0  0  0  0  0  0  0  0  0  0
  -22.3430   -9.3150   20.2660 C   0  0  0  0  0  3  0  0  0  0  0  0
  -23.0960  -10.4870   20.0850 C   0  0  0  0  0  3  0  0  0  0  0  0
  -21.9420   -7.2340   21.3170 O   0  0  0  0  0  0  0  0  0  0  0  0
  -21.7940   -6.5530   22.4990 C   0  0  0  0  0  0  0  0  0  0  0  0
  -21.2790   -7.1720   23.6590 C   0  0  0  0  0  3  0  0  0  0  0  0
  -21.0760   -6.4150   24.8300 C   0  0  0  0  0  3  0  0  0  0  0  0
  -21.3790   -5.0410   24.8440 C   0  0  0  0  0  0  0  0  0  0  0  0
  -21.8910   -4.4210   23.6900 C   0  0  0  0  0  3  0  0  0  0  0  0
  -22.0940   -5.1750   22.5210 C   0  0  0  0  0  0  0  0  0  0  0  0
  -22.5640   -4.5680   21.4040 F   0  0  0  0  0  0  0  0  0  0  0  0
  -21.1770   -4.3130   25.9670 F   0  0  0  0  0  0  0  0  0  0  0  0
  -23.2180  -13.8490   21.1450 C   0  0  0  0  0  0  0  0  0  0  0  0
  -22.5230  -13.1610   22.0440 N   0  0  0  0  0  0  0  0  0  0  0  0
  -22.7770  -14.8910   20.6640 O   0  0  0  0  0  0  0  0  0  0  0  0
  -22.8920  -12.3180   22.4590 H   0  0  0  0  0  0  0  0  0  0  0  0
  -21.6090  -13.4880   22.3220 H   0  0  0  0  0  0  0  0  0  0  0  0
  -25.8420  -15.4640   20.2360 N   0  0  0  0  0  0  0  0  0  0  0  0
  -25.0960  -16.1260   20.4240 H   0  0  0  0  0  0  0  0  0  0  0  0
  -26.6640  -15.9020   19.8410 H   0  0  0  0  0  0  0  0  0  0  0  0
  -26.7670  -23.1810   19.5640 C   0  0  0  0  0  2  0  0  0  0  0  0
  -22.5960  -24.4490   19.5900 C   0  0  0  0  0  3  0  0  0  0  0  0
  -23.2260  -24.0580   18.3970 C   0  0  0  0  0  3  0  0  0  0  0  0
  -23.3140  -24.4310   20.7980 C   0  0  0  0  0  3  0  0  0  0  0  0
  -24.5750  -23.6620   18.4170 C   0  0  0  0  0  3  0  0  0  0  0  0
  -24.6660  -24.0300   20.8300 C   0  0  0  0  0  0  0  0  0  0  0  0
  -25.3170  -23.6610   19.6200 C   0  0  0  0  0  0  0  0  0  0  0  0
  -25.3450  -24.0020   22.1900 C   0  0  0  0  0  1  0  0  0  0  0  0
  -28.3100  -25.3250   19.2940 C   0  0  0  0  0  2  0  0  0  0  0  0
  -28.2790  -26.6700   19.8740 O   0  0  0  0  0  0  0  0  0  0  0  0
  -24.3970  -31.7430   23.1410 C   0  0  0  0  0  0  0  0  0  0  0  0
  -27.1030  -27.4160   19.8900 C   0  0  0  0  0  0  0  0  0  0  0  0
  -23.2010  -30.3450   21.4950 C   0  0  0  0  0  3  0  0  0  0  0  0
  -24.6700  -28.8970   19.9980 C   0  0  0  0  0  0  0  0  0  0  0  0
  -25.7180  -30.7700   21.2600 C   0  0  0  0  0  2  0  0  0  0  0  0
  -25.8310  -29.4170   20.5850 C   0  0  0  0  0  0  0  0  0  0  0  0
  -27.0470  -28.6810   20.5380 C   0  0  0  0  0  3  0  0  0  0  0  0
  -25.9260  -26.9540   19.2690 C   0  0  0  0  0  3  0  0  0  0  0  0
  -24.7150  -27.6620   19.3400 C   0  0  0  0  0  3  0  0  0  0  0  0
  -23.4040  -29.7160   20.0920 C   0  0  0  0  0  2  0  0  0  0  0  0
  -24.4590  -30.9660   22.0230 N   0  0  0  0  0  0  0  0  0  0  0  0
  -23.3190  -31.9680   23.7100 O   0  0  0  0  0  0  0  0  0  0  0  0
  -22.6030  -29.2770   22.4410 C   0  0  0  0  0  0  0  0  0  0  0  0
  -21.2890  -29.0290   22.3160 N   0  0  0  0  0  0  0  0  0  0  0  0
  -23.3190  -28.6770   23.2480 O   0  0  0  0  0  0  0  0  0  0  0  0
  -20.7640  -29.5680   21.6390 H   0  0  0  0  0  0  0  0  0  0  0  0
  -17.9880  -27.6450   22.7990 C   0  0  0  0  0  0  0  0  0  0  0  0
  -20.5280  -28.0420   23.0790 C   0  0  0  0  0  3  0  0  0  0  0  0
  -20.7120  -26.6250   22.4950 C   0  0  0  0  0  2  0  0  0  0  0  0
  -19.6290  -26.2440   21.4810 C   0  0  0  0  0  2  0  0  0  0  0  0
  -18.2390  -26.3130   22.1150 C   0  0  0  0  0  2  0  0  0  0  0  0
  -19.0630  -28.4640   23.2390 C   0  0  0  0  0  0  0  0  0  0  0  0
  -18.7720  -29.7080   23.8400 C   0  0  0  0  0  3  0  0  0  0  0  0
  -17.4390  -30.1350   24.0090 C   0  0  0  0  0  3  0  0  0  0  0  0
  -16.3800  -29.3140   23.5820 C   0  0  0  0  0  3  0  0  0  0  0  0
  -16.6560  -28.0730   22.9850 C   0  0  0  0  0  3  0  0  0  0  0  0
  -25.6760  -32.4040   23.7430 C   0  0  0  0  0  3  0  0  0  0  0  0
  -25.3330  -33.7880   24.1000 N   0  0  0  0  0  0  0  0  0  0  0  0
  -25.6130  -34.8600   23.3450 C   0  0  0  0  0  0  0  0  0  0  0  0
  -26.2620  -34.7920   22.2980 O   0  0  0  0  0  0  0  0  0  0  0  0
  -24.7560  -33.9150   24.9190 H   0  0  0  0  0  0  0  0  0  0  0  0
  -23.8270  -36.6060   23.0530 C   0  0  0  0  0  1  0  0  0  0  0  0
  -25.0950  -36.2280   23.8340 C   0  0  0  0  0  3  0  0  0  0  0  0
  -27.2140  -37.1670   24.6410 C   0  0  0  0  0  1  0  0  0  0  0  0
  -26.0930  -37.3140   23.7150 N   0  0  0  0  0  0  0  0  0  0  0  0
  -25.6610  -38.2180   23.8810 H   0  0  0  0  0  0  0  0  0  0  0  0
  -26.2450  -31.6280   24.9940 C   0  0  1  0  0  0  0  0  0  0  0  0
  -25.1810  -31.3370   26.0760 C   0  0  0  0  0  1  0  0  0  0  0  0
  -26.8610  -30.2750   24.5670 C   0  0  0  0  0  1  0  0  0  0  0  0
  -27.3840  -32.4470   25.6450 C   0  0  0  0  0  1  0  0  0  0  0  0
  1 60  1  0
  1  2  1  0
  2  4  2  0
  3  2  1  0
  3  6  1  0
  5  3  1  0
  7  9  2  0
  7  8  1  0
  8 10  2  0
  9 12  1  0
 10 11  1  0
 10  6  1  0
 11 13  1  0
 12 22  1  0
 12 11  2  0
 14 22  1  0
 15 20  1  0
 16 17  1  0
 16 15  1  0
 18 17  1  0
 18 27  1  0
 18 19  1  0
 20 14  1  0
 20 19  1  0
 21 14  2  0
 22 23  1  0
 24 25  2  0
 25 44  1  0
 26 25  1  0
 26 29  1  0
 27 28  1  0
 27 24  1  0
 28 26  2  0
 29 30  1  0
 30 31  2  0
 32 35  1  0
 32 31  1  0
 33 32  2  0
 34 33  1  0
 34 29  2  0
 35 36  1  0
 36 41  2  0
 36 37  1  0
 37 38  2  0
 38 39  1  0
 39 43  1  0
 40 39  2  0
 41 40  1  0
 42 41  1  0
 44 45  1  0
 45 48  1  0
 45 47  1  0
 46 44  2  0
 49 24  1  0
 49 50  1  0
 51 49  1  0
 52 58  1  0
 52  1  1  0
 53 55  1  0
 54 56  1  0
 54 53  2  0
 55 57  2  0
 56 58  2  0
 57 59  1  0
 58 57  1  0
 60 61  1  0
 61 63  1  0
 62 73  2  0
 63 68  1  0
 64 72  1  0
 64 74  1  0
 65 71  1  0
 65 67  1  0
 66 72  1  0
 67 66  1  0
 68 67  2  0
 69 70  1  0
 69 63  2  0
 70 65  2  0
 71 64  1  0
 72 62  1  0
 74 76  2  0
 75 74  1  0
 77 75  1  0
 78 87  2  0
 78 83  1  0
 79 75  1  0
 79 83  1  0
 80 79  1  0
 81 82  1  0
 81 80  1  0
 82 78  1  0
 83 84  2  0
 84 85  1  0
 86 85  2  0
 87 86  1  0
 88 62  1  0
 88 89  1  0
 88 98  1  0
 89 92  1  0
 90 94  1  0
 90 89  1  0
 91 90  2  0
 94 93  1  0
 96 94  1  0
 96 97  1  0
 96 95  1  0
 98101  1  1
 98 99  1  0
100 98  1  0
M  ISO  4  14 100  22 100  60 101  61 101
M  END
>  <TORSDO>  (44) 
F 22

>  <SCORE>  (44) 
-12.163

>  <name>  (44) 
43

>  <ligand_id>  (44) 
43

>  <original_smiles>  (44) 
[H]c1c([H])c([H])c(C([H])([H])C([H])(C(=O)N([H])C([H])([H])c2c([H])c([H])c([H])c(N([H])C(=O)N3C([H])([H])C([H])([H])C([H])([H])C([H])(n4nc(-c5c([H])c([H])c(Oc6c([H])c([H])c(F)c([H])c6F)c([H])c5[H])c(C(=O)N([H])[H])c4N([H])[H])C3([H])[H])c2C([H])([H])[H])C([H])([H])Oc2c([H])c([H])c3c(c2[H])C([H])([H])N(C(=O)C([H])(N([H])C(=O)C([H])(N([H])C([H])([H])[H])C([H])([H])[H])C(C([H])([H])[H])(C([H])([H])[H])C([H])([H])[H])C([H])(C(=O)N([H])C2([H])c4c([H])c([H])c([H])c([H])c4C([H])([H])C([H])([H])C2([H])[H])C3([H])[H])c(C([H])([H])[H])c1[H]

>  <smiles>  (44) 
[H]c1c([H])c([H])c(C([H])([H])C([H])(C(=O)N([H])C([H])([H])c2c([H])c([H])c([H])c(N([H])C(=O)N3C([H])([H])C([H])([H])C([H])([H])C([H])(n4nc(-c5c([H])c([H])c(Oc6c([H])c([H])c(F)c([H])c6F)c([H])c5[H])c(C(=O)N([H])[H])c4N([H])[H])C3([H])[H])c2C([H])([H])[H])C([H])([H])Oc2c([H])c([H])c3c(c2[H])C([H])([H])N(C(=O)C([H])(N([H])C(=O)C([H])(N([H])C([H])([H])[H])C([H])([H])[H])C(C([H])([H])[H])(C([H])([H])[H])C([H])([H])[H])C([H])(C(=O)N([H])C2([H])c4c([H])c([H])c([H])c([H])c4C([H])([H])C([H])([H])C2([H])[H])C3([H])[H])c(C([H])([H])[H])c1[H]

$$$$
44:0:0
     RDKit          3D

 94102  0  0  1  0  0  0  0  0999 V2000
  -29.4100  -21.2250   20.7420 C   0  0  1  0  0  0  0  0  0  0  0  0
  -28.7910  -20.9510   21.8910 F   0  0  0  0  0  0  0  0  0  0  0  0
  -30.6790  -21.5170   21.0410 F   0  0  0  0  0  0  0  0  0  0  0  0
  -30.0000  -18.5880   17.8750 C   0  0  0  0  0  3  0  0  0  0  0  0
  -30.0630  -17.3570   18.5610 C   0  0  0  0  0  3  0  0  0  0  0  0
  -29.5640  -18.5440   20.6080 C   0  0  0  0  0  3  0  0  0  0  0  0
  -29.7470  -19.8160   18.5290 C   0  0  0  0  0  0  0  0  0  0  0  0
  -29.5280  -19.8430   19.9360 C   0  0  0  0  0  0  0  0  0  0  0  0
  -29.8490  -17.2750   19.9540 C   0  0  0  0  0  0  0  0  0  0  0  0
  -29.7560  -21.0810   17.6790 C   0  0  0  0  0  1  0  0  0  0  0  0
  -30.5750  -14.7970   20.3300 C   0  0  0  0  0  0  0  0  0  0  0  0
  -30.3740  -12.5080   19.3690 C   0  0  0  0  0  2  0  0  0  0  0  0
  -29.4410  -12.5900   18.1400 C   0  0  0  0  0  2  0  0  0  0  0  0
  -27.9700  -12.4230   18.5630 C   0  0  0  0  0  2  0  0  0  0  0  0
  -27.6000  -13.3130   19.7790 C   0  0  0  0  0  3  0  0  0  0  0  0
  -28.6500  -13.2260   20.9060 C   0  0  0  0  0  2  0  0  0  0  0  0
  -29.9570  -13.5650   20.3220 N   0  0  0  0  0  0  0  0  0  0  0  0
  -31.7530  -14.8910   19.9710 O   0  0  0  0  0  0  0  0  0  0  0  0
  -29.8200  -15.9340   20.5980 N   0  0  0  0  0  0  0  0  0  0  0  0
  -28.9850  -15.7500   21.1350 H   0  0  0  0  0  0  0  0  0  0  0  0
  -25.2120  -13.9170   20.4890 C   0  0  0  0  0  0  0  0  0  0  0  0
  -24.1420  -13.1470   20.8590 C   0  0  0  0  0  0  0  0  0  0  0  0
  -24.6050  -11.7950   20.8430 C   0  0  0  0  0  0  0  0  0  0  0  0
  -26.2550  -13.0330   20.2650 N   0  0  0  0  0  0  0  0  0  0  0  0
  -25.8970  -11.7520   20.5420 N   0  0  0  0  0  0  0  0  0  0  0  0
  -23.8730  -10.5380   21.0380 C   0  0  0  0  0  0  0  0  0  0  0  0
  -24.3090   -9.5670   21.9670 C   0  0  0  0  0  3  0  0  0  0  0  0
  -23.5800   -8.3720   22.1520 C   0  0  0  0  0  3  0  0  0  0  0  0
  -22.4010   -8.1390   21.4050 C   0  0  0  0  0  0  0  0  0  0  0  0
  -21.9870   -9.0950   20.4610 C   0  0  0  0  0  3  0  0  0  0  0  0
  -22.7160  -10.2800   20.2760 C   0  0  0  0  0  3  0  0  0  0  0  0
  -21.6410   -6.9980   21.4990 O   0  0  0  0  0  0  0  0  0  0  0  0
  -21.6080   -6.2490   22.6470 C   0  0  0  0  0  0  0  0  0  0  0  0
  -21.2150   -6.8010   23.8860 C   0  0  0  0  0  3  0  0  0  0  0  0
  -21.1310   -5.9780   25.0270 C   0  0  0  0  0  3  0  0  0  0  0  0
  -21.4230   -4.6040   24.9280 C   0  0  0  0  0  0  0  0  0  0  0  0
  -21.8070   -4.0520   23.6940 C   0  0  0  0  0  3  0  0  0  0  0  0
  -21.8970   -4.8720   22.5550 C   0  0  0  0  0  0  0  0  0  0  0  0
  -22.2480   -4.3310   21.3630 F   0  0  0  0  0  0  0  0  0  0  0  0
  -21.3320   -3.8120   26.0220 F   0  0  0  0  0  0  0  0  0  0  0  0
  -22.7450  -13.6280   21.1160 C   0  0  0  0  0  0  0  0  0  0  0  0
  -22.0100  -12.9390   21.9830 N   0  0  0  0  0  0  0  0  0  0  0  0
  -22.3120  -14.6490   20.5840 O   0  0  0  0  0  0  0  0  0  0  0  0
  -22.3760  -12.1140   22.4320 H   0  0  0  0  0  0  0  0  0  0  0  0
  -21.0700  -13.2410   22.1970 H   0  0  0  0  0  0  0  0  0  0  0  0
  -25.3800  -15.2860   20.2990 N   0  0  0  0  0  0  0  0  0  0  0  0
  -24.6090  -15.9390   20.3950 H   0  0  0  0  0  0  0  0  0  0  0  0
  -26.2260  -15.7240   19.9550 H   0  0  0  0  0  0  0  0  0  0  0  0
  -28.9680  -23.8240   20.4860 C   0  0  0  0  0  0  0  0  0  0  0  0
  -28.7610  -22.4850   20.1790 N   0  0  0  0  0  0  0  0  0  0  0  0
  -29.8760  -24.1770   21.2440 O   0  0  0  0  0  0  0  0  0  0  0  0
  -27.9730  -22.3010   19.5770 H   0  0  0  0  0  0  0  0  0  0  0  0
  -28.0040  -24.9520   19.9010 C   0  0  0  0  0  2  0  0  0  0  0  0
  -28.2650  -26.3990   20.2360 O   0  0  0  0  0  0  0  0  0  0  0  0
  -24.5980  -31.8990   23.2510 C   0  0  0  0  0  0  0  0  0  0  0  0
  -27.1790  -27.3060   20.1700 C   0  0  0  0  0  0  0  0  0  0  0  0
  -23.3880  -30.5030   21.6170 C   0  0  0  0  0  3  0  0  0  0  0  0
  -24.8290  -28.9610   20.1750 C   0  0  0  0  0  0  0  0  0  0  0  0
  -25.9330  -30.8080   21.4290 C   0  0  0  0  0  2  0  0  0  0  0  0
  -26.0060  -29.4310   20.7710 C   0  0  0  0  0  0  0  0  0  0  0  0
  -27.1830  -28.6140   20.7640 C   0  0  0  0  0  3  0  0  0  0  0  0
  -25.9810  -26.9190   19.5240 C   0  0  0  0  0  3  0  0  0  0  0  0
  -24.8210  -27.7140   19.5390 C   0  0  0  0  0  3  0  0  0  0  0  0
  -23.5930  -29.8360   20.2330 C   0  0  0  0  0  2  0  0  0  0  0  0
  -24.6570  -31.0880   22.1540 N   0  0  0  0  0  0  0  0  0  0  0  0
  -23.5160  -32.1780   23.7890 O   0  0  0  0  0  0  0  0  0  0  0  0
  -22.7270  -29.4860   22.5800 C   0  0  0  0  0  0  0  0  0  0  0  0
  -21.4010  -29.3040   22.4520 N   0  0  0  0  0  0  0  0  0  0  0  0
  -23.4070  -28.8650   23.4010 O   0  0  0  0  0  0  0  0  0  0  0  0
  -20.9150  -29.8510   21.7560 H   0  0  0  0  0  0  0  0  0  0  0  0
  -18.0280  -28.0930   22.9480 C   0  0  0  0  0  0  0  0  0  0  0  0
  -20.5840  -28.3680   23.2240 C   0  0  0  0  0  3  0  0  0  0  0  0
  -20.6970  -26.9340   22.6550 C   0  0  0  0  0  2  0  0  0  0  0  0
  -19.6000  -26.6020   21.6390 C   0  0  0  0  0  2  0  0  0  0  0  0
  -18.2150  -26.7430   22.2760 C   0  0  0  0  0  2  0  0  0  0  0  0
  -19.1410  -28.8640   23.3760 C   0  0  0  0  0  0  0  0  0  0  0  0
  -18.9130  -30.1290   23.9610 C   0  0  0  0  0  3  0  0  0  0  0  0
  -17.6050  -30.6220   24.1240 C   0  0  0  0  0  3  0  0  0  0  0  0
  -16.5060  -29.8500   23.7110 C   0  0  0  0  0  3  0  0  0  0  0  0
  -16.7190  -28.5860   23.1300 C   0  0  0  0  0  3  0  0  0  0  0  0
  -25.8820  -32.5320   23.8680 C   0  0  0  0  0  3  0  0  0  0  0  0
  -26.3990  -31.7620   25.1460 C   0  0  1  0  0  0  0  0  0  0  0  0
  -25.3090  -31.5280   26.2180 C   0  0  0  0  0  1  0  0  0  0  0  0
  -26.9770  -30.3830   24.7590 C   0  0  0  0  0  1  0  0  0  0  0  0
  -27.5530  -32.5550   25.8020 C   0  0  0  0  0  1  0  0  0  0  0  0
  -25.5760  -33.9320   24.1980 N   0  0  0  0  0  0  0  0  0  0  0  0
  -25.9030  -34.9840   23.4350 C   0  0  0  0  0  0  0  0  0  0  0  0
  -26.5650  -34.8800   22.3980 O   0  0  0  0  0  0  0  0  0  0  0  0
  -24.9870  -34.0890   25.0040 H   0  0  0  0  0  0  0  0  0  0  0  0
  -24.1740  -36.7750   23.0930 C   0  0  0  0  0  1  0  0  0  0  0  0
  -25.4220  -36.3750   23.8940 C   0  0  0  0  0  3  0  0  0  0  0  0
  -27.5670  -37.2570   24.6980 C   0  0  0  0  0  1  0  0  0  0  0  0
  -26.4540  -37.4280   23.7680 N   0  0  0  0  0  0  0  0  0  0  0  0
  -26.0520  -38.3480   23.9220 H   0  0  0  0  0  0  0  0  0  0  0  0
  1  3  1  1
  1  2  1  0
  4  7  2  0
  4  5  1  0
  5  9  2  0
  7  8  1  0
  8  6  2  0
  8  1  1  0
  9 19  1  0
  9  6  1  0
 10  7  1  0
 11 19  1  0
 12 17  1  0
 13 14  1  0
 13 12  1  0
 15 14  1  0
 15 24  1  0
 15 16  1  0
 17 11  1  0
 17 16  1  0
 18 11  2  0
 19 20  1  0
 21 22  2  0
 22 41  1  0
 23 22  1  0
 23 26  1  0
 24 21  1  0
 24 25  1  0
 25 23  2  0
 26 27  1  0
 27 28  2  0
 29 32  1  0
 29 28  1  0
 30 29  2  0
 31 30  1  0
 31 26  2  0
 32 33  1  0
 33 34  1  0
 34 35  2  0
 36 35  1  0
 36 40  1  0
 37 36  2  0
 38 33  2  0
 38 37  1  0
 39 38  1  0
 41 42  1  0
 42 45  1  0
 42 44  1  0
 43 41  2  0
 46 47  1  0
 46 21  1  0
 48 46  1  0
 49 51  2  0
 50 49  1  0
 50  1  1  0
 52 50  1  0
 53 54  1  0
 53 49  1  0
 55 66  2  0
 56 54  1  0
 56 61  1  0
 57 65  1  0
 57 67  1  0
 58 64  1  0
 58 60  1  0
 59 65  1  0
 60 59  1  0
 61 60  2  0
 62 63  1  0
 62 56  2  0
 63 58  2  0
 64 57  1  0
 65 55  1  0
 67 69  2  0
 68 67  1  0
 70 68  1  0
 71 80  2  0
 71 76  1  0
 72 68  1  0
 72 76  1  0
 73 72  1  0
 74 75  1  0
 74 73  1  0
 75 71  1  0
 76 77  2  0
 77 78  1  0
 79 78  2  0
 80 79  1  0
 81 55  1  0
 81 86  1  0
 81 82  1  0
 82 85  1  1
 82 83  1  0
 84 82  1  0
 86 89  1  0
 87 91  1  0
 87 86  1  0
 88 87  2  0
 91 90  1  0
 93 91  1  0
 93 94  1  0
 93 92  1  0
M  ISO  4  11 100  19 100  53 101  54 101
M  END
>  <TORSDO>  (45) 
F 19

>  <SCORE>  (45) 
-14.426

>  <name>  (45) 
44

>  <ligand_id>  (45) 
44

>  <original_smiles>  (45) 
[H]c1c([H])c([H])c2c(c1[H])C([H])([H])C([H])([H])C([H])([H])C2([H])N([H])C(=O)C1([H])N(C(=O)C([H])(N([H])C(=O)C([H])(N([H])C([H])([H])[H])C([H])([H])[H])C(C([H])([H])[H])(C([H])([H])[H])C([H])([H])[H])C([H])([H])c2c([H])c(OC([H])([H])C(=O)N([H])C(F)(F)c3c([H])c(N([H])C(=O)N4C([H])([H])C([H])([H])C([H])([H])C([H])(n5nc(-c6c([H])c([H])c(Oc7c([H])c([H])c(F)c([H])c7F)c([H])c6[H])c(C(=O)N([H])[H])c5N([H])[H])C4([H])[H])c([H])c([H])c3C([H])([H])[H])c([H])c([H])c2C1([H])[H]

>  <smiles>  (45) 
[H]c1c([H])c([H])c2c(c1[H])C([H])([H])C([H])([H])C([H])([H])C2([H])N([H])C(=O)C1([H])N(C(=O)C([H])(N([H])C(=O)C([H])(N([H])C([H])([H])[H])C([H])([H])[H])C(C([H])([H])[H])(C([H])([H])[H])C([H])([H])[H])C([H])([H])c2c([H])c(OC([H])([H])C(=O)N([H])C(F)(F)c3c([H])c(N([H])C(=O)N4C([H])([H])C([H])([H])C([H])([H])C([H])(n5nc(-c6c([H])c([H])c(Oc7c([H])c([H])c(F)c([H])c7F)c([H])c6[H])c(C(=O)N([H])[H])c5N([H])[H])C4([H])[H])c([H])c([H])c3C([H])([H])[H])c([H])c([H])c2C1([H])[H]

$$$$
45:0:0
     RDKit          3D

 99107  0  0  1  0  0  0  0  0999 V2000
  -31.2710  -23.2240   20.9360 C   0  0  0  0  0  0  0  0  0  0  0  0
  -32.5860  -23.4100   20.7810 N   0  0  0  0  0  4  0  0  0  0  0  0
  -30.4650  -24.2530   21.2390 N   0  0  0  0  0  0  0  0  0  0  0  0
  -30.7710  -21.9900   20.7750 N   0  0  0  0  0  0  0  0  0  0  0  0
  -33.0200  -24.3110   20.9350 H   0  0  0  0  0  0  0  0  0  0  0  0
  -33.2160  -22.6410   20.5930 H   0  0  0  0  0  0  0  0  0  0  0  0
  -29.4710  -24.0760   21.3140 H   0  0  0  0  0  0  0  0  0  0  0  0
  -31.3670  -21.2580   20.4260 H   0  0  0  0  0  0  0  0  0  0  0  0
  -29.3870  -21.5560   21.0430 C   0  0  0  0  0  2  0  0  0  0  0  0
  -27.5820  -18.8710   19.0110 C   0  0  0  0  0  3  0  0  0  0  0  0
  -28.3620  -17.7280   19.2530 C   0  0  0  0  0  3  0  0  0  0  0  0
  -27.9390  -20.0920   19.6010 C   0  0  0  0  0  3  0  0  0  0  0  0
  -29.4890  -17.7770   20.1070 C   0  0  0  0  0  0  0  0  0  0  0  0
  -29.0540  -20.1820   20.4630 C   0  0  0  0  0  0  0  0  0  0  0  0
  -29.8090  -19.0070   20.7590 C   0  0  0  0  0  0  0  0  0  0  0  0
  -30.9220  -19.0620   21.8070 C   0  0  0  0  0  1  0  0  0  0  0  0
  -30.3490  -16.5670   20.2360 C   0  0  0  0  0  3  0  0  0  0  0  0
  -29.9350  -15.3660   20.3900 N   0  0  0  0  0  0  0  0  0  0  0  0
  -30.8420  -14.3240   20.1930 C   0  0  0  0  0  0  0  0  0  0  0  0
  -30.6330  -12.0700   19.2460 C   0  0  0  0  0  2  0  0  0  0  0  0
  -29.6820  -12.1990   18.0330 C   0  0  0  0  0  2  0  0  0  0  0  0
  -28.2030  -12.0800   18.4670 C   0  0  0  0  0  2  0  0  0  0  0  0
  -27.8640  -12.9880   19.6820 C   0  0  0  0  0  3  0  0  0  0  0  0
  -28.9230  -12.8260   20.7940 C   0  0  0  0  0  2  0  0  0  0  0  0
  -30.2490  -13.1040   20.2160 N   0  0  0  0  0  0  0  0  0  0  0  0
  -32.0180  -14.4530   19.8260 O   0  0  0  0  0  0  0  0  0  0  0  0
  -25.4950  -13.6530   20.4410 C   0  0  0  0  0  0  0  0  0  0  0  0
  -24.4210  -12.9010   20.8320 C   0  0  0  0  0  0  0  0  0  0  0  0
  -24.8550  -11.5410   20.7980 C   0  0  0  0  0  0  0  0  0  0  0  0
  -26.5170  -12.7490   20.1900 N   0  0  0  0  0  0  0  0  0  0  0  0
  -26.1370  -11.4760   20.4660 N   0  0  0  0  0  0  0  0  0  0  0  0
  -24.1140  -10.2920   21.0020 C   0  0  0  0  0  0  0  0  0  0  0  0
  -24.5140   -9.3470   21.9750 C   0  0  0  0  0  3  0  0  0  0  0  0
  -23.7740   -8.1600   22.1640 C   0  0  0  0  0  3  0  0  0  0  0  0
  -22.6230   -7.9100   21.3780 C   0  0  0  0  0  0  0  0  0  0  0  0
  -22.2430   -8.8420   20.3960 C   0  0  0  0  0  3  0  0  0  0  0  0
  -22.9830  -10.0200   20.2050 C   0  0  0  0  0  3  0  0  0  0  0  0
  -21.8510   -6.7740   21.4760 O   0  0  0  0  0  0  0  0  0  0  0  0
  -21.7200   -6.0920   22.6600 C   0  0  0  0  0  0  0  0  0  0  0  0
  -21.1490   -6.6890   23.8060 C   0  0  0  0  0  3  0  0  0  0  0  0
  -20.9720   -5.9310   24.9820 C   0  0  0  0  0  3  0  0  0  0  0  0
  -21.3580   -4.5750   25.0080 C   0  0  0  0  0  0  0  0  0  0  0  0
  -21.9260   -3.9800   23.8670 C   0  0  0  0  0  3  0  0  0  0  0  0
  -22.1010   -4.7360   22.6950 C   0  0  0  0  0  0  0  0  0  0  0  0
  -22.6240   -4.1530   21.5890 F   0  0  0  0  0  0  0  0  0  0  0  0
  -21.1820   -3.8420   26.1310 F   0  0  0  0  0  0  0  0  0  0  0  0
  -23.0360  -13.4010   21.1270 C   0  0  0  0  0  0  0  0  0  0  0  0
  -22.3040  -12.7180   22.0000 N   0  0  0  0  0  0  0  0  0  0  0  0
  -22.6080  -14.4350   20.6140 O   0  0  0  0  0  0  0  0  0  0  0  0
  -22.6560  -11.8800   22.4420 H   0  0  0  0  0  0  0  0  0  0  0  0
  -21.3720  -13.0330   22.2270 H   0  0  0  0  0  0  0  0  0  0  0  0
  -25.6910  -15.0180   20.2600 N   0  0  0  0  0  0  0  0  0  0  0  0
  -24.9640  -15.7070   20.4220 H   0  0  0  0  0  0  0  0  0  0  0  0
  -26.5840  -15.4220   20.0100 H   0  0  0  0  0  0  0  0  0  0  0  0
  -30.8360  -25.6740   21.3790 C   0  0  0  0  0  2  0  0  0  0  0  0
  -30.8920  -26.3910   20.0160 C   0  0  0  0  0  2  0  0  0  0  0  0
  -29.8840  -28.0270   18.3790 C   0  0  0  0  0  1  0  0  0  0  0  0
  -29.6870  -27.3200   19.7330 C   0  0  0  0  0  3  0  0  0  0  0  0
  -28.4400  -26.5900   19.7370 O   0  0  0  0  0  0  0  0  0  0  0  0
  -24.5450  -31.6010   23.0120 C   0  0  0  0  0  0  0  0  0  0  0  0
  -27.2570  -27.3020   19.8370 C   0  0  0  0  0  0  0  0  0  0  0  0
  -23.3340  -30.2240   21.3430 C   0  0  0  0  0  3  0  0  0  0  0  0
  -24.7950  -28.7090   19.8980 C   0  0  0  0  0  0  0  0  0  0  0  0
  -25.8440  -30.6200   21.1340 C   0  0  0  0  0  2  0  0  0  0  0  0
  -25.9400  -29.2630   20.4800 C   0  0  0  0  0  0  0  0  0  0  0  0
  -27.1610  -28.5700   20.4550 C   0  0  0  0  0  3  0  0  0  0  0  0
  -26.0860  -26.7360   19.2810 C   0  0  0  0  0  3  0  0  0  0  0  0
  -24.8570  -27.4350   19.3040 C   0  0  0  0  0  3  0  0  0  0  0  0
  -23.5430  -29.5570   19.9520 C   0  0  0  0  0  2  0  0  0  0  0  0
  -24.5910  -30.8300   21.8910 N   0  0  0  0  0  0  0  0  0  0  0  0
  -23.4690  -31.8620   23.5650 O   0  0  0  0  0  0  0  0  0  0  0  0
  -22.6880  -29.1910   22.2900 C   0  0  0  0  0  0  0  0  0  0  0  0
  -21.3580  -29.0390   22.1880 N   0  0  0  0  0  0  0  0  0  0  0  0
  -23.3790  -28.5250   23.0670 O   0  0  0  0  0  0  0  0  0  0  0  0
  -20.8640  -29.6300   21.5340 H   0  0  0  0  0  0  0  0  0  0  0  0
  -17.9690  -27.9270   22.7560 C   0  0  0  0  0  0  0  0  0  0  0  0
  -20.5400  -28.0940   22.9470 C   0  0  0  0  0  3  0  0  0  0  0  0
  -20.5760  -26.6880   22.3040 C   0  0  0  0  0  2  0  0  0  0  0  0
  -19.4310  -26.4450   21.3170 C   0  0  0  0  0  2  0  0  0  0  0  0
  -18.0780  -26.6040   22.0150 C   0  0  0  0  0  2  0  0  0  0  0  0
  -19.1250  -28.6350   23.1770 C   0  0  0  0  0  0  0  0  0  0  0  0
  -18.9700  -29.8780   23.8290 C   0  0  0  0  0  3  0  0  0  0  0  0
  -17.6880  -30.4140   24.0610 C   0  0  0  0  0  3  0  0  0  0  0  0
  -16.5460  -29.7030   23.6540 C   0  0  0  0  0  3  0  0  0  0  0  0
  -16.6870  -28.4610   23.0090 C   0  0  0  0  0  3  0  0  0  0  0  0
  -25.8360  -32.2190   23.6380 C   0  0  0  0  0  3  0  0  0  0  0  0
  -25.5230  -33.5980   24.0310 N   0  0  0  0  0  0  0  0  0  0  0  0
  -25.8500  -34.6830   23.3150 C   0  0  0  0  0  0  0  0  0  0  0  0
  -26.5200  -34.6270   22.2800 O   0  0  0  0  0  0  0  0  0  0  0  0
  -24.9310  -33.7170   24.8420 H   0  0  0  0  0  0  0  0  0  0  0  0
  -24.1320  -36.4920   23.0110 C   0  0  0  0  0  1  0  0  0  0  0  0
  -25.3530  -36.0480   23.8300 C   0  0  0  0  0  3  0  0  0  0  0  0
  -27.4650  -36.8900   24.7620 C   0  0  0  0  0  1  0  0  0  0  0  0
  -26.3910  -37.1010   23.7940 N   0  0  0  0  0  0  0  0  0  0  0  0
  -25.9810  -38.0150   23.9690 H   0  0  0  0  0  0  0  0  0  0  0  0
  -26.3870  -31.3960   24.8680 C   0  0  1  0  0  0  0  0  0  0  0  0
  -25.3190  -31.0920   25.9450 C   0  0  0  0  0  1  0  0  0  0  0  0
  -26.9810  -30.0470   24.4000 C   0  0  0  0  0  1  0  0  0  0  0  0
  -27.5400  -32.1770   25.5450 C   0  0  0  0  0  1  0  0  0  0  0  0
  1  3  1  0
  2  5  1  0
  2  1  2  0
  3  7  1  0
  3 55  1  0
  4  1  1  0
  4  9  1  0
  6  2  1  0
  8  4  1  0
 10 11  2  0
 10 12  1  0
 11 13  1  0
 12 14  2  0
 13 17  1  0
 13 15  2  0
 14 15  1  0
 14  9  1  0
 15 16  1  0
 17 18  2  0
 19 25  1  0
 19 18  1  0
 20 25  1  0
 21 22  1  0
 21 20  1  0
 23 22  1  0
 23 30  1  0
 23 24  1  0
 25 24  1  0
 26 19  2  0
 27 28  2  0
 28 47  1  0
 29 28  1  0
 29 32  1  0
 30 27  1  0
 30 31  1  0
 31 29  2  0
 32 33  1  0
 33 34  2  0
 35 38  1  0
 35 34  1  0
 36 35  2  0
 37 36  1  0
 37 32  2  0
 38 39  1  0
 39 44  2  0
 39 40  1  0
 40 41  2  0
 41 42  1  0
 42 46  1  0
 43 42  2  0
 44 43  1  0
 45 44  1  0
 47 48  1  0
 48 51  1  0
 48 50  1  0
 49 47  2  0
 52 53  1  0
 52 27  1  0
 54 52  1  0
 56 55  1  0
 58 57  1  0
 58 59  1  0
 58 56  1  0
 59 61  1  0
 60 71  2  0
 61 66  1  0
 62 70  1  0
 62 72  1  0
 63 69  1  0
 63 65  1  0
 64 70  1  0
 65 64  1  0
 66 65  2  0
 67 68  1  0
 67 61  2  0
 68 63  2  0
 69 62  1  0
 70 60  1  0
 72 74  2  0
 73 72  1  0
 75 73  1  0
 76 85  2  0
 76 81  1  0
 77 73  1  0
 77 81  1  0
 78 77  1  0
 79 80  1  0
 79 78  1  0
 80 76  1  0
 81 82  2  0
 82 83  1  0
 84 83  2  0
 85 84  1  0
 86 60  1  0
 86 87  1  0
 86 96  1  0
 87 90  1  0
 88 92  1  0
 88 87  1  0
 89 88  2  0
 92 91  1  0
 94 92  1  0
 94 95  1  0
 94 93  1  0
 96 99  1  1
 96 97  1  0
 98 96  1  0
M  ISO  4  18 100  19 100  58 101  59 101
M  END
>  <TORSDO>  (46) 
F 22

>  <SCORE>  (46) 
-12.813

>  <name>  (46) 
45

>  <ligand_id>  (46) 
45

>  <original_smiles>  (46) 
[H]C(=NC(=O)N1C([H])([H])C([H])([H])C([H])([H])C([H])(n2nc(-c3c([H])c([H])c(Oc4c([H])c([H])c(F)c([H])c4F)c([H])c3[H])c(C(=O)N([H])[H])c2N([H])[H])C1([H])[H])c1c([H])c([H])c([H])c(C([H])([H])[N+]([H])=C(N([H])[H])N([H])C([H])([H])C([H])([H])C([H])(Oc2c([H])c([H])c3c(c2[H])C([H])([H])N(C(=O)C([H])(N([H])C(=O)C([H])(N([H])C([H])([H])[H])C([H])([H])[H])C(C([H])([H])[H])(C([H])([H])[H])C([H])([H])[H])C([H])(C(=O)N([H])C2([H])c4c([H])c([H])c([H])c([H])c4C([H])([H])C([H])([H])C2([H])[H])C3([H])[H])C([H])([H])[H])c1C([H])([H])[H]

>  <smiles>  (46) 
[H]C(=NC(=O)N1C([H])([H])C([H])([H])C([H])([H])C([H])(n2nc(-c3c([H])c([H])c(Oc4c([H])c([H])c(F)c([H])c4F)c([H])c3[H])c(C(=O)N([H])[H])c2N([H])[H])C1([H])[H])c1c([H])c([H])c([H])c(C([H])([H])[N+]([H])=C(N([H])[H])N([H])C([H])([H])C([H])([H])C([H])(Oc2c([H])c([H])c3c(c2[H])C([H])([H])N(C(=O)C([H])(N([H])C(=O)C([H])(N([H])C([H])([H])[H])C([H])([H])[H])C(C([H])([H])[H])(C([H])([H])[H])C([H])([H])[H])C([H])(C(=O)N([H])C2([H])c4c([H])c([H])c([H])c([H])c4C([H])([H])C([H])([H])C2([H])[H])C3([H])[H])C([H])([H])[H])c1C([H])([H])[H]

$$$$
46:0:0
     RDKit          3D

 99108  0  0  1  0  0  0  0  0999 V2000
  -30.1890  -23.3510   19.7500 C   0  0  0  0  0  3  0  0  0  0  0  0
  -28.9460  -23.9000   19.7800 C   0  0  0  0  0  0  0  0  0  0  0  0
  -30.5540  -21.9470   20.0620 C   0  0  0  0  0  0  0  0  0  0  0  0
  -27.7950  -22.9570   20.1190 C   0  0  0  0  0  2  0  0  0  0  0  0
  -28.1480  -21.4230   19.9720 C   0  0  0  0  0  2  0  0  0  0  0  0
  -29.5560  -21.0160   20.2110 N   0  0  0  0  0  0  0  0  0  0  0  0
  -31.7400  -21.6190   20.1770 O   0  0  0  0  0  0  0  0  0  0  0  0
  -30.4850  -17.0900   21.8540 C   0  0  0  0  0  3  0  0  0  0  0  0
  -29.7640  -18.4350   19.9610 C   0  0  0  0  0  3  0  0  0  0  0  0
  -30.5470  -18.2490   22.6600 C   0  0  0  0  0  0  0  0  0  0  0  0
  -30.2250  -19.5270   22.1100 C   0  0  0  0  0  0  0  0  0  0  0  0
  -29.8480  -19.6570   20.7370 C   0  0  0  0  0  0  0  0  0  0  0  0
  -30.0950  -17.1340   20.5050 C   0  0  0  0  0  0  0  0  0  0  0  0
  -30.3000  -20.7670   23.0040 C   0  0  0  0  0  1  0  0  0  0  0  0
  -30.6600  -14.7300   19.7100 C   0  0  0  0  0  0  0  0  0  0  0  0
  -30.2920  -12.5180   18.6160 C   0  0  0  0  0  2  0  0  0  0  0  0
  -29.2310  -12.6730   17.5040 C   0  0  0  0  0  2  0  0  0  0  0  0
  -27.8060  -12.5470   18.0790 C   0  0  0  0  0  2  0  0  0  0  0  0
  -27.5920  -13.4030   19.3560 C   0  0  0  0  0  3  0  0  0  0  0  0
  -28.7520  -13.2130   20.3560 C   0  0  0  0  0  2  0  0  0  0  0  0
  -29.9950  -13.5350   19.6410 N   0  0  0  0  0  0  0  0  0  0  0  0
  -31.8370  -14.8280   19.3480 O   0  0  0  0  0  0  0  0  0  0  0  0
  -29.8660  -15.8470   19.8410 N   0  0  0  0  0  0  0  0  0  0  0  0
  -28.8890  -15.6230   19.7350 H   0  0  0  0  0  0  0  0  0  0  0  0
  -25.3060  -14.0640   20.3180 C   0  0  0  0  0  0  0  0  0  0  0  0
  -24.2530  -13.3180   20.7710 C   0  0  0  0  0  0  0  0  0  0  0  0
  -24.6630  -11.9530   20.6720 C   0  0  0  0  0  0  0  0  0  0  0  0
  -26.2910  -13.1540   19.9670 N   0  0  0  0  0  0  0  0  0  0  0  0
  -25.9160  -11.8780   20.2410 N   0  0  0  0  0  0  0  0  0  0  0  0
  -23.9150  -10.7120   20.9050 C   0  0  0  0  0  0  0  0  0  0  0  0
  -24.3950   -9.7130   21.7790 C   0  0  0  0  0  3  0  0  0  0  0  0
  -23.6470   -8.5360   22.0020 C   0  0  0  0  0  3  0  0  0  0  0  0
  -22.4050   -8.3510   21.3490 C   0  0  0  0  0  0  0  0  0  0  0  0
  -21.9410   -9.3400   20.4640 C   0  0  0  0  0  3  0  0  0  0  0  0
  -22.6890  -10.5080   20.2400 C   0  0  0  0  0  3  0  0  0  0  0  0
  -21.6220   -7.2300   21.4850 O   0  0  0  0  0  0  0  0  0  0  0  0
  -21.6410   -6.4740   22.6300 C   0  0  0  0  0  0  0  0  0  0  0  0
  -21.3580   -7.0320   23.8960 C   0  0  0  0  0  3  0  0  0  0  0  0
  -21.3190   -6.2050   25.0360 C   0  0  0  0  0  3  0  0  0  0  0  0
  -21.5520   -4.8220   24.9130 C   0  0  0  0  0  0  0  0  0  0  0  0
  -21.8280   -4.2640   23.6520 C   0  0  0  0  0  3  0  0  0  0  0  0
  -21.8690   -5.0880   22.5140 C   0  0  0  0  0  0  0  0  0  0  0  0
  -22.1150   -4.5410   21.2980 F   0  0  0  0  0  0  0  0  0  0  0  0
  -21.5070   -4.0280   26.0080 F   0  0  0  0  0  0  0  0  0  0  0  0
  -22.9040  -13.8360   21.1820 C   0  0  0  0  0  0  0  0  0  0  0  0
  -22.2460  -13.1590   22.1160 N   0  0  0  0  0  0  0  0  0  0  0  0
  -22.4490  -14.8770   20.7110 O   0  0  0  0  0  0  0  0  0  0  0  0
  -22.6280  -12.3140   22.5160 H   0  0  0  0  0  0  0  0  0  0  0  0
  -21.3470  -13.4910   22.4370 H   0  0  0  0  0  0  0  0  0  0  0  0
  -25.4970  -15.4330   20.1540 N   0  0  0  0  0  0  0  0  0  0  0  0
  -24.7630  -16.1020   20.3600 H   0  0  0  0  0  0  0  0  0  0  0  0
  -26.3190  -15.8640   19.7530 H   0  0  0  0  0  0  0  0  0  0  0  0
  -30.9310  -18.0720   24.1360 C   0  0  1  0  0  0  0  0  0  0  0  0
  -31.3860  -16.8440   24.3920 F   0  0  0  0  0  0  0  0  0  0  0  0
  -31.8930  -18.9260   24.4870 F   0  0  0  0  0  0  0  0  0  0  0  0
  -29.8710  -18.2680   24.9200 F   0  0  0  0  0  0  0  0  0  0  0  0
  -28.1230  -25.4400   17.8460 C   0  0  0  0  0  1  0  0  0  0  0  0
  -28.6710  -25.3890   19.2820 C   0  0  0  0  0  3  0  0  0  0  0  0
  -28.2850  -26.4960   20.2030 O   0  0  0  0  0  0  0  0  0  0  0  0
  -24.5410  -31.8620   23.2500 C   0  0  0  0  0  0  0  0  0  0  0  0
  -27.1400  -27.3170   20.1240 C   0  0  0  0  0  0  0  0  0  0  0  0
  -23.3320  -30.4890   21.5920 C   0  0  0  0  0  3  0  0  0  0  0  0
  -24.7760  -28.9460   20.1420 C   0  0  0  0  0  0  0  0  0  0  0  0
  -25.8710  -30.7950   21.4120 C   0  0  0  0  0  2  0  0  0  0  0  0
  -25.9440  -29.4220   20.7480 C   0  0  0  0  0  0  0  0  0  0  0  0
  -27.1210  -28.6150   20.7310 C   0  0  0  0  0  3  0  0  0  0  0  0
  -25.9350  -26.8850   19.5290 C   0  0  0  0  0  3  0  0  0  0  0  0
  -24.7740  -27.6870   19.5230 C   0  0  0  0  0  3  0  0  0  0  0  0
  -23.5450  -29.8300   20.2040 C   0  0  0  0  0  2  0  0  0  0  0  0
  -24.6000  -31.0660   22.1410 N   0  0  0  0  0  0  0  0  0  0  0  0
  -23.4590  -32.1420   23.7880 O   0  0  0  0  0  0  0  0  0  0  0  0
  -22.6660  -29.4640   22.5420 C   0  0  0  0  0  0  0  0  0  0  0  0
  -21.3400  -29.2940   22.4100 N   0  0  0  0  0  0  0  0  0  0  0  0
  -23.3420  -28.8290   23.3570 O   0  0  0  0  0  0  0  0  0  0  0  0
  -20.8580  -29.8590   21.7260 H   0  0  0  0  0  0  0  0  0  0  0  0
  -17.9620  -28.0750   22.8620 C   0  0  0  0  0  0  0  0  0  0  0  0
  -20.5150  -28.3510   23.1660 C   0  0  0  0  0  3  0  0  0  0  0  0
  -20.6330  -26.9210   22.5920 C   0  0  0  0  0  2  0  0  0  0  0  0
  -19.5470  -26.5910   21.5640 C   0  0  0  0  0  2  0  0  0  0  0  0
  -18.1550  -26.7270   22.1890 C   0  0  0  0  0  2  0  0  0  0  0  0
  -19.0710  -28.8440   23.3090 C   0  0  0  0  0  0  0  0  0  0  0  0
  -18.8370  -30.1040   23.9000 C   0  0  0  0  0  3  0  0  0  0  0  0
  -17.5270  -30.5980   24.0490 C   0  0  0  0  0  3  0  0  0  0  0  0
  -16.4320  -29.8270   23.6170 C   0  0  0  0  0  3  0  0  0  0  0  0
  -16.6510  -28.5690   23.0290 C   0  0  0  0  0  3  0  0  0  0  0  0
  -25.8260  -32.4810   23.8820 C   0  0  0  0  0  3  0  0  0  0  0  0
  -26.3400  -31.6890   25.1460 C   0  0  1  0  0  0  0  0  0  0  0  0
  -25.2460  -31.4430   26.2110 C   0  0  0  0  0  1  0  0  0  0  0  0
  -26.9160  -30.3150   24.7300 C   0  0  0  0  0  1  0  0  0  0  0  0
  -27.4960  -32.4700   25.8170 C   0  0  0  0  0  1  0  0  0  0  0  0
  -25.5220  -33.8740   24.2340 N   0  0  0  0  0  0  0  0  0  0  0  0
  -25.8520  -34.9390   23.4900 C   0  0  0  0  0  0  0  0  0  0  0  0
  -26.5110  -34.8510   22.4530 O   0  0  0  0  0  0  0  0  0  0  0  0
  -24.9330  -34.0210   25.0400 H   0  0  0  0  0  0  0  0  0  0  0  0
  -24.1180  -36.7380   23.1900 C   0  0  0  0  0  1  0  0  0  0  0  0
  -25.3710  -36.3190   23.9770 C   0  0  0  0  0  3  0  0  0  0  0  0
  -27.5180  -37.1910   24.7880 C   0  0  0  0  0  1  0  0  0  0  0  0
  -26.4000  -37.3760   23.8660 N   0  0  0  0  0  0  0  0  0  0  0  0
  -25.9960  -38.2910   24.0420 H   0  0  0  0  0  0  0  0  0  0  0  0
  1  2  2  0
  1  3  1  0
  2  4  1  0
  3  7  2  0
  3  6  1  0
  5  4  1  0
  5  6  1  0
  6 12  1  0
  8 10  1  0
  9 13  1  0
  9 12  2  0
 10 53  1  0
 11 10  2  0
 11 14  1  0
 12 11  1  0
 13  8  2  0
 15 23  1  0
 16 21  1  0
 17 18  1  0
 17 16  1  0
 19 18  1  0
 19 28  1  0
 19 20  1  0
 21 15  1  0
 21 20  1  0
 22 15  2  0
 23 13  1  0
 24 23  1  0
 25 26  2  0
 26 45  1  0
 27 26  1  0
 27 30  1  0
 28 29  1  0
 28 25  1  0
 29 27  2  0
 30 31  1  0
 31 32  2  0
 33 36  1  0
 33 32  1  0
 34 33  2  0
 35 34  1  0
 35 30  2  0
 36 37  1  0
 37 38  1  0
 38 39  2  0
 40 39  1  0
 40 44  1  0
 41 40  2  0
 42 37  2  0
 42 41  1  0
 43 42  1  0
 45 46  1  0
 46 49  1  0
 46 48  1  0
 47 45  2  0
 50 25  1  0
 50 51  1  0
 52 50  1  0
 53 54  1  6
 53 55  1  0
 53 56  1  0
 58 57  1  0
 58  2  1  0
 58 59  1  0
 60 71  2  0
 61 59  1  0
 61 66  1  0
 62 70  1  0
 62 72  1  0
 63 69  1  0
 63 65  1  0
 64 70  1  0
 65 64  1  0
 66 65  2  0
 67 61  2  0
 68 67  1  0
 68 63  2  0
 69 62  1  0
 70 60  1  0
 72 74  2  0
 73 72  1  0
 75 73  1  0
 76 85  2  0
 76 81  1  0
 77 73  1  0
 77 81  1  0
 78 77  1  0
 79 80  1  0
 79 78  1  0
 80 76  1  0
 81 82  2  0
 82 83  1  0
 84 83  2  0
 85 84  1  0
 86 60  1  0
 86 91  1  0
 86 87  1  0
 87 90  1  1
 87 88  1  0
 89 87  1  0
 91 94  1  0
 92 96  1  0
 92 91  1  0
 93 92  2  0
 96 95  1  0
 98 96  1  0
 98 99  1  0
 98 97  1  0
M  ISO  4  15 100  23 100  58 101  59 101
M  END
>  <TORSDO>  (47) 
F 19

>  <SCORE>  (47) 
-10.113

>  <name>  (47) 
46

>  <ligand_id>  (47) 
46

>  <original_smiles>  (47) 
[H]C1=C(C([H])(Oc2c([H])c([H])c3c(c2[H])C([H])([H])N(C(=O)C([H])(N([H])C(=O)C([H])(N([H])C([H])([H])[H])C([H])([H])[H])C(C([H])([H])[H])(C([H])([H])[H])C([H])([H])[H])C([H])(C(=O)N([H])C2([H])c4c([H])c([H])c([H])c([H])c4C([H])([H])C([H])([H])C2([H])[H])C3([H])[H])C([H])([H])[H])C([H])([H])C([H])([H])N(c2c([H])c(N([H])C(=O)N3C([H])([H])C([H])([H])C([H])([H])C([H])(n4nc(-c5c([H])c([H])c(Oc6c([H])c([H])c(F)c([H])c6F)c([H])c5[H])c(C(=O)N([H])[H])c4N([H])[H])C3([H])[H])c([H])c(C(F)(F)F)c2C([H])([H])[H])C1=O

>  <smiles>  (47) 
[H]C1=C(C([H])(Oc2c([H])c([H])c3c(c2[H])C([H])([H])N(C(=O)C([H])(N([H])C(=O)C([H])(N([H])C([H])([H])[H])C([H])([H])[H])C(C([H])([H])[H])(C([H])([H])[H])C([H])([H])[H])C([H])(C(=O)N([H])C2([H])c4c([H])c([H])c([H])c([H])c4C([H])([H])C([H])([H])C2([H])[H])C3([H])[H])C([H])([H])[H])C([H])([H])C([H])([H])N(c2c([H])c(N([H])C(=O)N3C([H])([H])C([H])([H])C([H])([H])C([H])(n4nc(-c5c([H])c([H])c(Oc6c([H])c([H])c(F)c([H])c6F)c([H])c5[H])c(C(=O)N([H])[H])c4N([H])[H])C3([H])[H])c([H])c(C(F)(F)F)c2C([H])([H])[H])C1=O

$$$$
47:0:0
     RDKit          3D

 99107  0  0  1  0  0  0  0  0999 V2000
  -30.8540  -26.6970   13.9960 C   0  0  0  0  0  3  0  0  0  0  0  0
  -29.4110  -24.7600   13.6800 C   0  0  0  0  0  3  0  0  0  0  0  0
  -31.9950  -25.8770   14.0230 C   0  0  0  0  0  0  0  0  0  0  0  0
  -30.5070  -23.8790   13.8080 C   0  0  0  0  0  0  0  0  0  0  0  0
  -31.8220  -24.4550   13.9290 C   0  0  0  0  0  0  0  0  0  0  0  0
  -29.5700  -26.1630   13.7570 C   0  0  0  0  0  0  0  0  0  0  0  0
  -33.0650  -23.5780   13.9720 C   0  0  0  0  0  1  0  0  0  0  0  0
  -27.7400  -27.5570   12.6840 C   0  0  0  0  0  0  0  0  0  0  0  0
  -28.3950  -26.9670   13.7060 N   0  0  0  0  0  0  0  0  0  0  0  0
  -26.5850  -27.9480   12.8670 O   0  0  0  0  0  0  0  0  0  0  0  0
  -27.8370  -26.9340   14.5470 H   0  0  0  0  0  0  0  0  0  0  0  0
  -27.7380  -28.1060   10.3130 C   0  0  0  0  0  2  0  0  0  0  0  0
  -28.4120  -27.6740   11.3930 C   0  0  0  0  0  3  0  0  0  0  0  0
  -33.3730  -26.5930   14.0310 C   0  0  0  0  0  2  0  0  0  0  0  0
  -34.3820  -26.5800   16.3550 C   0  0  0  0  0  0  0  0  0  0  0  0
  -33.8890  -27.2310   15.2710 N   0  0  0  0  0  0  0  0  0  0  0  0
  -35.0090  -25.5280   16.2330 O   0  0  0  0  0  0  0  0  0  0  0  0
  -33.4850  -28.1380   15.4660 H   0  0  0  0  0  0  0  0  0  0  0  0
  -34.0210  -27.1200   17.7780 C   0  0  0  0  0  2  0  0  0  0  0  0
  -34.7140  -28.3240   18.1960 O   0  0  0  0  0  0  0  0  0  0  0  0
  -36.5350  -35.1870   17.4060 C   0  0  0  0  0  0  0  0  0  0  0  0
  -34.2590  -29.5990   17.8760 C   0  0  0  0  0  0  0  0  0  0  0  0
  -34.1110  -34.7230   17.5220 C   0  0  0  0  0  3  0  0  0  0  0  0
  -33.4310  -32.2640   17.3100 C   0  0  0  0  0  0  0  0  0  0  0  0
  -35.7300  -32.9580   16.6170 C   0  0  0  0  0  2  0  0  0  0  0  0
  -34.7690  -31.8950   17.1210 C   0  0  0  0  0  0  0  0  0  0  0  0
  -35.1830  -30.5680   17.4040 C   0  0  0  0  0  3  0  0  0  0  0  0
  -32.9130  -29.9960   18.0430 C   0  0  0  0  0  3  0  0  0  0  0  0
  -32.5010  -31.3160   17.7680 C   0  0  0  0  0  3  0  0  0  0  0  0
  -33.0600  -33.7020   17.0070 C   0  0  0  0  0  2  0  0  0  0  0  0
  -35.5150  -34.3030   17.2080 N   0  0  0  0  0  0  0  0  0  0  0  0
  -36.3190  -36.3390   17.8090 O   0  0  0  0  0  0  0  0  0  0  0  0
  -33.8680  -34.9710   19.0280 C   0  0  0  0  0  0  0  0  0  0  0  0
  -33.1250  -36.0420   19.3480 N   0  0  0  0  0  0  0  0  0  0  0  0
  -34.3230  -34.1960   19.8750 O   0  0  0  0  0  0  0  0  0  0  0  0
  -32.7910  -36.6270   18.5930 H   0  0  0  0  0  0  0  0  0  0  0  0
  -31.4790  -38.6370   21.2510 C   0  0  0  0  0  0  0  0  0  0  0  0
  -32.7400  -36.4480   20.7000 C   0  0  0  0  0  3  0  0  0  0  0  0
  -31.4550  -35.7170   21.1570 C   0  0  0  0  0  2  0  0  0  0  0  0
  -30.1740  -36.5070   20.8650 C   0  0  0  0  0  2  0  0  0  0  0  0
  -30.2070  -37.8680   21.5630 C   0  0  0  0  0  2  0  0  0  0  0  0
  -32.6610  -37.9730   20.8290 C   0  0  0  0  0  0  0  0  0  0  0  0
  -33.8050  -38.7420   20.5220 C   0  0  0  0  0  3  0  0  0  0  0  0
  -33.7820  -40.1450   20.6270 C   0  0  0  0  0  3  0  0  0  0  0  0
  -32.6130  -40.7960   21.0560 C   0  0  0  0  0  3  0  0  0  0  0  0
  -31.4690  -40.0430   21.3750 C   0  0  0  0  0  3  0  0  0  0  0  0
  -38.0200  -34.8010   17.1150 C   0  0  0  0  0  3  0  0  0  0  0  0
  -38.6370  -35.9220   16.3960 N   0  0  0  0  0  0  0  0  0  0  0  0
  -39.4700  -35.7910   15.3540 C   0  0  0  0  0  0  0  0  0  0  0  0
  -39.8530  -34.6950   14.9380 O   0  0  0  0  0  0  0  0  0  0  0  0
  -38.3240  -36.8490   16.6480 H   0  0  0  0  0  0  0  0  0  0  0  0
  -39.9480  -36.8780   13.1360 C   0  0  0  0  0  1  0  0  0  0  0  0
  -39.9510  -37.0800   14.6610 C   0  0  0  0  0  3  0  0  0  0  0  0
  -41.2630  -38.2850   16.3500 C   0  0  0  0  0  1  0  0  0  0  0  0
  -41.2900  -37.5220   15.1050 N   0  0  0  0  0  0  0  0  0  0  0  0
  -41.7360  -38.0960   14.3940 H   0  0  0  0  0  0  0  0  0  0  0  0
  -38.8370  -34.4590   18.4220 C   0  0  1  0  0  0  0  0  0  0  0  0
  -39.6130  -35.6640   19.0060 C   0  0  0  0  0  1  0  0  0  0  0  0
  -37.8980  -33.9230   19.5270 C   0  0  0  0  0  1  0  0  0  0  0  0
  -39.8530  -33.3320   18.1210 C   0  0  0  0  0  1  0  0  0  0  0  0
  -30.1840  -22.3630   13.9570 C   0  0  0  0  0  2  0  0  0  0  0  0
  -30.0570  -21.5350   11.5860 C   0  0  0  0  0  0  0  0  0  0  0  0
  -29.5300  -20.1540    9.6160 C   0  0  0  0  0  2  0  0  0  0  0  0
  -28.8080  -18.8820   10.0980 C   0  0  0  0  0  2  0  0  0  0  0  0
  -29.8300  -17.7840   10.4640 C   0  0  0  0  0  2  0  0  0  0  0  0
  -30.9670  -18.3030   11.3860 C   0  0  0  0  0  3  0  0  0  0  0  0
  -31.5470  -19.6320   10.8590 C   0  0  0  0  0  2  0  0  0  0  0  0
  -30.4320  -20.5730   10.7000 N   0  0  0  0  0  0  0  0  0  0  0  0
  -29.2050  -22.3820   11.3040 O   0  0  0  0  0  0  0  0  0  0  0  0
  -30.5180  -21.4200   12.8590 N   0  0  0  0  0  0  0  0  0  0  0  0
  -31.1490  -20.6640   13.0670 H   0  0  0  0  0  0  0  0  0  0  0  0
  -32.2600  -16.5070   12.6940 C   0  0  0  0  0  0  0  0  0  0  0  0
  -33.2890  -15.6780   12.3380 C   0  0  0  0  0  0  0  0  0  0  0  0
  -33.6240  -16.0200   10.9930 C   0  0  0  0  0  0  0  0  0  0  0  0
  -32.0070  -17.2980   11.5820 N   0  0  0  0  0  0  0  0  0  0  0  0
  -32.8780  -17.0350   10.5740 N   0  0  0  0  0  0  0  0  0  0  0  0
  -34.5740  -15.3990   10.0600 C   0  0  0  0  0  0  0  0  0  0  0  0
  -35.8450  -15.9620    9.8240 C   0  0  0  0  0  3  0  0  0  0  0  0
  -36.7470  -15.3380    8.9340 C   0  0  0  0  0  3  0  0  0  0  0  0
  -36.3840  -14.1410    8.2750 C   0  0  0  0  0  0  0  0  0  0  0  0
  -35.1050  -13.6000    8.4970 C   0  0  0  0  0  3  0  0  0  0  0  0
  -34.2050  -14.2220    9.3780 C   0  0  0  0  0  3  0  0  0  0  0  0
  -37.1850  -13.4810    7.3740 O   0  0  0  0  0  0  0  0  0  0  0  0
  -38.1070  -12.5470    7.7770 C   0  0  0  0  0  0  0  0  0  0  0  0
  -37.7810  -11.1780    7.8880 C   0  0  0  0  0  3  0  0  0  0  0  0
  -38.7760  -10.2430    8.2370 C   0  0  0  0  0  3  0  0  0  0  0  0
  -40.0970  -10.6710    8.4650 C   0  0  0  0  0  0  0  0  0  0  0  0
  -40.4260  -12.0330    8.3490 C   0  0  0  0  0  3  0  0  0  0  0  0
  -39.4340  -12.9670    8.0030 C   0  0  0  0  0  0  0  0  0  0  0  0
  -39.7610  -14.2750    7.8700 F   0  0  0  0  0  0  0  0  0  0  0  0
  -41.0560   -9.7720    8.7940 F   0  0  0  0  0  0  0  0  0  0  0  0
  -33.8670  -14.5680   13.1670 C   0  0  0  0  0  0  0  0  0  0  0  0
  -35.1780  -14.5800   13.3780 N   0  0  0  0  0  0  0  0  0  0  0  0
  -33.1500  -13.7060   13.6710 O   0  0  0  0  0  0  0  0  0  0  0  0
  -35.7650  -15.2990   12.9830 H   0  0  0  0  0  0  0  0  0  0  0  0
  -35.5990  -13.8640   13.9500 H   0  0  0  0  0  0  0  0  0  0  0  0
  -31.5070  -16.6410   13.8550 N   0  0  0  0  0  0  0  0  0  0  0  0
  -31.6650  -16.0530   14.6660 H   0  0  0  0  0  0  0  0  0  0  0  0
  -30.7440  -17.2950   13.9790 H   0  0  0  0  0  0  0  0  0  0  0  0
  1  3  1  0
  2  6  1  0
  2  4  2  0
  3 14  1  0
  4  5  1  0
  4 61  1  0
  5  7  1  0
  5  3  2  0
  6  1  2  0
  8 10  2  0
  8  9  1  0
  9  6  1  0
  9 11  1  0
 12 13  2  0
 13  8  1  0
 14 16  1  0
 15 19  1  0
 16 18  1  0
 16 15  1  0
 17 15  2  0
 19 20  1  0
 21 32  2  0
 22 28  1  0
 22 20  1  0
 23 33  1  0
 24 29  1  0
 25 26  1  0
 25 31  1  0
 26 24  2  0
 26 27  1  0
 27 22  2  0
 29 28  2  0
 30 24  1  0
 30 23  1  0
 31 21  1  0
 31 23  1  0
 33 34  1  0
 33 35  2  0
 36 34  1  0
 37 46  1  0
 37 41  1  0
 38 34  1  0
 38 42  1  0
 38 39  1  0
 40 39  1  0
 40 41  1  0
 42 37  2  0
 43 44  2  0
 43 42  1  0
 44 45  1  0
 45 46  2  0
 47 21  1  0
 47 57  1  0
 48 51  1  0
 48 47  1  0
 49 48  1  0
 50 49  2  0
 53 52  1  0
 53 55  1  0
 53 49  1  0
 55 54  1  0
 56 55  1  0
 57 58  1  1
 57 59  1  0
 60 57  1  0
 62 70  1  0
 63 64  1  0
 63 68  1  0
 64 65  1  0
 66 65  1  0
 66 75  1  0
 67 66  1  0
 68 67  1  0
 68 62  1  0
 69 62  2  0
 70 71  1  0
 70 61  1  0
 72 97  1  0
 73 72  2  0
 73 92  1  0
 74 73  1  0
 75 72  1  0
 76 74  2  0
 76 75  1  0
 77 74  1  0
 78 77  1  0
 79 78  2  0
 80 81  2  0
 80 79  1  0
 81 82  1  0
 82 77  2  0
 83 84  1  0
 83 80  1  0
 84 85  2  0
 84 89  1  0
 85 86  1  0
 86 87  2  0
 87 91  1  0
 88 87  1  0
 89 88  2  0
 90 89  1  0
 92 93  1  0
 92 94  2  0
 93 96  1  0
 95 93  1  0
 97 99  1  0
 97 98  1  0
M  ISO  4  19 101  20 101  62 100  70 100
M  END
>  <TORSDO>  (48) 
F 22

>  <SCORE>  (48) 
-3.544

>  <name>  (48) 
47

>  <ligand_id>  (48) 
47

>  <original_smiles>  (48) 
[H]C([H])=C([H])C(=O)N([H])c1c([H])c(C([H])([H])N([H])C(=O)N2C([H])([H])C([H])([H])C([H])([H])C([H])(n3nc(-c4c([H])c([H])c(Oc5c([H])c([H])c(F)c([H])c5F)c([H])c4[H])c(C(=O)N([H])[H])c3N([H])[H])C2([H])[H])c(C([H])([H])[H])c(C([H])([H])N([H])C(=O)C([H])([H])Oc2c([H])c([H])c3c(c2[H])C([H])([H])N(C(=O)C([H])(N([H])C(=O)C([H])(N([H])C([H])([H])[H])C([H])([H])[H])C(C([H])([H])[H])(C([H])([H])[H])C([H])([H])[H])C([H])(C(=O)N([H])C2([H])c4c([H])c([H])c([H])c([H])c4C([H])([H])C([H])([H])C2([H])[H])C3([H])[H])c1[H]

>  <smiles>  (48) 
[H]C([H])=C([H])C(=O)N([H])c1c([H])c(C([H])([H])N([H])C(=O)N2C([H])([H])C([H])([H])C([H])([H])C([H])(n3nc(-c4c([H])c([H])c(Oc5c([H])c([H])c(F)c([H])c5F)c([H])c4[H])c(C(=O)N([H])[H])c3N([H])[H])C2([H])[H])c(C([H])([H])[H])c(C([H])([H])N([H])C(=O)C([H])([H])Oc2c([H])c([H])c3c(c2[H])C([H])([H])N(C(=O)C([H])(N([H])C(=O)C([H])(N([H])C([H])([H])[H])C([H])([H])[H])C(C([H])([H])[H])(C([H])([H])[H])C([H])([H])[H])C([H])(C(=O)N([H])C2([H])c4c([H])c([H])c([H])c([H])c4C([H])([H])C([H])([H])C2([H])[H])C3([H])[H])c1[H]

$$$$
48:0:0
     RDKit          3D

 93101  0  0  1  0  0  0  0  0999 V2000
  -27.5470  -22.2220   18.5900 C   0  0  0  0  0  0  0  0  0  0  0  0
  -27.3140  -19.8940   17.8850 C   0  0  0  0  0  1  0  0  0  0  0  0
  -27.6460  -20.9010   18.9040 N   0  0  0  0  0  0  0  0  0  0  0  0
  -27.3270  -22.5960   17.4320 O   0  0  0  0  0  0  0  0  0  0  0  0
  -27.6430  -23.1590   19.7050 C   0  0  0  0  0  3  0  0  0  0  0  0
  -28.2280  -24.3660   19.5400 C   0  0  0  0  0  3  0  0  0  0  0  0
  -28.3820  -25.4170   20.6300 C   0  0  0  0  0  2  0  0  0  0  0  0
  -28.4150  -26.7640   20.1420 O   0  0  0  0  0  0  0  0  0  0  0  0
  -24.5650  -31.8970   23.2410 C   0  0  0  0  0  0  0  0  0  0  0  0
  -27.2310  -27.4660   20.1690 C   0  0  0  0  0  0  0  0  0  0  0  0
  -23.3690  -30.4910   21.5930 C   0  0  0  0  0  3  0  0  0  0  0  0
  -24.8300  -28.9550   20.1780 C   0  0  0  0  0  0  0  0  0  0  0  0
  -25.8930  -30.8590   21.4030 C   0  0  0  0  0  2  0  0  0  0  0  0
  -25.9850  -29.4870   20.7660 C   0  0  0  0  0  0  0  0  0  0  0  0
  -27.1900  -28.7500   20.7540 C   0  0  0  0  0  3  0  0  0  0  0  0
  -26.0610  -26.9420   19.5790 C   0  0  0  0  0  3  0  0  0  0  0  0
  -24.8640  -27.6820   19.5800 C   0  0  0  0  0  3  0  0  0  0  0  0
  -23.5850  -29.8110   20.2150 C   0  0  0  0  0  2  0  0  0  0  0  0
  -24.6270  -31.0970   22.1390 N   0  0  0  0  0  0  0  0  0  0  0  0
  -23.4820  -32.1660   23.7780 O   0  0  0  0  0  0  0  0  0  0  0  0
  -22.7170  -29.4690   22.5530 C   0  0  0  0  0  0  0  0  0  0  0  0
  -21.3930  -29.2850   22.4220 N   0  0  0  0  0  0  0  0  0  0  0  0
  -23.4000  -28.8420   23.3680 O   0  0  0  0  0  0  0  0  0  0  0  0
  -20.9050  -29.8370   21.7310 H   0  0  0  0  0  0  0  0  0  0  0  0
  -18.0180  -28.0950   22.9160 C   0  0  0  0  0  0  0  0  0  0  0  0
  -20.5760  -28.3470   23.1900 C   0  0  0  0  0  3  0  0  0  0  0  0
  -20.6790  -26.9190   22.6070 C   0  0  0  0  0  2  0  0  0  0  0  0
  -19.5760  -26.6030   21.5910 C   0  0  0  0  0  2  0  0  0  0  0  0
  -18.1930  -26.7490   22.2340 C   0  0  0  0  0  2  0  0  0  0  0  0
  -19.1400  -28.8520   23.3500 C   0  0  0  0  0  0  0  0  0  0  0  0
  -18.9250  -30.1130   23.9490 C   0  0  0  0  0  3  0  0  0  0  0  0
  -17.6230  -30.6180   24.1140 C   0  0  0  0  0  3  0  0  0  0  0  0
  -16.5160  -29.8600   23.6980 C   0  0  0  0  0  3  0  0  0  0  0  0
  -16.7140  -28.6000   23.1050 C   0  0  0  0  0  3  0  0  0  0  0  0
  -25.8490  -32.5320   23.8630 C   0  0  0  0  0  3  0  0  0  0  0  0
  -26.3590  -31.7660   25.1450 C   0  0  1  0  0  0  0  0  0  0  0  0
  -25.2620  -31.5360   26.2100 C   0  0  0  0  0  1  0  0  0  0  0  0
  -26.9430  -30.3860   24.7610 C   0  0  0  0  0  1  0  0  0  0  0  0
  -27.5050  -32.5650   25.8110 C   0  0  0  0  0  1  0  0  0  0  0  0
  -25.5390  -33.9320   24.1830 N   0  0  0  0  0  0  0  0  0  0  0  0
  -25.8830  -34.9780   23.4190 C   0  0  0  0  0  0  0  0  0  0  0  0
  -26.5640  -34.8660   22.3960 O   0  0  0  0  0  0  0  0  0  0  0  0
  -24.9410  -34.0920   24.9780 H   0  0  0  0  0  0  0  0  0  0  0  0
  -24.1690  -36.7730   23.0180 C   0  0  0  0  0  1  0  0  0  0  0  0
  -25.3910  -36.3680   23.8590 C   0  0  0  0  0  3  0  0  0  0  0  0
  -27.5100  -37.2480   24.7360 C   0  0  0  0  0  1  0  0  0  0  0  0
  -26.4300  -37.4180   23.7640 N   0  0  0  0  0  0  0  0  0  0  0  0
  -26.0250  -38.3390   23.8990 H   0  0  0  0  0  0  0  0  0  0  0  0
  -28.2160  -20.3310   20.1470 C   0  0  0  0  0  2  0  0  0  0  0  0
  -31.4040  -18.6710   18.8020 C   0  0  0  0  0  3  0  0  0  0  0  0
  -30.4330  -19.6380   19.1180 C   0  0  0  0  0  3  0  0  0  0  0  0
  -31.2770  -17.3550   19.2840 C   0  0  0  0  0  3  0  0  0  0  0  0
  -29.2070  -17.9650   20.4080 C   0  0  0  0  0  3  0  0  0  0  0  0
  -29.3130  -19.2860   19.8980 C   0  0  0  0  0  0  0  0  0  0  0  0
  -30.1840  -16.9780   20.1140 C   0  0  0  0  0  0  0  0  0  0  0  0
  -30.7160  -14.5320   20.3800 C   0  0  0  0  0  0  0  0  0  0  0  0
  -30.3900  -12.3650   19.2930 C   0  0  0  0  0  2  0  0  0  0  0  0
  -29.4590  -12.5750   18.0790 C   0  0  0  0  0  2  0  0  0  0  0  0
  -27.9820  -12.4620   18.5040 C   0  0  0  0  0  2  0  0  0  0  0  0
  -27.6430  -13.3010   19.7660 C   0  0  0  0  0  3  0  0  0  0  0  0
  -28.6970  -13.0950   20.8790 C   0  0  0  0  0  2  0  0  0  0  0  0
  -30.0250  -13.3650   20.3060 N   0  0  0  0  0  0  0  0  0  0  0  0
  -31.9070  -14.6050   20.0690 O   0  0  0  0  0  0  0  0  0  0  0  0
  -29.9750  -15.6380   20.6080 N   0  0  0  0  0  0  0  0  0  0  0  0
  -29.0570  -15.4510   20.9870 H   0  0  0  0  0  0  0  0  0  0  0  0
  -25.2400  -13.9040   20.4710 C   0  0  0  0  0  0  0  0  0  0  0  0
  -24.1710  -13.1320   20.8370 C   0  0  0  0  0  0  0  0  0  0  0  0
  -24.6350  -11.7810   20.8160 C   0  0  0  0  0  0  0  0  0  0  0  0
  -26.2880  -13.0270   20.2440 N   0  0  0  0  0  0  0  0  0  0  0  0
  -25.9280  -11.7450   20.5180 N   0  0  0  0  0  0  0  0  0  0  0  0
  -23.9090  -10.5180   21.0080 C   0  0  0  0  0  0  0  0  0  0  0  0
  -24.3340   -9.5590   21.9550 C   0  0  0  0  0  3  0  0  0  0  0  0
  -23.6100   -8.3610   22.1350 C   0  0  0  0  0  3  0  0  0  0  0  0
  -22.4470   -8.1090   21.3670 C   0  0  0  0  0  0  0  0  0  0  0  0
  -22.0430   -9.0560   20.4080 C   0  0  0  0  0  3  0  0  0  0  0  0
  -22.7690  -10.2450   20.2260 C   0  0  0  0  0  3  0  0  0  0  0  0
  -21.6980   -6.9610   21.4530 O   0  0  0  0  0  0  0  0  0  0  0  0
  -21.6280   -6.2330   22.6130 C   0  0  0  0  0  0  0  0  0  0  0  0
  -21.1640   -6.7960   23.8220 C   0  0  0  0  0  3  0  0  0  0  0  0
  -21.0450   -5.9920   24.9730 C   0  0  0  0  0  3  0  0  0  0  0  0
  -21.3810   -4.6270   24.9160 C   0  0  0  0  0  0  0  0  0  0  0  0
  -21.8430   -4.0640   23.7140 C   0  0  0  0  0  3  0  0  0  0  0  0
  -21.9640   -4.8660   22.5660 C   0  0  0  0  0  0  0  0  0  0  0  0
  -22.3880   -4.3150   21.4020 F   0  0  0  0  0  0  0  0  0  0  0  0
  -21.2610   -3.8530   26.0220 F   0  0  0  0  0  0  0  0  0  0  0  0
  -22.7700  -13.6080   21.0950 C   0  0  0  0  0  0  0  0  0  0  0  0
  -22.0350  -12.9150   21.9570 N   0  0  0  0  0  0  0  0  0  0  0  0
  -22.3350  -14.6300   20.5680 O   0  0  0  0  0  0  0  0  0  0  0  0
  -22.4040  -12.0970   22.4180 H   0  0  0  0  0  0  0  0  0  0  0  0
  -21.0930  -13.2110   22.1660 H   0  0  0  0  0  0  0  0  0  0  0  0
  -25.4010  -15.2720   20.2850 N   0  0  0  0  0  0  0  0  0  0  0  0
  -24.6330  -15.9250   20.3960 H   0  0  0  0  0  0  0  0  0  0  0  0
  -26.2360  -15.6960   19.9040 H   0  0  0  0  0  0  0  0  0  0  0  0
  1  3  1  0
  1  5  1  0
  2  3  1  0
  3 49  1  0
  4  1  2  0
  6  5  2  0
  6  7  1  0
  8 10  1  0
  8  7  1  0
  9 20  2  0
 10 15  1  0
 11 19  1  0
 11 21  1  0
 12 18  1  0
 12 14  1  0
 13 19  1  0
 14 13  1  0
 15 14  2  0
 16 17  1  0
 16 10  2  0
 17 12  2  0
 18 11  1  0
 19  9  1  0
 21 23  2  0
 22 21  1  0
 24 22  1  0
 25 34  2  0
 25 30  1  0
 26 22  1  0
 26 30  1  0
 27 26  1  0
 28 29  1  0
 28 27  1  0
 29 25  1  0
 30 31  2  0
 31 32  1  0
 33 32  2  0
 34 33  1  0
 35  9  1  0
 35 40  1  0
 35 36  1  0
 36 39  1  1
 36 37  1  0
 38 36  1  0
 40 43  1  0
 41 45  1  0
 41 40  1  0
 42 41  2  0
 45 44  1  0
 47 45  1  0
 47 48  1  0
 47 46  1  0
 50 51  2  0
 50 52  1  0
 51 54  1  0
 52 55  2  0
 54 49  1  0
 54 53  2  0
 55 53  1  0
 55 64  1  0
 56 64  1  0
 57 62  1  0
 58 59  1  0
 58 57  1  0
 60 59  1  0
 60 69  1  0
 60 61  1  0
 62 56  1  0
 62 61  1  0
 63 56  2  0
 64 65  1  0
 66 67  2  0
 67 86  1  0
 68 67  1  0
 68 71  1  0
 69 66  1  0
 69 70  1  0
 70 68  2  0
 71 72  1  0
 72 73  2  0
 74 77  1  0
 74 73  1  0
 75 74  2  0
 76 75  1  0
 76 71  2  0
 77 78  1  0
 78 79  1  0
 79 80  2  0
 81 80  1  0
 81 85  1  0
 82 81  2  0
 83 78  2  0
 83 82  1  0
 84 83  1  0
 86 87  1  0
 87 90  1  0
 87 89  1  0
 88 86  2  0
 91 92  1  0
 91 66  1  0
 93 91  1  0
M  ISO  4   7 101   8 101  56 100  64 100
M  END
>  <TORSDO>  (49) 
F 20

>  <SCORE>  (49) 
-14.228

>  <name>  (49) 
48

>  <ligand_id>  (49) 
48

>  <original_smiles>  (49) 
[H]C(C(=O)N(C([H])([H])[H])C([H])([H])c1c([H])c([H])c([H])c(N([H])C(=O)N2C([H])([H])C([H])([H])C([H])([H])C([H])(n3nc(-c4c([H])c([H])c(Oc5c([H])c([H])c(F)c([H])c5F)c([H])c4[H])c(C(=O)N([H])[H])c3N([H])[H])C2([H])[H])c1[H])=C([H])C([H])([H])Oc1c([H])c([H])c2c(c1[H])C([H])([H])N(C(=O)C([H])(N([H])C(=O)C([H])(N([H])C([H])([H])[H])C([H])([H])[H])C(C([H])([H])[H])(C([H])([H])[H])C([H])([H])[H])C([H])(C(=O)N([H])C1([H])c3c([H])c([H])c([H])c([H])c3C([H])([H])C([H])([H])C1([H])[H])C2([H])[H]

>  <smiles>  (49) 
[H]C(C(=O)N(C([H])([H])[H])C([H])([H])c1c([H])c([H])c([H])c(N([H])C(=O)N2C([H])([H])C([H])([H])C([H])([H])C([H])(n3nc(-c4c([H])c([H])c(Oc5c([H])c([H])c(F)c([H])c5F)c([H])c4[H])c(C(=O)N([H])[H])c3N([H])[H])C2([H])[H])c1[H])=C([H])C([H])([H])Oc1c([H])c([H])c2c(c1[H])C([H])([H])N(C(=O)C([H])(N([H])C(=O)C([H])(N([H])C([H])([H])[H])C([H])([H])[H])C(C([H])([H])[H])(C([H])([H])[H])C([H])([H])[H])C([H])(C(=O)N([H])C1([H])c3c([H])c([H])c([H])c([H])c3C([H])([H])C([H])([H])C1([H])[H])C2([H])[H]

$$$$
49:0:0
     RDKit          3D

105114  0  0  1  0  0  0  0  0999 V2000
  -30.6200  -20.3640   15.3590 C   0  0  0  0  0  3  0  0  0  0  0  0
  -30.5020  -21.7440   15.6000 C   0  0  0  0  0  3  0  0  0  0  0  0
  -31.4590  -19.5800   16.1750 C   0  0  0  0  0  3  0  0  0  0  0  0
  -32.0500  -21.5620   17.4770 C   0  0  0  0  0  3  0  0  0  0  0  0
  -31.1770  -22.3450   16.6870 C   0  0  0  0  0  0  0  0  0  0  0  0
  -32.1960  -20.1800   17.2170 C   0  0  0  0  0  0  0  0  0  0  0  0
  -33.5570  -17.9200   17.4220 O   0  0  0  0  0  0  0  0  0  0  0  0
  -34.5520  -19.9800   18.4440 O   0  0  0  0  0  0  0  0  0  0  0  0
  -33.3480  -19.1750   18.1710 S   0  0  1  0  0  0  0  0  0  0  0  0
  -31.0470  -17.8910   22.0060 C   0  0  0  0  0  3  0  0  0  0  0  0
  -31.8120  -17.5170   19.7410 C   0  0  0  0  0  3  0  0  0  0  0  0
  -31.6930  -19.1490   22.0290 C   0  0  0  0  0  0  0  0  0  0  0  0
  -32.4210  -19.6030   20.8850 C   0  0  0  0  0  0  0  0  0  0  0  0
  -31.1170  -17.0570   20.8830 C   0  0  0  0  0  0  0  0  0  0  0  0
  -32.4720  -18.7690   19.7250 C   0  0  0  0  0  0  0  0  0  0  0  0
  -33.0900  -20.9760   20.9620 C   0  0  0  0  0  1  0  0  0  0  0  0
  -31.1210  -14.6190   20.6560 C   0  0  0  0  0  0  0  0  0  0  0  0
  -30.7350  -12.3970   19.7090 C   0  0  0  0  0  2  0  0  0  0  0  0
  -29.9030  -12.5640   18.4250 C   0  0  0  0  0  2  0  0  0  0  0  0
  -28.4090  -12.4470   18.7710 C   0  0  0  0  0  2  0  0  0  0  0  0
  -28.0030  -13.3940   19.9290 C   0  0  0  0  0  3  0  0  0  0  0  0
  -28.9900  -13.3150   21.1170 C   0  0  0  0  0  2  0  0  0  0  0  0
  -30.3600  -13.4950   20.6080 N   0  0  0  0  0  0  0  0  0  0  0  0
  -32.3010  -14.6380   20.3010 O   0  0  0  0  0  0  0  0  0  0  0  0
  -30.4970  -15.7700   20.9420 N   0  0  0  0  0  0  0  0  0  0  0  0
  -29.5540  -15.7060   21.2920 H   0  0  0  0  0  0  0  0  0  0  0  0
  -25.5880  -14.0470   20.5220 C   0  0  0  0  0  0  0  0  0  0  0  0
  -24.4920  -13.3000   20.8570 C   0  0  0  0  0  0  0  0  0  0  0  0
  -24.9340  -11.9400   20.8720 C   0  0  0  0  0  0  0  0  0  0  0  0
  -26.6270  -13.1480   20.3570 N   0  0  0  0  0  0  0  0  0  0  0  0
  -26.2370  -11.8780   20.6310 N   0  0  0  0  0  0  0  0  0  0  0  0
  -24.1790  -10.6910   21.0330 C   0  0  0  0  0  0  0  0  0  0  0  0
  -24.5470   -9.7290   22.0010 C   0  0  0  0  0  3  0  0  0  0  0  0
  -23.7930   -8.5460   22.1590 C   0  0  0  0  0  3  0  0  0  0  0  0
  -22.6550   -8.3190   21.3470 C   0  0  0  0  0  0  0  0  0  0  0  0
  -22.3100   -9.2660   20.3670 C   0  0  0  0  0  3  0  0  0  0  0  0
  -23.0640  -10.4400   20.2090 C   0  0  0  0  0  3  0  0  0  0  0  0
  -21.8710   -7.1910   21.4140 O   0  0  0  0  0  0  0  0  0  0  0  0
  -21.7400   -6.4670   22.5730 C   0  0  0  0  0  0  0  0  0  0  0  0
  -21.2470   -7.0480   23.7610 C   0  0  0  0  0  3  0  0  0  0  0  0
  -21.0700   -6.2530   24.9110 C   0  0  0  0  0  3  0  0  0  0  0  0
  -21.3710   -4.8790   24.8700 C   0  0  0  0  0  0  0  0  0  0  0  0
  -21.8530   -4.2980   23.6850 C   0  0  0  0  0  3  0  0  0  0  0  0
  -22.0350   -5.0900   22.5390 C   0  0  0  0  0  0  0  0  0  0  0  0
  -22.4840   -4.5210   21.3930 F   0  0  0  0  0  0  0  0  0  0  0  0
  -21.1920   -4.1130   25.9710 F   0  0  0  0  0  0  0  0  0  0  0  0
  -23.0870  -13.7990   21.0480 C   0  0  0  0  0  0  0  0  0  0  0  0
  -22.3070  -13.1310   21.8900 N   0  0  0  0  0  0  0  0  0  0  0  0
  -22.6900  -14.8190   20.4850 O   0  0  0  0  0  0  0  0  0  0  0  0
  -22.6430  -12.3130   22.3760 H   0  0  0  0  0  0  0  0  0  0  0  0
  -21.3580  -13.4390   22.0480 H   0  0  0  0  0  0  0  0  0  0  0  0
  -25.7950  -15.4080   20.3180 N   0  0  0  0  0  0  0  0  0  0  0  0
  -25.0400  -16.0860   20.3110 H   0  0  0  0  0  0  0  0  0  0  0  0
  -26.6740  -15.7900   19.9920 H   0  0  0  0  0  0  0  0  0  0  0  0
  -31.5930  -19.9800   23.3130 C   0  0  1  0  0  0  0  0  0  0  0  0
  -30.9210  -19.3460   24.2740 F   0  0  0  0  0  0  0  0  0  0  0  0
  -32.8040  -20.2470   23.8010 F   0  0  0  0  0  0  0  0  0  0  0  0
  -30.9540  -21.1230   23.0770 F   0  0  0  0  0  0  0  0  0  0  0  0
  -30.9410  -23.8160   17.0110 C   0  0  0  0  0  2  0  0  0  0  0  0
  -29.6910  -25.0730   18.7360 C   0  0  0  0  0  0  0  0  0  0  0  0
  -28.5030  -23.3550   17.3730 C   0  0  0  0  0  1  0  0  0  0  0  0
  -29.7090  -24.1040   17.7860 N   0  0  0  0  0  0  0  0  0  0  0  0
  -30.7100  -25.6080   19.1840 O   0  0  0  0  0  0  0  0  0  0  0  0
  -28.3190  -25.5710   19.2040 C   0  0  0  0  0  2  0  0  0  0  0  0
  -28.3760  -26.7540   20.0140 O   0  0  0  0  0  0  0  0  0  0  0  0
  -24.5870  -31.8850   23.2260 C   0  0  0  0  0  0  0  0  0  0  0  0
  -27.1880  -27.4590   20.0890 C   0  0  0  0  0  0  0  0  0  0  0  0
  -23.3730  -30.5020   21.5780 C   0  0  0  0  0  3  0  0  0  0  0  0
  -24.8070  -28.9860   20.1340 C   0  0  0  0  0  0  0  0  0  0  0  0
  -25.9000  -30.8580   21.3680 C   0  0  0  0  0  2  0  0  0  0  0  0
  -25.9730  -29.4900   20.7210 C   0  0  0  0  0  0  0  0  0  0  0  0
  -27.1660  -28.7330   20.7020 C   0  0  0  0  0  3  0  0  0  0  0  0
  -25.9790  -26.9620   19.5390 C   0  0  0  0  0  3  0  0  0  0  0  0
  -24.8010  -27.7200   19.5410 C   0  0  0  0  0  3  0  0  0  0  0  0
  -23.5760  -29.8530   20.1840 C   0  0  0  0  0  2  0  0  0  0  0  0
  -24.6410  -31.0940   22.1140 N   0  0  0  0  0  0  0  0  0  0  0  0
  -23.5090  -32.1480   23.7720 O   0  0  0  0  0  0  0  0  0  0  0  0
  -22.7270  -29.4600   22.5220 C   0  0  0  0  0  0  0  0  0  0  0  0
  -21.4060  -29.2740   22.3880 N   0  0  0  0  0  0  0  0  0  0  0  0
  -23.4140  -28.8310   23.3340 O   0  0  0  0  0  0  0  0  0  0  0  0
  -20.9160  -29.8380   21.7070 H   0  0  0  0  0  0  0  0  0  0  0  0
  -18.0300  -28.0610   22.8520 C   0  0  0  0  0  0  0  0  0  0  0  0
  -20.5850  -28.3340   23.1510 C   0  0  0  0  0  3  0  0  0  0  0  0
  -20.7070  -26.9040   22.5760 C   0  0  0  0  0  2  0  0  0  0  0  0
  -19.6160  -26.5730   21.5500 C   0  0  0  0  0  2  0  0  0  0  0  0
  -18.2260  -26.7110   22.1790 C   0  0  0  0  0  2  0  0  0  0  0  0
  -19.1420  -28.8300   23.2930 C   0  0  0  0  0  0  0  0  0  0  0  0
  -18.9110  -30.0940   23.8770 C   0  0  0  0  0  3  0  0  0  0  0  0
  -17.6020  -30.5880   24.0290 C   0  0  0  0  0  3  0  0  0  0  0  0
  -16.5060  -29.8150   23.6070 C   0  0  0  0  0  3  0  0  0  0  0  0
  -16.7210  -28.5530   23.0250 C   0  0  0  0  0  3  0  0  0  0  0  0
  -25.8770  -32.5140   23.8360 C   0  0  0  0  0  3  0  0  0  0  0  0
  -25.5740  -33.9120   24.1740 N   0  0  0  0  0  0  0  0  0  0  0  0
  -25.9050  -34.9630   23.4110 C   0  0  0  0  0  0  0  0  0  0  0  0
  -26.5680  -34.8560   22.3760 O   0  0  0  0  0  0  0  0  0  0  0  0
  -25.0080  -34.0700   24.9940 H   0  0  0  0  0  0  0  0  0  0  0  0
  -24.1850  -36.7560   23.0360 C   0  0  0  0  0  1  0  0  0  0  0  0
  -25.4170  -36.3520   23.8660 C   0  0  0  0  0  3  0  0  0  0  0  0
  -27.5450  -37.2190   24.7240 C   0  0  0  0  0  1  0  0  0  0  0  0
  -26.4530  -37.4010   23.7710 N   0  0  0  0  0  0  0  0  0  0  0  0
  -26.0490  -38.3200   23.9280 H   0  0  0  0  0  0  0  0  0  0  0  0
  -26.4040  -31.7340   25.1020 C   0  0  1  0  0  0  0  0  0  0  0  0
  -25.3260  -31.4750   26.1810 C   0  0  0  0  0  1  0  0  0  0  0  0
  -26.9860  -30.3630   24.6860 C   0  0  0  0  0  1  0  0  0  0  0  0
  -27.5580  -32.5250   25.7640 C   0  0  0  0  0  1  0  0  0  0  0  0
  1  2  2  0
  1  3  1  0
  2  5  1  0
  3  6  2  0
  5 59  1  0
  5  4  2  0
  6  4  1  0
  9  6  1  6
  7  9  2  0
  9  8  2  0
  9 15  1  0
 10 12  1  0
 11 14  1  0
 12 55  1  0
 13 16  1  0
 13 12  2  0
 14 25  1  0
 14 10  2  0
 15 11  2  0
 15 13  1  0
 17 25  1  0
 18 23  1  0
 19 20  1  0
 19 18  1  0
 21 20  1  0
 21 30  1  0
 21 22  1  0
 23 17  1  0
 23 22  1  0
 24 17  2  0
 25 26  1  0
 27 28  2  0
 28 29  1  0
 28 47  1  0
 29 32  1  0
 30 27  1  0
 30 31  1  0
 31 29  2  0
 32 33  1  0
 33 34  2  0
 35 38  1  0
 35 34  1  0
 36 35  2  0
 37 36  1  0
 37 32  2  0
 38 39  1  0
 39 40  1  0
 40 41  2  0
 42 41  1  0
 42 46  1  0
 43 42  2  0
 44 39  2  0
 44 43  1  0
 45 44  1  0
 47 48  1  0
 48 51  1  0
 48 50  1  0
 49 47  2  0
 52 27  1  0
 53 52  1  0
 54 52  1  0
 55 57  1  1
 55 56  1  0
 58 55  1  0
 59 62  1  0
 60 63  2  0
 60 64  1  0
 61 62  1  0
 62 60  1  0
 64 65  1  0
 65 67  1  0
 66 77  2  0
 67 72  1  0
 68 76  1  0
 68 78  1  0
 69 75  1  0
 69 71  1  0
 70 76  1  0
 71 70  1  0
 72 71  2  0
 73 74  1  0
 73 67  2  0
 74 69  2  0
 75 68  1  0
 76 66  1  0
 78 80  2  0
 79 78  1  0
 81 79  1  0
 82 91  2  0
 82 87  1  0
 83 79  1  0
 83 87  1  0
 84 83  1  0
 85 86  1  0
 85 84  1  0
 86 82  1  0
 87 88  2  0
 88 89  1  0
 90 89  2  0
 91 90  1  0
 92 66  1  0
 92 93  1  0
 92102  1  0
 93 96  1  0
 94 98  1  0
 94 93  1  0
 95 94  2  0
 98 97  1  0
100 98  1  0
100101  1  0
100 99  1  0
102105  1  1
102103  1  0
104102  1  0
M  ISO  4  17 100  25 100  64 101  65 101
M  END
>  <TORSDO>  (50) 
F 22

>  <SCORE>  (50) 
-13.586

>  <name>  (50) 
49

>  <ligand_id>  (50) 
49

>  <original_smiles>  (50) 
[H]c1c([H])c([H])c2c(c1[H])C([H])([H])C([H])([H])C([H])([H])C2([H])N([H])C(=O)C1([H])N(C(=O)C([H])(N([H])C(=O)C([H])(N([H])C([H])([H])[H])C([H])([H])[H])C(C([H])([H])[H])(C([H])([H])[H])C([H])([H])[H])C([H])([H])c2c([H])c(OC([H])([H])C(=O)N(C([H])([H])[H])C([H])([H])c3c([H])c([H])c([H])c(S(=O)(=O)c4c([H])c(N([H])C(=O)N5C([H])([H])C([H])([H])C([H])([H])C([H])(n6nc(-c7c([H])c([H])c(Oc8c([H])c([H])c(F)c([H])c8F)c([H])c7[H])c(C(=O)N([H])[H])c6N([H])[H])C5([H])[H])c([H])c(C(F)(F)F)c4C([H])([H])[H])c3[H])c([H])c([H])c2C1([H])[H]

>  <smiles>  (50) 
[H]c1c([H])c([H])c2c(c1[H])C([H])([H])C([H])([H])C([H])([H])C2([H])N([H])C(=O)C1([H])N(C(=O)C([H])(N([H])C(=O)C([H])(N([H])C([H])([H])[H])C([H])([H])[H])C(C([H])([H])[H])(C([H])([H])[H])C([H])([H])[H])C([H])([H])c2c([H])c(OC([H])([H])C(=O)N(C([H])([H])[H])C([H])([H])c3c([H])c([H])c([H])c(S(=O)(=O)c4c([H])c(N([H])C(=O)N5C([H])([H])C([H])([H])C([H])([H])C([H])(n6nc(-c7c([H])c([H])c(Oc8c([H])c([H])c(F)c([H])c8F)c([H])c7[H])c(C(=O)N([H])[H])c6N([H])[H])C5([H])[H])c([H])c(C(F)(F)F)c4C([H])([H])[H])c3[H])c([H])c([H])c2C1([H])[H]

$$$$
50:0:0
     RDKit          3D

 93101  0  0  1  0  0  0  0  0999 V2000
  -28.5870  -21.1160   20.5780 C   0  0  0  0  0  2  0  0  0  0  0  0
  -31.0050  -20.1920   20.6660 C   0  0  0  0  0  3  0  0  0  0  0  0
  -31.5880  -17.8000   20.7620 C   0  0  0  0  0  3  0  0  0  0  0  0
  -31.9650  -19.1630   20.7830 C   0  0  0  0  0  0  0  0  0  0  0  0
  -29.6300  -19.9010   20.5650 C   0  0  0  0  0  0  0  0  0  0  0  0
  -30.2360  -17.3960   20.6270 C   0  0  0  0  0  0  0  0  0  0  0  0
  -29.2680  -18.4840   20.5500 C   0  0  0  0  0  0  0  0  0  0  0  0
  -33.4310  -19.5220   20.9540 C   0  0  0  0  0  1  0  0  0  0  0  0
  -27.9560  -18.1540   20.4750 F   0  0  0  0  0  0  0  0  0  0  0  0
  -30.6090  -14.7980   20.3300 C   0  0  0  0  0  0  0  0  0  0  0  0
  -30.3670  -12.5430   19.2690 C   0  0  0  0  0  2  0  0  0  0  0  0
  -29.4150  -12.6350   18.0580 C   0  0  0  0  0  2  0  0  0  0  0  0
  -27.9530  -12.4460   18.5040 C   0  0  0  0  0  2  0  0  0  0  0  0
  -27.5960  -13.3130   19.7400 C   0  0  0  0  0  3  0  0  0  0  0  0
  -28.6700  -13.2210   20.8460 C   0  0  0  0  0  2  0  0  0  0  0  0
  -29.9560  -13.5850   20.2390 N   0  0  0  0  0  0  0  0  0  0  0  0
  -31.7850  -14.8640   19.9690 O   0  0  0  0  0  0  0  0  0  0  0  0
  -29.8710  -15.9440   20.6190 N   0  0  0  0  0  0  0  0  0  0  0  0
  -28.8940  -15.7660   20.7930 H   0  0  0  0  0  0  0  0  0  0  0  0
  -25.2150  -13.8810   20.5030 C   0  0  0  0  0  0  0  0  0  0  0  0
  -24.1580  -13.0970   20.8770 C   0  0  0  0  0  0  0  0  0  0  0  0
  -24.6310  -11.7480   20.8320 C   0  0  0  0  0  0  0  0  0  0  0  0
  -26.2610  -13.0100   20.2460 N   0  0  0  0  0  0  0  0  0  0  0  0
  -25.9180  -11.7220   20.5090 N   0  0  0  0  0  0  0  0  0  0  0  0
  -23.9140  -10.4790   21.0190 C   0  0  0  0  0  0  0  0  0  0  0  0
  -24.3520   -9.5120   21.9510 C   0  0  0  0  0  3  0  0  0  0  0  0
  -23.6340   -8.3100   22.1270 C   0  0  0  0  0  3  0  0  0  0  0  0
  -22.4630   -8.0660   21.3700 C   0  0  0  0  0  0  0  0  0  0  0  0
  -22.0440   -9.0210   20.4260 C   0  0  0  0  0  3  0  0  0  0  0  0
  -22.7640  -10.2140   20.2490 C   0  0  0  0  0  3  0  0  0  0  0  0
  -21.7160   -6.9160   21.4550 O   0  0  0  0  0  0  0  0  0  0  0  0
  -21.6620   -6.1760   22.6080 C   0  0  0  0  0  0  0  0  0  0  0  0
  -21.1980   -6.7240   23.8240 C   0  0  0  0  0  3  0  0  0  0  0  0
  -21.0920   -5.9100   24.9680 C   0  0  0  0  0  3  0  0  0  0  0  0
  -21.4420   -4.5470   24.8990 C   0  0  0  0  0  0  0  0  0  0  0  0
  -21.9000   -3.9980   23.6890 C   0  0  0  0  0  3  0  0  0  0  0  0
  -22.0070   -4.8100   22.5460 C   0  0  0  0  0  0  0  0  0  0  0  0
  -22.4280   -4.2710   21.3770 F   0  0  0  0  0  0  0  0  0  0  0  0
  -21.3340   -3.7630   25.9970 F   0  0  0  0  0  0  0  0  0  0  0  0
  -22.7610  -13.5630   21.1670 C   0  0  0  0  0  0  0  0  0  0  0  0
  -22.0440  -12.8510   22.0300 N   0  0  0  0  0  0  0  0  0  0  0  0
  -22.3130  -14.5930   20.6650 O   0  0  0  0  0  0  0  0  0  0  0  0
  -22.4180  -12.0160   22.4550 H   0  0  0  0  0  0  0  0  0  0  0  0
  -21.1090  -13.1470   22.2710 H   0  0  0  0  0  0  0  0  0  0  0  0
  -25.3660  -15.2540   20.3360 N   0  0  0  0  0  0  0  0  0  0  0  0
  -24.5940  -15.9000   20.4600 H   0  0  0  0  0  0  0  0  0  0  0  0
  -26.2070  -15.7100   20.0070 H   0  0  0  0  0  0  0  0  0  0  0  0
  -28.3760  -23.7560   20.5260 C   0  0  0  0  0  0  0  0  0  0  0  0
  -28.9210  -22.5430   20.1140 N   0  0  0  0  0  0  0  0  0  0  0  0
  -27.7140  -23.8100   21.5650 O   0  0  0  0  0  0  0  0  0  0  0  0
  -29.4840  -22.5930   19.2760 H   0  0  0  0  0  0  0  0  0  0  0  0
  -28.5180  -25.0970   19.6480 C   0  0  0  0  0  2  0  0  0  0  0  0
  -28.3690  -26.4470   20.3020 O   0  0  0  0  0  0  0  0  0  0  0  0
  -24.6050  -31.8930   23.2280 C   0  0  0  0  0  0  0  0  0  0  0  0
  -27.2380  -27.2920   20.1950 C   0  0  0  0  0  0  0  0  0  0  0  0
  -23.4100  -30.4890   21.5870 C   0  0  0  0  0  3  0  0  0  0  0  0
  -24.8700  -28.9300   20.1640 C   0  0  0  0  0  0  0  0  0  0  0  0
  -25.9510  -30.7990   21.4140 C   0  0  0  0  0  2  0  0  0  0  0  0
  -26.0340  -29.4150   20.7710 C   0  0  0  0  0  0  0  0  0  0  0  0
  -27.2130  -28.6050   20.7810 C   0  0  0  0  0  3  0  0  0  0  0  0
  -26.0490  -26.8700   19.5620 C   0  0  0  0  0  3  0  0  0  0  0  0
  -24.8840  -27.6670   19.5500 C   0  0  0  0  0  3  0  0  0  0  0  0
  -23.6280  -29.8010   20.2110 C   0  0  0  0  0  2  0  0  0  0  0  0
  -24.6740  -31.0790   22.1330 N   0  0  0  0  0  0  0  0  0  0  0  0
  -23.5190  -32.1690   23.7580 O   0  0  0  0  0  0  0  0  0  0  0  0
  -22.7440  -29.4780   22.5530 C   0  0  0  0  0  0  0  0  0  0  0  0
  -21.4180  -29.2970   22.4260 N   0  0  0  0  0  0  0  0  0  0  0  0
  -23.4220  -28.8580   23.3780 O   0  0  0  0  0  0  0  0  0  0  0  0
  -20.9300  -29.8500   21.7340 H   0  0  0  0  0  0  0  0  0  0  0  0
  -18.0430  -28.0950   22.9250 C   0  0  0  0  0  0  0  0  0  0  0  0
  -20.6000  -28.3570   23.1970 C   0  0  0  0  0  3  0  0  0  0  0  0
  -20.7040  -26.9250   22.6240 C   0  0  0  0  0  2  0  0  0  0  0  0
  -19.6040  -26.5990   21.6100 C   0  0  0  0  0  2  0  0  0  0  0  0
  -18.2210  -26.7440   22.2520 C   0  0  0  0  0  2  0  0  0  0  0  0
  -19.1600  -28.8590   23.3570 C   0  0  0  0  0  0  0  0  0  0  0  0
  -18.9390  -30.1210   23.9470 C   0  0  0  0  0  3  0  0  0  0  0  0
  -17.6350  -30.6220   24.1130 C   0  0  0  0  0  3  0  0  0  0  0  0
  -16.5310  -29.8540   23.7010 C   0  0  0  0  0  3  0  0  0  0  0  0
  -16.7350  -28.5940   23.1120 C   0  0  0  0  0  3  0  0  0  0  0  0
  -25.8830  -32.5340   23.8520 C   0  0  0  0  0  3  0  0  0  0  0  0
  -26.3920  -31.7750   25.1400 C   0  0  1  0  0  0  0  0  0  0  0  0
  -25.2910  -31.5460   26.2020 C   0  0  0  0  0  1  0  0  0  0  0  0
  -26.9780  -30.3950   24.7650 C   0  0  0  0  0  1  0  0  0  0  0  0
  -27.5390  -32.5760   25.8010 C   0  0  0  0  0  1  0  0  0  0  0  0
  -25.5710  -33.9340   24.1700 N   0  0  0  0  0  0  0  0  0  0  0  0
  -25.9090  -34.9840   23.4070 C   0  0  0  0  0  0  0  0  0  0  0  0
  -26.5860  -34.8720   22.3810 O   0  0  0  0  0  0  0  0  0  0  0  0
  -24.9710  -34.0950   24.9660 H   0  0  0  0  0  0  0  0  0  0  0  0
  -24.1920  -36.7810   23.0280 C   0  0  0  0  0  1  0  0  0  0  0  0
  -25.4220  -36.3750   23.8530 C   0  0  0  0  0  3  0  0  0  0  0  0
  -27.5470  -37.2600   24.7080 C   0  0  0  0  0  1  0  0  0  0  0  0
  -26.4600  -37.4230   23.7470 N   0  0  0  0  0  0  0  0  0  0  0  0
  -26.0530  -38.3470   23.8820 H   0  0  0  0  0  0  0  0  0  0  0  0
  2  4  1  0
  3  4  2  0
  4  8  1  0
  5  1  1  0
  5  2  2  0
  6  3  1  0
  7  5  1  0
  7  6  2  0
  9  7  1  0
 10 18  1  0
 11 16  1  0
 12 13  1  0
 12 11  1  0
 14 13  1  0
 14 23  1  0
 14 15  1  0
 16 10  1  0
 16 15  1  0
 17 10  2  0
 18  6  1  0
 18 19  1  0
 20 21  2  0
 21 40  1  0
 22 21  1  0
 22 25  1  0
 23 20  1  0
 23 24  1  0
 24 22  2  0
 25 26  1  0
 26 27  2  0
 28 31  1  0
 28 27  1  0
 29 28  2  0
 30 29  1  0
 30 25  2  0
 31 32  1  0
 32 33  1  0
 33 34  2  0
 35 34  1  0
 35 39  1  0
 36 35  2  0
 37 32  2  0
 37 36  1  0
 38 37  1  0
 40 41  1  0
 41 44  1  0
 41 43  1  0
 42 40  2  0
 45 46  1  0
 45 20  1  0
 47 45  1  0
 48 50  2  0
 49 48  1  0
 49  1  1  0
 51 49  1  0
 52 53  1  0
 52 48  1  0
 54 65  2  0
 55 53  1  0
 55 60  1  0
 56 64  1  0
 56 66  1  0
 57 63  1  0
 57 59  1  0
 58 64  1  0
 59 60  2  0
 59 58  1  0
 61 55  2  0
 62 61  1  0
 62 57  2  0
 63 56  1  0
 64 54  1  0
 66 68  2  0
 67 66  1  0
 69 67  1  0
 70 79  2  0
 70 75  1  0
 71 67  1  0
 71 75  1  0
 72 71  1  0
 73 74  1  0
 73 72  1  0
 74 70  1  0
 75 76  2  0
 76 77  1  0
 78 77  2  0
 79 78  1  0
 80 54  1  0
 80 85  1  0
 80 81  1  0
 81 84  1  1
 81 82  1  0
 83 81  1  0
 85 88  1  0
 86 90  1  0
 86 85  1  0
 87 86  2  0
 90 89  1  0
 92 90  1  0
 92 93  1  0
 92 91  1  0
M  ISO  4  10 100  18 100  52 101  53 101
M  END
>  <TORSDO>  (51) 
F 19

>  <SCORE>  (51) 
-14.754

>  <name>  (51) 
50

>  <ligand_id>  (51) 
50

>  <original_smiles>  (51) 
[H]c1c([H])c([H])c2c(c1[H])C([H])([H])C([H])([H])C([H])([H])C2([H])N([H])C(=O)C1([H])N(C(=O)C([H])(N([H])C(=O)C([H])(N([H])C([H])([H])[H])C([H])([H])[H])C(C([H])([H])[H])(C([H])([H])[H])C([H])([H])[H])C([H])([H])c2c([H])c(OC([H])([H])C(=O)N([H])C([H])([H])c3c([H])c(C([H])([H])[H])c([H])c(N([H])C(=O)N4C([H])([H])C([H])([H])C([H])([H])C([H])(n5nc(-c6c([H])c([H])c(Oc7c([H])c([H])c(F)c([H])c7F)c([H])c6[H])c(C(=O)N([H])[H])c5N([H])[H])C4([H])[H])c3F)c([H])c([H])c2C1([H])[H]

>  <smiles>  (51) 
[H]c1c([H])c([H])c2c(c1[H])C([H])([H])C([H])([H])C([H])([H])C2([H])N([H])C(=O)C1([H])N(C(=O)C([H])(N([H])C(=O)C([H])(N([H])C([H])([H])[H])C([H])([H])[H])C(C([H])([H])[H])(C([H])([H])[H])C([H])([H])[H])C([H])([H])c2c([H])c(OC([H])([H])C(=O)N([H])C([H])([H])c3c([H])c(C([H])([H])[H])c([H])c(N([H])C(=O)N4C([H])([H])C([H])([H])C([H])([H])C([H])(n5nc(-c6c([H])c([H])c(Oc7c([H])c([H])c(F)c([H])c7F)c([H])c6[H])c(C(=O)N([H])[H])c5N([H])[H])C4([H])[H])c3F)c([H])c([H])c2C1([H])[H]

$$$$
51:0:0
     RDKit          3D

 91 99  0  0  1  0  0  0  0  0999 V2000
  -28.9840  -23.7800   20.5020 C   0  0  0  0  0  0  0  0  0  0  0  0
  -28.8150  -22.4500   20.1360 N   0  0  0  0  0  0  0  0  0  0  0  0
  -29.8260  -24.0920   21.3460 O   0  0  0  0  0  0  0  0  0  0  0  0
  -28.1170  -22.2950   19.4230 H   0  0  0  0  0  0  0  0  0  0  0  0
  -29.3300  -21.1870   20.8250 C   0  0  0  0  0  2  0  0  0  0  0  0
  -30.2880  -18.6400   18.0200 C   0  0  0  0  0  3  0  0  0  0  0  0
  -29.9690  -19.8340   18.7060 C   0  0  0  0  0  3  0  0  0  0  0  0
  -30.2570  -17.3820   18.6620 C   0  0  0  0  0  3  0  0  0  0  0  0
  -29.5350  -18.4960   20.6940 C   0  0  0  0  0  3  0  0  0  0  0  0
  -29.5810  -19.8090   20.0610 C   0  0  0  0  0  0  0  0  0  0  0  0
  -29.8920  -17.2550   20.0200 C   0  0  0  0  0  0  0  0  0  0  0  0
  -30.5650  -14.7620   20.3530 C   0  0  0  0  0  0  0  0  0  0  0  0
  -30.3720  -12.4750   19.3890 C   0  0  0  0  0  2  0  0  0  0  0  0
  -29.4400  -12.5590   18.1610 C   0  0  0  0  0  2  0  0  0  0  0  0
  -27.9670  -12.3990   18.5800 C   0  0  0  0  0  2  0  0  0  0  0  0
  -27.5930  -13.2850   19.8000 C   0  0  0  0  0  3  0  0  0  0  0  0
  -28.6470  -13.1810   20.9250 C   0  0  0  0  0  2  0  0  0  0  0  0
  -29.9500  -13.5280   20.3410 N   0  0  0  0  0  0  0  0  0  0  0  0
  -31.7420  -14.8560   19.9950 O   0  0  0  0  0  0  0  0  0  0  0  0
  -29.8040  -15.8940   20.6140 N   0  0  0  0  0  0  0  0  0  0  0  0
  -28.9470  -15.7120   21.1190 H   0  0  0  0  0  0  0  0  0  0  0  0
  -25.2010  -13.8860   20.5040 C   0  0  0  0  0  0  0  0  0  0  0  0
  -24.1320  -13.1180   20.8780 C   0  0  0  0  0  0  0  0  0  0  0  0
  -24.5910  -11.7650   20.8600 C   0  0  0  0  0  0  0  0  0  0  0  0
  -26.2450  -13.0020   20.2810 N   0  0  0  0  0  0  0  0  0  0  0  0
  -25.8840  -11.7230   20.5570 N   0  0  0  0  0  0  0  0  0  0  0  0
  -23.8590  -10.5060   21.0580 C   0  0  0  0  0  0  0  0  0  0  0  0
  -24.2970   -9.5330   21.9830 C   0  0  0  0  0  3  0  0  0  0  0  0
  -23.5650   -8.3400   22.1680 C   0  0  0  0  0  3  0  0  0  0  0  0
  -22.3810   -8.1120   21.4270 C   0  0  0  0  0  0  0  0  0  0  0  0
  -21.9620   -9.0740   20.4910 C   0  0  0  0  0  3  0  0  0  0  0  0
  -22.6950  -10.2570   20.3060 C   0  0  0  0  0  3  0  0  0  0  0  0
  -21.6230   -6.9700   21.5210 O   0  0  0  0  0  0  0  0  0  0  0  0
  -21.6000   -6.2120   22.6640 C   0  0  0  0  0  0  0  0  0  0  0  0
  -21.2220   -6.7550   23.9120 C   0  0  0  0  0  3  0  0  0  0  0  0
  -21.1440   -5.9230   25.0470 C   0  0  0  0  0  3  0  0  0  0  0  0
  -21.4350   -4.5510   24.9380 C   0  0  0  0  0  0  0  0  0  0  0  0
  -21.8060   -4.0070   23.6960 C   0  0  0  0  0  3  0  0  0  0  0  0
  -21.8850   -4.8340   22.5620 C   0  0  0  0  0  0  0  0  0  0  0  0
  -22.2210   -4.3010   21.3620 F   0  0  0  0  0  0  0  0  0  0  0  0
  -21.3510   -3.7520   26.0240 F   0  0  0  0  0  0  0  0  0  0  0  0
  -22.7340  -13.6030   21.1380 C   0  0  0  0  0  0  0  0  0  0  0  0
  -22.0000  -12.9200   22.0090 N   0  0  0  0  0  0  0  0  0  0  0  0
  -22.3030  -14.6240   20.6040 O   0  0  0  0  0  0  0  0  0  0  0  0
  -22.3620  -12.0970   22.4690 H   0  0  0  0  0  0  0  0  0  0  0  0
  -21.0640  -13.2300   22.2270 H   0  0  0  0  0  0  0  0  0  0  0  0
  -25.3710  -15.2550   20.3120 N   0  0  0  0  0  0  0  0  0  0  0  0
  -24.6120  -15.9180   20.4210 H   0  0  0  0  0  0  0  0  0  0  0  0
  -26.2140  -15.6740   19.9410 H   0  0  0  0  0  0  0  0  0  0  0  0
  -28.0410  -24.9250   19.8980 C   0  0  0  0  0  2  0  0  0  0  0  0
  -28.2910  -26.3760   20.2330 O   0  0  0  0  0  0  0  0  0  0  0  0
  -24.6360  -31.8890   23.2430 C   0  0  0  0  0  0  0  0  0  0  0  0
  -27.2030  -27.2850   20.1620 C   0  0  0  0  0  0  0  0  0  0  0  0
  -23.4160  -30.4960   21.6140 C   0  0  0  0  0  3  0  0  0  0  0  0
  -24.8510  -28.9440   20.1710 C   0  0  0  0  0  0  0  0  0  0  0  0
  -25.9590  -30.7940   21.4130 C   0  0  0  0  0  2  0  0  0  0  0  0
  -26.0290  -29.4120   20.7650 C   0  0  0  0  0  0  0  0  0  0  0  0
  -27.2060  -28.5940   20.7550 C   0  0  0  0  0  3  0  0  0  0  0  0
  -26.0020  -26.8990   19.5170 C   0  0  0  0  0  3  0  0  0  0  0  0
  -24.8430  -27.6960   19.5340 C   0  0  0  0  0  3  0  0  0  0  0  0
  -23.6180  -29.8240   20.2310 C   0  0  0  0  0  2  0  0  0  0  0  0
  -24.6890  -31.0780   22.1460 N   0  0  0  0  0  0  0  0  0  0  0  0
  -23.5570  -32.1690   23.7880 O   0  0  0  0  0  0  0  0  0  0  0  0
  -22.7540  -29.4810   22.5780 C   0  0  0  0  0  0  0  0  0  0  0  0
  -21.4280  -29.3060   22.4580 N   0  0  0  0  0  0  0  0  0  0  0  0
  -23.4350  -28.8570   23.3960 O   0  0  0  0  0  0  0  0  0  0  0  0
  -20.9370  -29.8620   21.7710 H   0  0  0  0  0  0  0  0  0  0  0  0
  -18.0550  -28.0950   22.9610 C   0  0  0  0  0  0  0  0  0  0  0  0
  -20.6110  -28.3710   23.2350 C   0  0  0  0  0  3  0  0  0  0  0  0
  -20.7210  -26.9350   22.6730 C   0  0  0  0  0  2  0  0  0  0  0  0
  -19.6230  -26.5960   21.6590 C   0  0  0  0  0  2  0  0  0  0  0  0
  -18.2390  -26.7410   22.2970 C   0  0  0  0  0  2  0  0  0  0  0  0
  -19.1680  -28.8670   23.3870 C   0  0  0  0  0  0  0  0  0  0  0  0
  -18.9410  -30.1330   23.9700 C   0  0  0  0  0  3  0  0  0  0  0  0
  -17.6320  -30.6270   24.1310 C   0  0  0  0  0  3  0  0  0  0  0  0
  -16.5340  -29.8530   23.7190 C   0  0  0  0  0  3  0  0  0  0  0  0
  -16.7450  -28.5900   23.1390 C   0  0  0  0  0  3  0  0  0  0  0  0
  -25.9240  -32.5190   23.8560 C   0  0  0  0  0  3  0  0  0  0  0  0
  -26.4470  -31.7440   25.1280 C   0  0  1  0  0  0  0  0  0  0  0  0
  -25.3630  -31.5160   26.2070 C   0  0  0  0  0  1  0  0  0  0  0  0
  -27.0140  -30.3620   24.7320 C   0  0  0  0  0  1  0  0  0  0  0  0
  -27.6110  -32.5310   25.7750 C   0  0  0  0  0  1  0  0  0  0  0  0
  -25.6190  -33.9160   24.1930 N   0  0  0  0  0  0  0  0  0  0  0  0
  -25.9440  -34.9720   23.4340 C   0  0  0  0  0  0  0  0  0  0  0  0
  -26.6000  -34.8690   22.3930 O   0  0  0  0  0  0  0  0  0  0  0  0
  -25.0330  -34.0690   25.0010 H   0  0  0  0  0  0  0  0  0  0  0  0
  -24.2120  -36.7680   23.1080 C   0  0  0  0  0  1  0  0  0  0  0  0
  -25.4650  -36.3600   23.8990 C   0  0  0  0  0  3  0  0  0  0  0  0
  -27.6190  -37.2380   24.6920 C   0  0  0  0  0  1  0  0  0  0  0  0
  -26.4970  -37.4140   23.7730 N   0  0  0  0  0  0  0  0  0  0  0  0
  -26.0950  -38.3330   23.9360 H   0  0  0  0  0  0  0  0  0  0  0  0
  1  3  2  0
  2  1  1  0
  2  5  1  0
  4  2  1  0
  6  8  2  0
  6  7  1  0
  7 10  2  0
  8 11  1  0
 10  9  1  0
 10  5  1  0
 11 20  1  0
 11  9  2  0
 12 20  1  0
 13 18  1  0
 14 15  1  0
 14 13  1  0
 16 15  1  0
 16 25  1  0
 16 17  1  0
 18 12  1  0
 18 17  1  0
 19 12  2  0
 20 21  1  0
 22 23  2  0
 23 42  1  0
 24 23  1  0
 24 27  1  0
 25 22  1  0
 25 26  1  0
 26 24  2  0
 27 28  1  0
 28 29  2  0
 30 33  1  0
 30 29  1  0
 31 30  2  0
 32 31  1  0
 32 27  2  0
 33 34  1  0
 34 35  1  0
 35 36  2  0
 37 36  1  0
 37 41  1  0
 38 37  2  0
 39 34  2  0
 39 38  1  0
 40 39  1  0
 42 43  1  0
 43 46  1  0
 43 45  1  0
 44 42  2  0
 47 48  1  0
 47 22  1  0
 49 47  1  0
 50 51  1  0
 50  1  1  0
 52 63  2  0
 53 51  1  0
 53 58  1  0
 54 62  1  0
 54 64  1  0
 55 61  1  0
 55 57  1  0
 56 62  1  0
 57 56  1  0
 58 57  2  0
 59 60  1  0
 59 53  2  0
 60 55  2  0
 61 54  1  0
 62 52  1  0
 64 66  2  0
 65 64  1  0
 67 65  1  0
 68 77  2  0
 68 73  1  0
 69 65  1  0
 69 73  1  0
 70 69  1  0
 71 72  1  0
 71 70  1  0
 72 68  1  0
 73 74  2  0
 74 75  1  0
 76 75  2  0
 77 76  1  0
 78 52  1  0
 78 83  1  0
 78 79  1  0
 79 82  1  1
 79 80  1  0
 81 79  1  0
 83 86  1  0
 84 88  1  0
 84 83  1  0
 85 84  2  0
 88 87  1  0
 90 88  1  0
 90 91  1  0
 90 89  1  0
M  ISO  4  12 100  20 100  50 101  51 101
M  END
>  <TORSDO>  (52) 
F 19

>  <SCORE>  (52) 
-14.199

>  <name>  (52) 
51

>  <ligand_id>  (52) 
51

>  <original_smiles>  (52) 
[H]c1c([H])c(N([H])C(=O)N2C([H])([H])C([H])([H])C([H])([H])C([H])(n3nc(-c4c([H])c([H])c(Oc5c([H])c([H])c(F)c([H])c5F)c([H])c4[H])c(C(=O)N([H])[H])c3N([H])[H])C2([H])[H])c([H])c(C([H])([H])N([H])C(=O)C([H])([H])Oc2c([H])c([H])c3c(c2[H])C([H])([H])N(C(=O)C([H])(N([H])C(=O)C([H])(N([H])C([H])([H])[H])C([H])([H])[H])C(C([H])([H])[H])(C([H])([H])[H])C([H])([H])[H])C([H])(C(=O)N([H])C2([H])c4c([H])c([H])c([H])c([H])c4C([H])([H])C([H])([H])C2([H])[H])C3([H])[H])c1[H]

>  <smiles>  (52) 
[H]c1c([H])c(N([H])C(=O)N2C([H])([H])C([H])([H])C([H])([H])C([H])(n3nc(-c4c([H])c([H])c(Oc5c([H])c([H])c(F)c([H])c5F)c([H])c4[H])c(C(=O)N([H])[H])c3N([H])[H])C2([H])[H])c([H])c(C([H])([H])N([H])C(=O)C([H])([H])Oc2c([H])c([H])c3c(c2[H])C([H])([H])N(C(=O)C([H])(N([H])C(=O)C([H])(N([H])C([H])([H])[H])C([H])([H])[H])C(C([H])([H])[H])(C([H])([H])[H])C([H])([H])[H])C([H])(C(=O)N([H])C2([H])c4c([H])c([H])c([H])c([H])c4C([H])([H])C([H])([H])C2([H])[H])C3([H])[H])c1[H]

$$$$
52:0:0
     RDKit          3D

 96105  0  0  1  0  0  0  0  0999 V2000
  -30.8910  -24.5730   19.1780 C   0  0  0  0  0  3  0  0  0  0  0  0
  -29.5860  -24.2340   19.1970 C   0  0  0  0  0  0  0  0  0  0  0  0
  -29.2080  -22.7890   19.2120 C   0  0  0  0  0  0  0  0  0  0  0  0
  -32.0010  -23.5480   19.1040 C   0  0  0  0  0  2  0  0  0  0  0  0
  -31.4580  -22.3400   18.3070 C   0  0  0  0  0  2  0  0  0  0  0  0
  -30.1740  -21.8590   18.8800 N   0  0  0  0  0  0  0  0  0  0  0  0
  -28.0650  -22.4260   19.4970 O   0  0  0  0  0  0  0  0  0  0  0  0
  -29.8240  -20.3860   18.7750 C   0  0  0  0  0  2  0  0  0  0  0  0
  -32.8770  -18.5440   20.3050 C   0  0  0  0  0  3  0  0  0  0  0  0
  -32.0210  -19.5470   19.8300 C   0  0  0  0  0  3  0  0  0  0  0  0
  -32.4010  -17.2360   20.4550 C   0  0  0  0  0  3  0  0  0  0  0  0
  -30.6910  -19.2690   19.4410 C   0  0  0  0  0  0  0  0  0  0  0  0
  -30.1820  -17.9360   19.6840 C   0  0  0  0  0  0  0  0  0  0  0  0
  -31.0600  -16.8970   20.1560 C   0  0  0  0  0  0  0  0  0  0  0  0
  -31.0480  -14.4700   19.7250 C   0  0  0  0  0  0  0  0  0  0  0  0
  -30.5120  -12.3360   18.5630 C   0  0  0  0  0  2  0  0  0  0  0  0
  -29.4850  -12.5710   17.4360 C   0  0  0  0  0  2  0  0  0  0  0  0
  -28.0520  -12.4550   17.9820 C   0  0  0  0  0  2  0  0  0  0  0  0
  -27.8450  -13.2820   19.2790 C   0  0  0  0  0  3  0  0  0  0  0  0
  -28.9870  -13.0380   20.2860 C   0  0  0  0  0  2  0  0  0  0  0  0
  -30.2670  -13.3390   19.6250 N   0  0  0  0  0  0  0  0  0  0  0  0
  -32.0760  -14.5650   19.0530 O   0  0  0  0  0  0  0  0  0  0  0  0
  -30.4240  -15.3450   21.9180 C   0  0  0  0  0  1  0  0  0  0  0  0
  -30.6320  -15.5430   20.4780 N   0  0  0  0  0  0  0  0  0  0  0  0
  -25.5370  -13.9230   20.2160 C   0  0  0  0  0  0  0  0  0  0  0  0
  -24.4890  -13.1700   20.6610 C   0  0  0  0  0  0  0  0  0  0  0  0
  -24.9180  -11.8090   20.5810 C   0  0  0  0  0  0  0  0  0  0  0  0
  -26.5360  -13.0230   19.8760 N   0  0  0  0  0  0  0  0  0  0  0  0
  -26.1740  -11.7460   20.1600 N   0  0  0  0  0  0  0  0  0  0  0  0
  -24.1850  -10.5620   20.8250 C   0  0  0  0  0  0  0  0  0  0  0  0
  -24.6050   -9.6350   21.8030 C   0  0  0  0  0  3  0  0  0  0  0  0
  -23.8730   -8.4510   22.0290 C   0  0  0  0  0  3  0  0  0  0  0  0
  -22.7050   -8.1850   21.2760 C   0  0  0  0  0  0  0  0  0  0  0  0
  -22.3030   -9.1010   20.2860 C   0  0  0  0  0  3  0  0  0  0  0  0
  -23.0380  -10.2760   20.0610 C   0  0  0  0  0  3  0  0  0  0  0  0
  -21.9390   -7.0520   21.4130 O   0  0  0  0  0  0  0  0  0  0  0  0
  -21.8030   -6.4150   22.6220 C   0  0  0  0  0  0  0  0  0  0  0  0
  -21.2910   -7.0760   23.7600 C   0  0  0  0  0  3  0  0  0  0  0  0
  -21.1020   -6.3660   24.9630 C   0  0  0  0  0  3  0  0  0  0  0  0
  -21.4200   -4.9970   25.0290 C   0  0  0  0  0  0  0  0  0  0  0  0
  -21.9280   -4.3360   23.8960 C   0  0  0  0  0  3  0  0  0  0  0  0
  -22.1160   -5.0420   22.6950 C   0  0  0  0  0  0  0  0  0  0  0  0
  -22.5880   -4.3980   21.6000 F   0  0  0  0  0  0  0  0  0  0  0  0
  -21.2300   -4.3090   26.1810 F   0  0  0  0  0  0  0  0  0  0  0  0
  -23.1290  -13.6710   21.0580 C   0  0  0  0  0  0  0  0  0  0  0  0
  -22.4760  -12.9970   21.9960 N   0  0  0  0  0  0  0  0  0  0  0  0
  -22.6620  -14.7010   20.5750 O   0  0  0  0  0  0  0  0  0  0  0  0
  -22.8670  -12.1630   22.4110 H   0  0  0  0  0  0  0  0  0  0  0  0
  -21.5720  -13.3220   22.3090 H   0  0  0  0  0  0  0  0  0  0  0  0
  -25.7270  -15.2920   20.0580 N   0  0  0  0  0  0  0  0  0  0  0  0
  -25.0290  -15.9670   20.3460 H   0  0  0  0  0  0  0  0  0  0  0  0
  -26.6210  -15.7080   19.8430 H   0  0  0  0  0  0  0  0  0  0  0  0
  -27.8230  -18.0610   20.7020 C   0  0  0  0  0  1  0  0  0  0  0  0
  -28.6920  -17.6160   19.5030 C   0  0  0  0  0  2  0  0  0  0  0  0
  -28.4870  -25.3060   18.9770 C   0  0  0  0  0  2  0  0  0  0  0  0
  -28.3850  -26.4070   19.9330 O   0  0  0  0  0  0  0  0  0  0  0  0
  -24.6440  -31.7080   23.0800 C   0  0  0  0  0  0  0  0  0  0  0  0
  -27.2280  -27.1990   19.9310 C   0  0  0  0  0  0  0  0  0  0  0  0
  -23.4230  -30.3370   21.4340 C   0  0  0  0  0  3  0  0  0  0  0  0
  -24.8550  -28.7900   19.9990 C   0  0  0  0  0  0  0  0  0  0  0  0
  -25.9660  -30.6330   21.2490 C   0  0  0  0  0  2  0  0  0  0  0  0
  -26.0310  -29.2660   20.5900 C   0  0  0  0  0  0  0  0  0  0  0  0
  -27.2150  -28.4760   20.5610 C   0  0  0  0  0  3  0  0  0  0  0  0
  -26.0130  -26.7670   19.3370 C   0  0  0  0  0  3  0  0  0  0  0  0
  -24.8430  -27.5390   19.3780 C   0  0  0  0  0  3  0  0  0  0  0  0
  -23.6210  -29.6650   20.0530 C   0  0  0  0  0  2  0  0  0  0  0  0
  -24.6960  -30.9080   21.9770 N   0  0  0  0  0  0  0  0  0  0  0  0
  -23.5640  -32.0000   23.6120 O   0  0  0  0  0  0  0  0  0  0  0  0
  -22.7520  -29.3190   22.3850 C   0  0  0  0  0  0  0  0  0  0  0  0
  -21.4200  -29.1880   22.2770 N   0  0  0  0  0  0  0  0  0  0  0  0
  -23.4260  -28.6440   23.1660 O   0  0  0  0  0  0  0  0  0  0  0  0
  -20.9430  -29.7930   21.6240 H   0  0  0  0  0  0  0  0  0  0  0  0
  -18.0010  -28.1340   22.8220 C   0  0  0  0  0  0  0  0  0  0  0  0
  -20.5740  -28.2620   23.0300 C   0  0  0  0  0  3  0  0  0  0  0  0
  -20.5910  -26.8490   22.4030 C   0  0  0  0  0  2  0  0  0  0  0  0
  -19.4480  -26.6110   21.4100 C   0  0  0  0  0  2  0  0  0  0  0  0
  -18.0930  -26.8020   22.0970 C   0  0  0  0  0  2  0  0  0  0  0  0
  -19.1660  -28.8290   23.2410 C   0  0  0  0  0  0  0  0  0  0  0  0
  -19.0250  -30.0820   23.8750 C   0  0  0  0  0  3  0  0  0  0  0  0
  -17.7510  -30.6370   24.0980 C   0  0  0  0  0  3  0  0  0  0  0  0
  -16.6000  -29.9330   23.7010 C   0  0  0  0  0  3  0  0  0  0  0  0
  -16.7270  -28.6860   23.0660 C   0  0  0  0  0  3  0  0  0  0  0  0
  -25.9350  -32.3160   23.7120 C   0  0  0  0  0  3  0  0  0  0  0  0
  -26.4630  -31.4990   24.9570 C   0  0  1  0  0  0  0  0  0  0  0  0
  -25.3810  -31.2250   26.0290 C   0  0  0  0  0  1  0  0  0  0  0  0
  -27.0460  -30.1380   24.5090 C   0  0  0  0  0  1  0  0  0  0  0  0
  -27.6170  -32.2730   25.6350 C   0  0  0  0  0  1  0  0  0  0  0  0
  -25.6280  -33.6990   24.0990 N   0  0  0  0  0  0  0  0  0  0  0  0
  -25.9590  -34.7810   23.3820 C   0  0  0  0  0  0  0  0  0  0  0  0
  -26.6300  -34.7190   22.3470 O   0  0  0  0  0  0  0  0  0  0  0  0
  -25.0440  -33.8240   24.9120 H   0  0  0  0  0  0  0  0  0  0  0  0
  -24.2270  -36.5840   23.1080 C   0  0  0  0  0  1  0  0  0  0  0  0
  -25.4720  -36.1480   23.8980 C   0  0  0  0  0  3  0  0  0  0  0  0
  -27.6060  -37.0050   24.7590 C   0  0  0  0  0  1  0  0  0  0  0  0
  -26.5010  -37.2080   23.8260 N   0  0  0  0  0  0  0  0  0  0  0  0
  -26.0920  -38.1200   24.0070 H   0  0  0  0  0  0  0  0  0  0  0  0
  1  2  2  0
  2  3  1  0
  3  7  2  0
  4  1  1  0
  5  6  1  0
  5  4  1  0
  6  3  1  0
  8  6  1  0
  8 12  1  0
  9 11  1  0
 10  9  2  0
 12 13  2  0
 12 10  1  0
 13 14  1  0
 14 11  2  0
 14 24  1  0
 15 24  1  0
 16 21  1  0
 17 18  1  0
 17 16  1  0
 19 18  1  0
 19 28  1  0
 19 20  1  0
 21 15  1  0
 21 20  1  0
 22 15  2  0
 24 23  1  0
 25 26  2  0
 26 45  1  0
 27 26  1  0
 27 30  1  0
 28 29  1  0
 28 25  1  0
 29 27  2  0
 30 31  1  0
 31 32  2  0
 33 36  1  0
 33 32  1  0
 34 33  2  0
 35 34  1  0
 35 30  2  0
 36 37  1  0
 37 42  2  0
 37 38  1  0
 38 39  2  0
 39 40  1  0
 40 44  1  0
 41 40  2  0
 42 41  1  0
 43 42  1  0
 45 46  1  0
 46 49  1  0
 46 48  1  0
 47 45  2  0
 50 25  1  0
 50 51  1  0
 52 50  1  0
 54 13  1  0
 54 53  1  0
 55  2  1  0
 55 56  1  0
 57 68  2  0
 58 56  1  0
 58 63  1  0
 59 67  1  0
 59 69  1  0
 60 66  1  0
 60 62  1  0
 61 67  1  0
 62 61  1  0
 63 62  2  0
 64 65  1  0
 64 58  2  0
 65 60  2  0
 66 59  1  0
 67 57  1  0
 69 71  2  0
 70 69  1  0
 72 70  1  0
 73 82  2  0
 73 78  1  0
 74 70  1  0
 74 78  1  0
 75 74  1  0
 76 77  1  0
 76 75  1  0
 77 73  1  0
 78 79  2  0
 79 80  1  0
 81 80  2  0
 82 81  1  0
 83 57  1  0
 83 88  1  0
 83 84  1  0
 84 87  1  1
 84 85  1  0
 86 84  1  0
 88 91  1  0
 89 93  1  0
 89 88  1  0
 90 89  2  0
 93 92  1  0
 95 93  1  0
 95 96  1  0
 95 94  1  0
M  ISO  4  15 100  24 100  55 101  56 101
M  END
>  <TORSDO>  (53) 
F 20

>  <SCORE>  (53) 
-12.696

>  <name>  (53) 
52

>  <ligand_id>  (53) 
52

>  <original_smiles>  (53) 
[H]C1=C(C([H])([H])Oc2c([H])c([H])c3c(c2[H])C([H])([H])N(C(=O)C([H])(N([H])C(=O)C([H])(N([H])C([H])([H])[H])C([H])([H])[H])C(C([H])([H])[H])(C([H])([H])[H])C([H])([H])[H])C([H])(C(=O)N([H])C2([H])c4c([H])c([H])c([H])c([H])c4C([H])([H])C([H])([H])C2([H])[H])C3([H])[H])C(=O)N(C([H])([H])c2c([H])c([H])c([H])c(N(C(=O)N3C([H])([H])C([H])([H])C([H])([H])C([H])(n4nc(-c5c([H])c([H])c(Oc6c([H])c([H])c(F)c([H])c6F)c([H])c5[H])c(C(=O)N([H])[H])c4N([H])[H])C3([H])[H])C([H])([H])[H])c2C([H])([H])C([H])([H])[H])C([H])([H])C1([H])[H]

>  <smiles>  (53) 
[H]C1=C(C([H])([H])Oc2c([H])c([H])c3c(c2[H])C([H])([H])N(C(=O)C([H])(N([H])C(=O)C([H])(N([H])C([H])([H])[H])C([H])([H])[H])C(C([H])([H])[H])(C([H])([H])[H])C([H])([H])[H])C([H])(C(=O)N([H])C2([H])c4c([H])c([H])c([H])c([H])c4C([H])([H])C([H])([H])C2([H])[H])C3([H])[H])C(=O)N(C([H])([H])c2c([H])c([H])c([H])c(N(C(=O)N3C([H])([H])C([H])([H])C([H])([H])C([H])(n4nc(-c5c([H])c([H])c(Oc6c([H])c([H])c(F)c([H])c6F)c([H])c5[H])c(C(=O)N([H])[H])c4N([H])[H])C3([H])[H])C([H])([H])[H])c2C([H])([H])C([H])([H])[H])C([H])([H])C1([H])[H]

$$$$
53:0:0
     RDKit          3D

 95103  0  0  1  0  0  0  0  0999 V2000
  -34.8760  -17.0700    7.1710 C   0  0  0  0  0  0  0  0  0  0  0  0
  -33.9470  -17.4200    8.0690 N   0  0  0  0  0  0  0  0  0  0  0  0
  -36.0120  -17.5470    7.1620 O   0  0  0  0  0  0  0  0  0  0  0  0
  -33.0300  -17.0110    7.9620 H   0  0  0  0  0  0  0  0  0  0  0  0
  -34.5910  -13.9420    4.9340 C   0  0  0  0  0  3  0  0  0  0  0  0
  -33.6670  -14.3930    3.9780 C   0  0  0  0  0  3  0  0  0  0  0  0
  -33.5070  -16.5210    5.1480 C   0  0  0  0  0  3  0  0  0  0  0  0
  -34.4480  -16.0870    6.1110 C   0  0  0  0  0  0  0  0  0  0  0  0
  -35.0080  -14.7800    5.9890 C   0  0  0  0  0  0  0  0  0  0  0  0
  -33.1140  -15.6820    4.0820 C   0  0  0  0  0  0  0  0  0  0  0  0
  -36.0930  -14.2450    6.9170 C   0  0  0  0  0  1  0  0  0  0  0  0
  -31.0450  -16.6490    3.1960 C   0  0  0  0  0  0  0  0  0  0  0  0
  -28.6260  -16.1780    3.2920 C   0  0  0  0  0  2  0  0  0  0  0  0
  -28.0650  -16.2370    4.7220 C   0  0  0  0  0  2  0  0  0  0  0  0
  -28.2210  -14.8760    5.4250 C   0  0  0  0  0  2  0  0  0  0  0  0
  -29.6650  -14.3230    5.3160 C   0  0  0  0  0  3  0  0  0  0  0  0
  -30.1460  -14.3680    3.8490 C   0  0  0  0  0  2  0  0  0  0  0  0
  -30.0320  -15.7560    3.3660 N   0  0  0  0  0  0  0  0  0  0  0  0
  -30.8550  -17.8550    3.0190 O   0  0  0  0  0  0  0  0  0  0  0  0
  -32.2780  -16.1470    3.0380 N   0  0  0  0  0  0  0  0  0  0  0  0
  -32.8000  -16.7220    2.3940 H   0  0  0  0  0  0  0  0  0  0  0  0
  -30.7570  -12.4090    6.6500 C   0  0  0  0  0  0  0  0  0  0  0  0
  -30.3200  -11.1520    6.9710 C   0  0  0  0  0  0  0  0  0  0  0  0
  -29.0340  -11.0140    6.3630 C   0  0  0  0  0  0  0  0  0  0  0  0
  -29.7560  -12.9750    5.8750 N   0  0  0  0  0  0  0  0  0  0  0  0
  -28.7370  -12.1020    5.6640 N   0  0  0  0  0  0  0  0  0  0  0  0
  -28.0460   -9.9330    6.4510 C   0  0  0  0  0  0  0  0  0  0  0  0
  -27.8700   -9.0070    5.3990 C   0  0  0  0  0  3  0  0  0  0  0  0
  -26.9270   -7.9640    5.5120 C   0  0  0  0  0  3  0  0  0  0  0  0
  -26.1490   -7.8350    6.6890 C   0  0  0  0  0  0  0  0  0  0  0  0
  -26.3120   -8.7720    7.7250 C   0  0  0  0  0  3  0  0  0  0  0  0
  -27.2490   -9.8140    7.6070 C   0  0  0  0  0  3  0  0  0  0  0  0
  -25.1910   -6.8680    6.8790 O   0  0  0  0  0  0  0  0  0  0  0  0
  -25.5290   -5.5680    7.1620 C   0  0  0  0  0  0  0  0  0  0  0  0
  -25.8230   -5.1430    8.4770 C   0  0  0  0  0  3  0  0  0  0  0  0
  -26.0950   -3.7840    8.7310 C   0  0  0  0  0  3  0  0  0  0  0  0
  -26.0670   -2.8490    7.6800 C   0  0  0  0  0  0  0  0  0  0  0  0
  -25.7690   -3.2710    6.3720 C   0  0  0  0  0  3  0  0  0  0  0  0
  -25.5000   -4.6260    6.1150 C   0  0  0  0  0  0  0  0  0  0  0  0
  -25.1930   -5.0230    4.8560 F   0  0  0  0  0  0  0  0  0  0  0  0
  -26.3210   -1.5430    7.9260 F   0  0  0  0  0  0  0  0  0  0  0  0
  -31.0100  -10.1660    7.8700 C   0  0  0  0  0  0  0  0  0  0  0  0
  -31.1810   -8.9300    7.4120 N   0  0  0  0  0  0  0  0  0  0  0  0
  -31.4490  -10.5000    8.9690 O   0  0  0  0  0  0  0  0  0  0  0  0
  -30.8480   -8.6560    6.5000 H   0  0  0  0  0  0  0  0  0  0  0  0
  -31.6580   -8.2450    7.9830 H   0  0  0  0  0  0  0  0  0  0  0  0
  -31.9100  -13.1230    6.9660 N   0  0  0  0  0  0  0  0  0  0  0  0
  -32.6560  -12.7260    7.5250 H   0  0  0  0  0  0  0  0  0  0  0  0
  -32.1310  -14.0390    6.5940 H   0  0  0  0  0  0  0  0  0  0  0  0
  -34.1560  -18.3260    9.1950 C   0  0  0  0  0  2  0  0  0  0  0  0
  -33.5810  -19.7350    8.9260 C   0  0  0  0  0  2  0  0  0  0  0  0
  -32.4430  -20.1220    9.8890 C   0  0  0  0  0  2  0  0  0  0  0  0
  -32.1790  -21.6360    9.9110 C   0  0  0  0  0  2  0  0  0  0  0  0
  -31.0720  -22.0760    8.9250 C   0  0  0  0  0  2  0  0  0  0  0  0
  -30.2280  -23.0980    9.4700 O   0  0  0  0  0  0  0  0  0  0  0  0
  -24.2350  -25.9080    6.8690 C   0  0  0  0  0  0  0  0  0  0  0  0
  -28.8540  -22.9690    9.3700 C   0  0  0  0  0  0  0  0  0  0  0  0
  -23.9390  -24.0480    8.4730 C   0  0  0  0  0  3  0  0  0  0  0  0
  -26.0490  -22.7550    9.0680 C   0  0  0  0  0  0  0  0  0  0  0  0
  -26.0510  -24.2120    7.0400 C   0  0  0  0  0  2  0  0  0  0  0  0
  -26.7910  -23.5270    8.1670 C   0  0  0  0  0  0  0  0  0  0  0  0
  -28.1910  -23.6430    8.3210 C   0  0  0  0  0  3  0  0  0  0  0  0
  -28.0840  -22.1840   10.2610 C   0  0  0  0  0  3  0  0  0  0  0  0
  -26.6910  -22.0870   10.1230 C   0  0  0  0  0  3  0  0  0  0  0  0
  -24.5580  -22.6760    8.8430 C   0  0  0  0  0  2  0  0  0  0  0  0
  -24.7450  -24.7830    7.4440 N   0  0  0  0  0  0  0  0  0  0  0  0
  -23.0970  -26.3110    7.1520 O   0  0  0  0  0  0  0  0  0  0  0  0
  -23.7190  -24.8590    9.7720 C   0  0  0  0  0  0  0  0  0  0  0  0
  -24.4860  -25.9490    9.9310 N   0  0  0  0  0  0  0  0  0  0  0  0
  -22.8620  -24.5200   10.5920 O   0  0  0  0  0  0  0  0  0  0  0  0
  -25.1740  -26.1500    9.2180 H   0  0  0  0  0  0  0  0  0  0  0  0
  -22.3630  -27.2280   12.5670 C   0  0  0  0  0  0  0  0  0  0  0  0
  -24.4320  -26.8870   11.0530 C   0  0  0  0  0  3  0  0  0  0  0  0
  -25.1210  -26.3010   12.3070 C   0  0  0  0  0  2  0  0  0  0  0  0
  -24.1520  -25.5780   13.2490 C   0  0  0  0  0  2  0  0  0  0  0  0
  -23.0530  -26.5290   13.7250 C   0  0  0  0  0  2  0  0  0  0  0  0
  -23.0040  -27.3820   11.3080 C   0  0  0  0  0  0  0  0  0  0  0  0
  -22.3000  -28.0080   10.2550 C   0  0  0  0  0  3  0  0  0  0  0  0
  -20.9850  -28.4720   10.4430 C   0  0  0  0  0  3  0  0  0  0  0  0
  -20.3620  -28.3290   11.6950 C   0  0  0  0  0  3  0  0  0  0  0  0
  -21.0530  -27.7150   12.7540 C   0  0  0  0  0  3  0  0  0  0  0  0
  -25.0450  -26.7280    5.8150 C   0  0  0  0  0  3  0  0  0  0  0  0
  -26.3740  -26.9880    6.3840 N   0  0  0  0  0  0  0  0  0  0  0  0
  -26.6030  -27.7620    7.4530 C   0  0  0  0  0  0  0  0  0  0  0  0
  -25.7140  -28.3970    8.0250 O   0  0  0  0  0  0  0  0  0  0  0  0
  -27.1420  -26.4610    5.9960 H   0  0  0  0  0  0  0  0  0  0  0  0
  -28.9840  -27.0840    7.0120 C   0  0  0  0  0  1  0  0  0  0  0  0
  -28.0520  -27.8420    7.9730 C   0  0  0  0  0  3  0  0  0  0  0  0
  -28.2270  -28.3640   10.3650 C   0  0  0  0  0  1  0  0  0  0  0  0
  -28.2140  -27.3160    9.3470 N   0  0  0  0  0  0  0  0  0  0  0  0
  -29.0760  -26.7810    9.4280 H   0  0  0  0  0  0  0  0  0  0  0  0
  -25.1660  -25.9980    4.4220 C   0  0  1  0  0  0  0  0  0  0  0  0
  -26.5880  -25.4800    4.1080 C   0  0  0  0  0  1  0  0  0  0  0  0
  -24.2010  -24.7920    4.3530 C   0  0  0  0  0  1  0  0  0  0  0  0
  -24.7520  -26.9660    3.2870 C   0  0  0  0  0  1  0  0  0  0  0  0
  1  2  1  0
  2 50  1  0
  3  1  2  0
  4  2  1  0
  5  9  1  0
  6 10  1  0
  6  5  2  0
  7  8  1  0
  8  1  1  0
  9  8  2  0
  9 11  1  0
 10  7  2  0
 12 18  1  0
 13 18  1  0
 13 14  1  0
 14 15  1  0
 16 17  1  0
 16 15  1  0
 16 25  1  0
 18 17  1  0
 19 12  2  0
 20 12  1  0
 20 10  1  0
 21 20  1  0
 22 47  1  0
 22 23  2  0
 23 42  1  0
 24 27  1  0
 24 23  1  0
 25 22  1  0
 26 25  1  0
 26 24  2  0
 27 32  1  0
 28 29  1  0
 28 27  2  0
 29 30  2  0
 30 33  1  0
 30 31  1  0
 32 31  2  0
 33 34  1  0
 34 35  1  0
 35 36  2  0
 37 41  1  0
 37 36  1  0
 38 37  2  0
 39 38  1  0
 39 34  2  0
 40 39  1  0
 42 44  2  0
 43 42  1  0
 43 46  1  0
 45 43  1  0
 47 48  1  0
 49 47  1  0
 51 50  1  0
 51 52  1  0
 52 53  1  0
 54 55  1  0
 54 53  1  0
 56 67  2  0
 56 66  1  0
 57 55  1  0
 57 63  1  0
 58 65  1  0
 58 68  1  0
 59 64  1  0
 60 66  1  0
 60 61  1  0
 61 62  1  0
 61 59  2  0
 62 57  2  0
 64 63  2  0
 65 59  1  0
 66 58  1  0
 68 69  1  0
 68 70  2  0
 71 69  1  0
 72 81  1  0
 72 76  1  0
 73 69  1  0
 73 77  1  0
 73 74  1  0
 74 75  1  0
 75 76  1  0
 77 72  2  0
 78 79  2  0
 78 77  1  0
 79 80  1  0
 80 81  2  0
 82 83  1  0
 82 56  1  0
 83 84  1  0
 84 88  1  0
 84 85  2  0
 86 83  1  0
 88 87  1  0
 88 90  1  0
 90 91  1  0
 90 89  1  0
 92 82  1  0
 92 93  1  6
 94 92  1  0
 95 92  1  0
M  ISO  4  12 100  20 100  54 101  55 101
M  END
>  <TORSDO>  (54) 
F 22

>  <SCORE>  (54) 
-4.731

>  <name>  (54) 
53

>  <ligand_id>  (54) 
53

>  <original_smiles>  (54) 
[H]c1c([H])c([H])c2c(c1[H])C([H])([H])C([H])([H])C([H])([H])C2([H])N([H])C(=O)C1([H])N(C(=O)C([H])(N([H])C(=O)C([H])(N([H])C([H])([H])[H])C([H])([H])[H])C(C([H])([H])[H])(C([H])([H])[H])C([H])([H])[H])C([H])([H])c2c([H])c(OC([H])([H])C([H])([H])C([H])([H])C([H])([H])C([H])([H])N([H])C(=O)c3c([H])c(N([H])C(=O)N4C([H])([H])C([H])([H])C([H])([H])C([H])(n5nc(-c6c([H])c([H])c(Oc7c([H])c([H])c(F)c([H])c7F)c([H])c6[H])c(C(=O)N([H])[H])c5N([H])[H])C4([H])[H])c([H])c([H])c3C([H])([H])[H])c([H])c([H])c2C1([H])[H]

>  <smiles>  (54) 
[H]c1c([H])c([H])c2c(c1[H])C([H])([H])C([H])([H])C([H])([H])C2([H])N([H])C(=O)C1([H])N(C(=O)C([H])(N([H])C(=O)C([H])(N([H])C([H])([H])[H])C([H])([H])[H])C(C([H])([H])[H])(C([H])([H])[H])C([H])([H])[H])C([H])([H])c2c([H])c(OC([H])([H])C([H])([H])C([H])([H])C([H])([H])C([H])([H])N([H])C(=O)c3c([H])c(N([H])C(=O)N4C([H])([H])C([H])([H])C([H])([H])C([H])(n5nc(-c6c([H])c([H])c(Oc7c([H])c([H])c(F)c([H])c7F)c([H])c6[H])c(C(=O)N([H])[H])c5N([H])[H])C4([H])[H])c([H])c([H])c3C([H])([H])[H])c([H])c([H])c2C1([H])[H]

$$$$
54:0:0
     RDKit          3D

 95103  0  0  1  0  0  0  0  0999 V2000
  -29.0930  -20.6420   19.9910 C   0  0  0  0  0  0  0  0  0  0  0  0
  -29.3400  -21.8210   20.6000 N   0  0  0  0  0  0  0  0  0  0  0  0
  -28.2060  -20.5270   19.1430 O   0  0  0  0  0  0  0  0  0  0  0  0
  -30.0700  -21.8250   21.2990 H   0  0  0  0  0  0  0  0  0  0  0  0
  -32.1910  -18.6530   21.0370 C   0  0  0  0  0  3  0  0  0  0  0  0
  -31.3190  -19.6970   20.6940 C   0  0  0  0  0  3  0  0  0  0  0  0
  -31.7320  -17.3260   21.0620 C   0  0  0  0  0  3  0  0  0  0  0  0
  -29.9570  -19.4500   20.4040 C   0  0  0  0  0  0  0  0  0  0  0  0
  -29.4880  -18.0860   20.4430 C   0  0  0  0  0  0  0  0  0  0  0  0
  -30.3940  -17.0090   20.7350 C   0  0  0  0  0  0  0  0  0  0  0  0
  -28.0230  -17.7590   20.1650 C   0  0  0  0  0  1  0  0  0  0  0  0
  -30.6570  -14.5490   20.2660 C   0  0  0  0  0  0  0  0  0  0  0  0
  -30.3040  -12.3930   19.1210 C   0  0  0  0  0  2  0  0  0  0  0  0
  -29.3260  -12.6040   17.9490 C   0  0  0  0  0  2  0  0  0  0  0  0
  -27.8680  -12.4610   18.4240 C   0  0  0  0  0  2  0  0  0  0  0  0
  -27.5700  -13.2800   19.7080 C   0  0  0  0  0  3  0  0  0  0  0  0
  -28.6660  -13.0710   20.7790 C   0  0  0  0  0  2  0  0  0  0  0  0
  -29.9640  -13.3790   20.1610 N   0  0  0  0  0  0  0  0  0  0  0  0
  -31.7930  -14.6650   19.8020 O   0  0  0  0  0  0  0  0  0  0  0  0
  -29.9670  -15.6260   20.7270 N   0  0  0  0  0  0  0  0  0  0  0  0
  -29.0020  -15.4470   20.9550 H   0  0  0  0  0  0  0  0  0  0  0  0
  -25.1900  -13.8590   20.4930 C   0  0  0  0  0  0  0  0  0  0  0  0
  -24.1400  -13.0770   20.8880 C   0  0  0  0  0  0  0  0  0  0  0  0
  -24.6080  -11.7280   20.8290 C   0  0  0  0  0  0  0  0  0  0  0  0
  -26.2350  -12.9890   20.2260 N   0  0  0  0  0  0  0  0  0  0  0  0
  -25.8890  -11.7010   20.4850 N   0  0  0  0  0  0  0  0  0  0  0  0
  -23.8920  -10.4600   21.0210 C   0  0  0  0  0  0  0  0  0  0  0  0
  -24.3420   -9.4930   21.9480 C   0  0  0  0  0  3  0  0  0  0  0  0
  -23.6260   -8.2900   22.1300 C   0  0  0  0  0  3  0  0  0  0  0  0
  -22.4470   -8.0460   21.3860 C   0  0  0  0  0  0  0  0  0  0  0  0
  -22.0180   -9.0010   20.4480 C   0  0  0  0  0  3  0  0  0  0  0  0
  -22.7330  -10.1960   20.2640 C   0  0  0  0  0  3  0  0  0  0  0  0
  -21.7020   -6.8960   21.4790 O   0  0  0  0  0  0  0  0  0  0  0  0
  -21.6630   -6.1550   22.6320 C   0  0  0  0  0  0  0  0  0  0  0  0
  -21.2060   -6.6980   23.8530 C   0  0  0  0  0  3  0  0  0  0  0  0
  -21.1170   -5.8820   24.9990 C   0  0  0  0  0  3  0  0  0  0  0  0
  -21.4750   -4.5220   24.9240 C   0  0  0  0  0  0  0  0  0  0  0  0
  -21.9260   -3.9770   23.7080 C   0  0  0  0  0  3  0  0  0  0  0  0
  -22.0160   -4.7910   22.5660 C   0  0  0  0  0  0  0  0  0  0  0  0
  -22.4300   -4.2560   21.3920 F   0  0  0  0  0  0  0  0  0  0  0  0
  -21.3830   -3.7360   26.0220 F   0  0  0  0  0  0  0  0  0  0  0  0
  -22.7470  -13.5420   21.2040 C   0  0  0  0  0  0  0  0  0  0  0  0
  -22.0460  -12.8290   22.0760 N   0  0  0  0  0  0  0  0  0  0  0  0
  -22.2930  -14.5750   20.7120 O   0  0  0  0  0  0  0  0  0  0  0  0
  -22.4270  -11.9930   22.4930 H   0  0  0  0  0  0  0  0  0  0  0  0
  -21.1140  -13.1210   22.3330 H   0  0  0  0  0  0  0  0  0  0  0  0
  -25.3370  -15.2310   20.3160 N   0  0  0  0  0  0  0  0  0  0  0  0
  -24.5560  -15.8690   20.4270 H   0  0  0  0  0  0  0  0  0  0  0  0
  -26.1400  -15.6610   19.8790 H   0  0  0  0  0  0  0  0  0  0  0  0
  -28.5910  -23.0850   20.4150 C   0  0  0  0  0  2  0  0  0  0  0  0
  -30.5310  -24.7340   20.5660 C   0  0  0  0  0  1  0  0  0  0  0  0
  -29.4580  -23.8780   22.6530 C   0  0  0  0  0  1  0  0  0  0  0  0
  -29.1900  -24.3140   21.1900 C   0  0  2  0  0  0  0  0  0  0  0  0
  -28.2070  -25.5470   21.2350 C   0  0  0  0  0  2  0  0  0  0  0  0
  -28.3720  -26.6180   20.2740 O   0  0  0  0  0  0  0  0  0  0  0  0
  -24.5800  -31.9060   23.2290 C   0  0  0  0  0  0  0  0  0  0  0  0
  -27.2550  -27.4290   20.2080 C   0  0  0  0  0  0  0  0  0  0  0  0
  -23.3930  -30.4930   21.5830 C   0  0  0  0  0  3  0  0  0  0  0  0
  -24.8660  -28.9540   20.1720 C   0  0  0  0  0  0  0  0  0  0  0  0
  -25.9240  -30.8520   21.4080 C   0  0  0  0  0  2  0  0  0  0  0  0
  -26.0210  -29.4780   20.7710 C   0  0  0  0  0  0  0  0  0  0  0  0
  -27.2220  -28.7240   20.7860 C   0  0  0  0  0  3  0  0  0  0  0  0
  -26.0890  -26.9310   19.5900 C   0  0  0  0  0  3  0  0  0  0  0  0
  -24.8980  -27.6810   19.5740 C   0  0  0  0  0  3  0  0  0  0  0  0
  -23.6180  -29.8100   20.2070 C   0  0  0  0  0  2  0  0  0  0  0  0
  -24.6500  -31.0990   22.1310 N   0  0  0  0  0  0  0  0  0  0  0  0
  -23.4920  -32.1820   23.7550 O   0  0  0  0  0  0  0  0  0  0  0  0
  -22.7360  -29.4750   22.5440 C   0  0  0  0  0  0  0  0  0  0  0  0
  -21.4110  -29.2960   22.4110 N   0  0  0  0  0  0  0  0  0  0  0  0
  -23.4140  -28.8490   23.3620 O   0  0  0  0  0  0  0  0  0  0  0  0
  -20.9280  -29.8540   21.7210 H   0  0  0  0  0  0  0  0  0  0  0  0
  -18.0220  -28.1500   22.9300 C   0  0  0  0  0  0  0  0  0  0  0  0
  -20.5860  -28.3620   23.1780 C   0  0  0  0  0  3  0  0  0  0  0  0
  -20.6600  -26.9380   22.5820 C   0  0  0  0  0  2  0  0  0  0  0  0
  -19.5420  -26.6450   21.5760 C   0  0  0  0  0  2  0  0  0  0  0  0
  -18.1690  -26.8060   22.2350 C   0  0  0  0  0  2  0  0  0  0  0  0
  -19.1570  -28.8880   23.3560 C   0  0  0  0  0  0  0  0  0  0  0  0
  -18.9670  -30.1480   23.9640 C   0  0  0  0  0  3  0  0  0  0  0  0
  -17.6730  -30.6700   24.1490 C   0  0  0  0  0  3  0  0  0  0  0  0
  -16.5520  -29.9270   23.7400 C   0  0  0  0  0  3  0  0  0  0  0  0
  -16.7270  -28.6680   23.1350 C   0  0  0  0  0  3  0  0  0  0  0  0
  -25.8590  -32.5440   23.8580 C   0  0  0  0  0  3  0  0  0  0  0  0
  -26.3660  -31.7800   25.1420 C   0  0  1  0  0  0  0  0  0  0  0  0
  -25.2620  -31.5420   26.1990 C   0  0  0  0  0  1  0  0  0  0  0  0
  -26.9610  -30.4060   24.7590 C   0  0  0  0  0  1  0  0  0  0  0  0
  -27.5060  -32.5840   25.8120 C   0  0  0  0  0  1  0  0  0  0  0  0
  -25.5450  -33.9440   24.1750 N   0  0  0  0  0  0  0  0  0  0  0  0
  -25.8900  -34.9920   23.4150 C   0  0  0  0  0  0  0  0  0  0  0  0
  -26.5800  -34.8840   22.3990 O   0  0  0  0  0  0  0  0  0  0  0  0
  -24.9370  -34.1030   24.9640 H   0  0  0  0  0  0  0  0  0  0  0  0
  -24.1820  -36.7900   23.0070 C   0  0  0  0  0  1  0  0  0  0  0  0
  -25.3950  -36.3820   23.8570 C   0  0  0  0  0  3  0  0  0  0  0  0
  -27.5040  -37.2610   24.7560 C   0  0  0  0  0  1  0  0  0  0  0  0
  -26.4350  -37.4300   23.7740 N   0  0  0  0  0  0  0  0  0  0  0  0
  -26.0300  -38.3520   23.9060 H   0  0  0  0  0  0  0  0  0  0  0  0
  1  8  1  0
  1  2  1  0
  2  4  1  0
  3  1  2  0
  5  7  1  0
  6  5  2  0
  8  9  2  0
  8  6  1  0
  9 10  1  0
 10  7  2  0
 11  9  1  0
 12 20  1  0
 13 18  1  0
 14 15  1  0
 14 13  1  0
 16 15  1  0
 16 25  1  0
 16 17  1  0
 18 12  1  0
 18 17  1  0
 19 12  2  0
 20 10  1  0
 20 21  1  0
 22 23  2  0
 23 42  1  0
 24 23  1  0
 24 27  1  0
 25 26  1  0
 25 22  1  0
 26 24  2  0
 27 28  1  0
 28 29  2  0
 30 33  1  0
 30 29  1  0
 31 30  2  0
 32 31  1  0
 32 27  2  0
 33 34  1  0
 34 35  1  0
 35 36  2  0
 37 36  1  0
 37 41  1  0
 38 37  2  0
 39 34  2  0
 39 38  1  0
 40 39  1  0
 42 43  1  0
 43 46  1  0
 43 45  1  0
 44 42  2  0
 47 48  1  0
 47 22  1  0
 49 47  1  0
 50  2  1  0
 50 53  1  0
 53 51  1  6
 53 54  1  0
 53 52  1  0
 55 54  1  0
 56 67  2  0
 57 55  1  0
 57 62  1  0
 58 66  1  0
 58 68  1  0
 59 65  1  0
 59 61  1  0
 60 66  1  0
 61 62  2  0
 61 60  1  0
 63 57  2  0
 64 63  1  0
 64 59  2  0
 65 58  1  0
 66 56  1  0
 68 70  2  0
 69 68  1  0
 71 69  1  0
 72 81  2  0
 72 77  1  0
 73 69  1  0
 73 77  1  0
 74 73  1  0
 75 76  1  0
 75 74  1  0
 76 72  1  0
 77 78  2  0
 78 79  1  0
 80 79  2  0
 81 80  1  0
 82 56  1  0
 82 87  1  0
 82 83  1  0
 83 86  1  1
 83 84  1  0
 85 83  1  0
 87 90  1  0
 88 92  1  0
 88 87  1  0
 89 88  2  0
 92 91  1  0
 94 92  1  0
 94 95  1  0
 94 93  1  0
M  ISO  4  12 100  20 100  54 101  55 101
M  END
>  <TORSDO>  (55) 
F 20

>  <SCORE>  (55) 
-14.419

>  <name>  (55) 
54

>  <ligand_id>  (55) 
54

>  <original_smiles>  (55) 
[H]c1c([H])c(C(=O)N([H])C([H])([H])C(C([H])([H])[H])(C([H])([H])[H])C([H])([H])Oc2c([H])c([H])c3c(c2[H])C([H])([H])N(C(=O)C([H])(N([H])C(=O)C([H])(N([H])C([H])([H])[H])C([H])([H])[H])C(C([H])([H])[H])(C([H])([H])[H])C([H])([H])[H])C([H])(C(=O)N([H])C2([H])c4c([H])c([H])c([H])c([H])c4C([H])([H])C([H])([H])C2([H])[H])C3([H])[H])c(C([H])([H])[H])c(N([H])C(=O)N2C([H])([H])C([H])([H])C([H])([H])C([H])(n3nc(-c4c([H])c([H])c(Oc5c([H])c([H])c(F)c([H])c5F)c([H])c4[H])c(C(=O)N([H])[H])c3N([H])[H])C2([H])[H])c1[H]

>  <smiles>  (55) 
[H]c1c([H])c(C(=O)N([H])C([H])([H])C(C([H])([H])[H])(C([H])([H])[H])C([H])([H])Oc2c([H])c([H])c3c(c2[H])C([H])([H])N(C(=O)C([H])(N([H])C(=O)C([H])(N([H])C([H])([H])[H])C([H])([H])[H])C(C([H])([H])[H])(C([H])([H])[H])C([H])([H])[H])C([H])(C(=O)N([H])C2([H])c4c([H])c([H])c([H])c([H])c4C([H])([H])C([H])([H])C2([H])[H])C3([H])[H])c(C([H])([H])[H])c(N([H])C(=O)N2C([H])([H])C([H])([H])C([H])([H])C([H])(n3nc(-c4c([H])c([H])c(Oc5c([H])c([H])c(F)c([H])c5F)c([H])c4[H])c(C(=O)N([H])[H])c3N([H])[H])C2([H])[H])c1[H]

$$$$
55:0:0
     RDKit          3D

 99108  0  0  1  0  0  0  0  0999 V2000
  -30.9570  -20.6870   18.6340 C   0  0  0  0  0  2  0  0  0  0  0  0
  -31.1910  -23.1710   18.4890 C   0  0  0  0  0  0  0  0  0  0  0  0
  -30.5730  -24.5870   18.4350 C   0  0  0  0  0  2  0  0  0  0  0  0
  -28.3330  -23.6190   18.8540 C   0  0  0  0  0  2  0  0  0  0  0  0
  -28.9200  -22.1780   18.7290 C   0  0  0  0  0  2  0  0  0  0  0  0
  -29.1100  -24.5970   17.9590 C   0  0  0  0  0  3  0  0  0  0  0  0
  -30.3990  -22.0790   18.6950 N   0  0  0  0  0  0  0  0  0  0  0  0
  -32.4160  -23.0850   18.3570 O   0  0  0  0  0  0  0  0  0  0  0  0
  -28.4840  -26.0140   17.7000 C   0  0  0  0  0  2  0  0  0  0  0  0
  -28.3510  -26.9440   18.8000 O   0  0  0  0  0  0  0  0  0  0  0  0
  -24.7060  -31.6880   22.7360 C   0  0  0  0  0  0  0  0  0  0  0  0
  -27.1580  -27.6360   18.9720 C   0  0  0  0  0  0  0  0  0  0  0  0
  -23.3760  -30.3660   21.1240 C   0  0  0  0  0  3  0  0  0  0  0  0
  -24.7160  -29.0290   19.4110 C   0  0  0  0  0  0  0  0  0  0  0  0
  -25.8480  -30.8610   20.6760 C   0  0  0  0  0  2  0  0  0  0  0  0
  -25.9150  -29.5540   19.9070 C   0  0  0  0  0  0  0  0  0  0  0  0
  -27.1350  -28.8600   19.6940 C   0  0  0  0  0  3  0  0  0  0  0  0
  -25.9270  -27.1240   18.4990 C   0  0  0  0  0  3  0  0  0  0  0  0
  -24.7180  -27.8120   18.7100 C   0  0  0  0  0  3  0  0  0  0  0  0
  -23.4510  -29.8170   19.6760 C   0  0  0  0  0  2  0  0  0  0  0  0
  -24.6670  -30.9840   21.5690 N   0  0  0  0  0  0  0  0  0  0  0  0
  -23.6840  -31.8570   23.4170 O   0  0  0  0  0  0  0  0  0  0  0  0
  -22.8840  -29.2360   22.0580 C   0  0  0  0  0  0  0  0  0  0  0  0
  -21.5850  -28.9090   21.9730 N   0  0  0  0  0  0  0  0  0  0  0  0
  -23.6680  -28.6590   22.8160 O   0  0  0  0  0  0  0  0  0  0  0  0
  -21.0050  -29.4350   21.3340 H   0  0  0  0  0  0  0  0  0  0  0  0
  -18.4010  -27.2880   22.5140 C   0  0  0  0  0  0  0  0  0  0  0  0
  -20.9150  -27.8500   22.7270 C   0  0  0  0  0  3  0  0  0  0  0  0
  -21.1740  -26.4640   22.0920 C   0  0  0  0  0  2  0  0  0  0  0  0
  -20.0890  -26.0450   21.0960 C   0  0  0  0  0  2  0  0  0  0  0  0
  -18.7190  -25.9960   21.7810 C   0  0  0  0  0  2  0  0  0  0  0  0
  -19.4310  -28.1660   22.9440 C   0  0  0  0  0  0  0  0  0  0  0  0
  -19.0780  -29.3700   23.5910 C   0  0  0  0  0  3  0  0  0  0  0  0
  -17.7270  -29.7010   23.8100 C   0  0  0  0  0  3  0  0  0  0  0  0
  -16.7130  -28.8200   23.3960 C   0  0  0  0  0  3  0  0  0  0  0  0
  -17.0490  -27.6160   22.7540 C   0  0  0  0  0  3  0  0  0  0  0  0
  -26.0270  -32.3320   23.2590 C   0  0  0  0  0  3  0  0  0  0  0  0
  -26.8280  -31.3970   24.2450 C   0  0  1  0  0  0  0  0  0  0  0  0
  -25.9670  -30.8220   25.3930 C   0  0  0  0  0  1  0  0  0  0  0  0
  -27.4540  -30.2050   23.4820 C   0  0  0  0  0  1  0  0  0  0  0  0
  -28.0020  -32.1820   24.8760 C   0  0  0  0  0  1  0  0  0  0  0  0
  -25.6710  -33.5960   23.9190 N   0  0  0  0  0  0  0  0  0  0  0  0
  -25.7670  -34.8050   23.3490 C   0  0  0  0  0  0  0  0  0  0  0  0
  -26.2380  -34.9780   22.2210 O   0  0  0  0  0  0  0  0  0  0  0  0
  -25.2280  -33.5260   24.8230 H   0  0  0  0  0  0  0  0  0  0  0  0
  -23.8660  -36.4210   23.6590 C   0  0  0  0  0  1  0  0  0  0  0  0
  -25.2610  -36.0140   24.1580 C   0  0  0  0  0  3  0  0  0  0  0  0
  -27.4170  -36.9750   24.8320 C   0  0  0  0  0  1  0  0  0  0  0  0
  -26.1680  -37.1800   24.1030 N   0  0  0  0  0  0  0  0  0  0  0  0
  -25.7130  -38.0080   24.4800 H   0  0  0  0  0  0  0  0  0  0  0  0
  -31.2090  -18.3890   19.7110 C   0  0  0  0  0  3  0  0  0  0  0  0
  -31.3700  -18.0350   22.1010 C   0  0  0  0  0  3  0  0  0  0  0  0
  -31.1520  -19.8070   19.9060 C   0  0  0  0  0  0  0  0  0  0  0  0
  -31.3320  -19.4230   22.3390 C   0  0  0  0  0  0  0  0  0  0  0  0
  -31.3010  -20.3210   21.2330 C   0  0  0  0  0  0  0  0  0  0  0  0
  -31.3480  -17.4970   20.8080 C   0  0  0  0  0  0  0  0  0  0  0  0
  -31.4810  -21.8130   21.4790 C   0  0  0  0  0  1  0  0  0  0  0  0
  -31.9600  -15.1200   20.0350 C   0  0  0  0  0  0  0  0  0  0  0  0
  -31.6270  -12.8390   19.1060 C   0  0  0  0  0  2  0  0  0  0  0  0
  -30.6750  -12.9220   17.8930 C   0  0  0  0  0  2  0  0  0  0  0  0
  -29.1960  -12.9000   18.3310 C   0  0  0  0  0  2  0  0  0  0  0  0
  -28.9050  -13.8930   19.4870 C   0  0  0  0  0  3  0  0  0  0  0  0
  -29.9450  -13.7150   20.6130 C   0  0  0  0  0  2  0  0  0  0  0  0
  -31.2880  -13.9320   20.0320 N   0  0  0  0  0  0  0  0  0  0  0  0
  -33.0260  -15.2970   19.4340 O   0  0  0  0  0  0  0  0  0  0  0  0
  -31.3490  -16.0640   20.7770 N   0  0  0  0  0  0  0  0  0  0  0  0
  -30.6460  -15.6530   21.3720 H   0  0  0  0  0  0  0  0  0  0  0  0
  -26.6120  -14.7430   20.2980 C   0  0  0  0  0  0  0  0  0  0  0  0
  -25.4660  -14.0840   20.6560 C   0  0  0  0  0  0  0  0  0  0  0  0
  -25.7590  -12.6910   20.5340 C   0  0  0  0  0  0  0  0  0  0  0  0
  -27.5370  -13.7580   19.9860 N   0  0  0  0  0  0  0  0  0  0  0  0
  -27.0260  -12.5160   20.1820 N   0  0  0  0  0  0  0  0  0  0  0  0
  -24.8910  -11.5150   20.6770 C   0  0  0  0  0  0  0  0  0  0  0  0
  -25.2740  -10.4080   21.4670 C   0  0  0  0  0  3  0  0  0  0  0  0
  -24.4160   -9.2950   21.6020 C   0  0  0  0  0  3  0  0  0  0  0  0
  -23.1610   -9.2830   20.9480 C   0  0  0  0  0  0  0  0  0  0  0  0
  -22.7940  -10.3790   20.1470 C   0  0  0  0  0  3  0  0  0  0  0  0
  -23.6510  -11.4830   20.0090 C   0  0  0  0  0  3  0  0  0  0  0  0
  -22.2760   -8.2340   20.9990 O   0  0  0  0  0  0  0  0  0  0  0  0
  -22.1520   -7.4500   22.1190 C   0  0  0  0  0  0  0  0  0  0  0  0
  -21.7900   -7.9940   23.3710 C   0  0  0  0  0  3  0  0  0  0  0  0
  -21.6050   -7.1440   24.4800 C   0  0  0  0  0  3  0  0  0  0  0  0
  -21.7700   -5.7530   24.3380 C   0  0  0  0  0  0  0  0  0  0  0  0
  -22.1250   -5.2110   23.0920 C   0  0  0  0  0  3  0  0  0  0  0  0
  -22.3130   -6.0570   21.9840 C   0  0  0  0  0  0  0  0  0  0  0  0
  -22.6340   -5.5270   20.7790 F   0  0  0  0  0  0  0  0  0  0  0  0
  -21.5840   -4.9360   25.4010 F   0  0  0  0  0  0  0  0  0  0  0  0
  -24.1440  -14.7080   21.0010 C   0  0  0  0  0  0  0  0  0  0  0  0
  -23.4100  -14.1190   21.9390 N   0  0  0  0  0  0  0  0  0  0  0  0
  -23.7740  -15.7550   20.4700 O   0  0  0  0  0  0  0  0  0  0  0  0
  -23.7210  -13.2720   22.3910 H   0  0  0  0  0  0  0  0  0  0  0  0
  -22.5240  -14.5230   22.2080 H   0  0  0  0  0  0  0  0  0  0  0  0
  -26.9380  -16.0910   20.1970 N   0  0  0  0  0  0  0  0  0  0  0  0
  -26.2660  -16.8310   20.3690 H   0  0  0  0  0  0  0  0  0  0  0  0
  -27.8390  -16.4360   19.8920 H   0  0  0  0  0  0  0  0  0  0  0  0
  -32.7450  -20.2340   24.3070 C   0  0  0  0  0  1  0  0  0  0  0  0
  -31.3370  -19.8790   23.8080 C   0  0  2  0  0  0  0  0  0  0  0  0
  -30.8940  -18.8880   24.5850 F   0  0  0  0  0  0  0  0  0  0  0  0
  -30.5070  -20.8990   24.0140 F   0  0  0  0  0  0  0  0  0  0  0  0
  1  7  1  0
  1 53  1  0
  2  7  1  0
  3  2  1  0
  5  4  1  0
  6  9  1  0
  6  3  1  0
  6  4  1  0
  7  5  1  0
  8  2  2  0
  9 10  1  0
 10 12  1  0
 11 22  2  0
 12 17  1  0
 13 21  1  0
 13 23  1  0
 14 20  1  0
 14 16  1  0
 15 21  1  0
 16 15  1  0
 17 16  2  0
 18 19  1  0
 18 12  2  0
 19 14  2  0
 20 13  1  0
 21 11  1  0
 23 25  2  0
 24 23  1  0
 26 24  1  0
 27 36  2  0
 27 32  1  0
 28 24  1  0
 28 32  1  0
 29 28  1  0
 30 31  1  0
 30 29  1  0
 31 27  1  0
 32 33  2  0
 33 34  1  0
 35 34  2  0
 36 35  1  0
 37 11  1  0
 37 42  1  0
 37 38  1  0
 38 41  1  1
 38 39  1  0
 40 38  1  0
 42 45  1  0
 43 42  1  0
 43 47  1  0
 44 43  2  0
 47 46  1  0
 49 47  1  0
 49 50  1  0
 49 48  1  0
 51 53  2  0
 51 56  1  0
 52 54  1  0
 53 55  1  0
 54 97  1  0
 55 57  1  0
 55 54  2  0
 56 52  2  0
 58 66  1  0
 59 64  1  0
 60 61  1  0
 60 59  1  0
 62 61  1  0
 62 71  1  0
 62 63  1  0
 64 58  1  0
 64 63  1  0
 65 58  2  0
 66 56  1  0
 66 67  1  0
 68 69  2  0
 69 88  1  0
 70 69  1  0
 70 73  1  0
 71 72  1  0
 71 68  1  0
 72 70  2  0
 73 74  1  0
 74 75  2  0
 76 79  1  0
 76 75  1  0
 77 76  2  0
 78 77  1  0
 78 73  2  0
 79 80  1  0
 80 81  1  0
 81 82  2  0
 83 82  1  0
 83 87  1  0
 84 83  2  0
 85 80  2  0
 85 84  1  0
 86 85  1  0
 88 89  1  0
 89 92  1  0
 89 91  1  0
 90 88  2  0
 93 68  1  0
 93 94  1  0
 95 93  1  0
 97 99  1  0
 97 96  1  1
 97 98  1  0
M  ISO  4   9 101  10 101  58 100  66 100
M  END
>  <TORSDO>  (56) 
F 20

>  <SCORE>  (56) 
-9.127

>  <name>  (56) 
55

>  <ligand_id>  (56) 
55

>  <original_smiles>  (56) 
[H]c1c([H])c([H])c2c(c1[H])C([H])([H])C([H])([H])C([H])([H])C2([H])N([H])C(=O)C1([H])N(C(=O)C([H])(N([H])C(=O)C([H])(N([H])C([H])([H])[H])C([H])([H])[H])C(C([H])([H])[H])(C([H])([H])[H])C([H])([H])[H])C([H])([H])c2c([H])c(OC([H])([H])C3([H])C([H])([H])C(=O)N(C([H])([H])c4c([H])c(N([H])C(=O)N5C([H])([H])C([H])([H])C([H])([H])C([H])(n6nc(-c7c([H])c([H])c(Oc8c([H])c([H])c(F)c([H])c8F)c([H])c7[H])c(C(=O)N([H])[H])c6N([H])[H])C5([H])[H])c([H])c(C(F)(F)C([H])([H])[H])c4C([H])([H])[H])C([H])([H])C3([H])[H])c([H])c([H])c2C1([H])[H]

>  <smiles>  (56) 
[H]c1c([H])c([H])c2c(c1[H])C([H])([H])C([H])([H])C([H])([H])C2([H])N([H])C(=O)C1([H])N(C(=O)C([H])(N([H])C(=O)C([H])(N([H])C([H])([H])[H])C([H])([H])[H])C(C([H])([H])[H])(C([H])([H])[H])C([H])([H])[H])C([H])([H])c2c([H])c(OC([H])([H])C3([H])C([H])([H])C(=O)N(C([H])([H])c4c([H])c(N([H])C(=O)N5C([H])([H])C([H])([H])C([H])([H])C([H])(n6nc(-c7c([H])c([H])c(Oc8c([H])c([H])c(F)c([H])c8F)c([H])c7[H])c(C(=O)N([H])[H])c6N([H])[H])C5([H])[H])c([H])c(C(F)(F)C([H])([H])[H])c4C([H])([H])[H])C([H])([H])C3([H])[H])c([H])c([H])c2C1([H])[H]

$$$$
56:0:0
     RDKit          3D

100109  0  0  1  0  0  0  0  0999 V2000
  -30.2820  -25.1560   20.2300 C   0  0  0  0  0  3  0  0  0  0  0  0
  -30.1610  -22.9170   21.3280 C   0  0  0  0  0  0  0  0  0  0  0  0
  -29.6740  -26.3680   20.0820 C   0  0  0  0  0  3  0  0  0  0  0  0
  -29.8790  -22.7270   22.6410 C   0  0  0  0  0  0  0  0  0  0  0  0
  -29.4670  -23.8700   20.3490 C   0  0  0  0  0  2  0  0  0  0  0  0
  -31.7970  -24.9260   20.0680 C   0  0  0  0  0  2  0  0  0  0  0  0
  -32.3930  -23.6000   20.6630 C   0  0  0  0  0  2  0  0  0  0  0  0
  -30.3980  -27.6780   19.8350 C   0  0  0  0  0  1  0  0  0  0  0  0
  -28.6650  -23.4010   23.2680 C   0  0  0  0  0  1  0  0  0  0  0  0
  -31.4520  -22.4480   20.7590 N   0  0  2  0  0  4  0  0  0  0  0  0
  -31.8820  -21.8600   21.4560 H   0  0  0  0  0  0  0  0  0  0  0  0
  -31.0830  -22.1360   24.7330 C   0  0  0  0  0  2  0  0  0  0  0  0
  -30.7500  -21.8850   23.4550 C   0  0  0  0  0  3  0  0  0  0  0  0
  -28.3850  -26.3550   19.6120 O   0  0  0  0  0  0  0  0  0  0  0  0
  -24.8270  -31.6470   23.1010 C   0  0  0  0  0  0  0  0  0  0  0  0
  -27.3110  -27.1690   19.9210 C   0  0  0  0  0  0  0  0  0  0  0  0
  -23.5410  -30.2560   21.5110 C   0  0  0  0  0  3  0  0  0  0  0  0
  -24.9250  -28.7000   20.0450 C   0  0  0  0  0  0  0  0  0  0  0  0
  -26.0620  -30.5840   21.2130 C   0  0  0  0  0  2  0  0  0  0  0  0
  -26.1150  -29.2000   20.5970 C   0  0  0  0  0  0  0  0  0  0  0  0
  -27.3140  -28.4370   20.5500 C   0  0  0  0  0  3  0  0  0  0  0  0
  -26.0990  -26.6840   19.3870 C   0  0  0  0  0  3  0  0  0  0  0  0
  -24.9130  -27.4340   19.4430 C   0  0  0  0  0  3  0  0  0  0  0  0
  -23.6960  -29.5780   20.1270 C   0  0  0  0  0  2  0  0  0  0  0  0
  -24.8300  -30.8430   21.9990 N   0  0  0  0  0  0  0  0  0  0  0  0
  -23.7760  -31.9250   23.6890 O   0  0  0  0  0  0  0  0  0  0  0  0
  -22.9230  -29.2380   22.4970 C   0  0  0  0  0  0  0  0  0  0  0  0
  -21.6120  -28.9870   22.3600 N   0  0  0  0  0  0  0  0  0  0  0  0
  -23.6260  -28.6710   23.3410 O   0  0  0  0  0  0  0  0  0  0  0  0
  -21.0960  -29.4970   21.6560 H   0  0  0  0  0  0  0  0  0  0  0  0
  -18.3240  -27.5570   22.7940 C   0  0  0  0  0  0  0  0  0  0  0  0
  -20.8340  -28.0410   23.1610 C   0  0  0  0  0  3  0  0  0  0  0  0
  -21.0790  -26.5870   22.6980 C   0  0  0  0  0  2  0  0  0  0  0  0
  -20.0600  -26.1080   21.6580 C   0  0  0  0  0  2  0  0  0  0  0  0
  -18.6390  -26.1840   22.2260 C   0  0  0  0  0  2  0  0  0  0  0  0
  -19.3560  -28.4350   23.2200 C   0  0  0  0  0  0  0  0  0  0  0  0
  -19.0090  -29.7120   23.7090 C   0  0  0  0  0  3  0  0  0  0  0  0
  -17.6630  -30.1180   23.7730 C   0  0  0  0  0  3  0  0  0  0  0  0
  -16.6450  -29.2430   23.3570 C   0  0  0  0  0  3  0  0  0  0  0  0
  -16.9740  -27.9640   22.8770 C   0  0  0  0  0  3  0  0  0  0  0  0
  -26.1470  -32.2680   23.6540 C   0  0  0  0  0  3  0  0  0  0  0  0
  -26.7680  -31.4420   24.8450 C   0  0  1  0  0  0  0  0  0  0  0  0
  -25.7580  -31.1190   25.9730 C   0  0  0  0  0  1  0  0  0  0  0  0
  -27.3480  -30.1010   24.3380 C   0  0  0  0  0  1  0  0  0  0  0  0
  -27.9480  -32.2230   25.4670 C   0  0  0  0  0  1  0  0  0  0  0  0
  -25.8410  -33.6410   24.0720 N   0  0  0  0  0  0  0  0  0  0  0  0
  -26.1390  -34.7350   23.3590 C   0  0  0  0  0  0  0  0  0  0  0  0
  -26.7760  -34.6940   22.3010 O   0  0  0  0  0  0  0  0  0  0  0  0
  -25.2740  -33.7430   24.9020 H   0  0  0  0  0  0  0  0  0  0  0  0
  -24.3960  -36.5320   23.1420 C   0  0  0  0  0  1  0  0  0  0  0  0
  -25.6590  -36.0960   23.9030 C   0  0  0  0  0  3  0  0  0  0  0  0
  -27.8080  -36.9370   24.7370 C   0  0  0  0  0  1  0  0  0  0  0  0
  -26.6850  -37.1580   23.8260 N   0  0  0  0  0  0  0  0  0  0  0  0
  -26.2810  -38.0650   24.0430 H   0  0  0  0  0  0  0  0  0  0  0  0
  -31.3820  -21.5160   19.5860 C   0  0  0  0  0  2  0  0  0  0  0  0
  -32.2070  -19.1220   19.2470 C   0  0  0  0  0  3  0  0  0  0  0  0
  -32.1210  -17.7270   19.4280 C   0  0  0  0  0  3  0  0  0  0  0  0
  -30.3820  -19.4400   20.8050 C   0  0  0  0  0  3  0  0  0  0  0  0
  -31.3370  -20.0060   19.9200 C   0  0  0  0  0  0  0  0  0  0  0  0
  -30.3360  -18.0420   21.0430 C   0  0  0  0  0  0  0  0  0  0  0  0
  -31.1840  -17.1540   20.3270 C   0  0  0  0  0  0  0  0  0  0  0  0
  -29.3650  -17.5000   22.0810 C   0  0  0  0  0  1  0  0  0  0  0  0
  -31.5890  -14.6970   19.8550 C   0  0  0  0  0  0  0  0  0  0  0  0
  -31.1330  -12.5320   18.7650 C   0  0  0  0  0  2  0  0  0  0  0  0
  -30.1220  -12.7430   17.6180 C   0  0  0  0  0  2  0  0  0  0  0  0
  -28.6780  -12.6470   18.1410 C   0  0  0  0  0  2  0  0  0  0  0  0
  -28.4410  -13.5170   19.4040 C   0  0  0  0  0  3  0  0  0  0  0  0
  -29.5600  -13.2970   20.4510 C   0  0  0  0  0  2  0  0  0  0  0  0
  -30.8600  -13.5450   19.7990 N   0  0  0  0  0  0  0  0  0  0  0  0
  -32.6760  -14.8070   19.2850 O   0  0  0  0  0  0  0  0  0  0  0  0
  -31.0110  -15.7320   20.5050 N   0  0  0  0  0  0  0  0  0  0  0  0
  -30.2080  -15.4680   21.0530 H   0  0  0  0  0  0  0  0  0  0  0  0
  -26.1280  -14.2130   20.2980 C   0  0  0  0  0  0  0  0  0  0  0  0
  -25.0500  -13.4820   20.7200 C   0  0  0  0  0  0  0  0  0  0  0  0
  -25.4380  -12.1110   20.6140 C   0  0  0  0  0  0  0  0  0  0  0  0
  -27.1110  -13.2910   19.9670 N   0  0  0  0  0  0  0  0  0  0  0  0
  -26.7010  -12.0190   20.2120 N   0  0  0  0  0  0  0  0  0  0  0  0
  -24.6630  -10.8800   20.8160 C   0  0  0  0  0  0  0  0  0  0  0  0
  -25.0340   -9.9260   21.7900 C   0  0  0  0  0  3  0  0  0  0  0  0
  -24.2640   -8.7580   21.9770 C   0  0  0  0  0  3  0  0  0  0  0  0
  -23.1090   -8.5350   21.1900 C   0  0  0  0  0  0  0  0  0  0  0  0
  -22.7560   -9.4780   20.2090 C   0  0  0  0  0  3  0  0  0  0  0  0
  -23.5260  -10.6370   20.0190 C   0  0  0  0  0  3  0  0  0  0  0  0
  -22.3150   -7.4170   21.2870 O   0  0  0  0  0  0  0  0  0  0  0  0
  -22.0860   -6.7980   22.4890 C   0  0  0  0  0  0  0  0  0  0  0  0
  -21.5490   -7.4930   23.5960 C   0  0  0  0  0  3  0  0  0  0  0  0
  -21.2630   -6.8000   24.7900 C   0  0  0  0  0  3  0  0  0  0  0  0
  -21.5050   -5.4170   24.8780 C   0  0  0  0  0  0  0  0  0  0  0  0
  -22.0330   -4.7220   23.7760 C   0  0  0  0  0  3  0  0  0  0  0  0
  -22.3200   -5.4110   22.5850 C   0  0  0  0  0  0  0  0  0  0  0  0
  -22.8100   -4.7330   21.5180 F   0  0  0  0  0  0  0  0  0  0  0  0
  -21.2230   -4.7510   26.0230 F   0  0  0  0  0  0  0  0  0  0  0  0
  -23.7010  -14.0170   21.1070 C   0  0  0  0  0  0  0  0  0  0  0  0
  -23.0230  -13.3590   22.0390 N   0  0  0  0  0  0  0  0  0  0  0  0
  -23.2620  -15.0570   20.6160 O   0  0  0  0  0  0  0  0  0  0  0  0
  -23.3900  -12.5190   22.4600 H   0  0  0  0  0  0  0  0  0  0  0  0
  -22.1190  -13.7020   22.3350 H   0  0  0  0  0  0  0  0  0  0  0  0
  -26.3520  -15.5790   20.1460 N   0  0  0  0  0  0  0  0  0  0  0  0
  -25.6240  -16.2660   20.3040 H   0  0  0  0  0  0  0  0  0  0  0  0
  -27.1860  -15.9740   19.7330 H   0  0  0  0  0  0  0  0  0  0  0  0
  1  3  1  0
  1  5  1  0
  2  4  2  0
  3  8  1  0
  4  9  1  0
  4 13  1  0
  5  2  1  0
  6  1  1  0
  6  7  1  0
  7 10  1  0
 10  2  1  0
 10 11  1  1
 13 12  2  0
 14 16  1  0
 14  3  1  0
 15 26  2  0
 16 21  1  0
 17 25  1  0
 17 27  1  0
 18 24  1  0
 18 20  1  0
 19 25  1  0
 20 19  1  0
 21 20  2  0
 22 23  1  0
 22 16  2  0
 23 18  2  0
 24 17  1  0
 25 15  1  0
 27 29  2  0
 28 27  1  0
 30 28  1  0
 31 40  2  0
 31 36  1  0
 32 28  1  0
 32 36  1  0
 33 32  1  0
 34 35  1  0
 34 33  1  0
 35 31  1  0
 36 37  2  0
 37 38  1  0
 39 38  2  0
 40 39  1  0
 41 15  1  0
 41 46  1  0
 41 42  1  0
 42 45  1  1
 42 43  1  0
 44 42  1  0
 46 49  1  0
 47 51  1  0
 47 46  1  0
 48 47  2  0
 51 50  1  0
 53 51  1  0
 53 54  1  0
 53 52  1  0
 55 59  1  0
 55 10  1  0
 56 57  2  0
 56 59  1  0
 57 61  1  0
 58 60  1  0
 59 58  2  0
 60 62  1  0
 61 71  1  0
 61 60  2  0
 63 71  1  0
 64 69  1  0
 65 66  1  0
 65 64  1  0
 67 66  1  0
 67 76  1  0
 67 68  1  0
 69 63  1  0
 69 68  1  0
 70 63  2  0
 71 72  1  0
 73 74  2  0
 74 93  1  0
 75 74  1  0
 75 78  1  0
 76 77  1  0
 76 73  1  0
 77 75  2  0
 78 79  1  0
 79 80  2  0
 81 84  1  0
 81 80  1  0
 82 81  2  0
 83 82  1  0
 83 78  2  0
 84 85  1  0
 85 90  2  0
 85 86  1  0
 86 87  2  0
 87 88  1  0
 88 92  1  0
 89 88  2  0
 90 89  1  0
 91 90  1  0
 93 94  1  0
 94 97  1  0
 94 96  1  0
 95 93  2  0
 98 73  1  0
 98 99  1  0
100 98  1  0
M  ISO  4   3 101  14 101  63 100  71 100
M  END
>  <TORSDO>  (57) 
F 19

>  <SCORE>  (57) 
-11.213

>  <name>  (57) 
56

>  <ligand_id>  (57) 
56

>  <original_smiles>  (57) 
[H]C([H])=C([H])C(=C1C([H])([H])C(=C(Oc2c([H])c([H])c3c(c2[H])C([H])([H])N(C(=O)C([H])(N([H])C(=O)C([H])(N([H])C([H])([H])[H])C([H])([H])[H])C(C([H])([H])[H])(C([H])([H])[H])C([H])([H])[H])C([H])(C(=O)N([H])C2([H])c4c([H])c([H])c([H])c([H])c4C([H])([H])C([H])([H])C2([H])[H])C3([H])[H])C([H])([H])[H])C([H])([H])C([H])([H])[N+]1([H])C([H])([H])c1c([H])c([H])c(N([H])C(=O)N2C([H])([H])C([H])([H])C([H])([H])C([H])(n3nc(-c4c([H])c([H])c(Oc5c([H])c([H])c(F)c([H])c5F)c([H])c4[H])c(C(=O)N([H])[H])c3N([H])[H])C2([H])[H])c(C([H])([H])[H])c1[H])C([H])([H])[H]

>  <smiles>  (57) 
[H]C([H])=C([H])C(=C1C([H])([H])C(=C(Oc2c([H])c([H])c3c(c2[H])C([H])([H])N(C(=O)C([H])(N([H])C(=O)C([H])(N([H])C([H])([H])[H])C([H])([H])[H])C(C([H])([H])[H])(C([H])([H])[H])C([H])([H])[H])C([H])(C(=O)N([H])C2([H])c4c([H])c([H])c([H])c([H])c4C([H])([H])C([H])([H])C2([H])[H])C3([H])[H])C([H])([H])[H])C([H])([H])C([H])([H])[N+]1([H])C([H])([H])c1c([H])c([H])c(N([H])C(=O)N2C([H])([H])C([H])([H])C([H])([H])C([H])(n3nc(-c4c([H])c([H])c(Oc5c([H])c([H])c(F)c([H])c5F)c([H])c4[H])c(C(=O)N([H])[H])c3N([H])[H])C2([H])[H])c(C([H])([H])[H])c1[H])C([H])([H])[H]

$$$$
57:0:0
     RDKit          3D

 98106  0  0  1  0  0  0  0  0999 V2000
  -27.3110  -21.3800   22.4500 C   0  0  0  0  0  2  0  0  0  0  0  0
  -28.9940  -19.4220   22.4950 C   0  0  0  0  0  0  0  0  0  0  0  0
  -27.8710  -20.0560   22.1300 N   0  0  0  0  0  0  0  0  0  0  0  0
  -30.1000  -19.9460   22.6230 O   0  0  0  0  0  0  0  0  0  0  0  0
  -27.1480  -19.3910   21.8870 H   0  0  0  0  0  0  0  0  0  0  0  0
  -27.8740  -16.0960   24.0580 C   0  0  0  0  0  3  0  0  0  0  0  0
  -28.8240  -15.2190   23.5080 C   0  0  0  0  0  3  0  0  0  0  0  0
  -29.7400  -17.0410   22.1820 C   0  0  0  0  0  3  0  0  0  0  0  0
  -28.8290  -17.9510   22.7710 C   0  0  0  0  0  0  0  0  0  0  0  0
  -27.8630  -17.4580   23.7010 C   0  0  0  0  0  0  0  0  0  0  0  0
  -29.7230  -15.6710   22.5200 C   0  0  0  0  0  0  0  0  0  0  0  0
  -26.8460  -18.3510   24.4050 C   0  0  0  0  0  1  0  0  0  0  0  0
  -30.8040  -14.3150   20.7630 C   0  0  0  0  0  0  0  0  0  0  0  0
  -30.4150  -12.3010   19.3830 C   0  0  0  0  0  2  0  0  0  0  0  0
  -29.4830  -12.5370   18.1800 C   0  0  0  0  0  2  0  0  0  0  0  0
  -28.0090  -12.3730   18.5910 C   0  0  0  0  0  2  0  0  0  0  0  0
  -27.6640  -13.1920   19.8580 C   0  0  0  0  0  3  0  0  0  0  0  0
  -28.6970  -12.9200   20.9680 C   0  0  0  0  0  2  0  0  0  0  0  0
  -30.0460  -13.2230   20.4710 N   0  0  0  0  0  0  0  0  0  0  0  0
  -31.7300  -14.7000   20.0420 O   0  0  0  0  0  0  0  0  0  0  0  0
  -30.7220  -14.7970   22.0160 N   0  0  0  0  0  0  0  0  0  0  0  0
  -31.6380  -15.1570   22.2400 H   0  0  0  0  0  0  0  0  0  0  0  0
  -25.2640  -13.8120   20.5720 C   0  0  0  0  0  0  0  0  0  0  0  0
  -24.1860  -13.0400   20.9190 C   0  0  0  0  0  0  0  0  0  0  0  0
  -24.6380  -11.6880   20.8700 C   0  0  0  0  0  0  0  0  0  0  0  0
  -26.3030  -12.9260   20.3230 N   0  0  0  0  0  0  0  0  0  0  0  0
  -25.9290  -11.6440   20.5660 N   0  0  0  0  0  0  0  0  0  0  0  0
  -23.9040  -10.4280   21.0360 C   0  0  0  0  0  0  0  0  0  0  0  0
  -24.3610   -9.4210   21.9140 C   0  0  0  0  0  3  0  0  0  0  0  0
  -23.6290   -8.2240   22.0720 C   0  0  0  0  0  3  0  0  0  0  0  0
  -22.4270   -8.0270   21.3530 C   0  0  0  0  0  0  0  0  0  0  0  0
  -21.9860   -9.0240   20.4630 C   0  0  0  0  0  3  0  0  0  0  0  0
  -22.7190  -10.2110   20.3050 C   0  0  0  0  0  3  0  0  0  0  0  0
  -21.6630   -6.8890   21.4250 O   0  0  0  0  0  0  0  0  0  0  0  0
  -21.6840   -6.0750   22.5290 C   0  0  0  0  0  0  0  0  0  0  0  0
  -21.4020   -6.5660   23.8230 C   0  0  0  0  0  3  0  0  0  0  0  0
  -21.3650   -5.6810   24.9190 C   0  0  0  0  0  3  0  0  0  0  0  0
  -21.6050   -4.3070   24.7250 C   0  0  0  0  0  0  0  0  0  0  0  0
  -21.8820   -3.8160   23.4360 C   0  0  0  0  0  3  0  0  0  0  0  0
  -21.9170   -4.6970   22.3430 C   0  0  0  0  0  0  0  0  0  0  0  0
  -22.1630   -4.2160   21.1010 F   0  0  0  0  0  0  0  0  0  0  0  0
  -21.5610   -3.4560   25.7760 F   0  0  0  0  0  0  0  0  0  0  0  0
  -22.7890  -13.5210   21.1840 C   0  0  0  0  0  0  0  0  0  0  0  0
  -22.0520  -12.8220   22.0400 N   0  0  0  0  0  0  0  0  0  0  0  0
  -22.3560  -14.5480   20.6630 O   0  0  0  0  0  0  0  0  0  0  0  0
  -22.4060  -11.9830   22.4750 H   0  0  0  0  0  0  0  0  0  0  0  0
  -21.1160  -13.1300   22.2580 H   0  0  0  0  0  0  0  0  0  0  0  0
  -25.4370  -15.1840   20.4270 N   0  0  0  0  0  0  0  0  0  0  0  0
  -24.6800  -15.8400   20.5910 H   0  0  0  0  0  0  0  0  0  0  0  0
  -26.3140  -15.6320   20.1860 H   0  0  0  0  0  0  0  0  0  0  0  0
  -29.4680  -22.6080   23.4900 C   0  0  0  0  0  1  0  0  0  0  0  0
  -28.1720  -22.6590   22.6650 C   0  0  0  0  0  3  0  0  0  0  0  0
  -28.2550  -24.7640   21.3450 C   0  0  0  0  0  0  0  0  0  0  0  0
  -28.3440  -23.4270   21.4310 N   0  0  0  0  0  0  0  0  0  0  0  0
  -28.0020  -25.4730   22.3240 O   0  0  0  0  0  0  0  0  0  0  0  0
  -28.5690  -22.9120   20.5890 H   0  0  0  0  0  0  0  0  0  0  0  0
  -28.5120  -25.3940   19.9690 C   0  0  0  0  0  2  0  0  0  0  0  0
  -28.4600  -26.8220   20.0470 O   0  0  0  0  0  0  0  0  0  0  0  0
  -24.6120  -31.8690   23.2150 C   0  0  0  0  0  0  0  0  0  0  0  0
  -27.2440  -27.4690   20.0750 C   0  0  0  0  0  0  0  0  0  0  0  0
  -23.3980  -30.4910   21.5540 C   0  0  0  0  0  3  0  0  0  0  0  0
  -24.8430  -28.9590   20.1200 C   0  0  0  0  0  0  0  0  0  0  0  0
  -25.9230  -30.8450   21.3610 C   0  0  0  0  0  2  0  0  0  0  0  0
  -25.9990  -29.4810   20.7080 C   0  0  0  0  0  0  0  0  0  0  0  0
  -27.1990  -28.7440   20.6800 C   0  0  0  0  0  3  0  0  0  0  0  0
  -26.0620  -26.9410   19.5060 C   0  0  0  0  0  3  0  0  0  0  0  0
  -24.8660  -27.6870   19.5250 C   0  0  0  0  0  3  0  0  0  0  0  0
  -23.6020  -29.8230   20.1700 C   0  0  0  0  0  2  0  0  0  0  0  0
  -24.6630  -31.0820   22.1030 N   0  0  0  0  0  0  0  0  0  0  0  0
  -23.5310  -32.1430   23.7560 O   0  0  0  0  0  0  0  0  0  0  0  0
  -22.7400  -29.4650   22.5040 C   0  0  0  0  0  0  0  0  0  0  0  0
  -21.4120  -29.3020   22.3800 N   0  0  0  0  0  0  0  0  0  0  0  0
  -23.4210  -28.8220   23.3070 O   0  0  0  0  0  0  0  0  0  0  0  0
  -20.9250  -29.8790   21.7080 H   0  0  0  0  0  0  0  0  0  0  0  0
  -18.0260  -28.1360   22.8490 C   0  0  0  0  0  0  0  0  0  0  0  0
  -20.5860  -28.3610   23.1360 C   0  0  0  0  0  3  0  0  0  0  0  0
  -20.6750  -26.9350   22.5440 C   0  0  0  0  0  2  0  0  0  0  0  0
  -19.5730  -26.6370   21.5230 C   0  0  0  0  0  2  0  0  0  0  0  0
  -18.1900  -26.7920   22.1620 C   0  0  0  0  0  2  0  0  0  0  0  0
  -19.1510  -28.8800   23.2910 C   0  0  0  0  0  0  0  0  0  0  0  0
  -18.9440  -30.1420   23.8890 C   0  0  0  0  0  3  0  0  0  0  0  0
  -17.6450  -30.6570   24.0550 C   0  0  0  0  0  3  0  0  0  0  0  0
  -16.5340  -29.9050   23.6330 C   0  0  0  0  0  3  0  0  0  0  0  0
  -16.7260  -28.6480   23.0350 C   0  0  0  0  0  3  0  0  0  0  0  0
  -25.9030  -32.4820   23.8450 C   0  0  0  0  0  3  0  0  0  0  0  0
  -25.5920  -33.8630   24.2370 N   0  0  0  0  0  0  0  0  0  0  0  0
  -25.9030  -34.9470   23.5160 C   0  0  0  0  0  0  0  0  0  0  0  0
  -26.5560  -34.8910   22.4700 O   0  0  0  0  0  0  0  0  0  0  0  0
  -25.0150  -33.9830   25.0580 H   0  0  0  0  0  0  0  0  0  0  0  0
  -24.1470  -36.7320   23.2650 C   0  0  0  0  0  1  0  0  0  0  0  0
  -25.4090  -36.3130   24.0360 C   0  0  0  0  0  3  0  0  0  0  0  0
  -27.5580  -37.1810   24.8470 C   0  0  0  0  0  1  0  0  0  0  0  0
  -26.4270  -37.3820   23.9440 N   0  0  0  0  0  0  0  0  0  0  0  0
  -26.0170  -38.2900   24.1440 H   0  0  0  0  0  0  0  0  0  0  0  0
  -26.4480  -31.6620   25.0780 C   0  0  1  0  0  0  0  0  0  0  0  0
  -25.3780  -31.3700   26.1560 C   0  0  0  0  0  1  0  0  0  0  0  0
  -27.0320  -30.3090   24.6140 C   0  0  0  0  0  1  0  0  0  0  0  0
  -27.6050  -32.4370   25.7510 C   0  0  0  0  0  1  0  0  0  0  0  0
  1 52  1  0
  2  4  2  0
  2  9  1  0
  3  1  1  0
  3  2  1  0
  5  3  1  0
  7  6  2  0
  8 11  2  0
  8  9  1  0
  9 10  2  0
 10  6  1  0
 10 12  1  0
 11  7  1  0
 13 21  1  0
 14 19  1  0
 15 16  1  0
 15 14  1  0
 17 16  1  0
 17 26  1  0
 17 18  1  0
 19 13  1  0
 19 18  1  0
 20 13  2  0
 21 22  1  0
 21 11  1  0
 23 24  2  0
 24 43  1  0
 25 24  1  0
 25 28  1  0
 26 27  1  0
 26 23  1  0
 27 25  2  0
 28 29  1  0
 29 30  2  0
 31 34  1  0
 31 30  1  0
 32 31  2  0
 33 32  1  0
 33 28  2  0
 34 35  1  0
 35 36  1  0
 36 37  2  0
 38 37  1  0
 38 42  1  0
 39 38  2  0
 40 35  2  0
 40 39  1  0
 41 40  1  0
 43 44  1  0
 44 47  1  0
 44 46  1  0
 45 43  2  0
 48 23  1  0
 48 49  1  0
 50 48  1  0
 52 51  1  0
 53 54  1  0
 53 55  2  0
 54 52  1  0
 56 54  1  0
 57 58  1  0
 57 53  1  0
 58 60  1  0
 59 70  2  0
 60 65  1  0
 61 69  1  0
 61 71  1  0
 62 68  1  0
 62 64  1  0
 63 69  1  0
 64 63  1  0
 65 64  2  0
 66 67  1  0
 66 60  2  0
 67 62  2  0
 68 61  1  0
 69 59  1  0
 71 73  2  0
 72 71  1  0
 74 72  1  0
 75 84  2  0
 75 80  1  0
 76 72  1  0
 76 80  1  0
 77 76  1  0
 78 79  1  0
 78 77  1  0
 79 75  1  0
 80 81  2  0
 81 82  1  0
 83 82  2  0
 84 83  1  0
 85 59  1  0
 85 86  1  0
 85 95  1  0
 86 89  1  0
 87 91  1  0
 87 86  1  0
 88 87  2  0
 91 90  1  0
 93 91  1  0
 93 94  1  0
 93 92  1  0
 95 98  1  1
 95 96  1  0
 97 95  1  0
M  ISO  4  13 100  21 100  57 101  58 101
M  END
>  <TORSDO>  (58) 
F 21

>  <SCORE>  (58) 
39.918

>  <name>  (58) 
57

>  <ligand_id>  (58) 
57

>  <original_smiles>  (58) 
[H]c1c([H])c([H])c2c(c1[H])C([H])([H])C([H])([H])C([H])([H])C2([H])N([H])C(=O)C1([H])N(C(=O)C([H])(N([H])C(=O)C([H])(N([H])C([H])([H])[H])C([H])([H])[H])C(C([H])([H])[H])(C([H])([H])[H])C([H])([H])[H])C([H])([H])c2c([H])c(OC([H])([H])C(=O)N([H])C([H])(C([H])([H])[H])C([H])([H])N([H])C(=O)c3c([H])c(N([H])C(=O)N4C([H])([H])C([H])([H])C([H])([H])C([H])(n5nc(-c6c([H])c([H])c(Oc7c([H])c([H])c(F)c([H])c7F)c([H])c6[H])c(C(=O)N([H])[H])c5N([H])[H])C4([H])[H])c([H])c([H])c3C([H])([H])[H])c([H])c([H])c2C1([H])[H]

>  <smiles>  (58) 
[H]c1c([H])c([H])c2c(c1[H])C([H])([H])C([H])([H])C([H])([H])C2([H])N([H])C(=O)C1([H])N(C(=O)C([H])(N([H])C(=O)C([H])(N([H])C([H])([H])[H])C([H])([H])[H])C(C([H])([H])[H])(C([H])([H])[H])C([H])([H])[H])C([H])([H])c2c([H])c(OC([H])([H])C(=O)N([H])C([H])(C([H])([H])[H])C([H])([H])N([H])C(=O)c3c([H])c(N([H])C(=O)N4C([H])([H])C([H])([H])C([H])([H])C([H])(n5nc(-c6c([H])c([H])c(Oc7c([H])c([H])c(F)c([H])c7F)c([H])c6[H])c(C(=O)N([H])[H])c5N([H])[H])C4([H])[H])c([H])c([H])c3C([H])([H])[H])c([H])c([H])c2C1([H])[H]

$$$$
58:0:0
     RDKit          3D

 96104  0  0  1  0  0  0  0  0999 V2000
  -31.4720  -20.0110   20.4150 C   0  0  1  0  0  0  0  0  0  0  0  0
  -32.3840  -19.7500   21.3520 F   0  0  0  0  0  0  0  0  0  0  0  0
  -32.1030  -19.9470   19.2390 F   0  0  0  0  0  0  0  0  0  0  0  0
  -28.7430  -16.5790   20.6670 C   0  0  0  0  0  3  0  0  0  0  0  0
  -28.2050  -17.8440   20.4060 C   0  0  0  0  0  3  0  0  0  0  0  0
  -30.9720  -17.5550   20.7180 C   0  0  0  0  0  3  0  0  0  0  0  0
  -30.4450  -18.8560   20.4710 C   0  0  0  0  0  0  0  0  0  0  0  0
  -30.1290  -16.4210   20.8150 C   0  0  0  0  0  0  0  0  0  0  0  0
  -29.0290  -18.9810   20.3150 C   0  0  0  0  0  0  0  0  0  0  0  0
  -28.1810  -20.4610   20.0300 Cl  0  0  0  0  0  0  0  0  0  0  0  0
  -30.9820  -14.2200   20.1730 C   0  0  0  0  0  0  0  0  0  0  0  0
  -30.6640  -11.9080   19.3560 C   0  0  0  0  0  2  0  0  0  0  0  0
  -29.7350  -11.8880   18.1260 C   0  0  0  0  0  2  0  0  0  0  0  0
  -28.2580  -11.8220   18.5550 C   0  0  0  0  0  2  0  0  0  0  0  0
  -27.9050  -12.8910   19.6210 C   0  0  0  0  0  3  0  0  0  0  0  0
  -28.9370  -12.8750   20.7720 C   0  0  0  0  0  2  0  0  0  0  0  0
  -30.2930  -13.0500   20.2050 N   0  0  0  0  0  0  0  0  0  0  0  0
  -31.9660  -14.4200   19.4520 O   0  0  0  0  0  0  0  0  0  0  0  0
  -30.5830  -15.1080   21.0900 N   0  0  0  0  0  0  0  0  0  0  0  0
  -30.0350  -14.6450   21.8000 H   0  0  0  0  0  0  0  0  0  0  0  0
  -25.5630  -13.6740   20.3620 C   0  0  0  0  0  0  0  0  0  0  0  0
  -24.4450  -12.9810   20.7460 C   0  0  0  0  0  0  0  0  0  0  0  0
  -24.8050  -11.5990   20.7070 C   0  0  0  0  0  0  0  0  0  0  0  0
  -26.5390  -12.7190   20.1160 N   0  0  0  0  0  0  0  0  0  0  0  0
  -26.0830  -11.4670   20.3780 N   0  0  0  0  0  0  0  0  0  0  0  0
  -23.9920  -10.3920   20.9110 C   0  0  0  0  0  0  0  0  0  0  0  0
  -24.3360   -9.4230   21.8800 C   0  0  0  0  0  3  0  0  0  0  0  0
  -23.5290   -8.2810   22.0680 C   0  0  0  0  0  3  0  0  0  0  0  0
  -22.3630   -8.0990   21.2860 C   0  0  0  0  0  0  0  0  0  0  0  0
  -22.0370   -9.0560   20.3100 C   0  0  0  0  0  3  0  0  0  0  0  0
  -22.8450  -10.1900   20.1200 C   0  0  0  0  0  3  0  0  0  0  0  0
  -21.5360   -7.0060   21.3800 O   0  0  0  0  0  0  0  0  0  0  0  0
  -21.3640   -6.3320   22.5620 C   0  0  0  0  0  0  0  0  0  0  0  0
  -20.8910   -6.9780   23.7250 C   0  0  0  0  0  3  0  0  0  0  0  0
  -20.6620   -6.2360   24.9020 C   0  0  0  0  0  3  0  0  0  0  0  0
  -20.8960   -4.8480   24.9140 C   0  0  0  0  0  0  0  0  0  0  0  0
  -21.3610   -4.2010   23.7560 C   0  0  0  0  0  3  0  0  0  0  0  0
  -21.5920   -4.9410   22.5820 C   0  0  0  0  0  0  0  0  0  0  0  0
  -22.0200   -4.3090   21.4620 F   0  0  0  0  0  0  0  0  0  0  0  0
  -20.6680   -4.1310   26.0390 F   0  0  0  0  0  0  0  0  0  0  0  0
  -23.0920  -13.5590   21.0440 C   0  0  0  0  0  0  0  0  0  0  0  0
  -22.3270  -12.9200   21.9220 N   0  0  0  0  0  0  0  0  0  0  0  0
  -22.7220  -14.6150   20.5330 O   0  0  0  0  0  0  0  0  0  0  0  0
  -22.6350  -12.0630   22.3570 H   0  0  0  0  0  0  0  0  0  0  0  0
  -21.4200  -13.2940   22.1600 H   0  0  0  0  0  0  0  0  0  0  0  0
  -25.8290  -15.0280   20.1860 N   0  0  0  0  0  0  0  0  0  0  0  0
  -25.1280  -15.7460   20.3280 H   0  0  0  0  0  0  0  0  0  0  0  0
  -26.7160  -15.3960   19.8670 H   0  0  0  0  0  0  0  0  0  0  0  0
  -30.5860  -22.3190   19.8060 C   0  0  0  0  0  0  0  0  0  0  0  0
  -31.0090  -21.3780   20.6670 N   0  0  0  0  0  0  0  0  0  0  0  0
  -30.6150  -22.1890   18.5800 O   0  0  0  0  0  0  0  0  0  0  0  0
  -30.9490  -21.6200   21.6440 H   0  0  0  0  0  0  0  0  0  0  0  0
  -30.0350  -23.4670   20.5140 C   0  0  0  0  0  3  0  0  0  0  0  0
  -29.2480  -24.3780   19.9040 C   0  0  0  0  0  3  0  0  0  0  0  0
  -28.5790  -25.5370   20.6290 C   0  0  0  0  0  2  0  0  0  0  0  0
  -28.5950  -26.7550   19.8780 O   0  0  0  0  0  0  0  0  0  0  0  0
  -24.5370  -31.6610   23.0820 C   0  0  0  0  0  0  0  0  0  0  0  0
  -27.4020  -27.4420   19.9000 C   0  0  0  0  0  0  0  0  0  0  0  0
  -23.4100  -30.2690   21.3760 C   0  0  0  0  0  3  0  0  0  0  0  0
  -24.9440  -28.8340   19.9270 C   0  0  0  0  0  0  0  0  0  0  0  0
  -25.9210  -30.7330   21.2310 C   0  0  0  0  0  2  0  0  0  0  0  0
  -26.0710  -29.3890   20.5480 C   0  0  0  0  0  0  0  0  0  0  0  0
  -27.3050  -28.7010   20.5300 C   0  0  0  0  0  3  0  0  0  0  0  0
  -26.2600  -26.8900   19.2830 C   0  0  0  0  0  3  0  0  0  0  0  0
  -25.0320  -27.5810   19.2930 C   0  0  0  0  0  3  0  0  0  0  0  0
  -23.6650  -29.6400   19.9800 C   0  0  0  0  0  2  0  0  0  0  0  0
  -24.6390  -30.9000   21.9560 N   0  0  0  0  0  0  0  0  0  0  0  0
  -23.4370  -31.8770   23.6110 O   0  0  0  0  0  0  0  0  0  0  0  0
  -22.7820  -29.1940   22.2920 C   0  0  0  0  0  0  0  0  0  0  0  0
  -21.4600  -28.9940   22.1590 N   0  0  0  0  0  0  0  0  0  0  0  0
  -23.4790  -28.5440   23.0750 O   0  0  0  0  0  0  0  0  0  0  0  0
  -20.9580  -29.5760   21.5040 H   0  0  0  0  0  0  0  0  0  0  0  0
  -18.1010  -27.7570   22.6470 C   0  0  0  0  0  0  0  0  0  0  0  0
  -20.6630  -28.0080   22.8870 C   0  0  0  0  0  3  0  0  0  0  0  0
  -20.7590  -26.6160   22.2220 C   0  0  0  0  0  2  0  0  0  0  0  0
  -19.6390  -26.3500   21.2110 C   0  0  0  0  0  2  0  0  0  0  0  0
  -18.2690  -26.4510   21.8890 C   0  0  0  0  0  2  0  0  0  0  0  0
  -19.2250  -28.4960   23.1020 C   0  0  0  0  0  0  0  0  0  0  0  0
  -19.0150  -29.7220   23.7690 C   0  0  0  0  0  3  0  0  0  0  0  0
  -17.7120  -30.2080   23.9880 C   0  0  0  0  0  3  0  0  0  0  0  0
  -16.6030  -29.4640   23.5520 C   0  0  0  0  0  3  0  0  0  0  0  0
  -16.7980  -28.2400   22.8880 C   0  0  0  0  0  3  0  0  0  0  0  0
  -25.7890  -32.3160   23.7440 C   0  0  0  0  0  3  0  0  0  0  0  0
  -26.3040  -31.5320   25.0130 C   0  0  1  0  0  0  0  0  0  0  0  0
  -25.1990  -31.2400   26.0550 C   0  0  0  0  0  1  0  0  0  0  0  0
  -26.9350  -30.1810   24.6010 C   0  0  0  0  0  1  0  0  0  0  0  0
  -27.4190  -32.3430   25.7170 C   0  0  0  0  0  1  0  0  0  0  0  0
  -25.4330  -33.6970   24.0970 N   0  0  0  0  0  0  0  0  0  0  0  0
  -25.7550  -34.7740   23.3690 C   0  0  0  0  0  0  0  0  0  0  0  0
  -26.4550  -34.7130   22.3540 O   0  0  0  0  0  0  0  0  0  0  0  0
  -24.8130  -33.8180   24.8860 H   0  0  0  0  0  0  0  0  0  0  0  0
  -23.9830  -36.5200   23.0040 C   0  0  0  0  0  1  0  0  0  0  0  0
  -25.2140  -36.1370   23.8420 C   0  0  0  0  0  3  0  0  0  0  0  0
  -27.3000  -37.0630   24.7460 C   0  0  0  0  0  1  0  0  0  0  0  0
  -26.2160  -37.2220   23.7800 N   0  0  0  0  0  0  0  0  0  0  0  0
  -25.7780  -38.1260   23.9450 H   0  0  0  0  0  0  0  0  0  0  0  0
  1  7  1  0
  1 50  1  0
  1  2  1  1
  3  1  1  0
  4  8  1  0
  5  4  2  0
  6  8  2  0
  7  6  1  0
  8 19  1  0
  9  5  1  0
  9  7  2  0
 10  9  1  0
 11 17  1  0
 11 19  1  0
 12 17  1  0
 13 14  1  0
 13 12  1  0
 15 14  1  0
 15 24  1  0
 15 16  1  0
 17 16  1  0
 18 11  2  0
 19 20  1  0
 21 22  2  0
 22 41  1  0
 23 22  1  0
 23 26  1  0
 24 21  1  0
 24 25  1  0
 25 23  2  0
 26 27  1  0
 27 28  2  0
 29 32  1  0
 29 28  1  0
 30 29  2  0
 31 30  1  0
 31 26  2  0
 32 33  1  0
 33 38  2  0
 33 34  1  0
 34 35  2  0
 35 36  1  0
 36 40  1  0
 37 36  2  0
 38 37  1  0
 39 38  1  0
 41 42  1  0
 42 45  1  0
 42 44  1  0
 43 41  2  0
 46 47  1  0
 46 21  1  0
 48 46  1  0
 49 53  1  0
 49 50  1  0
 50 52  1  0
 51 49  2  0
 54 53  2  0
 54 55  1  0
 56 58  1  0
 56 55  1  0
 57 68  2  0
 58 63  1  0
 59 67  1  0
 59 69  1  0
 60 66  1  0
 60 62  1  0
 61 67  1  0
 62 61  1  0
 63 62  2  0
 64 65  1  0
 64 58  2  0
 65 60  2  0
 66 59  1  0
 67 57  1  0
 69 71  2  0
 70 69  1  0
 72 70  1  0
 73 82  2  0
 73 78  1  0
 74 70  1  0
 74 78  1  0
 75 74  1  0
 76 77  1  0
 76 75  1  0
 77 73  1  0
 78 79  2  0
 79 80  1  0
 81 80  2  0
 82 81  1  0
 83 57  1  0
 83 88  1  0
 83 84  1  0
 84 87  1  1
 84 85  1  0
 86 84  1  0
 88 91  1  0
 89 93  1  0
 89 88  1  0
 90 89  2  0
 93 92  1  0
 95 93  1  0
 95 96  1  0
 95 94  1  0
M  ISO  4  11 100  19 100  55 101  56 101
M  END
>  <TORSDO>  (59) 
F 20

>  <SCORE>  (59) 
-13.521

>  <name>  (59) 
58

>  <ligand_id>  (59) 
58

>  <original_smiles>  (59) 
[H]C(C(=O)N([H])C(F)(F)c1c([H])c(N([H])C(=O)N2C([H])([H])C([H])([H])C([H])([H])C([H])(n3nc(-c4c([H])c([H])c(Oc5c([H])c([H])c(F)c([H])c5F)c([H])c4[H])c(C(=O)N([H])[H])c3N([H])[H])C2([H])[H])c([H])c([H])c1Cl)=C([H])C([H])([H])Oc1c([H])c([H])c2c(c1[H])C([H])([H])N(C(=O)C([H])(N([H])C(=O)C([H])(N([H])C([H])([H])[H])C([H])([H])[H])C(C([H])([H])[H])(C([H])([H])[H])C([H])([H])[H])C([H])(C(=O)N([H])C1([H])c3c([H])c([H])c([H])c([H])c3C([H])([H])C([H])([H])C1([H])[H])C2([H])[H]

>  <smiles>  (59) 
[H]C(C(=O)N([H])C(F)(F)c1c([H])c(N([H])C(=O)N2C([H])([H])C([H])([H])C([H])([H])C([H])(n3nc(-c4c([H])c([H])c(Oc5c([H])c([H])c(F)c([H])c5F)c([H])c4[H])c(C(=O)N([H])[H])c3N([H])[H])C2([H])[H])c([H])c([H])c1Cl)=C([H])C([H])([H])Oc1c([H])c([H])c2c(c1[H])C([H])([H])N(C(=O)C([H])(N([H])C(=O)C([H])(N([H])C([H])([H])[H])C([H])([H])[H])C(C([H])([H])[H])(C([H])([H])[H])C([H])([H])[H])C([H])(C(=O)N([H])C1([H])c3c([H])c([H])c([H])c([H])c3C([H])([H])C([H])([H])C1([H])[H])C2([H])[H]

$$$$
59:0:0
     RDKit          3D

 94 94  0  0  1  0  0  0  0  0999 V2000
  -20.8630  -26.4640   23.7090 C   0  0  0  0  0  2  0  0  0  0  0  0
  -20.3500  -26.0700   21.6680 N   0  0  0  0  0  1  0  0  0  0  0  0
  -20.1220  -26.5410   24.7040 O   0  0  0  0  0  1  0  0  0  0  0  0
  -19.3590  -26.1630   21.4830 H   0  0  0  0  0  0  0  0  0  0  0  0
  -22.4780  -26.8410   24.2870 C   0  0  0  0  0  3  0  0  0  0  0  0
  -23.9800  -26.8490   23.9020 C   0  0  0  0  0  3  0  0  0  0  0  0
  -25.1900  -26.3260   22.6490 C   0  0  0  0  0  2  0  0  0  0  0  0
  -26.6390  -26.7650   21.9650 O   0  0  0  0  0  0  0  0  0  0  0  0
  -24.7020  -31.9760   23.1540 C   0  0  0  0  0  0  0  0  0  0  0  0
  -26.7980  -27.3490   20.7120 C   0  0  0  0  0  3  0  0  0  0  0  0
  -23.5730  -30.7910   21.3330 C   0  0  0  0  0  3  0  0  0  0  0  0
  -24.9230  -29.1370   19.9670 C   0  0  0  0  0  0  0  0  0  0  0  0
  -26.0610  -30.9670   21.2840 C   0  0  0  0  0  2  0  0  0  0  0  0
  -26.0630  -29.5830   20.6510 C   0  0  0  0  0  0  0  0  0  0  0  0
  -27.1200  -28.7010   20.8700 C   0  0  0  0  0  2  0  0  0  0  0  0
  -25.9080  -26.9420   19.7050 C   0  0  0  0  0  3  0  0  0  0  0  0
  -24.8610  -27.8360   19.4150 C   0  0  0  0  0  3  0  0  0  0  0  0
  -23.8050  -30.1380   19.9260 C   0  0  0  0  0  2  0  0  0  0  0  0
  -24.8000  -31.2830   21.9800 N   0  0  0  0  0  0  0  0  0  0  0  0
  -23.6020  -32.2090   23.6870 O   0  0  0  0  0  0  0  0  0  0  0  0
  -23.0170  -29.7250   22.1950 C   0  0  0  0  0  0  0  0  0  0  0  0
  -21.9250  -29.2570   21.6640 N   0  0  0  0  0  0  0  0  0  0  0  0
  -23.5490  -29.3170   23.2250 O   0  0  0  0  0  0  0  0  0  0  0  0
  -21.5310  -29.6980   20.8450 H   0  0  0  0  0  0  0  0  0  0  0  0
  -18.4270  -27.3390   22.8390 C   0  0  0  0  0  0  0  0  0  0  0  0
  -21.3840  -28.1010   22.0990 C   0  0  0  0  0  2  0  0  0  0  0  0
  -22.4400  -25.8820   22.0710 C   0  0  0  0  0 15  0  0  0  0  0  0
  -20.5460  -24.2960   22.9090 C   0  0  0  0  0 15  0  0  0  0  0  0
  -18.6050  -25.4270   22.9930 C   0  0  0  0  0  1  0  0  0  0  0  0
  -19.5770  -28.4150   22.6120 C   0  0  0  0  0  0  0  0  0  0  0  0
  -19.2520  -29.7350   23.1900 C   0  0  0  0  0  3  0  0  0  0  0  0
  -17.9760  -30.1930   23.6410 C   0  0  0  0  0  3  0  0  0  0  0  0
  -16.8830  -29.3300   23.5130 C   0  0  0  0  0  3  0  0  0  0  0  0
  -17.1280  -27.9640   23.1430 C   0  0  0  0  0  3  0  0  0  0  0  0
  -25.9700  -32.5300   23.8490 C   0  0  0  0  0  3  0  0  0  0  0  0
  -25.6410  -33.8960   24.2620 N   0  0  0  0  0  0  0  0  0  0  0  0
  -25.9160  -34.9730   23.5210 C   0  0  0  0  0  0  0  0  0  0  0  0
  -26.5470  -34.9120   22.4630 O   0  0  0  0  0  0  0  0  0  0  0  0
  -25.0890  -34.0080   25.0990 H   0  0  0  0  0  0  0  0  0  0  0  0
  -24.1510  -36.7390   23.2590 C   0  0  0  0  0  1  0  0  0  0  0  0
  -25.4140  -36.3310   24.0350 C   0  0  0  0  0  3  0  0  0  0  0  0
  -27.5610  -37.1940   24.8470 C   0  0  0  0  0  1  0  0  0  0  0  0
  -26.4320  -37.3980   23.9440 N   0  0  0  0  0  0  0  0  0  0  0  0
  -26.0220  -38.3050   24.1480 H   0  0  0  0  0  0  0  0  0  0  0  0
  -26.4550  -31.6690   25.0730 C   0  0  1  0  0  0  0  0  0  0  0  0
  -25.3520  -31.3810   26.1170 C   0  0  0  0  0  1  0  0  0  0  0  0
  -27.0190  -30.3120   24.5940 C   0  0  0  0  0  1  0  0  0  0  0  0
  -27.6120  -32.4110   25.7790 C   0  0  0  0  0  1  0  0  0  0  0  0
  -21.2600  -24.4000   20.6030 C   0  0  0  0  0 15  0  0  0  0  0  0
  -24.7810  -22.4630   18.8200 C   0  0  0  0  0  3  0  0  0  0  0  0
  -23.6850  -23.2450   19.3590 C   0  0  0  0  0  3  0  0  0  0  0  0
  -25.4380  -21.2570   19.3000 C   0  0  0  0  0  3  0  0  0  0  0  0
  -23.7990  -21.5430   21.0060 C   0  0  0  0  0  3  0  0  0  0  0  0
  -22.8970  -22.9930   20.5190 C   0  0  0  0  0  3  0  0  0  0  0  0
  -25.1560  -20.5140   20.4880 C   0  0  0  0  0  3  0  0  0  0  0  0
  -26.4990  -18.8640   20.8890 C   0  0  0  0  0 15  0  0  0  0  0  0
  -29.0410  -16.1300   20.4260 C   0  0  0  0  0  0  0  0  0  0  0  0
  -30.1230  -13.6050   19.6070 C   0  0  0  0  0  2  0  0  0  0  0  0
  -29.4790  -12.8230   18.4030 C   0  0  0  0  0  2  0  0  0  0  0  0
  -28.1000  -12.2650   18.7890 C   0  0  0  0  0  2  0  0  0  0  0  0
  -27.4300  -13.2470   19.7660 C   0  0  0  0  0  3  0  0  0  0  0  0
  -28.2820  -13.6430   20.9600 C   0  0  0  0  0  2  0  0  0  0  0  0
  -29.1220  -14.6160   20.3140 N   0  0  0  0  0  0  0  0  0  0  0  0
  -30.3140  -16.2850   20.3250 O   0  0  0  0  0  0  0  0  0  0  0  0
  -27.7640  -17.3340   20.3230 N   0  0  0  0  0  2  0  0  0  0  0  0
  -28.1360  -17.7910   19.4950 H   0  0  0  0  0  0  0  0  0  0  0  0
  -25.1610  -13.8000   20.5650 C   0  0  0  0  0  0  0  0  0  0  0  0
  -24.1130  -13.0200   20.9310 C   0  0  0  0  0  0  0  0  0  0  0  0
  -24.5840  -11.6700   20.8780 C   0  0  0  0  0  0  0  0  0  0  0  0
  -26.1570  -12.9030   20.2580 N   0  0  0  0  0  0  0  0  0  0  0  0
  -25.8590  -11.6210   20.5380 N   0  0  0  0  0  0  0  0  0  0  0  0
  -23.8710  -10.4120   21.0480 C   0  0  0  0  0  0  0  0  0  0  0  0
  -24.3410   -9.4100   21.9230 C   0  0  0  0  0  3  0  0  0  0  0  0
  -23.6180   -8.2100   22.0760 C   0  0  0  0  0  3  0  0  0  0  0  0
  -22.4170   -8.0130   21.3540 C   0  0  0  0  0  0  0  0  0  0  0  0
  -21.9720   -9.0050   20.4630 C   0  0  0  0  0  3  0  0  0  0  0  0
  -22.6960  -10.1960   20.3070 C   0  0  0  0  0  3  0  0  0  0  0  0
  -21.6570   -6.8730   21.4230 O   0  0  0  0  0  0  0  0  0  0  0  0
  -21.6800   -6.0650   22.5290 C   0  0  0  0  0  0  0  0  0  0  0  0
  -21.3980   -6.5590   23.8220 C   0  0  0  0  0  3  0  0  0  0  0  0
  -21.3660   -5.6760   24.9190 C   0  0  0  0  0  3  0  0  0  0  0  0
  -21.6050   -4.3030   24.7250 C   0  0  0  0  0  0  0  0  0  0  0  0
  -21.8820   -3.8090   23.4380 C   0  0  0  0  0  3  0  0  0  0  0  0
  -21.9180   -4.6890   22.3430 C   0  0  0  0  0  0  0  0  0  0  0  0
  -22.1650   -4.2080   21.1000 F   0  0  0  0  0  0  0  0  0  0  0  0
  -21.5640   -3.4520   25.7770 F   0  0  0  0  0  0  0  0  0  0  0  0
  -22.7280  -13.5050   21.2080 C   0  0  0  0  0  0  0  0  0  0  0  0
  -22.0000  -12.8050   22.0670 N   0  0  0  0  0  0  0  0  0  0  0  0
  -22.3040  -14.5410   20.6950 O   0  0  0  0  0  0  0  0  0  0  0  0
  -22.3640  -11.9690   22.5000 H   0  0  0  0  0  0  0  0  0  0  0  0
  -21.0660  -13.1100   22.2980 H   0  0  0  0  0  0  0  0  0  0  0  0
  -25.3380  -15.1780   20.4400 N   0  0  0  0  0  0  0  0  0  0  0  0
  -24.5760  -15.8190   20.6280 H   0  0  0  0  0  0  0  0  0  0  0  0
  -26.1960  -15.6540   20.1890 H   0  0  0  0  0  0  0  0  0  0  0  0
  1  5  1  0
  1  3  1  0
  4  2  1  0
  6  5  2  0
  7  6  1  0
  8  7  1  0
  9 20  2  0
 10 15  1  0
 10  8  1  0
 11 19  1  0
 11 21  1  0
 12 14  2  0
 13 19  1  0
 14 15  1  0
 14 13  1  0
 16 10  1  0
 17 16  2  0
 17 12  1  0
 18 12  1  0
 18 11  1  0
 19  9  1  0
 21 23  2  0
 22 26  1  0
 22 21  1  0
 24 22  1  0
 25 29  1  0
 25 34  1  0
 26 30  1  0
 30 25  2  0
 30 31  1  0
 31 32  2  0
 33 32  1  0
 34 33  2  0
 35  9  1  0
 35 36  1  0
 35 45  1  0
 36 39  1  0
 37 41  1  0
 37 36  1  0
 38 37  2  0
 41 40  1  0
 43 41  1  0
 43 44  1  0
 43 42  1  0
 45 48  1  1
 45 46  1  0
 47 45  1  0
 50 52  2  0
 50 51  1  0
 51 54  2  0
 52 55  1  0
 54 53  1  0
 55 53  2  0
 58 63  1  0
 59 60  1  0
 59 58  1  0
 61 60  1  0
 61 70  1  0
 61 62  1  0
 63 57  1  0
 63 62  1  0
 64 57  2  0
 65 57  1  0
 66 65  1  0
 67 68  2  0
 68 87  1  0
 69 68  1  0
 69 72  1  0
 70 71  1  0
 70 67  1  0
 71 69  2  0
 72 73  1  0
 73 74  2  0
 75 78  1  0
 75 74  1  0
 76 75  2  0
 77 76  1  0
 77 72  2  0
 78 79  1  0
 79 80  1  0
 80 81  2  0
 82 81  1  0
 82 86  1  0
 83 82  2  0
 84 79  2  0
 84 83  1  0
 85 84  1  0
 87 88  1  0
 88 91  1  0
 88 90  1  0
 89 87  2  0
 92 67  1  0
 92 93  1  0
 94 92  1  0
M  ISO  4   7 101   8 101  57 100  65 100
M  END
>  <TORSDO>  (60) 
F 21

>  <SCORE>  (60) 
3.443

>  <name>  (60) 
59

>  <ligand_id>  (60) 
59

>  <original_smiles>  (60) 
[H]C(C(=O)N([H])C([H])([H])c1c([H])c([H])c([H])c(C([H])([H])N([H])C(=O)N2C([H])([H])C([H])([H])C([H])([H])C([H])(n3nc(-c4c([H])c([H])c(Oc5c([H])c([H])c(F)c([H])c5F)c([H])c4[H])c(C(=O)N([H])[H])c3N([H])[H])C2([H])[H])c1[H])=C([H])C([H])([H])Oc1c([H])c([H])c2c(c1[H])C([H])([H])N(C(=O)C([H])(N([H])C(=O)C([H])(N([H])C([H])([H])[H])C([H])([H])[H])C(C([H])([H])[H])(C([H])([H])[H])C([H])([H])[H])C([H])(C(=O)N([H])C1([H])c3c([H])c([H])c([H])c([H])c3C([H])([H])C([H])([H])C1([H])[H])C2([H])[H]

>  <smiles>  (60) 
[H]C(C(=O)N([H])C([H])([H])c1c([H])c([H])c([H])c(C([H])([H])N([H])C(=O)N2C([H])([H])C([H])([H])C([H])([H])C([H])(n3nc(-c4c([H])c([H])c(Oc5c([H])c([H])c(F)c([H])c5F)c([H])c4[H])c(C(=O)N([H])[H])c3N([H])[H])C2([H])[H])c1[H])=C([H])C([H])([H])Oc1c([H])c([H])c2c(c1[H])C([H])([H])N(C(=O)C([H])(N([H])C(=O)C([H])(N([H])C([H])([H])[H])C([H])([H])[H])C(C([H])([H])[H])(C([H])([H])[H])C([H])([H])[H])C([H])(C(=O)N([H])C1([H])c3c([H])c([H])c([H])c([H])c3C([H])([H])C([H])([H])C1([H])[H])C2([H])[H]

$$$$
60:0:0
     RDKit          3D

 97106  0  0  1  0  0  0  0  0999 V2000
  -28.7980  -23.1030   20.6030 C   0  0  0  0  0  0  0  0  0  0  0  0
  -29.0760  -20.7310   20.9830 C   0  0  0  0  0  0  0  0  0  0  0  0
  -31.5620  -23.3300   20.0890 C   0  0  0  0  0  2  0  0  0  0  0  0
  -30.7210  -24.6030   19.8160 C   0  0  0  0  0  2  0  0  0  0  0  0
  -30.8060  -22.0090   19.7670 C   0  0  0  0  0  2  0  0  0  0  0  0
  -29.2280  -24.2690   19.6620 C   0  0  0  0  0  3  0  0  0  0  0  0
  -29.4990  -21.9310   20.4670 N   0  0  0  0  0  0  0  0  0  0  0  0
  -27.8240  -23.2600   21.3490 O   0  0  0  0  0  0  0  0  0  0  0  0
  -28.5030  -20.6200   22.0740 O   0  0  0  0  0  0  0  0  0  0  0  0
  -29.6900  -18.2510   20.8300 C   0  0  0  0  0  3  0  0  0  0  0  0
  -29.5460  -16.9950   18.7520 C   0  0  0  0  0  3  0  0  0  0  0  0
  -29.2750  -19.4520   20.1700 C   0  0  0  0  0  0  0  0  0  0  0  0
  -28.9100  -19.3620   18.7900 C   0  0  0  0  0  0  0  0  0  0  0  0
  -29.8170  -17.0140   20.1380 C   0  0  0  0  0  0  0  0  0  0  0  0
  -29.0910  -18.1480   18.0940 C   0  0  0  0  0  0  0  0  0  0  0  0
  -28.2430  -20.4930   18.0110 C   0  0  0  0  0  1  0  0  0  0  0  0
  -28.7820  -18.0710   16.7780 F   0  0  0  0  0  0  0  0  0  0  0  0
  -30.8070  -14.7530   20.3080 C   0  0  0  0  0  0  0  0  0  0  0  0
  -30.5450  -12.5660   19.1980 C   0  0  0  0  0  2  0  0  0  0  0  0
  -29.5920  -12.7530   17.9980 C   0  0  0  0  0  2  0  0  0  0  0  0
  -28.1210  -12.6030   18.4340 C   0  0  0  0  0  2  0  0  0  0  0  0
  -27.7840  -13.4250   19.7080 C   0  0  0  0  0  3  0  0  0  0  0  0
  -28.8560  -13.2280   20.8050 C   0  0  0  0  0  2  0  0  0  0  0  0
  -30.1700  -13.5500   20.2280 N   0  0  0  0  0  0  0  0  0  0  0  0
  -31.9200  -14.9520   19.8130 O   0  0  0  0  0  0  0  0  0  0  0  0
  -30.0890  -15.7770   20.8230 N   0  0  0  0  0  0  0  0  0  0  0  0
  -29.3700  -15.4910   21.4710 H   0  0  0  0  0  0  0  0  0  0  0  0
  -25.3940  -13.9950   20.4690 C   0  0  0  0  0  0  0  0  0  0  0  0
  -24.3390  -13.2080   20.8410 C   0  0  0  0  0  0  0  0  0  0  0  0
  -24.8090  -11.8600   20.7750 C   0  0  0  0  0  0  0  0  0  0  0  0
  -26.4410  -13.1280   20.2020 N   0  0  0  0  0  0  0  0  0  0  0  0
  -26.0930  -11.8370   20.4440 N   0  0  0  0  0  0  0  0  0  0  0  0
  -24.0940  -10.5900   20.9530 C   0  0  0  0  0  0  0  0  0  0  0  0
  -24.5010   -9.6450   21.9210 C   0  0  0  0  0  3  0  0  0  0  0  0
  -23.7890   -8.4380   22.0870 C   0  0  0  0  0  3  0  0  0  0  0  0
  -22.6550   -8.1660   21.2860 C   0  0  0  0  0  0  0  0  0  0  0  0
  -22.2700   -9.0990   20.3070 C   0  0  0  0  0  3  0  0  0  0  0  0
  -22.9820  -10.2980   20.1400 C   0  0  0  0  0  3  0  0  0  0  0  0
  -21.9180   -7.0090   21.3570 O   0  0  0  0  0  0  0  0  0  0  0  0
  -21.7630   -6.3260   22.5370 C   0  0  0  0  0  0  0  0  0  0  0  0
  -21.1420   -6.9140   23.6630 C   0  0  0  0  0  3  0  0  0  0  0  0
  -20.9430   -6.1540   24.8320 C   0  0  0  0  0  3  0  0  0  0  0  0
  -21.3500   -4.8070   24.8760 C   0  0  0  0  0  0  0  0  0  0  0  0
  -21.9610   -4.2200   23.7550 C   0  0  0  0  0  3  0  0  0  0  0  0
  -22.1640   -4.9780   22.5880 C   0  0  0  0  0  0  0  0  0  0  0  0
  -22.7320   -4.3990   21.5030 F   0  0  0  0  0  0  0  0  0  0  0  0
  -21.1510   -4.0750   25.9960 F   0  0  0  0  0  0  0  0  0  0  0  0
  -22.9440  -13.6690   21.1490 C   0  0  0  0  0  0  0  0  0  0  0  0
  -22.2370  -12.9520   22.0170 N   0  0  0  0  0  0  0  0  0  0  0  0
  -22.4890  -14.7000   20.6560 O   0  0  0  0  0  0  0  0  0  0  0  0
  -22.6160  -12.1160   22.4380 H   0  0  0  0  0  0  0  0  0  0  0  0
  -21.3020  -13.2440   22.2640 H   0  0  0  0  0  0  0  0  0  0  0  0
  -25.5510  -15.3700   20.3170 N   0  0  0  0  0  0  0  0  0  0  0  0
  -24.7880  -16.0230   20.4550 H   0  0  0  0  0  0  0  0  0  0  0  0
  -26.4020  -15.8170   20.0020 H   0  0  0  0  0  0  0  0  0  0  0  0
  -28.2310  -25.4570   19.4450 C   0  0  0  0  0  2  0  0  0  0  0  0
  -28.3900  -26.7650   20.0750 O   0  0  0  0  0  0  0  0  0  0  0  0
  -24.7000  -31.9830   23.3620 C   0  0  0  0  0  0  0  0  0  0  0  0
  -27.2590  -27.5870   20.0760 C   0  0  0  0  0  0  0  0  0  0  0  0
  -23.4680  -30.6440   21.6980 C   0  0  0  0  0  3  0  0  0  0  0  0
  -24.8890  -29.1690   20.1860 C   0  0  0  0  0  0  0  0  0  0  0  0
  -26.0030  -30.9800   21.4820 C   0  0  0  0  0  2  0  0  0  0  0  0
  -26.0660  -29.6320   20.7870 C   0  0  0  0  0  0  0  0  0  0  0  0
  -27.2520  -28.8470   20.7380 C   0  0  0  0  0  3  0  0  0  0  0  0
  -26.0550  -27.1880   19.4360 C   0  0  0  0  0  3  0  0  0  0  0  0
  -24.8820  -27.9470   19.5080 C   0  0  0  0  0  3  0  0  0  0  0  0
  -23.6540  -30.0340   20.2870 C   0  0  0  0  0  2  0  0  0  0  0  0
  -24.7450  -31.2150   22.2370 N   0  0  0  0  0  0  0  0  0  0  0  0
  -23.6250  -32.2380   23.9250 O   0  0  0  0  0  0  0  0  0  0  0  0
  -22.8310  -29.5810   22.6240 C   0  0  0  0  0  0  0  0  0  0  0  0
  -21.5130  -29.3680   22.4750 N   0  0  0  0  0  0  0  0  0  0  0  0
  -23.5190  -28.9570   23.4350 O   0  0  0  0  0  0  0  0  0  0  0  0
  -21.0160  -29.9270   21.7950 H   0  0  0  0  0  0  0  0  0  0  0  0
  -18.1660  -28.0670   22.8950 C   0  0  0  0  0  0  0  0  0  0  0  0
  -20.7090  -28.3960   23.2180 C   0  0  0  0  0  3  0  0  0  0  0  0
  -20.8640  -26.9760   22.6270 C   0  0  0  0  0  2  0  0  0  0  0  0
  -19.7910  -26.6320   21.5900 C   0  0  0  0  0  2  0  0  0  0  0  0
  -18.3950  -26.7310   22.2090 C   0  0  0  0  0  2  0  0  0  0  0  0
  -19.2530  -28.8560   23.3550 C   0  0  0  0  0  0  0  0  0  0  0  0
  -18.9860  -30.1070   23.9540 C   0  0  0  0  0  3  0  0  0  0  0  0
  -17.6640  -30.5680   24.0980 C   0  0  0  0  0  3  0  0  0  0  0  0
  -16.5910  -29.7760   23.6560 C   0  0  0  0  0  3  0  0  0  0  0  0
  -16.8430  -28.5280   23.0600 C   0  0  0  0  0  3  0  0  0  0  0  0
  -25.9930  -32.5930   23.9830 C   0  0  0  0  0  3  0  0  0  0  0  0
  -25.6960  -33.9880   24.3340 N   0  0  0  0  0  0  0  0  0  0  0  0
  -26.0190  -35.0480   23.5820 C   0  0  0  0  0  0  0  0  0  0  0  0
  -26.6710  -34.9550   22.5380 O   0  0  0  0  0  0  0  0  0  0  0  0
  -25.1210  -34.1370   25.1500 H   0  0  0  0  0  0  0  0  0  0  0  0
  -24.2980  -36.8560   23.2690 C   0  0  0  0  0  1  0  0  0  0  0  0
  -25.5440  -36.4330   24.0630 C   0  0  0  0  0  3  0  0  0  0  0  0
  -27.6870  -37.2980   24.8950 C   0  0  0  0  0  1  0  0  0  0  0  0
  -26.5820  -37.4800   23.9580 N   0  0  0  0  0  0  0  0  0  0  0  0
  -26.1820  -38.4020   24.1150 H   0  0  0  0  0  0  0  0  0  0  0  0
  -26.5130  -31.7980   25.2430 C   0  0  1  0  0  0  0  0  0  0  0  0
  -25.4240  -31.5280   26.3050 C   0  0  0  0  0  1  0  0  0  0  0  0
  -27.1060  -30.4330   24.8190 C   0  0  0  0  0  1  0  0  0  0  0  0
  -27.6550  -32.5880   25.9250 C   0  0  0  0  0  1  0  0  0  0  0  0
  1  8  2  0
  2  9  2  0
  4  3  1  0
  5  3  1  0
  5  7  1  0
  6 56  1  0
  6  4  1  0
  6  1  1  0
  7  1  1  0
  7  2  1  0
 11 14  1  0
 12 10  1  0
 12  2  1  0
 13 12  2  0
 14 26  1  0
 14 10  2  0
 15 11  2  0
 15 13  1  0
 16 13  1  0
 17 15  1  0
 18 26  1  0
 19 24  1  0
 20 21  1  0
 20 19  1  0
 22 21  1  0
 22 31  1  0
 22 23  1  0
 24 18  1  0
 24 23  1  0
 25 18  2  0
 26 27  1  0
 28 29  2  0
 29 48  1  0
 30 29  1  0
 30 33  1  0
 31 32  1  0
 31 28  1  0
 32 30  2  0
 33 34  1  0
 34 35  2  0
 36 39  1  0
 36 35  1  0
 37 36  2  0
 38 37  1  0
 38 33  2  0
 39 40  1  0
 40 45  2  0
 40 41  1  0
 41 42  2  0
 42 43  1  0
 43 47  1  0
 44 43  2  0
 45 44  1  0
 46 45  1  0
 48 49  1  0
 49 52  1  0
 49 51  1  0
 50 48  2  0
 53 54  1  0
 53 28  1  0
 55 53  1  0
 56 57  1  0
 57 59  1  0
 58 69  2  0
 59 64  1  0
 60 68  1  0
 60 70  1  0
 61 67  1  0
 61 63  1  0
 62 68  1  0
 63 62  1  0
 64 63  2  0
 65 66  1  0
 65 59  2  0
 66 61  2  0
 67 60  1  0
 68 58  1  0
 70 72  2  0
 71 70  1  0
 73 71  1  0
 74 83  2  0
 74 79  1  0
 75 71  1  0
 75 79  1  0
 76 75  1  0
 77 78  1  0
 77 76  1  0
 78 74  1  0
 79 80  2  0
 80 81  1  0
 82 81  2  0
 83 82  1  0
 84 58  1  0
 84 85  1  0
 84 94  1  0
 85 88  1  0
 86 90  1  0
 86 85  1  0
 87 86  2  0
 90 89  1  0
 92 90  1  0
 92 93  1  0
 92 91  1  0
 94 97  1  1
 94 95  1  0
 96 94  1  0
M  ISO  4  18 100  26 100  56 101  57 101
M  END
>  <TORSDO>  (61) 
F 18

>  <SCORE>  (61) 
-14.114

>  <name>  (61) 
60

>  <ligand_id>  (61) 
60

>  <original_smiles>  (61) 
[H]c1c([H])c([H])c2c(c1[H])C([H])([H])C([H])([H])C([H])([H])C2([H])N([H])C(=O)C1([H])N(C(=O)C([H])(N([H])C(=O)C([H])(N([H])C([H])([H])[H])C([H])([H])[H])C(C([H])([H])[H])(C([H])([H])[H])C([H])([H])[H])C([H])([H])c2c([H])c(OC([H])([H])C3([H])C(=O)N(C(=O)c4c([H])c(N([H])C(=O)N5C([H])([H])C([H])([H])C([H])([H])C([H])(n6nc(-c7c([H])c([H])c(Oc8c([H])c([H])c(F)c([H])c8F)c([H])c7[H])c(C(=O)N([H])[H])c6N([H])[H])C5([H])[H])c([H])c(F)c4C([H])([H])[H])C([H])([H])C([H])([H])C3([H])[H])c([H])c([H])c2C1([H])[H]

>  <smiles>  (61) 
[H]c1c([H])c([H])c2c(c1[H])C([H])([H])C([H])([H])C([H])([H])C2([H])N([H])C(=O)C1([H])N(C(=O)C([H])(N([H])C(=O)C([H])(N([H])C([H])([H])[H])C([H])([H])[H])C(C([H])([H])[H])(C([H])([H])[H])C([H])([H])[H])C([H])([H])c2c([H])c(OC([H])([H])C3([H])C(=O)N(C(=O)c4c([H])c(N([H])C(=O)N5C([H])([H])C([H])([H])C([H])([H])C([H])(n6nc(-c7c([H])c([H])c(Oc8c([H])c([H])c(F)c([H])c8F)c([H])c7[H])c(C(=O)N([H])[H])c6N([H])[H])C5([H])[H])c([H])c(F)c4C([H])([H])[H])C([H])([H])C([H])([H])C3([H])[H])c([H])c([H])c2C1([H])[H]

$$$$
61:0:0
     RDKit          3D

 95103  0  0  1  0  0  0  0  0999 V2000
  -29.6940  -22.4850   19.7860 C   0  0  0  0  0  0  0  0  0  0  0  0
  -28.8870  -21.6910   19.0300 N   0  0  0  0  0  0  0  0  0  0  0  0
  -30.9120  -22.2860   19.8710 O   0  0  0  0  0  0  0  0  0  0  0  0
  -29.0330  -23.5740   20.4910 C   0  0  0  0  0  3  0  0  0  0  0  0
  -29.7370  -24.6510   20.8890 C   0  0  0  0  0  3  0  0  0  0  0  0
  -29.1420  -25.8180   21.6380 C   0  0  0  0  0  2  0  0  0  0  0  0
  -29.1790  -26.9890   20.8330 O   0  0  0  0  0  0  0  0  0  0  0  0
  -24.8330  -31.9040   23.5320 C   0  0  0  0  0  0  0  0  0  0  0  0
  -27.9700  -27.6240   20.7460 C   0  0  0  0  0  0  0  0  0  0  0  0
  -23.8370  -30.3970   21.8400 C   0  0  0  0  0  3  0  0  0  0  0  0
  -25.4850  -28.9310   20.5590 C   0  0  0  0  0  0  0  0  0  0  0  0
  -26.3370  -30.9280   21.8050 C   0  0  0  0  0  2  0  0  0  0  0  0
  -26.5580  -29.5550   21.2090 C   0  0  0  0  0  0  0  0  0  0  0  0
  -27.8070  -28.9080   21.3000 C   0  0  0  0  0  3  0  0  0  0  0  0
  -26.8870  -26.9990   20.0950 C   0  0  0  0  0  3  0  0  0  0  0  0
  -25.6400  -27.6490   20.0020 C   0  0  0  0  0  3  0  0  0  0  0  0
  -24.1860  -29.7020   20.4970 C   0  0  0  0  0  2  0  0  0  0  0  0
  -25.0150  -31.0920   22.4520 N   0  0  0  0  0  0  0  0  0  0  0  0
  -23.7020  -32.1160   23.9910 O   0  0  0  0  0  0  0  0  0  0  0  0
  -23.1850  -29.3560   22.7770 C   0  0  0  0  0  0  0  0  0  0  0  0
  -21.9070  -29.0350   22.5160 N   0  0  0  0  0  0  0  0  0  0  0  0
  -23.8310  -28.8360   23.6910 O   0  0  0  0  0  0  0  0  0  0  0  0
  -21.4470  -29.5110   21.7530 H   0  0  0  0  0  0  0  0  0  0  0  0
  -18.6460  -27.4880   22.6670 C   0  0  0  0  0  0  0  0  0  0  0  0
  -21.1030  -28.0510   23.2410 C   0  0  0  0  0  3  0  0  0  0  0  0
  -21.4340  -26.6140   22.7790 C   0  0  0  0  0  2  0  0  0  0  0  0
  -20.5170  -26.1140   21.6570 C   0  0  0  0  0  2  0  0  0  0  0  0
  -19.0550  -26.1340   22.1110 C   0  0  0  0  0  2  0  0  0  0  0  0
  -19.6110  -28.3940   23.1820 C   0  0  0  0  0  0  0  0  0  0  0  0
  -19.1830  -29.6540   23.6550 C   0  0  0  0  0  3  0  0  0  0  0  0
  -17.8220  -30.0120   23.6190 C   0  0  0  0  0  3  0  0  0  0  0  0
  -16.8700  -29.1050   23.1230 C   0  0  0  0  0  3  0  0  0  0  0  0
  -17.2820  -27.8440   22.6530 C   0  0  0  0  0  3  0  0  0  0  0  0
  -26.0310  -32.6270   24.2260 C   0  0  0  0  0  3  0  0  0  0  0  0
  -25.6440  -34.0290   24.4280 N   0  0  0  0  0  0  0  0  0  0  0  0
  -25.9860  -35.0370   23.6140 C   0  0  0  0  0  0  0  0  0  0  0  0
  -26.7300  -34.8890   22.6410 O   0  0  0  0  0  0  0  0  0  0  0  0
  -24.9870  -34.2150   25.1710 H   0  0  0  0  0  0  0  0  0  0  0  0
  -24.1990  -36.7060   23.0250 C   0  0  0  0  0  1  0  0  0  0  0  0
  -25.4100  -36.4300   23.9300 C   0  0  0  0  0  3  0  0  0  0  0  0
  -27.4460  -37.4900   24.8020 C   0  0  0  0  0  1  0  0  0  0  0  0
  -26.3980  -37.5220   23.7850 N   0  0  0  0  0  0  0  0  0  0  0  0
  -25.9410  -38.4290   23.8300 H   0  0  0  0  0  0  0  0  0  0  0  0
  -26.4560  -31.9580   25.5910 C   0  0  1  0  0  0  0  0  0  0  0  0
  -25.2750  -31.7190   26.5610 C   0  0  0  0  0  1  0  0  0  0  0  0
  -27.1420  -30.5960   25.3410 C   0  0  0  0  0  1  0  0  0  0  0  0
  -27.4920  -32.8520   26.3120 C   0  0  0  0  0  1  0  0  0  0  0  0
  -29.4670  -20.5460   18.3120 C   0  0  0  0  0  2  0  0  0  0  0  0
  -30.8370  -18.7570   19.4800 C   0  0  0  0  0  3  0  0  0  0  0  0
  -28.4100  -18.6100   19.5950 C   0  0  0  0  0  3  0  0  0  0  0  0
  -30.9430  -17.5400   20.1770 C   0  0  0  0  0  3  0  0  0  0  0  0
  -28.5140  -17.3910   20.2900 C   0  0  0  0  0  3  0  0  0  0  0  0
  -29.5700  -19.2830   19.1550 C   0  0  0  0  0  0  0  0  0  0  0  0
  -29.7790  -16.8210   20.5390 C   0  0  0  0  0  0  0  0  0  0  0  0
  -30.5690  -14.5310   20.5730 C   0  0  0  0  0  0  0  0  0  0  0  0
  -30.2850  -12.4310   19.3400 C   0  0  0  0  0  2  0  0  0  0  0  0
  -29.3300  -12.7010   18.1600 C   0  0  0  0  0  2  0  0  0  0  0  0
  -27.8620  -12.5220   18.5950 C   0  0  0  0  0  2  0  0  0  0  0  0
  -27.5260  -13.2890   19.9020 C   0  0  0  0  0  3  0  0  0  0  0  0
  -28.5950  -13.0180   20.9860 C   0  0  0  0  0  2  0  0  0  0  0  0
  -29.9160  -13.3500   20.4250 N   0  0  0  0  0  0  0  0  0  0  0  0
  -31.7000  -14.7330   20.1190 O   0  0  0  0  0  0  0  0  0  0  0  0
  -29.8320  -15.5180   21.1030 N   0  0  0  0  0  0  0  0  0  0  0  0
  -28.9670  -15.1880   21.5000 H   0  0  0  0  0  0  0  0  0  0  0  0
  -25.1110  -13.8190   20.6250 C   0  0  0  0  0  0  0  0  0  0  0  0
  -24.0670  -13.0120   20.9860 C   0  0  0  0  0  0  0  0  0  0  0  0
  -24.5650  -11.6740   20.9270 C   0  0  0  0  0  0  0  0  0  0  0  0
  -26.1800  -12.9720   20.3760 N   0  0  0  0  0  0  0  0  0  0  0  0
  -25.8530  -11.6760   20.6130 N   0  0  0  0  0  0  0  0  0  0  0  0
  -23.8740  -10.3890   21.0940 C   0  0  0  0  0  0  0  0  0  0  0  0
  -24.3060   -9.4380   22.0450 C   0  0  0  0  0  3  0  0  0  0  0  0
  -23.6160   -8.2160   22.2000 C   0  0  0  0  0  3  0  0  0  0  0  0
  -22.4800   -7.9380   21.4050 C   0  0  0  0  0  0  0  0  0  0  0  0
  -22.0670   -8.8790   20.4450 C   0  0  0  0  0  3  0  0  0  0  0  0
  -22.7580  -10.0910   20.2880 C   0  0  0  0  0  3  0  0  0  0  0  0
  -21.7600   -6.7680   21.4690 O   0  0  0  0  0  0  0  0  0  0  0  0
  -21.6700   -6.0420   22.6290 C   0  0  0  0  0  0  0  0  0  0  0  0
  -21.1090   -6.5840   23.8050 C   0  0  0  0  0  3  0  0  0  0  0  0
  -20.9730   -5.7800   24.9550 C   0  0  0  0  0  3  0  0  0  0  0  0
  -21.3880   -4.4340   24.9270 C   0  0  0  0  0  0  0  0  0  0  0  0
  -21.9410   -3.8920   23.7540 C   0  0  0  0  0  3  0  0  0  0  0  0
  -22.0790   -4.6930   22.6070 C   0  0  0  0  0  0  0  0  0  0  0  0
  -22.5940   -4.1600   21.4740 F   0  0  0  0  0  0  0  0  0  0  0  0
  -21.2500   -3.6600   26.0290 F   0  0  0  0  0  0  0  0  0  0  0  0
  -22.6570  -13.4440   21.2720 C   0  0  0  0  0  0  0  0  0  0  0  0
  -21.9470  -12.7090   22.1210 N   0  0  0  0  0  0  0  0  0  0  0  0
  -22.1910  -14.4720   20.7790 O   0  0  0  0  0  0  0  0  0  0  0  0
  -22.3350  -11.8780   22.5440 H   0  0  0  0  0  0  0  0  0  0  0  0
  -21.0040  -12.9840   22.3560 H   0  0  0  0  0  0  0  0  0  0  0  0
  -25.2330  -15.1960   20.4680 N   0  0  0  0  0  0  0  0  0  0  0  0
  -24.4390  -15.8180   20.5800 H   0  0  0  0  0  0  0  0  0  0  0  0
  -26.0430  -15.6530   20.0730 H   0  0  0  0  0  0  0  0  0  0  0  0
  -27.4440  -21.8880   18.7810 C   0  0  0  0  0  2  0  0  0  0  0  0
  -26.5780  -23.7840   17.3460 C   0  0  0  0  0  2  0  0  0  0  0  0
  -27.1040  -23.3410   18.4970 C   0  0  0  0  0  3  0  0  0  0  0  0
  1  3  2  0
  1  4  1  0
  2  1  1  0
  4  5  2  0
  5  6  1  0
  7  6  1  0
  8 19  2  0
  9  7  1  0
  9 14  1  0
 10 18  1  0
 10 20  1  0
 11 13  1  0
 12 18  1  0
 13 14  2  0
 13 12  1  0
 15  9  2  0
 16 15  1  0
 16 11  2  0
 17 11  1  0
 17 10  1  0
 18  8  1  0
 20 22  2  0
 21 20  1  0
 23 21  1  0
 24 29  1  0
 25 21  1  0
 26 25  1  0
 27 28  1  0
 27 26  1  0
 28 24  1  0
 29 25  1  0
 29 30  2  0
 31 30  1  0
 32 31  2  0
 33 24  2  0
 33 32  1  0
 34  8  1  0
 34 35  1  0
 34 44  1  0
 35 38  1  0
 36 40  1  0
 36 35  1  0
 37 36  2  0
 40 39  1  0
 42 43  1  0
 42 40  1  0
 42 41  1  0
 44 47  1  1
 44 45  1  0
 46 44  1  0
 48  2  1  0
 48 53  1  0
 49 51  1  0
 50 52  2  0
 51 54  2  0
 52 54  1  0
 53 49  2  0
 53 50  1  0
 54 63  1  0
 55 63  1  0
 56 61  1  0
 57 58  1  0
 57 56  1  0
 59 58  1  0
 59 68  1  0
 59 60  1  0
 61 55  1  0
 61 60  1  0
 62 55  2  0
 63 64  1  0
 65 66  2  0
 66 85  1  0
 67 66  1  0
 67 70  1  0
 68 69  1  0
 68 65  1  0
 69 67  2  0
 70 71  1  0
 71 72  2  0
 73 76  1  0
 73 72  1  0
 74 73  2  0
 75 74  1  0
 75 70  2  0
 76 77  1  0
 77 78  1  0
 78 79  2  0
 80 79  1  0
 80 84  1  0
 81 80  2  0
 82 77  2  0
 82 81  1  0
 83 82  1  0
 85 86  1  0
 86 89  1  0
 86 88  1  0
 87 85  2  0
 90 91  1  0
 90 65  1  0
 92 90  1  0
 93  2  1  0
 94 95  2  0
 95 93  1  0
M  ISO  4   6 101   7 101  55 100  63 100
M  END
>  <TORSDO>  (62) 
F 22

>  <SCORE>  (62) 
-12.657

>  <name>  (62) 
61

>  <ligand_id>  (62) 
61

>  <original_smiles>  (62) 
[H]C([H])=C([H])C([H])([H])N(C(=O)C([H])=C([H])C([H])([H])Oc1c([H])c([H])c2c(c1[H])C([H])([H])N(C(=O)C([H])(N([H])C(=O)C([H])(N([H])C([H])([H])[H])C([H])([H])[H])C(C([H])([H])[H])(C([H])([H])[H])C([H])([H])[H])C([H])(C(=O)N([H])C1([H])c3c([H])c([H])c([H])c([H])c3C([H])([H])C([H])([H])C1([H])[H])C2([H])[H])C([H])([H])c1c([H])c([H])c(N([H])C(=O)N2C([H])([H])C([H])([H])C([H])([H])C([H])(n3nc(-c4c([H])c([H])c(Oc5c([H])c([H])c(F)c([H])c5F)c([H])c4[H])c(C(=O)N([H])[H])c3N([H])[H])C2([H])[H])c([H])c1[H]

>  <smiles>  (62) 
[H]C([H])=C([H])C([H])([H])N(C(=O)C([H])=C([H])C([H])([H])Oc1c([H])c([H])c2c(c1[H])C([H])([H])N(C(=O)C([H])(N([H])C(=O)C([H])(N([H])C([H])([H])[H])C([H])([H])[H])C(C([H])([H])[H])(C([H])([H])[H])C([H])([H])[H])C([H])(C(=O)N([H])C1([H])c3c([H])c([H])c([H])c([H])c3C([H])([H])C([H])([H])C1([H])[H])C2([H])[H])C([H])([H])c1c([H])c([H])c(N([H])C(=O)N2C([H])([H])C([H])([H])C([H])([H])C([H])(n3nc(-c4c([H])c([H])c(Oc5c([H])c([H])c(F)c([H])c5F)c([H])c4[H])c(C(=O)N([H])[H])c3N([H])[H])C2([H])[H])c([H])c1[H]

$$$$
62:0:0
     RDKit          3D

 94102  0  0  1  0  0  0  0  0999 V2000
  -28.7280  -20.5120   20.6850 C   0  0  0  0  0  0  0  0  0  0  0  0
  -29.2180  -21.7590   20.5670 N   0  0  0  0  0  0  0  0  0  0  0  0
  -27.7350  -20.2630   21.3720 O   0  0  0  0  0  0  0  0  0  0  0  0
  -30.0650  -21.8580   20.0250 H   0  0  0  0  0  0  0  0  0  0  0  0
  -30.7000  -18.4430   18.0810 C   0  0  0  0  0  3  0  0  0  0  0  0
  -30.7530  -17.1910   18.7110 C   0  0  0  0  0  3  0  0  0  0  0  0
  -29.5240  -18.1010   20.5950 C   0  0  0  0  0  3  0  0  0  0  0  0
  -29.4710  -19.3880   19.9790 C   0  0  0  0  0  0  0  0  0  0  0  0
  -30.0490  -19.5380   18.6820 C   0  0  0  0  0  0  0  0  0  0  0  0
  -30.1600  -16.9910   19.9790 C   0  0  0  0  0  0  0  0  0  0  0  0
  -29.9810  -20.8230   17.8630 C   0  0  0  0  0  1  0  0  0  0  0  0
  -30.8660  -14.6140   20.2320 C   0  0  0  0  0  0  0  0  0  0  0  0
  -30.5500  -12.4440   19.1240 C   0  0  0  0  0  2  0  0  0  0  0  0
  -29.5970  -12.6730   17.9330 C   0  0  0  0  0  2  0  0  0  0  0  0
  -28.1280  -12.5360   18.3820 C   0  0  0  0  0  2  0  0  0  0  0  0
  -27.8110  -13.3630   19.6570 C   0  0  0  0  0  3  0  0  0  0  0  0
  -28.8850  -13.1400   20.7490 C   0  0  0  0  0  2  0  0  0  0  0  0
  -30.2000  -13.4290   20.1610 N   0  0  0  0  0  0  0  0  0  0  0  0
  -32.0250  -14.7480   19.8280 O   0  0  0  0  0  0  0  0  0  0  0  0
  -30.1230  -15.6870   20.5900 N   0  0  0  0  0  0  0  0  0  0  0  0
  -29.2920  -15.4770   21.1230 H   0  0  0  0  0  0  0  0  0  0  0  0
  -25.4260  -13.9680   20.4050 C   0  0  0  0  0  0  0  0  0  0  0  0
  -24.3630  -13.1950   20.7890 C   0  0  0  0  0  0  0  0  0  0  0  0
  -24.8240  -11.8440   20.7500 C   0  0  0  0  0  0  0  0  0  0  0  0
  -26.4670  -13.0870   20.1580 N   0  0  0  0  0  0  0  0  0  0  0  0
  -26.1100  -11.8040   20.4240 N   0  0  0  0  0  0  0  0  0  0  0  0
  -24.1020  -10.5820   20.9510 C   0  0  0  0  0  0  0  0  0  0  0  0
  -24.5300   -9.6270   21.9000 C   0  0  0  0  0  3  0  0  0  0  0  0
  -23.8090   -8.4290   22.0870 C   0  0  0  0  0  3  0  0  0  0  0  0
  -22.6440   -8.1750   21.3240 C   0  0  0  0  0  0  0  0  0  0  0  0
  -22.2340   -9.1180   20.3640 C   0  0  0  0  0  3  0  0  0  0  0  0
  -22.9570  -10.3090   20.1760 C   0  0  0  0  0  3  0  0  0  0  0  0
  -21.8940   -7.0280   21.4180 O   0  0  0  0  0  0  0  0  0  0  0  0
  -21.8180   -6.3120   22.5870 C   0  0  0  0  0  0  0  0  0  0  0  0
  -21.3130   -6.8810   23.7760 C   0  0  0  0  0  3  0  0  0  0  0  0
  -21.1870   -6.0890   24.9350 C   0  0  0  0  0  3  0  0  0  0  0  0
  -21.5550   -4.7310   24.9050 C   0  0  0  0  0  0  0  0  0  0  0  0
  -22.0520   -4.1620   23.7210 C   0  0  0  0  0  3  0  0  0  0  0  0
  -22.1810   -4.9510   22.5630 C   0  0  0  0  0  0  0  0  0  0  0  0
  -22.6410   -4.3930   21.4180 F   0  0  0  0  0  0  0  0  0  0  0  0
  -21.4260   -3.9680   26.0170 F   0  0  0  0  0  0  0  0  0  0  0  0
  -22.9710  -13.6710   21.0820 C   0  0  0  0  0  0  0  0  0  0  0  0
  -22.2540  -12.9700   21.9540 N   0  0  0  0  0  0  0  0  0  0  0  0
  -22.5260  -14.7000   20.5750 O   0  0  0  0  0  0  0  0  0  0  0  0
  -22.6290  -12.1380   22.3860 H   0  0  0  0  0  0  0  0  0  0  0  0
  -21.3210  -13.2700   22.1940 H   0  0  0  0  0  0  0  0  0  0  0  0
  -25.5880  -15.3390   20.2260 N   0  0  0  0  0  0  0  0  0  0  0  0
  -24.8220  -15.9910   20.3430 H   0  0  0  0  0  0  0  0  0  0  0  0
  -26.4330  -15.7790   19.8810 H   0  0  0  0  0  0  0  0  0  0  0  0
  -28.6140  -22.9870   21.1110 C   0  0  0  0  0  2  0  0  0  0  0  0
  -30.5340  -24.4550   20.2340 C   0  0  0  0  0  1  0  0  0  0  0  0
  -29.0080  -24.2870   20.3470 C   0  0  0  0  0  3  0  0  0  0  0  0
  -28.3630  -25.5350   21.0090 C   0  0  0  0  0  2  0  0  0  0  0  0
  -28.5260  -26.7570   20.2600 O   0  0  0  0  0  0  0  0  0  0  0  0
  -24.5750  -31.8970   23.2100 C   0  0  0  0  0  0  0  0  0  0  0  0
  -27.3820  -27.5180   20.1930 C   0  0  0  0  0  0  0  0  0  0  0  0
  -23.4510  -30.4980   21.5090 C   0  0  0  0  0  3  0  0  0  0  0  0
  -24.9770  -28.9980   20.1200 C   0  0  0  0  0  0  0  0  0  0  0  0
  -25.9790  -30.8910   21.4110 C   0  0  0  0  0  2  0  0  0  0  0  0
  -26.1060  -29.5290   20.7580 C   0  0  0  0  0  0  0  0  0  0  0  0
  -27.3160  -28.7980   20.7900 C   0  0  0  0  0  3  0  0  0  0  0  0
  -26.2430  -27.0050   19.5380 C   0  0  0  0  0  3  0  0  0  0  0  0
  -25.0420  -27.7360   19.5040 C   0  0  0  0  0  3  0  0  0  0  0  0
  -23.7210  -29.8390   20.1300 C   0  0  0  0  0  2  0  0  0  0  0  0
  -24.6840  -31.1100   22.1020 N   0  0  0  0  0  0  0  0  0  0  0  0
  -23.4700  -32.1490   23.7110 O   0  0  0  0  0  0  0  0  0  0  0  0
  -22.7770  -29.4580   22.4330 C   0  0  0  0  0  0  0  0  0  0  0  0
  -21.4560  -29.2780   22.2670 N   0  0  0  0  0  0  0  0  0  0  0  0
  -23.4390  -28.8180   23.2530 O   0  0  0  0  0  0  0  0  0  0  0  0
  -20.9850  -29.8480   21.5790 H   0  0  0  0  0  0  0  0  0  0  0  0
  -18.0620  -28.1120   22.6900 C   0  0  0  0  0  0  0  0  0  0  0  0
  -20.6190  -28.3250   22.9970 C   0  0  0  0  0  3  0  0  0  0  0  0
  -20.7100  -26.9140   22.3740 C   0  0  0  0  0  2  0  0  0  0  0  0
  -19.6140  -26.6400   21.3390 C   0  0  0  0  0  2  0  0  0  0  0  0
  -18.2280  -26.7820   21.9730 C   0  0  0  0  0  2  0  0  0  0  0  0
  -19.1850  -28.8440   23.1570 C   0  0  0  0  0  0  0  0  0  0  0  0
  -18.9770  -30.0900   23.7870 C   0  0  0  0  0  3  0  0  0  0  0  0
  -17.6780  -30.6040   23.9560 C   0  0  0  0  0  3  0  0  0  0  0  0
  -16.5680  -29.8680   23.5050 C   0  0  0  0  0  3  0  0  0  0  0  0
  -16.7610  -28.6240   22.8780 C   0  0  0  0  0  3  0  0  0  0  0  0
  -25.8280  -32.5370   23.8860 C   0  0  0  0  0  3  0  0  0  0  0  0
  -26.2860  -31.7760   25.1900 C   0  0  1  0  0  0  0  0  0  0  0  0
  -25.1450  -31.5390   26.2050 C   0  0  0  0  0  1  0  0  0  0  0  0
  -26.8920  -30.3990   24.8320 C   0  0  0  0  0  1  0  0  0  0  0  0
  -27.4010  -32.5790   25.9000 C   0  0  0  0  0  1  0  0  0  0  0  0
  -25.5010  -33.9360   24.1890 N   0  0  0  0  0  0  0  0  0  0  0  0
  -25.8690  -34.9820   23.4380 C   0  0  0  0  0  0  0  0  0  0  0  0
  -26.5880  -34.8720   22.4410 O   0  0  0  0  0  0  0  0  0  0  0  0
  -24.8660  -34.0960   24.9580 H   0  0  0  0  0  0  0  0  0  0  0  0
  -24.1650  -36.7730   22.9700 C   0  0  0  0  0  1  0  0  0  0  0  0
  -25.3550  -36.3730   23.8580 C   0  0  0  0  0  3  0  0  0  0  0  0
  -27.4320  -37.2650   24.8180 C   0  0  0  0  0  1  0  0  0  0  0  0
  -26.3940  -37.4260   23.8020 N   0  0  0  0  0  0  0  0  0  0  0  0
  -25.9800  -38.3470   23.9150 H   0  0  0  0  0  0  0  0  0  0  0  0
  1  3  2  0
  2  1  1  0
  2 50  1  0
  4  2  1  0
  5  9  2  0
  5  6  1  0
  6 10  2  0
  8  7  2  0
  8  1  1  0
  9  8  1  0
 10 20  1  0
 10  7  1  0
 11  9  1  0
 12 20  1  0
 13 18  1  0
 14 15  1  0
 14 13  1  0
 16 15  1  0
 16 25  1  0
 16 17  1  0
 18 12  1  0
 18 17  1  0
 19 12  2  0
 20 21  1  0
 22 23  2  0
 23 42  1  0
 24 23  1  0
 24 27  1  0
 25 22  1  0
 25 26  1  0
 26 24  2  0
 27 28  1  0
 28 29  2  0
 30 33  1  0
 30 29  1  0
 31 30  2  0
 32 31  1  0
 32 27  2  0
 33 34  1  0
 34 35  1  0
 35 36  2  0
 37 36  1  0
 37 41  1  0
 38 37  2  0
 39 34  2  0
 39 38  1  0
 40 39  1  0
 42 43  1  0
 43 46  1  0
 43 45  1  0
 44 42  2  0
 47 48  1  0
 47 22  1  0
 49 47  1  0
 52 51  1  0
 52 53  1  0
 52 50  1  0
 54 53  1  0
 55 66  2  0
 56 54  1  0
 56 61  1  0
 57 65  1  0
 57 67  1  0
 58 64  1  0
 58 60  1  0
 59 65  1  0
 60 61  2  0
 60 59  1  0
 62 56  2  0
 63 62  1  0
 63 58  2  0
 64 57  1  0
 65 55  1  0
 67 69  2  0
 68 67  1  0
 70 68  1  0
 71 80  2  0
 71 76  1  0
 72 68  1  0
 72 76  1  0
 73 72  1  0
 74 75  1  0
 74 73  1  0
 75 71  1  0
 76 77  2  0
 77 78  1  0
 79 78  2  0
 80 79  1  0
 81 55  1  0
 81 86  1  0
 81 82  1  0
 82 85  1  1
 82 83  1  0
 84 82  1  0
 86 89  1  0
 87 91  1  0
 87 86  1  0
 88 87  2  0
 91 90  1  0
 93 91  1  0
 93 94  1  0
 93 92  1  0
M  ISO  4  12 100  20 100  53 101  54 101
M  END
>  <TORSDO>  (63) 
F 20

>  <SCORE>  (63) 
-13.319

>  <name>  (63) 
62

>  <ligand_id>  (63) 
62

>  <original_smiles>  (63) 
[H]c1c([H])c([H])c2c(c1[H])C([H])([H])C([H])([H])C([H])([H])C2([H])N([H])C(=O)C1([H])N(C(=O)C([H])(N([H])C(=O)C([H])(N([H])C([H])([H])[H])C([H])([H])[H])C(C([H])([H])[H])(C([H])([H])[H])C([H])([H])[H])C([H])([H])c2c([H])c(OC([H])([H])C([H])(C([H])([H])[H])C([H])([H])N([H])C(=O)c3c([H])c(N([H])C(=O)N4C([H])([H])C([H])([H])C([H])([H])C([H])(n5nc(-c6c([H])c([H])c(Oc7c([H])c([H])c(F)c([H])c7F)c([H])c6[H])c(C(=O)N([H])[H])c5N([H])[H])C4([H])[H])c([H])c([H])c3C([H])([H])[H])c([H])c([H])c2C1([H])[H]

>  <smiles>  (63) 
[H]c1c([H])c([H])c2c(c1[H])C([H])([H])C([H])([H])C([H])([H])C2([H])N([H])C(=O)C1([H])N(C(=O)C([H])(N([H])C(=O)C([H])(N([H])C([H])([H])[H])C([H])([H])[H])C(C([H])([H])[H])(C([H])([H])[H])C([H])([H])[H])C([H])([H])c2c([H])c(OC([H])([H])C([H])(C([H])([H])[H])C([H])([H])N([H])C(=O)c3c([H])c(N([H])C(=O)N4C([H])([H])C([H])([H])C([H])([H])C([H])(n5nc(-c6c([H])c([H])c(Oc7c([H])c([H])c(F)c([H])c7F)c([H])c6[H])c(C(=O)N([H])[H])c5N([H])[H])C4([H])[H])c([H])c([H])c3C([H])([H])[H])c([H])c([H])c2C1([H])[H]

$$$$
63:0:0
     RDKit          3D

 95104  0  0  1  0  0  0  0  0999 V2000
  -28.6220  -22.5140   19.0310 C   0  0  0  0  0  3  0  0  0  0  0  0
  -28.9440  -21.8490   20.1820 C   0  0  0  0  0  0  0  0  0  0  0  0
  -28.8840  -22.7420   21.3940 C   0  0  0  0  0  0  0  0  0  0  0  0
  -28.2560  -24.0300   18.8260 C   0  0  0  0  0  2  0  0  0  0  0  0
  -28.2770  -24.1950   21.3260 C   0  0  0  0  0  2  0  0  0  0  0  0
  -28.5950  -24.9840   20.0230 C   0  0  0  0  0  3  0  0  0  0  0  0
  -29.2750  -22.3460   22.4960 O   0  0  0  0  0  0  0  0  0  0  0  0
  -30.4110  -19.7120   20.7740 C   0  0  0  0  0  3  0  0  0  0  0  0
  -30.6350  -18.2850   20.8590 C   0  0  0  0  0  3  0  0  0  0  0  0
  -28.4660  -17.9300   19.9350 C   0  0  0  0  0  3  0  0  0  0  0  0
  -29.2170  -20.3040   20.2470 C   0  0  0  0  0  0  0  0  0  0  0  0
  -28.2560  -19.3460   19.8050 C   0  0  0  0  0  0  0  0  0  0  0  0
  -29.6560  -17.3300   20.4460 C   0  0  0  0  0  0  0  0  0  0  0  0
  -30.5720  -14.8100   20.1770 C   0  0  0  0  0  0  0  0  0  0  0  0
  -30.3850  -12.5620   19.0770 C   0  0  0  0  0  2  0  0  0  0  0  0
  -29.3840  -12.6860   17.9030 C   0  0  0  0  0  2  0  0  0  0  0  0
  -27.9300  -12.5080   18.3880 C   0  0  0  0  0  2  0  0  0  0  0  0
  -27.6200  -13.3360   19.6620 C   0  0  0  0  0  3  0  0  0  0  0  0
  -28.7270  -13.1610   20.7260 C   0  0  0  0  0  2  0  0  0  0  0  0
  -29.9990  -13.5570   20.1030 N   0  0  0  0  0  0  0  0  0  0  0  0
  -31.7280  -14.9880   19.7780 O   0  0  0  0  0  0  0  0  0  0  0  0
  -29.7150  -15.8390   20.5450 N   0  0  0  0  0  0  0  0  0  0  0  0
  -28.8380  -15.4420   20.8420 H   0  0  0  0  0  0  0  0  0  0  0  0
  -25.2640  -13.9300   20.4900 C   0  0  0  0  0  0  0  0  0  0  0  0
  -24.2100  -13.1570   20.8920 C   0  0  0  0  0  0  0  0  0  0  0  0
  -24.6630  -11.8040   20.8150 C   0  0  0  0  0  0  0  0  0  0  0  0
  -26.2930  -13.0480   20.1960 N   0  0  0  0  0  0  0  0  0  0  0  0
  -25.9390  -11.7630   20.4520 N   0  0  0  0  0  0  0  0  0  0  0  0
  -23.9370  -10.5430   21.0080 C   0  0  0  0  0  0  0  0  0  0  0  0
  -24.3880   -9.5620   21.9190 C   0  0  0  0  0  3  0  0  0  0  0  0
  -23.6620   -8.3660   22.1020 C   0  0  0  0  0  3  0  0  0  0  0  0
  -22.4690   -8.1410   21.3730 C   0  0  0  0  0  0  0  0  0  0  0  0
  -22.0360   -9.1110   20.4500 C   0  0  0  0  0  3  0  0  0  0  0  0
  -22.7640  -10.2980   20.2660 C   0  0  0  0  0  3  0  0  0  0  0  0
  -21.7130   -6.9980   21.4660 O   0  0  0  0  0  0  0  0  0  0  0  0
  -21.6650   -6.2590   22.6210 C   0  0  0  0  0  0  0  0  0  0  0  0
  -21.2320   -6.8150   23.8430 C   0  0  0  0  0  3  0  0  0  0  0  0
  -21.1300   -6.0020   24.9900 C   0  0  0  0  0  3  0  0  0  0  0  0
  -21.4530   -4.6340   24.9140 C   0  0  0  0  0  0  0  0  0  0  0  0
  -21.8790   -4.0770   23.6960 C   0  0  0  0  0  3  0  0  0  0  0  0
  -21.9820   -4.8870   22.5520 C   0  0  0  0  0  0  0  0  0  0  0  0
  -22.3730   -4.3400   21.3750 F   0  0  0  0  0  0  0  0  0  0  0  0
  -21.3480   -3.8510   26.0130 F   0  0  0  0  0  0  0  0  0  0  0  0
  -22.8280  -13.6370   21.2260 C   0  0  0  0  0  0  0  0  0  0  0  0
  -22.1360  -12.9420   22.1220 N   0  0  0  0  0  0  0  0  0  0  0  0
  -22.3700  -14.6650   20.7290 O   0  0  0  0  0  0  0  0  0  0  0  0
  -22.5210  -12.1100   22.5460 H   0  0  0  0  0  0  0  0  0  0  0  0
  -21.2110  -13.2460   22.3880 H   0  0  0  0  0  0  0  0  0  0  0  0
  -25.4280  -15.3020   20.3240 N   0  0  0  0  0  0  0  0  0  0  0  0
  -24.6520  -15.9440   20.4440 H   0  0  0  0  0  0  0  0  0  0  0  0
  -26.2130  -15.7200   19.8450 H   0  0  0  0  0  0  0  0  0  0  0  0
  -26.9700  -19.8080   19.2760 C   0  0  0  0  0  3  0  0  0  0  0  0
  -26.7690  -20.0860   17.9780 C   0  0  0  0  0  3  0  0  0  0  0  0
  -25.4650  -20.5880   17.3990 C   0  0  0  0  0  1  0  0  0  0  0  0
  -28.4200  -26.4930   20.0020 O   0  0  0  0  0  0  0  0  0  0  0  0
  -24.6180  -31.8150   23.1620 C   0  0  0  0  0  0  0  0  0  0  0  0
  -27.2420  -27.2710   20.0330 C   0  0  0  0  0  0  0  0  0  0  0  0
  -23.4130  -30.4290   21.5110 C   0  0  0  0  0  3  0  0  0  0  0  0
  -24.8620  -28.8910   20.0600 C   0  0  0  0  0  0  0  0  0  0  0  0
  -25.9520  -30.7560   21.3160 C   0  0  0  0  0  2  0  0  0  0  0  0
  -26.0330  -29.3800   20.6510 C   0  0  0  0  0  0  0  0  0  0  0  0
  -27.2220  -28.5850   20.6180 C   0  0  0  0  0  3  0  0  0  0  0  0
  -26.0420  -26.8360   19.4340 C   0  0  0  0  0  3  0  0  0  0  0  0
  -24.8720  -27.6270   19.4430 C   0  0  0  0  0  3  0  0  0  0  0  0
  -23.6240  -29.7660   20.1220 C   0  0  0  0  0  2  0  0  0  0  0  0
  -24.6810  -31.0190   22.0520 N   0  0  0  0  0  0  0  0  0  0  0  0
  -23.5360  -32.0800   23.7060 O   0  0  0  0  0  0  0  0  0  0  0  0
  -22.7590  -29.4010   22.4640 C   0  0  0  0  0  0  0  0  0  0  0  0
  -21.4310  -29.2290   22.3520 N   0  0  0  0  0  0  0  0  0  0  0  0
  -23.4460  -28.7610   23.2640 O   0  0  0  0  0  0  0  0  0  0  0  0
  -20.9340  -29.8010   21.6830 H   0  0  0  0  0  0  0  0  0  0  0  0
  -18.0560  -28.0400   22.8880 C   0  0  0  0  0  0  0  0  0  0  0  0
  -20.6200  -28.2780   23.1150 C   0  0  0  0  0  3  0  0  0  0  0  0
  -20.7030  -26.8600   22.5020 C   0  0  0  0  0  2  0  0  0  0  0  0
  -19.5790  -26.5700   21.5010 C   0  0  0  0  0  2  0  0  0  0  0  0
  -18.2110  -26.7070   22.1760 C   0  0  0  0  0  2  0  0  0  0  0  0
  -19.1880  -28.7840   23.3150 C   0  0  0  0  0  0  0  0  0  0  0  0
  -18.9870  -30.0340   23.9420 C   0  0  0  0  0  3  0  0  0  0  0  0
  -17.6890  -30.5360   24.1480 C   0  0  0  0  0  3  0  0  0  0  0  0
  -16.5720  -29.7880   23.7370 C   0  0  0  0  0  3  0  0  0  0  0  0
  -16.7570  -28.5410   23.1120 C   0  0  0  0  0  3  0  0  0  0  0  0
  -25.8990  -32.4490   23.7870 C   0  0  0  0  0  3  0  0  0  0  0  0
  -25.5820  -33.8410   24.1380 N   0  0  0  0  0  0  0  0  0  0  0  0
  -25.9080  -34.9080   23.3970 C   0  0  0  0  0  0  0  0  0  0  0  0
  -26.5750  -34.8240   22.3620 O   0  0  0  0  0  0  0  0  0  0  0  0
  -24.9860  -33.9790   24.9420 H   0  0  0  0  0  0  0  0  0  0  0  0
  -24.1690  -36.7010   23.0790 C   0  0  0  0  0  1  0  0  0  0  0  0
  -25.4160  -36.2870   23.8780 C   0  0  0  0  0  3  0  0  0  0  0  0
  -27.5480  -37.1730   24.7160 C   0  0  0  0  0  1  0  0  0  0  0  0
  -26.4430  -37.3470   23.7770 N   0  0  0  0  0  0  0  0  0  0  0  0
  -26.0320  -38.2620   23.9380 H   0  0  0  0  0  0  0  0  0  0  0  0
  -26.4240  -31.6670   25.0540 C   0  0  1  0  0  0  0  0  0  0  0  0
  -25.3370  -31.4130   26.1250 C   0  0  0  0  0  1  0  0  0  0  0  0
  -27.0120  -30.2970   24.6460 C   0  0  0  0  0  1  0  0  0  0  0  0
  -27.5730  -32.4610   25.7210 C   0  0  0  0  0  1  0  0  0  0  0  0
  1  2  2  0
  2 11  1  0
  2  3  1  0
  3  7  2  0
  4  1  1  0
  4  6  1  0
  5  3  1  0
  6 55  1  0
  6  5  1  0
  8  9  1  0
 10 13  1  0
 11  8  2  0
 12 10  2  0
 12 11  1  0
 13 22  1  0
 13  9  2  0
 14 22  1  0
 15 20  1  0
 16 17  1  0
 16 15  1  0
 18 17  1  0
 18 27  1  0
 18 19  1  0
 20 14  1  0
 20 19  1  0
 21 14  2  0
 22 23  1  0
 24 25  2  0
 25 44  1  0
 26 25  1  0
 26 29  1  0
 27 28  1  0
 27 24  1  0
 28 26  2  0
 29 30  1  0
 30 31  2  0
 32 35  1  0
 32 31  1  0
 33 32  2  0
 34 33  1  0
 34 29  2  0
 35 36  1  0
 36 37  1  0
 37 38  2  0
 39 38  1  0
 39 43  1  0
 40 39  2  0
 41 36  2  0
 41 40  1  0
 42 41  1  0
 44 45  1  0
 45 48  1  0
 45 47  1  0
 46 44  2  0
 49 50  1  0
 49 24  1  0
 51 49  1  0
 52 12  1  0
 53 52  2  0
 54 53  1  0
 55 57  1  0
 56 67  2  0
 57 62  1  0
 58 66  1  0
 58 68  1  0
 59 65  1  0
 59 61  1  0
 60 66  1  0
 61 60  1  0
 62 61  2  0
 63 64  1  0
 63 57  2  0
 64 59  2  0
 65 58  1  0
 66 56  1  0
 68 70  2  0
 69 68  1  0
 71 69  1  0
 72 81  2  0
 72 77  1  0
 73 69  1  0
 73 77  1  0
 74 73  1  0
 75 76  1  0
 75 74  1  0
 76 72  1  0
 77 78  2  0
 78 79  1  0
 80 79  2  0
 81 80  1  0
 82 56  1  0
 82 83  1  0
 82 92  1  0
 83 86  1  0
 84 88  1  0
 84 83  1  0
 85 84  2  0
 88 87  1  0
 90 88  1  0
 90 91  1  0
 90 89  1  0
 92 95  1  1
 92 93  1  0
 94 92  1  0
M  ISO  4   6 101  14 100  22 100  55 101
M  END
>  <TORSDO>  (64) 
F 18

>  <SCORE>  (64) 
-15.063

>  <name>  (64) 
63

>  <ligand_id>  (64) 
63

>  <original_smiles>  (64) 
[H]C(=C([H])C([H])([H])[H])c1c([H])c(N([H])C(=O)N2C([H])([H])C([H])([H])C([H])([H])C([H])(n3nc(-c4c([H])c([H])c(Oc5c([H])c([H])c(F)c([H])c5F)c([H])c4[H])c(C(=O)N([H])[H])c3N([H])[H])C2([H])[H])c([H])c([H])c1C1=C([H])C([H])([H])C([H])(Oc2c([H])c([H])c3c(c2[H])C([H])([H])N(C(=O)C([H])(N([H])C(=O)C([H])(N([H])C([H])([H])[H])C([H])([H])[H])C(C([H])([H])[H])(C([H])([H])[H])C([H])([H])[H])C([H])(C(=O)N([H])C2([H])c4c([H])c([H])c([H])c([H])c4C([H])([H])C([H])([H])C2([H])[H])C3([H])[H])C([H])([H])C1=O

>  <smiles>  (64) 
[H]C(=C([H])C([H])([H])[H])c1c([H])c(N([H])C(=O)N2C([H])([H])C([H])([H])C([H])([H])C([H])(n3nc(-c4c([H])c([H])c(Oc5c([H])c([H])c(F)c([H])c5F)c([H])c4[H])c(C(=O)N([H])[H])c3N([H])[H])C2([H])[H])c([H])c([H])c1C1=C([H])C([H])([H])C([H])(Oc2c([H])c([H])c3c(c2[H])C([H])([H])N(C(=O)C([H])(N([H])C(=O)C([H])(N([H])C([H])([H])[H])C([H])([H])[H])C(C([H])([H])[H])(C([H])([H])[H])C([H])([H])[H])C([H])(C(=O)N([H])C2([H])c4c([H])c([H])c([H])c([H])c4C([H])([H])C([H])([H])C2([H])[H])C3([H])[H])C([H])([H])C1=O

$$$$
64:0:0
     RDKit          3D

 97105  0  0  1  0  0  0  0  0999 V2000
  -31.5500  -21.4920   21.4680 C   0  0  0  0  0  0  0  0  0  0  0  0
  -32.5980  -21.5460   22.2840 N   0  0  0  0  0  4  0  0  0  0  0  0
  -31.1030  -22.6940   21.0220 N   0  0  0  0  0  0  0  0  0  0  0  0
  -32.9590  -20.6720   22.6390 H   0  0  0  0  0  0  0  0  0  0  0  0
  -33.0370  -22.3960   22.6020 H   0  0  0  0  0  0  0  0  0  0  0  0
  -31.6730  -23.4810   21.2950 H   0  0  0  0  0  0  0  0  0  0  0  0
  -31.3630  -19.4980   19.9550 C   0  0  0  0  0  3  0  0  0  0  0  0
  -31.2450  -18.0920   19.7770 C   0  0  0  0  0  3  0  0  0  0  0  0
  -30.4210  -17.8900   22.0420 C   0  0  0  0  0  3  0  0  0  0  0  0
  -31.0470  -20.1180   21.1910 C   0  0  0  0  0  0  0  0  0  0  0  0
  -30.5440  -19.2910   22.2360 C   0  0  0  0  0  0  0  0  0  0  0  0
  -30.8000  -17.2580   20.8340 C   0  0  0  0  0  0  0  0  0  0  0  0
  -30.1780  -19.8630   23.6010 C   0  0  0  0  0  1  0  0  0  0  0  0
  -31.3510  -14.8770   20.0860 C   0  0  0  0  0  0  0  0  0  0  0  0
  -31.0280  -12.7140   18.9200 C   0  0  0  0  0  2  0  0  0  0  0  0
  -30.0080  -12.9180   17.7770 C   0  0  0  0  0  2  0  0  0  0  0  0
  -28.5600  -12.7750   18.2890 C   0  0  0  0  0  2  0  0  0  0  0  0
  -28.2990  -13.5900   19.5830 C   0  0  0  0  0  3  0  0  0  0  0  0
  -29.4190  -13.3370   20.6180 C   0  0  0  0  0  2  0  0  0  0  0  0
  -30.7080  -13.6760   19.9870 N   0  0  0  0  0  0  0  0  0  0  0  0
  -32.4300  -15.0960   19.5270 O   0  0  0  0  0  0  0  0  0  0  0  0
  -30.6680  -15.8250   20.7720 N   0  0  0  0  0  0  0  0  0  0  0  0
  -29.8820  -15.4500   21.2770 H   0  0  0  0  0  0  0  0  0  0  0  0
  -25.9670  -14.2030   20.4850 C   0  0  0  0  0  0  0  0  0  0  0  0
  -24.9090  -13.4330   20.8840 C   0  0  0  0  0  0  0  0  0  0  0  0
  -25.3340  -12.0760   20.7480 C   0  0  0  0  0  0  0  0  0  0  0  0
  -26.9730  -13.3160   20.1350 N   0  0  0  0  0  0  0  0  0  0  0  0
  -26.5990  -12.0280   20.3500 N   0  0  0  0  0  0  0  0  0  0  0  0
  -24.5940  -10.8190   20.9190 C   0  0  0  0  0  0  0  0  0  0  0  0
  -24.9430   -9.8870   21.9200 C   0  0  0  0  0  3  0  0  0  0  0  0
  -24.2030   -8.6940   22.0750 C   0  0  0  0  0  3  0  0  0  0  0  0
  -23.1020   -8.4250   21.2290 C   0  0  0  0  0  0  0  0  0  0  0  0
  -22.7740   -9.3480   20.2190 C   0  0  0  0  0  3  0  0  0  0  0  0
  -23.5140  -10.5310   20.0620 C   0  0  0  0  0  3  0  0  0  0  0  0
  -22.3420   -7.2820   21.2910 O   0  0  0  0  0  0  0  0  0  0  0  0
  -21.9900   -6.7150   22.4900 C   0  0  0  0  0  0  0  0  0  0  0  0
  -21.2300   -7.4170   23.4500 C   0  0  0  0  0  3  0  0  0  0  0  0
  -20.8290   -6.7730   24.6390 C   0  0  0  0  0  3  0  0  0  0  0  0
  -21.1800   -5.4290   24.8650 C   0  0  0  0  0  0  0  0  0  0  0  0
  -21.9340   -4.7270   23.9080 C   0  0  0  0  0  3  0  0  0  0  0  0
  -22.3350   -5.3670   22.7220 C   0  0  0  0  0  0  0  0  0  0  0  0
  -23.0420   -4.6810   21.7930 F   0  0  0  0  0  0  0  0  0  0  0  0
  -20.7910   -4.8080   26.0030 F   0  0  0  0  0  0  0  0  0  0  0  0
  -23.5430  -13.9200   21.2780 C   0  0  0  0  0  0  0  0  0  0  0  0
  -22.8660  -13.2060   22.1690 N   0  0  0  0  0  0  0  0  0  0  0  0
  -23.0870  -14.9720   20.8270 O   0  0  0  0  0  0  0  0  0  0  0  0
  -23.2480  -12.3560   22.5590 H   0  0  0  0  0  0  0  0  0  0  0  0
  -21.9540  -13.5170   22.4710 H   0  0  0  0  0  0  0  0  0  0  0  0
  -26.1530  -15.5790   20.3700 N   0  0  0  0  0  0  0  0  0  0  0  0
  -25.4120  -16.2440   20.5630 H   0  0  0  0  0  0  0  0  0  0  0  0
  -26.9870  -16.0170   20.0020 H   0  0  0  0  0  0  0  0  0  0  0  0
  -29.9210  -23.1220   20.2250 C   0  0  0  0  0  2  0  0  0  0  0  0
  -29.9390  -24.6580   19.8480 C   0  0  0  0  0  2  0  0  0  0  0  0
  -29.0370  -25.6310   20.6460 C   0  0  0  0  0  0  0  0  0  0  0  0
  -28.3930  -25.2920   21.6870 N   0  0  0  0  0  0  0  0  0  0  0  0
  -28.5390  -24.3200   21.9290 H   0  0  0  0  0  0  0  0  0  0  0  0
  -29.0090  -26.9320   20.1340 O   0  0  0  0  0  0  0  0  0  0  0  0
  -24.8020  -31.7620   23.3690 C   0  0  0  0  0  0  0  0  0  0  0  0
  -27.8210  -27.6540   20.1350 C   0  0  0  0  0  0  0  0  0  0  0  0
  -23.7530  -30.4060   21.5910 C   0  0  0  0  0  3  0  0  0  0  0  0
  -25.3510  -29.0540   20.1300 C   0  0  0  0  0  0  0  0  0  0  0  0
  -26.2630  -30.9130   21.5290 C   0  0  0  0  0  2  0  0  0  0  0  0
  -26.4560  -29.5940   20.8010 C   0  0  0  0  0  0  0  0  0  0  0  0
  -27.6960  -28.9040   20.7960 C   0  0  0  0  0  3  0  0  0  0  0  0
  -26.6980  -27.1490   19.4450 C   0  0  0  0  0  3  0  0  0  0  0  0
  -25.4680  -27.8320   19.4480 C   0  0  0  0  0  3  0  0  0  0  0  0
  -24.0580  -29.8380   20.1800 C   0  0  0  0  0  2  0  0  0  0  0  0
  -24.9540  -31.0400   22.2220 N   0  0  0  0  0  0  0  0  0  0  0  0
  -23.6840  -31.9340   23.8740 O   0  0  0  0  0  0  0  0  0  0  0  0
  -23.1240  -29.2860   22.4520 C   0  0  0  0  0  0  0  0  0  0  0  0
  -21.8180  -29.0410   22.2600 N   0  0  0  0  0  0  0  0  0  0  0  0
  -23.8110  -28.6450   23.2510 O   0  0  0  0  0  0  0  0  0  0  0  0
  -21.3230  -29.6180   21.5930 H   0  0  0  0  0  0  0  0  0  0  0  0
  -18.4910  -27.6550   22.5660 C   0  0  0  0  0  0  0  0  0  0  0  0
  -21.0270  -28.0090   22.9310 C   0  0  0  0  0  3  0  0  0  0  0  0
  -21.2130  -26.6330   22.2490 C   0  0  0  0  0  2  0  0  0  0  0  0
  -20.1530  -26.3400   21.1830 C   0  0  0  0  0  2  0  0  0  0  0  0
  -18.7500  -26.3710   21.7960 C   0  0  0  0  0  2  0  0  0  0  0  0
  -19.5610  -28.4320   23.0850 C   0  0  0  0  0  0  0  0  0  0  0  0
  -19.2660  -29.6340   23.7630 C   0  0  0  0  0  3  0  0  0  0  0  0
  -17.9350  -30.0590   23.9310 C   0  0  0  0  0  3  0  0  0  0  0  0
  -16.8790  -29.2780   23.4290 C   0  0  0  0  0  3  0  0  0  0  0  0
  -17.1590  -28.0780   22.7510 C   0  0  0  0  0  3  0  0  0  0  0  0
  -26.0190  -32.4250   24.0840 C   0  0  0  0  0  3  0  0  0  0  0  0
  -26.4610  -31.6620   25.3940 C   0  0  1  0  0  0  0  0  0  0  0  0
  -25.2940  -31.3680   26.3650 C   0  0  0  0  0  1  0  0  0  0  0  0
  -27.1350  -30.3160   25.0400 C   0  0  0  0  0  1  0  0  0  0  0  0
  -27.5210  -32.4980   26.1500 C   0  0  0  0  0  1  0  0  0  0  0  0
  -25.6490  -33.8130   24.3920 N   0  0  0  0  0  0  0  0  0  0  0  0
  -25.9940  -34.8750   23.6490 C   0  0  0  0  0  0  0  0  0  0  0  0
  -26.7260  -34.7870   22.6590 O   0  0  0  0  0  0  0  0  0  0  0  0
  -25.0070  -33.9510   25.1570 H   0  0  0  0  0  0  0  0  0  0  0  0
  -24.2280  -36.6060   23.2010 C   0  0  0  0  0  1  0  0  0  0  0  0
  -25.4420  -36.2490   24.0720 C   0  0  0  0  0  3  0  0  0  0  0  0
  -27.5010  -37.2160   24.9980 C   0  0  0  0  0  1  0  0  0  0  0  0
  -26.4450  -37.3340   23.9970 N   0  0  0  0  0  0  0  0  0  0  0  0
  -26.0030  -38.2410   24.1090 H   0  0  0  0  0  0  0  0  0  0  0  0
  1  2  2  0
  2  5  1  0
  2  4  1  0
  3  6  1  0
  3  1  1  0
  7 10  1  0
  8  7  2  0
  8 12  1  0
  9 11  1  0
 10  1  1  0
 10 11  2  0
 11 13  1  0
 12  9  2  0
 14 22  1  0
 15 20  1  0
 16 17  1  0
 16 15  1  0
 18 17  1  0
 18 27  1  0
 18 19  1  0
 20 14  1  0
 20 19  1  0
 21 14  2  0
 22 12  1  0
 22 23  1  0
 24 25  2  0
 25 44  1  0
 26 25  1  0
 26 29  1  0
 27 28  1  0
 27 24  1  0
 28 26  2  0
 29 30  1  0
 30 31  2  0
 32 35  1  0
 32 31  1  0
 33 32  2  0
 34 33  1  0
 34 29  2  0
 35 36  1  0
 36 41  2  0
 36 37  1  0
 37 38  2  0
 38 39  1  0
 39 43  1  0
 40 39  2  0
 41 40  1  0
 42 41  1  0
 44 45  1  0
 45 48  1  0
 45 47  1  0
 46 44  2  0
 49 24  1  0
 49 50  1  0
 51 49  1  0
 52  3  1  0
 53 52  1  0
 53 54  1  0
 54 55  2  0
 55 56  1  0
 57 59  1  0
 57 54  1  0
 58 69  2  0
 59 64  1  0
 60 68  1  0
 60 70  1  0
 61 67  1  0
 61 63  1  0
 62 68  1  0
 63 62  1  0
 64 63  2  0
 65 66  1  0
 65 59  2  0
 66 61  2  0
 67 60  1  0
 68 58  1  0
 70 72  2  0
 71 70  1  0
 73 71  1  0
 74 83  2  0
 74 79  1  0
 75 71  1  0
 75 79  1  0
 76 75  1  0
 77 78  1  0
 77 76  1  0
 78 74  1  0
 79 80  2  0
 80 81  1  0
 82 81  2  0
 83 82  1  0
 84 58  1  0
 84 89  1  0
 84 85  1  0
 85 88  1  1
 85 86  1  0
 87 85  1  0
 89 92  1  0
 90 94  1  0
 90 89  1  0
 91 90  2  0
 94 93  1  0
 96 94  1  0
 96 97  1  0
 96 95  1  0
M  ISO  4  14 100  22 100  54 101  57 101
M  END
>  <TORSDO>  (65) 
F 20

>  <SCORE>  (65) 
-11.230

>  <name>  (65) 
64

>  <ligand_id>  (65) 
64

>  <original_smiles>  (65) 
[H]N=C(Oc1c([H])c([H])c2c(c1[H])C([H])([H])N(C(=O)C([H])(N([H])C(=O)C([H])(N([H])C([H])([H])[H])C([H])([H])[H])C(C([H])([H])[H])(C([H])([H])[H])C([H])([H])[H])C([H])(C(=O)N([H])C1([H])c3c([H])c([H])c([H])c([H])c3C([H])([H])C([H])([H])C1([H])[H])C2([H])[H])C([H])([H])C([H])([H])[N+]([H])=C(c1c([H])c([H])c(N([H])C(=O)N2C([H])([H])C([H])([H])C([H])([H])C([H])(n3nc(-c4c([H])c([H])c(Oc5c([H])c([H])c(F)c([H])c5F)c([H])c4[H])c(C(=O)N([H])[H])c3N([H])[H])C2([H])[H])c([H])c1C([H])([H])[H])N([H])[H]

>  <smiles>  (65) 
[H]N=C(Oc1c([H])c([H])c2c(c1[H])C([H])([H])N(C(=O)C([H])(N([H])C(=O)C([H])(N([H])C([H])([H])[H])C([H])([H])[H])C(C([H])([H])[H])(C([H])([H])[H])C([H])([H])[H])C([H])(C(=O)N([H])C1([H])c3c([H])c([H])c([H])c([H])c3C([H])([H])C([H])([H])C1([H])[H])C2([H])[H])C([H])([H])C([H])([H])[N+]([H])=C(c1c([H])c([H])c(N([H])C(=O)N2C([H])([H])C([H])([H])C([H])([H])C([H])(n3nc(-c4c([H])c([H])c(Oc5c([H])c([H])c(F)c([H])c5F)c([H])c4[H])c(C(=O)N([H])[H])c3N([H])[H])C2([H])[H])c([H])c1C([H])([H])[H])N([H])[H]

$$$$
65:0:0
     RDKit          3D

 92100  0  0  1  0  0  0  0  0999 V2000
  -28.8280  -21.1160   19.9540 C   0  0  0  0  0  2  0  0  0  0  0  0
  -31.4040  -17.6750   21.2770 C   0  0  0  0  0  3  0  0  0  0  0  0
  -31.7890  -19.0150   21.4830 C   0  0  0  0  0  3  0  0  0  0  0  0
  -29.3300  -18.4870   20.3180 C   0  0  0  0  0  3  0  0  0  0  0  0
  -29.7060  -19.8890   20.5030 C   0  0  0  0  0  0  0  0  0  0  0  0
  -30.1670  -17.3480   20.6810 C   0  0  0  0  0  0  0  0  0  0  0  0
  -30.9770  -20.1030   21.1000 C   0  0  0  0  0  0  0  0  0  0  0  0
  -31.6230  -21.6860   21.3520 Cl  0  0  0  0  0  0  0  0  0  0  0  0
  -30.5800  -14.7720   20.3570 C   0  0  0  0  0  0  0  0  0  0  0  0
  -30.3740  -12.5010   19.3300 C   0  0  0  0  0  2  0  0  0  0  0  0
  -29.4200  -12.5630   18.1180 C   0  0  0  0  0  2  0  0  0  0  0  0
  -27.9580  -12.3780   18.5680 C   0  0  0  0  0  2  0  0  0  0  0  0
  -27.5910  -13.2690   19.7850 C   0  0  0  0  0  3  0  0  0  0  0  0
  -28.6620  -13.1920   20.8930 C   0  0  0  0  0  2  0  0  0  0  0  0
  -29.9480  -13.5520   20.2810 N   0  0  0  0  0  0  0  0  0  0  0  0
  -31.7720  -14.8560   20.0480 O   0  0  0  0  0  0  0  0  0  0  0  0
  -29.7970  -15.9120   20.5240 N   0  0  0  0  0  0  0  0  0  0  0  0
  -28.8070  -15.7210   20.5420 H   0  0  0  0  0  0  0  0  0  0  0  0
  -25.2110  -13.8490   20.5470 C   0  0  0  0  0  0  0  0  0  0  0  0
  -24.1520  -13.0680   20.9250 C   0  0  0  0  0  0  0  0  0  0  0  0
  -24.6200  -11.7190   20.8790 C   0  0  0  0  0  0  0  0  0  0  0  0
  -26.2550  -12.9730   20.2920 N   0  0  0  0  0  0  0  0  0  0  0  0
  -25.9070  -11.6880   20.5560 N   0  0  0  0  0  0  0  0  0  0  0  0
  -23.8990  -10.4540   21.0670 C   0  0  0  0  0  0  0  0  0  0  0  0
  -24.3450   -9.4800   21.9890 C   0  0  0  0  0  3  0  0  0  0  0  0
  -23.6250   -8.2790   22.1640 C   0  0  0  0  0  3  0  0  0  0  0  0
  -22.4440   -8.0440   21.4200 C   0  0  0  0  0  0  0  0  0  0  0  0
  -22.0180   -9.0060   20.4870 C   0  0  0  0  0  3  0  0  0  0  0  0
  -22.7400  -10.1980   20.3090 C   0  0  0  0  0  3  0  0  0  0  0  0
  -21.6950   -6.8950   21.5070 O   0  0  0  0  0  0  0  0  0  0  0  0
  -21.6600   -6.1430   22.6530 C   0  0  0  0  0  0  0  0  0  0  0  0
  -21.2420   -6.6840   23.8880 C   0  0  0  0  0  3  0  0  0  0  0  0
  -21.1560   -5.8580   25.0250 C   0  0  0  0  0  3  0  0  0  0  0  0
  -21.4780   -4.4900   24.9310 C   0  0  0  0  0  0  0  0  0  0  0  0
  -21.8900   -3.9480   23.7000 C   0  0  0  0  0  3  0  0  0  0  0  0
  -21.9780   -4.7720   22.5640 C   0  0  0  0  0  0  0  0  0  0  0  0
  -22.3550   -4.2400   21.3760 F   0  0  0  0  0  0  0  0  0  0  0  0
  -21.3880   -3.6950   26.0210 F   0  0  0  0  0  0  0  0  0  0  0  0
  -22.7570  -13.5400   21.2110 C   0  0  0  0  0  0  0  0  0  0  0  0
  -22.0380  -12.8330   22.0750 N   0  0  0  0  0  0  0  0  0  0  0  0
  -22.3120  -14.5700   20.7070 O   0  0  0  0  0  0  0  0  0  0  0  0
  -22.4100  -11.9990   22.5060 H   0  0  0  0  0  0  0  0  0  0  0  0
  -21.1010  -13.1280   22.3100 H   0  0  0  0  0  0  0  0  0  0  0  0
  -25.3670  -15.2220   20.3750 N   0  0  0  0  0  0  0  0  0  0  0  0
  -24.5940  -15.8670   20.4940 H   0  0  0  0  0  0  0  0  0  0  0  0
  -26.1960  -15.6640   20.0000 H   0  0  0  0  0  0  0  0  0  0  0  0
  -28.5060  -23.7450   19.9820 C   0  0  0  0  0  0  0  0  0  0  0  0
  -28.7680  -22.5170   20.5800 N   0  0  0  0  0  0  0  0  0  0  0  0
  -28.4570  -23.8320   18.7530 O   0  0  0  0  0  0  0  0  0  0  0  0
  -28.8390  -22.5340   21.5870 H   0  0  0  0  0  0  0  0  0  0  0  0
  -28.1920  -25.0610   20.8480 C   0  0  0  0  0  2  0  0  0  0  0  0
  -28.3290  -26.4190   20.2160 O   0  0  0  0  0  0  0  0  0  0  0  0
  -24.5920  -31.8870   23.2350 C   0  0  0  0  0  0  0  0  0  0  0  0
  -27.2200  -27.2910   20.2190 C   0  0  0  0  0  0  0  0  0  0  0  0
  -23.3990  -30.4810   21.5930 C   0  0  0  0  0  3  0  0  0  0  0  0
  -24.8590  -28.9200   20.1820 C   0  0  0  0  0  0  0  0  0  0  0  0
  -25.9400  -30.7970   21.4200 C   0  0  0  0  0  2  0  0  0  0  0  0
  -26.0270  -29.4110   20.7810 C   0  0  0  0  0  0  0  0  0  0  0  0
  -27.2150  -28.6110   20.7800 C   0  0  0  0  0  3  0  0  0  0  0  0
  -26.0300  -26.8560   19.6020 C   0  0  0  0  0  3  0  0  0  0  0  0
  -24.8660  -27.6500   19.5810 C   0  0  0  0  0  3  0  0  0  0  0  0
  -23.6230  -29.7980   20.2190 C   0  0  0  0  0  2  0  0  0  0  0  0
  -24.6620  -31.0740   22.1400 N   0  0  0  0  0  0  0  0  0  0  0  0
  -23.5060  -32.1650   23.7640 O   0  0  0  0  0  0  0  0  0  0  0  0
  -22.7310  -29.4690   22.5560 C   0  0  0  0  0  0  0  0  0  0  0  0
  -21.4080  -29.2840   22.4180 N   0  0  0  0  0  0  0  0  0  0  0  0
  -23.4050  -28.8520   23.3850 O   0  0  0  0  0  0  0  0  0  0  0  0
  -20.9220  -29.8350   21.7240 H   0  0  0  0  0  0  0  0  0  0  0  0
  -18.0350  -28.0560   22.8830 C   0  0  0  0  0  0  0  0  0  0  0  0
  -20.5870  -28.3460   23.1870 C   0  0  0  0  0  3  0  0  0  0  0  0
  -20.7120  -26.9080   22.6300 C   0  0  0  0  0  2  0  0  0  0  0  0
  -19.6280  -26.5650   21.6020 C   0  0  0  0  0  2  0  0  0  0  0  0
  -18.2360  -26.7020   22.2240 C   0  0  0  0  0  2  0  0  0  0  0  0
  -19.1400  -28.8350   23.3210 C   0  0  0  0  0  0  0  0  0  0  0  0
  -18.9000  -30.1010   23.8960 C   0  0  0  0  0  3  0  0  0  0  0  0
  -17.5870  -30.5890   24.0410 C   0  0  0  0  0  3  0  0  0  0  0  0
  -16.4970  -29.8080   23.6190 C   0  0  0  0  0  3  0  0  0  0  0  0
  -16.7220  -28.5440   23.0470 C   0  0  0  0  0  3  0  0  0  0  0  0
  -25.8710  -32.5240   23.8620 C   0  0  0  0  0  3  0  0  0  0  0  0
  -26.3810  -31.7610   25.1460 C   0  0  1  0  0  0  0  0  0  0  0  0
  -25.2820  -31.5290   26.2090 C   0  0  0  0  0  1  0  0  0  0  0  0
  -26.9670  -30.3810   24.7660 C   0  0  0  0  0  1  0  0  0  0  0  0
  -27.5280  -32.5590   25.8100 C   0  0  0  0  0  1  0  0  0  0  0  0
  -25.5580  -33.9240   24.1870 N   0  0  0  0  0  0  0  0  0  0  0  0
  -25.8890  -34.9760   23.4260 C   0  0  0  0  0  0  0  0  0  0  0  0
  -26.5600  -34.8700   22.3950 O   0  0  0  0  0  0  0  0  0  0  0  0
  -24.9640  -34.0790   24.9890 H   0  0  0  0  0  0  0  0  0  0  0  0
  -24.1630  -36.7700   23.0640 C   0  0  0  0  0  1  0  0  0  0  0  0
  -25.4010  -36.3650   23.8800 C   0  0  0  0  0  3  0  0  0  0  0  0
  -27.5320  -37.2530   24.7190 C   0  0  0  0  0  1  0  0  0  0  0  0
  -26.4340  -37.4180   23.7690 N   0  0  0  0  0  0  0  0  0  0  0  0
  -26.0280  -38.3380   23.9130 H   0  0  0  0  0  0  0  0  0  0  0  0
  1  5  1  0
  1 48  1  0
  2  3  1  0
  4  5  2  0
  4  6  1  0
  5  7  1  0
  6  2  2  0
  7  8  1  0
  7  3  2  0
  9 17  1  0
 10 15  1  0
 11 12  1  0
 11 10  1  0
 13 12  1  0
 13 22  1  0
 13 14  1  0
 15  9  1  0
 15 14  1  0
 16  9  2  0
 17 18  1  0
 17  6  1  0
 19 20  2  0
 20 39  1  0
 21 20  1  0
 21 24  1  0
 22 19  1  0
 22 23  1  0
 23 21  2  0
 24 25  1  0
 25 26  2  0
 27 30  1  0
 27 26  1  0
 28 27  2  0
 29 28  1  0
 29 24  2  0
 30 31  1  0
 31 32  1  0
 32 33  2  0
 34 33  1  0
 34 38  1  0
 35 34  2  0
 36 31  2  0
 36 35  1  0
 37 36  1  0
 39 40  1  0
 40 43  1  0
 40 42  1  0
 41 39  2  0
 44 45  1  0
 44 19  1  0
 46 44  1  0
 47 48  1  0
 47 51  1  0
 48 50  1  0
 49 47  2  0
 52 54  1  0
 52 51  1  0
 53 64  2  0
 54 59  1  0
 55 63  1  0
 55 65  1  0
 56 62  1  0
 56 58  1  0
 57 63  1  0
 58 57  1  0
 59 58  2  0
 60 54  2  0
 61 60  1  0
 61 56  2  0
 62 55  1  0
 63 53  1  0
 65 67  2  0
 66 65  1  0
 68 66  1  0
 69 78  2  0
 69 74  1  0
 70 66  1  0
 70 74  1  0
 71 70  1  0
 72 73  1  0
 72 71  1  0
 73 69  1  0
 74 75  2  0
 75 76  1  0
 77 76  2  0
 78 77  1  0
 79 53  1  0
 79 84  1  0
 79 80  1  0
 80 83  1  1
 80 81  1  0
 82 80  1  0
 84 87  1  0
 85 89  1  0
 85 84  1  0
 86 85  2  0
 89 88  1  0
 91 89  1  0
 91 92  1  0
 91 90  1  0
M  ISO  4   9 100  17 100  51 101  52 101
M  END
>  <TORSDO>  (66) 
F 19

>  <SCORE>  (66) 
-14.533

>  <name>  (66) 
65

>  <ligand_id>  (66) 
65

>  <original_smiles>  (66) 
[H]c1c([H])c([H])c2c(c1[H])C([H])([H])C([H])([H])C([H])([H])C2([H])N([H])C(=O)C1([H])N(C(=O)C([H])(N([H])C(=O)C([H])(N([H])C([H])([H])[H])C([H])([H])[H])C(C([H])([H])[H])(C([H])([H])[H])C([H])([H])[H])C([H])([H])c2c([H])c(OC([H])([H])C(=O)N([H])C([H])([H])c3c([H])c(N([H])C(=O)N4C([H])([H])C([H])([H])C([H])([H])C([H])(n5nc(-c6c([H])c([H])c(Oc7c([H])c([H])c(F)c([H])c7F)c([H])c6[H])c(C(=O)N([H])[H])c5N([H])[H])C4([H])[H])c([H])c([H])c3Cl)c([H])c([H])c2C1([H])[H]

>  <smiles>  (66) 
[H]c1c([H])c([H])c2c(c1[H])C([H])([H])C([H])([H])C([H])([H])C2([H])N([H])C(=O)C1([H])N(C(=O)C([H])(N([H])C(=O)C([H])(N([H])C([H])([H])[H])C([H])([H])[H])C(C([H])([H])[H])(C([H])([H])[H])C([H])([H])[H])C([H])([H])c2c([H])c(OC([H])([H])C(=O)N([H])C([H])([H])c3c([H])c(N([H])C(=O)N4C([H])([H])C([H])([H])C([H])([H])C([H])(n5nc(-c6c([H])c([H])c(Oc7c([H])c([H])c(F)c([H])c7F)c([H])c6[H])c(C(=O)N([H])[H])c5N([H])[H])C4([H])[H])c([H])c([H])c3Cl)c([H])c([H])c2C1([H])[H]

$$$$
66:0:0
     RDKit          3D

 93101  0  0  1  0  0  0  0  0999 V2000
  -29.9190  -22.5790   21.1830 C   0  0  0  0  0  0  0  0  0  0  0  0
  -32.1970  -22.2060   20.2760 C   0  0  0  0  0  1  0  0  0  0  0  0
  -31.0990  -21.9060   21.2010 N   0  0  0  0  0  0  0  0  0  0  0  0
  -28.9640  -22.2490   21.8930 O   0  0  0  0  0  0  0  0  0  0  0  0
  -31.4050  -20.8880   22.2190 C   0  0  0  0  0  2  0  0  0  0  0  0
  -29.8570  -18.9220   21.7800 C   0  0  0  0  0  3  0  0  0  0  0  0
  -32.2480  -18.6060   21.4510 C   0  0  0  0  0  3  0  0  0  0  0  0
  -29.6380  -17.5630   21.4780 C   0  0  0  0  0  3  0  0  0  0  0  0
  -32.0290  -17.2470   21.1420 C   0  0  0  0  0  3  0  0  0  0  0  0
  -31.1640  -19.4470   21.7850 C   0  0  0  0  0  0  0  0  0  0  0  0
  -30.7190  -16.7150   21.1580 C   0  0  0  0  0  0  0  0  0  0  0  0
  -31.0450  -14.4400   20.1560 C   0  0  0  0  0  0  0  0  0  0  0  0
  -30.6710  -12.3220   18.9440 C   0  0  0  0  0  2  0  0  0  0  0  0
  -29.6890  -12.5620   17.7780 C   0  0  0  0  0  2  0  0  0  0  0  0
  -28.2260  -12.4560   18.2520 C   0  0  0  0  0  2  0  0  0  0  0  0
  -27.9520  -13.2840   19.5350 C   0  0  0  0  0  3  0  0  0  0  0  0
  -29.0300  -12.9930   20.6020 C   0  0  0  0  0  2  0  0  0  0  0  0
  -30.3500  -13.2820   20.0080 N   0  0  0  0  0  0  0  0  0  0  0  0
  -32.1110  -14.6660   19.5720 O   0  0  0  0  0  0  0  0  0  0  0  0
  -30.4240  -15.3440   20.9330 N   0  0  0  0  0  0  0  0  0  0  0  0
  -29.5350  -15.0260   21.2830 H   0  0  0  0  0  0  0  0  0  0  0  0
  -25.5870  -13.9480   20.3130 C   0  0  0  0  0  0  0  0  0  0  0  0
  -24.5120  -13.1990   20.7110 C   0  0  0  0  0  0  0  0  0  0  0  0
  -24.9400  -11.8370   20.6590 C   0  0  0  0  0  0  0  0  0  0  0  0
  -26.6040  -13.0430   20.0480 N   0  0  0  0  0  0  0  0  0  0  0  0
  -26.2190  -11.7690   20.3110 N   0  0  0  0  0  0  0  0  0  0  0  0
  -24.1920  -10.5910   20.8640 C   0  0  0  0  0  0  0  0  0  0  0  0
  -24.5870   -9.6440   21.8350 C   0  0  0  0  0  3  0  0  0  0  0  0
  -23.8410   -8.4610   22.0260 C   0  0  0  0  0  3  0  0  0  0  0  0
  -22.6860   -8.2170   21.2450 C   0  0  0  0  0  0  0  0  0  0  0  0
  -22.3110   -9.1510   20.2630 C   0  0  0  0  0  3  0  0  0  0  0  0
  -23.0580  -10.3260   20.0700 C   0  0  0  0  0  3  0  0  0  0  0  0
  -21.9140   -7.0840   21.3430 O   0  0  0  0  0  0  0  0  0  0  0  0
  -21.7730   -6.4110   22.5300 C   0  0  0  0  0  0  0  0  0  0  0  0
  -21.2580   -7.0370   23.6850 C   0  0  0  0  0  3  0  0  0  0  0  0
  -21.0630   -6.2900   24.8640 C   0  0  0  0  0  3  0  0  0  0  0  0
  -21.3730   -4.9160   24.8870 C   0  0  0  0  0  0  0  0  0  0  0  0
  -21.8810   -4.2900   23.7350 C   0  0  0  0  0  3  0  0  0  0  0  0
  -22.0770   -5.0350   22.5590 C   0  0  0  0  0  0  0  0  0  0  0  0
  -22.5470   -4.4210   21.4460 F   0  0  0  0  0  0  0  0  0  0  0  0
  -21.1790   -4.1960   26.0150 F   0  0  0  0  0  0  0  0  0  0  0  0
  -23.1350  -13.7060   21.0300 C   0  0  0  0  0  0  0  0  0  0  0  0
  -22.4210  -13.0250   21.9200 N   0  0  0  0  0  0  0  0  0  0  0  0
  -22.7020  -14.7410   20.5250 O   0  0  0  0  0  0  0  0  0  0  0  0
  -22.7820  -12.1850   22.3480 H   0  0  0  0  0  0  0  0  0  0  0  0
  -21.4990  -13.3490   22.1780 H   0  0  0  0  0  0  0  0  0  0  0  0
  -25.7800  -15.3150   20.1360 N   0  0  0  0  0  0  0  0  0  0  0  0
  -25.0330  -15.9890   20.2670 H   0  0  0  0  0  0  0  0  0  0  0  0
  -26.6300  -15.7320   19.7760 H   0  0  0  0  0  0  0  0  0  0  0  0
  -29.7920  -23.8410   20.3050 C   0  0  0  0  0  2  0  0  0  0  0  0
  -28.3460  -24.2540   19.9490 C   0  0  0  0  0  2  0  0  0  0  0  0
  -28.2930  -25.5620   19.1330 C   0  0  0  0  0  2  0  0  0  0  0  0
  -28.1670  -26.7090   19.9800 O   0  0  0  0  0  0  0  0  0  0  0  0
  -24.4820  -31.8700   23.2060 C   0  0  0  0  0  0  0  0  0  0  0  0
  -26.9680  -27.3950   20.0330 C   0  0  0  0  0  0  0  0  0  0  0  0
  -23.2050  -30.4960   21.5920 C   0  0  0  0  0  3  0  0  0  0  0  0
  -24.5900  -28.9330   20.1310 C   0  0  0  0  0  0  0  0  0  0  0  0
  -25.7310  -30.8080   21.3270 C   0  0  0  0  0  2  0  0  0  0  0  0
  -25.7720  -29.4350   20.6880 C   0  0  0  0  0  0  0  0  0  0  0  0
  -26.9580  -28.6700   20.6440 C   0  0  0  0  0  3  0  0  0  0  0  0
  -25.7550  -26.8900   19.5030 C   0  0  0  0  0  3  0  0  0  0  0  0
  -24.5750  -27.6570   19.5440 C   0  0  0  0  0  3  0  0  0  0  0  0
  -23.3630  -29.8130   20.2070 C   0  0  0  0  0  2  0  0  0  0  0  0
  -24.4930  -31.0740   22.1000 N   0  0  0  0  0  0  0  0  0  0  0  0
  -23.4220  -32.1630   23.7750 O   0  0  0  0  0  0  0  0  0  0  0  0
  -22.5620  -29.4850   22.5670 C   0  0  0  0  0  0  0  0  0  0  0  0
  -21.2410  -29.2860   22.4360 N   0  0  0  0  0  0  0  0  0  0  0  0
  -23.2480  -28.8820   23.3960 O   0  0  0  0  0  0  0  0  0  0  0  0
  -20.7490  -29.8260   21.7380 H   0  0  0  0  0  0  0  0  0  0  0  0
  -17.8820  -28.0370   22.9010 C   0  0  0  0  0  0  0  0  0  0  0  0
  -20.4280  -28.3530   23.2170 C   0  0  0  0  0  3  0  0  0  0  0  0
  -20.5720  -26.9090   22.6820 C   0  0  0  0  0  2  0  0  0  0  0  0
  -19.4980  -26.5360   21.6550 C   0  0  0  0  0  2  0  0  0  0  0  0
  -18.1000  -26.6720   22.2670 C   0  0  0  0  0  2  0  0  0  0  0  0
  -18.9770  -28.8330   23.3320 C   0  0  0  0  0  0  0  0  0  0  0  0
  -18.7230  -30.1080   23.8810 C   0  0  0  0  0  3  0  0  0  0  0  0
  -17.4060  -30.5900   24.0030 C   0  0  0  0  0  3  0  0  0  0  0  0
  -16.3250  -29.7910   23.5920 C   0  0  0  0  0  3  0  0  0  0  0  0
  -16.5640  -28.5160   23.0470 C   0  0  0  0  0  3  0  0  0  0  0  0
  -25.7980  -32.4720   23.7920 C   0  0  0  0  0  3  0  0  0  0  0  0
  -25.5270  -33.8730   24.1400 N   0  0  0  0  0  0  0  0  0  0  0  0
  -25.8780  -34.9240   23.3880 C   0  0  0  0  0  0  0  0  0  0  0  0
  -26.5380  -34.8140   22.3510 O   0  0  0  0  0  0  0  0  0  0  0  0
  -24.9430  -34.0340   24.9490 H   0  0  0  0  0  0  0  0  0  0  0  0
  -24.2070  -36.7700   23.0390 C   0  0  0  0  0  1  0  0  0  0  0  0
  -25.4250  -36.3190   23.8590 C   0  0  0  0  0  3  0  0  0  0  0  0
  -27.5750  -37.1290   24.7290 C   0  0  0  0  0  1  0  0  0  0  0  0
  -26.4900  -37.3430   23.7740 N   0  0  0  0  0  0  0  0  0  0  0  0
  -26.1100  -38.2720   23.9280 H   0  0  0  0  0  0  0  0  0  0  0  0
  -26.3400  -31.6780   25.0440 C   0  0  1  0  0  0  0  0  0  0  0  0
  -25.2750  -31.4440   26.1410 C   0  0  0  0  0  1  0  0  0  0  0  0
  -26.8890  -30.2960   24.6180 C   0  0  0  0  0  1  0  0  0  0  0  0
  -27.5230  -32.4450   25.6800 C   0  0  0  0  0  1  0  0  0  0  0  0
  1  3  1  0
  1  4  2  0
  2  3  1  0
  3  5  1  0
  6 10  1  0
  7 10  2  0
  8  6  2  0
  9 11  2  0
  9  7  1  0
 10  5  1  0
 11  8  1  0
 12 20  1  0
 13 18  1  0
 14 15  1  0
 14 13  1  0
 16 15  1  0
 16 25  1  0
 16 17  1  0
 18 12  1  0
 18 17  1  0
 19 12  2  0
 20 11  1  0
 20 21  1  0
 22 23  2  0
 23 42  1  0
 24 23  1  0
 24 27  1  0
 25 26  1  0
 25 22  1  0
 26 24  2  0
 27 28  1  0
 28 29  2  0
 30 33  1  0
 30 29  1  0
 31 30  2  0
 32 31  1  0
 32 27  2  0
 33 34  1  0
 34 39  2  0
 34 35  1  0
 35 36  2  0
 36 37  1  0
 37 41  1  0
 38 37  2  0
 39 38  1  0
 40 39  1  0
 42 43  1  0
 43 46  1  0
 43 45  1  0
 44 42  2  0
 47 48  1  0
 47 22  1  0
 49 47  1  0
 50  1  1  0
 51 50  1  0
 52 51  1  0
 52 53  1  0
 53 55  1  0
 54 65  2  0
 55 60  1  0
 56 64  1  0
 56 66  1  0
 57 63  1  0
 57 59  1  0
 58 64  1  0
 59 58  1  0
 60 59  2  0
 61 62  1  0
 61 55  2  0
 62 57  2  0
 63 56  1  0
 64 54  1  0
 66 68  2  0
 67 66  1  0
 69 67  1  0
 70 79  2  0
 70 75  1  0
 71 67  1  0
 71 75  1  0
 72 71  1  0
 73 74  1  0
 73 72  1  0
 74 70  1  0
 75 76  2  0
 76 77  1  0
 78 77  2  0
 79 78  1  0
 80 54  1  0
 80 81  1  0
 80 90  1  0
 81 84  1  0
 82 86  1  0
 82 81  1  0
 83 82  2  0
 86 85  1  0
 88 86  1  0
 88 89  1  0
 88 87  1  0
 90 93  1  1
 90 91  1  0
 92 90  1  0
M  ISO  4  12 100  20 100  52 101  53 101
M  END
>  <TORSDO>  (67) 
F 21

>  <SCORE>  (67) 
-12.737

>  <name>  (67) 
66

>  <ligand_id>  (67) 
66

>  <original_smiles>  (67) 
[H]c1c([H])c([H])c2c(c1[H])C([H])([H])C([H])([H])C([H])([H])C2([H])N([H])C(=O)C1([H])N(C(=O)C([H])(N([H])C(=O)C([H])(N([H])C([H])([H])[H])C([H])([H])[H])C(C([H])([H])[H])(C([H])([H])[H])C([H])([H])[H])C([H])([H])c2c([H])c(OC([H])([H])C([H])([H])C([H])([H])C(=O)N(C([H])([H])[H])C([H])([H])c3c([H])c([H])c(N([H])C(=O)N4C([H])([H])C([H])([H])C([H])([H])C([H])(n5nc(-c6c([H])c([H])c(Oc7c([H])c([H])c(F)c([H])c7F)c([H])c6[H])c(C(=O)N([H])[H])c5N([H])[H])C4([H])[H])c([H])c3[H])c([H])c([H])c2C1([H])[H]

>  <smiles>  (67) 
[H]c1c([H])c([H])c2c(c1[H])C([H])([H])C([H])([H])C([H])([H])C2([H])N([H])C(=O)C1([H])N(C(=O)C([H])(N([H])C(=O)C([H])(N([H])C([H])([H])[H])C([H])([H])[H])C(C([H])([H])[H])(C([H])([H])[H])C([H])([H])[H])C([H])([H])c2c([H])c(OC([H])([H])C([H])([H])C([H])([H])C(=O)N(C([H])([H])[H])C([H])([H])c3c([H])c([H])c(N([H])C(=O)N4C([H])([H])C([H])([H])C([H])([H])C([H])(n5nc(-c6c([H])c([H])c(Oc7c([H])c([H])c(F)c([H])c7F)c([H])c6[H])c(C(=O)N([H])[H])c5N([H])[H])C4([H])[H])c([H])c3[H])c([H])c([H])c2C1([H])[H]

$$$$
67:0:0
     RDKit          3D

 93101  0  0  1  0  0  0  0  0999 V2000
  -28.4830  -22.8840   20.0720 C   0  0  0  0  0  0  0  0  0  0  0  0
  -30.8530  -22.2330   20.1990 C   0  0  0  0  0  1  0  0  0  0  0  0
  -29.4230  -21.9190   20.2970 N   0  0  0  0  0  0  0  0  0  0  0  0
  -27.3600  -22.5860   19.6460 O   0  0  0  0  0  0  0  0  0  0  0  0
  -28.8190  -24.2640   20.4580 C   0  0  0  0  0  3  0  0  0  0  0  0
  -28.2770  -25.2980   19.7690 C   0  0  0  0  0  3  0  0  0  0  0  0
  -28.3610  -26.6430   20.1040 O   0  0  0  0  0  0  0  0  0  0  0  0
  -24.5860  -31.8780   23.2240 C   0  0  0  0  0  0  0  0  0  0  0  0
  -27.1970  -27.4080   20.1010 C   0  0  0  0  0  0  0  0  0  0  0  0
  -23.3650  -30.4800   21.5940 C   0  0  0  0  0  3  0  0  0  0  0  0
  -24.8060  -28.9500   20.1510 C   0  0  0  0  0  0  0  0  0  0  0  0
  -25.8950  -30.8330   21.3700 C   0  0  0  0  0  2  0  0  0  0  0  0
  -25.9760  -29.4600   20.7260 C   0  0  0  0  0  0  0  0  0  0  0  0
  -27.1730  -28.6960   20.6990 C   0  0  0  0  0  3  0  0  0  0  0  0
  -25.9900  -26.9290   19.5270 C   0  0  0  0  0  3  0  0  0  0  0  0
  -24.8090  -27.6850   19.5520 C   0  0  0  0  0  3  0  0  0  0  0  0
  -23.5630  -29.8100   20.2110 C   0  0  0  0  0  2  0  0  0  0  0  0
  -24.6350  -31.0770   22.1210 N   0  0  0  0  0  0  0  0  0  0  0  0
  -23.5080  -32.1470   23.7750 O   0  0  0  0  0  0  0  0  0  0  0  0
  -22.7250  -29.4520   22.5570 C   0  0  0  0  0  0  0  0  0  0  0  0
  -21.4000  -29.2660   22.4410 N   0  0  0  0  0  0  0  0  0  0  0  0
  -23.4180  -28.8290   23.3660 O   0  0  0  0  0  0  0  0  0  0  0  0
  -20.9010  -29.8230   21.7620 H   0  0  0  0  0  0  0  0  0  0  0  0
  -18.0340  -28.0520   22.9600 C   0  0  0  0  0  0  0  0  0  0  0  0
  -20.5920  -28.3240   23.2190 C   0  0  0  0  0  3  0  0  0  0  0  0
  -20.6980  -26.8910   22.6430 C   0  0  0  0  0  2  0  0  0  0  0  0
  -19.5920  -26.5620   21.6360 C   0  0  0  0  0  2  0  0  0  0  0  0
  -18.2130  -26.7020   22.2890 C   0  0  0  0  0  2  0  0  0  0  0  0
  -19.1510  -28.8200   23.3840 C   0  0  0  0  0  0  0  0  0  0  0  0
  -18.9300  -30.0840   23.9730 C   0  0  0  0  0  3  0  0  0  0  0  0
  -17.6240  -30.5790   24.1430 C   0  0  0  0  0  3  0  0  0  0  0  0
  -16.5210  -29.8080   23.7390 C   0  0  0  0  0  3  0  0  0  0  0  0
  -16.7260  -28.5460   23.1520 C   0  0  0  0  0  3  0  0  0  0  0  0
  -25.8740  -32.5120   23.8310 C   0  0  0  0  0  3  0  0  0  0  0  0
  -26.4120  -31.7350   25.0950 C   0  0  1  0  0  0  0  0  0  0  0  0
  -25.3360  -31.4840   26.1770 C   0  0  0  0  0  1  0  0  0  0  0  0
  -26.9960  -30.3640   24.6830 C   0  0  0  0  0  1  0  0  0  0  0  0
  -27.5660  -32.5310   25.7480 C   0  0  0  0  0  1  0  0  0  0  0  0
  -25.5620  -33.9070   24.1730 N   0  0  0  0  0  0  0  0  0  0  0  0
  -25.8840  -34.9660   23.4170 C   0  0  0  0  0  0  0  0  0  0  0  0
  -26.5460  -34.8710   22.3800 O   0  0  0  0  0  0  0  0  0  0  0  0
  -24.9730  -34.0500   24.9800 H   0  0  0  0  0  0  0  0  0  0  0  0
  -24.1490  -36.7580   23.0800 C   0  0  0  0  0  1  0  0  0  0  0  0
  -25.3930  -36.3490   23.8860 C   0  0  0  0  0  3  0  0  0  0  0  0
  -27.5270  -37.2330   24.7200 C   0  0  0  0  0  1  0  0  0  0  0  0
  -26.4220  -37.4070   23.7800 N   0  0  0  0  0  0  0  0  0  0  0  0
  -26.0140  -38.3240   23.9390 H   0  0  0  0  0  0  0  0  0  0  0  0
  -29.0150  -20.4830   20.2510 C   0  0  0  0  0  2  0  0  0  0  0  0
  -31.4060  -18.3580   22.5070 C   0  0  0  0  0  3  0  0  0  0  0  0
  -31.3100  -17.0950   21.8920 C   0  0  0  0  0  3  0  0  0  0  0  0
  -29.7770  -18.0500   20.2620 C   0  0  0  0  0  3  0  0  0  0  0  0
  -30.6690  -19.4670   22.0340 C   0  0  0  0  0  0  0  0  0  0  0  0
  -29.8830  -19.3430   20.8540 C   0  0  0  0  0  0  0  0  0  0  0  0
  -30.4600  -16.9190   20.7840 C   0  0  0  0  0  0  0  0  0  0  0  0
  -30.7040  -20.7300   22.8790 C   0  0  0  0  0  1  0  0  0  0  0  0
  -30.9220  -14.5460   20.0450 C   0  0  0  0  0  0  0  0  0  0  0  0
  -30.5800  -12.3520   18.9480 C   0  0  0  0  0  2  0  0  0  0  0  0
  -29.5940  -12.5250   17.7730 C   0  0  0  0  0  2  0  0  0  0  0  0
  -28.1310  -12.4320   18.2550 C   0  0  0  0  0  2  0  0  0  0  0  0
  -27.8510  -13.3130   19.5020 C   0  0  0  0  0  3  0  0  0  0  0  0
  -28.9390  -13.0970   20.5780 C   0  0  0  0  0  2  0  0  0  0  0  0
  -30.2430  -13.3700   19.9530 N   0  0  0  0  0  0  0  0  0  0  0  0
  -32.0800  -14.6900   19.6410 O   0  0  0  0  0  0  0  0  0  0  0  0
  -30.1310  -15.6020   20.3360 N   0  0  0  0  0  0  0  0  0  0  0  0
  -29.1490  -15.3750   20.3680 H   0  0  0  0  0  0  0  0  0  0  0  0
  -25.5120  -14.0220   20.3070 C   0  0  0  0  0  0  0  0  0  0  0  0
  -24.4270  -13.2930   20.7140 C   0  0  0  0  0  0  0  0  0  0  0  0
  -24.8290  -11.9230   20.6610 C   0  0  0  0  0  0  0  0  0  0  0  0
  -26.5080  -13.0960   20.0330 N   0  0  0  0  0  0  0  0  0  0  0  0
  -26.1040  -11.8310   20.3060 N   0  0  0  0  0  0  0  0  0  0  0  0
  -24.0580  -10.6920   20.8750 C   0  0  0  0  0  0  0  0  0  0  0  0
  -24.4600   -9.7250   21.8210 C   0  0  0  0  0  3  0  0  0  0  0  0
  -23.6930   -8.5560   22.0200 C   0  0  0  0  0  3  0  0  0  0  0  0
  -22.5100   -8.3480   21.2730 C   0  0  0  0  0  0  0  0  0  0  0  0
  -22.1260   -9.3040   20.3170 C   0  0  0  0  0  3  0  0  0  0  0  0
  -22.8920  -10.4630   20.1150 C   0  0  0  0  0  3  0  0  0  0  0  0
  -21.7160   -7.2320   21.3810 O   0  0  0  0  0  0  0  0  0  0  0  0
  -21.6110   -6.5340   22.5570 C   0  0  0  0  0  0  0  0  0  0  0  0
  -21.1700   -7.1470   23.7490 C   0  0  0  0  0  3  0  0  0  0  0  0
  -21.0110   -6.3780   24.9200 C   0  0  0  0  0  3  0  0  0  0  0  0
  -21.2820   -4.9960   24.8970 C   0  0  0  0  0  0  0  0  0  0  0  0
  -21.7150   -4.3830   23.7080 C   0  0  0  0  0  3  0  0  0  0  0  0
  -21.8770   -5.1500   22.5410 C   0  0  0  0  0  0  0  0  0  0  0  0
  -22.2750   -4.5500   21.3930 F   0  0  0  0  0  0  0  0  0  0  0  0
  -21.1200   -4.2550   26.0180 F   0  0  0  0  0  0  0  0  0  0  0  0
  -23.0600  -13.8270   21.0370 C   0  0  0  0  0  0  0  0  0  0  0  0
  -22.3410  -13.1660   21.9360 N   0  0  0  0  0  0  0  0  0  0  0  0
  -22.6420  -14.8640   20.5250 O   0  0  0  0  0  0  0  0  0  0  0  0
  -22.6940  -12.3270   22.3740 H   0  0  0  0  0  0  0  0  0  0  0  0
  -21.4230  -13.5020   22.1890 H   0  0  0  0  0  0  0  0  0  0  0  0
  -25.7270  -15.3850   20.1260 N   0  0  0  0  0  0  0  0  0  0  0  0
  -24.9850  -16.0650   20.2610 H   0  0  0  0  0  0  0  0  0  0  0  0
  -26.5660  -15.7920   19.7330 H   0  0  0  0  0  0  0  0  0  0  0  0
  1  3  1  0
  1  5  1  0
  2  3  1  0
  4  1  2  0
  6  7  1  0
  6  5  2  0
  8 19  2  0
  9  7  1  0
  9 14  1  0
 10 18  1  0
 10 20  1  0
 11 17  1  0
 11 13  1  0
 12 18  1  0
 13 12  1  0
 14 13  2  0
 15 16  1  0
 15  9  2  0
 16 11  2  0
 17 10  1  0
 18  8  1  0
 20 22  2  0
 21 20  1  0
 23 21  1  0
 24 33  2  0
 24 29  1  0
 25 21  1  0
 25 29  1  0
 26 25  1  0
 27 28  1  0
 27 26  1  0
 28 24  1  0
 29 30  2  0
 30 31  1  0
 32 31  2  0
 33 32  1  0
 34  8  1  0
 34 39  1  0
 34 35  1  0
 35 38  1  1
 35 36  1  0
 37 35  1  0
 39 42  1  0
 40 44  1  0
 40 39  1  0
 41 40  2  0
 44 43  1  0
 46 44  1  0
 46 47  1  0
 46 45  1  0
 48  3  1  0
 48 53  1  0
 50 49  2  0
 51 54  2  0
 51 53  1  0
 52 49  1  0
 52 55  1  0
 53 52  2  0
 54 50  1  0
 56 64  1  0
 57 62  1  0
 58 59  1  0
 58 57  1  0
 60 59  1  0
 60 69  1  0
 60 61  1  0
 62 56  1  0
 62 61  1  0
 63 56  2  0
 64 65  1  0
 64 54  1  0
 66 67  2  0
 67 86  1  0
 68 67  1  0
 68 71  1  0
 69 70  1  0
 69 66  1  0
 70 68  2  0
 71 72  1  0
 72 73  2  0
 74 77  1  0
 74 73  1  0
 75 74  2  0
 76 75  1  0
 76 71  2  0
 77 78  1  0
 78 79  1  0
 79 80  2  0
 81 80  1  0
 81 85  1  0
 82 81  2  0
 83 78  2  0
 83 82  1  0
 84 83  1  0
 86 87  1  0
 87 90  1  0
 87 89  1  0
 88 86  2  0
 91 92  1  0
 91 66  1  0
 93 91  1  0
M  ISO  4   6 101   7 101  56 100  64 100
M  END
>  <TORSDO>  (68) 
F 19

>  <SCORE>  (68) 
-13.757

>  <name>  (68) 
67

>  <ligand_id>  (68) 
67

>  <original_smiles>  (68) 
[H]C(Oc1c([H])c([H])c2c(c1[H])C([H])([H])N(C(=O)C([H])(N([H])C(=O)C([H])(N([H])C([H])([H])[H])C([H])([H])[H])C(C([H])([H])[H])(C([H])([H])[H])C([H])([H])[H])C([H])(C(=O)N([H])C1([H])c3c([H])c([H])c([H])c([H])c3C([H])([H])C([H])([H])C1([H])[H])C2([H])[H])=C([H])C(=O)N(C([H])([H])[H])C([H])([H])c1c([H])c(N([H])C(=O)N2C([H])([H])C([H])([H])C([H])([H])C([H])(n3nc(-c4c([H])c([H])c(Oc5c([H])c([H])c(F)c([H])c5F)c([H])c4[H])c(C(=O)N([H])[H])c3N([H])[H])C2([H])[H])c([H])c([H])c1C([H])([H])[H]

>  <smiles>  (68) 
[H]C(Oc1c([H])c([H])c2c(c1[H])C([H])([H])N(C(=O)C([H])(N([H])C(=O)C([H])(N([H])C([H])([H])[H])C([H])([H])[H])C(C([H])([H])[H])(C([H])([H])[H])C([H])([H])[H])C([H])(C(=O)N([H])C1([H])c3c([H])c([H])c([H])c([H])c3C([H])([H])C([H])([H])C1([H])[H])C2([H])[H])=C([H])C(=O)N(C([H])([H])[H])C([H])([H])c1c([H])c(N([H])C(=O)N2C([H])([H])C([H])([H])C([H])([H])C([H])(n3nc(-c4c([H])c([H])c(Oc5c([H])c([H])c(F)c([H])c5F)c([H])c4[H])c(C(=O)N([H])[H])c3N([H])[H])C2([H])[H])c([H])c([H])c1C([H])([H])[H]

$$$$
68:0:0
     RDKit          3D

 94102  0  0  1  0  0  0  0  0999 V2000
  -30.0020  -21.9560   17.6450 C   0  0  0  0  0  0  0  0  0  0  0  0
  -32.1430  -23.0960   17.1270 C   0  0  0  0  0  1  0  0  0  0  0  0
  -30.6940  -22.9330   17.0020 N   0  0  0  0  0  0  0  0  0  0  0  0
  -28.7910  -21.7890   17.4620 O   0  0  0  0  0  0  0  0  0  0  0  0
  -30.7760  -21.1430   18.5830 C   0  0  0  0  0  3  0  0  0  0  0  0
  -30.6200  -19.8080   18.6380 C   0  0  0  0  0  3  0  0  0  0  0  0
  -31.4560  -18.9370   19.5520 C   0  0  0  0  0  2  0  0  0  0  0  0
  -31.1640  -17.5510   19.4220 O   0  0  0  0  0  0  0  0  0  0  0  0
  -37.8320  -15.1630   18.8880 C   0  0  0  0  0  0  0  0  0  0  0  0
  -32.0930  -16.9140   18.6460 C   0  0  0  0  0  0  0  0  0  0  0  0
  -36.5590  -15.3100   16.7730 C   0  0  0  0  0  3  0  0  0  0  0  0
  -34.0570  -15.7280   17.0180 C   0  0  0  0  0  0  0  0  0  0  0  0
  -35.3570  -14.9190   18.9980 C   0  0  0  0  0  2  0  0  0  0  0  0
  -34.1580  -15.6380   18.4120 C   0  0  0  0  0  0  0  0  0  0  0  0
  -33.1720  -16.2200   19.2350 C   0  0  0  0  0  3  0  0  0  0  0  0
  -32.0000  -17.0050   17.2450 C   0  0  0  0  0  3  0  0  0  0  0  0
  -32.9820  -16.4170   16.4280 C   0  0  0  0  0  3  0  0  0  0  0  0
  -35.1390  -15.0490   16.2100 C   0  0  0  0  0  2  0  0  0  0  0  0
  -36.6200  -15.1580   18.2610 N   0  0  0  0  0  0  0  0  0  0  0  0
  -38.8880  -15.2440   18.2440 O   0  0  0  0  0  0  0  0  0  0  0  0
  -37.0390  -16.6910   16.2730 C   0  0  0  0  0  0  0  0  0  0  0  0
  -37.7080  -16.7050   15.1090 N   0  0  0  0  0  0  0  0  0  0  0  0
  -36.7830  -17.7170   16.9090 O   0  0  0  0  0  0  0  0  0  0  0  0
  -37.8850  -15.8200   14.6540 H   0  0  0  0  0  0  0  0  0  0  0  0
  -39.7780  -17.8020   12.3600 C   0  0  0  0  0  0  0  0  0  0  0  0
  -38.2260  -17.8890   14.4260 C   0  0  0  0  0  3  0  0  0  0  0  0
  -37.1670  -18.4970   13.4790 C   0  0  0  0  0  2  0  0  0  0  0  0
  -37.2710  -17.9780   12.0420 C   0  0  0  0  0  2  0  0  0  0  0  0
  -38.6540  -18.2840   11.4580 C   0  0  0  0  0  2  0  0  0  0  0  0
  -39.5710  -17.5990   13.7510 C   0  0  0  0  0  0  0  0  0  0  0  0
  -40.6370  -17.1100   14.5370 C   0  0  0  0  0  3  0  0  0  0  0  0
  -41.8890  -16.8280   13.9580 C   0  0  0  0  0  3  0  0  0  0  0  0
  -42.0930  -17.0490   12.5850 C   0  0  0  0  0  3  0  0  0  0  0  0
  -41.0410  -17.5370   11.7880 C   0  0  0  0  0  3  0  0  0  0  0  0
  -37.9540  -15.0370   20.4390 C   0  0  0  0  0  3  0  0  0  0  0  0
  -38.6650  -16.2770   21.1070 C   0  0  1  0  0  0  0  0  0  0  0  0
  -40.1900  -16.3290   20.8490 C   0  0  0  0  0  1  0  0  0  0  0  0
  -38.0530  -17.5980   20.5880 C   0  0  0  0  0  1  0  0  0  0  0  0
  -38.4350  -16.2520   22.6350 C   0  0  0  0  0  1  0  0  0  0  0  0
  -38.6810  -13.7950   20.7310 N   0  0  0  0  0  0  0  0  0  0  0  0
  -38.0990  -12.6090   20.9490 C   0  0  0  0  0  0  0  0  0  0  0  0
  -36.8750  -12.4620   20.9970 O   0  0  0  0  0  0  0  0  0  0  0  0
  -39.6890  -13.8300   20.6430 H   0  0  0  0  0  0  0  0  0  0  0  0
  -39.0810  -10.5830   19.8390 C   0  0  0  0  0  1  0  0  0  0  0  0
  -39.0220  -11.3920   21.1440 C   0  0  0  0  0  3  0  0  0  0  0  0
  -38.9510  -11.0530   23.5720 C   0  0  0  0  0  1  0  0  0  0  0  0
  -38.6090  -10.5160   22.2600 N   0  0  0  0  0  0  0  0  0  0  0  0
  -39.0340   -9.5950   22.1740 H   0  0  0  0  0  0  0  0  0  0  0  0
  -30.0350  -24.0310   16.2620 C   0  0  0  0  0  2  0  0  0  0  0  0
  -30.1690  -22.7060   14.1000 C   0  0  0  0  0  3  0  0  0  0  0  0
  -30.2740  -22.6150   12.7050 C   0  0  0  0  0  3  0  0  0  0  0  0
  -30.2080  -25.1380   13.9450 C   0  0  0  0  0  3  0  0  0  0  0  0
  -30.1530  -23.9620   14.7380 C   0  0  0  0  0  0  0  0  0  0  0  0
  -30.3240  -23.7780   11.9100 C   0  0  0  0  0  0  0  0  0  0  0  0
  -30.2790  -25.0570   12.5280 C   0  0  0  0  0  0  0  0  0  0  0  0
  -30.3480  -23.6010   10.3950 C   0  0  0  0  0  1  0  0  0  0  0  0
  -30.6040  -27.4680   12.0070 C   0  0  0  0  0  0  0  0  0  0  0  0
  -29.7070  -29.7770   12.0860 C   0  0  0  0  0  2  0  0  0  0  0  0
  -29.1940  -30.0810   13.5080 C   0  0  0  0  0  2  0  0  0  0  0  0
  -27.7520  -29.5720   13.7050 C   0  0  0  0  0  2  0  0  0  0  0  0
  -27.5730  -28.1020   13.2480 C   0  0  0  0  0  3  0  0  0  0  0  0
  -28.1440  -27.9380   11.8240 C   0  0  0  0  0  2  0  0  0  0  0  0
  -29.5700  -28.3330   11.8420 N   0  0  0  0  0  0  0  0  0  0  0  0
  -31.7530  -27.8170   12.3060 O   0  0  0  0  0  0  0  0  0  0  0  0
  -30.2820  -26.2050   11.6800 N   0  0  0  0  0  0  0  0  0  0  0  0
  -29.4820  -26.2100   11.0660 H   0  0  0  0  0  0  0  0  0  0  0  0
  -25.4890  -27.0460   14.3430 C   0  0  0  0  0  0  0  0  0  0  0  0
  -24.1910  -26.9260   13.9140 C   0  0  0  0  0  0  0  0  0  0  0  0
  -24.1540  -27.5120   12.6140 C   0  0  0  0  0  0  0  0  0  0  0  0
  -26.1750  -27.6720   13.3150 N   0  0  0  0  0  0  0  0  0  0  0  0
  -25.3690  -27.9100   12.2520 N   0  0  0  0  0  0  0  0  0  0  0  0
  -23.0250  -27.7740   11.7130 C   0  0  0  0  0  0  0  0  0  0  0  0
  -22.6760  -26.8710   10.6830 C   0  0  0  0  0  3  0  0  0  0  0  0
  -21.5750  -27.1390    9.8390 C   0  0  0  0  0  3  0  0  0  0  0  0
  -20.8040  -28.3110   10.0230 C   0  0  0  0  0  0  0  0  0  0  0  0
  -21.1710  -29.2160   11.0330 C   0  0  0  0  0  3  0  0  0  0  0  0
  -22.2690  -28.9530   11.8710 C   0  0  0  0  0  3  0  0  0  0  0  0
  -19.7320  -28.6640    9.2390 O   0  0  0  0  0  0  0  0  0  0  0  0
  -18.5410  -27.9880    9.3080 C   0  0  0  0  0  0  0  0  0  0  0  0
  -18.0170  -27.5160   10.5320 C   0  0  0  0  0  3  0  0  0  0  0  0
  -16.7550  -26.8880   10.5630 C   0  0  0  0  0  3  0  0  0  0  0  0
  -16.0100  -26.7440    9.3770 C   0  0  0  0  0  0  0  0  0  0  0  0
  -16.5270  -27.2190    8.1590 C   0  0  0  0  0  3  0  0  0  0  0  0
  -17.7860  -27.8410    8.1270 C   0  0  0  0  0  0  0  0  0  0  0  0
  -18.2680  -28.3170    6.9530 F   0  0  0  0  0  0  0  0  0  0  0  0
  -14.7960  -26.1480    9.4090 F   0  0  0  0  0  0  0  0  0  0  0  0
  -23.0320  -26.3840   14.7000 C   0  0  0  0  0  0  0  0  0  0  0  0
  -22.2780  -25.4520   14.1200 N   0  0  0  0  0  0  0  0  0  0  0  0
  -22.8150  -26.7510   15.8510 O   0  0  0  0  0  0  0  0  0  0  0  0
  -22.4650  -25.1350   13.1790 H   0  0  0  0  0  0  0  0  0  0  0  0
  -21.4950  -25.0600   14.6220 H   0  0  0  0  0  0  0  0  0  0  0  0
  -26.1410  -26.6910   15.5170 N   0  0  0  0  0  0  0  0  0  0  0  0
  -25.6820  -26.2570   16.3100 H   0  0  0  0  0  0  0  0  0  0  0  0
  -27.1310  -26.8410   15.6750 H   0  0  0  0  0  0  0  0  0  0  0  0
  1  5  1  0
  3  2  1  0
  3  1  1  0
  4  1  2  0
  5  6  2  0
  6  7  1  0
  8  7  1  0
 10 15  1  0
 10  8  1  0
 11 21  1  0
 11 19  1  0
 12 14  1  0
 14 13  1  0
 14 15  2  0
 16 10  2  0
 17 12  2  0
 17 16  1  0
 18 11  1  0
 18 12  1  0
 19  9  1  0
 19 13  1  0
 20  9  2  0
 21 23  2  0
 22 21  1  0
 24 22  1  0
 25 30  1  0
 26 22  1  0
 27 26  1  0
 28 27  1  0
 29 28  1  0
 29 25  1  0
 30 26  1  0
 30 31  2  0
 32 31  1  0
 33 32  2  0
 34 25  2  0
 34 33  1  0
 35  9  1  0
 35 40  1  0
 35 36  1  0
 36 39  1  1
 37 36  1  0
 38 36  1  0
 40 41  1  0
 41 42  2  0
 41 45  1  0
 43 40  1  0
 45 44  1  0
 45 47  1  0
 47 46  1  0
 48 47  1  0
 49  3  1  0
 50 53  1  0
 51 50  2  0
 52 53  2  0
 53 49  1  0
 54 55  2  0
 54 51  1  0
 55 52  1  0
 56 54  1  0
 57 64  2  0
 58 59  1  0
 59 60  1  0
 61 62  1  0
 61 70  1  0
 61 60  1  0
 62 63  1  0
 63 57  1  0
 63 58  1  0
 65 57  1  0
 65 55  1  0
 66 65  1  0
 67 92  1  0
 68 67  2  0
 68 87  1  0
 69 68  1  0
 70 67  1  0
 71 69  2  0
 71 70  1  0
 72 77  1  0
 72 69  1  0
 73 72  2  0
 74 75  2  0
 74 73  1  0
 75 76  1  0
 76 77  2  0
 78 79  1  0
 78 75  1  0
 79 80  1  0
 80 81  2  0
 82 86  1  0
 82 81  1  0
 83 82  2  0
 84 83  1  0
 84 79  2  0
 85 84  1  0
 87 89  2  0
 88 91  1  0
 88 87  1  0
 90 88  1  0
 92 94  1  0
 92 93  1  0
M  ISO  4   7 101   8 101  57 100  65 100
M  END
>  <TORSDO>  (69) 
F 20

>  <SCORE>  (69) 
-4.451

>  <name>  (69) 
68

>  <ligand_id>  (69) 
68

>  <original_smiles>  (69) 
[H]C(C(=O)N(C([H])([H])[H])C([H])([H])c1c([H])c([H])c(C([H])([H])[H])c(N([H])C(=O)N2C([H])([H])C([H])([H])C([H])([H])C([H])(n3nc(-c4c([H])c([H])c(Oc5c([H])c([H])c(F)c([H])c5F)c([H])c4[H])c(C(=O)N([H])[H])c3N([H])[H])C2([H])[H])c1[H])=C([H])C([H])([H])Oc1c([H])c([H])c2c(c1[H])C([H])([H])N(C(=O)C([H])(N([H])C(=O)C([H])(N([H])C([H])([H])[H])C([H])([H])[H])C(C([H])([H])[H])(C([H])([H])[H])C([H])([H])[H])C([H])(C(=O)N([H])C1([H])c3c([H])c([H])c([H])c([H])c3C([H])([H])C([H])([H])C1([H])[H])C2([H])[H]

>  <smiles>  (69) 
[H]C(C(=O)N(C([H])([H])[H])C([H])([H])c1c([H])c([H])c(C([H])([H])[H])c(N([H])C(=O)N2C([H])([H])C([H])([H])C([H])([H])C([H])(n3nc(-c4c([H])c([H])c(Oc5c([H])c([H])c(F)c([H])c5F)c([H])c4[H])c(C(=O)N([H])[H])c3N([H])[H])C2([H])[H])c1[H])=C([H])C([H])([H])Oc1c([H])c([H])c2c(c1[H])C([H])([H])N(C(=O)C([H])(N([H])C(=O)C([H])(N([H])C([H])([H])[H])C([H])([H])[H])C(C([H])([H])[H])(C([H])([H])[H])C([H])([H])[H])C([H])(C(=O)N([H])C1([H])c3c([H])c([H])c([H])c([H])c3C([H])([H])C([H])([H])C1([H])[H])C2([H])[H]

$$$$
69:0:0
     RDKit          3D

 97105  0  0  1  0  0  0  0  0999 V2000
  -31.4180  -21.1850   22.3210 C   0  0  0  0  0  2  0  0  0  0  0  0
  -31.2780  -19.2440   20.6360 C   0  0  0  0  0  3  0  0  0  0  0  0
  -31.1430  -17.8800   20.3110 C   0  0  0  0  0  3  0  0  0  0  0  0
  -30.8360  -17.3750   22.6610 C   0  0  0  0  0  3  0  0  0  0  0  0
  -31.2220  -19.6970   21.9780 C   0  0  0  0  0  0  0  0  0  0  0  0
  -30.9800  -18.7380   23.0070 C   0  0  0  0  0  0  0  0  0  0  0  0
  -30.9270  -16.9270   21.3300 C   0  0  0  0  0  0  0  0  0  0  0  0
  -31.2850  -14.7010   20.2020 C   0  0  0  0  0  0  0  0  0  0  0  0
  -30.8810  -12.6030   18.9610 C   0  0  0  0  0  2  0  0  0  0  0  0
  -29.8810  -12.8510   17.8140 C   0  0  0  0  0  2  0  0  0  0  0  0
  -28.4250  -12.7380   18.3110 C   0  0  0  0  0  2  0  0  0  0  0  0
  -28.1710  -13.5560   19.6030 C   0  0  0  0  0  3  0  0  0  0  0  0
  -29.2660  -13.2570   20.6510 C   0  0  0  0  0  2  0  0  0  0  0  0
  -30.5800  -13.5490   20.0450 N   0  0  0  0  0  0  0  0  0  0  0  0
  -32.3130  -14.9530   19.5630 O   0  0  0  0  0  0  0  0  0  0  0  0
  -30.7640  -15.5290   21.1210 N   0  0  0  0  0  0  0  0  0  0  0  0
  -30.0010  -15.1110   21.6310 H   0  0  0  0  0  0  0  0  0  0  0  0
  -25.8360  -14.2220   20.4670 C   0  0  0  0  0  0  0  0  0  0  0  0
  -24.7580  -13.4720   20.8540 C   0  0  0  0  0  0  0  0  0  0  0  0
  -25.1600  -12.1080   20.7290 C   0  0  0  0  0  0  0  0  0  0  0  0
  -26.8310  -13.3150   20.1360 N   0  0  0  0  0  0  0  0  0  0  0  0
  -26.4290  -12.0350   20.3470 N   0  0  0  0  0  0  0  0  0  0  0  0
  -24.3950  -10.8650   20.8940 C   0  0  0  0  0  0  0  0  0  0  0  0
  -24.7660   -9.8920   21.8500 C   0  0  0  0  0  3  0  0  0  0  0  0
  -24.0050   -8.7140   22.0020 C   0  0  0  0  0  3  0  0  0  0  0  0
  -22.8590   -8.5000   21.2000 C   0  0  0  0  0  0  0  0  0  0  0  0
  -22.5080   -9.4610   20.2360 C   0  0  0  0  0  3  0  0  0  0  0  0
  -23.2690  -10.6310   20.0810 C   0  0  0  0  0  3  0  0  0  0  0  0
  -22.0740   -7.3740   21.2610 O   0  0  0  0  0  0  0  0  0  0  0  0
  -21.8320   -6.7280   22.4470 C   0  0  0  0  0  0  0  0  0  0  0  0
  -21.2260   -7.3820   23.5410 C   0  0  0  0  0  3  0  0  0  0  0  0
  -20.9330   -6.6620   24.7160 C   0  0  0  0  0  3  0  0  0  0  0  0
  -21.2360   -5.2900   24.7970 C   0  0  0  0  0  0  0  0  0  0  0  0
  -21.8350   -4.6360   23.7060 C   0  0  0  0  0  3  0  0  0  0  0  0
  -22.1290   -5.3520   22.5340 C   0  0  0  0  0  0  0  0  0  0  0  0
  -22.6880   -4.7130   21.4780 F   0  0  0  0  0  0  0  0  0  0  0  0
  -20.9470   -4.5960   25.9220 F   0  0  0  0  0  0  0  0  0  0  0  0
  -23.3980  -13.9860   21.2290 C   0  0  0  0  0  0  0  0  0  0  0  0
  -22.7030  -13.2890   22.1220 N   0  0  0  0  0  0  0  0  0  0  0  0
  -22.9610  -15.0400   20.7680 O   0  0  0  0  0  0  0  0  0  0  0  0
  -23.0690  -12.4350   22.5160 H   0  0  0  0  0  0  0  0  0  0  0  0
  -21.7920  -13.6130   22.4140 H   0  0  0  0  0  0  0  0  0  0  0  0
  -26.0480  -15.5920   20.3510 N   0  0  0  0  0  0  0  0  0  0  0  0
  -25.3170  -16.2710   20.5350 H   0  0  0  0  0  0  0  0  0  0  0  0
  -26.9020  -16.0140   20.0090 H   0  0  0  0  0  0  0  0  0  0  0  0
  -29.4010  -19.6310   24.7900 C   0  0  0  0  0  1  0  0  0  0  0  0
  -30.8120  -19.1120   24.4880 C   0  0  2  0  0  0  0  0  0  0  0  0
  -31.7020  -20.0160   24.8930 F   0  0  0  0  0  0  0  0  0  0  0  0
  -31.0060  -18.0350   25.2510 F   0  0  0  0  0  0  0  0  0  0  0  0
  -31.8190  -23.0550   20.6730 C   0  0  0  0  0  0  0  0  0  0  0  0
  -33.6880  -21.7040   21.4630 C   0  0  0  0  0  1  0  0  0  0  0  0
  -32.2490  -22.0000   21.4140 N   0  0  0  0  0  0  0  0  0  0  0  0
  -32.5780  -23.6370   19.8900 O   0  0  0  0  0  0  0  0  0  0  0  0
  -30.3820  -23.5920   20.8310 C   0  0  0  0  0  2  0  0  0  0  0  0
  -30.1960  -25.0310   20.2920 C   0  0  0  0  0  2  0  0  0  0  0  0
  -28.7330  -25.5050   20.3040 C   0  0  0  0  0  2  0  0  0  0  0  0
  -28.7040  -26.9170   20.0980 O   0  0  0  0  0  0  0  0  0  0  0  0
  -24.5050  -31.7490   23.1780 C   0  0  0  0  0  0  0  0  0  0  0  0
  -27.4690  -27.5250   20.0940 C   0  0  0  0  0  0  0  0  0  0  0  0
  -23.4090  -30.2920   21.5040 C   0  0  0  0  0  3  0  0  0  0  0  0
  -24.9760  -28.8610   20.0910 C   0  0  0  0  0  0  0  0  0  0  0  0
  -25.9080  -30.8140   21.3440 C   0  0  0  0  0  2  0  0  0  0  0  0
  -26.0890  -29.4580   20.6940 C   0  0  0  0  0  0  0  0  0  0  0  0
  -27.3370  -28.8000   20.6890 C   0  0  0  0  0  3  0  0  0  0  0  0
  -26.3330  -26.9310   19.4960 C   0  0  0  0  0  3  0  0  0  0  0  0
  -25.0920  -27.5950   19.4900 C   0  0  0  0  0  3  0  0  0  0  0  0
  -23.6800  -29.6380   20.1230 C   0  0  0  0  0  2  0  0  0  0  0  0
  -24.6240  -30.9660   22.0680 N   0  0  0  0  0  0  0  0  0  0  0  0
  -23.4010  -31.9480   23.7040 O   0  0  0  0  0  0  0  0  0  0  0  0
  -22.8100  -29.2240   22.4450 C   0  0  0  0  0  0  0  0  0  0  0  0
  -21.5060  -28.9470   22.2800 N   0  0  0  0  0  0  0  0  0  0  0  0
  -23.5140  -28.6460   23.2770 O   0  0  0  0  0  0  0  0  0  0  0  0
  -20.9980  -29.4680   21.5790 H   0  0  0  0  0  0  0  0  0  0  0  0
  -18.2200  -27.4950   22.6530 C   0  0  0  0  0  0  0  0  0  0  0  0
  -20.7370  -27.9510   23.0230 C   0  0  0  0  0  3  0  0  0  0  0  0
  -20.9740  -26.5310   22.4600 C   0  0  0  0  0  2  0  0  0  0  0  0
  -19.9400  -26.1200   21.4060 C   0  0  0  0  0  2  0  0  0  0  0  0
  -18.5270  -26.1600   21.9960 C   0  0  0  0  0  2  0  0  0  0  0  0
  -19.2580  -28.3430   23.1220 C   0  0  0  0  0  0  0  0  0  0  0  0
  -18.9190  -29.5880   23.6940 C   0  0  0  0  0  3  0  0  0  0  0  0
  -17.5740  -29.9880   23.8050 C   0  0  0  0  0  3  0  0  0  0  0  0
  -16.5490  -29.1370   23.3550 C   0  0  0  0  0  3  0  0  0  0  0  0
  -16.8730  -27.8930   22.7840 C   0  0  0  0  0  3  0  0  0  0  0  0
  -25.7410  -32.4490   23.8240 C   0  0  0  0  0  3  0  0  0  0  0  0
  -25.3540  -33.8320   24.1330 N   0  0  0  0  0  0  0  0  0  0  0  0
  -25.6740  -34.8950   23.3830 C   0  0  0  0  0  0  0  0  0  0  0  0
  -26.3950  -34.8200   22.3860 O   0  0  0  0  0  0  0  0  0  0  0  0
  -24.7180  -33.9620   24.9050 H   0  0  0  0  0  0  0  0  0  0  0  0
  -23.8850  -36.6030   22.9370 C   0  0  0  0  0  1  0  0  0  0  0  0
  -25.1010  -36.2600   23.8100 C   0  0  0  0  0  3  0  0  0  0  0  0
  -27.1490  -37.2460   24.7400 C   0  0  0  0  0  1  0  0  0  0  0  0
  -26.0900  -37.3590   23.7420 N   0  0  0  0  0  0  0  0  0  0  0  0
  -25.6350  -38.2600   23.8620 H   0  0  0  0  0  0  0  0  0  0  0  0
  -26.2670  -31.7140   25.1170 C   0  0  1  0  0  0  0  0  0  0  0  0
  -25.1630  -31.4220   26.1590 C   0  0  0  0  0  1  0  0  0  0  0  0
  -26.9340  -30.3690   24.7440 C   0  0  0  0  0  1  0  0  0  0  0  0
  -27.3570  -32.5730   25.8020 C   0  0  0  0  0  1  0  0  0  0  0  0
  2  5  1  0
  3  2  2  0
  3  7  1  0
  4  6  1  0
  5  1  1  0
  5  6  2  0
  6 47  1  0
  7  4  2  0
  8 16  1  0
  9 14  1  0
 10 11  1  0
 10  9  1  0
 12 11  1  0
 12 21  1  0
 12 13  1  0
 14  8  1  0
 14 13  1  0
 15  8  2  0
 16  7  1  0
 16 17  1  0
 18 19  2  0
 19 38  1  0
 20 19  1  0
 20 23  1  0
 21 22  1  0
 21 18  1  0
 22 20  2  0
 23 24  1  0
 24 25  2  0
 26 29  1  0
 26 25  1  0
 27 26  2  0
 28 27  1  0
 28 23  2  0
 29 30  1  0
 30 35  2  0
 30 31  1  0
 31 32  2  0
 32 33  1  0
 33 37  1  0
 34 33  2  0
 35 34  1  0
 36 35  1  0
 38 39  1  0
 39 42  1  0
 39 41  1  0
 40 38  2  0
 43 18  1  0
 43 44  1  0
 45 43  1  0
 47 46  1  6
 47 48  1  0
 47 49  1  0
 50 54  1  0
 50 52  1  0
 52 51  1  0
 52  1  1  0
 53 50  2  0
 55 56  1  0
 55 54  1  0
 57 56  1  0
 58 69  2  0
 59 57  1  0
 59 64  1  0
 60 68  1  0
 60 70  1  0
 61 67  1  0
 61 63  1  0
 62 68  1  0
 63 62  1  0
 64 63  2  0
 65 59  2  0
 66 65  1  0
 66 61  2  0
 67 60  1  0
 68 58  1  0
 70 72  2  0
 71 70  1  0
 73 71  1  0
 74 83  2  0
 74 79  1  0
 75 71  1  0
 75 79  1  0
 76 75  1  0
 77 78  1  0
 77 76  1  0
 78 74  1  0
 79 80  2  0
 80 81  1  0
 82 81  2  0
 83 82  1  0
 84 58  1  0
 84 85  1  0
 84 94  1  0
 85 88  1  0
 86 90  1  0
 86 85  1  0
 87 86  2  0
 90 89  1  0
 92 90  1  0
 92 93  1  0
 92 91  1  0
 94 97  1  1
 94 95  1  0
 96 94  1  0
M  ISO  4   8 100  16 100  56 101  57 101
M  END
>  <TORSDO>  (70) 
F 22

>  <SCORE>  (70) 
-7.757

>  <name>  (70) 
69

>  <ligand_id>  (70) 
69

>  <original_smiles>  (70) 
[H]c1c([H])c([H])c2c(c1[H])C([H])([H])C([H])([H])C([H])([H])C2([H])N([H])C(=O)C1([H])N(C(=O)C([H])(N([H])C(=O)C([H])(N([H])C([H])([H])[H])C([H])([H])[H])C(C([H])([H])[H])(C([H])([H])[H])C([H])([H])[H])C([H])([H])c2c([H])c(OC([H])([H])C([H])([H])C([H])([H])C(=O)N(C([H])([H])[H])C([H])([H])c3c([H])c([H])c(N([H])C(=O)N4C([H])([H])C([H])([H])C([H])([H])C([H])(n5nc(-c6c([H])c([H])c(Oc7c([H])c([H])c(F)c([H])c7F)c([H])c6[H])c(C(=O)N([H])[H])c5N([H])[H])C4([H])[H])c([H])c3C(F)(F)C([H])([H])[H])c([H])c([H])c2C1([H])[H]

>  <smiles>  (70) 
[H]c1c([H])c([H])c2c(c1[H])C([H])([H])C([H])([H])C([H])([H])C2([H])N([H])C(=O)C1([H])N(C(=O)C([H])(N([H])C(=O)C([H])(N([H])C([H])([H])[H])C([H])([H])[H])C(C([H])([H])[H])(C([H])([H])[H])C([H])([H])[H])C([H])([H])c2c([H])c(OC([H])([H])C([H])([H])C([H])([H])C(=O)N(C([H])([H])[H])C([H])([H])c3c([H])c([H])c(N([H])C(=O)N4C([H])([H])C([H])([H])C([H])([H])C([H])(n5nc(-c6c([H])c([H])c(Oc7c([H])c([H])c(F)c([H])c7F)c([H])c6[H])c(C(=O)N([H])[H])c5N([H])[H])C4([H])[H])c([H])c3C(F)(F)C([H])([H])[H])c([H])c([H])c2C1([H])[H]

$$$$
70:0:0
     RDKit          3D

 96105  0  0  1  0  0  0  0  0999 V2000
  -30.4320  -22.1970   20.3370 C   0  0  0  0  0  0  0  0  0  0  0  0
  -30.0980  -23.7090   20.4960 C   0  0  0  0  0  2  0  0  0  0  0  0
  -27.9190  -23.0640   21.4770 C   0  0  0  0  0  2  0  0  0  0  0  0
  -28.1350  -21.6070   21.0220 C   0  0  0  0  0  2  0  0  0  0  0  0
  -28.5930  -24.1000   20.5500 C   0  0  2  0  0  0  0  0  0  0  0  0
  -27.9630  -24.0280   19.1400 C   0  0  0  0  0  1  0  0  0  0  0  0
  -29.5320  -21.2500   20.7300 N   0  0  0  0  0  0  0  0  0  0  0  0
  -31.5450  -21.9030   19.8910 O   0  0  0  0  0  0  0  0  0  0  0  0
  -29.1470  -19.0240   19.7600 C   0  0  0  0  0  3  0  0  0  0  0  0
  -30.7470  -17.7840   21.6970 C   0  0  0  0  0  3  0  0  0  0  0  0
  -29.2490  -17.6130   19.7880 C   0  0  0  0  0  0  0  0  0  0  0  0
  -30.6460  -19.2000   21.6670 C   0  0  0  0  0  0  0  0  0  0  0  0
  -29.8170  -19.8360   20.7020 C   0  0  0  0  0  0  0  0  0  0  0  0
  -30.0350  -16.9730   20.7820 C   0  0  0  0  0  0  0  0  0  0  0  0
  -28.4590  -16.8240   18.7580 C   0  0  0  0  0  1  0  0  0  0  0  0
  -31.3800  -20.0120   22.7200 C   0  0  0  0  0  1  0  0  0  0  0  0
  -30.7160  -14.5760   20.4780 C   0  0  0  0  0  0  0  0  0  0  0  0
  -30.4800  -12.3910   19.3460 C   0  0  0  0  0  2  0  0  0  0  0  0
  -29.5280  -12.5710   18.1420 C   0  0  0  0  0  2  0  0  0  0  0  0
  -28.0550  -12.4160   18.5740 C   0  0  0  0  0  2  0  0  0  0  0  0
  -27.7090  -13.2490   19.8360 C   0  0  0  0  0  3  0  0  0  0  0  0
  -28.7690  -13.0380   20.9410 C   0  0  0  0  0  2  0  0  0  0  0  0
  -30.0890  -13.3690   20.3730 N   0  0  0  0  0  0  0  0  0  0  0  0
  -31.8450  -14.7870   20.0230 O   0  0  0  0  0  0  0  0  0  0  0  0
  -29.9520  -15.5580   20.9990 N   0  0  0  0  0  0  0  0  0  0  0  0
  -29.0620  -15.2310   21.3410 H   0  0  0  0  0  0  0  0  0  0  0  0
  -25.3040  -13.8500   20.5360 C   0  0  0  0  0  0  0  0  0  0  0  0
  -24.2390  -13.0730   20.9020 C   0  0  0  0  0  0  0  0  0  0  0  0
  -24.7090  -11.7250   20.8770 C   0  0  0  0  0  0  0  0  0  0  0  0
  -26.3560  -12.9730   20.3120 N   0  0  0  0  0  0  0  0  0  0  0  0
  -25.9990  -11.6900   20.5740 N   0  0  0  0  0  0  0  0  0  0  0  0
  -23.9900  -10.4600   21.0710 C   0  0  0  0  0  0  0  0  0  0  0  0
  -24.4250   -9.5010   22.0130 C   0  0  0  0  0  3  0  0  0  0  0  0
  -23.7070   -8.2990   22.1940 C   0  0  0  0  0  3  0  0  0  0  0  0
  -22.5410   -8.0480   21.4320 C   0  0  0  0  0  0  0  0  0  0  0  0
  -22.1260   -8.9950   20.4800 C   0  0  0  0  0  3  0  0  0  0  0  0
  -22.8440  -10.1890   20.2970 C   0  0  0  0  0  3  0  0  0  0  0  0
  -21.7960   -6.8980   21.5210 O   0  0  0  0  0  0  0  0  0  0  0  0
  -21.7410   -6.1640   22.6790 C   0  0  0  0  0  0  0  0  0  0  0  0
  -21.2770   -6.7190   23.8910 C   0  0  0  0  0  3  0  0  0  0  0  0
  -21.1710   -5.9100   25.0410 C   0  0  0  0  0  3  0  0  0  0  0  0
  -21.5190   -4.5470   24.9780 C   0  0  0  0  0  0  0  0  0  0  0  0
  -21.9770   -3.9920   23.7700 C   0  0  0  0  0  3  0  0  0  0  0  0
  -22.0850   -4.7980   22.6230 C   0  0  0  0  0  0  0  0  0  0  0  0
  -22.5060   -4.2530   21.4560 F   0  0  0  0  0  0  0  0  0  0  0  0
  -21.4110   -3.7680   26.0790 F   0  0  0  0  0  0  0  0  0  0  0  0
  -22.8390  -13.5450   21.1720 C   0  0  0  0  0  0  0  0  0  0  0  0
  -22.1110  -12.8430   22.0340 N   0  0  0  0  0  0  0  0  0  0  0  0
  -22.3970  -14.5700   20.6530 O   0  0  0  0  0  0  0  0  0  0  0  0
  -22.4800  -12.0140   22.4750 H   0  0  0  0  0  0  0  0  0  0  0  0
  -21.1720  -13.1400   22.2570 H   0  0  0  0  0  0  0  0  0  0  0  0
  -25.4600  -15.2210   20.3580 N   0  0  0  0  0  0  0  0  0  0  0  0
  -24.6880  -15.8690   20.4730 H   0  0  0  0  0  0  0  0  0  0  0  0
  -26.3160  -15.6750   20.0690 H   0  0  0  0  0  0  0  0  0  0  0  0
  -28.3610  -25.5260   21.1810 C   0  0  0  0  0  2  0  0  0  0  0  0
  -28.5010  -26.6960   20.3390 O   0  0  0  0  0  0  0  0  0  0  0  0
  -24.6360  -31.9250   23.3060 C   0  0  0  0  0  0  0  0  0  0  0  0
  -27.3630  -27.4800   20.2870 C   0  0  0  0  0  0  0  0  0  0  0  0
  -23.4670  -30.5020   21.6570 C   0  0  0  0  0  3  0  0  0  0  0  0
  -24.9560  -28.9760   20.2550 C   0  0  0  0  0  0  0  0  0  0  0  0
  -25.9930  -30.8840   21.4890 C   0  0  0  0  0  2  0  0  0  0  0  0
  -26.1040  -29.5110   20.8560 C   0  0  0  0  0  0  0  0  0  0  0  0
  -27.3140  -28.7720   20.8660 C   0  0  0  0  0  3  0  0  0  0  0  0
  -26.1990  -26.9710   19.6710 C   0  0  0  0  0  3  0  0  0  0  0  0
  -25.0000  -27.7060   19.6570 C   0  0  0  0  0  3  0  0  0  0  0  0
  -23.7020  -29.8190   20.2830 C   0  0  0  0  0  2  0  0  0  0  0  0
  -24.7170  -31.1190   22.2100 N   0  0  0  0  0  0  0  0  0  0  0  0
  -23.5460  -32.1900   23.8300 O   0  0  0  0  0  0  0  0  0  0  0  0
  -22.8130  -29.4800   22.6140 C   0  0  0  0  0  0  0  0  0  0  0  0
  -21.4910  -29.2870   22.4750 N   0  0  0  0  0  0  0  0  0  0  0  0
  -23.4920  -28.8640   23.4410 O   0  0  0  0  0  0  0  0  0  0  0  0
  -21.0030  -29.8370   21.7800 H   0  0  0  0  0  0  0  0  0  0  0  0
  -18.1180  -28.0770   22.9500 C   0  0  0  0  0  0  0  0  0  0  0  0
  -20.6740  -28.3450   23.2400 C   0  0  0  0  0  3  0  0  0  0  0  0
  -20.7870  -26.9150   22.6640 C   0  0  0  0  0  2  0  0  0  0  0  0
  -19.6920  -26.5870   21.6430 C   0  0  0  0  0  2  0  0  0  0  0  0
  -18.3060  -26.7270   22.2780 C   0  0  0  0  0  2  0  0  0  0  0  0
  -19.2310  -28.8440   23.3880 C   0  0  0  0  0  0  0  0  0  0  0  0
  -19.0030  -30.1060   23.9760 C   0  0  0  0  0  3  0  0  0  0  0  0
  -17.6950  -30.6030   24.1330 C   0  0  0  0  0  3  0  0  0  0  0  0
  -16.5970  -29.8330   23.7120 C   0  0  0  0  0  3  0  0  0  0  0  0
  -16.8090  -28.5720   23.1270 C   0  0  0  0  0  3  0  0  0  0  0  0
  -25.9080  -32.5730   23.9380 C   0  0  0  0  0  3  0  0  0  0  0  0
  -25.5860  -33.9750   24.2400 N   0  0  0  0  0  0  0  0  0  0  0  0
  -25.9270  -35.0160   23.4670 C   0  0  0  0  0  0  0  0  0  0  0  0
  -26.6140  -34.8970   22.4490 O   0  0  0  0  0  0  0  0  0  0  0  0
  -24.9810  -34.1420   25.0290 H   0  0  0  0  0  0  0  0  0  0  0  0
  -24.2000  -36.7950   23.0440 C   0  0  0  0  0  1  0  0  0  0  0  0
  -25.4240  -36.4100   23.8900 C   0  0  0  0  0  3  0  0  0  0  0  0
  -27.5350  -37.3180   24.7580 C   0  0  0  0  0  1  0  0  0  0  0  0
  -26.4560  -37.4640   23.7830 N   0  0  0  0  0  0  0  0  0  0  0  0
  -26.0430  -38.3850   23.9030 H   0  0  0  0  0  0  0  0  0  0  0  0
  -26.4080  -31.8250   25.2340 C   0  0  1  0  0  0  0  0  0  0  0  0
  -25.2990  -31.5930   26.2860 C   0  0  0  0  0  1  0  0  0  0  0  0
  -27.0100  -30.4470   24.8700 C   0  0  0  0  0  1  0  0  0  0  0  0
  -27.5420  -32.6370   25.9040 C   0  0  0  0  0  1  0  0  0  0  0  0
  1  2  1  0
  1  7  1  0
  2  5  1  0
  4  3  1  0
  5  6  1  6
  5 55  1  0
  5  3  1  0
  7  4  1  0
  8  1  2  0
  9 11  2  0
  9 13  1  0
 11 14  1  0
 12 10  1  0
 12 16  1  0
 13  7  1  0
 13 12  2  0
 14 25  1  0
 14 10  2  0
 15 11  1  0
 17 25  1  0
 18 23  1  0
 19 20  1  0
 19 18  1  0
 21 20  1  0
 21 30  1  0
 21 22  1  0
 23 17  1  0
 23 22  1  0
 24 17  2  0
 25 26  1  0
 27 28  2  0
 28 47  1  0
 29 28  1  0
 29 32  1  0
 30 27  1  0
 30 31  1  0
 31 29  2  0
 32 33  1  0
 33 34  2  0
 35 38  1  0
 35 34  1  0
 36 35  2  0
 37 36  1  0
 37 32  2  0
 38 39  1  0
 39 40  1  0
 40 41  2  0
 42 41  1  0
 42 46  1  0
 43 42  2  0
 44 39  2  0
 44 43  1  0
 45 44  1  0
 47 48  1  0
 48 51  1  0
 48 50  1  0
 49 47  2  0
 52 53  1  0
 52 27  1  0
 54 52  1  0
 56 55  1  0
 57 68  2  0
 58 56  1  0
 58 63  1  0
 59 67  1  0
 59 69  1  0
 60 66  1  0
 60 62  1  0
 61 67  1  0
 62 63  2  0
 62 61  1  0
 64 58  2  0
 65 64  1  0
 65 60  2  0
 66 59  1  0
 67 57  1  0
 69 71  2  0
 70 69  1  0
 72 70  1  0
 73 82  2  0
 73 78  1  0
 74 70  1  0
 74 78  1  0
 75 74  1  0
 76 77  1  0
 76 75  1  0
 77 73  1  0
 78 79  2  0
 79 80  1  0
 81 80  2  0
 82 81  1  0
 83 57  1  0
 83 84  1  0
 83 93  1  0
 84 87  1  0
 85 89  1  0
 85 84  1  0
 86 85  2  0
 89 88  1  0
 91 89  1  0
 91 92  1  0
 91 90  1  0
 93 96  1  1
 93 94  1  0
 95 93  1  0
M  ISO  4  17 100  25 100  55 101  56 101
M  END
>  <TORSDO>  (71) 
F 18

>  <SCORE>  (71) 
-15.337

>  <name>  (71) 
70

>  <ligand_id>  (71) 
70

>  <original_smiles>  (71) 
[H]c1c([H])c([H])c2c(c1[H])C([H])([H])C([H])([H])C([H])([H])C2([H])N([H])C(=O)C1([H])N(C(=O)C([H])(N([H])C(=O)C([H])(N([H])C([H])([H])[H])C([H])([H])[H])C(C([H])([H])[H])(C([H])([H])[H])C([H])([H])[H])C([H])([H])c2c([H])c(OC([H])([H])C3(C([H])([H])[H])C([H])([H])C(=O)N(c4c([H])c(C([H])([H])[H])c(N([H])C(=O)N5C([H])([H])C([H])([H])C([H])([H])C([H])(n6nc(-c7c([H])c([H])c(Oc8c([H])c([H])c(F)c([H])c8F)c([H])c7[H])c(C(=O)N([H])[H])c6N([H])[H])C5([H])[H])c([H])c4C([H])([H])[H])C([H])([H])C3([H])[H])c([H])c([H])c2C1([H])[H]

>  <smiles>  (71) 
[H]c1c([H])c([H])c2c(c1[H])C([H])([H])C([H])([H])C([H])([H])C2([H])N([H])C(=O)C1([H])N(C(=O)C([H])(N([H])C(=O)C([H])(N([H])C([H])([H])[H])C([H])([H])[H])C(C([H])([H])[H])(C([H])([H])[H])C([H])([H])[H])C([H])([H])c2c([H])c(OC([H])([H])C3(C([H])([H])[H])C([H])([H])C(=O)N(c4c([H])c(C([H])([H])[H])c(N([H])C(=O)N5C([H])([H])C([H])([H])C([H])([H])C([H])(n6nc(-c7c([H])c([H])c(Oc8c([H])c([H])c(F)c([H])c8F)c([H])c7[H])c(C(=O)N([H])[H])c6N([H])[H])C5([H])[H])c([H])c4C([H])([H])[H])C([H])([H])C3([H])[H])c([H])c([H])c2C1([H])[H]

$$$$
71:0:0
     RDKit          3D

 94102  0  0  1  0  0  0  0  0999 V2000
  -28.2450  -18.1660   18.4590 C   0  0  0  0  0  3  0  0  0  0  0  0
  -28.8830  -17.0320   18.9950 C   0  0  0  0  0  3  0  0  0  0  0  0
  -29.6650  -18.4200   20.8250 C   0  0  0  0  0  3  0  0  0  0  0  0
  -28.2770  -19.4350   19.0890 C   0  0  0  0  0  0  0  0  0  0  0  0
  -29.0570  -19.6340   20.2690 C   0  0  0  0  0  0  0  0  0  0  0  0
  -29.5740  -17.0930   20.2200 C   0  0  0  0  0  0  0  0  0  0  0  0
  -30.6240  -14.7040   20.3290 C   0  0  0  0  0  0  0  0  0  0  0  0
  -30.4040  -12.4420   19.2830 C   0  0  0  0  0  2  0  0  0  0  0  0
  -29.4470  -12.5640   18.0720 C   0  0  0  0  0  2  0  0  0  0  0  0
  -27.9830  -12.3930   18.5180 C   0  0  0  0  0  2  0  0  0  0  0  0
  -27.6400  -13.2390   19.7730 C   0  0  0  0  0  3  0  0  0  0  0  0
  -28.7170  -13.1040   20.8730 C   0  0  0  0  0  2  0  0  0  0  0  0
  -30.0120  -13.4670   20.2810 N   0  0  0  0  0  0  0  0  0  0  0  0
  -31.7580  -14.8400   19.8580 O   0  0  0  0  0  0  0  0  0  0  0  0
  -29.9270  -15.7890   20.8430 N   0  0  0  0  0  0  0  0  0  0  0  0
  -29.2200  -15.4830   21.4960 H   0  0  0  0  0  0  0  0  0  0  0  0
  -25.2630  -13.8250   20.5410 C   0  0  0  0  0  0  0  0  0  0  0  0
  -24.2030  -13.0490   20.9180 C   0  0  0  0  0  0  0  0  0  0  0  0
  -24.6620  -11.6970   20.8630 C   0  0  0  0  0  0  0  0  0  0  0  0
  -26.3020  -12.9470   20.2770 N   0  0  0  0  0  0  0  0  0  0  0  0
  -25.9470  -11.6610   20.5310 N   0  0  0  0  0  0  0  0  0  0  0  0
  -23.9370  -10.4330   21.0500 C   0  0  0  0  0  0  0  0  0  0  0  0
  -24.3730   -9.4600   21.9760 C   0  0  0  0  0  3  0  0  0  0  0  0
  -23.6460   -8.2620   22.1520 C   0  0  0  0  0  3  0  0  0  0  0  0
  -22.4690   -8.0300   21.4000 C   0  0  0  0  0  0  0  0  0  0  0  0
  -22.0530   -8.9920   20.4630 C   0  0  0  0  0  3  0  0  0  0  0  0
  -22.7800  -10.1810   20.2860 C   0  0  0  0  0  3  0  0  0  0  0  0
  -21.7140   -6.8860   21.4850 O   0  0  0  0  0  0  0  0  0  0  0  0
  -21.6580   -6.1440   22.6380 C   0  0  0  0  0  0  0  0  0  0  0  0
  -21.2010   -6.6920   23.8550 C   0  0  0  0  0  3  0  0  0  0  0  0
  -21.0940   -5.8740   24.9990 C   0  0  0  0  0  3  0  0  0  0  0  0
  -21.4350   -4.5100   24.9250 C   0  0  0  0  0  0  0  0  0  0  0  0
  -21.8870   -3.9630   23.7130 C   0  0  0  0  0  3  0  0  0  0  0  0
  -21.9950   -4.7760   22.5700 C   0  0  0  0  0  0  0  0  0  0  0  0
  -22.4100   -4.2390   21.3990 F   0  0  0  0  0  0  0  0  0  0  0  0
  -21.3260   -3.7240   26.0220 F   0  0  0  0  0  0  0  0  0  0  0  0
  -22.8110  -13.5260   21.2210 C   0  0  0  0  0  0  0  0  0  0  0  0
  -22.0950  -12.8170   22.0880 N   0  0  0  0  0  0  0  0  0  0  0  0
  -22.3680  -14.5620   20.7280 O   0  0  0  0  0  0  0  0  0  0  0  0
  -22.4690  -11.9810   22.5110 H   0  0  0  0  0  0  0  0  0  0  0  0
  -21.1630  -13.1180   22.3360 H   0  0  0  0  0  0  0  0  0  0  0  0
  -25.4300  -15.1970   20.3800 N   0  0  0  0  0  0  0  0  0  0  0  0
  -24.6690  -15.8510   20.5200 H   0  0  0  0  0  0  0  0  0  0  0  0
  -26.2830  -15.6430   20.0660 H   0  0  0  0  0  0  0  0  0  0  0  0
  -27.3590  -20.4720   18.5370 C   0  0  0  0  0  0  0  0  0  0  0  0
  -27.4040  -20.7040   17.0320 C   0  0  0  0  0  1  0  0  0  0  0  0
  -26.5840  -21.1420   19.2250 O   0  0  0  0  0  0  0  0  0  0  0  0
  -29.1510  -21.0810   20.9850 C   0  0  0  0  0  2  0  0  0  0  0  0
  -28.6430  -23.6540   20.6550 C   0  0  0  0  0  0  0  0  0  0  0  0
  -30.1830  -22.4610   19.1350 C   0  0  0  0  0  1  0  0  0  0  0  0
  -29.2340  -22.4430   20.2520 N   0  0  0  0  0  0  0  0  0  0  0  0
  -28.0030  -23.7040   21.7100 O   0  0  0  0  0  0  0  0  0  0  0  0
  -28.7180  -25.0110   19.7790 C   0  0  0  0  0  2  0  0  0  0  0  0
  -28.5400  -26.3530   20.4480 O   0  0  0  0  0  0  0  0  0  0  0  0
  -24.6380  -31.8020   23.2060 C   0  0  0  0  0  0  0  0  0  0  0  0
  -27.4170  -27.2030   20.2960 C   0  0  0  0  0  0  0  0  0  0  0  0
  -23.5230  -30.3900   21.5160 C   0  0  0  0  0  3  0  0  0  0  0  0
  -25.0480  -28.8390   20.1600 C   0  0  0  0  0  0  0  0  0  0  0  0
  -26.0690  -30.7120   21.4520 C   0  0  0  0  0  2  0  0  0  0  0  0
  -26.1860  -29.3270   20.8150 C   0  0  0  0  0  0  0  0  0  0  0  0
  -27.3660  -28.5180   20.8750 C   0  0  0  0  0  3  0  0  0  0  0  0
  -26.2510  -26.7790   19.6170 C   0  0  0  0  0  3  0  0  0  0  0  0
  -25.0870  -27.5750   19.5510 C   0  0  0  0  0  3  0  0  0  0  0  0
  -23.8070  -29.7120   20.1480 C   0  0  0  0  0  2  0  0  0  0  0  0
  -24.7600  -30.9880   22.1140 N   0  0  0  0  0  0  0  0  0  0  0  0
  -23.5300  -32.0730   23.6860 O   0  0  0  0  0  0  0  0  0  0  0  0
  -22.8190  -29.3740   22.4480 C   0  0  0  0  0  0  0  0  0  0  0  0
  -21.4910  -29.2320   22.3010 N   0  0  0  0  0  0  0  0  0  0  0  0
  -23.4700  -28.7160   23.2640 O   0  0  0  0  0  0  0  0  0  0  0  0
  -21.0260  -29.8120   21.6160 H   0  0  0  0  0  0  0  0  0  0  0  0
  -18.0690  -28.1640   22.7870 C   0  0  0  0  0  0  0  0  0  0  0  0
  -20.6380  -28.3010   23.0410 C   0  0  0  0  0  3  0  0  0  0  0  0
  -20.6730  -26.8910   22.4070 C   0  0  0  0  0  2  0  0  0  0  0  0
  -19.5490  -26.6580   21.3920 C   0  0  0  0  0  2  0  0  0  0  0  0
  -18.1810  -26.8380   22.0560 C   0  0  0  0  0  2  0  0  0  0  0  0
  -19.2230  -28.8580   23.2360 C   0  0  0  0  0  0  0  0  0  0  0  0
  -19.0640  -30.1040   23.8820 C   0  0  0  0  0  3  0  0  0  0  0  0
  -17.7830  -30.6530   24.0840 C   0  0  0  0  0  3  0  0  0  0  0  0
  -16.6430  -29.9540   23.6510 C   0  0  0  0  0  3  0  0  0  0  0  0
  -16.7860  -28.7110   23.0080 C   0  0  0  0  0  3  0  0  0  0  0  0
  -25.8850  -32.4450   23.8880 C   0  0  0  0  0  3  0  0  0  0  0  0
  -26.3380  -31.6860   25.1960 C   0  0  1  0  0  0  0  0  0  0  0  0
  -25.1940  -31.4530   26.2080 C   0  0  0  0  0  1  0  0  0  0  0  0
  -26.9460  -30.3080   24.8460 C   0  0  0  0  0  1  0  0  0  0  0  0
  -27.4500  -32.4910   25.9090 C   0  0  0  0  0  1  0  0  0  0  0  0
  -25.5520  -33.8440   24.1940 N   0  0  0  0  0  0  0  0  0  0  0  0
  -25.8990  -34.8930   23.4380 C   0  0  0  0  0  0  0  0  0  0  0  0
  -26.6020  -34.7870   22.4290 O   0  0  0  0  0  0  0  0  0  0  0  0
  -24.9340  -34.0000   24.9780 H   0  0  0  0  0  0  0  0  0  0  0  0
  -24.1690  -36.6700   23.0110 C   0  0  0  0  0  1  0  0  0  0  0  0
  -25.3870  -36.2830   23.8660 C   0  0  0  0  0  3  0  0  0  0  0  0
  -27.4820  -37.1970   24.7620 C   0  0  0  0  0  1  0  0  0  0  0  0
  -26.4150  -37.3430   23.7760 N   0  0  0  0  0  0  0  0  0  0  0  0
  -25.9960  -38.2610   23.8940 H   0  0  0  0  0  0  0  0  0  0  0  0
  1  2  2  0
  1  4  1  0
  2  6  1  0
  4  5  2  0
  5  3  1  0
  5 48  1  0
  6  3  2  0
  6 15  1  0
  7 15  1  0
  8 13  1  0
  9 10  1  0
  9  8  1  0
 11 10  1  0
 11 20  1  0
 11 12  1  0
 13  7  1  0
 13 12  1  0
 14  7  2  0
 15 16  1  0
 17 18  2  0
 18 37  1  0
 19 18  1  0
 19 22  1  0
 20 21  1  0
 20 17  1  0
 21 19  2  0
 22 23  1  0
 23 24  2  0
 25 28  1  0
 25 24  1  0
 26 25  2  0
 27 26  1  0
 27 22  2  0
 28 29  1  0
 29 30  1  0
 30 31  2  0
 32 31  1  0
 32 36  1  0
 33 32  2  0
 34 29  2  0
 34 33  1  0
 35 34  1  0
 37 38  1  0
 38 41  1  0
 38 40  1  0
 39 37  2  0
 42 43  1  0
 42 17  1  0
 44 42  1  0
 45  4  1  0
 45 47  2  0
 46 45  1  0
 49 52  2  0
 50 51  1  0
 51 49  1  0
 51 48  1  0
 53 54  1  0
 53 49  1  0
 55 66  2  0
 56 54  1  0
 56 61  1  0
 57 65  1  0
 57 67  1  0
 58 60  1  0
 59 65  1  0
 60 61  2  0
 60 59  1  0
 62 56  2  0
 63 62  1  0
 63 58  2  0
 64 58  1  0
 64 57  1  0
 65 55  1  0
 67 69  2  0
 68 67  1  0
 70 68  1  0
 71 80  2  0
 71 76  1  0
 72 68  1  0
 72 76  1  0
 73 72  1  0
 74 75  1  0
 74 73  1  0
 75 71  1  0
 76 77  2  0
 77 78  1  0
 79 78  2  0
 80 79  1  0
 81 55  1  0
 81 86  1  0
 81 82  1  0
 82 85  1  1
 82 83  1  0
 84 82  1  0
 86 89  1  0
 87 91  1  0
 87 86  1  0
 88 87  2  0
 91 90  1  0
 93 91  1  0
 93 94  1  0
 93 92  1  0
M  ISO  4   7 100  15 100  53 101  54 101
M  END
>  <TORSDO>  (72) 
F 20

>  <SCORE>  (72) 
-13.968

>  <name>  (72) 
71

>  <ligand_id>  (72) 
71

>  <original_smiles>  (72) 
[H]c1c([H])c([H])c2c(c1[H])C([H])([H])C([H])([H])C([H])([H])C2([H])N([H])C(=O)C1([H])N(C(=O)C([H])(N([H])C(=O)C([H])(N([H])C([H])([H])[H])C([H])([H])[H])C(C([H])([H])[H])(C([H])([H])[H])C([H])([H])[H])C([H])([H])c2c([H])c(OC([H])([H])C(=O)N(C([H])([H])[H])C([H])([H])c3c([H])c(N([H])C(=O)N4C([H])([H])C([H])([H])C([H])([H])C([H])(n5nc(-c6c([H])c([H])c(Oc7c([H])c([H])c(F)c([H])c7F)c([H])c6[H])c(C(=O)N([H])[H])c5N([H])[H])C4([H])[H])c([H])c([H])c3C(=O)C([H])([H])[H])c([H])c([H])c2C1([H])[H]

>  <smiles>  (72) 
[H]c1c([H])c([H])c2c(c1[H])C([H])([H])C([H])([H])C([H])([H])C2([H])N([H])C(=O)C1([H])N(C(=O)C([H])(N([H])C(=O)C([H])(N([H])C([H])([H])[H])C([H])([H])[H])C(C([H])([H])[H])(C([H])([H])[H])C([H])([H])[H])C([H])([H])c2c([H])c(OC([H])([H])C(=O)N(C([H])([H])[H])C([H])([H])c3c([H])c(N([H])C(=O)N4C([H])([H])C([H])([H])C([H])([H])C([H])(n5nc(-c6c([H])c([H])c(Oc7c([H])c([H])c(F)c([H])c7F)c([H])c6[H])c(C(=O)N([H])[H])c5N([H])[H])C4([H])[H])c([H])c([H])c3C(=O)C([H])([H])[H])c([H])c([H])c2C1([H])[H]

$$$$
72:0:0
     RDKit          3D

 96104  0  0  1  0  0  0  0  0999 V2000
  -31.7320  -19.0210   20.9960 C   0  0  0  0  0  3  0  0  0  0  0  0
  -31.6550  -17.6130   20.9070 C   0  0  0  0  0  3  0  0  0  0  0  0
  -29.3020  -17.8030   20.3650 C   0  0  0  0  0  3  0  0  0  0  0  0
  -30.5940  -19.8430   20.7980 C   0  0  0  0  0  0  0  0  0  0  0  0
  -29.3650  -19.2180   20.4440 C   0  0  0  0  0  0  0  0  0  0  0  0
  -30.4250  -16.9810   20.6140 C   0  0  0  0  0  0  0  0  0  0  0  0
  -30.9260  -14.5550   20.0290 C   0  0  0  0  0  0  0  0  0  0  0  0
  -30.5700  -12.3620   18.9460 C   0  0  0  0  0  2  0  0  0  0  0  0
  -29.5890  -12.5430   17.7670 C   0  0  0  0  0  2  0  0  0  0  0  0
  -28.1250  -12.4590   18.2440 C   0  0  0  0  0  2  0  0  0  0  0  0
  -27.8490  -13.3440   19.4880 C   0  0  0  0  0  3  0  0  0  0  0  0
  -28.9290  -13.1120   20.5690 C   0  0  0  0  0  2  0  0  0  0  0  0
  -30.2460  -13.3780   19.9580 N   0  0  0  0  0  0  0  0  0  0  0  0
  -32.0350  -14.7150   19.5100 O   0  0  0  0  0  0  0  0  0  0  0  0
  -30.2240  -15.5610   20.5980 N   0  0  0  0  0  0  0  0  0  0  0  0
  -29.3320  -15.2510   20.9520 H   0  0  0  0  0  0  0  0  0  0  0  0
  -25.5150  -14.0640   20.3030 C   0  0  0  0  0  0  0  0  0  0  0  0
  -24.4230  -13.3400   20.7000 C   0  0  0  0  0  0  0  0  0  0  0  0
  -24.8090  -11.9670   20.6210 C   0  0  0  0  0  0  0  0  0  0  0  0
  -26.5020  -13.1330   20.0120 N   0  0  0  0  0  0  0  0  0  0  0  0
  -26.0810  -11.8670   20.2580 N   0  0  0  0  0  0  0  0  0  0  0  0
  -24.0240  -10.7400   20.8130 C   0  0  0  0  0  0  0  0  0  0  0  0
  -24.4500   -9.7240   21.6970 C   0  0  0  0  0  3  0  0  0  0  0  0
  -23.6700   -8.5610   21.8790 C   0  0  0  0  0  3  0  0  0  0  0  0
  -22.4530   -8.4070   21.1760 C   0  0  0  0  0  0  0  0  0  0  0  0
  -22.0450   -9.4110   20.2810 C   0  0  0  0  0  3  0  0  0  0  0  0
  -22.8240  -10.5660   20.0970 C   0  0  0  0  0  3  0  0  0  0  0  0
  -21.6430   -7.3000   21.2700 O   0  0  0  0  0  0  0  0  0  0  0  0
  -21.6190   -6.5190   22.3970 C   0  0  0  0  0  0  0  0  0  0  0  0
  -21.3160   -7.0540   23.6680 C   0  0  0  0  0  3  0  0  0  0  0  0
  -21.2340   -6.2040   24.7890 C   0  0  0  0  0  3  0  0  0  0  0  0
  -21.4450   -4.8200   24.6400 C   0  0  0  0  0  0  0  0  0  0  0  0
  -21.7420   -4.2850   23.3740 C   0  0  0  0  0  3  0  0  0  0  0  0
  -21.8260   -5.1320   22.2560 C   0  0  0  0  0  0  0  0  0  0  0  0
  -22.0920   -4.6090   21.0350 F   0  0  0  0  0  0  0  0  0  0  0  0
  -21.3590   -4.0020   25.7150 F   0  0  0  0  0  0  0  0  0  0  0  0
  -23.0650  -13.8830   21.0400 C   0  0  0  0  0  0  0  0  0  0  0  0
  -22.3440  -13.2160   21.9350 N   0  0  0  0  0  0  0  0  0  0  0  0
  -22.6550  -14.9340   20.5470 O   0  0  0  0  0  0  0  0  0  0  0  0
  -22.6890  -12.3660   22.3550 H   0  0  0  0  0  0  0  0  0  0  0  0
  -21.4330  -13.5630   22.2040 H   0  0  0  0  0  0  0  0  0  0  0  0
  -25.7470  -15.4270   20.1470 N   0  0  0  0  0  0  0  0  0  0  0  0
  -25.0180  -16.1170   20.2860 H   0  0  0  0  0  0  0  0  0  0  0  0
  -26.5900  -15.8180   19.7470 H   0  0  0  0  0  0  0  0  0  0  0  0
  -28.0930  -20.0320   20.1920 C   0  0  1  0  0  0  0  0  0  0  0  0
  -27.0410  -19.2490   19.9490 F   0  0  0  0  0  0  0  0  0  0  0  0
  -27.7970  -20.7810   21.2520 F   0  0  0  0  0  0  0  0  0  0  0  0
  -28.2510  -20.8190   19.1290 F   0  0  0  0  0  0  0  0  0  0  0  0
  -30.7010  -21.3420   21.1430 C   0  0  0  0  0  2  0  0  0  0  0  0
  -29.3740  -23.4150   20.7300 C   0  0  0  0  0  0  0  0  0  0  0  0
  -30.0370  -22.3300   20.2710 N   0  0  0  0  0  0  0  0  0  0  0  0
  -29.0970  -23.5480   21.9240 O   0  0  0  0  0  0  0  0  0  0  0  0
  -30.2310  -22.2770   19.2820 H   0  0  0  0  0  0  0  0  0  0  0  0
  -29.0980  -24.4310   19.7150 C   0  0  0  0  0  3  0  0  0  0  0  0
  -28.3970  -25.5480   20.0330 C   0  0  0  0  0  3  0  0  0  0  0  0
  -28.1730  -26.5890   19.1600 O   0  0  0  0  0  0  0  0  0  0  0  0
  -24.5760  -31.5250   22.8880 C   0  0  0  0  0  0  0  0  0  0  0  0
  -27.0230  -27.3280   19.3350 C   0  0  0  0  0  0  0  0  0  0  0  0
  -23.2750  -30.2620   21.2050 C   0  0  0  0  0  3  0  0  0  0  0  0
  -24.6420  -28.8330   19.5930 C   0  0  0  0  0  0  0  0  0  0  0  0
  -25.7880  -30.6270   20.9040 C   0  0  0  0  0  2  0  0  0  0  0  0
  -25.8340  -29.3060   20.1580 C   0  0  0  0  0  0  0  0  0  0  0  0
  -27.0290  -28.5600   20.0280 C   0  0  0  0  0  3  0  0  0  0  0  0
  -25.8170  -26.8630   18.7740 C   0  0  0  0  0  3  0  0  0  0  0  0
  -24.6270  -27.6090   18.9000 C   0  0  0  0  0  3  0  0  0  0  0  0
  -23.4080  -29.6900   19.7680 C   0  0  0  0  0  2  0  0  0  0  0  0
  -24.5670  -30.8150   21.7250 N   0  0  0  0  0  0  0  0  0  0  0  0
  -23.5260  -31.7590   23.5050 O   0  0  0  0  0  0  0  0  0  0  0  0
  -22.6640  -29.1730   22.1160 C   0  0  0  0  0  0  0  0  0  0  0  0
  -21.3320  -29.0160   22.0520 N   0  0  0  0  0  0  0  0  0  0  0  0
  -23.3840  -28.4740   22.8340 O   0  0  0  0  0  0  0  0  0  0  0  0
  -20.8110  -29.6330   21.4440 H   0  0  0  0  0  0  0  0  0  0  0  0
  -17.9730  -27.8340   22.6640 C   0  0  0  0  0  0  0  0  0  0  0  0
  -20.5480  -28.0250   22.7870 C   0  0  0  0  0  3  0  0  0  0  0  0
  -20.5810  -26.6510   22.0790 C   0  0  0  0  0  2  0  0  0  0  0  0
  -19.4090  -26.4400   21.1150 C   0  0  0  0  0  2  0  0  0  0  0  0
  -18.0760  -26.5480   21.8610 C   0  0  0  0  0  2  0  0  0  0  0  0
  -19.1340  -28.5350   23.0860 C   0  0  0  0  0  0  0  0  0  0  0  0
  -18.9820  -29.7430   23.8000 C   0  0  0  0  0  3  0  0  0  0  0  0
  -17.7030  -30.2490   24.0960 C   0  0  0  0  0  3  0  0  0  0  0  0
  -16.5570  -29.5430   23.6900 C   0  0  0  0  0  3  0  0  0  0  0  0
  -16.6930  -28.3360   22.9800 C   0  0  0  0  0  3  0  0  0  0  0  0
  -25.8980  -32.0990   23.4880 C   0  0  0  0  0  3  0  0  0  0  0  0
  -26.5070  -31.1960   24.6300 C   0  0  1  0  0  0  0  0  0  0  0  0
  -25.4950  -30.8370   25.7420 C   0  0  0  0  0  1  0  0  0  0  0  0
  -27.0560  -29.8730   24.0450 C   0  0  0  0  0  1  0  0  0  0  0  0
  -27.7050  -31.9180   25.2890 C   0  0  0  0  0  1  0  0  0  0  0  0
  -25.6080  -33.4470   23.9920 N   0  0  0  0  0  0  0  0  0  0  0  0
  -25.9080  -34.5820   23.3460 C   0  0  0  0  0  0  0  0  0  0  0  0
  -26.5320  -34.6010   22.2810 O   0  0  0  0  0  0  0  0  0  0  0  0
  -25.0490  -33.5060   24.8310 H   0  0  0  0  0  0  0  0  0  0  0  0
  -24.1690  -36.3960   23.2740 C   0  0  0  0  0  1  0  0  0  0  0  0
  -25.4420  -35.9060   23.9810 C   0  0  0  0  0  3  0  0  0  0  0  0
  -27.6140  -36.6910   24.8150 C   0  0  0  0  0  1  0  0  0  0  0  0
  -26.4700  -36.9690   23.9520 N   0  0  0  0  0  0  0  0  0  0  0  0
  -26.0710  -37.8610   24.2330 H   0  0  0  0  0  0  0  0  0  0  0  0
  2  1  1  0
  3  5  2  0
  3  6  1  0
  4  1  2  0
  4 49  1  0
  5  4  1  0
  6  2  2  0
  7 15  1  0
  8 13  1  0
  9 10  1  0
  9  8  1  0
 11 10  1  0
 11 20  1  0
 11 12  1  0
 13  7  1  0
 13 12  1  0
 14  7  2  0
 15  6  1  0
 15 16  1  0
 17 18  2  0
 18 37  1  0
 19 18  1  0
 19 22  1  0
 20 21  1  0
 20 17  1  0
 21 19  2  0
 22 23  1  0
 23 24  2  0
 25 28  1  0
 25 24  1  0
 26 25  2  0
 27 26  1  0
 27 22  2  0
 28 29  1  0
 29 30  1  0
 30 31  2  0
 32 31  1  0
 32 36  1  0
 33 32  2  0
 34 29  2  0
 34 33  1  0
 35 34  1  0
 37 38  1  0
 38 41  1  0
 38 40  1  0
 39 37  2  0
 42 43  1  0
 42 17  1  0
 44 42  1  0
 45  5  1  0
 45 47  1  1
 46 45  1  0
 48 45  1  0
 50 52  2  0
 51 50  1  0
 51 49  1  0
 53 51  1  0
 54 55  2  0
 54 50  1  0
 56 58  1  0
 56 55  1  0
 57 68  2  0
 58 63  1  0
 59 67  1  0
 59 69  1  0
 60 66  1  0
 60 62  1  0
 61 67  1  0
 62 61  1  0
 63 62  2  0
 64 65  1  0
 64 58  2  0
 65 60  2  0
 66 59  1  0
 67 57  1  0
 69 71  2  0
 70 69  1  0
 72 70  1  0
 73 82  2  0
 73 78  1  0
 74 70  1  0
 74 78  1  0
 75 74  1  0
 76 77  1  0
 76 75  1  0
 77 73  1  0
 78 79  2  0
 79 80  1  0
 81 80  2  0
 82 81  1  0
 83 57  1  0
 83 88  1  0
 83 84  1  0
 84 87  1  1
 84 85  1  0
 86 84  1  0
 88 91  1  0
 89 93  1  0
 89 88  1  0
 90 89  2  0
 93 92  1  0
 95 93  1  0
 95 96  1  0
 95 94  1  0
M  ISO  4   7 100  15 100  55 101  56 101
M  END
>  <TORSDO>  (73) 
F 20

>  <SCORE>  (73) 
-13.149

>  <name>  (73) 
72

>  <ligand_id>  (73) 
72

>  <original_smiles>  (73) 
[H]C(Oc1c([H])c([H])c2c(c1[H])C([H])([H])N(C(=O)C([H])(N([H])C(=O)C([H])(N([H])C([H])([H])[H])C([H])([H])[H])C(C([H])([H])[H])(C([H])([H])[H])C([H])([H])[H])C([H])(C(=O)N([H])C1([H])c3c([H])c([H])c([H])c([H])c3C([H])([H])C([H])([H])C1([H])[H])C2([H])[H])=C([H])C(=O)N([H])C([H])([H])c1c([H])c([H])c(N([H])C(=O)N2C([H])([H])C([H])([H])C([H])([H])C([H])(n3nc(-c4c([H])c([H])c(Oc5c([H])c([H])c(F)c([H])c5F)c([H])c4[H])c(C(=O)N([H])[H])c3N([H])[H])C2([H])[H])c([H])c1C(F)(F)F

>  <smiles>  (73) 
[H]C(Oc1c([H])c([H])c2c(c1[H])C([H])([H])N(C(=O)C([H])(N([H])C(=O)C([H])(N([H])C([H])([H])[H])C([H])([H])[H])C(C([H])([H])[H])(C([H])([H])[H])C([H])([H])[H])C([H])(C(=O)N([H])C1([H])c3c([H])c([H])c([H])c([H])c3C([H])([H])C([H])([H])C1([H])[H])C2([H])[H])=C([H])C(=O)N([H])C([H])([H])c1c([H])c([H])c(N([H])C(=O)N2C([H])([H])C([H])([H])C([H])([H])C([H])(n3nc(-c4c([H])c([H])c(Oc5c([H])c([H])c(F)c([H])c5F)c([H])c4[H])c(C(=O)N([H])[H])c3N([H])[H])C2([H])[H])c([H])c1C(F)(F)F

$$$$
73:0:0
     RDKit          3D

105114  0  0  1  0  0  0  0  0999 V2000
  -30.5620  -22.3700   16.5690 C   0  0  0  0  0  3  0  0  0  0  0  0
  -32.3220  -23.6140   17.6900 C   0  0  0  0  0  3  0  0  0  0  0  0
  -32.8300  -21.4580   16.6310 C   0  0  0  0  0  0  0  0  0  0  0  0
  -31.4770  -21.3670   16.1990 C   0  0  0  0  0  0  0  0  0  0  0  0
  -33.2620  -22.6320   17.3140 C   0  0  0  0  0  0  0  0  0  0  0  0
  -30.9600  -23.4610   17.3600 C   0  0  0  0  0  0  0  0  0  0  0  0
  -30.9410  -20.2100   15.3630 C   0  0  0  0  0  1  0  0  0  0  0  0
  -34.7270  -22.8750   17.6660 C   0  0  0  0  0  1  0  0  0  0  0  0
  -29.8420  -25.0960   18.8800 C   0  0  0  0  0  0  0  0  0  0  0  0
  -29.9410  -24.3570   17.7630 N   0  0  0  0  0  0  0  0  0  0  0  0
  -30.7720  -25.3540   19.6480 O   0  0  0  0  0  0  0  0  0  0  0  0
  -29.0740  -24.2760   17.2510 H   0  0  0  0  0  0  0  0  0  0  0  0
  -28.4290  -25.6230   19.1370 C   0  0  0  0  0  2  0  0  0  0  0  0
  -28.4140  -26.7630   20.0050 O   0  0  0  0  0  0  0  0  0  0  0  0
  -24.6130  -31.8720   23.2230 C   0  0  0  0  0  0  0  0  0  0  0  0
  -27.2150  -27.4470   20.0780 C   0  0  0  0  0  0  0  0  0  0  0  0
  -23.3850  -30.4840   21.5900 C   0  0  0  0  0  3  0  0  0  0  0  0
  -24.8170  -28.9480   20.1530 C   0  0  0  0  0  0  0  0  0  0  0  0
  -25.9130  -30.8350   21.3670 C   0  0  0  0  0  2  0  0  0  0  0  0
  -25.9850  -29.4660   20.7240 C   0  0  0  0  0  0  0  0  0  0  0  0
  -27.1850  -28.7210   20.6900 C   0  0  0  0  0  3  0  0  0  0  0  0
  -26.0080  -26.9280   19.5410 C   0  0  0  0  0  3  0  0  0  0  0  0
  -24.8190  -27.6740   19.5700 C   0  0  0  0  0  3  0  0  0  0  0  0
  -23.5770  -29.8100   20.2070 C   0  0  0  0  0  2  0  0  0  0  0  0
  -24.6570  -31.0770   22.1180 N   0  0  0  0  0  0  0  0  0  0  0  0
  -23.5370  -32.1450   23.7730 O   0  0  0  0  0  0  0  0  0  0  0  0
  -22.7430  -29.4550   22.5480 C   0  0  0  0  0  0  0  0  0  0  0  0
  -21.4180  -29.2730   22.4270 N   0  0  0  0  0  0  0  0  0  0  0  0
  -23.4320  -28.8270   23.3570 O   0  0  0  0  0  0  0  0  0  0  0  0
  -20.9240  -29.8300   21.7450 H   0  0  0  0  0  0  0  0  0  0  0  0
  -18.0500  -28.0650   22.9190 C   0  0  0  0  0  0  0  0  0  0  0  0
  -20.6050  -28.3330   23.1980 C   0  0  0  0  0  3  0  0  0  0  0  0
  -20.7150  -26.9000   22.6280 C   0  0  0  0  0  2  0  0  0  0  0  0
  -19.6170  -26.5690   21.6100 C   0  0  0  0  0  2  0  0  0  0  0  0
  -18.2330  -26.7130   22.2510 C   0  0  0  0  0  2  0  0  0  0  0  0
  -19.1650  -28.8330   23.3490 C   0  0  0  0  0  0  0  0  0  0  0  0
  -18.9410  -30.0980   23.9320 C   0  0  0  0  0  3  0  0  0  0  0  0
  -17.6340  -30.5980   24.0900 C   0  0  0  0  0  3  0  0  0  0  0  0
  -16.5330  -29.8270   23.6790 C   0  0  0  0  0  3  0  0  0  0  0  0
  -16.7420  -28.5630   23.1000 C   0  0  0  0  0  3  0  0  0  0  0  0
  -25.9080  -32.4970   23.8320 C   0  0  0  0  0  3  0  0  0  0  0  0
  -25.6050  -33.8930   24.1720 N   0  0  0  0  0  0  0  0  0  0  0  0
  -25.9300  -34.9480   23.4140 C   0  0  0  0  0  0  0  0  0  0  0  0
  -26.5910  -34.8480   22.3760 O   0  0  0  0  0  0  0  0  0  0  0  0
  -25.0180  -34.0440   24.9800 H   0  0  0  0  0  0  0  0  0  0  0  0
  -24.2020  -36.7430   23.0770 C   0  0  0  0  0  1  0  0  0  0  0  0
  -25.4470  -36.3330   23.8810 C   0  0  0  0  0  3  0  0  0  0  0  0
  -27.5910  -37.2060   24.6960 C   0  0  0  0  0  1  0  0  0  0  0  0
  -26.4780  -37.3860   23.7680 N   0  0  0  0  0  0  0  0  0  0  0  0
  -26.0740  -38.3050   23.9310 H   0  0  0  0  0  0  0  0  0  0  0  0
  -26.4380  -31.7150   25.0950 C   0  0  1  0  0  0  0  0  0  0  0  0
  -25.3580  -31.4740   26.1760 C   0  0  0  0  0  1  0  0  0  0  0  0
  -27.0100  -30.3380   24.6850 C   0  0  0  0  0  1  0  0  0  0  0  0
  -27.6000  -32.5000   25.7500 C   0  0  0  0  0  1  0  0  0  0  0  0
  -33.7890  -20.3240   16.3790 C   0  0  0  0  0  0  0  0  0  0  0  0
  -34.1800  -19.5760   17.4490 N   0  0  0  0  0  0  0  0  0  0  0  0
  -34.1990  -20.1360   15.2290 O   0  0  0  0  0  0  0  0  0  0  0  0
  -36.6210  -19.0610   17.1480 C   0  0  0  0  0  1  0  0  0  0  0  0
  -35.1860  -18.5130   17.2760 C   0  0  0  0  0  2  0  0  0  0  0  0
  -33.6490  -19.7160   18.8270 C   0  0  0  0  0  2  0  0  0  0  0  0
  -32.3020  -18.6330   20.6810 C   0  0  0  0  0  3  0  0  0  0  0  0
  -31.4080  -17.6610   21.1850 C   0  0  0  0  0  3  0  0  0  0  0  0
  -30.8750  -17.0050   18.9000 C   0  0  0  0  0  3  0  0  0  0  0  0
  -32.5590  -18.7400   19.2930 C   0  0  0  0  0  0  0  0  0  0  0  0
  -30.7390  -16.8000   20.2930 C   0  0  0  0  0  0  0  0  0  0  0  0
  -31.8110  -17.9310   18.4060 C   0  0  0  0  0  0  0  0  0  0  0  0
  -32.0220  -17.9700   17.0720 F   0  0  0  0  0  0  0  0  0  0  0  0
  -30.7520  -14.4330   20.4800 C   0  0  0  0  0  0  0  0  0  0  0  0
  -30.3240  -12.3070   19.3620 C   0  0  0  0  0  2  0  0  0  0  0  0
  -29.4120  -12.5640   18.1500 C   0  0  0  0  0  2  0  0  0  0  0  0
  -27.9310  -12.4800   18.5630 C   0  0  0  0  0  2  0  0  0  0  0  0
  -27.6080  -13.3050   19.8380 C   0  0  0  0  0  3  0  0  0  0  0  0
  -28.6560  -13.0880   20.9530 C   0  0  0  0  0  2  0  0  0  0  0  0
  -29.9880  -13.3170   20.3780 N   0  0  0  0  0  0  0  0  0  0  0  0
  -31.9280  -14.4530   20.1120 O   0  0  0  0  0  0  0  0  0  0  0  0
  -30.1380  -15.5950   20.7610 N   0  0  0  0  0  0  0  0  0  0  0  0
  -29.1810  -15.6050   21.0820 H   0  0  0  0  0  0  0  0  0  0  0  0
  -25.2090  -13.9220   20.5240 C   0  0  0  0  0  0  0  0  0  0  0  0
  -24.1340  -13.1560   20.8880 C   0  0  0  0  0  0  0  0  0  0  0  0
  -24.5910  -11.8000   20.8710 C   0  0  0  0  0  0  0  0  0  0  0  0
  -26.2520  -13.0360   20.3100 N   0  0  0  0  0  0  0  0  0  0  0  0
  -25.8840  -11.7530   20.5750 N   0  0  0  0  0  0  0  0  0  0  0  0
  -23.8570  -10.5420   21.0600 C   0  0  0  0  0  0  0  0  0  0  0  0
  -24.2910   -9.5670   21.9850 C   0  0  0  0  0  3  0  0  0  0  0  0
  -23.5590   -8.3730   22.1630 C   0  0  0  0  0  3  0  0  0  0  0  0
  -22.3770   -8.1490   21.4190 C   0  0  0  0  0  0  0  0  0  0  0  0
  -21.9650   -9.1100   20.4800 C   0  0  0  0  0  3  0  0  0  0  0  0
  -22.6960  -10.2950   20.2990 C   0  0  0  0  0  3  0  0  0  0  0  0
  -21.6130   -7.0110   21.5100 O   0  0  0  0  0  0  0  0  0  0  0  0
  -21.5810   -6.2540   22.6540 C   0  0  0  0  0  0  0  0  0  0  0  0
  -21.2080   -6.8010   23.9010 C   0  0  0  0  0  3  0  0  0  0  0  0
  -21.1260   -5.9710   25.0370 C   0  0  0  0  0  3  0  0  0  0  0  0
  -21.4050   -4.5960   24.9260 C   0  0  0  0  0  0  0  0  0  0  0  0
  -21.7690   -4.0490   23.6840 C   0  0  0  0  0  3  0  0  0  0  0  0
  -21.8560   -4.8760   22.5510 C   0  0  0  0  0  0  0  0  0  0  0  0
  -22.1880   -4.3400   21.3520 F   0  0  0  0  0  0  0  0  0  0  0  0
  -21.3160   -3.7950   26.0150 F   0  0  0  0  0  0  0  0  0  0  0  0
  -22.7360  -13.6400   21.1470 C   0  0  0  0  0  0  0  0  0  0  0  0
  -22.0020  -12.9460   22.0120 N   0  0  0  0  0  0  0  0  0  0  0  0
  -22.3050  -14.6640   20.6210 O   0  0  0  0  0  0  0  0  0  0  0  0
  -22.3640  -12.1160   22.4580 H   0  0  0  0  0  0  0  0  0  0  0  0
  -21.0630  -13.2440   22.2330 H   0  0  0  0  0  0  0  0  0  0  0  0
  -25.3840  -15.2890   20.3320 N   0  0  0  0  0  0  0  0  0  0  0  0
  -24.6230  -15.9550   20.4080 H   0  0  0  0  0  0  0  0  0  0  0  0
  -26.2410  -15.7090   20.0000 H   0  0  0  0  0  0  0  0  0  0  0  0
  1  6  1  0
  3  5  2  0
  4  1  2  0
  4  3  1  0
  5  8  1  0
  5  2  1  0
  6  2  2  0
  6 10  1  0
  7  4  1  0
  9 13  1  0
  9 11  2  0
 10  9  1  0
 12 10  1  0
 13 14  1  0
 14 16  1  0
 15 26  2  0
 16 21  1  0
 17 25  1  0
 17 27  1  0
 18 24  1  0
 18 20  1  0
 19 25  1  0
 20 19  1  0
 21 20  2  0
 22 23  1  0
 22 16  2  0
 23 18  2  0
 24 17  1  0
 25 15  1  0
 27 29  2  0
 28 27  1  0
 30 28  1  0
 31 40  2  0
 31 36  1  0
 32 28  1  0
 32 36  1  0
 33 32  1  0
 34 35  1  0
 34 33  1  0
 35 31  1  0
 36 37  2  0
 37 38  1  0
 39 38  2  0
 40 39  1  0
 41 15  1  0
 41 42  1  0
 41 51  1  0
 42 45  1  0
 43 47  1  0
 43 42  1  0
 44 43  2  0
 47 46  1  0
 49 47  1  0
 49 50  1  0
 49 48  1  0
 51 54  1  1
 51 52  1  0
 53 51  1  0
 55  3  1  0
 55 56  1  0
 56 60  1  0
 57 55  2  0
 58 59  1  0
 59 56  1  0
 60 64  1  0
 61 62  1  0
 63 65  1  0
 64 61  2  0
 65 76  1  0
 65 62  2  0
 66 63  2  0
 66 64  1  0
 67 66  1  0
 68 76  1  0
 69 74  1  0
 70 71  1  0
 70 69  1  0
 72 71  1  0
 72 81  1  0
 72 73  1  0
 74 68  1  0
 74 73  1  0
 75 68  2  0
 76 77  1  0
 78 79  2  0
 79 98  1  0
 80 79  1  0
 80 83  1  0
 81 78  1  0
 81 82  1  0
 82 80  2  0
 83 84  1  0
 84 85  2  0
 86 89  1  0
 86 85  1  0
 87 86  2  0
 88 87  1  0
 88 83  2  0
 89 90  1  0
 90 91  1  0
 91 92  2  0
 93 92  1  0
 93 97  1  0
 94 93  2  0
 95 90  2  0
 95 94  1  0
 96 95  1  0
 98 99  1  0
 99102  1  0
 99101  1  0
100 98  2  0
103104  1  0
103 78  1  0
105103  1  0
M  ISO  4  13 101  14 101  68 100  76 100
M  END
>  <TORSDO>  (74) 
F 22

>  <SCORE>  (74) 
-13.193

>  <name>  (74) 
73

>  <ligand_id>  (74) 
73

>  <original_smiles>  (74) 
[H]c1c([H])c([H])c2c(c1[H])C([H])([H])C([H])([H])C([H])([H])C2([H])N([H])C(=O)C1([H])N(C(=O)C([H])(N([H])C(=O)C([H])(N([H])C([H])([H])[H])C([H])([H])[H])C(C([H])([H])[H])(C([H])([H])[H])C([H])([H])[H])C([H])([H])c2c([H])c(OC([H])([H])C(=O)N([H])c3c([H])c(C([H])([H])[H])c(C(=O)N(C([H])([H])c4c([H])c([H])c(N([H])C(=O)N5C([H])([H])C([H])([H])C([H])([H])C([H])(n6nc(-c7c([H])c([H])c(Oc8c([H])c([H])c(F)c([H])c8F)c([H])c7[H])c(C(=O)N([H])[H])c6N([H])[H])C5([H])[H])c([H])c4F)C([H])([H])C([H])([H])[H])c(C([H])([H])[H])c3[H])c([H])c([H])c2C1([H])[H]

>  <smiles>  (74) 
[H]c1c([H])c([H])c2c(c1[H])C([H])([H])C([H])([H])C([H])([H])C2([H])N([H])C(=O)C1([H])N(C(=O)C([H])(N([H])C(=O)C([H])(N([H])C([H])([H])[H])C([H])([H])[H])C(C([H])([H])[H])(C([H])([H])[H])C([H])([H])[H])C([H])([H])c2c([H])c(OC([H])([H])C(=O)N([H])c3c([H])c(C([H])([H])[H])c(C(=O)N(C([H])([H])c4c([H])c([H])c(N([H])C(=O)N5C([H])([H])C([H])([H])C([H])([H])C([H])(n6nc(-c7c([H])c([H])c(Oc8c([H])c([H])c(F)c([H])c8F)c([H])c7[H])c(C(=O)N([H])[H])c6N([H])[H])C5([H])[H])c([H])c4F)C([H])([H])C([H])([H])[H])c(C([H])([H])[H])c3[H])c([H])c([H])c2C1([H])[H]

$$$$
74:0:0
     RDKit          3D

 95103  0  0  1  0  0  0  0  0999 V2000
  -29.2430  -22.2600   18.9870 C   0  0  0  0  0  0  0  0  0  0  0  0
  -27.5710  -21.0550   17.6970 C   0  0  0  0  0  0  0  0  0  0  0  0
  -26.3590  -21.8010   18.2730 C   0  0  0  0  0  1  0  0  0  0  0  0
  -28.8240  -21.2130   18.2210 N   0  0  0  0  0  0  0  0  0  0  0  0
  -30.0880  -22.1050   19.8760 O   0  0  0  0  0  0  0  0  0  0  0  0
  -27.3360  -20.2520   16.7880 O   0  0  0  0  0  0  0  0  0  0  0  0
  -28.7790  -23.5840   18.5750 C   0  0  0  0  0  3  0  0  0  0  0  0
  -29.1260  -24.6770   19.2750 C   0  0  0  0  0  3  0  0  0  0  0  0
  -28.7280  -26.0880   18.9120 C   0  0  0  0  0  2  0  0  0  0  0  0
  -28.3600  -26.8090   20.0810 O   0  0  0  0  0  0  0  0  0  0  0  0
  -24.5460  -31.8850   23.2210 C   0  0  0  0  0  0  0  0  0  0  0  0
  -27.1610  -27.4780   20.0870 C   0  0  0  0  0  0  0  0  0  0  0  0
  -23.3190  -30.4880   21.5890 C   0  0  0  0  0  3  0  0  0  0  0  0
  -24.7530  -28.9480   20.1480 C   0  0  0  0  0  0  0  0  0  0  0  0
  -25.8370  -30.8480   21.3620 C   0  0  0  0  0  2  0  0  0  0  0  0
  -25.9120  -29.4780   20.7270 C   0  0  0  0  0  0  0  0  0  0  0  0
  -27.1150  -28.7420   20.7070 C   0  0  0  0  0  3  0  0  0  0  0  0
  -25.9810  -26.9410   19.5240 C   0  0  0  0  0  3  0  0  0  0  0  0
  -24.7780  -27.6730   19.5520 C   0  0  0  0  0  3  0  0  0  0  0  0
  -23.5090  -29.8050   20.2070 C   0  0  0  0  0  2  0  0  0  0  0  0
  -24.5860  -31.0880   22.1160 N   0  0  0  0  0  0  0  0  0  0  0  0
  -23.4720  -32.1590   23.7740 O   0  0  0  0  0  0  0  0  0  0  0  0
  -22.6760  -29.4670   22.5550 C   0  0  0  0  0  0  0  0  0  0  0  0
  -21.3520  -29.2850   22.4360 N   0  0  0  0  0  0  0  0  0  0  0  0
  -23.3670  -28.8420   23.3650 O   0  0  0  0  0  0  0  0  0  0  0  0
  -20.8570  -29.8410   21.7530 H   0  0  0  0  0  0  0  0  0  0  0  0
  -17.9830  -28.0900   22.9500 C   0  0  0  0  0  0  0  0  0  0  0  0
  -20.5400  -28.3490   23.2120 C   0  0  0  0  0  3  0  0  0  0  0  0
  -20.6420  -26.9170   22.6370 C   0  0  0  0  0  2  0  0  0  0  0  0
  -19.5360  -26.5910   21.6280 C   0  0  0  0  0  2  0  0  0  0  0  0
  -18.1570  -26.7390   22.2770 C   0  0  0  0  0  2  0  0  0  0  0  0
  -19.1020  -28.8530   23.3740 C   0  0  0  0  0  0  0  0  0  0  0  0
  -18.8860  -30.1190   23.9620 C   0  0  0  0  0  3  0  0  0  0  0  0
  -17.5830  -30.6210   24.1290 C   0  0  0  0  0  3  0  0  0  0  0  0
  -16.4770  -29.8560   23.7230 C   0  0  0  0  0  3  0  0  0  0  0  0
  -16.6780  -28.5920   23.1380 C   0  0  0  0  0  3  0  0  0  0  0  0
  -25.8420  -32.5090   23.8280 C   0  0  0  0  0  3  0  0  0  0  0  0
  -26.3740  -31.7330   25.0940 C   0  0  1  0  0  0  0  0  0  0  0  0
  -25.2940  -31.4960   26.1760 C   0  0  0  0  0  1  0  0  0  0  0  0
  -26.9470  -30.3560   24.6870 C   0  0  0  0  0  1  0  0  0  0  0  0
  -27.5350  -32.5220   25.7440 C   0  0  0  0  0  1  0  0  0  0  0  0
  -25.5450  -33.9090   24.1620 N   0  0  0  0  0  0  0  0  0  0  0  0
  -25.8820  -34.9590   23.4040 C   0  0  0  0  0  0  0  0  0  0  0  0
  -26.5500  -34.8530   22.3710 O   0  0  0  0  0  0  0  0  0  0  0  0
  -24.9540  -34.0650   24.9650 H   0  0  0  0  0  0  0  0  0  0  0  0
  -24.1750  -36.7700   23.0390 C   0  0  0  0  0  1  0  0  0  0  0  0
  -25.4030  -36.3490   23.8630 C   0  0  0  0  0  3  0  0  0  0  0  0
  -27.5330  -37.2090   24.7260 C   0  0  0  0  0  1  0  0  0  0  0  0
  -26.4470  -37.3930   23.7690 N   0  0  0  0  0  0  0  0  0  0  0  0
  -26.0480  -38.3160   23.9140 H   0  0  0  0  0  0  0  0  0  0  0  0
  -29.8470  -20.1790   17.9390 C   0  0  0  0  0  2  0  0  0  0  0  0
  -31.0990  -18.4950   19.3590 C   0  0  0  0  0  3  0  0  0  0  0  0
  -28.6740  -18.3120   19.2560 C   0  0  0  0  0  3  0  0  0  0  0  0
  -31.1560  -17.3180   20.1270 C   0  0  0  0  0  3  0  0  0  0  0  0
  -28.7310  -17.1340   20.0260 C   0  0  0  0  0  3  0  0  0  0  0  0
  -29.8620  -18.9810   18.8870 C   0  0  0  0  0  0  0  0  0  0  0  0
  -29.9740  -16.5960   20.4140 C   0  0  0  0  0  0  0  0  0  0  0  0
  -30.6980  -14.2930   20.5190 C   0  0  0  0  0  0  0  0  0  0  0  0
  -30.3450  -12.1790   19.3280 C   0  0  0  0  0  2  0  0  0  0  0  0
  -29.3970  -12.4490   18.1420 C   0  0  0  0  0  2  0  0  0  0  0  0
  -27.9260  -12.3210   18.5830 C   0  0  0  0  0  2  0  0  0  0  0  0
  -27.6130  -13.1230   19.8750 C   0  0  0  0  0  3  0  0  0  0  0  0
  -28.6770  -12.8530   20.9660 C   0  0  0  0  0  2  0  0  0  0  0  0
  -30.0050  -13.1330   20.3930 N   0  0  0  0  0  0  0  0  0  0  0  0
  -31.8330  -14.4490   20.0620 O   0  0  0  0  0  0  0  0  0  0  0  0
  -29.9960  -15.3170   21.0290 N   0  0  0  0  0  0  0  0  0  0  0  0
  -29.1230  -15.0240   21.4410 H   0  0  0  0  0  0  0  0  0  0  0  0
  -25.2140  -13.7270   20.5920 C   0  0  0  0  0  0  0  0  0  0  0  0
  -24.1500  -12.9530   20.9710 C   0  0  0  0  0  0  0  0  0  0  0  0
  -24.6160  -11.6030   20.9420 C   0  0  0  0  0  0  0  0  0  0  0  0
  -26.2620  -12.8490   20.3600 N   0  0  0  0  0  0  0  0  0  0  0  0
  -25.9050  -11.5660   20.6270 N   0  0  0  0  0  0  0  0  0  0  0  0
  -23.8950  -10.3390   21.1400 C   0  0  0  0  0  0  0  0  0  0  0  0
  -24.3370   -9.3740   22.0720 C   0  0  0  0  0  3  0  0  0  0  0  0
  -23.6160   -8.1750   22.2550 C   0  0  0  0  0  3  0  0  0  0  0  0
  -22.4410   -7.9310   21.5060 C   0  0  0  0  0  0  0  0  0  0  0  0
  -22.0180   -8.8840   20.5620 C   0  0  0  0  0  3  0  0  0  0  0  0
  -22.7390  -10.0760   20.3780 C   0  0  0  0  0  3  0  0  0  0  0  0
  -21.6920   -6.7820   21.5990 O   0  0  0  0  0  0  0  0  0  0  0  0
  -21.6570   -6.0380   22.7510 C   0  0  0  0  0  0  0  0  0  0  0  0
  -21.2130   -6.5830   23.9760 C   0  0  0  0  0  3  0  0  0  0  0  0
  -21.1240   -5.7640   25.1190 C   0  0  0  0  0  3  0  0  0  0  0  0
  -21.4710   -4.4010   25.0390 C   0  0  0  0  0  0  0  0  0  0  0  0
  -21.9090   -3.8570   23.8200 C   0  0  0  0  0  3  0  0  0  0  0  0
  -21.9990   -4.6730   22.6780 C   0  0  0  0  0  0  0  0  0  0  0  0
  -22.3990   -4.1380   21.4990 F   0  0  0  0  0  0  0  0  0  0  0  0
  -21.3800   -3.6130   26.1350 F   0  0  0  0  0  0  0  0  0  0  0  0
  -22.7540  -13.4270   21.2500 C   0  0  0  0  0  0  0  0  0  0  0  0
  -22.0330  -12.7320   22.1220 N   0  0  0  0  0  0  0  0  0  0  0  0
  -22.3080  -14.4490   20.7290 O   0  0  0  0  0  0  0  0  0  0  0  0
  -22.4040  -11.9060   22.5680 H   0  0  0  0  0  0  0  0  0  0  0  0
  -21.0960  -13.0320   22.3510 H   0  0  0  0  0  0  0  0  0  0  0  0
  -25.3700  -15.0960   20.4020 N   0  0  0  0  0  0  0  0  0  0  0  0
  -24.5920  -15.7420   20.4900 H   0  0  0  0  0  0  0  0  0  0  0  0
  -26.1870  -15.5170   19.9820 H   0  0  0  0  0  0  0  0  0  0  0  0
  1  5  2  0
  2  4  1  0
  2  3  1  0
  4  1  1  0
  6  2  2  0
  7  1  1  0
  7  8  2  0
  9  8  1  0
  9 10  1  0
 10 12  1  0
 11 22  2  0
 12 17  1  0
 13 21  1  0
 13 23  1  0
 14 20  1  0
 14 16  1  0
 15 21  1  0
 16 15  1  0
 17 16  2  0
 18 19  1  0
 18 12  2  0
 19 14  2  0
 20 13  1  0
 21 11  1  0
 23 25  2  0
 24 23  1  0
 26 24  1  0
 27 36  2  0
 27 32  1  0
 28 24  1  0
 28 32  1  0
 29 28  1  0
 30 31  1  0
 30 29  1  0
 31 27  1  0
 32 33  2  0
 33 34  1  0
 35 34  2  0
 36 35  1  0
 37 11  1  0
 37 42  1  0
 37 38  1  0
 38 41  1  1
 38 39  1  0
 40 38  1  0
 42 45  1  0
 43 47  1  0
 43 42  1  0
 44 43  2  0
 47 46  1  0
 49 47  1  0
 49 50  1  0
 49 48  1  0
 51  4  1  0
 51 56  1  0
 52 54  1  0
 53 55  2  0
 54 57  2  0
 55 57  1  0
 56 53  1  0
 56 52  2  0
 57 66  1  0
 58 66  1  0
 59 64  1  0
 60 61  1  0
 60 59  1  0
 62 61  1  0
 62 71  1  0
 62 63  1  0
 64 58  1  0
 64 63  1  0
 65 58  2  0
 66 67  1  0
 68 69  2  0
 69 88  1  0
 70 69  1  0
 70 73  1  0
 71 68  1  0
 71 72  1  0
 72 70  2  0
 73 74  1  0
 74 75  2  0
 76 79  1  0
 76 75  1  0
 77 76  2  0
 78 77  1  0
 78 73  2  0
 79 80  1  0
 80 81  1  0
 81 82  2  0
 83 82  1  0
 83 87  1  0
 84 83  2  0
 85 80  2  0
 85 84  1  0
 86 85  1  0
 88 89  1  0
 89 92  1  0
 89 91  1  0
 90 88  2  0
 93 94  1  0
 93 68  1  0
 95 93  1  0
M  ISO  4   9 101  10 101  58 100  66 100
M  END
>  <TORSDO>  (75) 
F 20

>  <SCORE>  (75) 
-14.141

>  <name>  (75) 
74

>  <ligand_id>  (75) 
74

>  <original_smiles>  (75) 
[H]C(C(=O)N(C(=O)C([H])([H])[H])C([H])([H])c1c([H])c([H])c(N([H])C(=O)N2C([H])([H])C([H])([H])C([H])([H])C([H])(n3nc(-c4c([H])c([H])c(Oc5c([H])c([H])c(F)c([H])c5F)c([H])c4[H])c(C(=O)N([H])[H])c3N([H])[H])C2([H])[H])c([H])c1[H])=C([H])C([H])([H])Oc1c([H])c([H])c2c(c1[H])C([H])([H])N(C(=O)C([H])(N([H])C(=O)C([H])(N([H])C([H])([H])[H])C([H])([H])[H])C(C([H])([H])[H])(C([H])([H])[H])C([H])([H])[H])C([H])(C(=O)N([H])C1([H])c3c([H])c([H])c([H])c([H])c3C([H])([H])C([H])([H])C1([H])[H])C2([H])[H]

>  <smiles>  (75) 
[H]C(C(=O)N(C(=O)C([H])([H])[H])C([H])([H])c1c([H])c([H])c(N([H])C(=O)N2C([H])([H])C([H])([H])C([H])([H])C([H])(n3nc(-c4c([H])c([H])c(Oc5c([H])c([H])c(F)c([H])c5F)c([H])c4[H])c(C(=O)N([H])[H])c3N([H])[H])C2([H])[H])c([H])c1[H])=C([H])C([H])([H])Oc1c([H])c([H])c2c(c1[H])C([H])([H])N(C(=O)C([H])(N([H])C(=O)C([H])(N([H])C([H])([H])[H])C([H])([H])[H])C(C([H])([H])[H])(C([H])([H])[H])C([H])([H])[H])C([H])(C(=O)N([H])C1([H])c3c([H])c([H])c([H])c([H])c3C([H])([H])C([H])([H])C1([H])[H])C2([H])[H]

$$$$
75:0:0
     RDKit          3D

105114  0  0  1  0  0  0  0  0999 V2000
  -30.4540  -22.4040   26.1650 C   0  0  0  0  0  3  0  0  0  0  0  0
  -29.4610  -24.4540   25.3370 C   0  0  0  0  0  3  0  0  0  0  0  0
  -29.3450  -21.6620   25.7040 C   0  0  0  0  0  0  0  0  0  0  0  0
  -28.3520  -23.7370   24.8340 C   0  0  0  0  0  0  0  0  0  0  0  0
  -28.2660  -22.3340   25.0590 C   0  0  0  0  0  0  0  0  0  0  0  0
  -30.5050  -23.7940   26.0000 C   0  0  0  0  0  0  0  0  0  0  0  0
  -27.0410  -21.5630   24.5620 C   0  0  0  0  0  1  0  0  0  0  0  0
  -31.5670  -24.4970   26.4600 F   0  0  0  0  0  0  0  0  0  0  0  0
  -29.3910  -20.1950   25.8800 C   0  0  0  0  0  3  0  0  0  0  0  0
  -30.3610  -19.4920   25.4480 N   0  0  0  0  0  0  0  0  0  0  0  0
  -30.3250  -18.1320   25.6900 C   0  0  0  0  0  0  0  0  0  0  0  0
  -29.6990  -17.5360   26.5730 O   0  0  0  0  0  0  0  0  0  0  0  0
  -33.2130  -16.5410   23.7530 C   0  0  0  0  0  3  0  0  0  0  0  0
  -32.5280  -15.8020   22.7780 C   0  0  0  0  0  3  0  0  0  0  0  0
  -31.0860  -17.3250   24.6730 C   0  0  0  0  0  0  0  0  0  0  0  0
  -32.5070  -17.2910   24.7110 C   0  0  0  0  0  0  0  0  0  0  0  0
  -30.3880  -16.5960   23.6650 C   0  0  0  0  0  0  0  0  0  0  0  0
  -31.1150  -15.8120   22.7300 C   0  0  0  0  0  0  0  0  0  0  0  0
  -33.3040  -18.0390   25.7710 C   0  0  0  0  0  1  0  0  0  0  0  0
  -28.8580  -16.6310   23.5870 C   0  0  0  0  0  1  0  0  0  0  0  0
  -30.7960  -14.3220   20.7380 C   0  0  0  0  0  0  0  0  0  0  0  0
  -30.4180  -12.2980   19.3740 C   0  0  0  0  0  2  0  0  0  0  0  0
  -29.4780  -12.5380   18.1800 C   0  0  0  0  0  2  0  0  0  0  0  0
  -28.0050  -12.3850   18.6030 C   0  0  0  0  0  2  0  0  0  0  0  0
  -27.6660  -13.2000   19.8780 C   0  0  0  0  0  3  0  0  0  0  0  0
  -28.7050  -12.9280   20.9860 C   0  0  0  0  0  2  0  0  0  0  0  0
  -30.0480  -13.2260   20.4510 N   0  0  0  0  0  0  0  0  0  0  0  0
  -31.7820  -14.6620   20.0740 O   0  0  0  0  0  0  0  0  0  0  0  0
  -30.3890  -14.9810   21.8320 N   0  0  0  0  0  0  0  0  0  0  0  0
  -29.4750  -14.7050   22.1560 H   0  0  0  0  0  0  0  0  0  0  0  0
  -25.2620  -13.8160   20.5670 C   0  0  0  0  0  0  0  0  0  0  0  0
  -24.1850  -13.0440   20.9160 C   0  0  0  0  0  0  0  0  0  0  0  0
  -24.6390  -11.6910   20.8720 C   0  0  0  0  0  0  0  0  0  0  0  0
  -26.3050  -12.9310   20.3370 N   0  0  0  0  0  0  0  0  0  0  0  0
  -25.9310  -11.6470   20.5740 N   0  0  0  0  0  0  0  0  0  0  0  0
  -23.9050  -10.4300   21.0400 C   0  0  0  0  0  0  0  0  0  0  0  0
  -24.3610   -9.4210   21.9180 C   0  0  0  0  0  3  0  0  0  0  0  0
  -23.6280   -8.2250   22.0750 C   0  0  0  0  0  3  0  0  0  0  0  0
  -22.4270   -8.0280   21.3550 C   0  0  0  0  0  0  0  0  0  0  0  0
  -21.9900   -9.0250   20.4640 C   0  0  0  0  0  3  0  0  0  0  0  0
  -22.7230  -10.2130   20.3050 C   0  0  0  0  0  3  0  0  0  0  0  0
  -21.6640   -6.8880   21.4240 O   0  0  0  0  0  0  0  0  0  0  0  0
  -21.6850   -6.0740   22.5280 C   0  0  0  0  0  0  0  0  0  0  0  0
  -21.4010   -6.5640   23.8210 C   0  0  0  0  0  3  0  0  0  0  0  0
  -21.3660   -5.6790   24.9170 C   0  0  0  0  0  3  0  0  0  0  0  0
  -21.6050   -4.3060   24.7220 C   0  0  0  0  0  0  0  0  0  0  0  0
  -21.8820   -3.8150   23.4340 C   0  0  0  0  0  3  0  0  0  0  0  0
  -21.9190   -4.6960   22.3400 C   0  0  0  0  0  0  0  0  0  0  0  0
  -22.1660   -4.2150   21.0980 F   0  0  0  0  0  0  0  0  0  0  0  0
  -21.5630   -3.4540   25.7730 F   0  0  0  0  0  0  0  0  0  0  0  0
  -22.7880  -13.5250   21.1830 C   0  0  0  0  0  0  0  0  0  0  0  0
  -22.0500  -12.8240   22.0380 N   0  0  0  0  0  0  0  0  0  0  0  0
  -22.3570  -14.5560   20.6690 O   0  0  0  0  0  0  0  0  0  0  0  0
  -22.4100  -11.9890   22.4750 H   0  0  0  0  0  0  0  0  0  0  0  0
  -21.1120  -13.1280   22.2570 H   0  0  0  0  0  0  0  0  0  0  0  0
  -25.4370  -15.1870   20.4090 N   0  0  0  0  0  0  0  0  0  0  0  0
  -24.6760  -15.8480   20.5150 H   0  0  0  0  0  0  0  0  0  0  0  0
  -26.2980  -15.6220   20.1010 H   0  0  0  0  0  0  0  0  0  0  0  0
  -27.2820  -24.4920   24.0350 C   0  0  0  0  0  2  0  0  0  0  0  0
  -28.4490  -25.3830   22.0610 C   0  0  0  0  0  0  0  0  0  0  0  0
  -27.5980  -26.9480   23.8080 C   0  0  0  0  0  1  0  0  0  0  0  0
  -27.8140  -25.6120   23.2390 N   0  0  0  0  0  0  0  0  0  0  0  0
  -28.5440  -24.2480   21.5810 O   0  0  0  0  0  0  0  0  0  0  0  0
  -29.0890  -26.5420   21.2700 C   0  0  0  0  0  2  0  0  0  0  0  0
  -28.3890  -26.7280   20.0370 O   0  0  0  0  0  0  0  0  0  0  0  0
  -24.6080  -31.8710   23.2140 C   0  0  0  0  0  0  0  0  0  0  0  0
  -27.2430  -27.4810   20.0940 C   0  0  0  0  0  0  0  0  0  0  0  0
  -23.3950  -30.4920   21.5530 C   0  0  0  0  0  3  0  0  0  0  0  0
  -24.8430  -28.9600   20.1200 C   0  0  0  0  0  0  0  0  0  0  0  0
  -25.9160  -30.8520   21.3600 C   0  0  0  0  0  2  0  0  0  0  0  0
  -25.9970  -29.4870   20.7130 C   0  0  0  0  0  0  0  0  0  0  0  0
  -27.2000  -28.7560   20.7000 C   0  0  0  0  0  3  0  0  0  0  0  0
  -26.0800  -26.9640   19.4900 C   0  0  0  0  0  3  0  0  0  0  0  0
  -24.8760  -27.6950   19.5060 C   0  0  0  0  0  3  0  0  0  0  0  0
  -23.6000  -29.8180   20.1690 C   0  0  0  0  0  2  0  0  0  0  0  0
  -24.6570  -31.0850   22.1020 N   0  0  0  0  0  0  0  0  0  0  0  0
  -23.5290  -32.1440   23.7570 O   0  0  0  0  0  0  0  0  0  0  0  0
  -22.7380  -29.4660   22.5030 C   0  0  0  0  0  0  0  0  0  0  0  0
  -21.4120  -29.3020   22.3770 N   0  0  0  0  0  0  0  0  0  0  0  0
  -23.4180  -28.8210   23.3060 O   0  0  0  0  0  0  0  0  0  0  0  0
  -20.9270  -29.8730   21.7000 H   0  0  0  0  0  0  0  0  0  0  0  0
  -18.0270  -28.1370   22.8500 C   0  0  0  0  0  0  0  0  0  0  0  0
  -20.5850  -28.3640   23.1350 C   0  0  0  0  0  3  0  0  0  0  0  0
  -20.6760  -26.9390   22.5420 C   0  0  0  0  0  2  0  0  0  0  0  0
  -19.5740  -26.6380   21.5220 C   0  0  0  0  0  2  0  0  0  0  0  0
  -18.1920  -26.7930   22.1620 C   0  0  0  0  0  2  0  0  0  0  0  0
  -19.1510  -28.8820   23.2920 C   0  0  0  0  0  0  0  0  0  0  0  0
  -18.9450  -30.1430   23.8930 C   0  0  0  0  0  3  0  0  0  0  0  0
  -17.6450  -30.6580   24.0560 C   0  0  0  0  0  3  0  0  0  0  0  0
  -16.5340  -29.9090   23.6320 C   0  0  0  0  0  3  0  0  0  0  0  0
  -16.7260  -28.6500   23.0350 C   0  0  0  0  0  3  0  0  0  0  0  0
  -25.9000  -32.4850   23.8420 C   0  0  0  0  0  3  0  0  0  0  0  0
  -25.5880  -33.8650   24.2360 N   0  0  0  0  0  0  0  0  0  0  0  0
  -25.9020  -34.9500   23.5150 C   0  0  0  0  0  0  0  0  0  0  0  0
  -26.5570  -34.8930   22.4700 O   0  0  0  0  0  0  0  0  0  0  0  0
  -25.0080  -33.9810   25.0540 H   0  0  0  0  0  0  0  0  0  0  0  0
  -24.1470  -36.7310   23.2630 C   0  0  0  0  0  1  0  0  0  0  0  0
  -25.4100  -36.3140   24.0350 C   0  0  0  0  0  3  0  0  0  0  0  0
  -27.5580  -37.1810   24.8460 C   0  0  0  0  0  1  0  0  0  0  0  0
  -26.4300  -37.3820   23.9410 N   0  0  0  0  0  0  0  0  0  0  0  0
  -26.0200  -38.2900   24.1420 H   0  0  0  0  0  0  0  0  0  0  0  0
  -26.4460  -31.6630   25.0730 C   0  0  1  0  0  0  0  0  0  0  0  0
  -25.3740  -31.3710   26.1480 C   0  0  0  0  0  1  0  0  0  0  0  0
  -27.0270  -30.3090   24.6060 C   0  0  0  0  0  1  0  0  0  0  0  0
  -27.6050  -32.4340   25.7470 C   0  0  0  0  0  1  0  0  0  0  0  0
  2  6  2  0
  3  9  1  0
  3  1  2  0
  4  5  2  0
  4  2  1  0
  5  3  1  0
  6  1  1  0
  6  8  1  0
  7  5  1  0
 10 11  1  0
 10  9  2  0
 11 12  2  0
 13 16  1  0
 14 13  2  0
 15 16  2  0
 15 11  1  0
 16 19  1  0
 17 15  1  0
 18 14  1  0
 18 17  2  0
 20 17  1  0
 21 29  1  0
 22 27  1  0
 23 24  1  0
 23 22  1  0
 25 24  1  0
 25 34  1  0
 25 26  1  0
 27 21  1  0
 27 26  1  0
 28 21  2  0
 29 30  1  0
 29 18  1  0
 31 32  2  0
 32 51  1  0
 33 32  1  0
 33 36  1  0
 34 31  1  0
 34 35  1  0
 35 33  2  0
 36 37  1  0
 37 38  2  0
 39 42  1  0
 39 38  1  0
 40 39  2  0
 41 40  1  0
 41 36  2  0
 42 43  1  0
 43 44  1  0
 44 45  2  0
 46 45  1  0
 46 50  1  0
 47 46  2  0
 48 43  2  0
 48 47  1  0
 49 48  1  0
 51 52  1  0
 52 55  1  0
 52 54  1  0
 53 51  2  0
 56 57  1  0
 56 31  1  0
 58 56  1  0
 59  4  1  0
 60 62  1  0
 62 61  1  0
 62 59  1  0
 63 60  2  0
 64 60  1  0
 65 67  1  0
 65 64  1  0
 66 77  2  0
 67 72  1  0
 68 76  1  0
 68 78  1  0
 69 75  1  0
 69 71  1  0
 70 76  1  0
 71 70  1  0
 72 71  2  0
 73 74  1  0
 73 67  2  0
 74 69  2  0
 75 68  1  0
 76 66  1  0
 78 80  2  0
 79 78  1  0
 81 79  1  0
 82 91  2  0
 82 87  1  0
 83 79  1  0
 83 87  1  0
 84 83  1  0
 85 86  1  0
 85 84  1  0
 86 82  1  0
 87 88  2  0
 88 89  1  0
 90 89  2  0
 91 90  1  0
 92 66  1  0
 92 93  1  0
 92102  1  0
 93 96  1  0
 94 98  1  0
 94 93  1  0
 95 94  2  0
 98 97  1  0
100 98  1  0
100101  1  0
100 99  1  0
102105  1  1
102103  1  0
104102  1  0
M  ISO  4  21 100  29 100  64 101  65 101
M  END
>  <TORSDO>  (76) 
F 22

>  <SCORE>  (76) 
68.365

>  <name>  (76) 
75

>  <ligand_id>  (76) 
75

>  <original_smiles>  (76) 
[H]C(=NC(=O)c1c(C([H])([H])[H])c([H])c([H])c(N([H])C(=O)N2C([H])([H])C([H])([H])C([H])([H])C([H])(n3nc(-c4c([H])c([H])c(Oc5c([H])c([H])c(F)c([H])c5F)c([H])c4[H])c(C(=O)N([H])[H])c3N([H])[H])C2([H])[H])c1C([H])([H])[H])c1c([H])c(F)c([H])c(C([H])([H])N(C(=O)C([H])([H])Oc2c([H])c([H])c3c(c2[H])C([H])([H])N(C(=O)C([H])(N([H])C(=O)C([H])(N([H])C([H])([H])[H])C([H])([H])[H])C(C([H])([H])[H])(C([H])([H])[H])C([H])([H])[H])C([H])(C(=O)N([H])C2([H])c4c([H])c([H])c([H])c([H])c4C([H])([H])C([H])([H])C2([H])[H])C3([H])[H])C([H])([H])[H])c1C([H])([H])[H]

>  <smiles>  (76) 
[H]C(=NC(=O)c1c(C([H])([H])[H])c([H])c([H])c(N([H])C(=O)N2C([H])([H])C([H])([H])C([H])([H])C([H])(n3nc(-c4c([H])c([H])c(Oc5c([H])c([H])c(F)c([H])c5F)c([H])c4[H])c(C(=O)N([H])[H])c3N([H])[H])C2([H])[H])c1C([H])([H])[H])c1c([H])c(F)c([H])c(C([H])([H])N(C(=O)C([H])([H])Oc2c([H])c([H])c3c(c2[H])C([H])([H])N(C(=O)C([H])(N([H])C(=O)C([H])(N([H])C([H])([H])[H])C([H])([H])[H])C(C([H])([H])[H])(C([H])([H])[H])C([H])([H])[H])C([H])(C(=O)N([H])C2([H])c4c([H])c([H])c([H])c([H])c4C([H])([H])C([H])([H])C2([H])[H])C3([H])[H])C([H])([H])[H])c1C([H])([H])[H]

$$$$
76:0:0
     RDKit          3D

 95104  0  0  1  0  0  0  0  0999 V2000
  -29.2200  -23.7250   21.0910 C   0  0  0  0  0  0  0  0  0  0  0  0
  -30.1950  -21.3890   22.5470 C   0  0  0  0  0  0  0  0  0  0  0  0
  -28.6460  -24.8510   20.5840 C   0  0  0  0  0  3  0  0  0  0  0  0
  -29.6670  -23.7970   22.5390 C   0  0  0  0  0  2  0  0  0  0  0  0
  -29.5230  -22.3800   20.3600 C   0  0  0  0  0  2  0  0  0  0  0  0
  -29.4420  -22.4890   23.2700 C   0  0  0  0  0  2  0  0  0  0  0  0
  -29.9260  -21.2160   21.2280 N   0  0  0  0  0  0  0  0  0  0  0  0
  -30.9930  -20.6900   23.1870 O   0  0  0  0  0  0  0  0  0  0  0  0
  -31.4890  -19.3950   20.5170 C   0  0  0  0  0  3  0  0  0  0  0  0
  -31.7330  -18.0230   20.2330 C   0  0  0  0  0  3  0  0  0  0  0  0
  -29.3350  -17.6360   20.2380 C   0  0  0  0  0  3  0  0  0  0  0  0
  -29.0760  -18.9880   20.5050 C   0  0  0  0  0  0  0  0  0  0  0  0
  -30.1680  -19.8890   20.7030 C   0  0  0  0  0  0  0  0  0  0  0  0
  -30.6410  -17.1320   20.1240 C   0  0  0  0  0  0  0  0  0  0  0  0
  -27.6040  -19.3860   20.6410 C   0  0  0  0  0  1  0  0  0  0  0  0
  -31.6130  -14.7790   19.7960 C   0  0  0  0  0  0  0  0  0  0  0  0
  -31.2620  -12.5470   18.8130 C   0  0  0  0  0  2  0  0  0  0  0  0
  -30.2750  -12.7700   17.6450 C   0  0  0  0  0  2  0  0  0  0  0  0
  -28.8220  -12.6690   18.1570 C   0  0  0  0  0  2  0  0  0  0  0  0
  -28.5640  -13.5720   19.3940 C   0  0  0  0  0  3  0  0  0  0  0  0
  -29.6700  -13.3500   20.4620 C   0  0  0  0  0  2  0  0  0  0  0  0
  -30.9790  -13.5790   19.8200 N   0  0  0  0  0  0  0  0  0  0  0  0
  -32.7880  -14.9480   19.4570 O   0  0  0  0  0  0  0  0  0  0  0  0
  -30.6880  -15.7570   19.7850 N   0  0  0  0  0  0  0  0  0  0  0  0
  -29.7750  -15.3310   19.7920 H   0  0  0  0  0  0  0  0  0  0  0  0
  -26.2570  -14.3380   20.2500 C   0  0  0  0  0  0  0  0  0  0  0  0
  -25.1630  -13.6270   20.6710 C   0  0  0  0  0  0  0  0  0  0  0  0
  -25.5290  -12.2530   20.5800 C   0  0  0  0  0  0  0  0  0  0  0  0
  -27.2270  -13.3910   19.9430 N   0  0  0  0  0  0  0  0  0  0  0  0
  -26.7950  -12.1320   20.1970 N   0  0  0  0  0  0  0  0  0  0  0  0
  -24.7330  -11.0380   20.7680 C   0  0  0  0  0  0  0  0  0  0  0  0
  -25.0980  -10.0590   21.7170 C   0  0  0  0  0  3  0  0  0  0  0  0
  -24.3020   -8.9090   21.8980 C   0  0  0  0  0  3  0  0  0  0  0  0
  -23.1300   -8.7280   21.1210 C   0  0  0  0  0  0  0  0  0  0  0  0
  -22.7860   -9.6960   20.1580 C   0  0  0  0  0  3  0  0  0  0  0  0
  -23.5840  -10.8380   19.9770 C   0  0  0  0  0  3  0  0  0  0  0  0
  -22.3130   -7.6260   21.2020 O   0  0  0  0  0  0  0  0  0  0  0  0
  -22.0700   -6.9980   22.3970 C   0  0  0  0  0  0  0  0  0  0  0  0
  -21.5520   -7.6930   23.5110 C   0  0  0  0  0  3  0  0  0  0  0  0
  -21.2480   -6.9940   24.6970 C   0  0  0  0  0  3  0  0  0  0  0  0
  -21.4610   -5.6040   24.7690 C   0  0  0  0  0  0  0  0  0  0  0  0
  -21.9730   -4.9100   23.6580 C   0  0  0  0  0  3  0  0  0  0  0  0
  -22.2750   -5.6060   22.4760 C   0  0  0  0  0  0  0  0  0  0  0  0
  -22.7480   -4.9300   21.4020 F   0  0  0  0  0  0  0  0  0  0  0  0
  -21.1630   -4.9320   25.9060 F   0  0  0  0  0  0  0  0  0  0  0  0
  -23.8220  -14.1930   21.0410 C   0  0  0  0  0  0  0  0  0  0  0  0
  -23.1230  -13.5360   21.9580 N   0  0  0  0  0  0  0  0  0  0  0  0
  -23.4090  -15.2450   20.5520 O   0  0  0  0  0  0  0  0  0  0  0  0
  -23.4760  -12.6860   22.3720 H   0  0  0  0  0  0  0  0  0  0  0  0
  -22.2310  -13.8930   22.2600 H   0  0  0  0  0  0  0  0  0  0  0  0
  -26.4890  -15.6980   20.0950 N   0  0  0  0  0  0  0  0  0  0  0  0
  -25.7540  -16.3730   20.2580 H   0  0  0  0  0  0  0  0  0  0  0  0
  -27.2980  -16.1140   19.6500 H   0  0  0  0  0  0  0  0  0  0  0  0
  -28.1980  -25.2200   19.1810 C   0  0  0  0  0  2  0  0  0  0  0  0
  -28.1580  -26.6620   18.9980 O   0  0  0  0  0  0  0  0  0  0  0  0
  -24.7040  -31.5100   22.9750 C   0  0  0  0  0  0  0  0  0  0  0  0
  -26.9850  -27.3700   19.2130 C   0  0  0  0  0  0  0  0  0  0  0  0
  -23.3270  -30.2610   21.3410 C   0  0  0  0  0  3  0  0  0  0  0  0
  -24.6150  -28.8740   19.6300 C   0  0  0  0  0  0  0  0  0  0  0  0
  -25.8220  -30.6490   20.9130 C   0  0  0  0  0  2  0  0  0  0  0  0
  -25.8350  -29.3450   20.1340 C   0  0  0  0  0  0  0  0  0  0  0  0
  -27.0230  -28.6060   19.9070 C   0  0  0  0  0  3  0  0  0  0  0  0
  -25.7360  -26.9120   18.7310 C   0  0  0  0  0  3  0  0  0  0  0  0
  -24.5620  -27.6590   18.9280 C   0  0  0  0  0  3  0  0  0  0  0  0
  -23.3890  -29.7170   19.8870 C   0  0  0  0  0  2  0  0  0  0  0  0
  -24.6430  -30.8190   21.8010 N   0  0  0  0  0  0  0  0  0  0  0  0
  -23.6890  -31.7230   23.6480 O   0  0  0  0  0  0  0  0  0  0  0  0
  -22.7740  -29.1490   22.2580 C   0  0  0  0  0  0  0  0  0  0  0  0
  -21.4620  -28.8840   22.1590 N   0  0  0  0  0  0  0  0  0  0  0  0
  -23.5240  -28.5330   23.0180 O   0  0  0  0  0  0  0  0  0  0  0  0
  -20.9190  -29.4380   21.5130 H   0  0  0  0  0  0  0  0  0  0  0  0
  -18.2190  -27.3450   22.5820 C   0  0  0  0  0  0  0  0  0  0  0  0
  -20.7320  -27.8580   22.8970 C   0  0  0  0  0  3  0  0  0  0  0  0
  -20.9890  -26.4500   22.3040 C   0  0  0  0  0  2  0  0  0  0  0  0
  -19.9400  -26.0240   21.2730 C   0  0  0  0  0  2  0  0  0  0  0  0
  -18.5450  -26.0250   21.9010 C   0  0  0  0  0  2  0  0  0  0  0  0
  -19.2440  -28.2130   23.0360 C   0  0  0  0  0  0  0  0  0  0  0  0
  -18.8860  -29.4420   23.6320 C   0  0  0  0  0  3  0  0  0  0  0  0
  -17.5340  -29.8000   23.7930 C   0  0  0  0  0  3  0  0  0  0  0  0
  -16.5240  -28.9240   23.3600 C   0  0  0  0  0  3  0  0  0  0  0  0
  -16.8640  -27.7040   22.7520 C   0  0  0  0  0  3  0  0  0  0  0  0
  -26.0460  -32.0890   23.5160 C   0  0  0  0  0  3  0  0  0  0  0  0
  -25.7800  -33.4400   24.0180 N   0  0  0  0  0  0  0  0  0  0  0  0
  -26.0860  -34.5700   23.3590 C   0  0  0  0  0  0  0  0  0  0  0  0
  -26.6910  -34.5760   22.2820 O   0  0  0  0  0  0  0  0  0  0  0  0
  -25.2370  -33.5140   24.8650 H   0  0  0  0  0  0  0  0  0  0  0  0
  -24.3570  -36.3970   23.3060 C   0  0  0  0  0  1  0  0  0  0  0  0
  -25.6450  -35.9040   23.9910 C   0  0  0  0  0  3  0  0  0  0  0  0
  -27.8390  -36.6720   24.7810 C   0  0  0  0  0  1  0  0  0  0  0  0
  -26.6870  -36.9560   23.9310 N   0  0  0  0  0  0  0  0  0  0  0  0
  -26.3040  -37.8580   24.2060 H   0  0  0  0  0  0  0  0  0  0  0  0
  -26.6960  -31.1960   24.6440 C   0  0  1  0  0  0  0  0  0  0  0  0
  -25.7270  -30.8370   25.7950 C   0  0  0  0  0  1  0  0  0  0  0  0
  -27.2340  -29.8710   24.0580 C   0  0  0  0  0  1  0  0  0  0  0  0
  -27.9170  -31.9280   25.2550 C   0  0  0  0  0  1  0  0  0  0  0  0
  1  4  1  0
  2  8  2  0
  2  6  1  0
  3  1  2  0
  4  6  1  0
  5  1  1  0
  5  7  1  0
  7  2  1  0
  9 13  1  0
 10  9  2  0
 11 12  1  0
 12 15  1  0
 12 13  2  0
 13  7  1  0
 14 10  1  0
 14 11  2  0
 16 22  1  0
 17 22  1  0
 18 19  1  0
 18 17  1  0
 20 19  1  0
 20 29  1  0
 20 21  1  0
 22 21  1  0
 23 16  2  0
 24 25  1  0
 24 16  1  0
 24 14  1  0
 26 27  2  0
 27 46  1  0
 28 27  1  0
 28 31  1  0
 29 30  1  0
 29 26  1  0
 30 28  2  0
 31 32  1  0
 32 33  2  0
 34 37  1  0
 34 33  1  0
 35 34  2  0
 36 35  1  0
 36 31  2  0
 37 38  1  0
 38 43  2  0
 38 39  1  0
 39 40  2  0
 40 41  1  0
 41 45  1  0
 42 41  2  0
 43 42  1  0
 44 43  1  0
 46 47  1  0
 47 50  1  0
 47 49  1  0
 48 46  2  0
 51 26  1  0
 51 52  1  0
 53 51  1  0
 54  3  1  0
 55 54  1  0
 55 57  1  0
 56 67  2  0
 57 62  1  0
 58 66  1  0
 58 68  1  0
 59 65  1  0
 59 61  1  0
 60 66  1  0
 61 60  1  0
 62 61  2  0
 63 64  1  0
 63 57  2  0
 64 59  2  0
 65 58  1  0
 66 56  1  0
 68 70  2  0
 69 68  1  0
 71 69  1  0
 72 81  2  0
 72 77  1  0
 73 69  1  0
 73 77  1  0
 74 73  1  0
 75 76  1  0
 75 74  1  0
 76 72  1  0
 77 78  2  0
 78 79  1  0
 80 79  2  0
 81 80  1  0
 82 56  1  0
 82 83  1  0
 82 92  1  0
 83 86  1  0
 84 88  1  0
 84 83  1  0
 85 84  2  0
 88 87  1  0
 90 88  1  0
 90 91  1  0
 90 89  1  0
 92 95  1  1
 92 93  1  0
 94 92  1  0
M  ISO  4  16 100  24 100  54 101  55 101
M  END
>  <TORSDO>  (77) 
F 18

>  <SCORE>  (77) 
-12.240

>  <name>  (77) 
76

>  <ligand_id>  (77) 
76

>  <original_smiles>  (77) 
[H]C(=C1C([H])([H])N(c2c([H])c([H])c(N([H])C(=O)N3C([H])([H])C([H])([H])C([H])([H])C([H])(n4nc(-c5c([H])c([H])c(Oc6c([H])c([H])c(F)c([H])c6F)c([H])c5[H])c(C(=O)N([H])[H])c4N([H])[H])C3([H])[H])c([H])c2C([H])([H])[H])C(=O)C([H])([H])C1([H])[H])C([H])([H])Oc1c([H])c([H])c2c(c1[H])C([H])([H])N(C(=O)C([H])(N([H])C(=O)C([H])(N([H])C([H])([H])[H])C([H])([H])[H])C(C([H])([H])[H])(C([H])([H])[H])C([H])([H])[H])C([H])(C(=O)N([H])C1([H])c3c([H])c([H])c([H])c([H])c3C([H])([H])C([H])([H])C1([H])[H])C2([H])[H]

>  <smiles>  (77) 
[H]C(=C1C([H])([H])N(c2c([H])c([H])c(N([H])C(=O)N3C([H])([H])C([H])([H])C([H])([H])C([H])(n4nc(-c5c([H])c([H])c(Oc6c([H])c([H])c(F)c([H])c6F)c([H])c5[H])c(C(=O)N([H])[H])c4N([H])[H])C3([H])[H])c([H])c2C([H])([H])[H])C(=O)C([H])([H])C1([H])[H])C([H])([H])Oc1c([H])c([H])c2c(c1[H])C([H])([H])N(C(=O)C([H])(N([H])C(=O)C([H])(N([H])C([H])([H])[H])C([H])([H])[H])C(C([H])([H])[H])(C([H])([H])[H])C([H])([H])[H])C([H])(C(=O)N([H])C1([H])c3c([H])c([H])c([H])c([H])c3C([H])([H])C([H])([H])C1([H])[H])C2([H])[H]

$$$$
77:0:0
     RDKit          3D

 94102  0  0  1  0  0  0  0  0999 V2000
  -28.7030  -20.8540   20.9690 C   0  0  0  0  0  2  0  0  0  0  0  0
  -31.6910  -18.1800   22.6720 C   0  0  0  0  0  3  0  0  0  0  0  0
  -31.2370  -19.2930   23.4070 C   0  0  0  0  0  3  0  0  0  0  0  0
  -30.2220  -18.8070   20.8280 C   0  0  0  0  0  3  0  0  0  0  0  0
  -31.1990  -17.9390   21.3730 C   0  0  0  0  0  0  0  0  0  0  0  0
  -29.7700  -19.9340   21.5560 C   0  0  0  0  0  0  0  0  0  0  0  0
  -30.2870  -20.1710   22.8500 C   0  0  0  0  0  0  0  0  0  0  0  0
  -29.8690  -21.2430   23.5670 F   0  0  0  0  0  0  0  0  0  0  0  0
  -31.8070  -16.8230   20.5350 C   0  0  0  0  0  2  0  0  0  0  0  0
  -31.4890  -14.5160   19.7680 C   0  0  0  0  0  0  0  0  0  0  0  0
  -31.0300  -12.2540   18.8990 C   0  0  0  0  0  2  0  0  0  0  0  0
  -30.0510  -12.3310   17.7120 C   0  0  0  0  0  2  0  0  0  0  0  0
  -28.5940  -12.3050   18.2070 C   0  0  0  0  0  2  0  0  0  0  0  0
  -28.3350  -13.3140   19.3560 C   0  0  0  0  0  3  0  0  0  0  0  0
  -29.4250  -13.2200   20.4480 C   0  0  0  0  0  2  0  0  0  0  0  0
  -30.7360  -13.3830   19.7990 N   0  0  0  0  0  0  0  0  0  0  0  0
  -32.5360  -14.5940   19.1190 O   0  0  0  0  0  0  0  0  0  0  0  0
  -31.0360  -15.5780   20.4540 N   0  0  0  0  0  0  0  0  0  0  0  0
  -30.1680  -15.5060   20.9610 H   0  0  0  0  0  0  0  0  0  0  0  0
  -26.0440  -14.1130   20.2140 C   0  0  0  0  0  0  0  0  0  0  0  0
  -24.9360  -13.4290   20.6400 C   0  0  0  0  0  0  0  0  0  0  0  0
  -25.2760  -12.0430   20.5650 C   0  0  0  0  0  0  0  0  0  0  0  0
  -26.9940  -13.1490   19.9150 N   0  0  0  0  0  0  0  0  0  0  0  0
  -26.5370  -11.8970   20.1790 N   0  0  0  0  0  0  0  0  0  0  0  0
  -24.4540  -10.8450   20.7900 C   0  0  0  0  0  0  0  0  0  0  0  0
  -24.8180   -9.8660   21.7410 C   0  0  0  0  0  3  0  0  0  0  0  0
  -24.0040   -8.7330   21.9510 C   0  0  0  0  0  3  0  0  0  0  0  0
  -22.8100   -8.5710   21.2080 C   0  0  0  0  0  0  0  0  0  0  0  0
  -22.4640   -9.5350   20.2470 C   0  0  0  0  0  3  0  0  0  0  0  0
  -23.2790  -10.6600   20.0350 C   0  0  0  0  0  3  0  0  0  0  0  0
  -21.9700   -7.4900   21.3260 O   0  0  0  0  0  0  0  0  0  0  0  0
  -21.8200   -6.8200   22.5140 C   0  0  0  0  0  0  0  0  0  0  0  0
  -21.3890   -7.4750   23.6890 C   0  0  0  0  0  3  0  0  0  0  0  0
  -21.1800   -6.7360   24.8700 C   0  0  0  0  0  3  0  0  0  0  0  0
  -21.3950   -5.3440   24.8780 C   0  0  0  0  0  0  0  0  0  0  0  0
  -21.8180   -4.6900   23.7080 C   0  0  0  0  0  3  0  0  0  0  0  0
  -22.0280   -5.4260   22.5290 C   0  0  0  0  0  0  0  0  0  0  0  0
  -22.4160   -4.7880   21.3990 F   0  0  0  0  0  0  0  0  0  0  0  0
  -21.1860   -4.6330   26.0120 F   0  0  0  0  0  0  0  0  0  0  0  0
  -23.6060  -14.0200   21.0060 C   0  0  0  0  0  0  0  0  0  0  0  0
  -22.8840  -13.3830   21.9210 N   0  0  0  0  0  0  0  0  0  0  0  0
  -23.2210  -15.0800   20.5150 O   0  0  0  0  0  0  0  0  0  0  0  0
  -23.2090  -12.5250   22.3390 H   0  0  0  0  0  0  0  0  0  0  0  0
  -21.9940  -13.7630   22.2100 H   0  0  0  0  0  0  0  0  0  0  0  0
  -26.3160  -15.4660   20.0410 N   0  0  0  0  0  0  0  0  0  0  0  0
  -25.6170  -16.1840   20.2000 H   0  0  0  0  0  0  0  0  0  0  0  0
  -27.1910  -15.8360   19.6920 H   0  0  0  0  0  0  0  0  0  0  0  0
  -29.1580  -22.9510   19.6730 C   0  0  0  0  0  0  0  0  0  0  0  0
  -29.1090  -22.2560   20.8220 N   0  0  0  0  0  0  0  0  0  0  0  0
  -28.9820  -22.4240   18.5730 O   0  0  0  0  0  0  0  0  0  0  0  0
  -29.2670  -22.7620   21.6820 H   0  0  0  0  0  0  0  0  0  0  0  0
  -29.4040  -24.4680   19.7590 C   0  0  0  0  0  2  0  0  0  0  0  0
  -28.1190  -25.2380   19.3970 C   0  0  0  0  0  2  0  0  0  0  0  0
  -28.2360  -26.6690   19.4440 O   0  0  0  0  0  0  0  0  0  0  0  0
  -24.4900  -31.5640   22.9890 C   0  0  0  0  0  0  0  0  0  0  0  0
  -27.0470  -27.3760   19.5100 C   0  0  0  0  0  0  0  0  0  0  0  0
  -23.2190  -30.2190   21.3490 C   0  0  0  0  0  3  0  0  0  0  0  0
  -24.6180  -28.8140   19.7490 C   0  0  0  0  0  0  0  0  0  0  0  0
  -25.7170  -30.6640   21.0160 C   0  0  0  0  0  2  0  0  0  0  0  0
  -25.7990  -29.3350   20.2960 C   0  0  0  0  0  0  0  0  0  0  0  0
  -27.0160  -28.6260   20.1720 C   0  0  0  0  0  3  0  0  0  0  0  0
  -25.8460  -26.8820   18.9460 C   0  0  0  0  0  3  0  0  0  0  0  0
  -24.6380  -27.5870   19.0710 C   0  0  0  0  0  3  0  0  0  0  0  0
  -23.3540  -29.6230   19.9220 C   0  0  0  0  0  2  0  0  0  0  0  0
  -24.4970  -30.8270   21.8420 N   0  0  0  0  0  0  0  0  0  0  0  0
  -23.4380  -31.7760   23.6100 O   0  0  0  0  0  0  0  0  0  0  0  0
  -22.6570  -29.1270   22.2900 C   0  0  0  0  0  0  0  0  0  0  0  0
  -21.3440  -28.8650   22.1860 N   0  0  0  0  0  0  0  0  0  0  0  0
  -23.3980  -28.5200   23.0670 O   0  0  0  0  0  0  0  0  0  0  0  0
  -20.8030  -29.4110   21.5310 H   0  0  0  0  0  0  0  0  0  0  0  0
  -18.0840  -27.3820   22.6470 C   0  0  0  0  0  0  0  0  0  0  0  0
  -20.6060  -27.8560   22.9460 C   0  0  0  0  0  3  0  0  0  0  0  0
  -20.8390  -26.4440   22.3660 C   0  0  0  0  0  2  0  0  0  0  0  0
  -19.7790  -26.0340   21.3370 C   0  0  0  0  0  2  0  0  0  0  0  0
  -18.3820  -26.0560   21.9670 C   0  0  0  0  0  2  0  0  0  0  0  0
  -19.1270  -28.2340   23.0920 C   0  0  0  0  0  0  0  0  0  0  0  0
  -18.7960  -29.4700   23.6860 C   0  0  0  0  0  3  0  0  0  0  0  0
  -17.4520  -29.8590   23.8400 C   0  0  0  0  0  3  0  0  0  0  0  0
  -16.4210  -29.0030   23.4130 C   0  0  0  0  0  3  0  0  0  0  0  0
  -16.7370  -27.7680   22.8210 C   0  0  0  0  0  3  0  0  0  0  0  0
  -25.7960  -32.1980   23.5580 C   0  0  0  0  0  3  0  0  0  0  0  0
  -25.4730  -33.5660   23.9900 N   0  0  0  0  0  0  0  0  0  0  0  0
  -25.7890  -34.6740   23.3050 C   0  0  0  0  0  0  0  0  0  0  0  0
  -26.4540  -34.6520   22.2660 O   0  0  0  0  0  0  0  0  0  0  0  0
  -24.8790  -33.6560   24.8020 H   0  0  0  0  0  0  0  0  0  0  0  0
  -24.0370  -36.4620   23.0780 C   0  0  0  0  0  1  0  0  0  0  0  0
  -25.2830  -36.0190   23.8600 C   0  0  0  0  0  3  0  0  0  0  0  0
  -27.4100  -36.8590   24.7500 C   0  0  0  0  0  1  0  0  0  0  0  0
  -26.3030  -37.0890   23.8270 N   0  0  0  0  0  0  0  0  0  0  0  0
  -25.8860  -37.9890   24.0500 H   0  0  0  0  0  0  0  0  0  0  0  0
  -26.4220  -31.3700   24.7470 C   0  0  1  0  0  0  0  0  0  0  0  0
  -25.4120  -31.0360   25.8690 C   0  0  0  0  0  1  0  0  0  0  0  0
  -27.0120  -30.0360   24.2330 C   0  0  0  0  0  1  0  0  0  0  0  0
  -27.5960  -32.1580   25.3770 C   0  0  0  0  0  1  0  0  0  0  0  0
  1  6  1  0
  2  3  1  0
  4  5  1  0
  4  6  2  0
  5  2  2  0
  6  7  1  0
  7  3  2  0
  7  8  1  0
  9  5  1  0
 10 16  1  0
 10 18  1  0
 11 16  1  0
 12 13  1  0
 12 11  1  0
 14 13  1  0
 14 23  1  0
 14 15  1  0
 16 15  1  0
 17 10  2  0
 18  9  1  0
 18 19  1  0
 20 21  2  0
 21 40  1  0
 22 21  1  0
 22 25  1  0
 23 24  1  0
 23 20  1  0
 24 22  2  0
 25 26  1  0
 26 27  2  0
 28 31  1  0
 28 27  1  0
 29 28  2  0
 30 29  1  0
 30 25  2  0
 31 32  1  0
 32 37  2  0
 32 33  1  0
 33 34  2  0
 34 35  1  0
 35 39  1  0
 36 35  2  0
 37 36  1  0
 38 37  1  0
 40 41  1  0
 41 44  1  0
 41 43  1  0
 42 40  2  0
 45 46  1  0
 45 20  1  0
 47 45  1  0
 48 52  1  0
 48 49  1  0
 49  1  1  0
 49 51  1  0
 50 48  2  0
 53 54  1  0
 53 52  1  0
 54 56  1  0
 55 66  2  0
 56 61  1  0
 57 65  1  0
 57 67  1  0
 58 64  1  0
 58 60  1  0
 59 65  1  0
 60 59  1  0
 61 60  2  0
 62 63  1  0
 62 56  2  0
 63 58  2  0
 64 57  1  0
 65 55  1  0
 67 69  2  0
 68 67  1  0
 70 68  1  0
 71 80  2  0
 71 76  1  0
 72 68  1  0
 72 76  1  0
 73 72  1  0
 74 75  1  0
 74 73  1  0
 75 71  1  0
 76 77  2  0
 77 78  1  0
 79 78  2  0
 80 79  1  0
 81 55  1  0
 81 82  1  0
 81 91  1  0
 82 85  1  0
 83 87  1  0
 83 82  1  0
 84 83  2  0
 87 86  1  0
 89 87  1  0
 89 90  1  0
 89 88  1  0
 91 94  1  1
 91 92  1  0
 93 91  1  0
M  ISO  4  10 100  18 100  53 101  54 101
M  END
>  <TORSDO>  (78) 
F 21

>  <SCORE>  (78) 
-11.294

>  <name>  (78) 
77

>  <ligand_id>  (78) 
77

>  <original_smiles>  (78) 
[H]c1c([H])c([H])c2c(c1[H])C([H])([H])C([H])([H])C([H])([H])C2([H])N([H])C(=O)C1([H])N(C(=O)C([H])(N([H])C(=O)C([H])(N([H])C([H])([H])[H])C([H])([H])[H])C(C([H])([H])[H])(C([H])([H])[H])C([H])([H])[H])C([H])([H])c2c([H])c(OC([H])([H])C([H])([H])C(=O)N([H])C([H])([H])c3c([H])c(C([H])([H])N([H])C(=O)N4C([H])([H])C([H])([H])C([H])([H])C([H])(n5nc(-c6c([H])c([H])c(Oc7c([H])c([H])c(F)c([H])c7F)c([H])c6[H])c(C(=O)N([H])[H])c5N([H])[H])C4([H])[H])c([H])c([H])c3F)c([H])c([H])c2C1([H])[H]

>  <smiles>  (78) 
[H]c1c([H])c([H])c2c(c1[H])C([H])([H])C([H])([H])C([H])([H])C2([H])N([H])C(=O)C1([H])N(C(=O)C([H])(N([H])C(=O)C([H])(N([H])C([H])([H])[H])C([H])([H])[H])C(C([H])([H])[H])(C([H])([H])[H])C([H])([H])[H])C([H])([H])c2c([H])c(OC([H])([H])C([H])([H])C(=O)N([H])C([H])([H])c3c([H])c(C([H])([H])N([H])C(=O)N4C([H])([H])C([H])([H])C([H])([H])C([H])(n5nc(-c6c([H])c([H])c(Oc7c([H])c([H])c(F)c([H])c7F)c([H])c6[H])c(C(=O)N([H])[H])c5N([H])[H])C4([H])[H])c([H])c([H])c3F)c([H])c([H])c2C1([H])[H]

$$$$
78:0:0
     RDKit          3D

 96104  0  0  1  0  0  0  0  0999 V2000
  -31.8670  -21.0310   21.6420 C   0  0  0  0  0  0  0  0  0  0  0  0
  -32.9210  -21.2790   22.4220 N   0  0  0  0  0  4  0  0  0  0  0  0
  -31.2260  -22.0680   21.0680 N   0  0  0  0  0  0  0  0  0  0  0  0
  -33.3620  -20.5090   22.9030 H   0  0  0  0  0  0  0  0  0  0  0  0
  -33.2840  -22.2050   22.5730 H   0  0  0  0  0  0  0  0  0  0  0  0
  -30.4840  -21.8260   20.4230 H   0  0  0  0  0  0  0  0  0  0  0  0
  -32.4450  -18.6270   21.5670 C   0  0  0  0  0  3  0  0  0  0  0  0
  -32.1330  -17.2610   21.4220 C   0  0  0  0  0  3  0  0  0  0  0  0
  -29.8180  -17.8420   20.9910 C   0  0  0  0  0  3  0  0  0  0  0  0
  -31.4530  -19.6270   21.4330 C   0  0  0  0  0  0  0  0  0  0  0  0
  -30.1170  -19.2200   21.1470 C   0  0  0  0  0  0  0  0  0  0  0  0
  -30.8160  -16.8480   21.1140 C   0  0  0  0  0  0  0  0  0  0  0  0
  -28.9700  -20.2160   21.0200 C   0  0  0  0  0  1  0  0  0  0  0  0
  -30.9430  -14.5680   20.0950 C   0  0  0  0  0  0  0  0  0  0  0  0
  -30.5480  -12.4290   18.9280 C   0  0  0  0  0  2  0  0  0  0  0  0
  -29.5390  -12.6250   17.7800 C   0  0  0  0  0  2  0  0  0  0  0  0
  -28.0950  -12.4710   18.2950 C   0  0  0  0  0  2  0  0  0  0  0  0
  -27.8250  -13.3120   19.5700 C   0  0  0  0  0  3  0  0  0  0  0  0
  -28.9420  -13.1070   20.6190 C   0  0  0  0  0  2  0  0  0  0  0  0
  -30.2380  -13.4090   19.9820 N   0  0  0  0  0  0  0  0  0  0  0  0
  -31.9590  -14.7830   19.4280 O   0  0  0  0  0  0  0  0  0  0  0  0
  -30.4380  -15.4790   20.9480 N   0  0  0  0  0  0  0  0  0  0  0  0
  -29.5930  -15.1890   21.4140 H   0  0  0  0  0  0  0  0  0  0  0  0
  -25.4790  -13.9050   20.4550 C   0  0  0  0  0  0  0  0  0  0  0  0
  -24.4310  -13.1240   20.8640 C   0  0  0  0  0  0  0  0  0  0  0  0
  -24.8780  -11.7720   20.7490 C   0  0  0  0  0  0  0  0  0  0  0  0
  -26.5010  -13.0280   20.1230 N   0  0  0  0  0  0  0  0  0  0  0  0
  -26.1440  -11.7380   20.3530 N   0  0  0  0  0  0  0  0  0  0  0  0
  -24.1560  -10.5070   20.9360 C   0  0  0  0  0  0  0  0  0  0  0  0
  -24.5790   -9.5490   21.8840 C   0  0  0  0  0  3  0  0  0  0  0  0
  -23.8580   -8.3480   22.0600 C   0  0  0  0  0  3  0  0  0  0  0  0
  -22.6990   -8.0960   21.2870 C   0  0  0  0  0  0  0  0  0  0  0  0
  -22.2960   -9.0430   20.3290 C   0  0  0  0  0  3  0  0  0  0  0  0
  -23.0170  -10.2350   20.1510 C   0  0  0  0  0  3  0  0  0  0  0  0
  -21.9510   -6.9460   21.3700 O   0  0  0  0  0  0  0  0  0  0  0  0
  -21.7990   -6.2710   22.5550 C   0  0  0  0  0  0  0  0  0  0  0  0
  -21.1970   -6.8710   23.6840 C   0  0  0  0  0  3  0  0  0  0  0  0
  -20.9980   -6.1200   24.8580 C   0  0  0  0  0  3  0  0  0  0  0  0
  -21.3900   -4.7680   24.9060 C   0  0  0  0  0  0  0  0  0  0  0  0
  -21.9830   -4.1670   23.7820 C   0  0  0  0  0  3  0  0  0  0  0  0
  -22.1840   -4.9170   22.6090 C   0  0  0  0  0  0  0  0  0  0  0  0
  -22.7370   -4.3270   21.5220 F   0  0  0  0  0  0  0  0  0  0  0  0
  -21.1920   -4.0440   26.0310 F   0  0  0  0  0  0  0  0  0  0  0  0
  -23.0590  -13.5970   21.2490 C   0  0  0  0  0  0  0  0  0  0  0  0
  -22.3890  -12.8760   22.1410 N   0  0  0  0  0  0  0  0  0  0  0  0
  -22.5920  -14.6410   20.7940 O   0  0  0  0  0  0  0  0  0  0  0  0
  -22.7810  -12.0310   22.5310 H   0  0  0  0  0  0  0  0  0  0  0  0
  -21.4710  -13.1730   22.4400 H   0  0  0  0  0  0  0  0  0  0  0  0
  -25.6420  -15.2800   20.3210 N   0  0  0  0  0  0  0  0  0  0  0  0
  -24.8870  -15.9330   20.5010 H   0  0  0  0  0  0  0  0  0  0  0  0
  -26.4700  -15.7250   19.9440 H   0  0  0  0  0  0  0  0  0  0  0  0
  -31.5720  -23.5020   21.1780 C   0  0  0  0  0  2  0  0  0  0  0  0
  -30.3310  -24.3750   21.2390 C   0  0  0  0  0  3  0  0  0  0  0  0
  -30.2140  -25.5660   20.6200 C   0  0  0  0  0  3  0  0  0  0  0  0
  -29.0290  -26.5070   20.7600 C   0  0  0  0  0  2  0  0  0  0  0  0
  -28.4830  -26.8920   19.4960 O   0  0  0  0  0  0  0  0  0  0  0  0
  -24.6450  -31.6830   23.1170 C   0  0  0  0  0  0  0  0  0  0  0  0
  -27.3230  -27.6260   19.5970 C   0  0  0  0  0  0  0  0  0  0  0  0
  -23.4300  -30.4100   21.3750 C   0  0  0  0  0  3  0  0  0  0  0  0
  -24.8870  -29.0440   19.7860 C   0  0  0  0  0  0  0  0  0  0  0  0
  -25.9350  -30.8540   21.1550 C   0  0  0  0  0  2  0  0  0  0  0  0
  -26.0410  -29.5470   20.4020 C   0  0  0  0  0  0  0  0  0  0  0  0
  -27.2590  -28.8420   20.3140 C   0  0  0  0  0  3  0  0  0  0  0  0
  -26.1600  -27.1400   18.9650 C   0  0  0  0  0  3  0  0  0  0  0  0
  -24.9390  -27.8360   19.0660 C   0  0  0  0  0  3  0  0  0  0  0  0
  -23.6240  -29.8630   19.9350 C   0  0  0  0  0  2  0  0  0  0  0  0
  -24.6890  -30.9920   21.9430 N   0  0  0  0  0  0  0  0  0  0  0  0
  -23.5720  -31.8780   23.7050 O   0  0  0  0  0  0  0  0  0  0  0  0
  -22.8240  -29.2910   22.2530 C   0  0  0  0  0  0  0  0  0  0  0  0
  -21.5030  -29.0840   22.1320 N   0  0  0  0  0  0  0  0  0  0  0  0
  -23.5380  -28.6150   22.9980 O   0  0  0  0  0  0  0  0  0  0  0  0
  -20.9850  -29.6840   21.5040 H   0  0  0  0  0  0  0  0  0  0  0  0
  -18.1720  -27.7660   22.5850 C   0  0  0  0  0  0  0  0  0  0  0  0
  -20.7280  -28.0620   22.8330 C   0  0  0  0  0  3  0  0  0  0  0  0
  -20.8520  -26.6920   22.1250 C   0  0  0  0  0  2  0  0  0  0  0  0
  -19.7370  -26.4350   21.1080 C   0  0  0  0  0  2  0  0  0  0  0  0
  -18.3660  -26.4870   21.7880 C   0  0  0  0  0  2  0  0  0  0  0  0
  -19.2800  -28.5120   23.0620 C   0  0  0  0  0  0  0  0  0  0  0  0
  -19.0440  -29.7120   23.7700 C   0  0  0  0  0  3  0  0  0  0  0  0
  -17.7320  -30.1630   24.0030 C   0  0  0  0  0  3  0  0  0  0  0  0
  -16.6380  -29.4120   23.5410 C   0  0  0  0  0  3  0  0  0  0  0  0
  -16.8590  -28.2140   22.8370 C   0  0  0  0  0  3  0  0  0  0  0  0
  -25.9340  -32.2830   23.7630 C   0  0  0  0  0  3  0  0  0  0  0  0
  -26.4570  -31.4500   24.9970 C   0  0  1  0  0  0  0  0  0  0  0  0
  -25.3680  -31.1590   26.0550 C   0  0  0  0  0  1  0  0  0  0  0  0
  -27.0370  -30.0930   24.5310 C   0  0  0  0  0  1  0  0  0  0  0  0
  -27.6120  -32.2100   25.6920 C   0  0  0  0  0  1  0  0  0  0  0  0
  -25.6290  -33.6630   24.1580 N   0  0  0  0  0  0  0  0  0  0  0  0
  -25.9760  -34.7490   23.4520 C   0  0  0  0  0  0  0  0  0  0  0  0
  -26.6560  -34.6910   22.4240 O   0  0  0  0  0  0  0  0  0  0  0  0
  -25.0240  -33.7820   24.9580 H   0  0  0  0  0  0  0  0  0  0  0  0
  -24.2570  -36.5630   23.1660 C   0  0  0  0  0  1  0  0  0  0  0  0
  -25.4890  -36.1160   23.9690 C   0  0  0  0  0  3  0  0  0  0  0  0
  -27.6100  -36.9610   24.8740 C   0  0  0  0  0  1  0  0  0  0  0  0
  -26.5280  -37.1680   23.9160 N   0  0  0  0  0  0  0  0  0  0  0  0
  -26.1220  -38.0830   24.0890 H   0  0  0  0  0  0  0  0  0  0  0  0
  1  2  2  0
  2  5  1  0
  2  4  1  0
  3 52  1  0
  3  1  1  0
  6  3  1  0
  8  7  2  0
  9 12  2  0
  9 11  1  0
 10  7  1  0
 10  1  1  0
 11 10  2  0
 12  8  1  0
 13 11  1  0
 14 22  1  0
 15 20  1  0
 16 17  1  0
 16 15  1  0
 18 17  1  0
 18 27  1  0
 18 19  1  0
 20 14  1  0
 20 19  1  0
 21 14  2  0
 22 12  1  0
 22 23  1  0
 24 25  2  0
 25 44  1  0
 26 25  1  0
 26 29  1  0
 27 28  1  0
 27 24  1  0
 28 26  2  0
 29 30  1  0
 30 31  2  0
 32 35  1  0
 32 31  1  0
 33 32  2  0
 34 33  1  0
 34 29  2  0
 35 36  1  0
 36 41  2  0
 36 37  1  0
 37 38  2  0
 38 39  1  0
 39 43  1  0
 40 39  2  0
 41 40  1  0
 42 41  1  0
 44 45  1  0
 45 48  1  0
 45 47  1  0
 46 44  2  0
 49 24  1  0
 49 50  1  0
 51 49  1  0
 52 53  1  0
 54 55  1  0
 54 53  2  0
 56 58  1  0
 56 55  1  0
 57 68  2  0
 58 63  1  0
 59 67  1  0
 59 69  1  0
 60 66  1  0
 60 62  1  0
 61 67  1  0
 62 61  1  0
 63 62  2  0
 64 65  1  0
 64 58  2  0
 65 60  2  0
 66 59  1  0
 67 57  1  0
 69 71  2  0
 70 69  1  0
 72 70  1  0
 73 82  2  0
 73 78  1  0
 74 70  1  0
 74 78  1  0
 75 74  1  0
 76 77  1  0
 76 75  1  0
 77 73  1  0
 78 79  2  0
 79 80  1  0
 81 80  2  0
 82 81  1  0
 83 57  1  0
 83 88  1  0
 83 84  1  0
 84 87  1  1
 84 85  1  0
 86 84  1  0
 88 91  1  0
 89 93  1  0
 89 88  1  0
 90 89  2  0
 93 92  1  0
 95 93  1  0
 95 96  1  0
 95 94  1  0
M  ISO  4  14 100  22 100  55 101  56 101
M  END
>  <TORSDO>  (79) 
F 20

>  <SCORE>  (79) 
-12.429

>  <name>  (79) 
78

>  <ligand_id>  (79) 
78

>  <original_smiles>  (79) 
[H]C(=C([H])C([H])([H])[N+]([H])=C(c1c([H])c([H])c(N([H])C(=O)N2C([H])([H])C([H])([H])C([H])([H])C([H])(n3nc(-c4c([H])c([H])c(Oc5c([H])c([H])c(F)c([H])c5F)c([H])c4[H])c(C(=O)N([H])[H])c3N([H])[H])C2([H])[H])c([H])c1C([H])([H])[H])N([H])[H])C([H])([H])Oc1c([H])c([H])c2c(c1[H])C([H])([H])N(C(=O)C([H])(N([H])C(=O)C([H])(N([H])C([H])([H])[H])C([H])([H])[H])C(C([H])([H])[H])(C([H])([H])[H])C([H])([H])[H])C([H])(C(=O)N([H])C1([H])c3c([H])c([H])c([H])c([H])c3C([H])([H])C([H])([H])C1([H])[H])C2([H])[H]

>  <smiles>  (79) 
[H]C(=C([H])C([H])([H])[N+]([H])=C(c1c([H])c([H])c(N([H])C(=O)N2C([H])([H])C([H])([H])C([H])([H])C([H])(n3nc(-c4c([H])c([H])c(Oc5c([H])c([H])c(F)c([H])c5F)c([H])c4[H])c(C(=O)N([H])[H])c3N([H])[H])C2([H])[H])c([H])c1C([H])([H])[H])N([H])[H])C([H])([H])Oc1c([H])c([H])c2c(c1[H])C([H])([H])N(C(=O)C([H])(N([H])C(=O)C([H])(N([H])C([H])([H])[H])C([H])([H])[H])C(C([H])([H])[H])(C([H])([H])[H])C([H])([H])[H])C([H])(C(=O)N([H])C1([H])c3c([H])c([H])c([H])c([H])c3C([H])([H])C([H])([H])C1([H])[H])C2([H])[H]

$$$$
79:0:0
     RDKit          3D

 97105  0  0  1  0  0  0  0  0999 V2000
  -26.9400  -22.0230   20.7080 C   0  0  0  0  0  3  0  0  0  0  0  0
  -27.4270  -24.4760   20.6600 C   0  0  0  0  0  0  0  0  0  0  0  0
  -25.4460  -22.1420   20.5460 C   0  0  0  0  0  1  0  0  0  0  0  0
  -27.7720  -23.0960   20.8020 N   0  0  0  0  0  0  0  0  0  0  0  0
  -27.4480  -20.7710   20.7660 N   0  0  0  0  0  0  0  0  0  0  0  0
  -26.2850  -24.8530   20.3910 O   0  0  0  0  0  0  0  0  0  0  0  0
  -28.7270  -22.8550   21.0040 H   0  0  0  0  0  0  0  0  0  0  0  0
  -26.8060  -19.9920   20.7150 H   0  0  0  0  0  0  0  0  0  0  0  0
  -28.8660  -20.3860   20.8700 C   0  0  0  0  0  2  0  0  0  0  0  0
  -29.4870  -17.9560   17.9250 C   0  0  0  0  0  3  0  0  0  0  0  0
  -30.0580  -16.8700   18.6110 C   0  0  0  0  0  3  0  0  0  0  0  0
  -29.8000  -18.0650   20.7140 C   0  0  0  0  0  3  0  0  0  0  0  0
  -29.0860  -19.1140   18.6210 C   0  0  0  0  0  0  0  0  0  0  0  0
  -29.2390  -19.1680   20.0340 C   0  0  0  0  0  0  0  0  0  0  0  0
  -30.2220  -16.9210   20.0150 C   0  0  0  0  0  0  0  0  0  0  0  0
  -28.5190  -20.2670   17.8090 C   0  0  0  0  0  1  0  0  0  0  0  0
  -31.4210  -14.8130   20.2510 C   0  0  0  0  0  0  0  0  0  0  0  0
  -31.1750  -12.5300   19.3850 C   0  0  0  0  0  2  0  0  0  0  0  0
  -30.2570  -12.5810   18.1470 C   0  0  0  0  0  2  0  0  0  0  0  0
  -28.7740  -12.4950   18.5580 C   0  0  0  0  0  2  0  0  0  0  0  0
  -28.4070  -13.4950   19.6850 C   0  0  0  0  0  3  0  0  0  0  0  0
  -29.4300  -13.3930   20.8400 C   0  0  0  0  0  2  0  0  0  0  0  0
  -30.7800  -13.6190   20.2870 N   0  0  0  0  0  0  0  0  0  0  0  0
  -32.5100  -14.9990   19.6960 O   0  0  0  0  0  0  0  0  0  0  0  0
  -30.7190  -15.8270   20.7660 N   0  0  0  0  0  0  0  0  0  0  0  0
  -30.1170  -15.5500   21.5270 H   0  0  0  0  0  0  0  0  0  0  0  0
  -26.0380  -14.2200   20.4030 C   0  0  0  0  0  0  0  0  0  0  0  0
  -24.9320  -13.4970   20.7630 C   0  0  0  0  0  0  0  0  0  0  0  0
  -25.3240  -12.1250   20.7070 C   0  0  0  0  0  0  0  0  0  0  0  0
  -27.0370  -13.2890   20.1560 N   0  0  0  0  0  0  0  0  0  0  0  0
  -26.6090  -12.0230   20.3940 N   0  0  0  0  0  0  0  0  0  0  0  0
  -24.5380  -10.8970   20.8810 C   0  0  0  0  0  0  0  0  0  0  0  0
  -24.8460   -9.9600   21.8920 C   0  0  0  0  0  3  0  0  0  0  0  0
  -24.0670   -8.7940   22.0490 C   0  0  0  0  0  3  0  0  0  0  0  0
  -22.9640   -8.5580   21.1940 C   0  0  0  0  0  0  0  0  0  0  0  0
  -22.6760   -9.4820   20.1740 C   0  0  0  0  0  3  0  0  0  0  0  0
  -23.4560  -10.6390   20.0170 C   0  0  0  0  0  3  0  0  0  0  0  0
  -22.1650   -7.4420   21.2580 O   0  0  0  0  0  0  0  0  0  0  0  0
  -21.8690   -6.8350   22.4510 C   0  0  0  0  0  0  0  0  0  0  0  0
  -21.2260   -7.5260   23.5010 C   0  0  0  0  0  3  0  0  0  0  0  0
  -20.8800   -6.8450   24.6850 C   0  0  0  0  0  3  0  0  0  0  0  0
  -21.1630   -5.4720   24.8170 C   0  0  0  0  0  0  0  0  0  0  0  0
  -21.7960   -4.7800   23.7700 C   0  0  0  0  0  3  0  0  0  0  0  0
  -22.1460   -5.4590   22.5890 C   0  0  0  0  0  0  0  0  0  0  0  0
  -22.7370   -4.7820   21.5760 F   0  0  0  0  0  0  0  0  0  0  0  0
  -20.8230   -4.8160   25.9510 F   0  0  0  0  0  0  0  0  0  0  0  0
  -23.5610  -14.0360   21.0530 C   0  0  0  0  0  0  0  0  0  0  0  0
  -22.8100  -13.3670   21.9230 N   0  0  0  0  0  0  0  0  0  0  0  0
  -23.1630  -15.0830   20.5450 O   0  0  0  0  0  0  0  0  0  0  0  0
  -23.1430  -12.5200   22.3570 H   0  0  0  0  0  0  0  0  0  0  0  0
  -21.8900  -13.7110   22.1580 H   0  0  0  0  0  0  0  0  0  0  0  0
  -26.2740  -15.5830   20.2500 N   0  0  0  0  0  0  0  0  0  0  0  0
  -25.5470  -16.2790   20.3710 H   0  0  0  0  0  0  0  0  0  0  0  0
  -27.1530  -15.9790   19.9380 H   0  0  0  0  0  0  0  0  0  0  0  0
  -28.6030  -25.4400   20.8580 C   0  0  0  0  0  2  0  0  0  0  0  0
  -28.9470  -26.2710   19.6030 C   0  0  0  0  0  2  0  0  0  0  0  0
  -28.8280  -27.6690   19.8580 O   0  0  0  0  0  0  0  0  0  0  0  0
  -24.7120  -32.1780   23.4750 C   0  0  0  0  0  0  0  0  0  0  0  0
  -27.5780  -28.2410   19.9480 C   0  0  0  0  0  0  0  0  0  0  0  0
  -23.5610  -30.8500   21.7350 C   0  0  0  0  0  3  0  0  0  0  0  0
  -25.0780  -29.5420   20.1550 C   0  0  0  0  0  0  0  0  0  0  0  0
  -26.0500  -31.3960   21.5250 C   0  0  0  0  0  2  0  0  0  0  0  0
  -26.2100  -30.0970   20.7670 C   0  0  0  0  0  0  0  0  0  0  0  0
  -27.4590  -29.4480   20.6690 C   0  0  0  0  0  3  0  0  0  0  0  0
  -26.4290  -27.7030   19.3220 C   0  0  0  0  0  3  0  0  0  0  0  0
  -25.1820  -28.3420   19.4340 C   0  0  0  0  0  3  0  0  0  0  0  0
  -23.7790  -30.3050   20.2990 C   0  0  0  0  0  2  0  0  0  0  0  0
  -24.7940  -31.4870   22.3040 N   0  0  0  0  0  0  0  0  0  0  0  0
  -23.6280  -32.3270   24.0560 O   0  0  0  0  0  0  0  0  0  0  0  0
  -23.0040  -29.7050   22.6120 C   0  0  0  0  0  0  0  0  0  0  0  0
  -21.7040  -29.4080   22.4450 N   0  0  0  0  0  0  0  0  0  0  0  0
  -23.7320  -29.0920   23.3930 O   0  0  0  0  0  0  0  0  0  0  0  0
  -21.1750  -29.9550   21.7840 H   0  0  0  0  0  0  0  0  0  0  0  0
  -18.4670  -27.8380   22.7490 C   0  0  0  0  0  0  0  0  0  0  0  0
  -20.9730  -28.3470   23.1340 C   0  0  0  0  0  3  0  0  0  0  0  0
  -21.2450  -26.9660   22.4960 C   0  0  0  0  0  2  0  0  0  0  0  0
  -20.2210  -26.5940   21.4170 C   0  0  0  0  0  2  0  0  0  0  0  0
  -18.8120  -26.5560   22.0110 C   0  0  0  0  0  2  0  0  0  0  0  0
  -19.4830  -28.6880   23.2590 C   0  0  0  0  0  0  0  0  0  0  0  0
  -19.1120  -29.8890   23.9010 C   0  0  0  0  0  3  0  0  0  0  0  0
  -17.7560  -30.2410   24.0420 C   0  0  0  0  0  3  0  0  0  0  0  0
  -16.7540  -29.3870   23.5540 C   0  0  0  0  0  3  0  0  0  0  0  0
  -17.1110  -28.1860   22.9130 C   0  0  0  0  0  3  0  0  0  0  0  0
  -25.9700  -32.8340   24.1280 C   0  0  0  0  0  3  0  0  0  0  0  0
  -26.4790  -32.0670   25.4100 C   0  0  1  0  0  0  0  0  0  0  0  0
  -25.3680  -31.7780   26.4470 C   0  0  0  0  0  1  0  0  0  0  0  0
  -27.1190  -30.7160   25.0170 C   0  0  0  0  0  1  0  0  0  0  0  0
  -27.5860  -32.8910   26.1110 C   0  0  0  0  0  1  0  0  0  0  0  0
  -25.6250  -34.2230   24.4550 N   0  0  0  0  0  0  0  0  0  0  0  0
  -25.9650  -35.2860   23.7130 C   0  0  0  0  0  0  0  0  0  0  0  0
  -26.6740  -35.2010   22.7070 O   0  0  0  0  0  0  0  0  0  0  0  0
  -24.9990  -34.3630   25.2360 H   0  0  0  0  0  0  0  0  0  0  0  0
  -24.2210  -37.0510   23.2970 C   0  0  0  0  0  1  0  0  0  0  0  0
  -25.4330  -36.6630   24.1580 C   0  0  0  0  0  3  0  0  0  0  0  0
  -27.5140  -37.5750   25.0890 C   0  0  0  0  0  1  0  0  0  0  0  0
  -26.4520  -37.7350   24.0990 N   0  0  0  0  0  0  0  0  0  0  0  0
  -26.0260  -38.6470   24.2350 H   0  0  0  0  0  0  0  0  0  0  0  0
  1  3  1  0
  1  5  1  0
  1  4  1  0
  2  4  1  0
  2 55  1  0
  4  7  1  0
  5  9  1  0
  6  2  2  0
  8  5  1  0
 10 11  2  0
 10 13  1  0
 11 15  1  0
 13 14  2  0
 14 12  1  0
 14  9  1  0
 15 12  2  0
 15 25  1  0
 16 13  1  0
 17 23  1  0
 17 25  1  0
 18 23  1  0
 19 20  1  0
 19 18  1  0
 21 20  1  0
 21 30  1  0
 21 22  1  0
 23 22  1  0
 24 17  2  0
 25 26  1  0
 27 28  2  0
 28 47  1  0
 29 28  1  0
 29 32  1  0
 30 31  1  0
 30 27  1  0
 31 29  2  0
 32 33  1  0
 33 34  2  0
 35 38  1  0
 35 34  1  0
 36 35  2  0
 37 36  1  0
 37 32  2  0
 38 39  1  0
 39 44  2  0
 39 40  1  0
 40 41  2  0
 41 42  1  0
 42 46  1  0
 43 42  2  0
 44 43  1  0
 45 44  1  0
 47 48  1  0
 48 51  1  0
 48 50  1  0
 49 47  2  0
 52 53  1  0
 52 27  1  0
 54 52  1  0
 56 57  1  0
 56 55  1  0
 57 59  1  0
 58 69  2  0
 59 64  1  0
 60 68  1  0
 60 70  1  0
 61 67  1  0
 61 63  1  0
 62 68  1  0
 63 62  1  0
 64 63  2  0
 65 66  1  0
 65 59  2  0
 66 61  2  0
 67 60  1  0
 68 58  1  0
 70 72  2  0
 71 70  1  0
 73 71  1  0
 74 83  2  0
 74 79  1  0
 75 71  1  0
 75 79  1  0
 76 75  1  0
 77 78  1  0
 77 76  1  0
 78 74  1  0
 79 80  2  0
 80 81  1  0
 82 81  2  0
 83 82  1  0
 84 58  1  0
 84 89  1  0
 84 85  1  0
 85 88  1  1
 85 86  1  0
 87 85  1  0
 89 92  1  0
 90 94  1  0
 90 89  1  0
 91 90  2  0
 94 93  1  0
 96 94  1  0
 96 97  1  0
 96 95  1  0
M  ISO  4  17 100  25 100  56 101  57 101
M  END
>  <TORSDO>  (80) 
F 20

>  <SCORE>  (80) 
-10.159

>  <name>  (80) 
79

>  <ligand_id>  (80) 
79

>  <original_smiles>  (80) 
[H]c1c([H])c([H])c2c(c1[H])C([H])([H])C([H])([H])C([H])([H])C2([H])N([H])C(=O)C1([H])N(C(=O)C([H])(N([H])C(=O)C([H])(N([H])C([H])([H])[H])C([H])([H])[H])C(C([H])([H])[H])(C([H])([H])[H])C([H])([H])[H])C([H])([H])c2c([H])c(OC([H])([H])C([H])([H])C(=O)N([H])C(=[N+]([H])C([H])([H])c3c([H])c(N([H])C(=O)N4C([H])([H])C([H])([H])C([H])([H])C([H])(n5nc(-c6c([H])c([H])c(Oc7c([H])c([H])c(F)c([H])c7F)c([H])c6[H])c(C(=O)N([H])[H])c5N([H])[H])C4([H])[H])c([H])c([H])c3C([H])([H])[H])C([H])([H])[H])c([H])c([H])c2C1([H])[H]

>  <smiles>  (80) 
[H]c1c([H])c([H])c2c(c1[H])C([H])([H])C([H])([H])C([H])([H])C2([H])N([H])C(=O)C1([H])N(C(=O)C([H])(N([H])C(=O)C([H])(N([H])C([H])([H])[H])C([H])([H])[H])C(C([H])([H])[H])(C([H])([H])[H])C([H])([H])[H])C([H])([H])c2c([H])c(OC([H])([H])C([H])([H])C(=O)N([H])C(=[N+]([H])C([H])([H])c3c([H])c(N([H])C(=O)N4C([H])([H])C([H])([H])C([H])([H])C([H])(n5nc(-c6c([H])c([H])c(Oc7c([H])c([H])c(F)c([H])c7F)c([H])c6[H])c(C(=O)N([H])[H])c5N([H])[H])C4([H])[H])c([H])c([H])c3C([H])([H])[H])C([H])([H])[H])c([H])c([H])c2C1([H])[H]

$$$$
80:0:0
     RDKit          3D

 94102  0  0  1  0  0  0  0  0999 V2000
  -28.7280  -20.5120   20.6850 C   0  0  0  0  0  0  0  0  0  0  0  0
  -29.2180  -21.7590   20.5670 N   0  0  0  0  0  0  0  0  0  0  0  0
  -27.7350  -20.2630   21.3720 O   0  0  0  0  0  0  0  0  0  0  0  0
  -30.0650  -21.8580   20.0250 H   0  0  0  0  0  0  0  0  0  0  0  0
  -30.7000  -18.4430   18.0810 C   0  0  0  0  0  3  0  0  0  0  0  0
  -30.7530  -17.1910   18.7110 C   0  0  0  0  0  3  0  0  0  0  0  0
  -29.5240  -18.1010   20.5950 C   0  0  0  0  0  3  0  0  0  0  0  0
  -29.4710  -19.3880   19.9790 C   0  0  0  0  0  0  0  0  0  0  0  0
  -30.0490  -19.5380   18.6820 C   0  0  0  0  0  0  0  0  0  0  0  0
  -30.1600  -16.9910   19.9790 C   0  0  0  0  0  0  0  0  0  0  0  0
  -29.9810  -20.8230   17.8630 C   0  0  0  0  0  1  0  0  0  0  0  0
  -30.8660  -14.6140   20.2320 C   0  0  0  0  0  0  0  0  0  0  0  0
  -30.5500  -12.4440   19.1240 C   0  0  0  0  0  2  0  0  0  0  0  0
  -29.5970  -12.6730   17.9330 C   0  0  0  0  0  2  0  0  0  0  0  0
  -28.1280  -12.5360   18.3820 C   0  0  0  0  0  2  0  0  0  0  0  0
  -27.8110  -13.3630   19.6570 C   0  0  0  0  0  3  0  0  0  0  0  0
  -28.8850  -13.1400   20.7490 C   0  0  0  0  0  2  0  0  0  0  0  0
  -30.2000  -13.4290   20.1610 N   0  0  0  0  0  0  0  0  0  0  0  0
  -32.0250  -14.7480   19.8280 O   0  0  0  0  0  0  0  0  0  0  0  0
  -30.1230  -15.6870   20.5900 N   0  0  0  0  0  0  0  0  0  0  0  0
  -29.2920  -15.4770   21.1230 H   0  0  0  0  0  0  0  0  0  0  0  0
  -25.4260  -13.9680   20.4050 C   0  0  0  0  0  0  0  0  0  0  0  0
  -24.3630  -13.1950   20.7890 C   0  0  0  0  0  0  0  0  0  0  0  0
  -24.8240  -11.8440   20.7500 C   0  0  0  0  0  0  0  0  0  0  0  0
  -26.4670  -13.0870   20.1580 N   0  0  0  0  0  0  0  0  0  0  0  0
  -26.1100  -11.8040   20.4240 N   0  0  0  0  0  0  0  0  0  0  0  0
  -24.1020  -10.5820   20.9510 C   0  0  0  0  0  0  0  0  0  0  0  0
  -24.5300   -9.6270   21.9000 C   0  0  0  0  0  3  0  0  0  0  0  0
  -23.8090   -8.4290   22.0870 C   0  0  0  0  0  3  0  0  0  0  0  0
  -22.6440   -8.1750   21.3240 C   0  0  0  0  0  0  0  0  0  0  0  0
  -22.2340   -9.1180   20.3640 C   0  0  0  0  0  3  0  0  0  0  0  0
  -22.9570  -10.3090   20.1760 C   0  0  0  0  0  3  0  0  0  0  0  0
  -21.8940   -7.0280   21.4180 O   0  0  0  0  0  0  0  0  0  0  0  0
  -21.8180   -6.3120   22.5870 C   0  0  0  0  0  0  0  0  0  0  0  0
  -21.3130   -6.8810   23.7760 C   0  0  0  0  0  3  0  0  0  0  0  0
  -21.1870   -6.0890   24.9350 C   0  0  0  0  0  3  0  0  0  0  0  0
  -21.5550   -4.7310   24.9050 C   0  0  0  0  0  0  0  0  0  0  0  0
  -22.0520   -4.1620   23.7210 C   0  0  0  0  0  3  0  0  0  0  0  0
  -22.1810   -4.9510   22.5630 C   0  0  0  0  0  0  0  0  0  0  0  0
  -22.6410   -4.3930   21.4180 F   0  0  0  0  0  0  0  0  0  0  0  0
  -21.4260   -3.9680   26.0170 F   0  0  0  0  0  0  0  0  0  0  0  0
  -22.9710  -13.6710   21.0820 C   0  0  0  0  0  0  0  0  0  0  0  0
  -22.2540  -12.9700   21.9540 N   0  0  0  0  0  0  0  0  0  0  0  0
  -22.5260  -14.7000   20.5750 O   0  0  0  0  0  0  0  0  0  0  0  0
  -22.6290  -12.1380   22.3860 H   0  0  0  0  0  0  0  0  0  0  0  0
  -21.3210  -13.2700   22.1940 H   0  0  0  0  0  0  0  0  0  0  0  0
  -25.5880  -15.3390   20.2260 N   0  0  0  0  0  0  0  0  0  0  0  0
  -24.8220  -15.9910   20.3430 H   0  0  0  0  0  0  0  0  0  0  0  0
  -26.4330  -15.7790   19.8810 H   0  0  0  0  0  0  0  0  0  0  0  0
  -28.6140  -22.9870   21.1110 C   0  0  0  0  0  2  0  0  0  0  0  0
  -30.5340  -24.4550   20.2340 C   0  0  0  0  0  1  0  0  0  0  0  0
  -29.0080  -24.2870   20.3470 C   0  0  0  0  0  3  0  0  0  0  0  0
  -28.3630  -25.5350   21.0090 C   0  0  0  0  0  2  0  0  0  0  0  0
  -28.5260  -26.7570   20.2600 O   0  0  0  0  0  0  0  0  0  0  0  0
  -24.5750  -31.8970   23.2100 C   0  0  0  0  0  0  0  0  0  0  0  0
  -27.3820  -27.5180   20.1930 C   0  0  0  0  0  0  0  0  0  0  0  0
  -23.4510  -30.4980   21.5090 C   0  0  0  0  0  3  0  0  0  0  0  0
  -24.9770  -28.9980   20.1200 C   0  0  0  0  0  0  0  0  0  0  0  0
  -25.9790  -30.8910   21.4110 C   0  0  0  0  0  2  0  0  0  0  0  0
  -26.1060  -29.5290   20.7580 C   0  0  0  0  0  0  0  0  0  0  0  0
  -27.3160  -28.7980   20.7900 C   0  0  0  0  0  3  0  0  0  0  0  0
  -26.2430  -27.0050   19.5380 C   0  0  0  0  0  3  0  0  0  0  0  0
  -25.0420  -27.7360   19.5040 C   0  0  0  0  0  3  0  0  0  0  0  0
  -23.7210  -29.8390   20.1300 C   0  0  0  0  0  2  0  0  0  0  0  0
  -24.6840  -31.1100   22.1020 N   0  0  0  0  0  0  0  0  0  0  0  0
  -23.4700  -32.1490   23.7110 O   0  0  0  0  0  0  0  0  0  0  0  0
  -22.7770  -29.4580   22.4330 C   0  0  0  0  0  0  0  0  0  0  0  0
  -21.4560  -29.2780   22.2670 N   0  0  0  0  0  0  0  0  0  0  0  0
  -23.4390  -28.8180   23.2530 O   0  0  0  0  0  0  0  0  0  0  0  0
  -20.9850  -29.8480   21.5790 H   0  0  0  0  0  0  0  0  0  0  0  0
  -18.0620  -28.1120   22.6900 C   0  0  0  0  0  0  0  0  0  0  0  0
  -20.6190  -28.3250   22.9970 C   0  0  0  0  0  3  0  0  0  0  0  0
  -20.7100  -26.9140   22.3740 C   0  0  0  0  0  2  0  0  0  0  0  0
  -19.6140  -26.6400   21.3390 C   0  0  0  0  0  2  0  0  0  0  0  0
  -18.2280  -26.7820   21.9730 C   0  0  0  0  0  2  0  0  0  0  0  0
  -19.1850  -28.8440   23.1570 C   0  0  0  0  0  0  0  0  0  0  0  0
  -18.9770  -30.0900   23.7870 C   0  0  0  0  0  3  0  0  0  0  0  0
  -17.6780  -30.6040   23.9560 C   0  0  0  0  0  3  0  0  0  0  0  0
  -16.5680  -29.8680   23.5050 C   0  0  0  0  0  3  0  0  0  0  0  0
  -16.7610  -28.6240   22.8780 C   0  0  0  0  0  3  0  0  0  0  0  0
  -25.8280  -32.5370   23.8860 C   0  0  0  0  0  3  0  0  0  0  0  0
  -26.2860  -31.7760   25.1900 C   0  0  1  0  0  0  0  0  0  0  0  0
  -25.1450  -31.5390   26.2050 C   0  0  0  0  0  1  0  0  0  0  0  0
  -26.8920  -30.3990   24.8320 C   0  0  0  0  0  1  0  0  0  0  0  0
  -27.4010  -32.5790   25.9000 C   0  0  0  0  0  1  0  0  0  0  0  0
  -25.5010  -33.9360   24.1890 N   0  0  0  0  0  0  0  0  0  0  0  0
  -25.8690  -34.9820   23.4380 C   0  0  0  0  0  0  0  0  0  0  0  0
  -26.5880  -34.8720   22.4410 O   0  0  0  0  0  0  0  0  0  0  0  0
  -24.8660  -34.0960   24.9580 H   0  0  0  0  0  0  0  0  0  0  0  0
  -24.1650  -36.7730   22.9700 C   0  0  0  0  0  1  0  0  0  0  0  0
  -25.3550  -36.3730   23.8580 C   0  0  0  0  0  3  0  0  0  0  0  0
  -27.4320  -37.2650   24.8180 C   0  0  0  0  0  1  0  0  0  0  0  0
  -26.3940  -37.4260   23.8020 N   0  0  0  0  0  0  0  0  0  0  0  0
  -25.9800  -38.3470   23.9150 H   0  0  0  0  0  0  0  0  0  0  0  0
  1  3  2  0
  2  1  1  0
  2 50  1  0
  4  2  1  0
  5  9  2  0
  5  6  1  0
  6 10  2  0
  8  7  2  0
  8  1  1  0
  9  8  1  0
 10 20  1  0
 10  7  1  0
 11  9  1  0
 12 20  1  0
 13 18  1  0
 14 15  1  0
 14 13  1  0
 16 15  1  0
 16 25  1  0
 16 17  1  0
 18 12  1  0
 18 17  1  0
 19 12  2  0
 20 21  1  0
 22 23  2  0
 23 42  1  0
 24 23  1  0
 24 27  1  0
 25 22  1  0
 25 26  1  0
 26 24  2  0
 27 28  1  0
 28 29  2  0
 30 33  1  0
 30 29  1  0
 31 30  2  0
 32 31  1  0
 32 27  2  0
 33 34  1  0
 34 35  1  0
 35 36  2  0
 37 36  1  0
 37 41  1  0
 38 37  2  0
 39 34  2  0
 39 38  1  0
 40 39  1  0
 42 43  1  0
 43 46  1  0
 43 45  1  0
 44 42  2  0
 47 48  1  0
 47 22  1  0
 49 47  1  0
 52 51  1  0
 52 53  1  0
 52 50  1  0
 54 53  1  0
 55 66  2  0
 56 54  1  0
 56 61  1  0
 57 65  1  0
 57 67  1  0
 58 64  1  0
 58 60  1  0
 59 65  1  0
 60 61  2  0
 60 59  1  0
 62 56  2  0
 63 62  1  0
 63 58  2  0
 64 57  1  0
 65 55  1  0
 67 69  2  0
 68 67  1  0
 70 68  1  0
 71 80  2  0
 71 76  1  0
 72 68  1  0
 72 76  1  0
 73 72  1  0
 74 75  1  0
 74 73  1  0
 75 71  1  0
 76 77  2  0
 77 78  1  0
 79 78  2  0
 80 79  1  0
 81 55  1  0
 81 86  1  0
 81 82  1  0
 82 85  1  1
 82 83  1  0
 84 82  1  0
 86 89  1  0
 87 91  1  0
 87 86  1  0
 88 87  2  0
 91 90  1  0
 93 91  1  0
 93 94  1  0
 93 92  1  0
M  ISO  4  12 100  20 100  53 101  54 101
M  END
>  <TORSDO>  (81) 
F 20

>  <SCORE>  (81) 
-13.319

>  <name>  (81) 
80

>  <ligand_id>  (81) 
80

>  <original_smiles>  (81) 
[H]c1c([H])c([H])c2c(c1[H])C([H])([H])C([H])([H])C([H])([H])C2([H])N([H])C(=O)C1([H])N(C(=O)C([H])(N([H])C(=O)C([H])(N([H])C([H])([H])[H])C([H])([H])[H])C(C([H])([H])[H])(C([H])([H])[H])C([H])([H])[H])C([H])([H])c2c([H])c(OC([H])([H])C([H])(C([H])([H])[H])C([H])([H])N([H])C(=O)c3c([H])c(N([H])C(=O)N4C([H])([H])C([H])([H])C([H])([H])C([H])(n5nc(-c6c([H])c([H])c(Oc7c([H])c([H])c(F)c([H])c7F)c([H])c6[H])c(C(=O)N([H])[H])c5N([H])[H])C4([H])[H])c([H])c([H])c3C([H])([H])[H])c([H])c([H])c2C1([H])[H]

>  <smiles>  (81) 
[H]c1c([H])c([H])c2c(c1[H])C([H])([H])C([H])([H])C([H])([H])C2([H])N([H])C(=O)C1([H])N(C(=O)C([H])(N([H])C(=O)C([H])(N([H])C([H])([H])[H])C([H])([H])[H])C(C([H])([H])[H])(C([H])([H])[H])C([H])([H])[H])C([H])([H])c2c([H])c(OC([H])([H])C([H])(C([H])([H])[H])C([H])([H])N([H])C(=O)c3c([H])c(N([H])C(=O)N4C([H])([H])C([H])([H])C([H])([H])C([H])(n5nc(-c6c([H])c([H])c(Oc7c([H])c([H])c(F)c([H])c7F)c([H])c6[H])c(C(=O)N([H])[H])c5N([H])[H])C4([H])[H])c([H])c([H])c3C([H])([H])[H])c([H])c([H])c2C1([H])[H]

$$$$
81:0:0
     RDKit          3D

 96105  0  0  1  0  0  0  0  0999 V2000
  -27.8080  -22.3780   21.0820 C   0  0  0  0  0  0  0  0  0  0  0  0
  -27.8570  -23.9040   20.8810 C   0  0  0  0  0  2  0  0  0  0  0  0
  -29.9050  -23.3970   19.4170 C   0  0  0  0  0  2  0  0  0  0  0  0
  -28.9770  -22.2480   18.9470 C   0  0  0  0  0  2  0  0  0  0  0  0
  -29.2200  -24.4220   20.3670 C   0  0  0  0  0  3  0  0  0  0  0  0
  -28.2680  -21.6070   20.0650 N   0  0  0  0  0  0  0  0  0  0  0  0
  -27.2710  -21.9180   22.0930 O   0  0  0  0  0  0  0  0  0  0  0  0
  -27.7380  -20.2430   19.8330 C   0  0  0  0  0  2  0  0  0  0  0  0
  -29.9870  -19.0800   20.3330 C   0  0  0  0  0  3  0  0  0  0  0  0
  -28.7450  -16.5790   20.5850 C   0  0  0  0  0  3  0  0  0  0  0  0
  -28.5820  -19.0090   20.2140 C   0  0  0  0  0  0  0  0  0  0  0  0
  -30.7690  -17.9230   20.5740 C   0  0  0  0  0  0  0  0  0  0  0  0
  -27.9630  -17.7390   20.3780 C   0  0  0  0  0  0  0  0  0  0  0  0
  -30.1530  -16.6430   20.6570 C   0  0  0  0  0  0  0  0  0  0  0  0
  -32.2680  -18.1030   20.7430 C   0  0  0  0  0  1  0  0  0  0  0  0
  -26.4490  -17.5930   20.3580 C   0  0  0  0  0  1  0  0  0  0  0  0
  -31.2500  -14.5030   20.1020 C   0  0  0  0  0  0  0  0  0  0  0  0
  -30.7990  -12.3170   19.0370 C   0  0  0  0  0  2  0  0  0  0  0  0
  -29.8560  -12.4680   17.8300 C   0  0  0  0  0  2  0  0  0  0  0  0
  -28.3870  -12.4020   18.2870 C   0  0  0  0  0  2  0  0  0  0  0  0
  -28.0950  -13.3360   19.4930 C   0  0  0  0  0  3  0  0  0  0  0  0
  -29.1550  -13.1670   20.6030 C   0  0  0  0  0  2  0  0  0  0  0  0
  -30.4790  -13.3830   20.0030 N   0  0  0  0  0  0  0  0  0  0  0  0
  -32.3120  -14.6190   19.4890 O   0  0  0  0  0  0  0  0  0  0  0  0
  -30.8890  -15.4580   20.9820 N   0  0  0  0  0  0  0  0  0  0  0  0
  -31.7450  -15.7320   21.4420 H   0  0  0  0  0  0  0  0  0  0  0  0
  -25.7450  -14.0700   20.2340 C   0  0  0  0  0  0  0  0  0  0  0  0
  -24.6470  -13.3630   20.6390 C   0  0  0  0  0  0  0  0  0  0  0  0
  -25.0340  -11.9880   20.6110 C   0  0  0  0  0  0  0  0  0  0  0  0
  -26.7410  -13.1350   20.0010 N   0  0  0  0  0  0  0  0  0  0  0  0
  -26.3150  -11.8750   20.2800 N   0  0  0  0  0  0  0  0  0  0  0  0
  -24.2420  -10.7710   20.8260 C   0  0  0  0  0  0  0  0  0  0  0  0
  -24.6230   -9.7990   21.7760 C   0  0  0  0  0  3  0  0  0  0  0  0
  -23.8360   -8.6450   21.9770 C   0  0  0  0  0  3  0  0  0  0  0  0
  -22.6510   -8.4560   21.2260 C   0  0  0  0  0  0  0  0  0  0  0  0
  -22.2890   -9.4150   20.2640 C   0  0  0  0  0  3  0  0  0  0  0  0
  -23.0770  -10.5600   20.0610 C   0  0  0  0  0  3  0  0  0  0  0  0
  -21.8370   -7.3550   21.3350 O   0  0  0  0  0  0  0  0  0  0  0  0
  -21.7330   -6.6510   22.5080 C   0  0  0  0  0  0  0  0  0  0  0  0
  -21.3410   -7.2700   23.7160 C   0  0  0  0  0  3  0  0  0  0  0  0
  -21.1770   -6.4960   24.8820 C   0  0  0  0  0  3  0  0  0  0  0  0
  -21.3960   -5.1060   24.8420 C   0  0  0  0  0  0  0  0  0  0  0  0
  -21.7810   -4.4880   23.6390 C   0  0  0  0  0  3  0  0  0  0  0  0
  -21.9460   -5.2590   22.4750 C   0  0  0  0  0  0  0  0  0  0  0  0
  -22.2960   -4.6550   21.3140 F   0  0  0  0  0  0  0  0  0  0  0  0
  -21.2310   -4.3610   25.9590 F   0  0  0  0  0  0  0  0  0  0  0  0
  -23.2870  -13.9210   20.9410 C   0  0  0  0  0  0  0  0  0  0  0  0
  -22.5500  -13.2850   21.8440 N   0  0  0  0  0  0  0  0  0  0  0  0
  -22.8880  -14.9580   20.4120 O   0  0  0  0  0  0  0  0  0  0  0  0
  -22.8840  -12.4460   22.2950 H   0  0  0  0  0  0  0  0  0  0  0  0
  -21.6370  -13.6420   22.0910 H   0  0  0  0  0  0  0  0  0  0  0  0
  -25.9720  -15.4230   20.0210 N   0  0  0  0  0  0  0  0  0  0  0  0
  -25.2400  -16.1140   20.1370 H   0  0  0  0  0  0  0  0  0  0  0  0
  -26.8570  -15.8230   19.7350 H   0  0  0  0  0  0  0  0  0  0  0  0
  -29.1420  -25.8410   19.7340 C   0  0  0  0  0  2  0  0  0  0  0  0
  -28.7720  -26.8840   20.6560 O   0  0  0  0  0  0  0  0  0  0  0  0
  -24.6310  -32.0040   23.3800 C   0  0  0  0  0  0  0  0  0  0  0  0
  -27.5590  -27.5470   20.5530 C   0  0  0  0  0  0  0  0  0  0  0  0
  -23.5560  -30.5330   21.7090 C   0  0  0  0  0  3  0  0  0  0  0  0
  -25.1240  -29.0010   20.4040 C   0  0  0  0  0  0  0  0  0  0  0  0
  -26.0810  -30.9490   21.6430 C   0  0  0  0  0  2  0  0  0  0  0  0
  -26.2340  -29.5640   21.0420 C   0  0  0  0  0  0  0  0  0  0  0  0
  -27.4500  -28.8430   21.1170 C   0  0  0  0  0  3  0  0  0  0  0  0
  -26.4150  -26.9930   19.9310 C   0  0  0  0  0  3  0  0  0  0  0  0
  -25.2100  -27.7140   19.8490 C   0  0  0  0  0  3  0  0  0  0  0  0
  -23.8590  -29.8280   20.3590 C   0  0  0  0  0  2  0  0  0  0  0  0
  -24.7710  -31.1790   22.3030 N   0  0  0  0  0  0  0  0  0  0  0  0
  -23.5130  -32.2590   23.8510 O   0  0  0  0  0  0  0  0  0  0  0  0
  -22.8780  -29.5160   22.6550 C   0  0  0  0  0  0  0  0  0  0  0  0
  -21.5690  -29.2910   22.4530 N   0  0  0  0  0  0  0  0  0  0  0  0
  -23.5280  -28.9320   23.5260 O   0  0  0  0  0  0  0  0  0  0  0  0
  -21.1070  -29.8130   21.7220 H   0  0  0  0  0  0  0  0  0  0  0  0
  -18.2080  -28.0040   22.7730 C   0  0  0  0  0  0  0  0  0  0  0  0
  -20.7350  -28.3480   23.1960 C   0  0  0  0  0  3  0  0  0  0  0  0
  -20.9160  -26.9070   22.6670 C   0  0  0  0  0  2  0  0  0  0  0  0
  -19.8900  -26.5230   21.5950 C   0  0  0  0  0  2  0  0  0  0  0  0
  -18.4670  -26.6420   22.1480 C   0  0  0  0  0  2  0  0  0  0  0  0
  -19.2730  -28.8100   23.2510 C   0  0  0  0  0  0  0  0  0  0  0  0
  -18.9820  -30.0820   23.7900 C   0  0  0  0  0  3  0  0  0  0  0  0
  -17.6550  -30.5480   23.8590 C   0  0  0  0  0  3  0  0  0  0  0  0
  -16.6020  -29.7370   23.3980 C   0  0  0  0  0  3  0  0  0  0  0  0
  -16.8790  -28.4680   22.8610 C   0  0  0  0  0  3  0  0  0  0  0  0
  -25.8630  -32.6820   24.0560 C   0  0  0  0  0  3  0  0  0  0  0  0
  -26.3180  -31.9620   25.3850 C   0  0  1  0  0  0  0  0  0  0  0  0
  -25.1630  -31.7090   26.3810 C   0  0  0  0  0  1  0  0  0  0  0  0
  -26.9740  -30.5980   25.0680 C   0  0  0  0  0  1  0  0  0  0  0  0
  -27.3920  -32.8130   26.1020 C   0  0  0  0  0  1  0  0  0  0  0  0
  -25.5070  -34.0830   24.3200 N   0  0  0  0  0  0  0  0  0  0  0  0
  -25.8520  -35.1140   23.5370 C   0  0  0  0  0  0  0  0  0  0  0  0
  -26.5740  -34.9890   22.5430 O   0  0  0  0  0  0  0  0  0  0  0  0
  -24.8720  -34.2530   25.0850 H   0  0  0  0  0  0  0  0  0  0  0  0
  -24.0960  -36.8430   23.0370 C   0  0  0  0  0  1  0  0  0  0  0  0
  -25.3100  -36.5060   23.9160 C   0  0  0  0  0  3  0  0  0  0  0  0
  -27.3880  -37.4740   24.7950 C   0  0  0  0  0  1  0  0  0  0  0  0
  -26.3210  -37.5800   23.8050 N   0  0  0  0  0  0  0  0  0  0  0  0
  -25.8870  -38.4940   23.9020 H   0  0  0  0  0  0  0  0  0  0  0  0
  1  7  2  0
  2  1  1  0
  3  5  1  0
  4  3  1  0
  4  6  1  0
  5 55  1  0
  5  2  1  0
  6  1  1  0
  8  6  1  0
  8 11  1  0
  9 12  1  0
 10 14  1  0
 11  9  2  0
 11 13  1  0
 12 14  2  0
 12 15  1  0
 13 10  2  0
 14 25  1  0
 16 13  1  0
 17 25  1  0
 18 23  1  0
 19 20  1  0
 19 18  1  0
 21 20  1  0
 21 30  1  0
 21 22  1  0
 23 17  1  0
 23 22  1  0
 24 17  2  0
 25 26  1  0
 27 28  2  0
 28 47  1  0
 29 28  1  0
 29 32  1  0
 30 27  1  0
 30 31  1  0
 31 29  2  0
 32 33  1  0
 33 34  2  0
 35 38  1  0
 35 34  1  0
 36 35  2  0
 37 36  1  0
 37 32  2  0
 38 39  1  0
 39 40  1  0
 40 41  2  0
 42 41  1  0
 42 46  1  0
 43 42  2  0
 44 39  2  0
 44 43  1  0
 45 44  1  0
 47 48  1  0
 48 51  1  0
 48 50  1  0
 49 47  2  0
 52 53  1  0
 52 27  1  0
 54 52  1  0
 55 56  1  0
 57 68  2  0
 58 56  1  0
 58 63  1  0
 59 67  1  0
 59 69  1  0
 60 62  1  0
 61 67  1  0
 62 63  2  0
 62 61  1  0
 64 58  2  0
 65 64  1  0
 65 60  2  0
 66 60  1  0
 66 59  1  0
 67 57  1  0
 69 71  2  0
 70 69  1  0
 72 70  1  0
 73 82  2  0
 73 78  1  0
 74 70  1  0
 74 78  1  0
 75 74  1  0
 76 77  1  0
 76 75  1  0
 77 73  1  0
 78 79  2  0
 79 80  1  0
 81 80  2  0
 82 81  1  0
 83 57  1  0
 83 88  1  0
 83 84  1  0
 84 87  1  1
 84 85  1  0
 86 84  1  0
 88 91  1  0
 89 93  1  0
 89 88  1  0
 90 89  2  0
 93 92  1  0
 95 96  1  0
 95 93  1  0
 95 94  1  0
M  ISO  4  17 100  25 100  55 101  56 101
M  END
>  <TORSDO>  (82) 
F 19

>  <SCORE>  (82) 
-13.777

>  <name>  (82) 
81

>  <ligand_id>  (82) 
81

>  <original_smiles>  (82) 
[H]c1c([H])c([H])c2c(c1[H])C([H])([H])C([H])([H])C([H])([H])C2([H])N([H])C(=O)C1([H])N(C(=O)C([H])(N([H])C(=O)C([H])(N([H])C([H])([H])[H])C([H])([H])[H])C(C([H])([H])[H])(C([H])([H])[H])C([H])([H])[H])C([H])([H])c2c([H])c(OC([H])([H])C3([H])C([H])([H])C(=O)N(C([H])([H])c4c([H])c(C([H])([H])[H])c(N([H])C(=O)N5C([H])([H])C([H])([H])C([H])([H])C([H])(n6nc(-c7c([H])c([H])c(Oc8c([H])c([H])c(F)c([H])c8F)c([H])c7[H])c(C(=O)N([H])[H])c6N([H])[H])C5([H])[H])c([H])c4C([H])([H])[H])C([H])([H])C3([H])[H])c([H])c([H])c2C1([H])[H]

>  <smiles>  (82) 
[H]c1c([H])c([H])c2c(c1[H])C([H])([H])C([H])([H])C([H])([H])C2([H])N([H])C(=O)C1([H])N(C(=O)C([H])(N([H])C(=O)C([H])(N([H])C([H])([H])[H])C([H])([H])[H])C(C([H])([H])[H])(C([H])([H])[H])C([H])([H])[H])C([H])([H])c2c([H])c(OC([H])([H])C3([H])C([H])([H])C(=O)N(C([H])([H])c4c([H])c(C([H])([H])[H])c(N([H])C(=O)N5C([H])([H])C([H])([H])C([H])([H])C([H])(n6nc(-c7c([H])c([H])c(Oc8c([H])c([H])c(F)c([H])c8F)c([H])c7[H])c(C(=O)N([H])[H])c6N([H])[H])C5([H])[H])c([H])c4C([H])([H])[H])C([H])([H])C3([H])[H])c([H])c([H])c2C1([H])[H]

$$$$
82:0:0
     RDKit          3D

 95103  0  0  1  0  0  0  0  0999 V2000
  -28.5950  -19.7090   20.5680 C   0  0  0  0  0  3  0  0  0  0  0  0
  -30.6250  -18.5450   19.1020 C   0  0  0  0  0  3  0  0  0  0  0  0
  -28.8580  -18.2840   20.6430 C   0  0  0  0  0  0  0  0  0  0  0  0
  -30.3700  -19.9910   19.0260 C   0  0  0  0  0  0  0  0  0  0  0  0
  -29.8690  -17.6020   19.8830 C   0  0  0  0  0  0  0  0  0  0  0  0
  -29.3070  -20.6560   19.7630 C   0  0  0  0  0  0  0  0  0  0  0  0
  -27.9870  -17.4620   21.5790 C   0  0  0  0  0  1  0  0  0  0  0  0
  -30.7120  -14.9860   19.4300 C   0  0  0  0  0  0  0  0  0  0  0  0
  -30.4730  -12.6610   18.4430 C   0  0  0  0  0  2  0  0  0  0  0  0
  -29.3530  -12.6680   17.3720 C   0  0  0  0  0  2  0  0  0  0  0  0
  -27.9730  -12.4440   18.0180 C   0  0  0  0  0  2  0  0  0  0  0  0
  -27.7620  -13.3320   19.2720 C   0  0  0  0  0  3  0  0  0  0  0  0
  -28.9780  -13.2800   20.2250 C   0  0  0  0  0  2  0  0  0  0  0  0
  -30.1540  -13.7090   19.4520 N   0  0  0  0  0  0  0  0  0  0  0  0
  -31.8140  -15.1270   18.8850 O   0  0  0  0  0  0  0  0  0  0  0  0
  -29.9440  -16.0670   19.9230 N   0  0  0  0  0  0  0  0  0  0  0  0
  -29.1650  -15.6820   20.4350 H   0  0  0  0  0  0  0  0  0  0  0  0
  -25.5580  -13.9030   20.4460 C   0  0  0  0  0  0  0  0  0  0  0  0
  -24.5400  -13.1250   20.9270 C   0  0  0  0  0  0  0  0  0  0  0  0
  -24.9350  -11.7710   20.6920 C   0  0  0  0  0  0  0  0  0  0  0  0
  -26.5100  -13.0260   19.9570 N   0  0  0  0  0  0  0  0  0  0  0  0
  -26.1540  -11.7310   20.1650 N   0  0  0  0  0  0  0  0  0  0  0  0
  -24.1970  -10.5170   20.8870 C   0  0  0  0  0  0  0  0  0  0  0  0
  -24.6440   -9.5280   21.7900 C   0  0  0  0  0  3  0  0  0  0  0  0
  -23.9050   -8.3400   21.9740 C   0  0  0  0  0  3  0  0  0  0  0  0
  -22.7040   -8.1320   21.2540 C   0  0  0  0  0  0  0  0  0  0  0  0
  -22.2760   -9.1090   20.3380 C   0  0  0  0  0  3  0  0  0  0  0  0
  -23.0150  -10.2890   20.1530 C   0  0  0  0  0  3  0  0  0  0  0  0
  -21.9340   -6.9980   21.3480 O   0  0  0  0  0  0  0  0  0  0  0  0
  -21.7560   -6.3460   22.5430 C   0  0  0  0  0  0  0  0  0  0  0  0
  -21.1700   -6.9830   23.6590 C   0  0  0  0  0  3  0  0  0  0  0  0
  -20.9430   -6.2560   24.8440 C   0  0  0  0  0  3  0  0  0  0  0  0
  -21.2910   -4.8940   24.9150 C   0  0  0  0  0  0  0  0  0  0  0  0
  -21.8700   -4.2570   23.8030 C   0  0  0  0  0  3  0  0  0  0  0  0
  -22.0990   -4.9810   22.6200 C   0  0  0  0  0  0  0  0  0  0  0  0
  -22.6370   -4.3570   21.5430 F   0  0  0  0  0  0  0  0  0  0  0  0
  -21.0660   -4.1930   26.0510 F   0  0  0  0  0  0  0  0  0  0  0  0
  -23.2300  -13.6110   21.4750 C   0  0  0  0  0  0  0  0  0  0  0  0
  -22.6400  -12.8680   22.4040 N   0  0  0  0  0  0  0  0  0  0  0  0
  -22.7460  -14.6830   21.1150 O   0  0  0  0  0  0  0  0  0  0  0  0
  -23.0470  -12.0000   22.7170 H   0  0  0  0  0  0  0  0  0  0  0  0
  -21.7680  -13.1750   22.8120 H   0  0  0  0  0  0  0  0  0  0  0  0
  -25.7390  -15.2800   20.3580 N   0  0  0  0  0  0  0  0  0  0  0  0
  -24.9980  -15.9260   20.6070 H   0  0  0  0  0  0  0  0  0  0  0  0
  -26.4930  -15.7230   19.8490 H   0  0  0  0  0  0  0  0  0  0  0  0
  -31.2780  -20.8030   18.0980 C   0  0  1  0  0  0  0  0  0  0  0  0
  -31.8320  -20.0260   17.1660 F   0  0  0  0  0  0  0  0  0  0  0  0
  -30.6230  -21.7720   17.4580 F   0  0  0  0  0  0  0  0  0  0  0  0
  -32.2570  -21.3480   18.8180 F   0  0  0  0  0  0  0  0  0  0  0  0
  -29.1470  -23.4240   19.8350 C   0  0  0  0  0  0  0  0  0  0  0  0
  -28.7510  -22.0820   19.5970 N   0  0  0  0  0  0  0  0  0  0  0  0
  -30.2410  -23.6590   20.3530 O   0  0  0  0  0  0  0  0  0  0  0  0
  -27.8000  -22.0700   19.2600 H   0  0  0  0  0  0  0  0  0  0  0  0
  -28.1710  -24.7090   19.4520 C   0  0  0  0  0  2  0  0  0  0  0  0
  -28.4550  -26.1960   19.8170 O   0  0  0  0  0  0  0  0  0  0  0  0
  -24.7260  -31.6500   23.0770 C   0  0  0  0  0  0  0  0  0  0  0  0
  -27.3870  -27.1700   19.7860 C   0  0  0  0  0  0  0  0  0  0  0  0
  -23.5450  -30.3180   21.3720 C   0  0  0  0  0  3  0  0  0  0  0  0
  -25.0200  -28.8610   19.8520 C   0  0  0  0  0  0  0  0  0  0  0  0
  -26.0920  -30.6520   21.2070 C   0  0  0  0  0  2  0  0  0  0  0  0
  -26.1930  -29.3000   20.4790 C   0  0  0  0  0  0  0  0  0  0  0  0
  -27.3760  -28.4700   20.4310 C   0  0  0  0  0  3  0  0  0  0  0  0
  -26.1850  -26.8390   19.1190 C   0  0  0  0  0  3  0  0  0  0  0  0
  -25.0270  -27.6440   19.1570 C   0  0  0  0  0  3  0  0  0  0  0  0
  -23.7720  -29.7250   19.9560 C   0  0  0  0  0  2  0  0  0  0  0  0
  -24.8070  -30.8920   21.9400 N   0  0  0  0  0  0  0  0  0  0  0  0
  -23.6370  -31.8810   23.6240 O   0  0  0  0  0  0  0  0  0  0  0  0
  -22.8990  -29.2420   22.2800 C   0  0  0  0  0  0  0  0  0  0  0  0
  -21.5820  -29.0210   22.1280 N   0  0  0  0  0  0  0  0  0  0  0  0
  -23.5850  -28.6100   23.0880 O   0  0  0  0  0  0  0  0  0  0  0  0
  -21.0810  -29.5860   21.4550 H   0  0  0  0  0  0  0  0  0  0  0  0
  -18.2450  -27.6710   22.5380 C   0  0  0  0  0  0  0  0  0  0  0  0
  -20.7880  -28.0210   22.8480 C   0  0  0  0  0  3  0  0  0  0  0  0
  -20.9520  -26.6190   22.2150 C   0  0  0  0  0  2  0  0  0  0  0  0
  -19.8750  -26.2960   21.1750 C   0  0  0  0  0  2  0  0  0  0  0  0
  -18.4820  -26.3590   21.8070 C   0  0  0  0  0  2  0  0  0  0  0  0
  -19.3280  -28.4580   23.0130 C   0  0  0  0  0  0  0  0  0  0  0  0
  -19.0530  -29.6830   23.6570 C   0  0  0  0  0  3  0  0  0  0  0  0
  -17.7290  -30.1250   23.8310 C   0  0  0  0  0  3  0  0  0  0  0  0
  -16.6590  -29.3350   23.3720 C   0  0  0  0  0  3  0  0  0  0  0  0
  -16.9190  -28.1100   22.7320 C   0  0  0  0  0  3  0  0  0  0  0  0
  -25.9950  -32.2810   23.7280 C   0  0  0  0  0  3  0  0  0  0  0  0
  -26.5130  -31.4730   24.9830 C   0  0  1  0  0  0  0  0  0  0  0  0
  -25.4120  -31.1700   26.0270 C   0  0  0  0  0  1  0  0  0  0  0  0
  -27.1370  -30.1260   24.5510 C   0  0  0  0  0  1  0  0  0  0  0  0
  -27.6340  -32.2710   25.6890 C   0  0  0  0  0  1  0  0  0  0  0  0
  -25.6620  -33.6620   24.1100 N   0  0  0  0  0  0  0  0  0  0  0  0
  -25.9370  -34.7450   23.3710 C   0  0  0  0  0  0  0  0  0  0  0  0
  -26.5650  -34.6880   22.3100 O   0  0  0  0  0  0  0  0  0  0  0  0
  -25.1040  -33.7800   24.9430 H   0  0  0  0  0  0  0  0  0  0  0  0
  -24.1410  -36.4940   23.1590 C   0  0  0  0  0  1  0  0  0  0  0  0
  -25.4370  -36.1080   23.8890 C   0  0  0  0  0  3  0  0  0  0  0  0
  -27.5820  -37.0470   24.6310 C   0  0  0  0  0  1  0  0  0  0  0  0
  -26.4320  -37.1950   23.7450 N   0  0  0  0  0  0  0  0  0  0  0  0
  -26.0050  -38.0990   23.9260 H   0  0  0  0  0  0  0  0  0  0  0  0
  1  3  1  0
  2  5  1  0
  3  7  1  0
  4  2  2  0
  4  6  1  0
  5 16  1  0
  5  3  2  0
  6  1  2  0
  8 14  1  0
  8 16  1  0
  9 14  1  0
 10 11  1  0
 10  9  1  0
 12 11  1  0
 12 21  1  0
 12 13  1  0
 14 13  1  0
 15  8  2  0
 16 17  1  0
 18 19  2  0
 19 38  1  0
 20 23  1  0
 20 19  1  0
 21 22  1  0
 21 18  1  0
 22 20  2  0
 23 24  1  0
 24 25  2  0
 26 29  1  0
 26 25  1  0
 27 26  2  0
 28 27  1  0
 28 23  2  0
 29 30  1  0
 30 35  2  0
 30 31  1  0
 31 32  2  0
 32 33  1  0
 33 37  1  0
 34 33  2  0
 35 34  1  0
 36 35  1  0
 38 39  1  0
 39 41  1  0
 39 42  1  0
 40 38  2  0
 43 18  1  0
 43 44  1  0
 45 43  1  0
 46 49  1  1
 46  4  1  0
 47 46  1  0
 48 46  1  0
 50 52  2  0
 51  6  1  0
 51 50  1  0
 53 51  1  0
 54 55  1  0
 54 50  1  0
 56 67  2  0
 57 55  1  0
 57 62  1  0
 58 66  1  0
 58 68  1  0
 59 65  1  0
 59 61  1  0
 60 66  1  0
 61 60  1  0
 62 61  2  0
 63 64  1  0
 63 57  2  0
 64 59  2  0
 65 58  1  0
 66 56  1  0
 68 70  2  0
 69 68  1  0
 71 69  1  0
 72 81  2  0
 72 77  1  0
 73 69  1  0
 73 77  1  0
 74 73  1  0
 75 76  1  0
 75 74  1  0
 76 72  1  0
 77 78  2  0
 78 79  1  0
 80 79  2  0
 81 80  1  0
 82 56  1  0
 82 87  1  0
 82 83  1  0
 83 86  1  1
 83 84  1  0
 85 83  1  0
 87 90  1  0
 88 92  1  0
 88 87  1  0
 89 88  2  0
 92 91  1  0
 94 92  1  0
 94 95  1  0
 94 93  1  0
M  ISO  4   8 100  16 100  54 101  55 101
M  END
>  <TORSDO>  (83) 
F 19

>  <SCORE>  (83) 
-10.690

>  <name>  (83) 
82

>  <ligand_id>  (83) 
82

>  <original_smiles>  (83) 
[H]c1c([H])c([H])c2c(c1[H])C([H])([H])C([H])([H])C([H])([H])C2([H])N([H])C(=O)C1([H])N(C(=O)C([H])(N([H])C(=O)C([H])(N([H])C([H])([H])[H])C([H])([H])[H])C(C([H])([H])[H])(C([H])([H])[H])C([H])([H])[H])C([H])([H])c2c([H])c(OC([H])([H])C(=O)N([H])c3c([H])c(C([H])([H])[H])c(N([H])C(=O)N4C([H])([H])C([H])([H])C([H])([H])C([H])(n5nc(-c6c([H])c([H])c(Oc7c([H])c([H])c(F)c([H])c7F)c([H])c6[H])c(C(=O)N([H])[H])c5N([H])[H])C4([H])[H])c([H])c3C(F)(F)F)c([H])c([H])c2C1([H])[H]

>  <smiles>  (83) 
[H]c1c([H])c([H])c2c(c1[H])C([H])([H])C([H])([H])C([H])([H])C2([H])N([H])C(=O)C1([H])N(C(=O)C([H])(N([H])C(=O)C([H])(N([H])C([H])([H])[H])C([H])([H])[H])C(C([H])([H])[H])(C([H])([H])[H])C([H])([H])[H])C([H])([H])c2c([H])c(OC([H])([H])C(=O)N([H])c3c([H])c(C([H])([H])[H])c(N([H])C(=O)N4C([H])([H])C([H])([H])C([H])([H])C([H])(n5nc(-c6c([H])c([H])c(Oc7c([H])c([H])c(F)c([H])c7F)c([H])c6[H])c(C(=O)N([H])[H])c5N([H])[H])C4([H])[H])c([H])c3C(F)(F)F)c([H])c([H])c2C1([H])[H]

$$$$
83:0:0
     RDKit          3D

 96104  0  0  1  0  0  0  0  0999 V2000
  -28.6740  -21.8560   19.6480 C   0  0  0  0  0  3  0  0  0  0  0  0
  -28.2790  -23.2630   19.7430 C   0  0  0  0  0  0  0  0  0  0  0  0
  -30.3730  -20.6690   21.2630 C   0  0  0  0  0  3  0  0  0  0  0  0
  -29.2130  -19.0900   19.8480 C   0  0  0  0  0  3  0  0  0  0  0  0
  -30.9390  -18.2310   21.2890 C   0  0  0  0  0  3  0  0  0  0  0  0
  -29.3950  -20.5310   20.2590 C   0  0  0  0  0  0  0  0  0  0  0  0
  -31.1390  -19.5670   21.7460 C   0  0  0  0  0  0  0  0  0  0  0  0
  -29.9650  -17.8790   20.3290 C   0  0  0  0  0  0  0  0  0  0  0  0
  -30.5480  -15.1510   19.9610 C   0  0  0  0  0  0  0  0  0  0  0  0
  -30.4030  -12.7990   18.9580 C   0  0  0  0  0  2  0  0  0  0  0  0
  -29.3870  -12.7250   17.7940 C   0  0  0  0  0  2  0  0  0  0  0  0
  -27.9610  -12.4810   18.3250 C   0  0  0  0  0  2  0  0  0  0  0  0
  -27.6210  -13.3860   19.5360 C   0  0  0  0  0  3  0  0  0  0  0  0
  -28.7520  -13.4140   20.5840 C   0  0  0  0  0  2  0  0  0  0  0  0
  -29.9550  -13.8830   19.8840 N   0  0  0  0  0  0  0  0  0  0  0  0
  -31.7580  -15.1930   19.7030 O   0  0  0  0  0  0  0  0  0  0  0  0
  -29.7480  -16.3570   20.0230 N   0  0  0  0  0  0  0  0  0  0  0  0
  -28.7750  -16.1300   19.8890 H   0  0  0  0  0  0  0  0  0  0  0  0
  -25.3080  -13.9400   20.4710 C   0  0  0  0  0  0  0  0  0  0  0  0
  -24.2690  -13.1550   20.8850 C   0  0  0  0  0  0  0  0  0  0  0  0
  -24.7220  -11.8050   20.7730 C   0  0  0  0  0  0  0  0  0  0  0  0
  -26.3260  -13.0680   20.1240 N   0  0  0  0  0  0  0  0  0  0  0  0
  -25.9890  -11.7760   20.3720 N   0  0  0  0  0  0  0  0  0  0  0  0
  -24.0020  -10.5390   20.9650 C   0  0  0  0  0  0  0  0  0  0  0  0
  -24.4290   -9.5820   21.9100 C   0  0  0  0  0  3  0  0  0  0  0  0
  -23.7070   -8.3830   22.0900 C   0  0  0  0  0  3  0  0  0  0  0  0
  -22.5430   -8.1330   21.3240 C   0  0  0  0  0  0  0  0  0  0  0  0
  -22.1360   -9.0790   20.3670 C   0  0  0  0  0  3  0  0  0  0  0  0
  -22.8600  -10.2700   20.1850 C   0  0  0  0  0  3  0  0  0  0  0  0
  -21.7930   -6.9850   21.4130 O   0  0  0  0  0  0  0  0  0  0  0  0
  -21.6840   -6.2870   22.5890 C   0  0  0  0  0  0  0  0  0  0  0  0
  -21.1100   -6.8580   23.7450 C   0  0  0  0  0  3  0  0  0  0  0  0
  -20.9540   -6.0820   24.9120 C   0  0  0  0  0  3  0  0  0  0  0  0
  -21.3610   -4.7340   24.9210 C   0  0  0  0  0  0  0  0  0  0  0  0
  -21.9260   -4.1610   23.7680 C   0  0  0  0  0  3  0  0  0  0  0  0
  -22.0840   -4.9340   22.6040 C   0  0  0  0  0  0  0  0  0  0  0  0
  -22.6090   -4.3720   21.4890 F   0  0  0  0  0  0  0  0  0  0  0  0
  -21.2040   -3.9860   26.0370 F   0  0  0  0  0  0  0  0  0  0  0  0
  -22.8950  -13.6270   21.2650 C   0  0  0  0  0  0  0  0  0  0  0  0
  -22.2110  -12.8900   22.1300 N   0  0  0  0  0  0  0  0  0  0  0  0
  -22.4400  -14.6850   20.8290 O   0  0  0  0  0  0  0  0  0  0  0  0
  -22.5920  -12.0340   22.5040 H   0  0  0  0  0  0  0  0  0  0  0  0
  -21.2900  -13.1850   22.4240 H   0  0  0  0  0  0  0  0  0  0  0  0
  -25.4630  -15.3170   20.3340 N   0  0  0  0  0  0  0  0  0  0  0  0
  -24.7040  -15.9620   20.5280 H   0  0  0  0  0  0  0  0  0  0  0  0
  -26.2760  -15.7730   19.9410 H   0  0  0  0  0  0  0  0  0  0  0  0
  -32.1680  -19.7770   22.7950 C   0  0  0  0  0  3  0  0  0  0  0  0
  -33.6670  -21.0960   21.5090 C   0  0  0  0  0  1  0  0  0  0  0  0
  -33.2430  -20.4680   22.7480 N   0  0  0  0  0  0  0  0  0  0  0  0
  -27.6220  -23.6730   18.5120 C   0  0  0  0  0  0  0  0  0  0  0  0
  -28.0910  -24.6880   16.3080 C   0  0  0  0  0  1  0  0  0  0  0  0
  -28.4730  -24.2070   17.6280 N   0  0  0  0  0  0  0  0  0  0  0  0
  -26.4270  -23.5070   18.2620 O   0  0  0  0  0  0  0  0  0  0  0  0
  -29.4440  -24.2920   17.8990 H   0  0  0  0  0  0  0  0  0  0  0  0
  -28.2610  -24.5670   20.7920 C   0  0  0  0  0  2  0  0  0  0  0  0
  -28.3370  -26.1250   20.4320 O   0  0  0  0  0  0  0  0  0  0  0  0
  -24.5790  -31.9580   23.2070 C   0  0  0  0  0  0  0  0  0  0  0  0
  -27.2550  -27.1040   20.4200 C   0  0  0  0  0  0  0  0  0  0  0  0
  -23.4290  -30.4930   21.5960 C   0  0  0  0  0  3  0  0  0  0  0  0
  -24.9200  -28.8660   20.2690 C   0  0  0  0  0  0  0  0  0  0  0  0
  -25.9880  -30.7580   21.4800 C   0  0  0  0  0  2  0  0  0  0  0  0
  -26.0870  -29.3360   20.8840 C   0  0  0  0  0  0  0  0  0  0  0  0
  -27.2570  -28.4750   20.9300 C   0  0  0  0  0  3  0  0  0  0  0  0
  -26.0550  -26.7460   19.7750 C   0  0  0  0  0  3  0  0  0  0  0  0
  -24.9200  -27.5850   19.6970 C   0  0  0  0  0  3  0  0  0  0  0  0
  -23.6880  -29.7630   20.2510 C   0  0  0  0  0  2  0  0  0  0  0  0
  -24.6850  -31.0950   22.1480 N   0  0  0  0  0  0  0  0  0  0  0  0
  -23.4780  -32.2510   23.7000 O   0  0  0  0  0  0  0  0  0  0  0  0
  -22.7340  -29.5180   22.5800 C   0  0  0  0  0  0  0  0  0  0  0  0
  -21.4120  -29.3230   22.4240 N   0  0  0  0  0  0  0  0  0  0  0  0
  -23.3890  -28.9370   23.4480 O   0  0  0  0  0  0  0  0  0  0  0  0
  -20.9390  -29.8430   21.6990 H   0  0  0  0  0  0  0  0  0  0  0  0
  -18.0350  -28.0920   22.8930 C   0  0  0  0  0  0  0  0  0  0  0  0
  -20.5830  -28.4020   23.2090 C   0  0  0  0  0  3  0  0  0  0  0  0
  -20.7180  -26.9520   22.6910 C   0  0  0  0  0  2  0  0  0  0  0  0
  -19.6450  -26.5760   21.6640 C   0  0  0  0  0  2  0  0  0  0  0  0
  -18.2460  -26.7230   22.2700 C   0  0  0  0  0  2  0  0  0  0  0  0
  -19.1320  -28.8870   23.3200 C   0  0  0  0  0  0  0  0  0  0  0  0
  -18.8800  -30.1650   23.8640 C   0  0  0  0  0  3  0  0  0  0  0  0
  -17.5650  -30.6500   23.9860 C   0  0  0  0  0  3  0  0  0  0  0  0
  -16.4820  -29.8540   23.5740 C   0  0  0  0  0  3  0  0  0  0  0  0
  -16.7170  -28.5770   23.0340 C   0  0  0  0  0  3  0  0  0  0  0  0
  -25.8350  -32.6300   23.8400 C   0  0  0  0  0  3  0  0  0  0  0  0
  -26.3620  -31.8750   25.1220 C   0  0  1  0  0  0  0  0  0  0  0  0
  -25.2630  -31.5870   26.1720 C   0  0  0  0  0  1  0  0  0  0  0  0
  -27.0110  -30.5250   24.7400 C   0  0  0  0  0  1  0  0  0  0  0  0
  -27.4670  -32.7140   25.8060 C   0  0  0  0  0  1  0  0  0  0  0  0
  -25.4790  -34.0190   24.1770 N   0  0  0  0  0  0  0  0  0  0  0  0
  -25.7660  -35.0880   23.4220 C   0  0  0  0  0  0  0  0  0  0  0  0
  -26.4220  -35.0110   22.3810 O   0  0  0  0  0  0  0  0  0  0  0  0
  -24.8920  -34.1490   24.9870 H   0  0  0  0  0  0  0  0  0  0  0  0
  -23.9730  -36.8280   23.1160 C   0  0  0  0  0  1  0  0  0  0  0  0
  -25.2440  -36.4600   23.8970 C   0  0  0  0  0  3  0  0  0  0  0  0
  -27.3550  -37.4260   24.6970 C   0  0  0  0  0  1  0  0  0  0  0  0
  -26.2390  -37.5470   23.7650 N   0  0  0  0  0  0  0  0  0  0  0  0
  -25.8030  -38.4540   23.9080 H   0  0  0  0  0  0  0  0  0  0  0  0
  1  2  2  0
  1  6  1  0
  2 55  1  0
  3  7  1  0
  4  6  1  0
  4  8  2  0
  5  7  2  0
  6  3  2  0
  7 47  1  0
  8  5  1  0
  9 17  1  0
 10 15  1  0
 11 12  1  0
 11 10  1  0
 13 12  1  0
 13 22  1  0
 13 14  1  0
 15  9  1  0
 15 14  1  0
 16  9  2  0
 17  8  1  0
 18 17  1  0
 19 20  2  0
 20 39  1  0
 21 20  1  0
 21 24  1  0
 22 23  1  0
 22 19  1  0
 23 21  2  0
 24 25  1  0
 25 26  2  0
 27 30  1  0
 27 26  1  0
 28 27  2  0
 29 28  1  0
 29 24  2  0
 30 31  1  0
 31 36  2  0
 31 32  1  0
 32 33  2  0
 33 34  1  0
 34 38  1  0
 35 34  2  0
 36 35  1  0
 37 36  1  0
 39 40  1  0
 40 43  1  0
 40 42  1  0
 41 39  2  0
 44 19  1  0
 44 45  1  0
 46 44  1  0
 48 49  1  0
 49 47  2  0
 50  2  1  0
 51 52  1  0
 52 54  1  0
 52 50  1  0
 53 50  2  0
 56 55  1  0
 57 68  2  0
 58 56  1  0
 58 63  1  0
 59 67  1  0
 59 69  1  0
 60 62  1  0
 61 67  1  0
 62 63  2  0
 62 61  1  0
 64 58  2  0
 65 64  1  0
 65 60  2  0
 66 60  1  0
 66 59  1  0
 67 57  1  0
 69 71  2  0
 70 69  1  0
 72 70  1  0
 73 82  2  0
 73 78  1  0
 74 70  1  0
 74 78  1  0
 75 74  1  0
 76 77  1  0
 76 75  1  0
 77 73  1  0
 78 79  2  0
 79 80  1  0
 81 80  2  0
 82 81  1  0
 83 57  1  0
 83 88  1  0
 83 84  1  0
 84 87  1  1
 84 85  1  0
 86 84  1  0
 88 91  1  0
 89 93  1  0
 89 88  1  0
 90 89  2  0
 93 92  1  0
 95 93  1  0
 95 96  1  0
 95 94  1  0
M  ISO  4   9 100  17 100  55 101  56 101
M  END
>  <TORSDO>  (84) 
F 20

>  <SCORE>  (84) 
-14.026

>  <name>  (84) 
83

>  <ligand_id>  (84) 
83

>  <original_smiles>  (84) 
[H]C(=NC([H])([H])[H])c1c([H])c(C([H])=C(C(=O)N([H])C([H])([H])[H])C([H])([H])Oc2c([H])c([H])c3c(c2[H])C([H])([H])N(C(=O)C([H])(N([H])C(=O)C([H])(N([H])C([H])([H])[H])C([H])([H])[H])C(C([H])([H])[H])(C([H])([H])[H])C([H])([H])[H])C([H])(C(=O)N([H])C2([H])c4c([H])c([H])c([H])c([H])c4C([H])([H])C([H])([H])C2([H])[H])C3([H])[H])c([H])c(N([H])C(=O)N2C([H])([H])C([H])([H])C([H])([H])C([H])(n3nc(-c4c([H])c([H])c(Oc5c([H])c([H])c(F)c([H])c5F)c([H])c4[H])c(C(=O)N([H])[H])c3N([H])[H])C2([H])[H])c1[H]

>  <smiles>  (84) 
[H]C(=NC([H])([H])[H])c1c([H])c(C([H])=C(C(=O)N([H])C([H])([H])[H])C([H])([H])Oc2c([H])c([H])c3c(c2[H])C([H])([H])N(C(=O)C([H])(N([H])C(=O)C([H])(N([H])C([H])([H])[H])C([H])([H])[H])C(C([H])([H])[H])(C([H])([H])[H])C([H])([H])[H])C([H])(C(=O)N([H])C2([H])c4c([H])c([H])c([H])c([H])c4C([H])([H])C([H])([H])C2([H])[H])C3([H])[H])c([H])c(N([H])C(=O)N2C([H])([H])C([H])([H])C([H])([H])C([H])(n3nc(-c4c([H])c([H])c(Oc5c([H])c([H])c(F)c([H])c5F)c([H])c4[H])c(C(=O)N([H])[H])c3N([H])[H])C2([H])[H])c1[H]

$$$$
84:0:0
     RDKit          3D

 99106  0  0  1  0  0  0  0  0999 V2000
  -30.8040  -19.9590   19.5730 C   0  0  0  0  0  2  0  0  0  0  0  0
  -30.2620  -21.9860   20.9720 C   0  0  0  0  0  0  0  0  0  0  0  0
  -29.6090  -23.3910   21.0350 C   0  0  0  0  0  2  0  0  0  0  0  0
  -30.4080  -23.5380   18.6060 C   0  0  0  0  0  2  0  0  0  0  0  0
  -29.8540  -22.0900   18.5800 C   0  0  0  0  0  2  0  0  0  0  0  0
  -29.9470  -24.3480   19.8490 C   0  0  0  0  0  3  0  0  0  0  0  0
  -30.2580  -21.3340   19.7790 N   0  0  0  0  0  0  0  0  0  0  0  0
  -30.7300  -21.4940   22.0020 O   0  0  0  0  0  0  0  0  0  0  0  0
  -28.7790  -25.3190   19.4910 C   0  0  0  0  0  2  0  0  0  0  0  0
  -28.7560  -26.5900   20.1810 O   0  0  0  0  0  0  0  0  0  0  0  0
  -24.8040  -31.6850   23.2860 C   0  0  0  0  0  0  0  0  0  0  0  0
  -27.5750  -27.3260   20.1500 C   0  0  0  0  0  0  0  0  0  0  0  0
  -23.6560  -30.3210   21.5710 C   0  0  0  0  0  3  0  0  0  0  0  0
  -25.1630  -28.8350   20.1490 C   0  0  0  0  0  0  0  0  0  0  0  0
  -26.1860  -30.6950   21.4580 C   0  0  0  0  0  2  0  0  0  0  0  0
  -26.3020  -29.3390   20.7890 C   0  0  0  0  0  0  0  0  0  0  0  0
  -27.5050  -28.5880   20.7960 C   0  0  0  0  0  3  0  0  0  0  0  0
  -26.4060  -26.8510   19.5000 C   0  0  0  0  0  3  0  0  0  0  0  0
  -25.2110  -27.5900   19.5080 C   0  0  0  0  0  3  0  0  0  0  0  0
  -23.9130  -29.6840   20.1800 C   0  0  0  0  0  2  0  0  0  0  0  0
  -24.8980  -30.9140   22.1650 N   0  0  0  0  0  0  0  0  0  0  0  0
  -23.7070  -31.9330   23.8060 O   0  0  0  0  0  0  0  0  0  0  0  0
  -22.9860  -29.2680   22.4850 C   0  0  0  0  0  0  0  0  0  0  0  0
  -21.6680  -29.0740   22.3110 N   0  0  0  0  0  0  0  0  0  0  0  0
  -23.6490  -28.6320   23.3070 O   0  0  0  0  0  0  0  0  0  0  0  0
  -21.1920  -29.6410   21.6230 H   0  0  0  0  0  0  0  0  0  0  0  0
  -18.2960  -27.8290   22.6770 C   0  0  0  0  0  0  0  0  0  0  0  0
  -20.8410  -28.1060   23.0320 C   0  0  0  0  0  3  0  0  0  0  0  0
  -20.9780  -26.6920   22.4210 C   0  0  0  0  0  2  0  0  0  0  0  0
  -19.9120  -26.3850   21.3660 C   0  0  0  0  0  2  0  0  0  0  0  0
  -18.5100  -26.4990   21.9710 C   0  0  0  0  0  2  0  0  0  0  0  0
  -19.3930  -28.5900   23.1620 C   0  0  0  0  0  0  0  0  0  0  0  0
  -19.1430  -29.8340   23.7810 C   0  0  0  0  0  3  0  0  0  0  0  0
  -17.8300  -30.3170   23.9230 C   0  0  0  0  0  3  0  0  0  0  0  0
  -16.7460  -29.5520   23.4570 C   0  0  0  0  0  3  0  0  0  0  0  0
  -16.9800  -28.3100   22.8390 C   0  0  0  0  0  3  0  0  0  0  0  0
  -26.0680  -32.3100   23.9550 C   0  0  0  0  0  3  0  0  0  0  0  0
  -26.5810  -31.4910   25.2020 C   0  0  1  0  0  0  0  0  0  0  0  0
  -25.4780  -31.1790   26.2380 C   0  0  0  0  0  1  0  0  0  0  0  0
  -27.2020  -30.1470   24.7560 C   0  0  0  0  0  1  0  0  0  0  0  0
  -27.7000  -32.2790   25.9240 C   0  0  0  0  0  1  0  0  0  0  0  0
  -25.7280  -33.6870   24.3420 N   0  0  0  0  0  0  0  0  0  0  0  0
  -26.0650  -34.7790   23.6430 C   0  0  0  0  0  0  0  0  0  0  0  0
  -26.7670  -34.7350   22.6280 O   0  0  0  0  0  0  0  0  0  0  0  0
  -25.1100  -33.7930   25.1320 H   0  0  0  0  0  0  0  0  0  0  0  0
  -24.3120  -36.5570   23.3300 C   0  0  0  0  0  1  0  0  0  0  0  0
  -25.5420  -36.1360   24.1500 C   0  0  0  0  0  3  0  0  0  0  0  0
  -27.6450  -37.0200   25.0630 C   0  0  0  0  0  1  0  0  0  0  0  0
  -26.5560  -37.2130   24.1080 N   0  0  0  0  0  0  0  0  0  0  0  0
  -26.1280  -38.1170   24.2940 H   0  0  0  0  0  0  0  0  0  0  0  0
  -28.4810  -18.8770   19.6940 C   0  0  0  0  0  3  0  0  0  0  0  0
  -30.4110  -17.4640   20.1140 C   0  0  0  0  0  3  0  0  0  0  0  0
  -29.8780  -18.7470   19.8090 C   0  0  0  0  0  0  0  0  0  0  0  0
  -27.6230  -17.7950   19.9570 C   0  0  0  0  0  0  0  0  0  0  0  0
  -28.1450  -16.5320   20.3630 C   0  0  0  0  0  0  0  0  0  0  0  0
  -29.5670  -16.3420   20.3640 C   0  0  0  0  0  0  0  0  0  0  0  0
  -26.1320  -18.0360   19.7460 C   0  0  0  0  0  1  0  0  0  0  0  0
  -30.6350  -14.1070   19.7920 C   0  0  0  0  0  0  0  0  0  0  0  0
  -30.5320  -11.7540   19.0060 C   0  0  0  0  0  2  0  0  0  0  0  0
  -29.5900  -11.6420   17.7890 C   0  0  0  0  0  2  0  0  0  0  0  0
  -28.1230  -11.4750   18.2300 C   0  0  0  0  0  2  0  0  0  0  0  0
  -27.7080  -12.5160   19.3030 C   0  0  0  0  0  3  0  0  0  0  0  0
  -28.7500  -12.5600   20.4400 C   0  0  0  0  0  2  0  0  0  0  0  0
  -30.0740  -12.8660   19.8570 N   0  0  0  0  0  0  0  0  0  0  0  0
  -31.6360  -14.3540   19.1120 O   0  0  0  0  0  0  0  0  0  0  0  0
  -30.0730  -15.0140   20.6140 N   0  0  0  0  0  0  0  0  0  0  0  0
  -29.5800  -14.5560   21.3680 H   0  0  0  0  0  0  0  0  0  0  0  0
  -25.2950  -13.1320   19.9540 C   0  0  0  0  0  3  0  0  0  0  0  0
  -24.2480  -12.3760   20.4130 C   0  0  0  0  0  0  0  0  0  0  0  0
  -24.7440  -11.0400   20.5190 C   0  0  0  0  0  0  0  0  0  0  0  0
  -26.3630  -12.2580   19.8120 N   0  0  0  0  0  0  0  0  0  0  0  0
  -26.0340  -11.0010   20.2060 N   0  0  0  0  0  0  0  0  0  0  0  0
  -24.0510   -9.7890   20.8500 C   0  0  0  0  0  0  0  0  0  0  0  0
  -24.4830   -8.9660   21.9120 C   0  0  0  0  0  3  0  0  0  0  0  0
  -23.7920   -7.7740   22.2220 C   0  0  0  0  0  3  0  0  0  0  0  0
  -22.6540   -7.3970   21.4720 C   0  0  0  0  0  0  0  0  0  0  0  0
  -22.2410   -8.2080   20.4020 C   0  0  0  0  0  3  0  0  0  0  0  0
  -22.9310   -9.3920   20.0900 C   0  0  0  0  0  3  0  0  0  0  0  0
  -21.9380   -6.2420   21.6840 O   0  0  0  0  0  0  0  0  0  0  0  0
  -21.8490   -5.6660   22.9260 C   0  0  0  0  0  0  0  0  0  0  0  0
  -21.3290   -6.3670   24.0350 C   0  0  0  0  0  3  0  0  0  0  0  0
  -21.1860   -5.7170   25.2770 C   0  0  0  0  0  3  0  0  0  0  0  0
  -21.5530   -4.3640   25.4100 C   0  0  0  0  0  0  0  0  0  0  0  0
  -22.0690   -3.6620   24.3060 C   0  0  0  0  0  3  0  0  0  0  0  0
  -22.2130   -4.3120   23.0680 C   0  0  0  0  0  0  0  0  0  0  0  0
  -22.6890   -3.6240   22.0010 F   0  0  0  0  0  0  0  0  0  0  0  0
  -21.4100   -3.7370   26.6010 F   0  0  0  0  0  0  0  0  0  0  0  0
  -22.8390  -12.8400   20.6460 C   0  0  0  0  0  0  0  0  0  0  0  0
  -22.1370  -12.2200   21.5890 N   0  0  0  0  0  0  0  0  0  0  0  0
  -22.3650  -13.7880   20.0220 O   0  0  0  0  0  0  0  0  0  0  0  0
  -22.5310  -11.4520   22.1120 H   0  0  0  0  0  0  0  0  0  0  0  0
  -21.1900  -12.5080   21.7850 H   0  0  0  0  0  0  0  0  0  0  0  0
  -25.4230  -14.4810   19.6330 N   0  0  0  0  0  1  0  0  0  0  0  0
  -24.6470  -15.1310   19.7060 H   0  0  0  0  0  0  0  0  0  0  0  0
  -26.2810  -14.9230   19.3360 H   0  0  0  0  0  0  0  0  0  0  0  0
  -27.1610  -15.4070   20.7640 C   0  0  0  0  0  3  0  0  0  0  0  0
  -26.6240  -14.8620   19.6750 F   0  0  0  0  0  0  0  0  0  0  0  0
  -27.7090  -14.4190   21.4740 F   0  0  0  0  0  0  0  0  0  0  0  0
  -26.1780  -15.8760   21.5280 F   0  0  0  0  0  0  0  0  0  0  0  0
  1  7  1  0
  1 53  1  0
  2  3  1  0
  2  8  2  0
  4  6  1  0
  5  4  1  0
  5  7  1  0
  6  9  1  0
  6  3  1  0
  7  2  1  0
  9 10  1  0
 11 22  2  0
 12 10  1  0
 12 17  1  0
 13 21  1  0
 13 23  1  0
 14 20  1  0
 14 16  1  0
 15 21  1  0
 16 17  2  0
 16 15  1  0
 18 19  1  0
 18 12  2  0
 19 14  2  0
 20 13  1  0
 21 11  1  0
 23 25  2  0
 24 23  1  0
 26 24  1  0
 27 36  2  0
 27 32  1  0
 28 24  1  0
 28 32  1  0
 29 28  1  0
 30 31  1  0
 30 29  1  0
 31 27  1  0
 32 33  2  0
 33 34  1  0
 35 34  2  0
 36 35  1  0
 37 11  1  0
 37 42  1  0
 37 38  1  0
 38 41  1  1
 38 39  1  0
 40 38  1  0
 42 45  1  0
 43 47  1  0
 43 42  1  0
 44 43  2  0
 47 46  1  0
 49 47  1  0
 49 50  1  0
 49 48  1  0
 51 53  2  0
 51 54  1  0
 52 56  2  0
 53 52  1  0
 54 55  2  0
 55 56  1  0
 55 96  1  0
 56 66  1  0
 57 54  1  0
 58 64  1  0
 58 66  1  0
 59 64  1  0
 60 61  1  0
 60 59  1  0
 62 61  1  0
 62 71  1  0
 62 63  1  0
 64 63  1  0
 65 58  2  0
 66 67  1  0
 68 69  2  0
 69 70  1  0
 69 88  1  0
 70 73  1  0
 71 68  1  0
 71 72  1  0
 72 70  2  0
 73 74  1  0
 74 75  2  0
 76 79  1  0
 76 75  1  0
 77 76  2  0
 78 77  1  0
 78 73  2  0
 79 80  1  0
 80 85  2  0
 80 81  1  0
 81 82  2  0
 82 83  1  0
 83 87  1  0
 84 83  2  0
 85 84  1  0
 86 85  1  0
 88 89  1  0
 89 92  1  0
 89 91  1  0
 90 88  2  0
 93 94  1  0
 95 97  1  0
 96 98  1  0
 96 99  1  0
M  ISO  4   9 101  10 101  58 100  66 100
M  END
>  <TORSDO>  (85) 
F 20

>  <SCORE>  (85) 
-10.951

>  <name>  (85) 
84

>  <ligand_id>  (85) 
84

>  <original_smiles>  (85) 
[H]c1c([H])c([H])c2c(c1[H])C([H])([H])C([H])([H])C([H])([H])C2([H])N([H])C(=O)C1([H])N(C(=O)C([H])(N([H])C(=O)C([H])(N([H])C([H])([H])[H])C([H])([H])[H])C(C([H])([H])[H])(C([H])([H])[H])C([H])([H])[H])C([H])([H])c2c([H])c(OC([H])([H])C3([H])C([H])([H])C(=O)N(C([H])([H])c4c([H])c(N([H])C(=O)N5C([H])([H])C([H])([H])C([H])([H])C([H])(n6nc(-c7c([H])c([H])c(Oc8c([H])c([H])c(F)c([H])c8F)c([H])c7[H])c(C(=O)N([H])[H])c6N([H])[H])C5([H])[H])c(C(F)(F)F)c(C([H])([H])[H])c4[H])C([H])([H])C3([H])[H])c([H])c([H])c2C1([H])[H]

>  <smiles>  (85) 
[H]c1c([H])c([H])c2c(c1[H])C([H])([H])C([H])([H])C([H])([H])C2([H])N([H])C(=O)C1([H])N(C(=O)C([H])(N([H])C(=O)C([H])(N([H])C([H])([H])[H])C([H])([H])[H])C(C([H])([H])[H])(C([H])([H])[H])C([H])([H])[H])C([H])([H])c2c([H])c(OC([H])([H])C3([H])C([H])([H])C(=O)N(C([H])([H])c4c([H])c(N([H])C(=O)N5C([H])([H])C([H])([H])C([H])([H])C([H])(n6nc(-c7c([H])c([H])c(Oc8c([H])c([H])c(F)c([H])c8F)c([H])c7[H])c(C(=O)N([H])[H])c6N([H])[H])C5([H])[H])c(C(F)(F)F)c(C([H])([H])[H])c4[H])C([H])([H])C3([H])[H])c([H])c([H])c2C1([H])[H]

$$$$
85:0:0
     RDKit          3D

 96104  0  0  1  0  0  0  0  0999 V2000
  -30.8530  -20.0880   20.3910 C   0  0  0  0  0  2  0  0  0  0  0  0
  -30.6470  -17.5560   20.5800 C   0  0  0  0  0  3  0  0  0  0  0  0
  -28.5250  -16.3890   20.4110 C   0  0  0  0  0  3  0  0  0  0  0  0
  -29.9940  -18.8030   20.3510 C   0  0  0  0  0  0  0  0  0  0  0  0
  -27.8470  -17.5980   20.1710 C   0  0  0  0  0  0  0  0  0  0  0  0
  -28.5760  -18.8230   20.1670 C   0  0  0  0  0  0  0  0  0  0  0  0
  -29.9130  -16.3470   20.6270 C   0  0  0  0  0  0  0  0  0  0  0  0
  -27.8310  -20.1450   19.9820 C   0  0  0  0  0  1  0  0  0  0  0  0
  -30.9300  -14.1390   20.0920 C   0  0  0  0  0  0  0  0  0  0  0  0
  -30.7000  -11.7750   19.3740 C   0  0  0  0  0  2  0  0  0  0  0  0
  -29.7670  -11.6780   18.1500 C   0  0  0  0  0  2  0  0  0  0  0  0
  -28.2910  -11.6010   18.5850 C   0  0  0  0  0  2  0  0  0  0  0  0
  -27.9180  -12.6940   19.6170 C   0  0  0  0  0  3  0  0  0  0  0  0
  -28.9520  -12.7270   20.7620 C   0  0  0  0  0  2  0  0  0  0  0  0
  -30.2980  -12.9360   20.1820 N   0  0  0  0  0  0  0  0  0  0  0  0
  -31.9240  -14.3380   19.3830 O   0  0  0  0  0  0  0  0  0  0  0  0
  -30.4500  -15.0630   20.9380 N   0  0  0  0  0  0  0  0  0  0  0  0
  -29.9380  -14.6040   21.6750 H   0  0  0  0  0  0  0  0  0  0  0  0
  -25.5750  -13.4660   20.3610 C   0  0  0  0  0  0  0  0  0  0  0  0
  -24.4680  -12.7710   20.7720 C   0  0  0  0  0  0  0  0  0  0  0  0
  -24.8430  -11.3920   20.7560 C   0  0  0  0  0  0  0  0  0  0  0  0
  -26.5560  -12.5170   20.1260 N   0  0  0  0  0  0  0  0  0  0  0  0
  -26.1190  -11.2640   20.4160 N   0  0  0  0  0  0  0  0  0  0  0  0
  -24.0450  -10.1820   20.9890 C   0  0  0  0  0  0  0  0  0  0  0  0
  -24.4480   -9.1990   21.9170 C   0  0  0  0  0  3  0  0  0  0  0  0
  -23.6560   -8.0520   22.1380 C   0  0  0  0  0  3  0  0  0  0  0  0
  -22.4440   -7.8790   21.4290 C   0  0  0  0  0  0  0  0  0  0  0  0
  -22.0560   -8.8520   20.4900 C   0  0  0  0  0  3  0  0  0  0  0  0
  -22.8500   -9.9900   20.2680 C   0  0  0  0  0  3  0  0  0  0  0  0
  -21.6290   -6.7800   21.5520 O   0  0  0  0  0  0  0  0  0  0  0  0
  -21.5840   -6.0450   22.7100 C   0  0  0  0  0  0  0  0  0  0  0  0
  -21.2600   -6.6300   23.9520 C   0  0  0  0  0  3  0  0  0  0  0  0
  -21.1530   -5.8250   25.1040 C   0  0  0  0  0  3  0  0  0  0  0  0
  -21.3640   -4.4370   25.0150 C   0  0  0  0  0  0  0  0  0  0  0  0
  -21.6850   -3.8520   23.7780 C   0  0  0  0  0  3  0  0  0  0  0  0
  -21.7910   -4.6520   22.6280 C   0  0  0  0  0  0  0  0  0  0  0  0
  -22.0780   -4.0800   21.4340 F   0  0  0  0  0  0  0  0  0  0  0  0
  -21.2580   -3.6620   26.1210 F   0  0  0  0  0  0  0  0  0  0  0  0
  -23.1110  -13.3410   21.0680 C   0  0  0  0  0  0  0  0  0  0  0  0
  -22.3690  -12.7230   21.9800 N   0  0  0  0  0  0  0  0  0  0  0  0
  -22.7170  -14.3720   20.5250 O   0  0  0  0  0  0  0  0  0  0  0  0
  -22.6980  -11.8920   22.4490 H   0  0  0  0  0  0  0  0  0  0  0  0
  -21.4600  -13.0940   22.2190 H   0  0  0  0  0  0  0  0  0  0  0  0
  -25.8200  -14.8190   20.1450 N   0  0  0  0  0  0  0  0  0  0  0  0
  -25.0940  -15.5210   20.2220 H   0  0  0  0  0  0  0  0  0  0  0  0
  -26.6740  -15.1770   19.7390 H   0  0  0  0  0  0  0  0  0  0  0  0
  -26.3410  -17.5230   19.9180 C   0  0  0  0  0  2  0  0  0  0  0  0
  -25.7980  -16.4360   20.4700 F   0  0  0  0  0  0  0  0  0  0  0  0
  -30.2850  -22.5390   20.1370 C   0  0  0  0  0  0  0  0  0  0  0  0
  -30.3160  -21.2680   19.6870 N   0  0  0  0  0  0  0  0  0  0  0  0
  -30.7670  -22.8710   21.2200 O   0  0  0  0  0  0  0  0  0  0  0  0
  -29.9080  -21.0880   18.7820 H   0  0  0  0  0  0  0  0  0  0  0  0
  -29.5950  -23.6010   19.2540 C   0  0  0  0  0  2  0  0  0  0  0  0
  -28.4470  -24.3780   19.9580 C   0  0  0  0  0  2  0  0  0  0  0  0
  -28.7940  -25.7290   20.6440 C   0  0  0  0  0  2  0  0  0  0  0  0
  -28.6320  -26.9020   19.8340 O   0  0  0  0  0  0  0  0  0  0  0  0
  -24.5450  -31.7820   23.1420 C   0  0  0  0  0  0  0  0  0  0  0  0
  -27.4250  -27.5660   19.9320 C   0  0  0  0  0  0  0  0  0  0  0  0
  -23.4270  -30.4040   21.4200 C   0  0  0  0  0  3  0  0  0  0  0  0
  -24.9680  -28.9750   19.9710 C   0  0  0  0  0  0  0  0  0  0  0  0
  -25.9430  -30.8540   21.2980 C   0  0  0  0  0  2  0  0  0  0  0  0
  -26.0920  -29.5120   20.6100 C   0  0  0  0  0  0  0  0  0  0  0  0
  -27.3240  -28.8120   20.5940 C   0  0  0  0  0  3  0  0  0  0  0  0
  -26.2850  -27.0480   19.2840 C   0  0  0  0  0  3  0  0  0  0  0  0
  -25.0580  -27.7370   19.3110 C   0  0  0  0  0  3  0  0  0  0  0  0
  -23.6940  -29.7920   20.0200 C   0  0  0  0  0  2  0  0  0  0  0  0
  -24.6530  -31.0270   22.0110 N   0  0  0  0  0  0  0  0  0  0  0  0
  -23.4420  -31.9950   23.6660 O   0  0  0  0  0  0  0  0  0  0  0  0
  -22.7950  -29.3180   22.3220 C   0  0  0  0  0  0  0  0  0  0  0  0
  -21.4760  -29.1150   22.1820 N   0  0  0  0  0  0  0  0  0  0  0  0
  -23.4910  -28.6640   23.1050 O   0  0  0  0  0  0  0  0  0  0  0  0
  -20.9740  -29.6990   21.5260 H   0  0  0  0  0  0  0  0  0  0  0  0
  -18.1200  -27.8600   22.6400 C   0  0  0  0  0  0  0  0  0  0  0  0
  -20.6770  -28.1220   22.9000 C   0  0  0  0  0  3  0  0  0  0  0  0
  -20.7860  -26.7310   22.2330 C   0  0  0  0  0  2  0  0  0  0  0  0
  -19.6740  -26.4650   21.2120 C   0  0  0  0  0  2  0  0  0  0  0  0
  -18.2980  -26.5580   21.8780 C   0  0  0  0  0  2  0  0  0  0  0  0
  -19.2380  -28.6020   23.1070 C   0  0  0  0  0  0  0  0  0  0  0  0
  -19.0170  -29.8240   23.7800 C   0  0  0  0  0  3  0  0  0  0  0  0
  -17.7100  -30.3040   23.9890 C   0  0  0  0  0  3  0  0  0  0  0  0
  -16.6080  -29.5580   23.5370 C   0  0  0  0  0  3  0  0  0  0  0  0
  -16.8130  -28.3370   22.8710 C   0  0  0  0  0  3  0  0  0  0  0  0
  -25.7920  -32.4340   23.8130 C   0  0  0  0  0  3  0  0  0  0  0  0
  -25.4390  -33.8200   24.1510 N   0  0  0  0  0  0  0  0  0  0  0  0
  -25.7670  -34.8880   23.4110 C   0  0  0  0  0  0  0  0  0  0  0  0
  -26.4710  -34.8130   22.4010 O   0  0  0  0  0  0  0  0  0  0  0  0
  -24.8210  -33.9510   24.9380 H   0  0  0  0  0  0  0  0  0  0  0  0
  -23.9980  -36.6290   23.0230 C   0  0  0  0  0  1  0  0  0  0  0  0
  -25.2280  -36.2580   23.8660 C   0  0  0  0  0  3  0  0  0  0  0  0
  -27.3180  -37.1890   24.7570 C   0  0  0  0  0  1  0  0  0  0  0  0
  -26.2350  -37.3400   23.7880 N   0  0  0  0  0  0  0  0  0  0  0  0
  -25.8020  -38.2480   23.9370 H   0  0  0  0  0  0  0  0  0  0  0  0
  -26.2890  -31.6560   25.0930 C   0  0  1  0  0  0  0  0  0  0  0  0
  -25.1690  -31.3710   26.1200 C   0  0  0  0  0  1  0  0  0  0  0  0
  -26.9190  -30.3000   24.6940 C   0  0  0  0  0  1  0  0  0  0  0  0
  -27.4010  -32.4650   25.7990 C   0  0  0  0  0  1  0  0  0  0  0  0
  2  7  1  0
  3  7  2  0
  4  1  1  0
  4  2  2  0
  5  3  1  0
  6  5  2  0
  6  4  1  0
  7 17  1  0
  8  6  1  0
  9 15  1  0
  9 17  1  0
 10 15  1  0
 11 12  1  0
 11 10  1  0
 13 12  1  0
 13 22  1  0
 13 14  1  0
 15 14  1  0
 16  9  2  0
 17 18  1  0
 19 20  2  0
 20 39  1  0
 21 20  1  0
 21 24  1  0
 22 19  1  0
 22 23  1  0
 23 21  2  0
 24 25  1  0
 25 26  2  0
 27 30  1  0
 27 26  1  0
 28 27  2  0
 29 28  1  0
 29 24  2  0
 30 31  1  0
 31 32  1  0
 32 33  2  0
 34 33  1  0
 34 38  1  0
 35 34  2  0
 36 31  2  0
 36 35  1  0
 37 36  1  0
 39 40  1  0
 40 43  1  0
 40 42  1  0
 41 39  2  0
 44 45  1  0
 44 19  1  0
 46 44  1  0
 47  5  1  0
 47 48  1  0
 49 51  2  0
 50 49  1  0
 50  1  1  0
 52 50  1  0
 53 54  1  0
 53 49  1  0
 54 55  1  0
 56 58  1  0
 56 55  1  0
 57 68  2  0
 58 63  1  0
 59 67  1  0
 59 69  1  0
 60 66  1  0
 60 62  1  0
 61 67  1  0
 62 61  1  0
 63 62  2  0
 64 65  1  0
 64 58  2  0
 65 60  2  0
 66 59  1  0
 67 57  1  0
 69 71  2  0
 70 69  1  0
 72 70  1  0
 73 82  2  0
 73 78  1  0
 74 70  1  0
 74 78  1  0
 75 74  1  0
 76 77  1  0
 76 75  1  0
 77 73  1  0
 78 79  2  0
 79 80  1  0
 81 80  2  0
 82 81  1  0
 83 57  1  0
 83 84  1  0
 83 93  1  0
 84 87  1  0
 85 89  1  0
 85 84  1  0
 86 85  2  0
 89 88  1  0
 91 89  1  0
 91 92  1  0
 91 90  1  0
 93 96  1  1
 93 94  1  0
 95 93  1  0
M  ISO  4   9 100  17 100  55 101  56 101
M  END
>  <TORSDO>  (86) 
F 22

>  <SCORE>  (86) 
-13.187

>  <name>  (86) 
85

>  <ligand_id>  (86) 
85

>  <original_smiles>  (86) 
[H]c1c([H])c([H])c2c(c1[H])C([H])([H])C([H])([H])C([H])([H])C2([H])N([H])C(=O)C1([H])N(C(=O)C([H])(N([H])C(=O)C([H])(N([H])C([H])([H])[H])C([H])([H])[H])C(C([H])([H])[H])(C([H])([H])[H])C([H])([H])[H])C([H])([H])c2c([H])c(OC([H])([H])C([H])([H])C([H])([H])C(=O)N([H])C([H])([H])c3c([H])c(N([H])C(=O)N4C([H])([H])C([H])([H])C([H])([H])C([H])(n5nc(-c6c([H])c([H])c(Oc7c([H])c([H])c(F)c([H])c7F)c([H])c6[H])c(C(=O)N([H])[H])c5N([H])[H])C4([H])[H])c([H])c(C([H])([H])F)c3C([H])([H])[H])c([H])c([H])c2C1([H])[H]

>  <smiles>  (86) 
[H]c1c([H])c([H])c2c(c1[H])C([H])([H])C([H])([H])C([H])([H])C2([H])N([H])C(=O)C1([H])N(C(=O)C([H])(N([H])C(=O)C([H])(N([H])C([H])([H])[H])C([H])([H])[H])C(C([H])([H])[H])(C([H])([H])[H])C([H])([H])[H])C([H])([H])c2c([H])c(OC([H])([H])C([H])([H])C([H])([H])C(=O)N([H])C([H])([H])c3c([H])c(N([H])C(=O)N4C([H])([H])C([H])([H])C([H])([H])C([H])(n5nc(-c6c([H])c([H])c(Oc7c([H])c([H])c(F)c([H])c7F)c([H])c6[H])c(C(=O)N([H])[H])c5N([H])[H])C4([H])[H])c([H])c(C([H])([H])F)c3C([H])([H])[H])c([H])c([H])c2C1([H])[H]

$$$$
86:0:0
     RDKit          3D

 96104  0  0  1  0  0  0  0  0999 V2000
  -29.7330  -21.9060   19.0220 C   0  0  0  0  0  0  0  0  0  0  0  0
  -30.7560  -21.0610   19.2240 N   0  0  0  0  0  0  0  0  0  0  0  0
  -28.5420  -21.6280   19.1910 O   0  0  0  0  0  0  0  0  0  0  0  0
  -31.6580  -21.4350   18.9590 H   0  0  0  0  0  0  0  0  0  0  0  0
  -29.8100  -17.9040   21.0830 C   0  0  0  0  0  3  0  0  0  0  0  0
  -32.2180  -18.0070   20.7500 C   0  0  0  0  0  3  0  0  0  0  0  0
  -29.6600  -19.1250   20.3960 C   0  0  0  0  0  3  0  0  0  0  0  0
  -32.0700  -19.2240   20.0610 C   0  0  0  0  0  3  0  0  0  0  0  0
  -31.0910  -17.3450   21.2720 C   0  0  0  0  0  0  0  0  0  0  0  0
  -30.7950  -19.8020   19.8850 C   0  0  0  0  0  0  0  0  0  0  0  0
  -31.2590  -16.0340   22.0220 C   0  0  0  0  0  2  0  0  0  0  0  0
  -30.7630  -14.3040   20.3160 C   0  0  0  0  0  0  0  0  0  0  0  0
  -30.2740  -12.3210   18.9360 C   0  0  0  0  0  2  0  0  0  0  0  0
  -29.2790  -12.6280   17.8040 C   0  0  0  0  0  2  0  0  0  0  0  0
  -27.8300  -12.4810   18.3010 C   0  0  0  0  0  2  0  0  0  0  0  0
  -27.5750  -13.2550   19.6210 C   0  0  0  0  0  3  0  0  0  0  0  0
  -28.6690  -12.9390   20.6640 C   0  0  0  0  0  2  0  0  0  0  0  0
  -29.9880  -13.2190   20.0640 N   0  0  0  0  0  0  0  0  0  0  0  0
  -31.7230  -14.6320   19.6110 O   0  0  0  0  0  0  0  0  0  0  0  0
  -30.4760  -14.9450   21.4520 N   0  0  0  0  0  0  0  0  0  0  0  0
  -29.7040  -14.5920   21.9970 H   0  0  0  0  0  0  0  0  0  0  0  0
  -25.2030  -13.8690   20.4150 C   0  0  0  0  0  0  0  0  0  0  0  0
  -24.1460  -13.0970   20.8200 C   0  0  0  0  0  0  0  0  0  0  0  0
  -24.6020  -11.7440   20.7650 C   0  0  0  0  0  0  0  0  0  0  0  0
  -26.2370  -12.9850   20.1440 N   0  0  0  0  0  0  0  0  0  0  0  0
  -25.8790  -11.7020   20.4090 N   0  0  0  0  0  0  0  0  0  0  0  0
  -23.8800  -10.4820   20.9770 C   0  0  0  0  0  0  0  0  0  0  0  0
  -24.3360   -9.5180   21.9030 C   0  0  0  0  0  3  0  0  0  0  0  0
  -23.6150   -8.3210   22.1020 C   0  0  0  0  0  3  0  0  0  0  0  0
  -22.4250   -8.0800   21.3750 C   0  0  0  0  0  0  0  0  0  0  0  0
  -21.9890   -9.0330   20.4370 C   0  0  0  0  0  3  0  0  0  0  0  0
  -22.7110  -10.2220   20.2370 C   0  0  0  0  0  3  0  0  0  0  0  0
  -21.6740   -6.9340   21.4830 O   0  0  0  0  0  0  0  0  0  0  0  0
  -21.6460   -6.1980   22.6410 C   0  0  0  0  0  0  0  0  0  0  0  0
  -21.2450   -6.7620   23.8720 C   0  0  0  0  0  3  0  0  0  0  0  0
  -21.1640   -5.9530   25.0220 C   0  0  0  0  0  3  0  0  0  0  0  0
  -21.4730   -4.5810   24.9430 C   0  0  0  0  0  0  0  0  0  0  0  0
  -21.8670   -4.0180   23.7180 C   0  0  0  0  0  3  0  0  0  0  0  0
  -21.9500   -4.8240   22.5680 C   0  0  0  0  0  0  0  0  0  0  0  0
  -22.3090   -4.2720   21.3850 F   0  0  0  0  0  0  0  0  0  0  0  0
  -21.3880   -3.8020   26.0460 F   0  0  0  0  0  0  0  0  0  0  0  0
  -22.7610  -13.5770   21.1490 C   0  0  0  0  0  0  0  0  0  0  0  0
  -22.0640  -12.8740   22.0350 N   0  0  0  0  0  0  0  0  0  0  0  0
  -22.3070  -14.6090   20.6570 O   0  0  0  0  0  0  0  0  0  0  0  0
  -22.4450  -12.0390   22.4540 H   0  0  0  0  0  0  0  0  0  0  0  0
  -21.1360  -13.1750   22.2970 H   0  0  0  0  0  0  0  0  0  0  0  0
  -25.3660  -15.2390   20.2380 N   0  0  0  0  0  0  0  0  0  0  0  0
  -24.6080  -15.8980   20.3770 H   0  0  0  0  0  0  0  0  0  0  0  0
  -26.2140  -15.6740   19.8960 H   0  0  0  0  0  0  0  0  0  0  0  0
  -30.1140  -23.3040   18.5170 C   0  0  0  0  0  2  0  0  0  0  0  0
  -29.4430  -24.6670   20.4900 C   0  0  0  0  0  0  0  0  0  0  0  0
  -29.3430  -24.3460   19.1930 N   0  0  0  0  0  0  0  0  0  0  0  0
  -30.2720  -24.1490   21.2420 O   0  0  0  0  0  0  0  0  0  0  0  0
  -28.6360  -24.8260   18.6530 H   0  0  0  0  0  0  0  0  0  0  0  0
  -28.4560  -25.7080   21.0180 C   0  0  0  0  0  2  0  0  0  0  0  0
  -28.3850  -26.7870   20.0940 O   0  0  0  0  0  0  0  0  0  0  0  0
  -24.5710  -31.8850   23.2480 C   0  0  0  0  0  0  0  0  0  0  0  0
  -27.2100  -27.4840   20.1510 C   0  0  0  0  0  0  0  0  0  0  0  0
  -23.3550  -30.4790   21.6110 C   0  0  0  0  0  3  0  0  0  0  0  0
  -24.8040  -28.9420   20.1860 C   0  0  0  0  0  0  0  0  0  0  0  0
  -25.8730  -30.8550   21.3930 C   0  0  0  0  0  2  0  0  0  0  0  0
  -25.9600  -29.4840   20.7610 C   0  0  0  0  0  0  0  0  0  0  0  0
  -27.1700  -28.7610   20.7420 C   0  0  0  0  0  3  0  0  0  0  0  0
  -26.0430  -26.9380   19.5810 C   0  0  0  0  0  3  0  0  0  0  0  0
  -24.8360  -27.6640   19.5970 C   0  0  0  0  0  3  0  0  0  0  0  0
  -23.5560  -29.7930   20.2330 C   0  0  0  0  0  2  0  0  0  0  0  0
  -24.6180  -31.0870   22.1430 N   0  0  0  0  0  0  0  0  0  0  0  0
  -23.4940  -32.1550   23.7950 O   0  0  0  0  0  0  0  0  0  0  0  0
  -22.7130  -29.4590   22.5780 C   0  0  0  0  0  0  0  0  0  0  0  0
  -21.3890  -29.2760   22.4590 N   0  0  0  0  0  0  0  0  0  0  0  0
  -23.4030  -28.8330   23.3880 O   0  0  0  0  0  0  0  0  0  0  0  0
  -20.8930  -29.8340   21.7770 H   0  0  0  0  0  0  0  0  0  0  0  0
  -18.0180  -28.0820   22.9700 C   0  0  0  0  0  0  0  0  0  0  0  0
  -20.5760  -28.3400   23.2340 C   0  0  0  0  0  3  0  0  0  0  0  0
  -20.6770  -26.9080   22.6580 C   0  0  0  0  0  2  0  0  0  0  0  0
  -19.5720  -26.5840   21.6480 C   0  0  0  0  0  2  0  0  0  0  0  0
  -18.1930  -26.7310   22.2970 C   0  0  0  0  0  2  0  0  0  0  0  0
  -19.1390  -28.8450   23.3950 C   0  0  0  0  0  0  0  0  0  0  0  0
  -18.9220  -30.1100   23.9820 C   0  0  0  0  0  3  0  0  0  0  0  0
  -17.6190  -30.6130   24.1490 C   0  0  0  0  0  3  0  0  0  0  0  0
  -16.5130  -29.8470   23.7410 C   0  0  0  0  0  3  0  0  0  0  0  0
  -16.7140  -28.5830   23.1570 C   0  0  0  0  0  3  0  0  0  0  0  0
  -25.8630  -32.5150   23.8590 C   0  0  0  0  0  3  0  0  0  0  0  0
  -25.5560  -33.9110   24.1940 N   0  0  0  0  0  0  0  0  0  0  0  0
  -25.8830  -34.9640   23.4310 C   0  0  0  0  0  0  0  0  0  0  0  0
  -26.5470  -34.8620   22.3950 O   0  0  0  0  0  0  0  0  0  0  0  0
  -24.9690  -34.0660   25.0000 H   0  0  0  0  0  0  0  0  0  0  0  0
  -24.1530  -36.7550   23.0820 C   0  0  0  0  0  1  0  0  0  0  0  0
  -25.3950  -36.3510   23.8900 C   0  0  0  0  0  3  0  0  0  0  0  0
  -27.5330  -37.2360   24.7140 C   0  0  0  0  0  1  0  0  0  0  0  0
  -26.4270  -37.4050   23.7750 N   0  0  0  0  0  0  0  0  0  0  0  0
  -26.0210  -38.3240   23.9260 H   0  0  0  0  0  0  0  0  0  0  0  0
  -26.3940  -31.7390   25.1260 C   0  0  1  0  0  0  0  0  0  0  0  0
  -25.3130  -31.4930   26.2040 C   0  0  0  0  0  1  0  0  0  0  0  0
  -26.9750  -30.3630   24.7180 C   0  0  0  0  0  1  0  0  0  0  0  0
  -27.5490  -32.5320   25.7820 C   0  0  0  0  0  1  0  0  0  0  0  0
  1  3  2  0
  1  2  1  0
  2 10  1  0
  4  2  1  0
  5  9  1  0
  6  9  2  0
  7  5  2  0
  8  6  1  0
  9 11  1  0
 10  8  2  0
 10  7  1  0
 12 20  1  0
 13 18  1  0
 14 15  1  0
 14 13  1  0
 16 15  1  0
 16 25  1  0
 16 17  1  0
 18 12  1  0
 18 17  1  0
 19 12  2  0
 20 21  1  0
 20 11  1  0
 22 23  2  0
 23 42  1  0
 24 23  1  0
 24 27  1  0
 25 26  1  0
 25 22  1  0
 26 24  2  0
 27 28  1  0
 28 29  2  0
 30 33  1  0
 30 29  1  0
 31 30  2  0
 32 31  1  0
 32 27  2  0
 33 34  1  0
 34 35  1  0
 35 36  2  0
 37 36  1  0
 37 41  1  0
 38 37  2  0
 39 34  2  0
 39 38  1  0
 40 39  1  0
 42 43  1  0
 43 46  1  0
 43 45  1  0
 44 42  2  0
 47 48  1  0
 47 22  1  0
 49 47  1  0
 50  1  1  0
 50 52  1  0
 51 55  1  0
 51 53  2  0
 52 51  1  0
 54 52  1  0
 56 58  1  0
 56 55  1  0
 57 68  2  0
 58 63  1  0
 59 67  1  0
 59 69  1  0
 60 66  1  0
 60 62  1  0
 61 67  1  0
 62 61  1  0
 63 62  2  0
 64 65  1  0
 64 58  2  0
 65 60  2  0
 66 59  1  0
 67 57  1  0
 69 71  2  0
 70 69  1  0
 72 70  1  0
 73 82  2  0
 73 78  1  0
 74 70  1  0
 74 78  1  0
 75 74  1  0
 76 77  1  0
 76 75  1  0
 77 73  1  0
 78 79  2  0
 79 80  1  0
 81 80  2  0
 82 81  1  0
 83 57  1  0
 83 84  1  0
 83 93  1  0
 84 87  1  0
 85 89  1  0
 85 84  1  0
 86 85  2  0
 89 88  1  0
 91 89  1  0
 91 92  1  0
 91 90  1  0
 93 96  1  1
 93 94  1  0
 95 93  1  0
M  ISO  4  12 100  20 100  55 101  56 101
M  END
>  <TORSDO>  (87) 
F 21

>  <SCORE>  (87) 
-13.450

>  <name>  (87) 
86

>  <ligand_id>  (87) 
86

>  <original_smiles>  (87) 
[H]c1c([H])c([H])c2c(c1[H])C([H])([H])C([H])([H])C([H])([H])C2([H])N([H])C(=O)C1([H])N(C(=O)C([H])(N([H])C(=O)C([H])(N([H])C([H])([H])[H])C([H])([H])[H])C(C([H])([H])[H])(C([H])([H])[H])C([H])([H])[H])C([H])([H])c2c([H])c(OC([H])([H])C(=O)N([H])C([H])([H])C(=O)N([H])c3c([H])c([H])c(C([H])([H])N([H])C(=O)N4C([H])([H])C([H])([H])C([H])([H])C([H])(n5nc(-c6c([H])c([H])c(Oc7c([H])c([H])c(F)c([H])c7F)c([H])c6[H])c(C(=O)N([H])[H])c5N([H])[H])C4([H])[H])c([H])c3[H])c([H])c([H])c2C1([H])[H]

>  <smiles>  (87) 
[H]c1c([H])c([H])c2c(c1[H])C([H])([H])C([H])([H])C([H])([H])C2([H])N([H])C(=O)C1([H])N(C(=O)C([H])(N([H])C(=O)C([H])(N([H])C([H])([H])[H])C([H])([H])[H])C(C([H])([H])[H])(C([H])([H])[H])C([H])([H])[H])C([H])([H])c2c([H])c(OC([H])([H])C(=O)N([H])C([H])([H])C(=O)N([H])c3c([H])c([H])c(C([H])([H])N([H])C(=O)N4C([H])([H])C([H])([H])C([H])([H])C([H])(n5nc(-c6c([H])c([H])c(Oc7c([H])c([H])c(F)c([H])c7F)c([H])c6[H])c(C(=O)N([H])[H])c5N([H])[H])C4([H])[H])c([H])c3[H])c([H])c([H])c2C1([H])[H]

$$$$
87:0:0
     RDKit          3D

 93101  0  0  1  0  0  0  0  0999 V2000
  -29.1320  -23.0800   18.6970 C   0  0  0  0  0  0  0  0  0  0  0  0
  -29.5350  -21.7940   18.8750 N   0  0  0  0  0  0  0  0  0  0  0  0
  -29.0050  -23.4230   17.5210 O   0  0  0  0  0  0  0  0  0  0  0  0
  -29.6640  -21.3920   17.9590 H   0  0  0  0  0  0  0  0  0  0  0  0
  -30.5550  -18.5900   21.5580 C   0  0  0  0  0  3  0  0  0  0  0  0
  -30.3750  -19.8800   22.1020 C   0  0  0  0  0  3  0  0  0  0  0  0
  -30.0290  -19.5060   19.3820 C   0  0  0  0  0  3  0  0  0  0  0  0
  -30.3790  -18.3830   20.1790 C   0  0  0  0  0  0  0  0  0  0  0  0
  -29.8510  -20.8220   19.9000 C   0  0  0  0  0  0  0  0  0  0  0  0
  -30.0160  -20.9910   21.3050 C   0  0  0  0  0  0  0  0  0  0  0  0
  -29.7960  -22.4710   22.1580 Cl  0  0  0  0  0  0  0  0  0  0  0  0
  -30.6310  -17.0180   19.4970 C   0  0  0  0  0  2  0  0  0  0  0  0
  -31.1110  -14.6170   20.0120 C   0  0  0  0  0  0  0  0  0  0  0  0
  -30.7400  -12.4120   18.9790 C   0  0  0  0  0  2  0  0  0  0  0  0
  -29.7910  -12.6350   17.7810 C   0  0  0  0  0  2  0  0  0  0  0  0
  -28.3170  -12.5750   18.2290 C   0  0  0  0  0  2  0  0  0  0  0  0
  -28.0340  -13.4200   19.5030 C   0  0  0  0  0  3  0  0  0  0  0  0
  -29.1100  -13.1890   20.5910 C   0  0  0  0  0  2  0  0  0  0  0  0
  -30.4230  -13.4410   19.9850 N   0  0  0  0  0  0  0  0  0  0  0  0
  -32.2720  -14.7010   19.6030 O   0  0  0  0  0  0  0  0  0  0  0  0
  -30.3720  -15.7370   20.2170 N   0  0  0  0  0  0  0  0  0  0  0  0
  -29.4330  -15.5920   20.5610 H   0  0  0  0  0  0  0  0  0  0  0  0
  -25.6860  -14.1090   20.2890 C   0  0  0  0  0  0  0  0  0  0  0  0
  -24.6010  -13.3720   20.6870 C   0  0  0  0  0  0  0  0  0  0  0  0
  -25.0090  -12.0050   20.6410 C   0  0  0  0  0  0  0  0  0  0  0  0
  -26.6870  -13.1880   20.0220 N   0  0  0  0  0  0  0  0  0  0  0  0
  -26.2870  -11.9180   20.2950 N   0  0  0  0  0  0  0  0  0  0  0  0
  -24.2410  -10.7710   20.8520 C   0  0  0  0  0  0  0  0  0  0  0  0
  -24.6310   -9.8130   21.8130 C   0  0  0  0  0  3  0  0  0  0  0  0
  -23.8660   -8.6440   22.0100 C   0  0  0  0  0  3  0  0  0  0  0  0
  -22.6940   -8.4240   21.2470 C   0  0  0  0  0  0  0  0  0  0  0  0
  -22.3220   -9.3710   20.2750 C   0  0  0  0  0  3  0  0  0  0  0  0
  -23.0890  -10.5310   20.0760 C   0  0  0  0  0  3  0  0  0  0  0  0
  -21.9030   -7.3060   21.3510 O   0  0  0  0  0  0  0  0  0  0  0  0
  -21.7710   -6.6260   22.5360 C   0  0  0  0  0  0  0  0  0  0  0  0
  -21.3010   -7.2550   23.7100 C   0  0  0  0  0  3  0  0  0  0  0  0
  -21.1130   -6.5010   24.8850 C   0  0  0  0  0  3  0  0  0  0  0  0
  -21.3850   -5.1200   24.8890 C   0  0  0  0  0  0  0  0  0  0  0  0
  -21.8500   -4.4910   23.7190 C   0  0  0  0  0  3  0  0  0  0  0  0
  -22.0390   -5.2420   22.5460 C   0  0  0  0  0  0  0  0  0  0  0  0
  -22.4640   -4.6250   21.4170 F   0  0  0  0  0  0  0  0  0  0  0  0
  -21.1970   -4.3950   26.0160 F   0  0  0  0  0  0  0  0  0  0  0  0
  -23.2290  -13.9000   20.9940 C   0  0  0  0  0  0  0  0  0  0  0  0
  -22.5050  -13.2440   21.8940 N   0  0  0  0  0  0  0  0  0  0  0  0
  -22.8090  -14.9320   20.4740 O   0  0  0  0  0  0  0  0  0  0  0  0
  -22.8570  -12.4080   22.3390 H   0  0  0  0  0  0  0  0  0  0  0  0
  -21.5840  -13.5810   22.1400 H   0  0  0  0  0  0  0  0  0  0  0  0
  -25.8960  -15.4730   20.1090 N   0  0  0  0  0  0  0  0  0  0  0  0
  -25.1560  -16.1530   20.2530 H   0  0  0  0  0  0  0  0  0  0  0  0
  -26.7450  -15.8870   19.7450 H   0  0  0  0  0  0  0  0  0  0  0  0
  -28.8110  -24.1520   19.7710 C   0  0  0  0  0  2  0  0  0  0  0  0
  -28.6640  -25.5890   19.1650 C   0  0  0  0  0  2  0  0  0  0  0  0
  -28.4140  -26.6570   20.0990 O   0  0  0  0  0  0  0  0  0  0  0  0
  -24.5670  -31.8030   23.1750 C   0  0  0  0  0  0  0  0  0  0  0  0
  -27.2250  -27.3680   20.0660 C   0  0  0  0  0  0  0  0  0  0  0  0
  -23.3730  -30.4140   21.5170 C   0  0  0  0  0  3  0  0  0  0  0  0
  -24.8280  -28.8930   20.0800 C   0  0  0  0  0  0  0  0  0  0  0  0
  -25.9040  -30.7680   21.3380 C   0  0  0  0  0  2  0  0  0  0  0  0
  -25.9850  -29.4050   20.6810 C   0  0  0  0  0  0  0  0  0  0  0  0
  -27.1810  -28.6480   20.6740 C   0  0  0  0  0  3  0  0  0  0  0  0
  -26.0400  -26.8640   19.4780 C   0  0  0  0  0  3  0  0  0  0  0  0
  -24.8540  -27.6220   19.4820 C   0  0  0  0  0  3  0  0  0  0  0  0
  -23.5830  -29.7510   20.1320 C   0  0  0  0  0  2  0  0  0  0  0  0
  -24.6320  -31.0090   22.0680 N   0  0  0  0  0  0  0  0  0  0  0  0
  -23.4810  -32.0690   23.7100 O   0  0  0  0  0  0  0  0  0  0  0  0
  -22.7250  -29.3770   22.4630 C   0  0  0  0  0  0  0  0  0  0  0  0
  -21.4040  -29.1800   22.3190 N   0  0  0  0  0  0  0  0  0  0  0  0
  -23.4050  -28.7550   23.2830 O   0  0  0  0  0  0  0  0  0  0  0  0
  -20.9200  -29.7350   21.6270 H   0  0  0  0  0  0  0  0  0  0  0  0
  -18.0360  -27.9360   22.7480 C   0  0  0  0  0  0  0  0  0  0  0  0
  -20.5850  -28.2310   23.0720 C   0  0  0  0  0  3  0  0  0  0  0  0
  -20.7200  -26.8010   22.4990 C   0  0  0  0  0  2  0  0  0  0  0  0
  -19.6430  -26.4620   21.4650 C   0  0  0  0  0  2  0  0  0  0  0  0
  -18.2470  -26.5870   22.0810 C   0  0  0  0  0  2  0  0  0  0  0  0
  -19.1350  -28.7160   23.1990 C   0  0  0  0  0  0  0  0  0  0  0  0
  -18.8830  -29.9780   23.7790 C   0  0  0  0  0  3  0  0  0  0  0  0
  -17.5680  -30.4600   23.9130 C   0  0  0  0  0  3  0  0  0  0  0  0
  -16.4850  -29.6780   23.4780 C   0  0  0  0  0  3  0  0  0  0  0  0
  -16.7200  -28.4180   22.9000 C   0  0  0  0  0  3  0  0  0  0  0  0
  -25.8470  -32.4330   23.8080 C   0  0  0  0  0  3  0  0  0  0  0  0
  -26.3690  -31.6450   25.0700 C   0  0  1  0  0  0  0  0  0  0  0  0
  -25.2750  -31.3730   26.1310 C   0  0  0  0  0  1  0  0  0  0  0  0
  -26.9670  -30.2830   24.6530 C   0  0  0  0  0  1  0  0  0  0  0  0
  -27.5160  -32.4370   25.7420 C   0  0  0  0  0  1  0  0  0  0  0  0
  -25.5300  -33.8220   24.1580 N   0  0  0  0  0  0  0  0  0  0  0  0
  -25.8510  -34.8880   23.4120 C   0  0  0  0  0  0  0  0  0  0  0  0
  -26.5190  -34.8020   22.3770 O   0  0  0  0  0  0  0  0  0  0  0  0
  -24.9360  -33.9610   24.9640 H   0  0  0  0  0  0  0  0  0  0  0  0
  -24.1000  -36.6580   23.0860 C   0  0  0  0  0  1  0  0  0  0  0  0
  -25.3520  -36.2650   23.8870 C   0  0  0  0  0  3  0  0  0  0  0  0
  -27.4830  -37.1570   24.7170 C   0  0  0  0  0  1  0  0  0  0  0  0
  -26.3740  -37.3290   23.7820 N   0  0  0  0  0  0  0  0  0  0  0  0
  -25.9610  -38.2450   23.9430 H   0  0  0  0  0  0  0  0  0  0  0  0
  1  2  1  0
  1 51  1  0
  2  9  1  0
  3  1  2  0
  4  2  1  0
  5  6  1  0
  7  9  2  0
  7  8  1  0
  8  5  2  0
  9 10  1  0
 10  6  2  0
 10 11  1  0
 12  8  1  0
 12 21  1  0
 13 21  1  0
 14 19  1  0
 15 16  1  0
 15 14  1  0
 17 16  1  0
 17 26  1  0
 17 18  1  0
 19 13  1  0
 19 18  1  0
 20 13  2  0
 21 22  1  0
 23 24  2  0
 24 43  1  0
 25 24  1  0
 25 28  1  0
 26 23  1  0
 26 27  1  0
 27 25  2  0
 28 29  1  0
 29 30  2  0
 31 34  1  0
 31 30  1  0
 32 31  2  0
 33 32  1  0
 33 28  2  0
 34 35  1  0
 35 40  2  0
 35 36  1  0
 36 37  2  0
 37 38  1  0
 38 42  1  0
 39 38  2  0
 40 39  1  0
 41 40  1  0
 43 44  1  0
 44 47  1  0
 44 46  1  0
 45 43  2  0
 48 49  1  0
 48 23  1  0
 50 48  1  0
 52 51  1  0
 52 53  1  0
 54 65  2  0
 55 53  1  0
 55 60  1  0
 56 64  1  0
 56 66  1  0
 57 63  1  0
 57 59  1  0
 58 64  1  0
 59 58  1  0
 60 59  2  0
 61 62  1  0
 61 55  2  0
 62 57  2  0
 63 56  1  0
 64 54  1  0
 66 68  2  0
 67 66  1  0
 69 67  1  0
 70 79  2  0
 70 75  1  0
 71 67  1  0
 71 75  1  0
 72 71  1  0
 73 74  1  0
 73 72  1  0
 74 70  1  0
 75 76  2  0
 76 77  1  0
 78 77  2  0
 79 78  1  0
 80 54  1  0
 80 85  1  0
 80 81  1  0
 81 84  1  1
 81 82  1  0
 83 81  1  0
 85 88  1  0
 86 90  1  0
 86 85  1  0
 87 86  2  0
 90 89  1  0
 92 90  1  0
 92 93  1  0
 92 91  1  0
M  ISO  4  13 100  21 100  52 101  53 101
M  END
>  <TORSDO>  (88) 
F 20

>  <SCORE>  (88) 
-13.401

>  <name>  (88) 
87

>  <ligand_id>  (88) 
87

>  <original_smiles>  (88) 
[H]c1c([H])c([H])c2c(c1[H])C([H])([H])C([H])([H])C([H])([H])C2([H])N([H])C(=O)C1([H])N(C(=O)C([H])(N([H])C(=O)C([H])(N([H])C([H])([H])[H])C([H])([H])[H])C(C([H])([H])[H])(C([H])([H])[H])C([H])([H])[H])C([H])([H])c2c([H])c(OC([H])([H])C([H])([H])C(=O)N([H])c3c([H])c(C([H])([H])N([H])C(=O)N4C([H])([H])C([H])([H])C([H])([H])C([H])(n5nc(-c6c([H])c([H])c(Oc7c([H])c([H])c(F)c([H])c7F)c([H])c6[H])c(C(=O)N([H])[H])c5N([H])[H])C4([H])[H])c([H])c([H])c3Cl)c([H])c([H])c2C1([H])[H]

>  <smiles>  (88) 
[H]c1c([H])c([H])c2c(c1[H])C([H])([H])C([H])([H])C([H])([H])C2([H])N([H])C(=O)C1([H])N(C(=O)C([H])(N([H])C(=O)C([H])(N([H])C([H])([H])[H])C([H])([H])[H])C(C([H])([H])[H])(C([H])([H])[H])C([H])([H])[H])C([H])([H])c2c([H])c(OC([H])([H])C([H])([H])C(=O)N([H])c3c([H])c(C([H])([H])N([H])C(=O)N4C([H])([H])C([H])([H])C([H])([H])C([H])(n5nc(-c6c([H])c([H])c(Oc7c([H])c([H])c(F)c([H])c7F)c([H])c6[H])c(C(=O)N([H])[H])c5N([H])[H])C4([H])[H])c([H])c([H])c3Cl)c([H])c([H])c2C1([H])[H]

$$$$
88:0:0
     RDKit          3D

 98106  0  0  1  0  0  0  0  0999 V2000
  -32.0180  -18.8740   21.5270 C   0  0  0  0  0  3  0  0  0  0  0  0
  -31.1760  -19.8180   20.9210 C   0  0  0  0  0  3  0  0  0  0  0  0
  -31.6330  -17.5250   21.5900 C   0  0  0  0  0  3  0  0  0  0  0  0
  -29.9240  -19.4450   20.3860 C   0  0  0  0  0  0  0  0  0  0  0  0
  -29.5170  -18.0700   20.4620 C   0  0  0  0  0  0  0  0  0  0  0  0
  -30.3990  -17.1020   21.0480 C   0  0  0  0  0  0  0  0  0  0  0  0
  -30.8640  -14.6620   20.9500 C   0  0  0  0  0  0  0  0  0  0  0  0
  -30.6600  -12.4790   19.8490 C   0  0  0  0  0  2  0  0  0  0  0  0
  -29.7770  -12.6590   18.5970 C   0  0  0  0  0  2  0  0  0  0  0  0
  -28.2870  -12.5030   18.9670 C   0  0  0  0  0  2  0  0  0  0  0  0
  -27.8730  -13.3460   20.2030 C   0  0  0  0  0  3  0  0  0  0  0  0
  -28.8800  -13.1670   21.3600 C   0  0  0  0  0  2  0  0  0  0  0  0
  -30.2230  -13.4730   20.8400 N   0  0  0  0  0  0  0  0  0  0  0  0
  -32.0440  -14.8210   20.6300 O   0  0  0  0  0  0  0  0  0  0  0  0
  -30.0500  -15.7180   21.1630 N   0  0  0  0  0  0  0  0  0  0  0  0
  -29.0850  -15.4870   21.3290 H   0  0  0  0  0  0  0  0  0  0  0  0
  -25.4380  -13.9220   20.7940 C   0  0  0  0  0  0  0  0  0  0  0  0
  -24.3590  -13.1340   21.0830 C   0  0  0  0  0  0  0  0  0  0  0  0
  -24.8390  -11.7880   21.0610 C   0  0  0  0  0  0  0  0  0  0  0  0
  -26.5050  -13.0550   20.6140 N   0  0  0  0  0  0  0  0  0  0  0  0
  -26.1440  -11.7650   20.8300 N   0  0  0  0  0  0  0  0  0  0  0  0
  -24.1190  -10.5160   21.1930 C   0  0  0  0  0  0  0  0  0  0  0  0
  -24.5240   -9.5350   22.1250 C   0  0  0  0  0  3  0  0  0  0  0  0
  -23.8050   -8.3270   22.2490 C   0  0  0  0  0  3  0  0  0  0  0  0
  -22.6700   -8.0900   21.4380 C   0  0  0  0  0  0  0  0  0  0  0  0
  -22.2850   -9.0600   20.4970 C   0  0  0  0  0  3  0  0  0  0  0  0
  -23.0030  -10.2600   20.3710 C   0  0  0  0  0  3  0  0  0  0  0  0
  -21.9260   -6.9350   21.4710 O   0  0  0  0  0  0  0  0  0  0  0  0
  -21.8470   -6.1600   22.6000 C   0  0  0  0  0  0  0  0  0  0  0  0
  -21.3720   -6.6730   23.8260 C   0  0  0  0  0  3  0  0  0  0  0  0
  -21.2490   -5.8240   24.9450 C   0  0  0  0  0  3  0  0  0  0  0  0
  -21.5830   -4.4610   24.8350 C   0  0  0  0  0  0  0  0  0  0  0  0
  -22.0510   -3.9480   23.6120 C   0  0  0  0  0  3  0  0  0  0  0  0
  -22.1810   -4.7940   22.4980 C   0  0  0  0  0  0  0  0  0  0  0  0
  -22.6110   -4.2900   21.3160 F   0  0  0  0  0  0  0  0  0  0  0  0
  -21.4560   -3.6430   25.9060 F   0  0  0  0  0  0  0  0  0  0  0  0
  -22.9470  -13.5930   21.2950 C   0  0  0  0  0  0  0  0  0  0  0  0
  -22.1890  -12.8780   22.1190 N   0  0  0  0  0  0  0  0  0  0  0  0
  -22.5240  -14.6210   20.7690 O   0  0  0  0  0  0  0  0  0  0  0  0
  -22.5460  -12.0450   22.5630 H   0  0  0  0  0  0  0  0  0  0  0  0
  -21.2370  -13.1610   22.3080 H   0  0  0  0  0  0  0  0  0  0  0  0
  -25.5990  -15.2990   20.6640 N   0  0  0  0  0  0  0  0  0  0  0  0
  -24.7630  -15.8460   20.8440 H   0  0  0  0  0  0  0  0  0  0  0  0
  -26.3870  -15.6880   21.1600 H   0  0  0  0  0  0  0  0  0  0  0  0
  -29.0460  -20.5850   19.8280 C   0  0  0  0  0  2  0  0  0  0  0  0
  -29.7010  -22.8280   18.7610 C   0  0  0  0  0  0  0  0  0  0  0  0
  -30.3490  -20.7470   17.7190 C   0  0  0  0  0  1  0  0  0  0  0  0
  -29.6850  -21.4650   18.8180 N   0  0  0  0  0  0  0  0  0  0  0  0
  -30.3180  -23.4120   17.8600 O   0  0  0  0  0  0  0  0  0  0  0  0
  -28.9490  -23.5690   19.7720 C   0  0  0  0  0  3  0  0  0  0  0  0
  -29.2510  -24.8650   20.0020 C   0  0  0  0  0  3  0  0  0  0  0  0
  -28.5690  -25.7800   20.9960 C   0  0  0  0  0  2  0  0  0  0  0  0
  -28.5670  -27.1210   20.5090 O   0  0  0  0  0  0  0  0  0  0  0  0
  -24.6320  -32.2380   23.4690 C   0  0  0  0  0  0  0  0  0  0  0  0
  -27.3660  -27.7890   20.5060 C   0  0  0  0  0  0  0  0  0  0  0  0
  -23.4610  -30.7930   21.8390 C   0  0  0  0  0  3  0  0  0  0  0  0
  -24.9460  -29.2390   20.4740 C   0  0  0  0  0  0  0  0  0  0  0  0
  -25.9820  -31.1750   21.6670 C   0  0  0  0  0  2  0  0  0  0  0  0
  -26.0910  -29.7990   21.0530 C   0  0  0  0  0  0  0  0  0  0  0  0
  -27.3020  -29.0810   21.0690 C   0  0  0  0  0  3  0  0  0  0  0  0
  -26.2060  -27.2300   19.9250 C   0  0  0  0  0  3  0  0  0  0  0  0
  -24.9930  -27.9490   19.9170 C   0  0  0  0  0  3  0  0  0  0  0  0
  -23.6940  -30.0790   20.4820 C   0  0  0  0  0  2  0  0  0  0  0  0
  -24.7100  -31.4160   22.3850 N   0  0  0  0  0  0  0  0  0  0  0  0
  -23.5410  -32.5130   23.9830 O   0  0  0  0  0  0  0  0  0  0  0  0
  -22.8070  -29.7860   22.8100 C   0  0  0  0  0  0  0  0  0  0  0  0
  -21.5050  -29.5270   22.6120 N   0  0  0  0  0  0  0  0  0  0  0  0
  -23.4690  -29.2330   23.6930 O   0  0  0  0  0  0  0  0  0  0  0  0
  -21.0320  -30.0110   21.8610 H   0  0  0  0  0  0  0  0  0  0  0  0
  -18.1950  -28.1200   22.9270 C   0  0  0  0  0  0  0  0  0  0  0  0
  -20.6970  -28.5830   23.3790 C   0  0  0  0  0  3  0  0  0  0  0  0
  -20.9460  -27.1320   22.9160 C   0  0  0  0  0  2  0  0  0  0  0  0
  -19.9580  -26.6620   21.8440 C   0  0  0  0  0  2  0  0  0  0  0  0
  -18.5190  -26.7490   22.3620 C   0  0  0  0  0  2  0  0  0  0  0  0
  -19.2190  -28.9890   23.3880 C   0  0  0  0  0  0  0  0  0  0  0  0
  -18.8700  -30.2690   23.8730 C   0  0  0  0  0  3  0  0  0  0  0  0
  -17.5260  -30.6850   23.9000 C   0  0  0  0  0  3  0  0  0  0  0  0
  -16.5140  -29.8180   23.4500 C   0  0  0  0  0  3  0  0  0  0  0  0
  -16.8470  -28.5370   22.9740 C   0  0  0  0  0  3  0  0  0  0  0  0
  -25.9040  -32.8900   24.0930 C   0  0  0  0  0  3  0  0  0  0  0  0
  -25.5950  -34.3060   24.3440 N   0  0  0  0  0  0  0  0  0  0  0  0
  -25.9530  -35.3160   23.5380 C   0  0  0  0  0  0  0  0  0  0  0  0
  -26.6480  -35.1570   22.5290 O   0  0  0  0  0  0  0  0  0  0  0  0
  -24.9850  -34.5120   25.1210 H   0  0  0  0  0  0  0  0  0  0  0  0
  -24.2280  -37.0830   23.0650 C   0  0  0  0  0  1  0  0  0  0  0  0
  -25.4560  -36.7240   23.9150 C   0  0  0  0  0  3  0  0  0  0  0  0
  -27.5770  -37.6460   24.7370 C   0  0  0  0  0  1  0  0  0  0  0  0
  -26.4880  -37.7730   23.7710 N   0  0  0  0  0  0  0  0  0  0  0  0
  -26.0770  -38.6960   23.8770 H   0  0  0  0  0  0  0  0  0  0  0  0
  -26.3910  -32.1810   25.4140 C   0  0  1  0  0  0  0  0  0  0  0  0
  -25.2640  -31.9690   26.4520 C   0  0  0  0  0  1  0  0  0  0  0  0
  -27.0100  -30.7970   25.0990 C   0  0  0  0  0  1  0  0  0  0  0  0
  -27.5030  -33.0290   26.0800 C   0  0  0  0  0  1  0  0  0  0  0  0
  -28.1290  -17.6300   19.9690 C   0  0  0  0  0  2  0  0  0  0  0  0
  -26.7650  -16.5340   18.2380 C   0  0  0  0  0  1  0  0  0  0  0  0
  -28.5440  -18.0440   17.5340 C   0  0  0  0  0  1  0  0  0  0  0  0
  -28.0890  -17.1000   18.5780 N   0  0  1  0  0  4  0  0  0  0  0  0
  -28.7470  -16.3370   18.5450 H   0  0  0  0  0  0  0  0  0  0  0  0
  1  3  1  0
  2  1  2  0
  4  5  2  0
  4  2  1  0
  5  6  1  0
  6 15  1  0
  6  3  2  0
  7 15  1  0
  8 13  1  0
  9 10  1  0
  9  8  1  0
 11 10  1  0
 11 20  1  0
 11 12  1  0
 13  7  1  0
 13 12  1  0
 14  7  2  0
 15 16  1  0
 17 18  2  0
 18 37  1  0
 19 18  1  0
 19 22  1  0
 20 17  1  0
 20 21  1  0
 21 19  2  0
 22 23  1  0
 23 24  2  0
 25 28  1  0
 25 24  1  0
 26 25  2  0
 27 26  1  0
 27 22  2  0
 28 29  1  0
 29 30  1  0
 30 31  2  0
 32 31  1  0
 32 36  1  0
 33 32  2  0
 34 29  2  0
 34 33  1  0
 35 34  1  0
 37 38  1  0
 38 41  1  0
 38 40  1  0
 39 37  2  0
 42 17  1  0
 42 43  1  0
 42 44  1  0
 45  4  1  0
 46 48  1  0
 46 50  1  0
 47 48  1  0
 48 45  1  0
 49 46  2  0
 50 51  2  0
 51 52  1  0
 53 52  1  0
 54 65  2  0
 55 53  1  0
 55 60  1  0
 56 64  1  0
 56 66  1  0
 57 63  1  0
 57 59  1  0
 58 64  1  0
 59 60  2  0
 59 58  1  0
 61 55  2  0
 62 61  1  0
 62 57  2  0
 63 56  1  0
 64 54  1  0
 66 68  2  0
 67 66  1  0
 69 67  1  0
 70 79  2  0
 70 75  1  0
 71 67  1  0
 71 75  1  0
 72 71  1  0
 73 74  1  0
 73 72  1  0
 74 70  1  0
 75 76  2  0
 76 77  1  0
 78 77  2  0
 79 78  1  0
 80 54  1  0
 80 81  1  0
 80 90  1  0
 81 84  1  0
 82 86  1  0
 82 81  1  0
 83 82  2  0
 86 85  1  0
 88 89  1  0
 88 86  1  0
 88 87  1  0
 90 93  1  1
 90 91  1  0
 92 90  1  0
 94  5  1  0
 95 97  1  0
 96 97  1  0
 97 94  1  0
 97 98  1  1
M  ISO  4   7 100  15 100  52 101  53 101
M  END
>  <TORSDO>  (89) 
F 22

>  <SCORE>  (89) 
-11.028

>  <name>  (89) 
88

>  <ligand_id>  (89) 
88

>  <original_smiles>  (89) 
[H]C(C(=O)N(C([H])([H])[H])C([H])([H])c1c([H])c([H])c([H])c(N([H])C(=O)N2C([H])([H])C([H])([H])C([H])([H])C([H])(n3nc(-c4c([H])c([H])c(Oc5c([H])c([H])c(F)c([H])c5F)c([H])c4[H])c(C(=O)N([H])[H])c3N([H])[H])C2([H])[H])c1C([H])([H])[N+]([H])(C([H])([H])[H])C([H])([H])[H])=C([H])C([H])([H])Oc1c([H])c([H])c2c(c1[H])C([H])([H])N(C(=O)C([H])(N([H])C(=O)C([H])(N([H])C([H])([H])[H])C([H])([H])[H])C(C([H])([H])[H])(C([H])([H])[H])C([H])([H])[H])C([H])(C(=O)N([H])C1([H])c3c([H])c([H])c([H])c([H])c3C([H])([H])C([H])([H])C1([H])[H])C2([H])[H]

>  <smiles>  (89) 
[H]C(C(=O)N(C([H])([H])[H])C([H])([H])c1c([H])c([H])c([H])c(N([H])C(=O)N2C([H])([H])C([H])([H])C([H])([H])C([H])(n3nc(-c4c([H])c([H])c(Oc5c([H])c([H])c(F)c([H])c5F)c([H])c4[H])c(C(=O)N([H])[H])c3N([H])[H])C2([H])[H])c1C([H])([H])[N+]([H])(C([H])([H])[H])C([H])([H])[H])=C([H])C([H])([H])Oc1c([H])c([H])c2c(c1[H])C([H])([H])N(C(=O)C([H])(N([H])C(=O)C([H])(N([H])C([H])([H])[H])C([H])([H])[H])C(C([H])([H])[H])(C([H])([H])[H])C([H])([H])[H])C([H])(C(=O)N([H])C1([H])c3c([H])c([H])c([H])c([H])c3C([H])([H])C([H])([H])C1([H])[H])C2([H])[H]

$$$$
89:0:0
     RDKit          3D

100109  0  0  1  0  0  0  0  0999 V2000
  -29.8370  -20.7860   22.4250 C   0  0  0  0  0  2  0  0  0  0  0  0
  -29.3550  -20.3110   21.2570 C   0  0  0  0  0  3  0  0  0  0  0  0
  -28.4050  -21.1300   20.4810 C   0  0  0  0  0  0  0  0  0  0  0  0
  -27.5280  -20.5950   19.5850 C   0  0  0  0  0  0  0  0  0  0  0  0
  -29.5700  -22.2040   22.8950 C   0  0  0  0  0  2  0  0  0  0  0  0
  -28.3900  -22.6380   20.7310 C   0  0  0  0  0  2  0  0  0  0  0  0
  -29.5360  -23.0910   21.6410 C   0  0  0  0  0  3  0  0  0  0  0  0
  -26.5310  -21.4350   18.7970 C   0  0  0  0  0  1  0  0  0  0  0  0
  -27.3540  -19.1070   19.3090 C   0  0  0  0  0  1  0  0  0  0  0  0
  -30.7130  -19.4830   19.4020 C   0  0  0  0  0  3  0  0  0  0  0  0
  -30.2060  -17.9250   21.2270 C   0  0  0  0  0  3  0  0  0  0  0  0
  -31.5180  -17.2020   19.2930 C   0  0  0  0  0  3  0  0  0  0  0  0
  -30.0980  -19.2060   20.6390 C   0  0  0  0  0  0  0  0  0  0  0  0
  -31.4500  -18.4890   18.7400 C   0  0  0  0  0  0  0  0  0  0  0  0
  -30.8950  -16.9030   20.5330 C   0  0  0  0  0  0  0  0  0  0  0  0
  -32.1650  -18.7840   17.4390 C   0  0  0  0  0  1  0  0  0  0  0  0
  -31.5090  -14.5440   20.4570 C   0  0  0  0  0  0  0  0  0  0  0  0
  -31.0770  -12.4540   19.2480 C   0  0  0  0  0  2  0  0  0  0  0  0
  -30.1810  -12.7780   18.0350 C   0  0  0  0  0  2  0  0  0  0  0  0
  -28.6940  -12.7150   18.4350 C   0  0  0  0  0  2  0  0  0  0  0  0
  -28.3850  -13.5350   19.7170 C   0  0  0  0  0  3  0  0  0  0  0  0
  -29.4030  -13.2160   20.8390 C   0  0  0  0  0  2  0  0  0  0  0  0
  -30.7610  -13.4230   20.3080 N   0  0  0  0  0  0  0  0  0  0  0  0
  -32.6400  -14.6730   19.9780 O   0  0  0  0  0  0  0  0  0  0  0  0
  -30.8870  -15.5770   21.0430 N   0  0  0  0  0  0  0  0  0  0  0  0
  -30.1040  -15.3340   21.6320 H   0  0  0  0  0  0  0  0  0  0  0  0
  -26.0050  -14.2570   20.3870 C   0  0  0  0  0  0  0  0  0  0  0  0
  -24.8910  -13.5340   20.7250 C   0  0  0  0  0  0  0  0  0  0  0  0
  -25.2830  -12.1610   20.6800 C   0  0  0  0  0  0  0  0  0  0  0  0
  -27.0080  -13.3260   20.1620 N   0  0  0  0  0  0  0  0  0  0  0  0
  -26.5750  -12.0610   20.3920 N   0  0  0  0  0  0  0  0  0  0  0  0
  -24.4900  -10.9340   20.8410 C   0  0  0  0  0  0  0  0  0  0  0  0
  -24.8560   -9.9330   21.7670 C   0  0  0  0  0  3  0  0  0  0  0  0
  -24.0680   -8.7720   21.9160 C   0  0  0  0  0  3  0  0  0  0  0  0
  -22.9000   -8.6020   21.1350 C   0  0  0  0  0  0  0  0  0  0  0  0
  -22.5520   -9.5920   20.1990 C   0  0  0  0  0  3  0  0  0  0  0  0
  -23.3390  -10.7460   20.0480 C   0  0  0  0  0  3  0  0  0  0  0  0
  -22.0880   -7.4960   21.1920 O   0  0  0  0  0  0  0  0  0  0  0  0
  -21.9400   -6.7700   22.3480 C   0  0  0  0  0  0  0  0  0  0  0  0
  -21.4940   -7.3670   23.5480 C   0  0  0  0  0  3  0  0  0  0  0  0
  -21.2890   -6.5720   24.6940 C   0  0  0  0  0  3  0  0  0  0  0  0
  -21.5180   -5.1840   24.6400 C   0  0  0  0  0  0  0  0  0  0  0  0
  -21.9570   -4.5890   23.4440 C   0  0  0  0  0  3  0  0  0  0  0  0
  -22.1650   -5.3810   22.3010 C   0  0  0  0  0  0  0  0  0  0  0  0
  -22.5670   -4.7990   21.1440 F   0  0  0  0  0  0  0  0  0  0  0  0
  -21.3140   -4.4190   25.7380 F   0  0  0  0  0  0  0  0  0  0  0  0
  -23.5160  -14.0790   20.9850 C   0  0  0  0  0  0  0  0  0  0  0  0
  -22.7520  -13.4240   21.8520 N   0  0  0  0  0  0  0  0  0  0  0  0
  -23.1300  -15.1190   20.4540 O   0  0  0  0  0  0  0  0  0  0  0  0
  -23.0760  -12.5810   22.3030 H   0  0  0  0  0  0  0  0  0  0  0  0
  -21.8290  -13.7750   22.0680 H   0  0  0  0  0  0  0  0  0  0  0  0
  -26.2450  -15.6190   20.2370 N   0  0  0  0  0  0  0  0  0  0  0  0
  -25.5190  -16.3150   20.3620 H   0  0  0  0  0  0  0  0  0  0  0  0
  -27.1310  -16.0180   19.9550 H   0  0  0  0  0  0  0  0  0  0  0  0
  -30.1700  -25.4710   21.3590 C   0  0  0  0  0  0  0  0  0  0  0  0
  -29.4120  -24.5150   21.9210 N   0  0  0  0  0  0  0  0  0  0  0  0
  -31.2700  -25.2450   20.8480 O   0  0  0  0  0  0  0  0  0  0  0  0
  -28.5510  -24.8240   22.3550 H   0  0  0  0  0  0  0  0  0  0  0  0
  -29.5410  -26.8590   21.2520 C   0  0  0  0  0  2  0  0  0  0  0  0
  -28.7130  -26.8310   20.0870 O   0  0  0  0  0  0  0  0  0  0  0  0
  -24.5810  -31.7320   23.2050 C   0  0  0  0  0  0  0  0  0  0  0  0
  -27.5320  -27.5290   20.1240 C   0  0  0  0  0  0  0  0  0  0  0  0
  -23.4850  -30.3100   21.4990 C   0  0  0  0  0  3  0  0  0  0  0  0
  -25.0540  -28.8770   20.0900 C   0  0  0  0  0  0  0  0  0  0  0  0
  -25.9880  -30.8040   21.3770 C   0  0  0  0  0  2  0  0  0  0  0  0
  -26.1610  -29.4530   20.7260 C   0  0  0  0  0  0  0  0  0  0  0  0
  -27.4000  -28.7850   20.7500 C   0  0  0  0  0  3  0  0  0  0  0  0
  -26.4170  -26.9630   19.4690 C   0  0  0  0  0  3  0  0  0  0  0  0
  -25.1750  -27.6260   19.4570 C   0  0  0  0  0  3  0  0  0  0  0  0
  -23.7640  -29.6640   20.1140 C   0  0  0  0  0  2  0  0  0  0  0  0
  -24.6990  -30.9620   22.0860 N   0  0  0  0  0  0  0  0  0  0  0  0
  -23.4780  -31.9390   23.7240 O   0  0  0  0  0  0  0  0  0  0  0  0
  -22.8580  -29.2400   22.4200 C   0  0  0  0  0  0  0  0  0  0  0  0
  -21.5400  -29.0280   22.2800 N   0  0  0  0  0  0  0  0  0  0  0  0
  -23.5540  -28.6040   23.2170 O   0  0  0  0  0  0  0  0  0  0  0  0
  -21.0380  -29.5940   21.6090 H   0  0  0  0  0  0  0  0  0  0  0  0
  -18.1930  -27.7430   22.7230 C   0  0  0  0  0  0  0  0  0  0  0  0
  -20.7440  -28.0440   23.0130 C   0  0  0  0  0  3  0  0  0  0  0  0
  -20.8800  -26.6390   22.3820 C   0  0  0  0  0  2  0  0  0  0  0  0
  -19.7890  -26.3320   21.3520 C   0  0  0  0  0  2  0  0  0  0  0  0
  -18.4020  -26.4230   21.9960 C   0  0  0  0  0  2  0  0  0  0  0  0
  -19.2950  -28.5110   23.1860 C   0  0  0  0  0  0  0  0  0  0  0  0
  -19.0500  -29.7460   23.8250 C   0  0  0  0  0  3  0  0  0  0  0  0
  -17.7360  -30.2170   24.0030 C   0  0  0  0  0  3  0  0  0  0  0  0
  -16.6480  -29.4460   23.5570 C   0  0  0  0  0  3  0  0  0  0  0  0
  -16.8770  -28.2100   22.9260 C   0  0  0  0  0  3  0  0  0  0  0  0
  -25.8230  -32.4050   23.8710 C   0  0  0  0  0  3  0  0  0  0  0  0
  -26.3200  -31.6490   25.1620 C   0  0  1  0  0  0  0  0  0  0  0  0
  -25.2020  -31.3820   26.1940 C   0  0  0  0  0  1  0  0  0  0  0  0
  -26.9480  -30.2860   24.7920 C   0  0  0  0  0  1  0  0  0  0  0  0
  -27.4240  -32.4740   25.8650 C   0  0  0  0  0  1  0  0  0  0  0  0
  -25.4610  -33.7930   24.1840 N   0  0  0  0  0  0  0  0  0  0  0  0
  -25.7780  -34.8510   23.4240 C   0  0  0  0  0  0  0  0  0  0  0  0
  -26.4780  -34.7620   22.4100 O   0  0  0  0  0  0  0  0  0  0  0  0
  -24.8430  -33.9300   24.9700 H   0  0  0  0  0  0  0  0  0  0  0  0
  -23.9910  -36.5710   23.0110 C   0  0  0  0  0  1  0  0  0  0  0  0
  -25.2280  -36.2230   23.8540 C   0  0  0  0  0  3  0  0  0  0  0  0
  -27.3110  -37.1970   24.7170 C   0  0  0  0  0  1  0  0  0  0  0  0
  -26.2240  -37.3120   23.7510 N   0  0  0  0  0  0  0  0  0  0  0  0
  -25.7790  -38.2180   23.8840 H   0  0  0  0  0  0  0  0  0  0  0  0
  1  5  1  0
  2 13  1  0
  2  1  1  0
  3  6  1  0
  3  2  1  0
  4  3  2  0
  6  7  1  0
  7 56  1  0
  7  5  1  0
  8  4  1  0
  9  4  1  0
 10 13  1  0
 12 15  2  0
 13 11  2  0
 14 12  1  0
 14 10  2  0
 15 25  1  0
 15 11  1  0
 16 14  1  0
 17 25  1  0
 18 23  1  0
 19 20  1  0
 19 18  1  0
 21 20  1  0
 21 30  1  0
 21 22  1  0
 23 17  1  0
 23 22  1  0
 24 17  2  0
 25 26  1  0
 27 28  2  0
 28 47  1  0
 29 28  1  0
 29 32  1  0
 30 27  1  0
 30 31  1  0
 31 29  2  0
 32 33  1  0
 33 34  2  0
 35 38  1  0
 35 34  1  0
 36 35  2  0
 37 36  1  0
 37 32  2  0
 38 39  1  0
 39 40  1  0
 40 41  2  0
 42 41  1  0
 42 46  1  0
 43 42  2  0
 44 39  2  0
 44 43  1  0
 45 44  1  0
 47 48  1  0
 48 51  1  0
 48 50  1  0
 49 47  2  0
 52 53  1  0
 52 27  1  0
 54 52  1  0
 55 56  1  0
 56 58  1  0
 57 55  2  0
 59 55  1  0
 60 62  1  0
 60 59  1  0
 61 72  2  0
 62 67  1  0
 63 71  1  0
 63 73  1  0
 64 70  1  0
 64 66  1  0
 65 71  1  0
 66 67  2  0
 66 65  1  0
 68 62  2  0
 69 68  1  0
 69 64  2  0
 70 63  1  0
 71 61  1  0
 73 75  2  0
 74 73  1  0
 76 74  1  0
 77 86  2  0
 77 82  1  0
 78 74  1  0
 78 82  1  0
 79 78  1  0
 80 81  1  0
 80 79  1  0
 81 77  1  0
 82 83  2  0
 83 84  1  0
 85 84  2  0
 86 85  1  0
 87 61  1  0
 87 92  1  0
 87 88  1  0
 88 91  1  1
 88 89  1  0
 90 88  1  0
 92 95  1  0
 93 97  1  0
 93 92  1  0
 94 93  2  0
 97 96  1  0
 99 97  1  0
 99100  1  0
 99 98  1  0
M  ISO  4  17 100  25 100  59 101  60 101
M  END
>  <TORSDO>  (90) 
F 19

>  <SCORE>  (90) 
-13.815

>  <name>  (90) 
89

>  <ligand_id>  (90) 
89

>  <original_smiles>  (90) 
[H]C1=C(c2c([H])c(N([H])C(=O)N3C([H])([H])C([H])([H])C([H])([H])C([H])(n4nc(-c5c([H])c([H])c(Oc6c([H])c([H])c(F)c([H])c6F)c([H])c5[H])c(C(=O)N([H])[H])c4N([H])[H])C3([H])[H])c([H])c(C([H])([H])[H])c2[H])C(=C(C([H])([H])[H])C([H])([H])[H])C([H])([H])C([H])(N([H])C(=O)C([H])([H])Oc2c([H])c([H])c3c(c2[H])C([H])([H])N(C(=O)C([H])(N([H])C(=O)C([H])(N([H])C([H])([H])[H])C([H])([H])[H])C(C([H])([H])[H])(C([H])([H])[H])C([H])([H])[H])C([H])(C(=O)N([H])C2([H])c4c([H])c([H])c([H])c([H])c4C([H])([H])C([H])([H])C2([H])[H])C3([H])[H])C1([H])[H]

>  <smiles>  (90) 
[H]C1=C(c2c([H])c(N([H])C(=O)N3C([H])([H])C([H])([H])C([H])([H])C([H])(n4nc(-c5c([H])c([H])c(Oc6c([H])c([H])c(F)c([H])c6F)c([H])c5[H])c(C(=O)N([H])[H])c4N([H])[H])C3([H])[H])c([H])c(C([H])([H])[H])c2[H])C(=C(C([H])([H])[H])C([H])([H])[H])C([H])([H])C([H])(N([H])C(=O)C([H])([H])Oc2c([H])c([H])c3c(c2[H])C([H])([H])N(C(=O)C([H])(N([H])C(=O)C([H])(N([H])C([H])([H])[H])C([H])([H])[H])C(C([H])([H])[H])(C([H])([H])[H])C([H])([H])[H])C([H])(C(=O)N([H])C2([H])c4c([H])c([H])c([H])c([H])c4C([H])([H])C([H])([H])C2([H])[H])C3([H])[H])C1([H])[H]

$$$$
90:0:0
     RDKit          3D

101107  0  0  1  0  0  0  0  0999 V2000
  -24.1590  -24.4530   19.5690 C   0  0  0  0  0  0  0  0  0  0  0  0
  -25.4450  -23.8570   20.0350 N   0  0  0  0  0  0  0  0  0  0  0  0
  -23.9200  -24.3300   18.3680 O   0  0  0  0  0  0  0  0  0  0  0  0
  -25.5810  -23.9580   21.0300 H   0  0  0  0  0  0  0  0  0  0  0  0
  -20.1540  -26.1430   21.1490 C   0  0  0  0  0  1  0  0  0  0  0  0
  -20.9210  -25.9410   23.1380 C   0  0  0  0  0  1  0  0  0  0  0  0
  -21.4050  -25.7010   20.0400 C   0  0  0  0  0  2  0  0  0  0  0  0
  -22.5790  -25.5600   23.0980 C   0  0  0  0  0  2  0  0  0  0  0  0
  -22.9630  -25.2570   20.4330 C   0  0  0  0  0  3  0  0  0  0  0  0
  -23.5500  -25.6080   21.7570 C   0  0  0  0  0  3  0  0  0  0  0  0
  -24.9570  -26.7170   21.4980 C   0  0  0  0  0  2  0  0  0  0  0  0
  -25.5160  -27.9140   20.4060 O   0  0  0  0  0  0  0  0  0  0  0  0
  -27.2850  -32.5870   24.7210 C   0  0  0  0  0  0  0  0  0  0  0  0
  -25.1590  -29.2770   20.3520 C   0  0  0  0  0  3  0  0  0  0  0  0
  -25.0420  -31.6540   24.5720 C   0  0  0  0  0  3  0  0  0  0  0  0
  -24.1740  -30.8860   22.2850 C   0  0  0  0  0  0  0  0  0  0  0  0
  -26.1940  -32.3590   22.4510 C   0  0  0  0  0  2  0  0  0  0  0  0
  -25.4220  -31.2390   21.7580 C   0  0  0  0  0  0  0  0  0  0  0  0
  -25.9510  -30.4070   20.7380 C   0  0  0  0  0  3  0  0  0  0  0  0
  -23.7840  -29.3460   20.4590 C   0  0  0  0  0  2  0  0  0  0  0  0
  -23.3180  -30.0210   21.5810 C   0  0  0  0  0  3  0  0  0  0  0  0
  -23.8140  -31.4280   23.6400 C   0  0  0  0  0  2  0  0  0  0  0  0
  -26.2200  -32.2530   23.9250 N   0  0  0  0  0  0  0  0  0  0  0  0
  -27.2660  -32.4280   25.9570 O   0  0  0  0  0  0  0  0  0  0  0  0
  -25.5220  -30.3780   25.1950 C   0  0  0  0  0  0  0  0  0  0  0  0
  -25.5630  -30.4160   26.5060 N   0  0  0  0  0  0  0  0  0  0  0  0
  -25.8150  -29.3860   24.4960 O   0  0  0  0  0  0  0  0  0  0  0  0
  -25.2960  -31.2260   27.0470 H   0  0  0  0  0  0  0  0  0  0  0  0
  -26.6620  -28.4010   29.7050 C   0  0  0  0  0  0  0  0  0  0  0  0
  -25.5100  -29.1560   27.0380 C   0  0  0  0  0  3  0  0  0  0  0  0
  -23.6330  -28.8570   27.1140 C   0  0  0  0  0  1  0  0  0  0  0  0
  -23.3390  -27.4380   30.0390 C   0  0  0  0  0 15  0  0  0  0  0  0
  -25.2770  -27.6640   30.6570 C   0  0  0  0  0  1  0  0  0  0  0  0
  -26.7220  -28.9550   28.2500 C   0  0  0  0  0  0  0  0  0  0  0  0
  -27.9960  -29.3600   27.7120 C   0  0  0  0  0  3  0  0  0  0  0  0
  -29.2000  -29.4130   28.4360 C   0  0  0  0  0  3  0  0  0  0  0  0
  -29.1640  -29.0300   29.7800 C   0  0  0  0  0  3  0  0  0  0  0  0
  -27.9530  -28.5390   30.3640 C   0  0  0  0  0  3  0  0  0  0  0  0
  -28.5590  -33.2020   24.1240 C   0  0  0  0  0  3  0  0  0  0  0  0
  -28.6700  -34.5280   24.7380 N   0  0  0  0  0  0  0  0  0  0  0  0
  -28.1730  -35.6390   24.1860 C   0  0  0  0  0  0  0  0  0  0  0  0
  -27.6840  -35.6580   23.0540 O   0  0  0  0  0  0  0  0  0  0  0  0
  -28.9980  -34.5660   25.6920 H   0  0  0  0  0  0  0  0  0  0  0  0
  -26.8610  -37.2530   25.6010 C   0  0  0  0  0  1  0  0  0  0  0  0
  -28.2460  -36.9320   25.0160 C   0  0  0  0  0  3  0  0  0  0  0  0
  -30.1570  -37.9590   23.8720 C   0  0  0  0  0  1  0  0  0  0  0  0
  -28.7480  -38.0850   24.2410 N   0  0  0  0  0  0  0  0  0  0  0  0
  -28.6290  -38.9490   24.7620 H   0  0  0  0  0  0  0  0  0  0  0  0
  -29.8580  -32.3540   24.3940 C   0  0  1  0  0  0  0  0  0  0  0  0
  -30.2940  -32.2890   25.8780 C   0  0  0  0  0  1  0  0  0  0  0  0
  -29.6790  -30.9010   23.8980 C   0  0  0  0  0  1  0  0  0  0  0  0
  -31.0160  -32.9690   23.5780 C   0  0  0  0  0  1  0  0  0  0  0  0
  -26.7980  -23.2030   19.2950 C   0  0  0  0  0  2  0  0  0  0  0  0
  -29.0590  -21.5520   18.7810 C   0  0  0  0  0  3  0  0  0  0  0  0
  -30.4240  -20.9660   18.8840 C   0  0  0  0  0  3  0  0  0  0  0  0
  -30.7380  -22.1490   20.8210 C   0  0  0  0  0  3  0  0  0  0  0  0
  -28.3700  -22.4920   19.6740 C   0  0  0  0  0  0  0  0  0  0  0  0
  -29.3670  -22.7550   20.7170 C   0  0  0  0  0  0  0  0  0  0  0  0
  -31.4190  -21.2150   19.9120 C   0  0  0  0  0  0  0  0  0  0  0  0
  -34.2680  -20.3170   20.0270 C   0  0  0  0  0  0  0  0  0  0  0  0
  -36.0420  -18.6220   19.2050 C   0  0  0  0  0  2  0  0  0  0  0  0
  -35.5140  -18.0590   17.8560 C   0  0  0  0  0  2  0  0  0  0  0  0
  -34.4450  -16.9650   18.0850 C   0  0  0  0  0  2  0  0  0  0  0  0
  -33.4510  -17.3560   19.2100 C   0  0  0  0  0  3  0  0  0  0  0  0
  -34.1740  -17.8510   20.4680 C   0  0  0  0  0  2  0  0  0  0  0  0
  -34.8620  -19.0490   20.0310 N   0  0  0  0  0  0  0  0  0  0  0  0
  -35.0860  -21.2390   19.8280 O   0  0  0  0  0  0  0  0  0  0  0  0
  -32.7920  -20.4080   20.2000 N   0  0  0  0  0  0  0  0  0  0  0  0
  -32.5450  -19.5120   20.5910 H   0  0  0  0  0  0  0  0  0  0  0  0
  -31.1350  -16.4080   19.6480 C   0  0  0  0  0  0  0  0  0  0  0  0
  -30.7040  -15.1420   19.9230 C   0  0  0  0  0  0  0  0  0  0  0  0
  -31.8790  -14.3330   20.0010 C   0  0  0  0  0  0  0  0  0  0  0  0
  -32.5110  -16.3140   19.5470 N   0  0  0  0  0  0  0  0  0  0  0  0
  -32.9660  -15.0720   19.8340 N   0  0  0  0  0  0  0  0  0  0  0  0
  -32.0330  -12.8870   20.1650 C   0  0  0  0  0  0  0  0  0  0  0  0
  -32.8370  -12.3390   21.1880 C   0  0  0  0  0  3  0  0  0  0  0  0
  -32.9540  -10.9400   21.3290 C   0  0  0  0  0  3  0  0  0  0  0  0
  -32.2620  -10.0780   20.4450 C   0  0  0  0  0  0  0  0  0  0  0  0
  -31.4840  -10.6320   19.4130 C   0  0  0  0  0  3  0  0  0  0  0  0
  -31.3720  -12.0240   19.2700 C   0  0  0  0  0  3  0  0  0  0  0  0
  -32.3330   -8.7070   20.4920 O   0  0  0  0  0  0  0  0  0  0  0  0
  -32.6270   -8.0420   21.6540 C   0  0  0  0  0  0  0  0  0  0  0  0
  -31.8040   -8.1380   22.7970 C   0  0  0  0  0  3  0  0  0  0  0  0
  -32.1050   -7.3830   23.9470 C   0  0  0  0  0  3  0  0  0  0  0  0
  -33.2210   -6.5240   23.9530 C   0  0  0  0  0  0  0  0  0  0  0  0
  -34.0400   -6.4240   22.8150 C   0  0  0  0  0  3  0  0  0  0  0  0
  -33.7420   -7.1790   21.6670 C   0  0  0  0  0  0  0  0  0  0  0  0
  -34.5210   -7.0630   20.5650 F   0  0  0  0  0  0  0  0  0  0  0  0
  -33.5070   -5.7920   25.0560 F   0  0  0  0  0  0  0  0  0  0  0  0
  -29.2780  -14.6900   20.0080 C   0  0  0  0  0  0  0  0  0  0  0  0
  -29.0030  -13.6960   20.8430 N   0  0  0  0  0  0  0  0  0  0  0  0
  -28.3910  -15.2520   19.3670 O   0  0  0  0  0  0  0  0  0  0  0  0
  -29.7320  -13.2510   21.3800 H   0  0  0  0  0  0  0  0  0  0  0  0
  -28.0520  -13.3750   20.9470 H   0  0  0  0  0  0  0  0  0  0  0  0
  -30.4760  -17.6190   19.4540 N   0  0  0  0  0  0  0  0  0  0  0  0
  -29.4650  -17.6800   19.4870 H   0  0  0  0  0  0  0  0  0  0  0  0
  -30.9100  -18.4970   19.2060 H   0  0  0  0  0  0  0  0  0  0  0  0
  -29.2410  -25.2040   21.1480 C   0  0  0  0  0  1  0  0  0  0  0  0
  -28.9980  -23.8150   21.7460 C   0  0  2  0  0  0  0  0  0  0  0  0
  -29.7330  -23.6930   22.8560 F   0  0  0  0  0  0  0  0  0  0  0  0
  -27.7190  -23.6990   22.1010 F   0  0  0  0  0  0  0  0  0  0  0  0
  1  2  1  0
  1  9  1  0
  2  4  1  0
  3  1  2  0
  7  5  1  0
  8  6  1  0
  9  7  1  0
  9 10  1  0
 10 11  1  0
 10  8  1  0
 12 11  1  0
 13 24  2  0
 14 12  1  0
 14 20  1  0
 14 19  1  0
 15 25  1  0
 16 22  1  0
 17 23  1  0
 18 16  1  0
 18 17  1  0
 19 18  2  0
 20 21  1  0
 21 16  2  0
 22 15  1  0
 23 15  1  0
 23 13  1  0
 25 26  1  0
 26 30  1  0
 26 28  1  0
 27 25  2  0
 29 38  1  0
 29 33  1  0
 30 31  1  0
 30 34  1  0
 34 29  2  0
 35 34  1  0
 35 36  2  0
 36 37  1  0
 37 38  2  0
 39 49  1  0
 39 13  1  0
 39 40  1  0
 40 43  1  0
 41 40  1  0
 41 45  1  0
 42 41  2  0
 45 44  1  0
 46 47  1  0
 47 48  1  0
 47 45  1  0
 49 50  1  1
 51 49  1  0
 52 49  1  0
 53 57  1  0
 53  2  1  0
 54 55  2  0
 54 57  1  0
 55 59  1  0
 57 58  2  0
 58 56  1  0
 58 99  1  0
 59 68  1  0
 59 56  2  0
 60 66  1  0
 60 68  1  0
 61 66  1  0
 62 63  1  0
 62 61  1  0
 64 63  1  0
 64 73  1  0
 64 65  1  0
 66 65  1  0
 67 60  2  0
 68 69  1  0
 70 71  2  0
 71 72  1  0
 71 90  1  0
 72 75  1  0
 73 70  1  0
 73 74  1  0
 74 72  2  0
 75 76  1  0
 76 77  2  0
 78 81  1  0
 78 77  1  0
 79 78  2  0
 80 79  1  0
 80 75  2  0
 81 82  1  0
 82 87  2  0
 82 83  1  0
 83 84  2  0
 84 85  1  0
 85 89  1  0
 86 85  2  0
 87 86  1  0
 88 87  1  0
 90 91  1  0
 91 94  1  0
 91 93  1  0
 92 90  2  0
 95 96  1  0
 95 70  1  0
 97 95  1  0
 99 98  1  6
 99101  1  0
 99100  1  0
M  ISO  4  11 101  12 101  60 100  68 100
M  END
>  <TORSDO>  (91) 
F 21

>  <SCORE>  (91) 
-7.259

>  <name>  (91) 
90

>  <ligand_id>  (91) 
90

>  <original_smiles>  (91) 
[H]c1c([H])c([H])c(C([H])([H])Oc2c([H])c([H])c3c(c2[H])C([H])([H])N(C(=O)C([H])(N([H])C(=O)C([H])(N([H])C([H])([H])[H])C([H])([H])[H])C(C([H])([H])[H])(C([H])([H])[H])C([H])([H])[H])C([H])(C(=O)N([H])C2([H])c4c([H])c([H])c([H])c([H])c4C([H])([H])C([H])([H])C2([H])[H])C3([H])[H])c(C(=O)N([H])C([H])([H])c2c([H])c([H])c(N([H])C(=O)N3C([H])([H])C([H])([H])C([H])([H])C([H])(n4nc(-c5c([H])c([H])c(Oc6c([H])c([H])c(F)c([H])c6F)c([H])c5[H])c(C(=O)N([H])[H])c4N([H])[H])C3([H])[H])c([H])c2C(F)(F)C([H])([H])[H])c1[H]

>  <smiles>  (91) 
[H]c1c([H])c([H])c(C([H])([H])Oc2c([H])c([H])c3c(c2[H])C([H])([H])N(C(=O)C([H])(N([H])C(=O)C([H])(N([H])C([H])([H])[H])C([H])([H])[H])C(C([H])([H])[H])(C([H])([H])[H])C([H])([H])[H])C([H])(C(=O)N([H])C2([H])c4c([H])c([H])c([H])c([H])c4C([H])([H])C([H])([H])C2([H])[H])C3([H])[H])c(C(=O)N([H])C([H])([H])c2c([H])c([H])c(N([H])C(=O)N3C([H])([H])C([H])([H])C([H])([H])C([H])(n4nc(-c5c([H])c([H])c(Oc6c([H])c([H])c(F)c([H])c6F)c([H])c5[H])c(C(=O)N([H])[H])c4N([H])[H])C3([H])[H])c([H])c2C(F)(F)C([H])([H])[H])c1[H]

$$$$
91:0:0
     RDKit          3D

 92100  0  0  1  0  0  0  0  0999 V2000
  -30.1610  -22.2240   20.1670 C   0  0  0  0  0  3  0  0  0  0  0  0
  -29.4900  -23.1910   19.6680 N   0  0  0  0  0  0  0  0  0  0  0  0
  -29.4030  -24.3950   20.3540 C   0  0  0  0  0  0  0  0  0  0  0  0
  -30.0670  -24.7720   21.3250 O   0  0  0  0  0  0  0  0  0  0  0  0
  -28.2850  -25.2800   19.7820 C   0  0  0  0  0  2  0  0  0  0  0  0
  -28.3990  -26.6690   20.1510 O   0  0  0  0  0  0  0  0  0  0  0  0
  -24.5870  -31.8630   23.1890 C   0  0  0  0  0  0  0  0  0  0  0  0
  -27.2330  -27.4160   20.1030 C   0  0  0  0  0  0  0  0  0  0  0  0
  -23.3850  -30.4700   21.5390 C   0  0  0  0  0  3  0  0  0  0  0  0
  -24.8400  -28.9420   20.1120 C   0  0  0  0  0  0  0  0  0  0  0  0
  -25.9150  -30.8200   21.3550 C   0  0  0  0  0  2  0  0  0  0  0  0
  -25.9990  -29.4530   20.7090 C   0  0  0  0  0  0  0  0  0  0  0  0
  -27.1960  -28.6980   20.7030 C   0  0  0  0  0  3  0  0  0  0  0  0
  -26.0520  -26.9360   19.4820 C   0  0  0  0  0  3  0  0  0  0  0  0
  -24.8610  -27.6820   19.4970 C   0  0  0  0  0  3  0  0  0  0  0  0
  -23.5980  -29.8020   20.1570 C   0  0  0  0  0  2  0  0  0  0  0  0
  -24.6460  -31.0660   22.0850 N   0  0  0  0  0  0  0  0  0  0  0  0
  -23.5040  -32.1340   23.7250 O   0  0  0  0  0  0  0  0  0  0  0  0
  -22.7290  -29.4430   22.4920 C   0  0  0  0  0  0  0  0  0  0  0  0
  -21.4030  -29.2670   22.3620 N   0  0  0  0  0  0  0  0  0  0  0  0
  -23.4090  -28.8090   23.3020 O   0  0  0  0  0  0  0  0  0  0  0  0
  -20.9160  -29.8310   21.6800 H   0  0  0  0  0  0  0  0  0  0  0  0
  -18.0200  -28.0980   22.8620 C   0  0  0  0  0  0  0  0  0  0  0  0
  -20.5820  -28.3300   23.1270 C   0  0  0  0  0  3  0  0  0  0  0  0
  -20.6700  -26.9030   22.5380 C   0  0  0  0  0  2  0  0  0  0  0  0
  -19.5600  -26.5990   21.5240 C   0  0  0  0  0  2  0  0  0  0  0  0
  -18.1820  -26.7520   22.1750 C   0  0  0  0  0  2  0  0  0  0  0  0
  -19.1480  -28.8450   23.2940 C   0  0  0  0  0  0  0  0  0  0  0  0
  -18.9430  -30.1070   23.8950 C   0  0  0  0  0  3  0  0  0  0  0  0
  -17.6430  -30.6190   24.0700 C   0  0  0  0  0  3  0  0  0  0  0  0
  -16.5320  -29.8670   23.6530 C   0  0  0  0  0  3  0  0  0  0  0  0
  -16.7210  -28.6090   23.0550 C   0  0  0  0  0  3  0  0  0  0  0  0
  -25.8720  -32.4910   23.8120 C   0  0  0  0  0  3  0  0  0  0  0  0
  -26.3860  -31.7130   25.0860 C   0  0  1  0  0  0  0  0  0  0  0  0
  -25.2930  -31.4680   26.1510 C   0  0  0  0  0  1  0  0  0  0  0  0
  -26.9720  -30.3390   24.6850 C   0  0  0  0  0  1  0  0  0  0  0  0
  -27.5360  -32.5040   25.7520 C   0  0  0  0  0  1  0  0  0  0  0  0
  -25.5610  -33.8860   24.1480 N   0  0  0  0  0  0  0  0  0  0  0  0
  -25.9020  -34.9440   23.3970 C   0  0  0  0  0  0  0  0  0  0  0  0
  -26.5820  -34.8450   22.3720 O   0  0  0  0  0  0  0  0  0  0  0  0
  -24.9580  -34.0360   24.9420 H   0  0  0  0  0  0  0  0  0  0  0  0
  -24.1850  -36.7440   23.0240 C   0  0  0  0  0  1  0  0  0  0  0  0
  -25.4100  -36.3290   23.8560 C   0  0  0  0  0  3  0  0  0  0  0  0
  -27.5330  -37.1970   24.7300 C   0  0  0  0  0  1  0  0  0  0  0  0
  -26.4460  -37.3810   23.7730 N   0  0  0  0  0  0  0  0  0  0  0  0
  -26.0390  -38.3000   23.9290 H   0  0  0  0  0  0  0  0  0  0  0  0
  -30.3910  -20.9470   19.3620 C   0  0  0  0  0  2  0  0  0  0  0  0
  -31.4790  -18.8510   20.2850 C   0  0  0  0  0  3  0  0  0  0  0  0
  -31.4340  -17.4960   20.6720 C   0  0  0  0  0  3  0  0  0  0  0  0
  -29.0090  -17.5960   20.7240 C   0  0  0  0  0  3  0  0  0  0  0  0
  -30.2910  -19.5840   20.0610 C   0  0  0  0  0  0  0  0  0  0  0  0
  -29.0460  -18.9580   20.3360 C   0  0  0  0  0  0  0  0  0  0  0  0
  -30.1940  -16.8340   20.8300 C   0  0  0  0  0  0  0  0  0  0  0  0
  -27.7350  -19.7080   20.1630 C   0  0  0  0  0  1  0  0  0  0  0  0
  -30.7190  -14.4550   20.3770 C   0  0  0  0  0  0  0  0  0  0  0  0
  -30.3670  -12.3380   19.1610 C   0  0  0  0  0  2  0  0  0  0  0  0
  -29.4120  -12.6000   17.9780 C   0  0  0  0  0  2  0  0  0  0  0  0
  -27.9440  -12.4620   18.4230 C   0  0  0  0  0  2  0  0  0  0  0  0
  -27.6360  -13.2590   19.7190 C   0  0  0  0  0  3  0  0  0  0  0  0
  -28.7040  -12.9920   20.8050 C   0  0  0  0  0  2  0  0  0  0  0  0
  -30.0280  -13.2910   20.2310 N   0  0  0  0  0  0  0  0  0  0  0  0
  -31.8150  -14.6390   19.8410 O   0  0  0  0  0  0  0  0  0  0  0  0
  -30.0850  -15.4270   21.0680 N   0  0  0  0  0  0  0  0  0  0  0  0
  -29.2230  -15.1200   21.4920 H   0  0  0  0  0  0  0  0  0  0  0  0
  -25.2410  -13.8610   20.4490 C   0  0  0  0  0  0  0  0  0  0  0  0
  -24.1790  -13.0870   20.8310 C   0  0  0  0  0  0  0  0  0  0  0  0
  -24.6430  -11.7370   20.7970 C   0  0  0  0  0  0  0  0  0  0  0  0
  -26.2870  -12.9820   20.2090 N   0  0  0  0  0  0  0  0  0  0  0  0
  -25.9280  -11.6980   20.4720 N   0  0  0  0  0  0  0  0  0  0  0  0
  -23.9210  -10.4730   20.9980 C   0  0  0  0  0  0  0  0  0  0  0  0
  -24.3620   -9.5100   21.9330 C   0  0  0  0  0  3  0  0  0  0  0  0
  -23.6410   -8.3120   22.1210 C   0  0  0  0  0  3  0  0  0  0  0  0
  -22.4640   -8.0680   21.3750 C   0  0  0  0  0  0  0  0  0  0  0  0
  -22.0410   -9.0180   20.4300 C   0  0  0  0  0  3  0  0  0  0  0  0
  -22.7630  -10.2070   20.2390 C   0  0  0  0  0  3  0  0  0  0  0  0
  -21.7140   -6.9200   21.4720 O   0  0  0  0  0  0  0  0  0  0  0  0
  -21.6720   -6.1830   22.6300 C   0  0  0  0  0  0  0  0  0  0  0  0
  -21.2440   -6.7430   23.8540 C   0  0  0  0  0  3  0  0  0  0  0  0
  -21.1490   -5.9320   25.0030 C   0  0  0  0  0  3  0  0  0  0  0  0
  -21.4700   -4.5630   24.9300 C   0  0  0  0  0  0  0  0  0  0  0  0
  -21.8930   -4.0040   23.7110 C   0  0  0  0  0  3  0  0  0  0  0  0
  -21.9900   -4.8120   22.5630 C   0  0  0  0  0  0  0  0  0  0  0  0
  -22.3750   -4.2620   21.3860 F   0  0  0  0  0  0  0  0  0  0  0  0
  -21.3730   -3.7840   26.0310 F   0  0  0  0  0  0  0  0  0  0  0  0
  -22.7830  -13.5620   21.1190 C   0  0  0  0  0  0  0  0  0  0  0  0
  -22.0670  -12.8660   21.9950 N   0  0  0  0  0  0  0  0  0  0  0  0
  -22.3380  -14.5870   20.6040 O   0  0  0  0  0  0  0  0  0  0  0  0
  -22.4400  -12.0370   22.4340 H   0  0  0  0  0  0  0  0  0  0  0  0
  -21.1320  -13.1670   22.2290 H   0  0  0  0  0  0  0  0  0  0  0  0
  -25.4030  -15.2310   20.2650 N   0  0  0  0  0  0  0  0  0  0  0  0
  -24.6370  -15.8860   20.3770 H   0  0  0  0  0  0  0  0  0  0  0  0
  -26.2410  -15.6630   19.9010 H   0  0  0  0  0  0  0  0  0  0  0  0
  2  1  2  0
  2  3  1  0
  3  4  2  0
  5  6  1  0
  5  3  1  0
  7 18  2  0
  8  6  1  0
  8 13  1  0
  9 17  1  0
  9 19  1  0
 10 16  1  0
 10 12  1  0
 11 17  1  0
 12 11  1  0
 13 12  2  0
 14 15  1  0
 14  8  2  0
 15 10  2  0
 16  9  1  0
 17  7  1  0
 19 21  2  0
 20 19  1  0
 22 20  1  0
 23 32  2  0
 23 28  1  0
 24 20  1  0
 24 28  1  0
 25 24  1  0
 26 27  1  0
 26 25  1  0
 27 23  1  0
 28 29  2  0
 29 30  1  0
 31 30  2  0
 32 31  1  0
 33  7  1  0
 33 38  1  0
 33 34  1  0
 34 37  1  1
 34 35  1  0
 36 34  1  0
 38 41  1  0
 39 43  1  0
 39 38  1  0
 40 39  2  0
 43 42  1  0
 45 43  1  0
 45 46  1  0
 45 44  1  0
 47 51  1  0
 47  1  1  0
 48 49  1  0
 49 53  2  0
 50 53  1  0
 51 48  2  0
 51 52  1  0
 52 50  2  0
 53 63  1  0
 54 52  1  0
 55 63  1  0
 56 61  1  0
 57 58  1  0
 57 56  1  0
 59 58  1  0
 59 68  1  0
 59 60  1  0
 61 55  1  0
 61 60  1  0
 62 55  2  0
 63 64  1  0
 65 66  2  0
 66 85  1  0
 67 66  1  0
 67 70  1  0
 68 65  1  0
 68 69  1  0
 69 67  2  0
 70 71  1  0
 71 72  2  0
 73 76  1  0
 73 72  1  0
 74 73  2  0
 75 74  1  0
 75 70  2  0
 76 77  1  0
 77 78  1  0
 78 79  2  0
 80 79  1  0
 80 84  1  0
 81 80  2  0
 82 77  2  0
 82 81  1  0
 83 82  1  0
 85 86  1  0
 86 89  1  0
 86 88  1  0
 87 85  2  0
 90 91  1  0
 90 65  1  0
 92 90  1  0
M  ISO  4   5 101   6 101  55 100  63 100
M  END
>  <TORSDO>  (92) 
F 20

>  <SCORE>  (92) 
-14.020

>  <name>  (92) 
91

>  <ligand_id>  (92) 
91

>  <original_smiles>  (92) 
[H]C(=NC(=O)C([H])([H])Oc1c([H])c([H])c2c(c1[H])C([H])([H])N(C(=O)C([H])(N([H])C(=O)C([H])(N([H])C([H])([H])[H])C([H])([H])[H])C(C([H])([H])[H])(C([H])([H])[H])C([H])([H])[H])C([H])(C(=O)N([H])C1([H])c3c([H])c([H])c([H])c([H])c3C([H])([H])C([H])([H])C1([H])[H])C2([H])[H])C([H])([H])c1c([H])c([H])c(N([H])C(=O)N2C([H])([H])C([H])([H])C([H])([H])C([H])(n3nc(-c4c([H])c([H])c(Oc5c([H])c([H])c(F)c([H])c5F)c([H])c4[H])c(C(=O)N([H])[H])c3N([H])[H])C2([H])[H])c([H])c1C([H])([H])[H]

>  <smiles>  (92) 
[H]C(=NC(=O)C([H])([H])Oc1c([H])c([H])c2c(c1[H])C([H])([H])N(C(=O)C([H])(N([H])C(=O)C([H])(N([H])C([H])([H])[H])C([H])([H])[H])C(C([H])([H])[H])(C([H])([H])[H])C([H])([H])[H])C([H])(C(=O)N([H])C1([H])c3c([H])c([H])c([H])c([H])c3C([H])([H])C([H])([H])C1([H])[H])C2([H])[H])C([H])([H])c1c([H])c([H])c(N([H])C(=O)N2C([H])([H])C([H])([H])C([H])([H])C([H])(n3nc(-c4c([H])c([H])c(Oc5c([H])c([H])c(F)c([H])c5F)c([H])c4[H])c(C(=O)N([H])[H])c3N([H])[H])C2([H])[H])c([H])c1C([H])([H])[H]

$$$$
92:0:0
     RDKit          3D

 96104  0  0  1  0  0  0  0  0999 V2000
  -30.0450  -20.5490   20.4590 C   0  0  0  0  0  3  0  0  0  0  0  0
  -30.9830  -21.4910   20.2260 C   0  0  0  0  0  3  0  0  0  0  0  0
  -29.9420  -18.0540   20.5710 C   0  0  0  0  0  3  0  0  0  0  0  0
  -30.1020  -16.6920   18.5590 C   0  0  0  0  0  3  0  0  0  0  0  0
  -30.0360  -19.2340   19.7880 C   0  0  0  0  0  0  0  0  0  0  0  0
  -30.1400  -19.1240   18.3730 C   0  0  0  0  0  0  0  0  0  0  0  0
  -30.0080  -16.7760   19.9670 C   0  0  0  0  0  0  0  0  0  0  0  0
  -30.1690  -17.8510   17.7720 C   0  0  0  0  0  0  0  0  0  0  0  0
  -30.1990  -20.3440   17.4620 C   0  0  0  0  0  1  0  0  0  0  0  0
  -30.2680  -17.7290   16.4260 F   0  0  0  0  0  0  0  0  0  0  0  0
  -30.7090  -14.5040   20.4730 C   0  0  0  0  0  0  0  0  0  0  0  0
  -30.4050  -12.3400   19.3710 C   0  0  0  0  0  2  0  0  0  0  0  0
  -29.4900  -12.5620   18.1480 C   0  0  0  0  0  2  0  0  0  0  0  0
  -28.0050  -12.4590   18.5490 C   0  0  0  0  0  2  0  0  0  0  0  0
  -27.6570  -13.2950   19.8100 C   0  0  0  0  0  3  0  0  0  0  0  0
  -28.6910  -13.0660   20.9370 C   0  0  0  0  0  2  0  0  0  0  0  0
  -30.0320  -13.3310   20.3900 N   0  0  0  0  0  0  0  0  0  0  0  0
  -31.8760  -14.6400   20.0980 O   0  0  0  0  0  0  0  0  0  0  0  0
  -29.9570  -15.5830   20.7530 N   0  0  0  0  0  0  0  0  0  0  0  0
  -29.0900  -15.4090   21.2380 H   0  0  0  0  0  0  0  0  0  0  0  0
  -25.2460  -13.9180   20.4640 C   0  0  0  0  0  0  0  0  0  0  0  0
  -24.1700  -13.1520   20.8250 C   0  0  0  0  0  0  0  0  0  0  0  0
  -24.6290  -11.8000   20.8230 C   0  0  0  0  0  0  0  0  0  0  0  0
  -26.2940  -13.0320   20.2670 N   0  0  0  0  0  0  0  0  0  0  0  0
  -25.9240  -11.7550   20.5410 N   0  0  0  0  0  0  0  0  0  0  0  0
  -23.8960  -10.5410   21.0180 C   0  0  0  0  0  0  0  0  0  0  0  0
  -24.3200   -9.5810   21.9620 C   0  0  0  0  0  3  0  0  0  0  0  0
  -23.5900   -8.3860   22.1430 C   0  0  0  0  0  3  0  0  0  0  0  0
  -22.4240   -8.1440   21.3800 C   0  0  0  0  0  0  0  0  0  0  0  0
  -22.0210   -9.0930   20.4250 C   0  0  0  0  0  3  0  0  0  0  0  0
  -22.7510  -10.2800   20.2410 C   0  0  0  0  0  3  0  0  0  0  0  0
  -21.6660   -7.0010   21.4700 O   0  0  0  0  0  0  0  0  0  0  0  0
  -21.6110   -6.2630   22.6260 C   0  0  0  0  0  0  0  0  0  0  0  0
  -21.1910   -6.8270   23.8510 C   0  0  0  0  0  3  0  0  0  0  0  0
  -21.0840   -6.0150   24.9970 C   0  0  0  0  0  3  0  0  0  0  0  0
  -21.3850   -4.6420   24.9200 C   0  0  0  0  0  0  0  0  0  0  0  0
  -21.7980   -4.0780   23.7000 C   0  0  0  0  0  3  0  0  0  0  0  0
  -21.9080   -4.8870   22.5550 C   0  0  0  0  0  0  0  0  0  0  0  0
  -22.2850   -4.3350   21.3760 F   0  0  0  0  0  0  0  0  0  0  0  0
  -21.2740   -3.8600   26.0190 F   0  0  0  0  0  0  0  0  0  0  0  0
  -22.7680  -13.6350   21.0640 C   0  0  0  0  0  0  0  0  0  0  0  0
  -22.0230  -12.9510   21.9260 N   0  0  0  0  0  0  0  0  0  0  0  0
  -22.3410  -14.6520   20.5210 O   0  0  0  0  0  0  0  0  0  0  0  0
  -22.3800  -12.1280   22.3880 H   0  0  0  0  0  0  0  0  0  0  0  0
  -21.0820  -13.2580   22.1290 H   0  0  0  0  0  0  0  0  0  0  0  0
  -25.4150  -15.2850   20.2700 N   0  0  0  0  0  0  0  0  0  0  0  0
  -24.6430  -15.9390   20.3470 H   0  0  0  0  0  0  0  0  0  0  0  0
  -26.2680  -15.7190   19.9400 H   0  0  0  0  0  0  0  0  0  0  0  0
  -30.9400  -22.8240   20.7970 C   0  0  0  0  0  0  0  0  0  0  0  0
  -29.7430  -23.4160   20.6630 N   0  0  0  0  0  0  0  0  0  0  0  0
  -31.9100  -23.3910   21.2990 O   0  0  0  0  0  0  0  0  0  0  0  0
  -29.0170  -22.8850   20.2040 H   0  0  0  0  0  0  0  0  0  0  0  0
  -29.0420  -24.9220   22.4840 C   0  0  0  0  0  1  0  0  0  0  0  0
  -29.4420  -24.8090   21.0040 C   0  0  0  0  0  3  0  0  0  0  0  0
  -28.3450  -25.3720   20.0770 C   0  0  0  0  0  2  0  0  0  0  0  0
  -28.3550  -26.7980   20.1810 O   0  0  0  0  0  0  0  0  0  0  0  0
  -24.5580  -31.9430   23.2400 C   0  0  0  0  0  0  0  0  0  0  0  0
  -27.1590  -27.4830   20.1650 C   0  0  0  0  0  0  0  0  0  0  0  0
  -23.3300  -30.5380   21.6150 C   0  0  0  0  0  3  0  0  0  0  0  0
  -24.7630  -28.9850   20.1870 C   0  0  0  0  0  0  0  0  0  0  0  0
  -25.8540  -30.8860   21.3930 C   0  0  0  0  0  2  0  0  0  0  0  0
  -25.9260  -29.5120   20.7610 C   0  0  0  0  0  0  0  0  0  0  0  0
  -27.1230  -28.7680   20.7460 C   0  0  0  0  0  3  0  0  0  0  0  0
  -25.9790  -26.9670   19.5770 C   0  0  0  0  0  3  0  0  0  0  0  0
  -24.7840  -27.7120   19.5940 C   0  0  0  0  0  3  0  0  0  0  0  0
  -23.5240  -29.8490   20.2370 C   0  0  0  0  0  2  0  0  0  0  0  0
  -24.5990  -31.1380   22.1410 N   0  0  0  0  0  0  0  0  0  0  0  0
  -23.4830  -32.2230   23.7890 O   0  0  0  0  0  0  0  0  0  0  0  0
  -22.6840  -29.5250   22.5870 C   0  0  0  0  0  0  0  0  0  0  0  0
  -21.3590  -29.3440   22.4660 N   0  0  0  0  0  0  0  0  0  0  0  0
  -23.3700  -28.9040   23.4030 O   0  0  0  0  0  0  0  0  0  0  0  0
  -20.8670  -29.8970   21.7780 H   0  0  0  0  0  0  0  0  0  0  0  0
  -17.9860  -28.1550   22.9750 C   0  0  0  0  0  0  0  0  0  0  0  0
  -20.5430  -28.4150   23.2460 C   0  0  0  0  0  3  0  0  0  0  0  0
  -20.6460  -26.9780   22.6850 C   0  0  0  0  0  2  0  0  0  0  0  0
  -19.5450  -26.6440   21.6740 C   0  0  0  0  0  2  0  0  0  0  0  0
  -18.1630  -26.7970   22.3150 C   0  0  0  0  0  2  0  0  0  0  0  0
  -19.1040  -28.9210   23.3970 C   0  0  0  0  0  0  0  0  0  0  0  0
  -18.8860  -30.1920   23.9730 C   0  0  0  0  0  3  0  0  0  0  0  0
  -17.5830  -30.6960   24.1320 C   0  0  0  0  0  3  0  0  0  0  0  0
  -16.4780  -29.9270   23.7260 C   0  0  0  0  0  3  0  0  0  0  0  0
  -16.6800  -28.6590   23.1530 C   0  0  0  0  0  3  0  0  0  0  0  0
  -25.8530  -32.5700   23.8450 C   0  0  0  0  0  3  0  0  0  0  0  0
  -26.3840  -31.7990   25.1160 C   0  0  1  0  0  0  0  0  0  0  0  0
  -25.3040  -31.5650   26.1980 C   0  0  0  0  0  1  0  0  0  0  0  0
  -26.9580  -30.4200   24.7150 C   0  0  0  0  0  1  0  0  0  0  0  0
  -27.5440  -32.5910   25.7640 C   0  0  0  0  0  1  0  0  0  0  0  0
  -25.5550  -33.9690   24.1750 N   0  0  0  0  0  0  0  0  0  0  0  0
  -25.8950  -35.0190   23.4140 C   0  0  0  0  0  0  0  0  0  0  0  0
  -26.5660  -34.9100   22.3840 O   0  0  0  0  0  0  0  0  0  0  0  0
  -24.9610  -34.1290   24.9750 H   0  0  0  0  0  0  0  0  0  0  0  0
  -24.1850  -36.8270   23.0450 C   0  0  0  0  0  1  0  0  0  0  0  0
  -25.4150  -36.4110   23.8680 C   0  0  0  0  0  3  0  0  0  0  0  0
  -27.5490  -37.2720   24.7230 C   0  0  0  0  0  1  0  0  0  0  0  0
  -26.4580  -37.4540   23.7700 N   0  0  0  0  0  0  0  0  0  0  0  0
  -26.0590  -38.3780   23.9170 H   0  0  0  0  0  0  0  0  0  0  0  0
  2  1  2  0
  2 49  1  0
  4  7  2  0
  5  1  1  0
  5  3  2  0
  6  5  1  0
  7  3  1  0
  7 19  1  0
  8  6  2  0
  8  4  1  0
  9  6  1  0
 10  8  1  0
 11 19  1  0
 12 17  1  0
 13 14  1  0
 13 12  1  0
 15 14  1  0
 15 24  1  0
 15 16  1  0
 17 11  1  0
 17 16  1  0
 18 11  2  0
 19 20  1  0
 21 22  2  0
 22 41  1  0
 23 22  1  0
 23 26  1  0
 24 21  1  0
 24 25  1  0
 25 23  2  0
 26 27  1  0
 27 28  2  0
 29 32  1  0
 29 28  1  0
 30 29  2  0
 31 30  1  0
 31 26  2  0
 32 33  1  0
 33 34  1  0
 34 35  2  0
 36 35  1  0
 36 40  1  0
 37 36  2  0
 38 33  2  0
 38 37  1  0
 39 38  1  0
 41 42  1  0
 42 45  1  0
 42 44  1  0
 43 41  2  0
 46 47  1  0
 46 21  1  0
 48 46  1  0
 49 51  2  0
 50 49  1  0
 50 54  1  0
 52 50  1  0
 54 53  1  0
 55 56  1  0
 55 54  1  0
 57 68  2  0
 58 56  1  0
 58 63  1  0
 59 67  1  0
 59 69  1  0
 60 66  1  0
 60 62  1  0
 61 67  1  0
 62 61  1  0
 63 62  2  0
 64 65  1  0
 64 58  2  0
 65 60  2  0
 66 59  1  0
 67 57  1  0
 69 71  2  0
 70 69  1  0
 72 70  1  0
 73 82  2  0
 73 78  1  0
 74 70  1  0
 74 78  1  0
 75 74  1  0
 76 77  1  0
 76 75  1  0
 77 73  1  0
 78 79  2  0
 79 80  1  0
 81 80  2  0
 82 81  1  0
 83 57  1  0
 83 88  1  0
 83 84  1  0
 84 87  1  1
 84 85  1  0
 86 84  1  0
 88 91  1  0
 89 93  1  0
 89 88  1  0
 90 89  2  0
 93 92  1  0
 95 93  1  0
 95 96  1  0
 95 94  1  0
M  ISO  4  11 100  19 100  55 101  56 101
M  END
>  <TORSDO>  (93) 
F 20

>  <SCORE>  (93) 
-13.332

>  <name>  (93) 
92

>  <ligand_id>  (93) 
92

>  <original_smiles>  (93) 
[H]C(C(=O)N([H])C([H])(C([H])([H])[H])C([H])([H])Oc1c([H])c([H])c2c(c1[H])C([H])([H])N(C(=O)C([H])(N([H])C(=O)C([H])(N([H])C([H])([H])[H])C([H])([H])[H])C(C([H])([H])[H])(C([H])([H])[H])C([H])([H])[H])C([H])(C(=O)N([H])C1([H])c3c([H])c([H])c([H])c([H])c3C([H])([H])C([H])([H])C1([H])[H])C2([H])[H])=C([H])c1c([H])c(N([H])C(=O)N2C([H])([H])C([H])([H])C([H])([H])C([H])(n3nc(-c4c([H])c([H])c(Oc5c([H])c([H])c(F)c([H])c5F)c([H])c4[H])c(C(=O)N([H])[H])c3N([H])[H])C2([H])[H])c([H])c(F)c1C([H])([H])[H]

>  <smiles>  (93) 
[H]C(C(=O)N([H])C([H])(C([H])([H])[H])C([H])([H])Oc1c([H])c([H])c2c(c1[H])C([H])([H])N(C(=O)C([H])(N([H])C(=O)C([H])(N([H])C([H])([H])[H])C([H])([H])[H])C(C([H])([H])[H])(C([H])([H])[H])C([H])([H])[H])C([H])(C(=O)N([H])C1([H])c3c([H])c([H])c([H])c([H])c3C([H])([H])C([H])([H])C1([H])[H])C2([H])[H])=C([H])c1c([H])c(N([H])C(=O)N2C([H])([H])C([H])([H])C([H])([H])C([H])(n3nc(-c4c([H])c([H])c(Oc5c([H])c([H])c(F)c([H])c5F)c([H])c4[H])c(C(=O)N([H])[H])c3N([H])[H])C2([H])[H])c([H])c(F)c1C([H])([H])[H]

$$$$
93:0:0
     RDKit          3D

 92100  0  0  1  0  0  0  0  0999 V2000
  -29.4800  -19.8930   20.6350 C   0  0  0  0  0  0  0  0  0  0  0  0
  -29.8090  -19.8010   21.8220 O   0  0  0  0  0  0  0  0  0  0  0  0
  -29.8910  -19.5310   18.2630 C   0  0  0  0  0  3  0  0  0  0  0  0
  -30.2670  -18.9360   17.0520 C   0  0  0  0  0  3  0  0  0  0  0  0
  -31.0170  -17.0100   18.2850 C   0  0  0  0  0  3  0  0  0  0  0  0
  -30.0420  -18.9120   19.5440 C   0  0  0  0  0  0  0  0  0  0  0  0
  -30.6910  -17.5640   19.5600 C   0  0  0  0  0  0  0  0  0  0  0  0
  -30.8130  -17.6570   17.0640 C   0  0  0  0  0  0  0  0  0  0  0  0
  -31.2170  -16.8700   15.5810 Cl  0  0  0  0  0  0  0  0  0  0  0  0
  -31.7070  -15.3930   20.5630 C   0  0  0  0  0  0  0  0  0  0  0  0
  -31.5010  -13.1060   19.5480 C   0  0  0  0  0  2  0  0  0  0  0  0
  -30.6510  -13.1080   18.2590 C   0  0  0  0  0  2  0  0  0  0  0  0
  -29.1450  -13.1060   18.5630 C   0  0  0  0  0  2  0  0  0  0  0  0
  -28.7240  -14.0220   19.7430 C   0  0  0  0  0  3  0  0  0  0  0  0
  -29.6900  -13.9070   20.9420 C   0  0  0  0  0  2  0  0  0  0  0  0
  -31.0330  -14.1970   20.4430 N   0  0  0  0  0  0  0  0  0  0  0  0
  -32.9240  -15.4220   20.3500 O   0  0  0  0  0  0  0  0  0  0  0  0
  -30.9920  -16.5920   20.6540 N   0  0  0  0  0  0  0  0  0  0  0  0
  -30.4540  -16.6960   21.5030 H   0  0  0  0  0  0  0  0  0  0  0  0
  -26.3000  -14.6820   20.2510 C   0  0  0  0  0  0  0  0  0  0  0  0
  -25.1950  -13.9410   20.5580 C   0  0  0  0  0  0  0  0  0  0  0  0
  -25.6330  -12.5830   20.6250 C   0  0  0  0  0  0  0  0  0  0  0  0
  -27.3440  -13.7800   20.1410 N   0  0  0  0  0  0  0  0  0  0  0  0
  -26.9450  -12.5160   20.4390 N   0  0  0  0  0  0  0  0  0  0  0  0
  -24.8740  -11.3380   20.7930 C   0  0  0  0  0  0  0  0  0  0  0  0
  -25.1580  -10.4350   21.8420 C   0  0  0  0  0  3  0  0  0  0  0  0
  -24.4010   -9.2540   21.9940 C   0  0  0  0  0  3  0  0  0  0  0  0
  -23.3480   -8.9650   21.0940 C   0  0  0  0  0  0  0  0  0  0  0  0
  -23.0870   -9.8550   20.0370 C   0  0  0  0  0  3  0  0  0  0  0  0
  -23.8440  -11.0270   19.8860 C   0  0  0  0  0  3  0  0  0  0  0  0
  -22.5740   -7.8310   21.1520 O   0  0  0  0  0  0  0  0  0  0  0  0
  -22.2500   -7.2410   22.3450 C   0  0  0  0  0  0  0  0  0  0  0  0
  -21.5780   -7.9500   23.3670 C   0  0  0  0  0  3  0  0  0  0  0  0
  -21.1990   -7.2850   24.5520 C   0  0  0  0  0  3  0  0  0  0  0  0
  -21.4830   -5.9150   24.7110 C   0  0  0  0  0  0  0  0  0  0  0  0
  -22.1460   -5.2090   23.6940 C   0  0  0  0  0  3  0  0  0  0  0  0
  -22.5270   -5.8690   22.5140 C   0  0  0  0  0  0  0  0  0  0  0  0
  -23.1480   -5.1800   21.5260 F   0  0  0  0  0  0  0  0  0  0  0  0
  -21.1120   -5.2750   25.8450 F   0  0  0  0  0  0  0  0  0  0  0  0
  -23.7870  -14.4430   20.6840 C   0  0  0  0  0  0  0  0  0  0  0  0
  -22.9870  -13.8170   21.5360 N   0  0  0  0  0  0  0  0  0  0  0  0
  -23.4050  -15.4300   20.0560 O   0  0  0  0  0  0  0  0  0  0  0  0
  -23.3110  -13.0180   22.0640 H   0  0  0  0  0  0  0  0  0  0  0  0
  -22.0400  -14.1400   21.6670 H   0  0  0  0  0  0  0  0  0  0  0  0
  -26.4960  -16.0410   20.0210 N   0  0  0  0  0  0  0  0  0  0  0  0
  -25.7070  -16.6730   19.9580 H   0  0  0  0  0  0  0  0  0  0  0  0
  -27.3610  -16.4540   19.6980 H   0  0  0  0  0  0  0  0  0  0  0  0
  -28.4350  -20.9460   20.1750 C   0  0  0  0  0  3  0  0  0  0  0  0
  -28.2100  -22.3270   20.1640 C   0  0  0  0  0  3  0  0  0  0  0  0
  -28.8660  -23.7180   20.5990 C   0  0  0  0  0  3  0  0  0  0  0  0
  -28.0350  -25.0640   20.1420 C   0  0  0  0  0  3  0  0  0  0  0  0
  -28.3990  -26.5520   20.2450 O   0  0  0  0  0  0  0  0  0  0  0  0
  -24.6870  -32.0670   23.3330 C   0  0  0  0  0  0  0  0  0  0  0  0
  -27.3350  -27.5060   20.1940 C   0  0  0  0  0  0  0  0  0  0  0  0
  -23.5050  -30.6660   21.6840 C   0  0  0  0  0  3  0  0  0  0  0  0
  -24.9750  -29.1720   20.2160 C   0  0  0  0  0  0  0  0  0  0  0  0
  -26.0470  -31.0110   21.4970 C   0  0  0  0  0  2  0  0  0  0  0  0
  -26.1470  -29.6380   20.8240 C   0  0  0  0  0  0  0  0  0  0  0  0
  -27.3320  -28.8180   20.8040 C   0  0  0  0  0  3  0  0  0  0  0  0
  -26.1350  -27.1390   19.5440 C   0  0  0  0  0  3  0  0  0  0  0  0
  -24.9770  -27.9360   19.5600 C   0  0  0  0  0  3  0  0  0  0  0  0
  -23.7280  -30.0350   20.2870 C   0  0  0  0  0  2  0  0  0  0  0  0
  -24.7660  -31.2660   22.2290 N   0  0  0  0  0  0  0  0  0  0  0  0
  -23.6000  -32.3110   23.8770 O   0  0  0  0  0  0  0  0  0  0  0  0
  -22.8690  -29.6160   22.6310 C   0  0  0  0  0  0  0  0  0  0  0  0
  -21.5680  -29.3350   22.4470 N   0  0  0  0  0  0  0  0  0  0  0  0
  -23.5530  -29.0610   23.4970 O   0  0  0  0  0  0  0  0  0  0  0  0
  -21.0750  -29.8330   21.7200 H   0  0  0  0  0  0  0  0  0  0  0  0
  -18.2880  -27.8320   22.7810 C   0  0  0  0  0  0  0  0  0  0  0  0
  -20.7860  -28.3530   23.2030 C   0  0  0  0  0  3  0  0  0  0  0  0
  -21.0620  -26.9180   22.7000 C   0  0  0  0  0  2  0  0  0  0  0  0
  -20.0690  -26.4440   21.6330 C   0  0  0  0  0  2  0  0  0  0  0  0
  -18.6380  -26.4780   22.1810 C   0  0  0  0  0  2  0  0  0  0  0  0
  -19.2960  -28.7180   23.2490 C   0  0  0  0  0  0  0  0  0  0  0  0
  -18.9160  -29.9740   23.7680 C   0  0  0  0  0  3  0  0  0  0  0  0
  -17.5580  -30.3460   23.8300 C   0  0  0  0  0  3  0  0  0  0  0  0
  -16.5640  -29.4610   23.3810 C   0  0  0  0  0  3  0  0  0  0  0  0
  -16.9310  -28.2080   22.8590 C   0  0  0  0  0  3  0  0  0  0  0  0
  -25.9560  -32.7260   23.9500 C   0  0  0  0  0  3  0  0  0  0  0  0
  -26.4960  -31.9610   25.2210 C   0  0  1  0  0  0  0  0  0  0  0  0
  -25.4040  -31.6450   26.2680 C   0  0  0  0  0  1  0  0  0  0  0  0
  -27.1620  -30.6260   24.8210 C   0  0  0  0  0  1  0  0  0  0  0  0
  -27.5920  -32.8040   25.9160 C   0  0  0  0  0  1  0  0  0  0  0  0
  -25.6160  -34.1160   24.2950 N   0  0  0  0  0  0  0  0  0  0  0  0
  -25.9370  -35.1870   23.5550 C   0  0  0  0  0  0  0  0  0  0  0  0
  -26.6220  -35.1110   22.5320 O   0  0  0  0  0  0  0  0  0  0  0  0
  -25.0120  -34.2490   25.0940 H   0  0  0  0  0  0  0  0  0  0  0  0
  -24.1820  -36.9580   23.1970 C   0  0  0  0  0  1  0  0  0  0  0  0
  -25.4150  -36.5610   24.0240 C   0  0  0  0  0  3  0  0  0  0  0  0
  -27.5250  -37.4650   24.9010 C   0  0  0  0  0  1  0  0  0  0  0  0
  -26.4330  -37.6330   23.9480 N   0  0  0  0  0  0  0  0  0  0  0  0
  -26.0050  -38.5410   24.1140 H   0  0  0  0  0  0  0  0  0  0  0  0
  1  2  2  0
  3  6  1  0
  4  8  1  0
  4  3  2  0
  5  7  1  0
  6  7  2  0
  6  1  1  0
  7 18  1  0
  8  5  2  0
  9  8  1  0
 10 18  1  0
 11 16  1  0
 12 13  1  0
 12 11  1  0
 14 13  1  0
 14 23  1  0
 14 15  1  0
 16 10  1  0
 16 15  1  0
 17 10  2  0
 18 19  1  0
 20 21  2  0
 21 22  1  0
 21 40  1  0
 22 25  1  0
 23 20  1  0
 23 24  1  0
 24 22  2  0
 25 26  1  0
 26 27  2  0
 28 31  1  0
 28 27  1  0
 29 28  2  0
 30 29  1  0
 30 25  2  0
 31 32  1  0
 32 37  2  0
 32 33  1  0
 33 34  2  0
 34 35  1  0
 35 39  1  0
 36 35  2  0
 37 36  1  0
 38 37  1  0
 40 41  1  0
 41 44  1  0
 41 43  1  0
 42 40  2  0
 45 20  1  0
 46 45  1  0
 47 45  1  0
 48  1  1  0
 49 48  2  0
 49 50  1  0
 51 52  1  0
 51 50  2  0
 53 64  2  0
 54 52  1  0
 54 59  1  0
 55 63  1  0
 55 65  1  0
 56 62  1  0
 56 58  1  0
 57 63  1  0
 58 57  1  0
 59 58  2  0
 60 61  1  0
 60 54  2  0
 61 56  2  0
 62 55  1  0
 63 53  1  0
 65 67  2  0
 66 65  1  0
 68 66  1  0
 69 78  2  0
 69 74  1  0
 70 66  1  0
 70 74  1  0
 71 70  1  0
 72 73  1  0
 72 71  1  0
 73 69  1  0
 74 75  2  0
 75 76  1  0
 77 76  2  0
 78 77  1  0
 79 53  1  0
 79 84  1  0
 79 80  1  0
 80 83  1  1
 80 81  1  0
 82 80  1  0
 84 87  1  0
 85 89  1  0
 85 84  1  0
 86 85  2  0
 89 88  1  0
 91 89  1  0
 91 92  1  0
 91 90  1  0
M  ISO  4  10 100  18 100  51 101  52 101
M  END
>  <TORSDO>  (94) 
F 20

>  <SCORE>  (94) 
-11.207

>  <name>  (94) 
93

>  <ligand_id>  (94) 
93

>  <original_smiles>  (94) 
[H]C(C(=O)c1c([H])c([H])c(Cl)c([H])c1N([H])C(=O)N1C([H])([H])C([H])([H])C([H])([H])C([H])(n2nc(-c3c([H])c([H])c(Oc4c([H])c([H])c(F)c([H])c4F)c([H])c3[H])c(C(=O)N([H])[H])c2N([H])[H])C1([H])[H])=C([H])C([H])([H])C([H])([H])Oc1c([H])c([H])c2c(c1[H])C([H])([H])N(C(=O)C([H])(N([H])C(=O)C([H])(N([H])C([H])([H])[H])C([H])([H])[H])C(C([H])([H])[H])(C([H])([H])[H])C([H])([H])[H])C([H])(C(=O)N([H])C1([H])c3c([H])c([H])c([H])c([H])c3C([H])([H])C([H])([H])C1([H])[H])C2([H])[H]

>  <smiles>  (94) 
[H]C(C(=O)c1c([H])c([H])c(Cl)c([H])c1N([H])C(=O)N1C([H])([H])C([H])([H])C([H])([H])C([H])(n2nc(-c3c([H])c([H])c(Oc4c([H])c([H])c(F)c([H])c4F)c([H])c3[H])c(C(=O)N([H])[H])c2N([H])[H])C1([H])[H])=C([H])C([H])([H])C([H])([H])Oc1c([H])c([H])c2c(c1[H])C([H])([H])N(C(=O)C([H])(N([H])C(=O)C([H])(N([H])C([H])([H])[H])C([H])([H])[H])C(C([H])([H])[H])(C([H])([H])[H])C([H])([H])[H])C([H])(C(=O)N([H])C1([H])c3c([H])c([H])c([H])c([H])c3C([H])([H])C([H])([H])C1([H])[H])C2([H])[H]

$$$$
94:0:0
     RDKit          3D

 95103  0  0  1  0  0  0  0  0999 V2000
  -29.8880  -22.9040   20.0260 C   0  0  0  0  0  0  0  0  0  0  0  0
  -29.9050  -21.7420   19.3230 N   0  0  0  0  0  0  0  0  0  0  0  0
  -30.6240  -23.0650   21.0030 O   0  0  0  0  0  0  0  0  0  0  0  0
  -29.2510  -21.6980   18.5520 H   0  0  0  0  0  0  0  0  0  0  0  0
  -30.9410  -20.6640   19.3300 C   0  0  0  0  0  2  0  0  0  0  0  0
  -30.5530  -18.7770   22.6590 C   0  0  0  0  0  3  0  0  0  0  0  0
  -30.6510  -19.8010   21.7030 C   0  0  0  0  0  3  0  0  0  0  0  0
  -30.6080  -17.4290   22.2660 C   0  0  0  0  0  3  0  0  0  0  0  0
  -30.9040  -18.1120   19.9460 C   0  0  0  0  0  3  0  0  0  0  0  0
  -30.8150  -19.4940   20.3380 C   0  0  0  0  0  0  0  0  0  0  0  0
  -30.7860  -17.0650   20.9140 C   0  0  0  0  0  0  0  0  0  0  0  0
  -31.3880  -14.6730   20.0880 C   0  0  0  0  0  0  0  0  0  0  0  0
  -31.0190  -12.5010   18.9350 C   0  0  0  0  0  2  0  0  0  0  0  0
  -30.0460  -12.7460   17.7610 C   0  0  0  0  0  2  0  0  0  0  0  0
  -28.5750  -12.6900   18.2280 C   0  0  0  0  0  2  0  0  0  0  0  0
  -28.3220  -13.5310   19.5060 C   0  0  0  0  0  3  0  0  0  0  0  0
  -29.3900  -13.2120   20.5770 C   0  0  0  0  0  2  0  0  0  0  0  0
  -30.7130  -13.4880   19.9820 N   0  0  0  0  0  0  0  0  0  0  0  0
  -32.5100  -14.8500   19.6010 O   0  0  0  0  0  0  0  0  0  0  0  0
  -30.6440  -15.6510   20.6620 N   0  0  0  0  0  0  0  0  0  0  0  0
  -29.8040  -15.2600   21.0600 H   0  0  0  0  0  0  0  0  0  0  0  0
  -25.9980  -14.3090   20.2960 C   0  0  0  0  0  0  0  0  0  0  0  0
  -24.8820  -13.6140   20.6780 C   0  0  0  0  0  0  0  0  0  0  0  0
  -25.2340  -12.2320   20.6010 C   0  0  0  0  0  0  0  0  0  0  0  0
  -26.9640  -13.3540   20.0150 N   0  0  0  0  0  0  0  0  0  0  0  0
  -26.5080  -12.0990   20.2530 N   0  0  0  0  0  0  0  0  0  0  0  0
  -24.4160  -11.0260   20.7810 C   0  0  0  0  0  0  0  0  0  0  0  0
  -24.7720  -10.0280   21.7150 C   0  0  0  0  0  3  0  0  0  0  0  0
  -23.9600   -8.8850   21.8840 C   0  0  0  0  0  3  0  0  0  0  0  0
  -22.7800   -8.7330   21.1200 C   0  0  0  0  0  0  0  0  0  0  0  0
  -22.4420   -9.7190   20.1750 C   0  0  0  0  0  3  0  0  0  0  0  0
  -23.2540  -10.8540   20.0050 C   0  0  0  0  0  3  0  0  0  0  0  0
  -21.9440   -7.6450   21.1970 O   0  0  0  0  0  0  0  0  0  0  0  0
  -21.7890   -6.9390   22.3630 C   0  0  0  0  0  0  0  0  0  0  0  0
  -21.3610   -7.5580   23.5570 C   0  0  0  0  0  3  0  0  0  0  0  0
  -21.1470   -6.7840   24.7150 C   0  0  0  0  0  3  0  0  0  0  0  0
  -21.3510   -5.3910   24.6790 C   0  0  0  0  0  0  0  0  0  0  0  0
  -21.7710   -4.7720   23.4880 C   0  0  0  0  0  3  0  0  0  0  0  0
  -21.9860   -5.5440   22.3340 C   0  0  0  0  0  0  0  0  0  0  0  0
  -22.3710   -4.9390   21.1840 F   0  0  0  0  0  0  0  0  0  0  0  0
  -21.1370   -4.6460   25.7880 F   0  0  0  0  0  0  0  0  0  0  0  0
  -23.5340  -14.1920   21.0040 C   0  0  0  0  0  0  0  0  0  0  0  0
  -22.7900  -13.5450   21.8930 N   0  0  0  0  0  0  0  0  0  0  0  0
  -23.1540  -15.2490   20.5040 O   0  0  0  0  0  0  0  0  0  0  0  0
  -23.1120  -12.6890   22.3200 H   0  0  0  0  0  0  0  0  0  0  0  0
  -21.8840  -13.9110   22.1530 H   0  0  0  0  0  0  0  0  0  0  0  0
  -26.2660  -15.6670   20.1470 N   0  0  0  0  0  0  0  0  0  0  0  0
  -25.5580  -16.3760   20.3020 H   0  0  0  0  0  0  0  0  0  0  0  0
  -27.1380  -16.0490   19.8060 H   0  0  0  0  0  0  0  0  0  0  0  0
  -29.0320  -24.1150   19.4950 C   0  0  0  0  0  3  0  0  0  0  0  0
  -30.8850  -25.4670   18.4460 C   0  0  0  0  0  0  0  0  0  0  0  0
  -29.8530  -24.8230   18.5400 N   0  0  0  0  0  0  0  0  0  0  0  0
  -31.9230  -26.0220   18.4760 O   0  0  0  0  0  0  0  0  0  0  0  0
  -28.4810  -25.1370   20.5720 C   0  0  0  0  0  2  0  0  0  0  0  0
  -28.5070  -26.5540   20.2130 O   0  0  0  0  0  0  0  0  0  0  0  0
  -24.5820  -31.7670   23.2020 C   0  0  0  0  0  0  0  0  0  0  0  0
  -27.3230  -27.2790   20.2220 C   0  0  0  0  0  0  0  0  0  0  0  0
  -23.4190  -30.3360   21.5560 C   0  0  0  0  0  3  0  0  0  0  0  0
  -24.9110  -28.7900   20.1720 C   0  0  0  0  0  0  0  0  0  0  0  0
  -25.9470  -30.7090   21.3960 C   0  0  0  0  0  2  0  0  0  0  0  0
  -26.0570  -29.3280   20.7720 C   0  0  0  0  0  0  0  0  0  0  0  0
  -27.2660  -28.5840   20.7810 C   0  0  0  0  0  3  0  0  0  0  0  0
  -26.1550  -26.7620   19.6230 C   0  0  0  0  0  3  0  0  0  0  0  0
  -24.9580  -27.5070   19.5930 C   0  0  0  0  0  3  0  0  0  0  0  0
  -23.6590  -29.6390   20.1890 C   0  0  0  0  0  2  0  0  0  0  0  0
  -24.6680  -30.9540   22.1100 N   0  0  0  0  0  0  0  0  0  0  0  0
  -23.4880  -32.0340   23.7200 O   0  0  0  0  0  0  0  0  0  0  0  0
  -22.7530  -29.3250   22.5160 C   0  0  0  0  0  0  0  0  0  0  0  0
  -21.4330  -29.1280   22.3630 N   0  0  0  0  0  0  0  0  0  0  0  0
  -23.4240  -28.7180   23.3550 O   0  0  0  0  0  0  0  0  0  0  0  0
  -20.9520  -29.6650   21.6530 H   0  0  0  0  0  0  0  0  0  0  0  0
  -18.0690  -27.8710   22.7790 C   0  0  0  0  0  0  0  0  0  0  0  0
  -20.6100  -28.1890   23.1280 C   0  0  0  0  0  3  0  0  0  0  0  0
  -20.7630  -26.7490   22.5860 C   0  0  0  0  0  2  0  0  0  0  0  0
  -19.7010  -26.3820   21.5440 C   0  0  0  0  0  2  0  0  0  0  0  0
  -18.2960  -26.5110   22.1410 C   0  0  0  0  0  2  0  0  0  0  0  0
  -19.1560  -28.6660   23.2280 C   0  0  0  0  0  0  0  0  0  0  0  0
  -18.8920  -29.9370   23.7840 C   0  0  0  0  0  3  0  0  0  0  0  0
  -17.5720  -30.4130   23.8960 C   0  0  0  0  0  3  0  0  0  0  0  0
  -16.4990  -29.6140   23.4650 C   0  0  0  0  0  3  0  0  0  0  0  0
  -16.7470  -28.3470   22.9110 C   0  0  0  0  0  3  0  0  0  0  0  0
  -25.8500  -32.4170   23.8380 C   0  0  0  0  0  3  0  0  0  0  0  0
  -25.5190  -33.8150   24.1570 N   0  0  0  0  0  0  0  0  0  0  0  0
  -25.8430  -34.8660   23.3910 C   0  0  0  0  0  0  0  0  0  0  0  0
  -26.5210  -34.7610   22.3640 O   0  0  0  0  0  0  0  0  0  0  0  0
  -24.9200  -33.9670   24.9540 H   0  0  0  0  0  0  0  0  0  0  0  0
  -24.0870  -36.6270   23.0250 C   0  0  0  0  0  1  0  0  0  0  0  0
  -25.3370  -36.2520   23.8350 C   0  0  0  0  0  3  0  0  0  0  0  0
  -27.4620  -37.1790   24.6440 C   0  0  0  0  0  1  0  0  0  0  0  0
  -26.3530  -37.3190   23.7030 N   0  0  0  0  0  0  0  0  0  0  0  0
  -25.9340  -38.2340   23.8410 H   0  0  0  0  0  0  0  0  0  0  0  0
  -26.3580  -31.6590   25.1260 C   0  0  1  0  0  0  0  0  0  0  0  0
  -25.2530  -31.4110   26.1770 C   0  0  0  0  0  1  0  0  0  0  0  0
  -26.9640  -30.2880   24.7470 C   0  0  0  0  0  1  0  0  0  0  0  0
  -27.4910  -32.4690   25.7980 C   0  0  0  0  0  1  0  0  0  0  0  0
  1  3  2  0
  2  5  1  0
  2  1  1  0
  4  2  1  0
  5 10  1  0
  7  6  2  0
  8  6  1  0
  9 10  2  0
  9 11  1  0
 10  7  1  0
 11  8  2  0
 12 20  1  0
 13 18  1  0
 14 15  1  0
 14 13  1  0
 16 15  1  0
 16 25  1  0
 16 17  1  0
 18 12  1  0
 18 17  1  0
 19 12  2  0
 20 11  1  0
 20 21  1  0
 22 23  2  0
 23 42  1  0
 24 23  1  0
 24 27  1  0
 25 26  1  0
 25 22  1  0
 26 24  2  0
 27 28  1  0
 28 29  2  0
 30 33  1  0
 30 29  1  0
 31 30  2  0
 32 31  1  0
 32 27  2  0
 33 34  1  0
 34 35  1  0
 35 36  2  0
 37 36  1  0
 37 41  1  0
 38 37  2  0
 39 34  2  0
 39 38  1  0
 40 39  1  0
 42 43  1  0
 43 46  1  0
 43 45  1  0
 44 42  2  0
 47 22  1  0
 47 48  1  0
 49 47  1  0
 50  1  1  0
 50 54  1  0
 51 53  2  0
 51 52  2  0
 52 50  1  0
 55 57  1  0
 55 54  1  0
 56 67  2  0
 57 62  1  0
 58 66  1  0
 58 68  1  0
 59 65  1  0
 59 61  1  0
 60 66  1  0
 61 62  2  0
 61 60  1  0
 63 57  2  0
 64 63  1  0
 64 59  2  0
 65 58  1  0
 66 56  1  0
 68 70  2  0
 69 68  1  0
 71 69  1  0
 72 81  2  0
 72 77  1  0
 73 69  1  0
 73 77  1  0
 74 73  1  0
 75 76  1  0
 75 74  1  0
 76 72  1  0
 77 78  2  0
 78 79  1  0
 80 79  2  0
 81 80  1  0
 82 56  1  0
 82 83  1  0
 82 92  1  0
 83 86  1  0
 84 88  1  0
 84 83  1  0
 85 84  2  0
 88 87  1  0
 90 88  1  0
 90 91  1  0
 90 89  1  0
 92 95  1  1
 92 93  1  0
 94 92  1  0
M  ISO  4  12 100  20 100  54 101  55 101
M  END
>  <TORSDO>  (95) 
F 21

>  <SCORE>  (95) 
-12.388

>  <name>  (95) 
94

>  <ligand_id>  (95) 
94

>  <original_smiles>  (95) 
[H]c1c([H])c(N([H])C(=O)N2C([H])([H])C([H])([H])C([H])([H])C([H])(n3nc(-c4c([H])c([H])c(Oc5c([H])c([H])c(F)c([H])c5F)c([H])c4[H])c(C(=O)N([H])[H])c3N([H])[H])C2([H])[H])c([H])c(C([H])([H])N([H])C(=O)C([H])(N=C=O)C([H])([H])Oc2c([H])c([H])c3c(c2[H])C([H])([H])N(C(=O)C([H])(N([H])C(=O)C([H])(N([H])C([H])([H])[H])C([H])([H])[H])C(C([H])([H])[H])(C([H])([H])[H])C([H])([H])[H])C([H])(C(=O)N([H])C2([H])c4c([H])c([H])c([H])c([H])c4C([H])([H])C([H])([H])C2([H])[H])C3([H])[H])c1[H]

>  <smiles>  (95) 
[H]c1c([H])c(N([H])C(=O)N2C([H])([H])C([H])([H])C([H])([H])C([H])(n3nc(-c4c([H])c([H])c(Oc5c([H])c([H])c(F)c([H])c5F)c([H])c4[H])c(C(=O)N([H])[H])c3N([H])[H])C2([H])[H])c([H])c(C([H])([H])N([H])C(=O)C([H])(N=C=O)C([H])([H])Oc2c([H])c([H])c3c(c2[H])C([H])([H])N(C(=O)C([H])(N([H])C(=O)C([H])(N([H])C([H])([H])[H])C([H])([H])[H])C(C([H])([H])[H])(C([H])([H])[H])C([H])([H])[H])C([H])(C(=O)N([H])C2([H])c4c([H])c([H])c([H])c([H])c4C([H])([H])C([H])([H])C2([H])[H])C3([H])[H])c1[H]

$$$$
95:0:0
     RDKit          3D

 93101  0  0  1  0  0  0  0  0999 V2000
  -29.6450  -21.2620   20.7750 C   0  0  0  0  0  2  0  0  0  0  0  0
  -30.3980  -18.6330   17.9450 C   0  0  0  0  0  3  0  0  0  0  0  0
  -30.3490  -17.3870   18.6080 C   0  0  0  0  0  3  0  0  0  0  0  0
  -29.7590  -18.5630   20.6460 C   0  0  0  0  0  3  0  0  0  0  0  0
  -30.1690  -19.8590   18.6120 C   0  0  0  0  0  0  0  0  0  0  0  0
  -29.8250  -19.8720   19.9940 C   0  0  0  0  0  0  0  0  0  0  0  0
  -30.0360  -17.2910   19.9830 C   0  0  0  0  0  0  0  0  0  0  0  0
  -30.6250  -14.7710   20.3140 C   0  0  0  0  0  0  0  0  0  0  0  0
  -30.3680  -12.4800   19.3650 C   0  0  0  0  0  2  0  0  0  0  0  0
  -29.4450  -12.5910   18.1320 C   0  0  0  0  0  2  0  0  0  0  0  0
  -27.9710  -12.4420   18.5540 C   0  0  0  0  0  2  0  0  0  0  0  0
  -27.6060  -13.3080   19.7900 C   0  0  0  0  0  3  0  0  0  0  0  0
  -28.6710  -13.2270   20.9090 C   0  0  0  0  0  2  0  0  0  0  0  0
  -29.9740  -13.5530   20.3120 N   0  0  0  0  0  0  0  0  0  0  0  0
  -31.7950  -14.8310   19.9340 O   0  0  0  0  0  0  0  0  0  0  0  0
  -29.9200  -15.9370   20.5970 N   0  0  0  0  0  0  0  0  0  0  0  0
  -29.0940  -15.7920   21.1560 H   0  0  0  0  0  0  0  0  0  0  0  0
  -25.2160  -13.8880   20.5050 C   0  0  0  0  0  0  0  0  0  0  0  0
  -24.1480  -13.1150   20.8790 C   0  0  0  0  0  0  0  0  0  0  0  0
  -24.6130  -11.7630   20.8470 C   0  0  0  0  0  0  0  0  0  0  0  0
  -26.2620  -13.0100   20.2740 N   0  0  0  0  0  0  0  0  0  0  0  0
  -25.9060  -11.7270   20.5480 N   0  0  0  0  0  0  0  0  0  0  0  0
  -23.8880  -10.4990   21.0390 C   0  0  0  0  0  0  0  0  0  0  0  0
  -24.3280   -9.5280   21.9640 C   0  0  0  0  0  3  0  0  0  0  0  0
  -23.5990   -8.3340   22.1490 C   0  0  0  0  0  3  0  0  0  0  0  0
  -22.4150   -8.1030   21.4100 C   0  0  0  0  0  0  0  0  0  0  0  0
  -21.9900   -9.0630   20.4760 C   0  0  0  0  0  3  0  0  0  0  0  0
  -22.7190  -10.2500   20.2870 C   0  0  0  0  0  3  0  0  0  0  0  0
  -21.6600   -6.9590   21.5020 O   0  0  0  0  0  0  0  0  0  0  0  0
  -21.6350   -6.2020   22.6450 C   0  0  0  0  0  0  0  0  0  0  0  0
  -21.2490   -6.7410   23.8910 C   0  0  0  0  0  3  0  0  0  0  0  0
  -21.1710   -5.9110   25.0270 C   0  0  0  0  0  3  0  0  0  0  0  0
  -21.4690   -4.5390   24.9180 C   0  0  0  0  0  0  0  0  0  0  0  0
  -21.8450   -3.9970   23.6750 C   0  0  0  0  0  3  0  0  0  0  0  0
  -21.9240   -4.8260   22.5420 C   0  0  0  0  0  0  0  0  0  0  0  0
  -22.2670   -4.2960   21.3440 F   0  0  0  0  0  0  0  0  0  0  0  0
  -21.3860   -3.7360   26.0050 F   0  0  0  0  0  0  0  0  0  0  0  0
  -22.7520  -13.5920   21.1430 C   0  0  0  0  0  0  0  0  0  0  0  0
  -22.0230  -12.8980   22.0080 N   0  0  0  0  0  0  0  0  0  0  0  0
  -22.3120  -14.6180   20.6200 O   0  0  0  0  0  0  0  0  0  0  0  0
  -22.3880  -12.0690   22.4550 H   0  0  0  0  0  0  0  0  0  0  0  0
  -21.0830  -13.1990   22.2300 H   0  0  0  0  0  0  0  0  0  0  0  0
  -25.3710  -15.2590   20.3130 N   0  0  0  0  0  0  0  0  0  0  0  0
  -24.6100  -15.9150   20.4530 H   0  0  0  0  0  0  0  0  0  0  0  0
  -26.2010  -15.7010   19.9380 H   0  0  0  0  0  0  0  0  0  0  0  0
  -30.3420  -21.1070   17.8190 C   0  0  0  0  0  3  0  0  0  0  0  0
  -30.0590  -21.2070   16.6200 O   0  0  0  0  0  0  0  0  0  0  0  0
  -29.0920  -23.8240   20.4300 C   0  0  0  0  0  0  0  0  0  0  0  0
  -28.8870  -22.4640   20.2060 N   0  0  0  0  0  0  0  0  0  0  0  0
  -30.1080  -24.2060   21.0180 O   0  0  0  0  0  0  0  0  0  0  0  0
  -28.0460  -22.2230   19.6990 H   0  0  0  0  0  0  0  0  0  0  0  0
  -28.0220  -24.9250   19.9630 C   0  0  0  0  0  2  0  0  0  0  0  0
  -28.2760  -26.3840   20.2540 O   0  0  0  0  0  0  0  0  0  0  0  0
  -24.6010  -31.9050   23.2470 C   0  0  0  0  0  0  0  0  0  0  0  0
  -27.1800  -27.2830   20.1950 C   0  0  0  0  0  0  0  0  0  0  0  0
  -23.3840  -30.5030   21.6230 C   0  0  0  0  0  3  0  0  0  0  0  0
  -24.8250  -28.9370   20.1970 C   0  0  0  0  0  0  0  0  0  0  0  0
  -25.9290  -30.8000   21.4270 C   0  0  0  0  0  2  0  0  0  0  0  0
  -26.0020  -29.4150   20.7840 C   0  0  0  0  0  0  0  0  0  0  0  0
  -27.1810  -28.6010   20.7740 C   0  0  0  0  0  3  0  0  0  0  0  0
  -25.9740  -26.8790   19.5730 C   0  0  0  0  0  3  0  0  0  0  0  0
  -24.8140  -27.6780   19.5830 C   0  0  0  0  0  3  0  0  0  0  0  0
  -23.5910  -29.8160   20.2470 C   0  0  0  0  0  2  0  0  0  0  0  0
  -24.6580  -31.0850   22.1570 N   0  0  0  0  0  0  0  0  0  0  0  0
  -23.5200  -32.1950   23.7820 O   0  0  0  0  0  0  0  0  0  0  0  0
  -22.7190  -29.4960   22.5910 C   0  0  0  0  0  0  0  0  0  0  0  0
  -21.3920  -29.3220   22.4680 N   0  0  0  0  0  0  0  0  0  0  0  0
  -23.3970  -28.8760   23.4150 O   0  0  0  0  0  0  0  0  0  0  0  0
  -20.9060  -29.8680   21.7700 H   0  0  0  0  0  0  0  0  0  0  0  0
  -18.0150  -28.1270   22.9760 C   0  0  0  0  0  0  0  0  0  0  0  0
  -20.5730  -28.3910   23.2460 C   0  0  0  0  0  3  0  0  0  0  0  0
  -20.6790  -26.9540   22.6860 C   0  0  0  0  0  2  0  0  0  0  0  0
  -19.5780  -26.6190   21.6740 C   0  0  0  0  0  2  0  0  0  0  0  0
  -18.1960  -26.7700   22.3140 C   0  0  0  0  0  2  0  0  0  0  0  0
  -19.1330  -28.8940   23.3980 C   0  0  0  0  0  0  0  0  0  0  0  0
  -18.9130  -30.1620   23.9760 C   0  0  0  0  0  3  0  0  0  0  0  0
  -17.6080  -30.6640   24.1370 C   0  0  0  0  0  3  0  0  0  0  0  0
  -16.5040  -29.8920   23.7350 C   0  0  0  0  0  3  0  0  0  0  0  0
  -16.7090  -28.6260   23.1580 C   0  0  0  0  0  3  0  0  0  0  0  0
  -25.8880  -32.5380   23.8570 C   0  0  0  0  0  3  0  0  0  0  0  0
  -26.4090  -31.7760   25.1360 C   0  0  1  0  0  0  0  0  0  0  0  0
  -25.3170  -31.5490   26.2070 C   0  0  0  0  0  1  0  0  0  0  0  0
  -26.9860  -30.3930   24.7560 C   0  0  0  0  0  1  0  0  0  0  0  0
  -27.5670  -32.5690   25.7860 C   0  0  0  0  0  1  0  0  0  0  0  0
  -25.5870  -33.9400   24.1800 N   0  0  0  0  0  0  0  0  0  0  0  0
  -25.9150  -34.9880   23.4130 C   0  0  0  0  0  0  0  0  0  0  0  0
  -26.5710  -34.8760   22.3740 O   0  0  0  0  0  0  0  0  0  0  0  0
  -25.0050  -34.1040   24.9880 H   0  0  0  0  0  0  0  0  0  0  0  0
  -24.1860  -36.7830   23.0700 C   0  0  0  0  0  1  0  0  0  0  0  0
  -25.4380  -36.3810   23.8680 C   0  0  0  0  0  3  0  0  0  0  0  0
  -27.5850  -37.2630   24.6640 C   0  0  0  0  0  1  0  0  0  0  0  0
  -26.4710  -37.4330   23.7370 N   0  0  0  0  0  0  0  0  0  0  0  0
  -26.0670  -38.3530   23.8910 H   0  0  0  0  0  0  0  0  0  0  0  0
  2  3  2  0
  2  5  1  0
  3  7  1  0
  5  6  2  0
  6  4  1  0
  6  1  1  0
  7 16  1  0
  7  4  2  0
  8 16  1  0
  9 14  1  0
 10 11  1  0
 10  9  1  0
 12 11  1  0
 12 21  1  0
 12 13  1  0
 14  8  1  0
 14 13  1  0
 15  8  2  0
 16 17  1  0
 18 19  2  0
 19 38  1  0
 20 19  1  0
 20 23  1  0
 21 18  1  0
 21 22  1  0
 22 20  2  0
 23 24  1  0
 24 25  2  0
 26 29  1  0
 26 25  1  0
 27 26  2  0
 28 27  1  0
 28 23  2  0
 29 30  1  0
 30 31  1  0
 31 32  2  0
 33 32  1  0
 33 37  1  0
 34 33  2  0
 35 30  2  0
 35 34  1  0
 36 35  1  0
 38 39  1  0
 39 42  1  0
 39 41  1  0
 40 38  2  0
 43 44  1  0
 43 18  1  0
 45 43  1  0
 46  5  1  0
 47 46  2  0
 48 50  2  0
 49 48  1  0
 49  1  1  0
 51 49  1  0
 52 53  1  0
 52 48  1  0
 54 65  2  0
 55 53  1  0
 55 60  1  0
 56 64  1  0
 56 66  1  0
 57 63  1  0
 57 59  1  0
 58 64  1  0
 59 58  1  0
 60 59  2  0
 61 62  1  0
 61 55  2  0
 62 57  2  0
 63 56  1  0
 64 54  1  0
 66 68  2  0
 67 66  1  0
 69 67  1  0
 70 79  2  0
 70 75  1  0
 71 67  1  0
 71 75  1  0
 72 71  1  0
 73 74  1  0
 73 72  1  0
 74 70  1  0
 75 76  2  0
 76 77  1  0
 78 77  2  0
 79 78  1  0
 80 54  1  0
 80 85  1  0
 80 81  1  0
 81 84  1  1
 81 82  1  0
 83 81  1  0
 85 88  1  0
 86 90  1  0
 86 85  1  0
 87 86  2  0
 90 89  1  0
 92 90  1  0
 92 93  1  0
 92 91  1  0
M  ISO  4   8 100  16 100  52 101  53 101
M  END
>  <TORSDO>  (96) 
F 20

>  <SCORE>  (96) 
-13.899

>  <name>  (96) 
95

>  <ligand_id>  (96) 
95

>  <original_smiles>  (96) 
[H]C(=O)c1c([H])c([H])c(N([H])C(=O)N2C([H])([H])C([H])([H])C([H])([H])C([H])(n3nc(-c4c([H])c([H])c(Oc5c([H])c([H])c(F)c([H])c5F)c([H])c4[H])c(C(=O)N([H])[H])c3N([H])[H])C2([H])[H])c([H])c1C([H])([H])N([H])C(=O)C([H])([H])Oc1c([H])c([H])c2c(c1[H])C([H])([H])N(C(=O)C([H])(N([H])C(=O)C([H])(N([H])C([H])([H])[H])C([H])([H])[H])C(C([H])([H])[H])(C([H])([H])[H])C([H])([H])[H])C([H])(C(=O)N([H])C1([H])c3c([H])c([H])c([H])c([H])c3C([H])([H])C([H])([H])C1([H])[H])C2([H])[H]

>  <smiles>  (96) 
[H]C(=O)c1c([H])c([H])c(N([H])C(=O)N2C([H])([H])C([H])([H])C([H])([H])C([H])(n3nc(-c4c([H])c([H])c(Oc5c([H])c([H])c(F)c([H])c5F)c([H])c4[H])c(C(=O)N([H])[H])c3N([H])[H])C2([H])[H])c([H])c1C([H])([H])N([H])C(=O)C([H])([H])Oc1c([H])c([H])c2c(c1[H])C([H])([H])N(C(=O)C([H])(N([H])C(=O)C([H])(N([H])C([H])([H])[H])C([H])([H])[H])C(C([H])([H])[H])(C([H])([H])[H])C([H])([H])[H])C([H])(C(=O)N([H])C1([H])c3c([H])c([H])c([H])c([H])c3C([H])([H])C([H])([H])C1([H])[H])C2([H])[H]

$$$$
