0:0:0
     RDKit          3D

 93101  0  0  1  0  0  0  0  0999 V2000
  -28.8240  -21.6190   19.6500 C   0  0  0  0  0  0  0  0  0  0  0  0
  -28.8880  -20.5000   20.4250 N   0  0  0  0  0  0  0  0  0  0  0  0
  -28.7780  -21.5510   18.4230 O   0  0  0  0  0  0  0  0  0  0  0  0
  -28.7520  -20.6710   21.4090 H   0  0  0  0  0  0  0  0  0  0  0  0
  -28.9040  -22.8890   20.4090 C   0  0  0  0  0  3  0  0  0  0  0  0
  -28.3240  -24.0780   20.0400 C   0  0  0  0  0  3  0  0  0  0  0  0
  -28.4120  -25.4180   20.8320 C   0  0  0  0  0  2  0  0  0  0  0  0
  -28.3790  -26.6750   20.0890 O   0  0  0  0  0  0  0  0  0  0  0  0
  -24.5820  -31.9350   23.2430 C   0  0  0  0  0  0  0  0  0  0  0  0
  -27.2210  -27.4430   20.1600 C   0  0  0  0  0  0  0  0  0  0  0  0
  -23.3750  -30.5260   21.6110 C   0  0  0  0  0  3  0  0  0  0  0  0
  -24.8250  -28.9760   20.1930 C   0  0  0  0  0  0  0  0  0  0  0  0
  -25.9040  -30.8760   21.4020 C   0  0  0  0  0  2  0  0  0  0  0  0
  -25.9910  -29.4990   20.7670 C   0  0  0  0  0  0  0  0  0  0  0  0
  -27.1930  -28.7410   20.7440 C   0  0  0  0  0  3  0  0  0  0  0  0
  -26.0330  -26.9460   19.5830 C   0  0  0  0  0  3  0  0  0  0  0  0
  -24.8420  -27.6980   19.6060 C   0  0  0  0  0  3  0  0  0  0  0  0
  -23.5840  -29.8430   20.2330 C   0  0  0  0  0  2  0  0  0  0  0  0
  -24.6390  -31.1280   22.1440 N   0  0  0  0  0  0  0  0  0  0  0  0
  -23.5020  -32.2090   23.7850 O   0  0  0  0  0  0  0  0  0  0  0  0
  -22.7280  -29.5090   22.5770 C   0  0  0  0  0  0  0  0  0  0  0  0
  -21.4030  -29.3210   22.4510 N   0  0  0  0  0  0  0  0  0  0  0  0
  -23.4140  -28.8850   23.3910 O   0  0  0  0  0  0  0  0  0  0  0  0
  -20.9120  -29.8780   21.7650 H   0  0  0  0  0  0  0  0  0  0  0  0
  -18.0360  -28.1160   22.9520 C   0  0  0  0  0  0  0  0  0  0  0  0
  -20.5930  -28.3770   23.2200 C   0  0  0  0  0  3  0  0  0  0  0  0
  -20.6980  -26.9470   22.6410 C   0  0  0  0  0  2  0  0  0  0  0  0
  -19.5920  -26.6220   21.6290 C   0  0  0  0  0  2  0  0  0  0  0  0
  -18.2120  -26.7650   22.2770 C   0  0  0  0  0  2  0  0  0  0  0  0
  -19.1530  -28.8790   23.3830 C   0  0  0  0  0  0  0  0  0  0  0  0
  -18.9380  -30.1440   23.9700 C   0  0  0  0  0  3  0  0  0  0  0  0
  -17.6350  -30.6480   24.1270 C   0  0  0  0  0  3  0  0  0  0  0  0
  -16.5300  -29.8830   23.7160 C   0  0  0  0  0  3  0  0  0  0  0  0
  -16.7310  -28.6180   23.1360 C   0  0  0  0  0  3  0  0  0  0  0  0
  -25.8700  -32.5690   23.8620 C   0  0  0  0  0  3  0  0  0  0  0  0
  -26.3930  -31.7990   25.1360 C   0  0  1  0  0  0  0  0  0  0  0  0
  -25.3060  -31.5580   26.2080 C   0  0  0  0  0  1  0  0  0  0  0  0
  -26.9780  -30.4240   24.7360 C   0  0  0  0  0  1  0  0  0  0  0  0
  -27.5390  -32.5990   25.7990 C   0  0  0  0  0  1  0  0  0  0  0  0
  -25.5580  -33.9660   24.1920 N   0  0  0  0  0  0  0  0  0  0  0  0
  -25.8810  -35.0190   23.4290 C   0  0  0  0  0  0  0  0  0  0  0  0
  -26.5450  -34.9170   22.3940 O   0  0  0  0  0  0  0  0  0  0  0  0
  -24.9690  -34.1180   24.9970 H   0  0  0  0  0  0  0  0  0  0  0  0
  -24.1440  -36.8070   23.0950 C   0  0  0  0  0  1  0  0  0  0  0  0
  -25.3970  -36.4060   23.8910 C   0  0  0  0  0  3  0  0  0  0  0  0
  -27.5340  -37.3050   24.6960 C   0  0  0  0  0  1  0  0  0  0  0  0
  -26.4220  -37.4620   23.7610 N   0  0  0  0  0  0  0  0  0  0  0  0
  -26.0140  -38.3790   23.9100 H   0  0  0  0  0  0  0  0  0  0  0  0
  -29.1500  -19.0580   20.0780 C   0  0  0  0  0  2  0  0  0  0  0  0
  -31.3140  -18.5630   23.2040 C   0  0  0  0  0  3  0  0  0  0  0  0
  -31.3200  -17.1830   23.4230 C   0  0  0  0  0  3  0  0  0  0  0  0
  -30.6590  -19.0870   22.0830 C   0  0  0  0  0  3  0  0  0  0  0  0
  -30.7620  -16.3360   22.4610 C   0  0  0  0  0  3  0  0  0  0  0  0
  -29.9780  -18.2690   21.1430 C   0  0  0  0  0  0  0  0  0  0  0  0
  -30.1410  -16.8240   21.2800 C   0  0  0  0  0  0  0  0  0  0  0  0
  -30.4670  -14.6740   20.0450 C   0  0  0  0  0  0  0  0  0  0  0  0
  -30.1980  -12.4690   18.9190 C   0  0  0  0  0  2  0  0  0  0  0  0
  -29.1890  -12.6340   17.7660 C   0  0  0  0  0  2  0  0  0  0  0  0
  -27.7390  -12.4850   18.2750 C   0  0  0  0  0  2  0  0  0  0  0  0
  -27.4580  -13.3020   19.5680 C   0  0  0  0  0  3  0  0  0  0  0  0
  -28.5770  -13.1120   20.6100 C   0  0  0  0  0  2  0  0  0  0  0  0
  -29.8330  -13.4680   19.9440 N   0  0  0  0  0  0  0  0  0  0  0  0
  -31.6270  -14.8130   19.6430 O   0  0  0  0  0  0  0  0  0  0  0  0
  -29.7090  -15.7710   20.3840 N   0  0  0  0  0  0  0  0  0  0  0  0
  -28.7110  -15.6570   20.3040 H   0  0  0  0  0  0  0  0  0  0  0  0
  -25.1020  -13.8710   20.4150 C   0  0  0  0  0  0  0  0  0  0  0  0
  -24.0640  -13.0890   20.8390 C   0  0  0  0  0  0  0  0  0  0  0  0
  -24.5380  -11.7400   20.7740 C   0  0  0  0  0  0  0  0  0  0  0  0
  -26.1410  -13.0040   20.1190 N   0  0  0  0  0  0  0  0  0  0  0  0
  -25.8100  -11.7160   20.3940 N   0  0  0  0  0  0  0  0  0  0  0  0
  -23.8340  -10.4700   20.9880 C   0  0  0  0  0  0  0  0  0  0  0  0
  -24.3040   -9.5090   21.9100 C   0  0  0  0  0  3  0  0  0  0  0  0
  -23.5950   -8.3060   22.1120 C   0  0  0  0  0  3  0  0  0  0  0  0
  -22.4030   -8.0550   21.3920 C   0  0  0  0  0  0  0  0  0  0  0  0
  -21.9530   -9.0050   20.4580 C   0  0  0  0  0  3  0  0  0  0  0  0
  -22.6630  -10.2000   20.2540 C   0  0  0  0  0  3  0  0  0  0  0  0
  -21.6630   -6.9030   21.5050 O   0  0  0  0  0  0  0  0  0  0  0  0
  -21.6420   -6.1700   22.6650 C   0  0  0  0  0  0  0  0  0  0  0  0
  -21.2340   -6.7310   23.8950 C   0  0  0  0  0  3  0  0  0  0  0  0
  -21.1600   -5.9230   25.0480 C   0  0  0  0  0  3  0  0  0  0  0  0
  -21.4890   -4.5570   24.9720 C   0  0  0  0  0  0  0  0  0  0  0  0
  -21.8930   -3.9950   23.7470 C   0  0  0  0  0  3  0  0  0  0  0  0
  -21.9670   -4.8000   22.5970 C   0  0  0  0  0  0  0  0  0  0  0  0
  -22.3360   -4.2490   21.4160 F   0  0  0  0  0  0  0  0  0  0  0  0
  -21.4120   -3.7790   26.0780 F   0  0  0  0  0  0  0  0  0  0  0  0
  -22.6790  -13.5510   21.1760 C   0  0  0  0  0  0  0  0  0  0  0  0
  -21.9950  -12.8470   22.0700 N   0  0  0  0  0  0  0  0  0  0  0  0
  -22.2090  -14.5790   20.6830 O   0  0  0  0  0  0  0  0  0  0  0  0
  -22.3850  -12.0190   22.4950 H   0  0  0  0  0  0  0  0  0  0  0  0
  -21.0640  -13.1380   22.3290 H   0  0  0  0  0  0  0  0  0  0  0  0
  -25.2400  -15.2460   20.2320 N   0  0  0  0  0  0  0  0  0  0  0  0
  -24.4430  -15.8660   20.3400 H   0  0  0  0  0  0  0  0  0  0  0  0
  -26.0170  -15.6870   19.7580 H   0  0  0  0  0  0  0  0  0  0  0  0
  1  5  1  0
  1  2  1  0
  2  4  1  0
  3  1  2  0
  6  5  2  0
  6  7  1  0
  8 10  1  0
  8  7  1  0
  9 20  2  0
 10 15  1  0
 11 19  1  0
 11 21  1  0
 12 18  1  0
 12 14  1  0
 13 19  1  0
 14 13  1  0
 15 14  2  0
 16 17  1  0
 16 10  2  0
 17 12  2  0
 18 11  1  0
 19  9  1  0
 21 23  2  0
 22 21  1  0
 24 22  1  0
 25 34  2  0
 25 30  1  0
 26 22  1  0
 26 30  1  0
 27 26  1  0
 28 29  1  0
 28 27  1  0
 29 25  1  0
 30 31  2  0
 31 32  1  0
 33 32  2  0
 34 33  1  0
 35  9  1  0
 35 40  1  0
 35 36  1  0
 36 39  1  1
 36 37  1  0
 38 36  1  0
 40 43  1  0
 41 45  1  0
 41 40  1  0
 42 41  2  0
 45 44  1  0
 47 45  1  0
 47 48  1  0
 47 46  1  0
 49  2  1  0
 49 54  1  0
 50 51  1  0
 52 50  2  0
 53 51  2  0
 54 55  2  0
 54 52  1  0
 55 53  1  0
 56 64  1  0
 57 62  1  0
 58 59  1  0
 58 57  1  0
 60 59  1  0
 60 69  1  0
 60 61  1  0
 62 56  1  0
 62 61  1  0
 63 56  2  0
 64 55  1  0
 65 64  1  0
 66 67  2  0
 67 86  1  0
 68 67  1  0
 68 71  1  0
 69 70  1  0
 69 66  1  0
 70 68  2  0
 71 72  1  0
 72 73  2  0
 74 77  1  0
 74 73  1  0
 75 74  2  0
 76 75  1  0
 76 71  2  0
 77 78  1  0
 78 79  1  0
 79 80  2  0
 81 80  1  0
 81 85  1  0
 82 81  2  0
 83 78  2  0
 83 82  1  0
 84 83  1  0
 86 87  1  0
 87 90  1  0
 87 89  1  0
 88 86  2  0
 91 92  1  0
 91 66  1  0
 93 91  1  0
M  ISO  4   7 101   8 101  56 100  64 100
M  END
>  <TORSDO>  (1) 
F 20

>  <SCORE>  (1) 
-12.351

>  <name>  (1) 
0

>  <ligand_id>  (1) 
0

>  <original_smiles>  (1) 
[H]C(C(=O)N([H])C([H])([H])c1c([H])c([H])c([H])c([H])c1N([H])C(=O)N1C([H])([H])C([H])([H])C([H])([H])C([H])(n2nc(-c3c([H])c([H])c(Oc4c([H])c([H])c(F)c([H])c4F)c([H])c3[H])c(C(=O)N([H])[H])c2N([H])[H])C1([H])[H])=C([H])C([H])([H])Oc1c([H])c([H])c2c(c1[H])C([H])([H])N(C(=O)C([H])(N([H])C(=O)C([H])(N([H])C([H])([H])[H])C([H])([H])[H])C(C([H])([H])[H])(C([H])([H])[H])C([H])([H])[H])C([H])(C(=O)N([H])C1([H])c3c([H])c([H])c([H])c([H])c3C([H])([H])C([H])([H])C1([H])[H])C2([H])[H]

>  <smiles>  (1) 
[H]C(C(=O)N([H])C([H])([H])c1c([H])c([H])c([H])c([H])c1N([H])C(=O)N1C([H])([H])C([H])([H])C([H])([H])C([H])(n2nc(-c3c([H])c([H])c(Oc4c([H])c([H])c(F)c([H])c4F)c([H])c3[H])c(C(=O)N([H])[H])c2N([H])[H])C1([H])[H])=C([H])C([H])([H])Oc1c([H])c([H])c2c(c1[H])C([H])([H])N(C(=O)C([H])(N([H])C(=O)C([H])(N([H])C([H])([H])[H])C([H])([H])[H])C(C([H])([H])[H])(C([H])([H])[H])C([H])([H])[H])C([H])(C(=O)N([H])C1([H])c3c([H])c([H])c([H])c([H])c3C([H])([H])C([H])([H])C1([H])[H])C2([H])[H]

$$$$
1:0:0
     RDKit          3D

 94103  0  0  1  0  0  0  0  0999 V2000
  -29.5490  -21.2680   18.6490 C   0  0  0  0  0  0  0  0  0  0  0  0
  -29.8310  -22.6360   17.9730 C   0  0  0  0  0  2  0  0  0  0  0  0
  -29.5620  -23.9320   18.8030 C   0  0  0  0  0  2  0  0  0  0  0  0
  -29.1020  -22.4180   20.7660 C   0  0  0  0  0  2  0  0  0  0  0  0
  -28.5700  -23.7140   19.9450 C   0  0  0  0  0  3  0  0  0  0  0  0
  -29.5170  -21.1500   20.0030 N   0  0  0  0  0  0  0  0  0  0  0  0
  -29.3700  -20.3040   17.8970 O   0  0  0  0  0  0  0  0  0  0  0  0
  -31.7080  -18.7390   22.0940 C   0  0  0  0  0  3  0  0  0  0  0  0
  -31.2830  -17.4610   21.7050 C   0  0  0  0  0  3  0  0  0  0  0  0
  -29.6600  -18.5190   20.2350 C   0  0  0  0  0  3  0  0  0  0  0  0
  -31.1370  -19.9230   21.5700 C   0  0  0  0  0  0  0  0  0  0  0  0
  -30.0610  -19.8780   20.6210 C   0  0  0  0  0  0  0  0  0  0  0  0
  -30.2560  -17.2920   20.7600 C   0  0  0  0  0  0  0  0  0  0  0  0
  -31.8010  -21.2060   22.0490 C   0  0  0  0  0  1  0  0  0  0  0  0
  -30.5700  -14.7390   20.3420 C   0  0  0  0  0  0  0  0  0  0  0  0
  -30.3100  -12.4810   19.3020 C   0  0  0  0  0  2  0  0  0  0  0  0
  -29.3470  -12.5530   18.0990 C   0  0  0  0  0  2  0  0  0  0  0  0
  -27.8840  -12.3750   18.5550 C   0  0  0  0  0  2  0  0  0  0  0  0
  -27.5310  -13.2600   19.7820 C   0  0  0  0  0  3  0  0  0  0  0  0
  -28.6190  -13.1910   20.8750 C   0  0  0  0  0  2  0  0  0  0  0  0
  -29.9000  -13.5420   20.2470 N   0  0  0  0  0  0  0  0  0  0  0  0
  -31.7700  -14.7960   20.0680 O   0  0  0  0  0  0  0  0  0  0  0  0
  -29.8280  -15.9070   20.4460 N   0  0  0  0  0  0  0  0  0  0  0  0
  -28.8350  -15.7760   20.3430 H   0  0  0  0  0  0  0  0  0  0  0  0
  -25.1520  -13.8280   20.5650 C   0  0  0  0  0  0  0  0  0  0  0  0
  -24.0960  -13.0410   20.9540 C   0  0  0  0  0  0  0  0  0  0  0  0
  -24.5730  -11.6970   20.9060 C   0  0  0  0  0  0  0  0  0  0  0  0
  -26.1990  -12.9580   20.3040 N   0  0  0  0  0  0  0  0  0  0  0  0
  -25.8590  -11.6730   20.5770 N   0  0  0  0  0  0  0  0  0  0  0  0
  -23.8580  -10.4250   21.0930 C   0  0  0  0  0  0  0  0  0  0  0  0
  -24.3190   -9.4490   22.0030 C   0  0  0  0  0  3  0  0  0  0  0  0
  -23.6070   -8.2440   22.1840 C   0  0  0  0  0  3  0  0  0  0  0  0
  -22.4170   -8.0060   21.4580 C   0  0  0  0  0  0  0  0  0  0  0  0
  -21.9710   -8.9710   20.5370 C   0  0  0  0  0  3  0  0  0  0  0  0
  -22.6850  -10.1680   20.3540 C   0  0  0  0  0  3  0  0  0  0  0  0
  -21.6750   -6.8520   21.5500 O   0  0  0  0  0  0  0  0  0  0  0  0
  -21.6710   -6.0850   22.6880 C   0  0  0  0  0  0  0  0  0  0  0  0
  -21.2960   -6.6130   23.9430 C   0  0  0  0  0  3  0  0  0  0  0  0
  -21.2400   -5.7730   25.0730 C   0  0  0  0  0  3  0  0  0  0  0  0
  -21.5470   -4.4060   24.9480 C   0  0  0  0  0  0  0  0  0  0  0  0
  -21.9190   -3.8760   23.7010 C   0  0  0  0  0  3  0  0  0  0  0  0
  -21.9770   -4.7130   22.5730 C   0  0  0  0  0  0  0  0  0  0  0  0
  -22.3110   -4.1950   21.3650 F   0  0  0  0  0  0  0  0  0  0  0  0
  -21.4890   -3.5960   26.0300 F   0  0  0  0  0  0  0  0  0  0  0  0
  -22.7000  -13.5050   21.2450 C   0  0  0  0  0  0  0  0  0  0  0  0
  -21.9860  -12.8020   22.1200 N   0  0  0  0  0  0  0  0  0  0  0  0
  -22.2480  -14.5250   20.7310 O   0  0  0  0  0  0  0  0  0  0  0  0
  -22.3660  -11.9860   22.5730 H   0  0  0  0  0  0  0  0  0  0  0  0
  -21.0440  -13.0900   22.3420 H   0  0  0  0  0  0  0  0  0  0  0  0
  -25.2930  -15.1990   20.3850 N   0  0  0  0  0  0  0  0  0  0  0  0
  -24.5010  -15.8290   20.4650 H   0  0  0  0  0  0  0  0  0  0  0  0
  -26.1000  -15.6410   19.9610 H   0  0  0  0  0  0  0  0  0  0  0  0
  -28.2630  -25.0860   20.7610 C   0  0  0  0  0  2  0  0  0  0  0  0
  -28.3240  -26.4510   20.1570 O   0  0  0  0  0  0  0  0  0  0  0  0
  -24.5870  -31.8850   23.2150 C   0  0  0  0  0  0  0  0  0  0  0  0
  -27.1980  -27.2960   20.1860 C   0  0  0  0  0  0  0  0  0  0  0  0
  -23.3780  -30.4790   21.5800 C   0  0  0  0  0  3  0  0  0  0  0  0
  -24.8310  -28.9050   20.1700 C   0  0  0  0  0  0  0  0  0  0  0  0
  -25.9160  -30.7900   21.3930 C   0  0  0  0  0  2  0  0  0  0  0  0
  -26.0000  -29.4020   20.7620 C   0  0  0  0  0  0  0  0  0  0  0  0
  -27.1870  -28.6080   20.7610 C   0  0  0  0  0  3  0  0  0  0  0  0
  -26.0130  -26.8530   19.5670 C   0  0  0  0  0  3  0  0  0  0  0  0
  -24.8410  -27.6390   19.5610 C   0  0  0  0  0  3  0  0  0  0  0  0
  -23.5940  -29.7810   20.2100 C   0  0  0  0  0  2  0  0  0  0  0  0
  -24.6470  -31.0670   22.1220 N   0  0  0  0  0  0  0  0  0  0  0  0
  -23.5070  -32.1620   23.7560 O   0  0  0  0  0  0  0  0  0  0  0  0
  -22.7070  -29.4780   22.5490 C   0  0  0  0  0  0  0  0  0  0  0  0
  -21.3800  -29.3130   22.4320 N   0  0  0  0  0  0  0  0  0  0  0  0
  -23.3860  -28.8490   23.3660 O   0  0  0  0  0  0  0  0  0  0  0  0
  -20.8900  -29.8720   21.7470 H   0  0  0  0  0  0  0  0  0  0  0  0
  -17.9980  -28.1310   22.9500 C   0  0  0  0  0  0  0  0  0  0  0  0
  -20.5580  -28.3810   23.2060 C   0  0  0  0  0  3  0  0  0  0  0  0
  -20.6540  -26.9490   22.6330 C   0  0  0  0  0  2  0  0  0  0  0  0
  -19.5470  -26.6290   21.6230 C   0  0  0  0  0  2  0  0  0  0  0  0
  -18.1680  -26.7810   22.2710 C   0  0  0  0  0  2  0  0  0  0  0  0
  -19.1220  -28.8890   23.3720 C   0  0  0  0  0  0  0  0  0  0  0  0
  -18.9130  -30.1520   23.9670 C   0  0  0  0  0  3  0  0  0  0  0  0
  -17.6130  -30.6630   24.1360 C   0  0  0  0  0  3  0  0  0  0  0  0
  -16.5020  -29.9030   23.7260 C   0  0  0  0  0  3  0  0  0  0  0  0
  -16.6950  -28.6380   23.1420 C   0  0  0  0  0  3  0  0  0  0  0  0
  -25.8710  -32.5210   23.8280 C   0  0  0  0  0  3  0  0  0  0  0  0
  -25.5640  -33.9180   24.1660 N   0  0  0  0  0  0  0  0  0  0  0  0
  -25.9020  -34.9760   23.4160 C   0  0  0  0  0  0  0  0  0  0  0  0
  -26.5700  -34.8740   22.3840 O   0  0  0  0  0  0  0  0  0  0  0  0
  -24.9680  -34.0640   24.9670 H   0  0  0  0  0  0  0  0  0  0  0  0
  -24.1780  -36.7790   23.0670 C   0  0  0  0  0  1  0  0  0  0  0  0
  -25.4190  -36.3660   23.8770 C   0  0  0  0  0  3  0  0  0  0  0  0
  -27.5570  -37.2370   24.7140 C   0  0  0  0  0  1  0  0  0  0  0  0
  -26.4560  -37.4180   23.7710 N   0  0  0  0  0  0  0  0  0  0  0  0
  -26.0570  -38.3400   23.9270 H   0  0  0  0  0  0  0  0  0  0  0  0
  -26.3920  -31.7470   25.1030 C   0  0  1  0  0  0  0  0  0  0  0  0
  -25.3050  -31.5120   26.1770 C   0  0  0  0  0  1  0  0  0  0  0  0
  -26.9670  -30.3670   24.7100 C   0  0  0  0  0  1  0  0  0  0  0  0
  -27.5490  -32.5370   25.7600 C   0  0  0  0  0  1  0  0  0  0  0  0
  1  6  1  0
  2  1  1  0
  2  3  1  0
  3  5  1  0
  5 53  1  0
  5  4  1  0
  6 12  1  0
  6  4  1  0
  7  1  2  0
  9  8  1  0
 10 12  2  0
 10 13  1  0
 11 14  1  0
 11  8  2  0
 12 11  1  0
 13  9  2  0
 15 23  1  0
 16 21  1  0
 17 18  1  0
 17 16  1  0
 19 18  1  0
 19 28  1  0
 19 20  1  0
 21 15  1  0
 21 20  1  0
 22 15  2  0
 23 13  1  0
 24 23  1  0
 25 26  2  0
 26 45  1  0
 27 26  1  0
 27 30  1  0
 28 25  1  0
 28 29  1  0
 29 27  2  0
 30 31  1  0
 31 32  2  0
 33 36  1  0
 33 32  1  0
 34 33  2  0
 35 34  1  0
 35 30  2  0
 36 37  1  0
 37 38  1  0
 38 39  2  0
 40 39  1  0
 40 44  1  0
 41 40  2  0
 42 37  2  0
 42 41  1  0
 43 42  1  0
 45 46  1  0
 46 49  1  0
 46 48  1  0
 47 45  2  0
 50 51  1  0
 50 25  1  0
 52 50  1  0
 54 56  1  0
 54 53  1  0
 55 66  2  0
 56 61  1  0
 57 65  1  0
 57 67  1  0
 58 64  1  0
 58 60  1  0
 59 65  1  0
 60 59  1  0
 61 60  2  0
 62 56  2  0
 63 62  1  0
 63 58  2  0
 64 57  1  0
 65 55  1  0
 67 69  2  0
 68 67  1  0
 70 68  1  0
 71 80  2  0
 71 76  1  0
 72 68  1  0
 72 76  1  0
 73 72  1  0
 74 75  1  0
 74 73  1  0
 75 71  1  0
 76 77  2  0
 77 78  1  0
 79 78  2  0
 80 79  1  0
 81 55  1  0
 81 82  1  0
 81 91  1  0
 82 85  1  0
 83 87  1  0
 83 82  1  0
 84 83  2  0
 87 86  1  0
 89 87  1  0
 89 90  1  0
 89 88  1  0
 91 94  1  1
 91 92  1  0
 93 91  1  0
M  ISO  4  15 100  23 100  53 101  54 101
M  END
>  <TORSDO>  (2) 
F 18

>  <SCORE>  (2) 
-14.865

>  <name>  (2) 
1

>  <ligand_id>  (2) 
1

>  <original_smiles>  (2) 
[H]c1c([H])c([H])c2c(c1[H])C([H])([H])C([H])([H])C([H])([H])C2([H])N([H])C(=O)C1([H])N(C(=O)C([H])(N([H])C(=O)C([H])(N([H])C([H])([H])[H])C([H])([H])[H])C(C([H])([H])[H])(C([H])([H])[H])C([H])([H])[H])C([H])([H])c2c([H])c(OC([H])([H])C3([H])C([H])([H])N(c4c([H])c(N([H])C(=O)N5C([H])([H])C([H])([H])C([H])([H])C([H])(n6nc(-c7c([H])c([H])c(Oc8c([H])c([H])c(F)c([H])c8F)c([H])c7[H])c(C(=O)N([H])[H])c6N([H])[H])C5([H])[H])c([H])c([H])c4C([H])([H])[H])C(=O)C([H])([H])C3([H])[H])c([H])c([H])c2C1([H])[H]

>  <smiles>  (2) 
[H]c1c([H])c([H])c2c(c1[H])C([H])([H])C([H])([H])C([H])([H])C2([H])N([H])C(=O)C1([H])N(C(=O)C([H])(N([H])C(=O)C([H])(N([H])C([H])([H])[H])C([H])([H])[H])C(C([H])([H])[H])(C([H])([H])[H])C([H])([H])[H])C([H])([H])c2c([H])c(OC([H])([H])C3([H])C([H])([H])N(c4c([H])c(N([H])C(=O)N5C([H])([H])C([H])([H])C([H])([H])C([H])(n6nc(-c7c([H])c([H])c(Oc8c([H])c([H])c(F)c([H])c8F)c([H])c7[H])c(C(=O)N([H])[H])c6N([H])[H])C5([H])[H])c([H])c([H])c4C([H])([H])[H])C(=O)C([H])([H])C3([H])[H])c([H])c([H])c2C1([H])[H]

$$$$
2:0:0
     RDKit          3D

 95103  0  0  1  0  0  0  0  0999 V2000
  -29.6360  -21.3290   21.7780 C   0  0  0  0  0  0  0  0  0  0  0  0
  -29.3580  -21.3240   23.0830 N   0  0  0  0  0  4  0  0  0  0  0  0
  -29.3880  -22.5260   21.1850 N   0  0  0  0  0  0  0  0  0  0  0  0
  -29.4550  -20.4580   23.5950 H   0  0  0  0  0  0  0  0  0  0  0  0
  -29.0840  -22.1420   23.6000 H   0  0  0  0  0  0  0  0  0  0  0  0
  -28.9220  -23.1900   21.7830 H   0  0  0  0  0  0  0  0  0  0  0  0
  -29.3350  -19.3890   20.1900 C   0  0  0  0  0  3  0  0  0  0  0  0
  -29.4850  -17.9960   19.9540 C   0  0  0  0  0  3  0  0  0  0  0  0
  -31.2810  -17.9010   21.5840 C   0  0  0  0  0  3  0  0  0  0  0  0
  -30.0920  -20.0340   21.1950 C   0  0  0  0  0  0  0  0  0  0  0  0
  -30.4160  -17.2240   20.6950 C   0  0  0  0  0  0  0  0  0  0  0  0
  -31.1210  -19.2860   21.8340 C   0  0  0  0  0  0  0  0  0  0  0  0
  -31.9020  -19.8650   22.7800 F   0  0  0  0  0  0  0  0  0  0  0  0
  -31.0420  -14.8170   20.2190 C   0  0  0  0  0  0  0  0  0  0  0  0
  -30.7980  -12.6000   19.1470 C   0  0  0  0  0  2  0  0  0  0  0  0
  -29.8240  -12.7410   17.9590 C   0  0  0  0  0  2  0  0  0  0  0  0
  -28.3560  -12.6090   18.4150 C   0  0  0  0  0  2  0  0  0  0  0  0
  -28.0330  -13.4770   19.6600 C   0  0  0  0  0  3  0  0  0  0  0  0
  -29.1110  -13.2810   20.7500 C   0  0  0  0  0  2  0  0  0  0  0  0
  -30.4200  -13.6040   20.1540 N   0  0  0  0  0  0  0  0  0  0  0  0
  -32.1540  -15.0270   19.7270 O   0  0  0  0  0  0  0  0  0  0  0  0
  -30.2840  -15.7980   20.7530 N   0  0  0  0  0  0  0  0  0  0  0  0
  -29.3930  -15.4710   21.0950 H   0  0  0  0  0  0  0  0  0  0  0  0
  -25.6590  -14.1160   20.4280 C   0  0  0  0  0  0  0  0  0  0  0  0
  -24.5840  -13.3540   20.8030 C   0  0  0  0  0  0  0  0  0  0  0  0
  -25.0190  -11.9970   20.7340 C   0  0  0  0  0  0  0  0  0  0  0  0
  -26.6840  -13.2200   20.1610 N   0  0  0  0  0  0  0  0  0  0  0  0
  -26.3010  -11.9400   20.3980 N   0  0  0  0  0  0  0  0  0  0  0  0
  -24.2730  -10.7450   20.9140 C   0  0  0  0  0  0  0  0  0  0  0  0
  -24.6330   -9.8090   21.9080 C   0  0  0  0  0  3  0  0  0  0  0  0
  -23.8900   -8.6200   22.0770 C   0  0  0  0  0  3  0  0  0  0  0  0
  -22.7730   -8.3580   21.2500 C   0  0  0  0  0  0  0  0  0  0  0  0
  -22.4320   -9.2820   20.2450 C   0  0  0  0  0  3  0  0  0  0  0  0
  -23.1760  -10.4620   20.0750 C   0  0  0  0  0  3  0  0  0  0  0  0
  -22.0070   -7.2190   21.3220 O   0  0  0  0  0  0  0  0  0  0  0  0
  -21.7810   -6.5780   22.5130 C   0  0  0  0  0  0  0  0  0  0  0  0
  -21.1230   -7.2130   23.5890 C   0  0  0  0  0  3  0  0  0  0  0  0
  -20.8520   -6.4950   24.7710 C   0  0  0  0  0  3  0  0  0  0  0  0
  -21.2270   -5.1420   24.8750 C   0  0  0  0  0  0  0  0  0  0  0  0
  -21.8790   -4.5070   23.8030 C   0  0  0  0  0  3  0  0  0  0  0  0
  -22.1520   -5.2230   22.6250 C   0  0  0  0  0  0  0  0  0  0  0  0
  -22.7620   -4.6000   21.5880 F   0  0  0  0  0  0  0  0  0  0  0  0
  -20.9570   -4.4500   26.0070 F   0  0  0  0  0  0  0  0  0  0  0  0
  -23.2020  -13.8540   21.1100 C   0  0  0  0  0  0  0  0  0  0  0  0
  -22.4800  -13.1580   21.9830 N   0  0  0  0  0  0  0  0  0  0  0  0
  -22.7710  -14.8930   20.6150 O   0  0  0  0  0  0  0  0  0  0  0  0
  -22.8450  -12.3180   22.4090 H   0  0  0  0  0  0  0  0  0  0  0  0
  -21.5540  -13.4750   22.2330 H   0  0  0  0  0  0  0  0  0  0  0  0
  -25.8400  -15.4860   20.2780 N   0  0  0  0  0  0  0  0  0  0  0  0
  -25.0730  -16.1380   20.3980 H   0  0  0  0  0  0  0  0  0  0  0  0
  -26.6850  -15.9320   19.9450 H   0  0  0  0  0  0  0  0  0  0  0  0
  -29.5270  -23.0590   19.8090 C   0  0  0  0  0  2  0  0  0  0  0  0
  -29.6460  -24.6290   19.7770 C   0  0  0  0  0  3  0  0  0  0  0  0
  -28.3080  -25.4320   19.7380 C   0  0  0  0  0  3  0  0  0  0  0  0
  -28.4510  -26.8800   19.8020 O   0  0  0  0  0  0  0  0  0  0  0  0
  -24.6330  -31.8500   23.2730 C   0  0  0  0  0  0  0  0  0  0  0  0
  -27.2810  -27.6330   19.8520 C   0  0  0  0  0  0  0  0  0  0  0  0
  -23.4190  -30.5400   21.5660 C   0  0  0  0  0  3  0  0  0  0  0  0
  -24.8680  -29.1320   20.0110 C   0  0  0  0  0  0  0  0  0  0  0  0
  -25.9410  -30.9470   21.3480 C   0  0  0  0  0  2  0  0  0  0  0  0
  -26.0360  -29.6230   20.6080 C   0  0  0  0  0  0  0  0  0  0  0  0
  -27.2450  -28.8850   20.5230 C   0  0  0  0  0  3  0  0  0  0  0  0
  -26.0870  -27.1750   19.2450 C   0  0  0  0  0  3  0  0  0  0  0  0
  -24.8910  -27.9080   19.3270 C   0  0  0  0  0  3  0  0  0  0  0  0
  -23.6170  -29.9720   20.1370 C   0  0  0  0  0  2  0  0  0  0  0  0
  -24.6840  -31.1250   22.1190 N   0  0  0  0  0  0  0  0  0  0  0  0
  -23.5570  -32.0640   23.8470 O   0  0  0  0  0  0  0  0  0  0  0  0
  -22.8090  -29.4400   22.4670 C   0  0  0  0  0  0  0  0  0  0  0  0
  -21.4970  -29.1950   22.3130 N   0  0  0  0  0  0  0  0  0  0  0  0
  -23.5120  -28.8150   23.2670 O   0  0  0  0  0  0  0  0  0  0  0  0
  -20.9840  -29.7600   21.6500 H   0  0  0  0  0  0  0  0  0  0  0  0
  -18.1910  -27.7750   22.6760 C   0  0  0  0  0  0  0  0  0  0  0  0
  -20.7190  -28.1840   23.0300 C   0  0  0  0  0  3  0  0  0  0  0  0
  -20.9280  -26.7820   22.4140 C   0  0  0  0  0  2  0  0  0  0  0  0
  -19.8750  -26.4240   21.3590 C   0  0  0  0  0  2  0  0  0  0  0  0
  -18.4700  -26.4630   21.9640 C   0  0  0  0  0  2  0  0  0  0  0  0
  -19.2470  -28.5900   23.1620 C   0  0  0  0  0  0  0  0  0  0  0  0
  -18.9300  -29.8180   23.7840 C   0  0  0  0  0  3  0  0  0  0  0  0
  -17.5920  -30.2320   23.9240 C   0  0  0  0  0  3  0  0  0  0  0  0
  -16.5500  -29.4140   23.4500 C   0  0  0  0  0  3  0  0  0  0  0  0
  -16.8510  -28.1860   22.8330 C   0  0  0  0  0  3  0  0  0  0  0  0
  -25.9180  -32.4640   23.9080 C   0  0  0  0  0  3  0  0  0  0  0  0
  -26.4320  -31.6690   25.1700 C   0  0  1  0  0  0  0  0  0  0  0  0
  -25.3350  -31.3990   26.2270 C   0  0  0  0  0  1  0  0  0  0  0  0
  -27.0240  -30.3040   24.7480 C   0  0  0  0  0  1  0  0  0  0  0  0
  -27.5740  -32.4550   25.8540 C   0  0  0  0  0  1  0  0  0  0  0  0
  -25.6140  -33.8580   24.2610 N   0  0  0  0  0  0  0  0  0  0  0  0
  -25.9590  -34.9210   23.5240 C   0  0  0  0  0  0  0  0  0  0  0  0
  -26.6370  -34.8320   22.4980 O   0  0  0  0  0  0  0  0  0  0  0  0
  -25.0180  -34.0040   25.0620 H   0  0  0  0  0  0  0  0  0  0  0  0
  -24.2480  -36.7270   23.1790 C   0  0  0  0  0  1  0  0  0  0  0  0
  -25.4750  -36.3040   24.0010 C   0  0  0  0  0  3  0  0  0  0  0  0
  -27.5990  -37.1620   24.8840 C   0  0  0  0  0  1  0  0  0  0  0  0
  -26.5170  -37.3520   23.9210 N   0  0  0  0  0  0  0  0  0  0  0  0
  -26.1140  -38.2720   24.0730 H   0  0  0  0  0  0  0  0  0  0  0  0
  1  2  2  0
  2  4  1  0
  2  5  1  0
  3  1  1  0
  3  6  1  0
  7 10  1  0
  8  7  2  0
  8 11  1  0
  9 12  1  0
 10  1  1  0
 10 12  2  0
 11 22  1  0
 11  9  2  0
 12 13  1  0
 14 22  1  0
 15 20  1  0
 16 17  1  0
 16 15  1  0
 18 17  1  0
 18 27  1  0
 18 19  1  0
 20 14  1  0
 20 19  1  0
 21 14  2  0
 22 23  1  0
 24 25  2  0
 25 44  1  0
 26 25  1  0
 26 29  1  0
 27 28  1  0
 27 24  1  0
 28 26  2  0
 29 30  1  0
 30 31  2  0
 32 35  1  0
 32 31  1  0
 33 32  2  0
 34 33  1  0
 34 29  2  0
 35 36  1  0
 36 41  2  0
 36 37  1  0
 37 38  2  0
 38 39  1  0
 39 43  1  0
 40 39  2  0
 41 40  1  0
 42 41  1  0
 44 45  1  0
 45 48  1  0
 45 47  1  0
 46 44  2  0
 49 50  1  0
 49 24  1  0
 51 49  1  0
 52  3  1  0
 53 52  1  0
 54 53  2  0
 54 55  1  0
 55 57  1  0
 56 67  2  0
 57 62  1  0
 58 66  1  0
 58 68  1  0
 59 65  1  0
 59 61  1  0
 60 66  1  0
 61 60  1  0
 62 61  2  0
 63 64  1  0
 63 57  2  0
 64 59  2  0
 65 58  1  0
 66 56  1  0
 68 70  2  0
 69 68  1  0
 71 69  1  0
 72 81  2  0
 72 77  1  0
 73 69  1  0
 73 77  1  0
 74 73  1  0
 75 76  1  0
 75 74  1  0
 76 72  1  0
 77 78  2  0
 78 79  1  0
 80 79  2  0
 81 80  1  0
 82 56  1  0
 82 87  1  0
 82 83  1  0
 83 86  1  1
 83 84  1  0
 85 83  1  0
 87 90  1  0
 88 92  1  0
 88 87  1  0
 89 88  2  0
 92 91  1  0
 94 92  1  0
 94 95  1  0
 94 93  1  0
M  ISO  4  14 100  22 100  54 101  55 101
M  END
>  <TORSDO>  (3) 
F 20

>  <SCORE>  (3) 
-13.703

>  <name>  (3) 
2

>  <ligand_id>  (3) 
2

>  <original_smiles>  (3) 
[H]c1c([H])c([H])c2c(c1[H])C([H])([H])C([H])([H])C([H])([H])C2([H])N([H])C(=O)C1([H])N(C(=O)C([H])(N([H])C(=O)C([H])(N([H])C([H])([H])[H])C([H])([H])[H])C(C([H])([H])[H])(C([H])([H])[H])C([H])([H])[H])C([H])([H])c2c([H])c(OC([H])([H])C([H])([H])C([H])([H])[N+]([H])=C(c3c([H])c([H])c(N([H])C(=O)N4C([H])([H])C([H])([H])C([H])([H])C([H])(n5nc(-c6c([H])c([H])c(Oc7c([H])c([H])c(F)c([H])c7F)c([H])c6[H])c(C(=O)N([H])[H])c5N([H])[H])C4([H])[H])c([H])c3F)N([H])[H])c([H])c([H])c2C1([H])[H]

>  <smiles>  (3) 
[H]c1c([H])c([H])c2c(c1[H])C([H])([H])C([H])([H])C([H])([H])C2([H])N([H])C(=O)C1([H])N(C(=O)C([H])(N([H])C(=O)C([H])(N([H])C([H])([H])[H])C([H])([H])[H])C(C([H])([H])[H])(C([H])([H])[H])C([H])([H])[H])C([H])([H])c2c([H])c(OC([H])([H])C([H])([H])C([H])([H])[N+]([H])=C(c3c([H])c([H])c(N([H])C(=O)N4C([H])([H])C([H])([H])C([H])([H])C([H])(n5nc(-c6c([H])c([H])c(Oc7c([H])c([H])c(F)c([H])c7F)c([H])c6[H])c(C(=O)N([H])[H])c5N([H])[H])C4([H])[H])c([H])c3F)N([H])[H])c([H])c([H])c2C1([H])[H]

$$$$
3:0:0
     RDKit          3D

 92100  0  0  1  0  0  0  0  0999 V2000
  -28.8600  -22.4790   20.1720 C   0  0  0  0  0  0  0  0  0  0  0  0
  -29.8500  -21.5370   20.2620 N   0  0  0  0  0  0  0  0  0  0  0  0
  -27.6840  -22.1670   19.9720 O   0  0  0  0  0  0  0  0  0  0  0  0
  -30.7770  -21.9330   20.3270 H   0  0  0  0  0  0  0  0  0  0  0  0
  -31.0270  -19.3400   20.1400 C   0  0  0  0  0  3  0  0  0  0  0  0
  -31.0810  -17.9150   20.2060 C   0  0  0  0  0  3  0  0  0  0  0  0
  -28.6460  -19.2890   20.4840 C   0  0  0  0  0  3  0  0  0  0  0  0
  -29.8130  -20.0710   20.2750 C   0  0  0  0  0  0  0  0  0  0  0  0
  -29.9110  -17.1420   20.4250 C   0  0  0  0  0  0  0  0  0  0  0  0
  -28.6990  -17.8680   20.5590 C   0  0  0  0  0  0  0  0  0  0  0  0
  -27.5540  -17.1750   20.7700 F   0  0  0  0  0  0  0  0  0  0  0  0
  -30.6110  -14.6660   20.0610 C   0  0  0  0  0  0  0  0  0  0  0  0
  -30.3240  -12.4760   18.9270 C   0  0  0  0  0  2  0  0  0  0  0  0
  -29.3130  -12.6620   17.7740 C   0  0  0  0  0  2  0  0  0  0  0  0
  -27.8650  -12.4990   18.2800 C   0  0  0  0  0  2  0  0  0  0  0  0
  -27.5860  -13.3180   19.5680 C   0  0  0  0  0  3  0  0  0  0  0  0
  -28.7030  -13.0990   20.6140 C   0  0  0  0  0  2  0  0  0  0  0  0
  -29.9850  -13.4500   19.9810 N   0  0  0  0  0  0  0  0  0  0  0  0
  -31.7420  -14.8410   19.5970 O   0  0  0  0  0  0  0  0  0  0  0  0
  -29.8410  -15.6890   20.5390 N   0  0  0  0  0  0  0  0  0  0  0  0
  -28.9620  -15.3710   20.9160 H   0  0  0  0  0  0  0  0  0  0  0  0
  -25.2350  -13.9130   20.4230 C   0  0  0  0  0  0  0  0  0  0  0  0
  -24.1840  -13.1360   20.8290 C   0  0  0  0  0  0  0  0  0  0  0  0
  -24.6350  -11.7840   20.7400 C   0  0  0  0  0  0  0  0  0  0  0  0
  -26.2620  -13.0340   20.1160 N   0  0  0  0  0  0  0  0  0  0  0  0
  -25.9090  -11.7480   20.3640 N   0  0  0  0  0  0  0  0  0  0  0  0
  -23.9130  -10.5210   20.9380 C   0  0  0  0  0  0  0  0  0  0  0  0
  -24.3490   -9.5590   21.8760 C   0  0  0  0  0  3  0  0  0  0  0  0
  -23.6270   -8.3610   22.0590 C   0  0  0  0  0  3  0  0  0  0  0  0
  -22.4530   -8.1160   21.3060 C   0  0  0  0  0  0  0  0  0  0  0  0
  -22.0350   -9.0680   20.3600 C   0  0  0  0  0  3  0  0  0  0  0  0
  -22.7590  -10.2580   20.1740 C   0  0  0  0  0  3  0  0  0  0  0  0
  -21.7010   -6.9710   21.4000 O   0  0  0  0  0  0  0  0  0  0  0  0
  -21.6030   -6.2690   22.5750 C   0  0  0  0  0  0  0  0  0  0  0  0
  -21.1050   -6.8600   23.7570 C   0  0  0  0  0  3  0  0  0  0  0  0
  -20.9550   -6.0830   24.9230 C   0  0  0  0  0  3  0  0  0  0  0  0
  -21.2920   -4.7160   24.9080 C   0  0  0  0  0  0  0  0  0  0  0  0
  -21.7830   -4.1240   23.7310 C   0  0  0  0  0  3  0  0  0  0  0  0
  -21.9340   -4.8980   22.5670 C   0  0  0  0  0  0  0  0  0  0  0  0
  -22.3880   -4.3190   21.4290 F   0  0  0  0  0  0  0  0  0  0  0  0
  -21.1410   -3.9670   26.0250 F   0  0  0  0  0  0  0  0  0  0  0  0
  -22.8070  -13.6140   21.1890 C   0  0  0  0  0  0  0  0  0  0  0  0
  -22.1240  -12.9050   22.0810 N   0  0  0  0  0  0  0  0  0  0  0  0
  -22.3450  -14.6510   20.7140 O   0  0  0  0  0  0  0  0  0  0  0  0
  -22.5110  -12.0650   22.4880 H   0  0  0  0  0  0  0  0  0  0  0  0
  -21.2030  -13.2080   22.3630 H   0  0  0  0  0  0  0  0  0  0  0  0
  -25.3950  -15.2880   20.2780 N   0  0  0  0  0  0  0  0  0  0  0  0
  -24.6450  -15.9360   20.4870 H   0  0  0  0  0  0  0  0  0  0  0  0
  -26.2590  -15.7540   20.0330 H   0  0  0  0  0  0  0  0  0  0  0  0
  -29.2320  -24.0100   20.3100 C   0  0  0  0  0  3  0  0  0  0  0  0
  -28.1180  -25.0750   19.9290 C   0  0  0  0  0  3  0  0  0  0  0  0
  -28.3460  -26.5170   20.1790 O   0  0  0  0  0  0  0  0  0  0  0  0
  -24.6150  -31.8690   23.2600 C   0  0  0  0  0  0  0  0  0  0  0  0
  -27.2260  -27.3640   20.1360 C   0  0  0  0  0  0  0  0  0  0  0  0
  -23.4110  -30.4940   21.6030 C   0  0  0  0  0  3  0  0  0  0  0  0
  -24.8600  -28.9710   20.1540 C   0  0  0  0  0  0  0  0  0  0  0  0
  -25.9500  -30.8190   21.4230 C   0  0  0  0  0  2  0  0  0  0  0  0
  -26.0300  -29.4510   20.7570 C   0  0  0  0  0  0  0  0  0  0  0  0
  -27.2160  -28.6590   20.7390 C   0  0  0  0  0  3  0  0  0  0  0  0
  -26.0310  -26.9410   19.5060 C   0  0  0  0  0  3  0  0  0  0  0  0
  -24.8630  -27.7210   19.5210 C   0  0  0  0  0  3  0  0  0  0  0  0
  -23.6240  -29.8430   20.2130 C   0  0  0  0  0  2  0  0  0  0  0  0
  -24.6780  -31.0760   22.1520 N   0  0  0  0  0  0  0  0  0  0  0  0
  -23.5310  -32.1390   23.7990 O   0  0  0  0  0  0  0  0  0  0  0  0
  -22.7510  -29.4610   22.5480 C   0  0  0  0  0  0  0  0  0  0  0  0
  -21.4260  -29.2830   22.4170 N   0  0  0  0  0  0  0  0  0  0  0  0
  -23.4300  -28.8230   23.3570 O   0  0  0  0  0  0  0  0  0  0  0  0
  -20.9360  -29.8490   21.7380 H   0  0  0  0  0  0  0  0  0  0  0  0
  -18.0450  -28.0970   22.9120 C   0  0  0  0  0  0  0  0  0  0  0  0
  -20.6060  -28.3370   23.1760 C   0  0  0  0  0  3  0  0  0  0  0  0
  -20.6980  -26.9150   22.5750 C   0  0  0  0  0  2  0  0  0  0  0  0
  -19.5890  -26.6160   21.5620 C   0  0  0  0  0  2  0  0  0  0  0  0
  -18.2110  -26.7570   22.2150 C   0  0  0  0  0  2  0  0  0  0  0  0
  -19.1690  -28.8440   23.3510 C   0  0  0  0  0  0  0  0  0  0  0  0
  -18.9600  -30.0990   23.9650 C   0  0  0  0  0  3  0  0  0  0  0  0
  -17.6580  -30.6040   24.1450 C   0  0  0  0  0  3  0  0  0  0  0  0
  -16.5480  -29.8520   23.7220 C   0  0  0  0  0  3  0  0  0  0  0  0
  -16.7430  -28.6000   23.1120 C   0  0  0  0  0  3  0  0  0  0  0  0
  -25.8980  -32.4930   23.8910 C   0  0  0  0  0  3  0  0  0  0  0  0
  -26.4020  -31.7150   25.1690 C   0  0  1  0  0  0  0  0  0  0  0  0
  -25.3010  -31.4810   26.2290 C   0  0  0  0  0  1  0  0  0  0  0  0
  -26.9820  -30.3360   24.7770 C   0  0  0  0  0  1  0  0  0  0  0  0
  -27.5530  -32.5020   25.8390 C   0  0  0  0  0  1  0  0  0  0  0  0
  -25.5940  -33.8910   24.2220 N   0  0  0  0  0  0  0  0  0  0  0  0
  -25.9140  -34.9420   23.4550 C   0  0  0  0  0  0  0  0  0  0  0  0
  -26.5670  -34.8350   22.4130 O   0  0  0  0  0  0  0  0  0  0  0  0
  -25.0100  -34.0480   25.0320 H   0  0  0  0  0  0  0  0  0  0  0  0
  -24.1690  -36.7260   23.1380 C   0  0  0  0  0  1  0  0  0  0  0  0
  -25.4340  -36.3330   23.9160 C   0  0  0  0  0  3  0  0  0  0  0  0
  -27.5850  -37.2360   24.6830 C   0  0  0  0  0  1  0  0  0  0  0  0
  -26.4590  -37.3880   23.7660 N   0  0  0  0  0  0  0  0  0  0  0  0
  -26.0520  -38.3090   23.9130 H   0  0  0  0  0  0  0  0  0  0  0  0
  1  2  1  0
  1 50  1  0
  2  8  1  0
  2  4  1  0
  3  1  2  0
  5  6  2  0
  5  8  1  0
  6  9  1  0
  7 10  1  0
  8  7  2  0
  9 20  1  0
  9 10  2  0
 10 11  1  0
 12 20  1  0
 13 18  1  0
 14 15  1  0
 14 13  1  0
 16 15  1  0
 16 25  1  0
 16 17  1  0
 18 12  1  0
 18 17  1  0
 19 12  2  0
 20 21  1  0
 22 23  2  0
 23 42  1  0
 24 23  1  0
 24 27  1  0
 25 26  1  0
 25 22  1  0
 26 24  2  0
 27 28  1  0
 28 29  2  0
 30 33  1  0
 30 29  1  0
 31 30  2  0
 32 31  1  0
 32 27  2  0
 33 34  1  0
 34 35  1  0
 35 36  2  0
 37 36  1  0
 37 41  1  0
 38 37  2  0
 39 34  2  0
 39 38  1  0
 40 39  1  0
 42 43  1  0
 43 46  1  0
 43 45  1  0
 44 42  2  0
 47 22  1  0
 47 48  1  0
 49 47  1  0
 51 52  1  0
 51 50  2  0
 53 64  2  0
 54 52  1  0
 54 59  1  0
 55 63  1  0
 55 65  1  0
 56 62  1  0
 56 58  1  0
 57 63  1  0
 58 57  1  0
 59 58  2  0
 60 61  1  0
 60 54  2  0
 61 56  2  0
 62 55  1  0
 63 53  1  0
 65 67  2  0
 66 65  1  0
 68 66  1  0
 69 78  2  0
 69 74  1  0
 70 66  1  0
 70 74  1  0
 71 70  1  0
 72 73  1  0
 72 71  1  0
 73 69  1  0
 74 75  2  0
 75 76  1  0
 77 76  2  0
 78 77  1  0
 79 53  1  0
 79 84  1  0
 79 80  1  0
 80 83  1  1
 80 81  1  0
 82 80  1  0
 84 87  1  0
 85 89  1  0
 85 84  1  0
 86 85  2  0
 89 88  1  0
 91 92  1  0
 91 89  1  0
 91 90  1  0
M  ISO  4  12 100  20 100  51 101  52 101
M  END
>  <TORSDO>  (4) 
F 19

>  <SCORE>  (4) 
-14.241

>  <name>  (4) 
3

>  <ligand_id>  (4) 
3

>  <original_smiles>  (4) 
[H]c1c([H])c([H])c2c(c1[H])C([H])([H])C([H])([H])C([H])([H])C2([H])N([H])C(=O)C1([H])N(C(=O)C([H])(N([H])C(=O)C([H])(N([H])C([H])([H])[H])C([H])([H])[H])C(C([H])([H])[H])(C([H])([H])[H])C([H])([H])[H])C([H])([H])c2c([H])c(OC([H])([H])C([H])([H])C(=O)N([H])c3c([H])c([H])c(N([H])C(=O)N4C([H])([H])C([H])([H])C([H])([H])C([H])(n5nc(-c6c([H])c([H])c(Oc7c([H])c([H])c(F)c([H])c7F)c([H])c6[H])c(C(=O)N([H])[H])c5N([H])[H])C4([H])[H])c(F)c3[H])c([H])c([H])c2C1([H])[H]

>  <smiles>  (4) 
[H]c1c([H])c([H])c2c(c1[H])C([H])([H])C([H])([H])C([H])([H])C2([H])N([H])C(=O)C1([H])N(C(=O)C([H])(N([H])C(=O)C([H])(N([H])C([H])([H])[H])C([H])([H])[H])C(C([H])([H])[H])(C([H])([H])[H])C([H])([H])[H])C([H])([H])c2c([H])c(OC([H])([H])C([H])([H])C(=O)N([H])c3c([H])c([H])c(N([H])C(=O)N4C([H])([H])C([H])([H])C([H])([H])C([H])(n5nc(-c6c([H])c([H])c(Oc7c([H])c([H])c(F)c([H])c7F)c([H])c6[H])c(C(=O)N([H])[H])c5N([H])[H])C4([H])[H])c(F)c3[H])c([H])c([H])c2C1([H])[H]

$$$$
4:0:0
     RDKit          3D

 92100  0  0  1  0  0  0  0  0999 V2000
  -29.8780  -21.9600   20.5100 C   0  0  0  0  0  0  0  0  0  0  0  0
  -29.4510  -20.6840   20.7210 N   0  0  0  0  0  0  0  0  0  0  0  0
  -31.0440  -22.2310   20.2080 O   0  0  0  0  0  0  0  0  0  0  0  0
  -28.4490  -20.5700   20.7900 H   0  0  0  0  0  0  0  0  0  0  0  0
  -32.3080  -18.4170   21.7080 C   0  0  0  0  0  3  0  0  0  0  0  0
  -31.5530  -19.5750   21.4530 C   0  0  0  0  0  3  0  0  0  0  0  0
  -31.7720  -17.1450   21.4500 C   0  0  0  0  0  3  0  0  0  0  0  0
  -29.6980  -18.1850   20.6940 C   0  0  0  0  0  3  0  0  0  0  0  0
  -30.2400  -19.4890   20.9310 C   0  0  0  0  0  0  0  0  0  0  0  0
  -30.4660  -17.0000   20.9250 C   0  0  0  0  0  0  0  0  0  0  0  0
  -30.5820  -14.6240   20.1220 C   0  0  0  0  0  0  0  0  0  0  0  0
  -30.2000  -12.4990   18.9190 C   0  0  0  0  0  2  0  0  0  0  0  0
  -29.1890  -12.7280   17.7780 C   0  0  0  0  0  2  0  0  0  0  0  0
  -27.7480  -12.5550   18.2930 C   0  0  0  0  0  2  0  0  0  0  0  0
  -27.4790  -13.3480   19.6000 C   0  0  0  0  0  3  0  0  0  0  0  0
  -28.6040  -13.1280   20.6370 C   0  0  0  0  0  2  0  0  0  0  0  0
  -29.8820  -13.4610   19.9900 N   0  0  0  0  0  0  0  0  0  0  0  0
  -31.6930  -14.7690   19.6060 O   0  0  0  0  0  0  0  0  0  0  0  0
  -29.9310  -15.6790   20.6800 N   0  0  0  0  0  0  0  0  0  0  0  0
  -28.9570  -15.5300   20.8990 H   0  0  0  0  0  0  0  0  0  0  0  0
  -25.1200  -13.8970   20.4630 C   0  0  0  0  0  0  0  0  0  0  0  0
  -24.0860  -13.1000   20.8720 C   0  0  0  0  0  0  0  0  0  0  0  0
  -24.5630  -11.7560   20.7830 C   0  0  0  0  0  0  0  0  0  0  0  0
  -26.1620  -13.0380   20.1510 N   0  0  0  0  0  0  0  0  0  0  0  0
  -25.8350  -11.7440   20.4020 N   0  0  0  0  0  0  0  0  0  0  0  0
  -23.8670  -10.4790   20.9800 C   0  0  0  0  0  0  0  0  0  0  0  0
  -24.3370   -9.5140   21.8980 C   0  0  0  0  0  3  0  0  0  0  0  0
  -23.6380   -8.3020   22.0840 C   0  0  0  0  0  3  0  0  0  0  0  0
  -22.4540   -8.0450   21.3530 C   0  0  0  0  0  0  0  0  0  0  0  0
  -22.0030   -8.9990   20.4230 C   0  0  0  0  0  3  0  0  0  0  0  0
  -22.7030  -10.2020   20.2350 C   0  0  0  0  0  3  0  0  0  0  0  0
  -21.7250   -6.8850   21.4500 O   0  0  0  0  0  0  0  0  0  0  0  0
  -21.6980   -6.1460   22.6050 C   0  0  0  0  0  0  0  0  0  0  0  0
  -21.2490   -6.6900   23.8280 C   0  0  0  0  0  3  0  0  0  0  0  0
  -21.1730   -5.8750   24.9760 C   0  0  0  0  0  3  0  0  0  0  0  0
  -21.5340   -4.5170   24.9010 C   0  0  0  0  0  0  0  0  0  0  0  0
  -21.9760   -3.9720   23.6820 C   0  0  0  0  0  3  0  0  0  0  0  0
  -22.0540   -4.7830   22.5370 C   0  0  0  0  0  0  0  0  0  0  0  0
  -22.4600   -4.2480   21.3600 F   0  0  0  0  0  0  0  0  0  0  0  0
  -21.4540   -3.7310   26.0000 F   0  0  0  0  0  0  0  0  0  0  0  0
  -22.7000  -13.5490   21.2340 C   0  0  0  0  0  0  0  0  0  0  0  0
  -22.0270  -12.8140   22.1130 N   0  0  0  0  0  0  0  0  0  0  0  0
  -22.2230  -14.5860   20.7730 O   0  0  0  0  0  0  0  0  0  0  0  0
  -22.4250  -11.9750   22.5070 H   0  0  0  0  0  0  0  0  0  0  0  0
  -21.0980  -13.0970   22.3960 H   0  0  0  0  0  0  0  0  0  0  0  0
  -25.2550  -15.2730   20.3080 N   0  0  0  0  0  0  0  0  0  0  0  0
  -24.4830  -15.9120   20.4670 H   0  0  0  0  0  0  0  0  0  0  0  0
  -26.0700  -15.7300   19.9200 H   0  0  0  0  0  0  0  0  0  0  0  0
  -28.8260  -22.9730   20.6490 C   0  0  0  0  0  3  0  0  0  0  0  0
  -29.0950  -24.3090   20.6450 C   0  0  0  0  0  3  0  0  0  0  0  0
  -28.0500  -25.4100   20.8770 C   0  0  0  0  0  2  0  0  0  0  0  0
  -28.2940  -26.6810   20.2160 O   0  0  0  0  0  0  0  0  0  0  0  0
  -24.5420  -31.9730   23.2390 C   0  0  0  0  0  0  0  0  0  0  0  0
  -27.1710  -27.4910   20.1730 C   0  0  0  0  0  0  0  0  0  0  0  0
  -23.3330  -30.5600   21.6110 C   0  0  0  0  0  3  0  0  0  0  0  0
  -24.7850  -29.0240   20.1780 C   0  0  0  0  0  0  0  0  0  0  0  0
  -25.8600  -30.9180   21.4020 C   0  0  0  0  0  2  0  0  0  0  0  0
  -25.9480  -29.5430   20.7610 C   0  0  0  0  0  0  0  0  0  0  0  0
  -27.1480  -28.7860   20.7530 C   0  0  0  0  0  3  0  0  0  0  0  0
  -25.9940  -27.0090   19.5600 C   0  0  0  0  0  3  0  0  0  0  0  0
  -24.8050  -27.7590   19.5700 C   0  0  0  0  0  3  0  0  0  0  0  0
  -23.5380  -29.8810   20.2310 C   0  0  0  0  0  2  0  0  0  0  0  0
  -24.5970  -31.1650   22.1410 N   0  0  0  0  0  0  0  0  0  0  0  0
  -23.4620  -32.2440   23.7830 O   0  0  0  0  0  0  0  0  0  0  0  0
  -22.6880  -29.5400   22.5780 C   0  0  0  0  0  0  0  0  0  0  0  0
  -21.3640  -29.3540   22.4600 N   0  0  0  0  0  0  0  0  0  0  0  0
  -23.3780  -28.9190   23.3910 O   0  0  0  0  0  0  0  0  0  0  0  0
  -20.8680  -29.9080   21.7740 H   0  0  0  0  0  0  0  0  0  0  0  0
  -17.9940  -28.1520   22.9810 C   0  0  0  0  0  0  0  0  0  0  0  0
  -20.5530  -28.4170   23.2370 C   0  0  0  0  0  3  0  0  0  0  0  0
  -20.6560  -26.9840   22.6660 C   0  0  0  0  0  2  0  0  0  0  0  0
  -19.5490  -26.6550   21.6590 C   0  0  0  0  0  2  0  0  0  0  0  0
  -18.1700  -26.8000   22.3110 C   0  0  0  0  0  2  0  0  0  0  0  0
  -19.1130  -28.9180   23.4030 C   0  0  0  0  0  0  0  0  0  0  0  0
  -18.8950  -30.1840   23.9890 C   0  0  0  0  0  3  0  0  0  0  0  0
  -17.5910  -30.6830   24.1600 C   0  0  0  0  0  3  0  0  0  0  0  0
  -16.4860  -29.9140   23.7570 C   0  0  0  0  0  3  0  0  0  0  0  0
  -16.6880  -28.6500   23.1730 C   0  0  0  0  0  3  0  0  0  0  0  0
  -25.8280  -32.6110   23.8490 C   0  0  0  0  0  3  0  0  0  0  0  0
  -26.3550  -31.8480   25.1260 C   0  0  1  0  0  0  0  0  0  0  0  0
  -25.2680  -31.6060   26.1980 C   0  0  0  0  0  1  0  0  0  0  0  0
  -26.9470  -30.4740   24.7340 C   0  0  0  0  0  1  0  0  0  0  0  0
  -27.5020  -32.6540   25.7800 C   0  0  0  0  0  1  0  0  0  0  0  0
  -25.5170  -34.0100   24.1720 N   0  0  0  0  0  0  0  0  0  0  0  0
  -25.8550  -35.0600   23.4100 C   0  0  0  0  0  0  0  0  0  0  0  0
  -26.5340  -34.9530   22.3850 O   0  0  0  0  0  0  0  0  0  0  0  0
  -24.9160  -34.1680   24.9680 H   0  0  0  0  0  0  0  0  0  0  0  0
  -24.1410  -36.8580   23.0220 C   0  0  0  0  0  1  0  0  0  0  0  0
  -25.3640  -36.4490   23.8580 C   0  0  0  0  0  3  0  0  0  0  0  0
  -27.4840  -37.3260   24.7330 C   0  0  0  0  0  1  0  0  0  0  0  0
  -26.4020  -37.4980   23.7670 N   0  0  0  0  0  0  0  0  0  0  0  0
  -25.9980  -38.4200   23.9060 H   0  0  0  0  0  0  0  0  0  0  0  0
  1 49  1  0
  1  2  1  0
  2  4  1  0
  2  9  1  0
  3  1  2  0
  6  5  1  0
  7  5  2  0
  8 10  2  0
  8  9  1  0
  9  6  2  0
 10  7  1  0
 11 19  1  0
 12 17  1  0
 13 14  1  0
 13 12  1  0
 15 14  1  0
 15 24  1  0
 15 16  1  0
 17 11  1  0
 17 16  1  0
 18 11  2  0
 19 20  1  0
 19 10  1  0
 21 22  2  0
 22 41  1  0
 23 22  1  0
 23 26  1  0
 24 25  1  0
 24 21  1  0
 25 23  2  0
 26 27  1  0
 27 28  2  0
 29 32  1  0
 29 28  1  0
 30 29  2  0
 31 30  1  0
 31 26  2  0
 32 33  1  0
 33 34  1  0
 34 35  2  0
 36 35  1  0
 36 40  1  0
 37 36  2  0
 38 33  2  0
 38 37  1  0
 39 38  1  0
 41 42  1  0
 42 45  1  0
 42 44  1  0
 43 41  2  0
 46 21  1  0
 46 47  1  0
 48 46  1  0
 50 49  2  0
 50 51  1  0
 52 51  1  0
 53 64  2  0
 54 52  1  0
 54 59  1  0
 55 63  1  0
 55 65  1  0
 56 62  1  0
 56 58  1  0
 57 63  1  0
 58 57  1  0
 59 58  2  0
 60 61  1  0
 60 54  2  0
 61 56  2  0
 62 55  1  0
 63 53  1  0
 65 67  2  0
 66 65  1  0
 68 66  1  0
 69 78  2  0
 69 74  1  0
 70 66  1  0
 70 74  1  0
 71 70  1  0
 72 73  1  0
 72 71  1  0
 73 69  1  0
 74 75  2  0
 75 76  1  0
 77 76  2  0
 78 77  1  0
 79 53  1  0
 79 84  1  0
 79 80  1  0
 80 83  1  1
 80 81  1  0
 82 80  1  0
 84 87  1  0
 85 89  1  0
 85 84  1  0
 86 85  2  0
 89 88  1  0
 91 89  1  0
 91 92  1  0
 91 90  1  0
M  ISO  4  11 100  19 100  51 101  52 101
M  END
>  <TORSDO>  (5) 
F 19

>  <SCORE>  (5) 
-13.779

>  <name>  (5) 
4

>  <ligand_id>  (5) 
4

>  <original_smiles>  (5) 
[H]C(C(=O)N([H])c1c([H])c([H])c([H])c(N([H])C(=O)N2C([H])([H])C([H])([H])C([H])([H])C([H])(n3nc(-c4c([H])c([H])c(Oc5c([H])c([H])c(F)c([H])c5F)c([H])c4[H])c(C(=O)N([H])[H])c3N([H])[H])C2([H])[H])c1[H])=C([H])C([H])([H])Oc1c([H])c([H])c2c(c1[H])C([H])([H])N(C(=O)C([H])(N([H])C(=O)C([H])(N([H])C([H])([H])[H])C([H])([H])[H])C(C([H])([H])[H])(C([H])([H])[H])C([H])([H])[H])C([H])(C(=O)N([H])C1([H])c3c([H])c([H])c([H])c([H])c3C([H])([H])C([H])([H])C1([H])[H])C2([H])[H]

>  <smiles>  (5) 
[H]C(C(=O)N([H])c1c([H])c([H])c([H])c(N([H])C(=O)N2C([H])([H])C([H])([H])C([H])([H])C([H])(n3nc(-c4c([H])c([H])c(Oc5c([H])c([H])c(F)c([H])c5F)c([H])c4[H])c(C(=O)N([H])[H])c3N([H])[H])C2([H])[H])c1[H])=C([H])C([H])([H])Oc1c([H])c([H])c2c(c1[H])C([H])([H])N(C(=O)C([H])(N([H])C(=O)C([H])(N([H])C([H])([H])[H])C([H])([H])[H])C(C([H])([H])[H])(C([H])([H])[H])C([H])([H])[H])C([H])(C(=O)N([H])C1([H])c3c([H])c([H])c([H])c([H])c3C([H])([H])C([H])([H])C1([H])[H])C2([H])[H]

$$$$
5:0:0
     RDKit          3D

 97105  0  0  1  0  0  0  0  0999 V2000
  -28.4060  -19.6920   20.6800 C   0  0  0  0  0  0  0  0  0  0  0  0
  -27.4000  -19.4420   19.8410 N   0  0  0  0  0  4  0  0  0  0  0  0
  -28.5420  -20.9330   21.1740 N   0  0  0  0  0  0  0  0  0  0  0  0
  -27.3530  -18.5350   19.3990 H   0  0  0  0  0  0  0  0  0  0  0  0
  -26.7300  -20.1380   19.5650 H   0  0  0  0  0  0  0  0  0  0  0  0
  -29.3520  -21.0860   21.7650 H   0  0  0  0  0  0  0  0  0  0  0  0
  -29.8490  -18.5880   22.3890 C   0  0  0  0  0  3  0  0  0  0  0  0
  -31.0710  -16.5300   21.8750 C   0  0  0  0  0  3  0  0  0  0  0  0
  -29.3340  -18.6270   21.0730 C   0  0  0  0  0  0  0  0  0  0  0  0
  -30.5670  -16.5680   20.5540 C   0  0  0  0  0  0  0  0  0  0  0  0
  -30.7100  -17.5440   22.7850 C   0  0  0  0  0  0  0  0  0  0  0  0
  -29.7080  -17.6130   20.1600 C   0  0  0  0  0  0  0  0  0  0  0  0
  -31.1860  -17.5100   24.0540 F   0  0  0  0  0  0  0  0  0  0  0  0
  -29.2330  -17.6130   18.8870 F   0  0  0  0  0  0  0  0  0  0  0  0
  -31.6170  -14.5110   19.6470 C   0  0  0  0  0  0  0  0  0  0  0  0
  -31.1630  -12.2840   18.7330 C   0  0  0  0  0  2  0  0  0  0  0  0
  -30.1420  -12.4430   17.5840 C   0  0  0  0  0  2  0  0  0  0  0  0
  -28.6990  -12.4260   18.1270 C   0  0  0  0  0  2  0  0  0  0  0  0
  -28.4910  -13.3750   19.3390 C   0  0  0  0  0  3  0  0  0  0  0  0
  -29.6170  -13.1880   20.3850 C   0  0  0  0  0  2  0  0  0  0  0  0
  -30.9060  -13.3590   19.6970 N   0  0  0  0  0  0  0  0  0  0  0  0
  -32.7690  -14.5910   19.2190 O   0  0  0  0  0  0  0  0  0  0  0  0
  -30.8360  -15.5930   19.5670 N   0  0  0  0  0  0  0  0  0  0  0  0
  -30.8150  -15.9910   18.6390 H   0  0  0  0  0  0  0  0  0  0  0  0
  -26.2600  -14.1860   20.3360 C   0  0  0  0  0  0  0  0  0  0  0  0
  -25.1440  -13.5060   20.7460 C   0  0  0  0  0  0  0  0  0  0  0  0
  -25.4330  -12.1210   20.5550 C   0  0  0  0  0  0  0  0  0  0  0  0
  -27.1650  -13.2170   19.9290 N   0  0  0  0  0  0  0  0  0  0  0  0
  -26.6760  -11.9660   20.1190 N   0  0  0  0  0  0  0  0  0  0  0  0
  -24.5810  -10.9350   20.7080 C   0  0  0  0  0  0  0  0  0  0  0  0
  -24.9520   -9.8640   21.5520 C   0  0  0  0  0  3  0  0  0  0  0  0
  -24.1080   -8.7410   21.6970 C   0  0  0  0  0  3  0  0  0  0  0  0
  -22.8800   -8.6830   20.9980 C   0  0  0  0  0  0  0  0  0  0  0  0
  -22.5270   -9.7400   20.1410 C   0  0  0  0  0  3  0  0  0  0  0  0
  -23.3690  -10.8550   19.9950 C   0  0  0  0  0  3  0  0  0  0  0  0
  -22.0100   -7.6210   21.0570 O   0  0  0  0  0  0  0  0  0  0  0  0
  -21.8510   -6.8850   22.2030 C   0  0  0  0  0  0  0  0  0  0  0  0
  -21.4450   -7.4760   23.4180 C   0  0  0  0  0  3  0  0  0  0  0  0
  -21.2270   -6.6720   24.5550 C   0  0  0  0  0  3  0  0  0  0  0  0
  -21.4040   -5.2770   24.4760 C   0  0  0  0  0  0  0  0  0  0  0  0
  -21.8010   -4.6870   23.2650 C   0  0  0  0  0  3  0  0  0  0  0  0
  -22.0220   -5.4880   22.1310 C   0  0  0  0  0  0  0  0  0  0  0  0
  -22.3870   -4.9090   20.9610 F   0  0  0  0  0  0  0  0  0  0  0  0
  -21.1830   -4.5040   25.5650 F   0  0  0  0  0  0  0  0  0  0  0  0
  -23.8440  -14.1100   21.1920 C   0  0  0  0  0  0  0  0  0  0  0  0
  -23.1500  -13.4580   22.1180 N   0  0  0  0  0  0  0  0  0  0  0  0
  -23.4580  -15.1920   20.7540 O   0  0  0  0  0  0  0  0  0  0  0  0
  -23.4750  -12.5780   22.4930 H   0  0  0  0  0  0  0  0  0  0  0  0
  -22.2800  -13.8440   22.4570 H   0  0  0  0  0  0  0  0  0  0  0  0
  -26.5690  -15.5400   20.2530 N   0  0  0  0  0  0  0  0  0  0  0  0
  -25.8760  -16.2540   20.4500 H   0  0  0  0  0  0  0  0  0  0  0  0
  -27.3960  -15.9030   19.7970 H   0  0  0  0  0  0  0  0  0  0  0  0
  -27.7090  -22.1270   20.9360 C   0  0  0  0  0  2  0  0  0  0  0  0
  -28.3140  -23.0580   19.8740 C   0  0  0  0  0  2  0  0  0  0  0  0
  -27.7730  -24.4910   19.9990 C   0  0  0  0  0  2  0  0  0  0  0  0
  -28.2700  -25.4430   18.8940 C   0  0  0  0  0  2  0  0  0  0  0  0
  -28.2380  -26.8000   19.3360 O   0  0  0  0  0  0  0  0  0  0  0  0
  -24.6150  -31.6240   23.0720 C   0  0  0  0  0  0  0  0  0  0  0  0
  -27.0310  -27.4550   19.4740 C   0  0  0  0  0  0  0  0  0  0  0  0
  -23.2880  -30.3400   21.4270 C   0  0  0  0  0  3  0  0  0  0  0  0
  -24.6310  -28.9190   19.7900 C   0  0  0  0  0  0  0  0  0  0  0  0
  -25.7890  -30.7280   21.0690 C   0  0  0  0  0  2  0  0  0  0  0  0
  -25.8260  -29.4090   20.3280 C   0  0  0  0  0  0  0  0  0  0  0  0
  -27.0240  -28.6830   20.1710 C   0  0  0  0  0  3  0  0  0  0  0  0
  -25.8150  -26.9750   18.9340 C   0  0  0  0  0  3  0  0  0  0  0  0
  -24.6180  -27.6960   19.0960 C   0  0  0  0  0  3  0  0  0  0  0  0
  -23.3950  -29.7670   19.9880 C   0  0  0  0  0  2  0  0  0  0  0  0
  -24.5860  -30.9070   21.9140 N   0  0  0  0  0  0  0  0  0  0  0  0
  -23.5780  -31.8450   23.7130 O   0  0  0  0  0  0  0  0  0  0  0  0
  -22.7160  -29.2440   22.3530 C   0  0  0  0  0  0  0  0  0  0  0  0
  -21.3930  -29.0240   22.2700 N   0  0  0  0  0  0  0  0  0  0  0  0
  -23.4530  -28.5990   23.1040 O   0  0  0  0  0  0  0  0  0  0  0  0
  -20.8550  -29.6030   21.6400 H   0  0  0  0  0  0  0  0  0  0  0  0
  -18.0990  -27.6270   22.7640 C   0  0  0  0  0  0  0  0  0  0  0  0
  -20.6420  -28.0170   23.0200 C   0  0  0  0  0  3  0  0  0  0  0  0
  -20.8180  -26.6120   22.4020 C   0  0  0  0  0  2  0  0  0  0  0  0
  -19.7220  -26.2530   21.3920 C   0  0  0  0  0  2  0  0  0  0  0  0
  -18.3420  -26.3090   22.0490 C   0  0  0  0  0  2  0  0  0  0  0  0
  -19.1790  -28.4360   23.2080 C   0  0  0  0  0  0  0  0  0  0  0  0
  -18.8980  -29.6680   23.8370 C   0  0  0  0  0  3  0  0  0  0  0  0
  -17.5700  -30.0930   24.0300 C   0  0  0  0  0  3  0  0  0  0  0  0
  -16.5040  -29.2820   23.6000 C   0  0  0  0  0  3  0  0  0  0  0  0
  -16.7700  -28.0520   22.9740 C   0  0  0  0  0  3  0  0  0  0  0  0
  -25.9450  -32.2150   23.6360 C   0  0  0  0  0  3  0  0  0  0  0  0
  -25.6730  -33.5960   24.0530 N   0  0  0  0  0  0  0  0  0  0  0  0
  -25.9490  -34.6810   23.3170 C   0  0  0  0  0  0  0  0  0  0  0  0
  -26.5370  -34.6240   22.2320 O   0  0  0  0  0  0  0  0  0  0  0  0
  -25.1510  -33.7160   24.9090 H   0  0  0  0  0  0  0  0  0  0  0  0
  -24.2000  -36.4820   23.1840 C   0  0  0  0  0  1  0  0  0  0  0  0
  -25.5050  -36.0470   23.8720 C   0  0  0  0  0  3  0  0  0  0  0  0
  -27.7000  -36.9040   24.5590 C   0  0  0  0  0  1  0  0  0  0  0  0
  -26.5260  -37.1070   23.7170 N   0  0  0  0  0  0  0  0  0  0  0  0
  -26.1330  -38.0180   23.9340 H   0  0  0  0  0  0  0  0  0  0  0  0
  -26.5410  -31.3760   24.8330 C   0  0  1  0  0  0  0  0  0  0  0  0
  -25.5220  -31.0940   25.9620 C   0  0  0  0  0  1  0  0  0  0  0  0
  -27.0780  -30.0140   24.3310 C   0  0  0  0  0  1  0  0  0  0  0  0
  -27.7450  -32.1240   25.4510 C   0  0  0  0  0  1  0  0  0  0  0  0
  1  9  1  0
  1  3  1  0
  2  1  2  0
  3  6  1  0
  4  2  1  0
  5  2  1  0
  7 11  1  0
  8 11  2  0
  9  7  2  0
 10  8  1  0
 11 13  1  0
 12 10  2  0
 12  9  1  0
 14 12  1  0
 15 21  1  0
 16 21  1  0
 17 18  1  0
 17 16  1  0
 19 18  1  0
 19 28  1  0
 19 20  1  0
 21 20  1  0
 22 15  2  0
 23 15  1  0
 23 10  1  0
 24 23  1  0
 25 26  2  0
 26 45  1  0
 27 30  1  0
 27 26  1  0
 28 29  1  0
 28 25  1  0
 29 27  2  0
 30 31  1  0
 31 32  2  0
 33 36  1  0
 33 32  1  0
 34 33  2  0
 35 34  1  0
 35 30  2  0
 36 37  1  0
 37 38  1  0
 38 39  2  0
 40 39  1  0
 40 44  1  0
 41 40  2  0
 42 37  2  0
 42 41  1  0
 43 42  1  0
 45 46  1  0
 46 49  1  0
 46 48  1  0
 47 45  2  0
 50 25  1  0
 50 51  1  0
 52 50  1  0
 53  3  1  0
 54 55  1  0
 54 53  1  0
 56 57  1  0
 56 55  1  0
 57 59  1  0
 58 69  2  0
 59 64  1  0
 60 68  1  0
 60 70  1  0
 61 67  1  0
 61 63  1  0
 62 68  1  0
 63 62  1  0
 64 63  2  0
 65 66  1  0
 65 59  2  0
 66 61  2  0
 67 60  1  0
 68 58  1  0
 70 72  2  0
 71 70  1  0
 73 71  1  0
 74 83  2  0
 74 79  1  0
 75 71  1  0
 75 79  1  0
 76 75  1  0
 77 78  1  0
 77 76  1  0
 78 74  1  0
 79 80  2  0
 80 81  1  0
 82 81  2  0
 83 82  1  0
 84 58  1  0
 84 85  1  0
 84 94  1  0
 85 88  1  0
 86 90  1  0
 86 85  1  0
 87 86  2  0
 90 89  1  0
 92 90  1  0
 92 93  1  0
 92 91  1  0
 94 97  1  1
 94 95  1  0
 96 94  1  0
M  ISO  4  15 100  23 100  56 101  57 101
M  END
>  <TORSDO>  (6) 
F 21

>  <SCORE>  (6) 
-10.590

>  <name>  (6) 
5

>  <ligand_id>  (6) 
5

>  <original_smiles>  (6) 
[H]c1c([H])c([H])c2c(c1[H])C([H])([H])C([H])([H])C([H])([H])C2([H])N([H])C(=O)C1([H])N(C(=O)C([H])(N([H])C(=O)C([H])(N([H])C([H])([H])[H])C([H])([H])[H])C(C([H])([H])[H])(C([H])([H])[H])C([H])([H])[H])C([H])([H])c2c([H])c(OC([H])([H])C([H])([H])C([H])([H])C([H])([H])[N+]([H])=C(c3c([H])c(F)c([H])c(N([H])C(=O)N4C([H])([H])C([H])([H])C([H])([H])C([H])(n5nc(-c6c([H])c([H])c(Oc7c([H])c([H])c(F)c([H])c7F)c([H])c6[H])c(C(=O)N([H])[H])c5N([H])[H])C4([H])[H])c3F)N([H])[H])c([H])c([H])c2C1([H])[H]

>  <smiles>  (6) 
[H]c1c([H])c([H])c2c(c1[H])C([H])([H])C([H])([H])C([H])([H])C2([H])N([H])C(=O)C1([H])N(C(=O)C([H])(N([H])C(=O)C([H])(N([H])C([H])([H])[H])C([H])([H])[H])C(C([H])([H])[H])(C([H])([H])[H])C([H])([H])[H])C([H])([H])c2c([H])c(OC([H])([H])C([H])([H])C([H])([H])C([H])([H])[N+]([H])=C(c3c([H])c(F)c([H])c(N([H])C(=O)N4C([H])([H])C([H])([H])C([H])([H])C([H])(n5nc(-c6c([H])c([H])c(Oc7c([H])c([H])c(F)c([H])c7F)c([H])c6[H])c(C(=O)N([H])[H])c5N([H])[H])C4([H])[H])c3F)N([H])[H])c([H])c([H])c2C1([H])[H]

$$$$
6:0:0
     RDKit          3D

 95104  0  0  1  0  0  0  0  0999 V2000
  -28.3580  -21.8360   18.6670 C   0  0  0  0  0  0  0  0  0  0  0  0
  -28.3310  -23.1370   17.8390 C   0  0  0  0  0  2  0  0  0  0  0  0
  -27.5770  -24.3040   18.5070 C   0  0  0  0  0  2  0  0  0  0  0  0
  -29.0640  -23.3700   20.4190 C   0  0  0  0  0  2  0  0  0  0  0  0
  -28.0100  -24.6300   19.9580 C   0  0  0  0  0  3  0  0  0  0  0  0
  -28.9860  -21.8590   19.8670 N   0  0  0  0  0  0  0  0  0  0  0  0
  -27.8360  -20.8270   18.1830 O   0  0  0  0  0  0  0  0  0  0  0  0
  -31.4210  -18.2000   21.0000 C   0  0  0  0  0  3  0  0  0  0  0  0
  -29.3600  -19.1050   20.1360 C   0  0  0  0  0  3  0  0  0  0  0  0
  -31.8680  -19.5250   21.2030 C   0  0  0  0  0  0  0  0  0  0  0  0
  -31.1020  -20.6690   20.8050 C   0  0  0  0  0  0  0  0  0  0  0  0
  -29.7650  -20.5520   20.2940 C   0  0  0  0  0  0  0  0  0  0  0  0
  -30.1740  -17.8810   20.4400 C   0  0  0  0  0  0  0  0  0  0  0  0
  -31.8060  -22.0220   20.7990 C   0  0  0  0  0  1  0  0  0  0  0  0
  -30.6150  -15.1570   20.3300 C   0  0  0  0  0  0  0  0  0  0  0  0
  -30.5310  -12.7560   19.4740 C   0  0  0  0  0  2  0  0  0  0  0  0
  -29.6230  -12.6270   18.2300 C   0  0  0  0  0  2  0  0  0  0  0  0
  -28.1550  -12.4140   18.6440 C   0  0  0  0  0  2  0  0  0  0  0  0
  -27.7110  -13.3870   19.7680 C   0  0  0  0  0  3  0  0  0  0  0  0
  -28.7450  -13.4810   20.9080 C   0  0  0  0  0  2  0  0  0  0  0  0
  -30.0140  -13.8930   20.2950 N   0  0  0  0  0  0  0  0  0  0  0  0
  -31.8350  -15.1790   20.1290 O   0  0  0  0  0  0  0  0  0  0  0  0
  -29.8390  -16.3700   20.3210 N   0  0  0  0  0  0  0  0  0  0  0  0
  -28.8510  -16.1790   20.2510 H   0  0  0  0  0  0  0  0  0  0  0  0
  -25.3310  -13.9760   20.4930 C   0  0  0  0  0  0  0  0  0  0  0  0
  -24.2560  -13.2070   20.8460 C   0  0  0  0  0  0  0  0  0  0  0  0
  -24.7100  -11.8530   20.8080 C   0  0  0  0  0  0  0  0  0  0  0  0
  -26.3690  -13.0920   20.2560 N   0  0  0  0  0  0  0  0  0  0  0  0
  -26.0050  -11.8080   20.5120 N   0  0  0  0  0  0  0  0  0  0  0  0
  -23.9690  -10.5950   20.9770 C   0  0  0  0  0  0  0  0  0  0  0  0
  -24.3820   -9.6120   21.9020 C   0  0  0  0  0  3  0  0  0  0  0  0
  -23.6400   -8.4210   22.0610 C   0  0  0  0  0  3  0  0  0  0  0  0
  -22.4710   -8.2060   21.2940 C   0  0  0  0  0  0  0  0  0  0  0  0
  -22.0770   -9.1780   20.3570 C   0  0  0  0  0  3  0  0  0  0  0  0
  -22.8190  -10.3590   20.1960 C   0  0  0  0  0  3  0  0  0  0  0  0
  -21.7030   -7.0690   21.3620 O   0  0  0  0  0  0  0  0  0  0  0  0
  -21.6300   -6.3160   22.5070 C   0  0  0  0  0  0  0  0  0  0  0  0
  -21.1870   -6.8640   23.7310 C   0  0  0  0  0  3  0  0  0  0  0  0
  -21.0610   -6.0390   24.8660 C   0  0  0  0  0  3  0  0  0  0  0  0
  -21.3690   -4.6670   24.7790 C   0  0  0  0  0  0  0  0  0  0  0  0
  -21.8050   -4.1200   23.5590 C   0  0  0  0  0  3  0  0  0  0  0  0
  -21.9320   -4.9420   22.4260 C   0  0  0  0  0  0  0  0  0  0  0  0
  -22.3320   -4.4050   21.2490 F   0  0  0  0  0  0  0  0  0  0  0  0
  -21.2410   -3.8730   25.8680 F   0  0  0  0  0  0  0  0  0  0  0  0
  -22.8600  -13.6950   21.1000 C   0  0  0  0  0  0  0  0  0  0  0  0
  -22.1140  -13.0010   21.9520 N   0  0  0  0  0  0  0  0  0  0  0  0
  -22.4400  -14.7270   20.5790 O   0  0  0  0  0  0  0  0  0  0  0  0
  -22.4680  -12.1660   22.3970 H   0  0  0  0  0  0  0  0  0  0  0  0
  -21.1760  -13.3090   22.1640 H   0  0  0  0  0  0  0  0  0  0  0  0
  -25.5050  -15.3480   20.3290 N   0  0  0  0  0  0  0  0  0  0  0  0
  -24.7360  -16.0010   20.4320 H   0  0  0  0  0  0  0  0  0  0  0  0
  -26.3480  -15.7850   19.9810 H   0  0  0  0  0  0  0  0  0  0  0  0
  -33.4800  -20.4520   22.8850 C   0  0  0  0  0  2  0  0  0  0  0  0
  -33.1750  -19.6120   21.8820 C   0  0  0  0  0  3  0  0  0  0  0  0
  -28.2140  -26.1960   20.1350 O   0  0  0  0  0  0  0  0  0  0  0  0
  -24.6020  -31.9160   23.2150 C   0  0  0  0  0  0  0  0  0  0  0  0
  -27.1530  -27.1970   20.1080 C   0  0  0  0  0  0  0  0  0  0  0  0
  -23.3880  -30.5280   21.5830 C   0  0  0  0  0  3  0  0  0  0  0  0
  -24.8220  -28.9710   20.1270 C   0  0  0  0  0  0  0  0  0  0  0  0
  -25.9430  -30.7950   21.3890 C   0  0  0  0  0  2  0  0  0  0  0  0
  -26.0140  -29.4060   20.7210 C   0  0  0  0  0  0  0  0  0  0  0  0
  -27.1790  -28.5380   20.6880 C   0  0  0  0  0  3  0  0  0  0  0  0
  -25.9210  -26.8780   19.4940 C   0  0  0  0  0  3  0  0  0  0  0  0
  -24.7910  -27.7220   19.4980 C   0  0  0  0  0  3  0  0  0  0  0  0
  -23.5950  -29.8680   20.1970 C   0  0  0  0  0  2  0  0  0  0  0  0
  -24.6660  -31.1010   22.1160 N   0  0  0  0  0  0  0  0  0  0  0  0
  -23.5200  -32.1920   23.7580 O   0  0  0  0  0  0  0  0  0  0  0  0
  -22.7250  -29.5100   22.5450 C   0  0  0  0  0  0  0  0  0  0  0  0
  -21.3960  -29.3310   22.4320 N   0  0  0  0  0  0  0  0  0  0  0  0
  -23.4100  -28.8830   23.3590 O   0  0  0  0  0  0  0  0  0  0  0  0
  -20.9000  -29.8870   21.7510 H   0  0  0  0  0  0  0  0  0  0  0  0
  -18.0330  -28.0820   22.9480 C   0  0  0  0  0  0  0  0  0  0  0  0
  -20.5900  -28.3830   23.2070 C   0  0  0  0  0  3  0  0  0  0  0  0
  -20.7110  -26.9510   22.6350 C   0  0  0  0  0  2  0  0  0  0  0  0
  -19.6110  -26.6100   21.6250 C   0  0  0  0  0  2  0  0  0  0  0  0
  -18.2280  -26.7350   22.2720 C   0  0  0  0  0  2  0  0  0  0  0  0
  -19.1420  -28.8630   23.3720 C   0  0  0  0  0  0  0  0  0  0  0  0
  -18.9030  -30.1210   23.9670 C   0  0  0  0  0  3  0  0  0  0  0  0
  -17.5910  -30.6000   24.1390 C   0  0  0  0  0  3  0  0  0  0  0  0
  -16.4980  -29.8180   23.7280 C   0  0  0  0  0  3  0  0  0  0  0  0
  -16.7200  -28.5610   23.1390 C   0  0  0  0  0  3  0  0  0  0  0  0
  -25.8830  -32.5560   23.8300 C   0  0  0  0  0  3  0  0  0  0  0  0
  -25.5670  -33.9530   24.1710 N   0  0  0  0  0  0  0  0  0  0  0  0
  -25.8960  -35.0150   23.4250 C   0  0  0  0  0  0  0  0  0  0  0  0
  -26.5620  -34.9240   22.3920 O   0  0  0  0  0  0  0  0  0  0  0  0
  -24.9730  -34.0970   24.9750 H   0  0  0  0  0  0  0  0  0  0  0  0
  -24.1750  -36.8230   23.0870 C   0  0  0  0  0  1  0  0  0  0  0  0
  -25.4100  -36.4000   23.9010 C   0  0  0  0  0  3  0  0  0  0  0  0
  -27.5400  -37.2670   24.7610 C   0  0  0  0  0  1  0  0  0  0  0  0
  -26.4460  -37.4520   23.8110 N   0  0  0  0  0  0  0  0  0  0  0  0
  -26.0410  -38.3710   23.9670 H   0  0  0  0  0  0  0  0  0  0  0  0
  -26.4070  -31.7860   25.1040 C   0  0  1  0  0  0  0  0  0  0  0  0
  -25.3210  -31.5460   26.1790 C   0  0  0  0  0  1  0  0  0  0  0  0
  -26.9930  -30.4090   24.7150 C   0  0  0  0  0  1  0  0  0  0  0  0
  -27.5600  -32.5840   25.7600 C   0  0  0  0  0  1  0  0  0  0  0  0
  1  6  1  0
  2  3  1  0
  2  1  1  0
  3  5  1  0
  5 55  1  0
  5  4  1  0
  6 12  1  0
  6  4  1  0
  7  1  2  0
  8 10  1  0
  9 12  2  0
  9 13  1  0
 10 54  1  0
 11 10  2  0
 12 11  1  0
 13  8  2  0
 14 11  1  0
 16 21  1  0
 17 18  1  0
 17 16  1  0
 19 18  1  0
 19 28  1  0
 19 20  1  0
 21 15  1  0
 21 20  1  0
 22 15  2  0
 23 15  1  0
 23 13  1  0
 24 23  1  0
 25 26  2  0
 26 45  1  0
 27 26  1  0
 27 30  1  0
 28 25  1  0
 28 29  1  0
 29 27  2  0
 30 31  1  0
 31 32  2  0
 33 36  1  0
 33 32  1  0
 34 33  2  0
 35 34  1  0
 35 30  2  0
 36 37  1  0
 37 38  1  0
 38 39  2  0
 40 39  1  0
 40 44  1  0
 41 40  2  0
 42 37  2  0
 42 41  1  0
 43 42  1  0
 45 46  1  0
 46 49  1  0
 46 48  1  0
 47 45  2  0
 50 51  1  0
 50 25  1  0
 52 50  1  0
 54 53  2  0
 56 67  2  0
 57 55  1  0
 57 62  1  0
 58 66  1  0
 58 68  1  0
 59 65  1  0
 59 61  1  0
 60 66  1  0
 61 60  1  0
 62 61  2  0
 63 64  1  0
 63 57  2  0
 64 59  2  0
 65 58  1  0
 66 56  1  0
 68 70  2  0
 69 68  1  0
 71 69  1  0
 72 81  2  0
 72 77  1  0
 73 69  1  0
 73 77  1  0
 74 73  1  0
 75 76  1  0
 75 74  1  0
 76 72  1  0
 77 78  2  0
 78 79  1  0
 80 79  2  0
 81 80  1  0
 82 56  1  0
 82 83  1  0
 82 92  1  0
 83 86  1  0
 84 88  1  0
 84 83  1  0
 85 84  2  0
 88 87  1  0
 90 88  1  0
 90 91  1  0
 90 89  1  0
 92 95  1  1
 92 93  1  0
 94 92  1  0
M  ISO  4   5 101  15 100  23 100  55 101
M  END
>  <TORSDO>  (7) 
F 18

>  <SCORE>  (7) 
-15.130

>  <name>  (7) 
6

>  <ligand_id>  (7) 
6

>  <original_smiles>  (7) 
[H]C([H])=C([H])c1c([H])c(N([H])C(=O)N2C([H])([H])C([H])([H])C([H])([H])C([H])(n3nc(-c4c([H])c([H])c(Oc5c([H])c([H])c(F)c([H])c5F)c([H])c4[H])c(C(=O)N([H])[H])c3N([H])[H])C2([H])[H])c([H])c(N2C(=O)C([H])([H])C([H])([H])C([H])(Oc3c([H])c([H])c4c(c3[H])C([H])([H])N(C(=O)C([H])(N([H])C(=O)C([H])(N([H])C([H])([H])[H])C([H])([H])[H])C(C([H])([H])[H])(C([H])([H])[H])C([H])([H])[H])C([H])(C(=O)N([H])C3([H])c5c([H])c([H])c([H])c([H])c5C([H])([H])C([H])([H])C3([H])[H])C4([H])[H])C2([H])[H])c1C([H])([H])[H]

>  <smiles>  (7) 
[H]C([H])=C([H])c1c([H])c(N([H])C(=O)N2C([H])([H])C([H])([H])C([H])([H])C([H])(n3nc(-c4c([H])c([H])c(Oc5c([H])c([H])c(F)c([H])c5F)c([H])c4[H])c(C(=O)N([H])[H])c3N([H])[H])C2([H])[H])c([H])c(N2C(=O)C([H])([H])C([H])([H])C([H])(Oc3c([H])c([H])c4c(c3[H])C([H])([H])N(C(=O)C([H])(N([H])C(=O)C([H])(N([H])C([H])([H])[H])C([H])([H])[H])C(C([H])([H])[H])(C([H])([H])[H])C([H])([H])[H])C([H])(C(=O)N([H])C3([H])c5c([H])c([H])c([H])c([H])c5C([H])([H])C([H])([H])C3([H])[H])C4([H])[H])C2([H])[H])c1C([H])([H])[H]

$$$$
7:0:0
     RDKit          3D

 96104  0  0  1  0  0  0  0  0999 V2000
  -31.8160  -20.5330   21.9460 N   0  0  0  0  0  2  0  0  0  0  0  0
  -31.7380  -21.4390   19.4840 O   0  0  0  0  0  1  0  0  0  0  0  0
  -31.0250  -20.8690   20.6400 S   0  0  1  0  0  0  0  0  0  0  0  0
  -32.5690  -19.8520   21.7880 H   0  0  0  0  0  0  0  0  0  0  0  0
  -28.8340  -18.1230   18.3930 C   0  0  0  0  0  3  0  0  0  0  0  0
  -29.0250  -16.9240   19.0970 C   0  0  0  0  0  3  0  0  0  0  0  0
  -30.2330  -18.1470   20.8200 C   0  0  0  0  0  3  0  0  0  0  0  0
  -29.3800  -19.3390   18.8560 C   0  0  0  0  0  0  0  0  0  0  0  0
  -29.7450  -16.9070   20.3070 C   0  0  0  0  0  0  0  0  0  0  0  0
  -30.0750  -19.3760   20.0980 C   0  0  0  0  0  0  0  0  0  0  0  0
  -29.2450  -20.5270   17.9170 C   0  0  0  0  0  1  0  0  0  0  0  0
  -30.6090  -14.6060   20.4840 C   0  0  0  0  0  0  0  0  0  0  0  0
  -30.3330  -12.4240   19.3580 C   0  0  0  0  0  2  0  0  0  0  0  0
  -29.3880  -12.6200   18.1530 C   0  0  0  0  0  2  0  0  0  0  0  0
  -27.9140  -12.4700   18.5810 C   0  0  0  0  0  2  0  0  0  0  0  0
  -27.5720  -13.2910   19.8520 C   0  0  0  0  0  3  0  0  0  0  0  0
  -28.6360  -13.0950   20.9580 C   0  0  0  0  0  2  0  0  0  0  0  0
  -29.9550  -13.4110   20.3870 N   0  0  0  0  0  0  0  0  0  0  0  0
  -31.7380  -14.7790   20.0220 O   0  0  0  0  0  0  0  0  0  0  0  0
  -29.8980  -15.6450   20.9830 N   0  0  0  0  0  0  0  0  0  0  0  0
  -29.0680  -15.3400   21.4710 H   0  0  0  0  0  0  0  0  0  0  0  0
  -25.1720  -13.8760   20.5670 C   0  0  0  0  0  0  0  0  0  0  0  0
  -24.1110  -13.0940   20.9350 C   0  0  0  0  0  0  0  0  0  0  0  0
  -24.5810  -11.7450   20.9010 C   0  0  0  0  0  0  0  0  0  0  0  0
  -26.2230  -13.0020   20.3320 N   0  0  0  0  0  0  0  0  0  0  0  0
  -25.8710  -11.7160   20.5890 N   0  0  0  0  0  0  0  0  0  0  0  0
  -23.8640  -10.4780   21.0880 C   0  0  0  0  0  0  0  0  0  0  0  0
  -24.3130   -9.5050   22.0070 C   0  0  0  0  0  3  0  0  0  0  0  0
  -23.5980   -8.3010   22.1830 C   0  0  0  0  0  3  0  0  0  0  0  0
  -22.4180   -8.0640   21.4390 C   0  0  0  0  0  0  0  0  0  0  0  0
  -21.9850   -9.0270   20.5110 C   0  0  0  0  0  3  0  0  0  0  0  0
  -22.7020  -10.2210   20.3320 C   0  0  0  0  0  3  0  0  0  0  0  0
  -21.6680   -6.9150   21.5290 O   0  0  0  0  0  0  0  0  0  0  0  0
  -21.6490   -6.1530   22.6700 C   0  0  0  0  0  0  0  0  0  0  0  0
  -21.2540   -6.6870   23.9170 C   0  0  0  0  0  3  0  0  0  0  0  0
  -21.1800   -5.8510   25.0490 C   0  0  0  0  0  3  0  0  0  0  0  0
  -21.4930   -4.4830   24.9360 C   0  0  0  0  0  0  0  0  0  0  0  0
  -21.8800   -3.9480   23.6950 C   0  0  0  0  0  3  0  0  0  0  0  0
  -21.9550   -4.7810   22.5650 C   0  0  0  0  0  0  0  0  0  0  0  0
  -22.3080   -4.2550   21.3670 F   0  0  0  0  0  0  0  0  0  0  0  0
  -21.4150   -3.6790   26.0230 F   0  0  0  0  0  0  0  0  0  0  0  0
  -22.7100  -13.5600   21.2140 C   0  0  0  0  0  0  0  0  0  0  0  0
  -21.9880  -12.8550   22.0800 N   0  0  0  0  0  0  0  0  0  0  0  0
  -22.2630  -14.5840   20.7020 O   0  0  0  0  0  0  0  0  0  0  0  0
  -22.3590  -12.0270   22.5190 H   0  0  0  0  0  0  0  0  0  0  0  0
  -21.0480  -13.1510   22.3060 H   0  0  0  0  0  0  0  0  0  0  0  0
  -25.3300  -15.2490   20.3930 N   0  0  0  0  0  0  0  0  0  0  0  0
  -24.5680  -15.9060   20.5160 H   0  0  0  0  0  0  0  0  0  0  0  0
  -26.1860  -15.6950   20.0900 H   0  0  0  0  0  0  0  0  0  0  0  0
  -29.0200  -22.9180   20.6730 C   0  0  0  0  0  0  0  0  0  0  0  0
  -30.0150  -22.1480   21.3070 N   0  0  0  0  0  0  0  0  0  0  0  0
  -28.0420  -22.3510   20.1820 O   0  0  0  0  0  0  0  0  0  0  0  0
  -30.6260  -22.7080   21.9020 H   0  0  0  0  0  0  0  0  0  0  0  0
  -29.2210  -24.3780   20.6650 C   0  0  0  0  0  3  0  0  0  0  0  0
  -28.2040  -25.2430   20.4080 C   0  0  0  0  0  3  0  0  0  0  0  0
  -28.3260  -26.6330   20.3030 O   0  0  0  0  0  0  0  0  0  0  0  0
  -24.5690  -31.9730   23.2470 C   0  0  0  0  0  0  0  0  0  0  0  0
  -27.1840  -27.4260   20.2440 C   0  0  0  0  0  0  0  0  0  0  0  0
  -23.3620  -30.5650   21.6140 C   0  0  0  0  0  3  0  0  0  0  0  0
  -24.8120  -29.0020   20.2060 C   0  0  0  0  0  0  0  0  0  0  0  0
  -25.8980  -30.8840   21.4380 C   0  0  0  0  0  2  0  0  0  0  0  0
  -25.9730  -29.5040   20.8090 C   0  0  0  0  0  0  0  0  0  0  0  0
  -27.1580  -28.7210   20.8290 C   0  0  0  0  0  3  0  0  0  0  0  0
  -26.0100  -26.9770   19.5930 C   0  0  0  0  0  3  0  0  0  0  0  0
  -24.8290  -27.7400   19.5930 C   0  0  0  0  0  3  0  0  0  0  0  0
  -23.5740  -29.8730   20.2410 C   0  0  0  0  0  2  0  0  0  0  0  0
  -24.6270  -31.1580   22.1550 N   0  0  0  0  0  0  0  0  0  0  0  0
  -23.4860  -32.2600   23.7780 O   0  0  0  0  0  0  0  0  0  0  0  0
  -22.6960  -29.5580   22.5800 C   0  0  0  0  0  0  0  0  0  0  0  0
  -21.3690  -29.3900   22.4530 N   0  0  0  0  0  0  0  0  0  0  0  0
  -23.3710  -28.9310   23.4000 O   0  0  0  0  0  0  0  0  0  0  0  0
  -20.8850  -29.9460   21.7620 H   0  0  0  0  0  0  0  0  0  0  0  0
  -17.9790  -28.2500   22.9720 C   0  0  0  0  0  0  0  0  0  0  0  0
  -20.5410  -28.4670   23.2310 C   0  0  0  0  0  3  0  0  0  0  0  0
  -20.6180  -27.0330   22.6580 C   0  0  0  0  0  2  0  0  0  0  0  0
  -19.5060  -26.7260   21.6500 C   0  0  0  0  0  2  0  0  0  0  0  0
  -18.1300  -26.8970   22.3000 C   0  0  0  0  0  2  0  0  0  0  0  0
  -19.1120  -28.9940   23.3960 C   0  0  0  0  0  0  0  0  0  0  0  0
  -18.9170  -30.2650   23.9830 C   0  0  0  0  0  3  0  0  0  0  0  0
  -17.6220  -30.7870   24.1540 C   0  0  0  0  0  3  0  0  0  0  0  0
  -16.5030  -30.0380   23.7500 C   0  0  0  0  0  3  0  0  0  0  0  0
  -16.6810  -28.7720   23.1630 C   0  0  0  0  0  3  0  0  0  0  0  0
  -25.8550  -32.6020   23.8660 C   0  0  0  0  0  3  0  0  0  0  0  0
  -26.3700  -31.8340   25.1460 C   0  0  1  0  0  0  0  0  0  0  0  0
  -25.2770  -31.6030   26.2150 C   0  0  0  0  0  1  0  0  0  0  0  0
  -26.9490  -30.4530   24.7600 C   0  0  0  0  0  1  0  0  0  0  0  0
  -27.5210  -32.6280   25.8050 C   0  0  0  0  0  1  0  0  0  0  0  0
  -25.5520  -34.0020   24.1890 N   0  0  0  0  0  0  0  0  0  0  0  0
  -25.8910  -35.0510   23.4270 C   0  0  0  0  0  0  0  0  0  0  0  0
  -26.5630  -34.9390   22.3980 O   0  0  0  0  0  0  0  0  0  0  0  0
  -24.9570  -34.1630   24.9890 H   0  0  0  0  0  0  0  0  0  0  0  0
  -24.1740  -36.8510   23.0550 C   0  0  0  0  0  1  0  0  0  0  0  0
  -25.4080  -36.4420   23.8770 C   0  0  0  0  0  3  0  0  0  0  0  0
  -27.5410  -37.3200   24.7190 C   0  0  0  0  0  1  0  0  0  0  0  0
  -26.4460  -37.4900   23.7690 N   0  0  0  0  0  0  0  0  0  0  0  0
  -26.0430  -38.4130   23.9110 H   0  0  0  0  0  0  0  0  0  0  0  0
  3  2  1  6
  3 51  1  0
  3  1  1  0
  4  1  1  0
  5  8  2  0
  5  6  1  0
  6  9  2  0
  8 10  1  0
  9  7  1  0
  9 20  1  0
 10  3  1  0
 10  7  2  0
 11  8  1  0
 12 20  1  0
 13 18  1  0
 14 15  1  0
 14 13  1  0
 16 15  1  0
 16 25  1  0
 16 17  1  0
 18 12  1  0
 18 17  1  0
 19 12  2  0
 20 21  1  0
 22 23  2  0
 23 42  1  0
 24 23  1  0
 24 27  1  0
 25 22  1  0
 25 26  1  0
 26 24  2  0
 27 28  1  0
 28 29  2  0
 30 33  1  0
 30 29  1  0
 31 30  2  0
 32 31  1  0
 32 27  2  0
 33 34  1  0
 34 35  1  0
 35 36  2  0
 37 36  1  0
 37 41  1  0
 38 37  2  0
 39 34  2  0
 39 38  1  0
 40 39  1  0
 42 43  1  0
 43 46  1  0
 43 45  1  0
 44 42  2  0
 47 48  1  0
 47 22  1  0
 49 47  1  0
 50 51  1  0
 51 53  1  0
 52 50  2  0
 54 50  1  0
 55 54  2  0
 56 55  1  0
 57 68  2  0
 58 56  1  0
 58 63  1  0
 59 67  1  0
 59 69  1  0
 60 66  1  0
 60 62  1  0
 61 67  1  0
 62 63  2  0
 62 61  1  0
 64 58  2  0
 65 64  1  0
 65 60  2  0
 66 59  1  0
 67 57  1  0
 69 71  2  0
 70 69  1  0
 72 70  1  0
 73 82  2  0
 73 78  1  0
 74 70  1  0
 74 78  1  0
 75 74  1  0
 76 77  1  0
 76 75  1  0
 77 73  1  0
 78 79  2  0
 79 80  1  0
 81 80  2  0
 82 81  1  0
 83 57  1  0
 83 88  1  0
 83 84  1  0
 84 87  1  1
 84 85  1  0
 86 84  1  0
 88 91  1  0
 89 93  1  0
 89 88  1  0
 90 89  2  0
 93 92  1  0
 95 93  1  0
 95 96  1  0
 95 94  1  0
M  ISO  4  12 100  20 100  55 101  56 101
M  END
>  <TORSDO>  (8) 
F 19

>  <SCORE>  (8) 
-14.628

>  <name>  (8) 
7

>  <ligand_id>  (8) 
7

>  <original_smiles>  (8) 
[H]N=S(=O)(c1c([H])c(N([H])C(=O)N2C([H])([H])C([H])([H])C([H])([H])C([H])(n3nc(-c4c([H])c([H])c(Oc5c([H])c([H])c(F)c([H])c5F)c([H])c4[H])c(C(=O)N([H])[H])c3N([H])[H])C2([H])[H])c([H])c([H])c1C([H])([H])[H])N([H])C(=O)C([H])=C([H])Oc1c([H])c([H])c2c(c1[H])C([H])([H])N(C(=O)C([H])(N([H])C(=O)C([H])(N([H])C([H])([H])[H])C([H])([H])[H])C(C([H])([H])[H])(C([H])([H])[H])C([H])([H])[H])C([H])(C(=O)N([H])C1([H])c3c([H])c([H])c([H])c([H])c3C([H])([H])C([H])([H])C1([H])[H])C2([H])[H]

>  <smiles>  (8) 
[H]N=S(=O)(c1c([H])c(N([H])C(=O)N2C([H])([H])C([H])([H])C([H])([H])C([H])(n3nc(-c4c([H])c([H])c(Oc5c([H])c([H])c(F)c([H])c5F)c([H])c4[H])c(C(=O)N([H])[H])c3N([H])[H])C2([H])[H])c([H])c([H])c1C([H])([H])[H])N([H])C(=O)C([H])=C([H])Oc1c([H])c([H])c2c(c1[H])C([H])([H])N(C(=O)C([H])(N([H])C(=O)C([H])(N([H])C([H])([H])[H])C([H])([H])[H])C(C([H])([H])[H])(C([H])([H])[H])C([H])([H])[H])C([H])(C(=O)N([H])C1([H])c3c([H])c([H])c([H])c([H])c3C([H])([H])C([H])([H])C1([H])[H])C2([H])[H]

$$$$
8:0:0
     RDKit          3D

 93101  0  0  1  0  0  0  0  0999 V2000
  -29.0980  -21.6170   20.2210 C   0  0  0  0  0  0  0  0  0  0  0  0
  -29.5330  -20.8050   21.2170 N   0  0  0  0  0  0  0  0  0  0  0  0
  -28.7740  -21.1900   19.1100 O   0  0  0  0  0  0  0  0  0  0  0  0
  -29.7110  -21.3300   22.0610 H   0  0  0  0  0  0  0  0  0  0  0  0
  -32.2580  -18.3410   21.9060 C   0  0  0  0  0  3  0  0  0  0  0  0
  -31.7190  -17.1190   21.4790 C   0  0  0  0  0  3  0  0  0  0  0  0
  -29.6920  -18.2730   20.7510 C   0  0  0  0  0  3  0  0  0  0  0  0
  -31.5330  -19.5380   21.7650 C   0  0  0  0  0  0  0  0  0  0  0  0
  -30.4370  -17.0460   20.8890 C   0  0  0  0  0  0  0  0  0  0  0  0
  -30.2360  -19.5340   21.1830 C   0  0  0  0  0  0  0  0  0  0  0  0
  -32.1780  -20.8260   22.2670 C   0  0  0  0  0  1  0  0  0  0  0  0
  -30.6110  -14.6450   20.0840 C   0  0  0  0  0  0  0  0  0  0  0  0
  -30.2910  -12.4660   18.9460 C   0  0  0  0  0  2  0  0  0  0  0  0
  -29.2830  -12.6180   17.7870 C   0  0  0  0  0  2  0  0  0  0  0  0
  -27.8400  -12.4460   18.2990 C   0  0  0  0  0  2  0  0  0  0  0  0
  -27.5500  -13.2820   19.5720 C   0  0  0  0  0  3  0  0  0  0  0  0
  -28.6690  -13.1190   20.6250 C   0  0  0  0  0  2  0  0  0  0  0  0
  -29.9370  -13.4620   19.9750 N   0  0  0  0  0  0  0  0  0  0  0  0
  -31.7460  -14.7740   19.6140 O   0  0  0  0  0  0  0  0  0  0  0  0
  -29.9130  -15.7350   20.5320 N   0  0  0  0  0  0  0  0  0  0  0  0
  -28.9240  -15.5910   20.6710 H   0  0  0  0  0  0  0  0  0  0  0  0
  -25.1980  -13.8460   20.4420 C   0  0  0  0  0  0  0  0  0  0  0  0
  -24.1600  -13.0540   20.8510 C   0  0  0  0  0  0  0  0  0  0  0  0
  -24.6310  -11.7090   20.7630 C   0  0  0  0  0  0  0  0  0  0  0  0
  -26.2330  -12.9800   20.1270 N   0  0  0  0  0  0  0  0  0  0  0  0
  -25.9010  -11.6890   20.3810 N   0  0  0  0  0  0  0  0  0  0  0  0
  -23.9260  -10.4360   20.9610 C   0  0  0  0  0  0  0  0  0  0  0  0
  -24.3810   -9.4780   21.8930 C   0  0  0  0  0  3  0  0  0  0  0  0
  -23.6750   -8.2680   22.0780 C   0  0  0  0  0  3  0  0  0  0  0  0
  -22.5000   -8.0100   21.3330 C   0  0  0  0  0  0  0  0  0  0  0  0
  -22.0670   -8.9580   20.3880 C   0  0  0  0  0  3  0  0  0  0  0  0
  -22.7720  -10.1590   20.2020 C   0  0  0  0  0  3  0  0  0  0  0  0
  -21.7640   -6.8540   21.4260 O   0  0  0  0  0  0  0  0  0  0  0  0
  -21.7060   -6.1340   22.5920 C   0  0  0  0  0  0  0  0  0  0  0  0
  -21.2160   -6.6930   23.7920 C   0  0  0  0  0  3  0  0  0  0  0  0
  -21.1080   -5.8950   24.9490 C   0  0  0  0  0  3  0  0  0  0  0  0
  -21.4800   -4.5370   24.9060 C   0  0  0  0  0  0  0  0  0  0  0  0
  -21.9620   -3.9770   23.7100 C   0  0  0  0  0  3  0  0  0  0  0  0
  -22.0720   -4.7720   22.5560 C   0  0  0  0  0  0  0  0  0  0  0  0
  -22.5170   -4.2200   21.4010 F   0  0  0  0  0  0  0  0  0  0  0  0
  -21.3690   -3.7680   26.0150 F   0  0  0  0  0  0  0  0  0  0  0  0
  -22.7760  -13.5140   21.2100 C   0  0  0  0  0  0  0  0  0  0  0  0
  -22.0990  -12.7880   22.0930 N   0  0  0  0  0  0  0  0  0  0  0  0
  -22.3040  -14.5490   20.7420 O   0  0  0  0  0  0  0  0  0  0  0  0
  -22.4920  -11.9490   22.4920 H   0  0  0  0  0  0  0  0  0  0  0  0
  -21.1740  -13.0790   22.3750 H   0  0  0  0  0  0  0  0  0  0  0  0
  -25.3420  -15.2210   20.2860 N   0  0  0  0  0  0  0  0  0  0  0  0
  -24.5790  -15.8670   20.4540 H   0  0  0  0  0  0  0  0  0  0  0  0
  -26.1570  -15.6710   19.8880 H   0  0  0  0  0  0  0  0  0  0  0  0
  -29.0170  -23.1530   20.5480 C   0  0  0  0  0  2  0  0  0  0  0  0
  -27.9760  -24.0690   19.7950 C   0  0  0  0  0  2  0  0  0  0  0  0
  -28.4630  -25.4920   19.3090 C   0  0  0  0  0  2  0  0  0  0  0  0
  -28.3180  -26.6720   20.1580 O   0  0  0  0  0  0  0  0  0  0  0  0
  -24.5920  -31.9850   23.2290 C   0  0  0  0  0  0  0  0  0  0  0  0
  -27.1580  -27.4470   20.1310 C   0  0  0  0  0  0  0  0  0  0  0  0
  -23.3550  -30.5710   21.6210 C   0  0  0  0  0  3  0  0  0  0  0  0
  -24.7800  -29.0140   20.1800 C   0  0  0  0  0  0  0  0  0  0  0  0
  -25.8850  -30.9030   21.3830 C   0  0  0  0  0  2  0  0  0  0  0  0
  -25.9550  -29.5210   20.7480 C   0  0  0  0  0  0  0  0  0  0  0  0
  -27.1430  -28.7420   20.7250 C   0  0  0  0  0  3  0  0  0  0  0  0
  -25.9540  -26.9710   19.5630 C   0  0  0  0  0  3  0  0  0  0  0  0
  -24.7780  -27.7410   19.5860 C   0  0  0  0  0  3  0  0  0  0  0  0
  -23.5430  -29.8860   20.2420 C   0  0  0  0  0  2  0  0  0  0  0  0
  -24.6300  -31.1720   22.1340 N   0  0  0  0  0  0  0  0  0  0  0  0
  -23.5200  -32.2620   23.7870 O   0  0  0  0  0  0  0  0  0  0  0  0
  -22.7180  -29.5580   22.6020 C   0  0  0  0  0  0  0  0  0  0  0  0
  -21.3940  -29.3590   22.4910 N   0  0  0  0  0  0  0  0  0  0  0  0
  -23.4160  -28.9540   23.4210 O   0  0  0  0  0  0  0  0  0  0  0  0
  -20.8930  -29.9030   21.8020 H   0  0  0  0  0  0  0  0  0  0  0  0
  -18.0390  -28.1190   23.0200 C   0  0  0  0  0  0  0  0  0  0  0  0
  -20.5930  -28.4220   23.2810 C   0  0  0  0  0  3  0  0  0  0  0  0
  -20.7160  -26.9800   22.7320 C   0  0  0  0  0  2  0  0  0  0  0  0
  -19.6160  -26.6220   21.7250 C   0  0  0  0  0  2  0  0  0  0  0  0
  -18.2340  -26.7570   22.3710 C   0  0  0  0  0  2  0  0  0  0  0  0
  -19.1460  -28.9060   23.4340 C   0  0  0  0  0  0  0  0  0  0  0  0
  -18.9110  -30.1770   24.0010 C   0  0  0  0  0  3  0  0  0  0  0  0
  -17.6000  -30.6630   24.1570 C   0  0  0  0  0  3  0  0  0  0  0  0
  -16.5050  -29.8740   23.7620 C   0  0  0  0  0  3  0  0  0  0  0  0
  -16.7260  -28.6030   23.2000 C   0  0  0  0  0  3  0  0  0  0  0  0
  -25.8880  -32.6230   23.8190 C   0  0  0  0  0  3  0  0  0  0  0  0
  -26.4440  -31.8480   25.0770 C   0  0  1  0  0  0  0  0  0  0  0  0
  -25.3760  -31.5810   26.1650 C   0  0  0  0  0  1  0  0  0  0  0  0
  -27.0390  -30.4830   24.6590 C   0  0  0  0  0  1  0  0  0  0  0  0
  -27.6000  -32.6530   25.7190 C   0  0  0  0  0  1  0  0  0  0  0  0
  -25.5770  -34.0160   24.1640 N   0  0  0  0  0  0  0  0  0  0  0  0
  -25.8850  -35.0740   23.4000 C   0  0  0  0  0  0  0  0  0  0  0  0
  -26.5310  -34.9780   22.3530 O   0  0  0  0  0  0  0  0  0  0  0  0
  -24.9960  -34.1620   24.9760 H   0  0  0  0  0  0  0  0  0  0  0  0
  -24.1430  -36.8620   23.0910 C   0  0  0  0  0  1  0  0  0  0  0  0
  -25.4030  -36.4580   23.8730 C   0  0  0  0  0  3  0  0  0  0  0  0
  -27.5510  -37.3510   24.6640 C   0  0  0  0  0  1  0  0  0  0  0  0
  -26.4300  -37.5150   23.7420 N   0  0  0  0  0  0  0  0  0  0  0  0
  -26.0250  -38.4330   23.8980 H   0  0  0  0  0  0  0  0  0  0  0  0
  1 50  1  0
  1  2  1  0
  2  4  1  0
  3  1  2  0
  6  5  2  0
  7  9  2  0
  7 10  1  0
  8  5  1  0
  8 11  1  0
  9  6  1  0
 10  2  1  0
 10  8  2  0
 12 20  1  0
 13 18  1  0
 14 15  1  0
 14 13  1  0
 16 15  1  0
 16 25  1  0
 16 17  1  0
 18 12  1  0
 18 17  1  0
 19 12  2  0
 20 21  1  0
 20  9  1  0
 22 23  2  0
 23 42  1  0
 24 23  1  0
 24 27  1  0
 25 26  1  0
 25 22  1  0
 26 24  2  0
 27 28  1  0
 28 29  2  0
 30 33  1  0
 30 29  1  0
 31 30  2  0
 32 31  1  0
 32 27  2  0
 33 34  1  0
 34 35  1  0
 35 36  2  0
 37 36  1  0
 37 41  1  0
 38 37  2  0
 39 34  2  0
 39 38  1  0
 40 39  1  0
 42 43  1  0
 43 46  1  0
 43 45  1  0
 44 42  2  0
 47 22  1  0
 47 48  1  0
 49 47  1  0
 51 50  1  0
 52 51  1  0
 52 53  1  0
 54 65  2  0
 55 53  1  0
 55 60  1  0
 56 64  1  0
 56 66  1  0
 57 63  1  0
 57 59  1  0
 58 64  1  0
 59 58  1  0
 60 59  2  0
 61 62  1  0
 61 55  2  0
 62 57  2  0
 63 56  1  0
 64 54  1  0
 66 68  2  0
 67 66  1  0
 69 67  1  0
 70 79  2  0
 70 75  1  0
 71 67  1  0
 71 75  1  0
 72 71  1  0
 73 74  1  0
 73 72  1  0
 74 70  1  0
 75 76  2  0
 76 77  1  0
 78 77  2  0
 79 78  1  0
 80 54  1  0
 80 85  1  0
 80 81  1  0
 81 84  1  1
 81 82  1  0
 83 81  1  0
 85 88  1  0
 86 90  1  0
 86 85  1  0
 87 86  2  0
 90 89  1  0
 92 90  1  0
 92 93  1  0
 92 91  1  0
M  ISO  4  12 100  20 100  52 101  53 101
M  END
>  <TORSDO>  (9) 
F 20

>  <SCORE>  (9) 
-13.386

>  <name>  (9) 
8

>  <ligand_id>  (9) 
8

>  <original_smiles>  (9) 
[H]c1c([H])c([H])c2c(c1[H])C([H])([H])C([H])([H])C([H])([H])C2([H])N([H])C(=O)C1([H])N(C(=O)C([H])(N([H])C(=O)C([H])(N([H])C([H])([H])[H])C([H])([H])[H])C(C([H])([H])[H])(C([H])([H])[H])C([H])([H])[H])C([H])([H])c2c([H])c(OC([H])([H])C([H])([H])C([H])([H])C(=O)N([H])c3c([H])c(N([H])C(=O)N4C([H])([H])C([H])([H])C([H])([H])C([H])(n5nc(-c6c([H])c([H])c(Oc7c([H])c([H])c(F)c([H])c7F)c([H])c6[H])c(C(=O)N([H])[H])c5N([H])[H])C4([H])[H])c([H])c([H])c3C([H])([H])[H])c([H])c([H])c2C1([H])[H]

>  <smiles>  (9) 
[H]c1c([H])c([H])c2c(c1[H])C([H])([H])C([H])([H])C([H])([H])C2([H])N([H])C(=O)C1([H])N(C(=O)C([H])(N([H])C(=O)C([H])(N([H])C([H])([H])[H])C([H])([H])[H])C(C([H])([H])[H])(C([H])([H])[H])C([H])([H])[H])C([H])([H])c2c([H])c(OC([H])([H])C([H])([H])C([H])([H])C(=O)N([H])c3c([H])c(N([H])C(=O)N4C([H])([H])C([H])([H])C([H])([H])C([H])(n5nc(-c6c([H])c([H])c(Oc7c([H])c([H])c(F)c([H])c7F)c([H])c6[H])c(C(=O)N([H])[H])c5N([H])[H])C4([H])[H])c([H])c([H])c3C([H])([H])[H])c([H])c([H])c2C1([H])[H]

$$$$
9:0:0
     RDKit          3D

 93101  0  0  1  0  0  0  0  0999 V2000
  -29.0550  -21.8640   20.8500 C   0  0  0  0  0  0  0  0  0  0  0  0
  -30.1210  -21.0500   20.9520 N   0  0  0  0  0  0  0  0  0  0  0  0
  -27.9670  -21.5110   20.3920 O   0  0  0  0  0  0  0  0  0  0  0  0
  -30.9310  -21.4650   21.3920 H   0  0  0  0  0  0  0  0  0  0  0  0
  -30.4600  -17.5180   22.0540 C   0  0  0  0  0  3  0  0  0  0  0  0
  -30.4320  -18.9240   22.0450 C   0  0  0  0  0  3  0  0  0  0  0  0
  -29.9410  -17.4990   19.6730 C   0  0  0  0  0  3  0  0  0  0  0  0
  -29.8920  -18.9140   19.6600 C   0  0  0  0  0  0  0  0  0  0  0  0
  -30.2170  -16.7960   20.8700 C   0  0  0  0  0  0  0  0  0  0  0  0
  -30.1210  -19.6320   20.8650 C   0  0  0  0  0  0  0  0  0  0  0  0
  -29.5990  -19.6200   18.3430 C   0  0  0  0  0  1  0  0  0  0  0  0
  -30.7320  -14.4860   20.1320 C   0  0  0  0  0  0  0  0  0  0  0  0
  -30.3720  -12.3760   18.9100 C   0  0  0  0  0  2  0  0  0  0  0  0
  -29.3560  -12.6270   17.7770 C   0  0  0  0  0  2  0  0  0  0  0  0
  -27.9110  -12.4730   18.2880 C   0  0  0  0  0  2  0  0  0  0  0  0
  -27.6540  -13.2660   19.5970 C   0  0  0  0  0  3  0  0  0  0  0  0
  -28.7690  -12.9870   20.6300 C   0  0  0  0  0  2  0  0  0  0  0  0
  -30.0680  -13.3070   20.0080 N   0  0  0  0  0  0  0  0  0  0  0  0
  -31.7750  -14.7450   19.5230 O   0  0  0  0  0  0  0  0  0  0  0  0
  -30.1470  -15.3790   20.9450 N   0  0  0  0  0  0  0  0  0  0  0  0
  -29.4310  -15.0050   21.5490 H   0  0  0  0  0  0  0  0  0  0  0  0
  -25.2990  -13.8580   20.4620 C   0  0  0  0  0  0  0  0  0  0  0  0
  -24.2510  -13.0770   20.8680 C   0  0  0  0  0  0  0  0  0  0  0  0
  -24.7040  -11.7270   20.7680 C   0  0  0  0  0  0  0  0  0  0  0  0
  -26.3270  -12.9830   20.1420 N   0  0  0  0  0  0  0  0  0  0  0  0
  -25.9730  -11.6940   20.3820 N   0  0  0  0  0  0  0  0  0  0  0  0
  -23.9860  -10.4600   20.9620 C   0  0  0  0  0  0  0  0  0  0  0  0
  -24.4330   -9.4930   21.8890 C   0  0  0  0  0  3  0  0  0  0  0  0
  -23.7180   -8.2890   22.0690 C   0  0  0  0  0  3  0  0  0  0  0  0
  -22.5420   -8.0430   21.3210 C   0  0  0  0  0  0  0  0  0  0  0  0
  -22.1150   -9.0000   20.3820 C   0  0  0  0  0  3  0  0  0  0  0  0
  -22.8310  -10.1950   20.2010 C   0  0  0  0  0  3  0  0  0  0  0  0
  -21.7990   -6.8910   21.4100 O   0  0  0  0  0  0  0  0  0  0  0  0
  -21.7060   -6.1820   22.5800 C   0  0  0  0  0  0  0  0  0  0  0  0
  -21.1950   -6.7590   23.7620 C   0  0  0  0  0  3  0  0  0  0  0  0
  -21.0540   -5.9740   24.9230 C   0  0  0  0  0  3  0  0  0  0  0  0
  -21.4140   -4.6130   24.9030 C   0  0  0  0  0  0  0  0  0  0  0  0
  -21.9160   -4.0340   23.7240 C   0  0  0  0  0  3  0  0  0  0  0  0
  -22.0600   -4.8170   22.5650 C   0  0  0  0  0  0  0  0  0  0  0  0
  -22.5250   -4.2520   21.4270 F   0  0  0  0  0  0  0  0  0  0  0  0
  -21.2710   -3.8560   26.0160 F   0  0  0  0  0  0  0  0  0  0  0  0
  -22.8740  -13.5490   21.2380 C   0  0  0  0  0  0  0  0  0  0  0  0
  -22.1940  -12.8260   22.1220 N   0  0  0  0  0  0  0  0  0  0  0  0
  -22.4100  -14.5910   20.7780 O   0  0  0  0  0  0  0  0  0  0  0  0
  -22.5840  -11.9830   22.5180 H   0  0  0  0  0  0  0  0  0  0  0  0
  -21.2730  -13.1240   22.4110 H   0  0  0  0  0  0  0  0  0  0  0  0
  -25.4600  -15.2330   20.3210 N   0  0  0  0  0  0  0  0  0  0  0  0
  -24.7050  -15.8870   20.4990 H   0  0  0  0  0  0  0  0  0  0  0  0
  -26.2990  -15.6820   19.9760 H   0  0  0  0  0  0  0  0  0  0  0  0
  -29.2560  -23.3040   21.3460 C   0  0  0  0  0  2  0  0  0  0  0  0
  -28.6120  -24.3970   20.4650 C   0  0  0  0  0  2  0  0  0  0  0  0
  -28.7140  -25.7880   21.1210 C   0  0  0  0  0  2  0  0  0  0  0  0
  -28.5750  -26.8250   20.1530 O   0  0  0  0  0  0  0  0  0  0  0  0
  -24.6160  -31.9000   23.2010 C   0  0  0  0  0  0  0  0  0  0  0  0
  -27.3860  -27.5080   20.1890 C   0  0  0  0  0  0  0  0  0  0  0  0
  -23.4610  -30.4770   21.5350 C   0  0  0  0  0  3  0  0  0  0  0  0
  -24.9650  -28.9500   20.1530 C   0  0  0  0  0  0  0  0  0  0  0  0
  -25.9800  -30.8780   21.3860 C   0  0  0  0  0  2  0  0  0  0  0  0
  -26.0980  -29.5030   20.7630 C   0  0  0  0  0  0  0  0  0  0  0  0
  -27.3140  -28.7870   20.7800 C   0  0  0  0  0  3  0  0  0  0  0  0
  -26.2410  -26.9550   19.5850 C   0  0  0  0  0  3  0  0  0  0  0  0
  -25.0280  -27.6720   19.5660 C   0  0  0  0  0  3  0  0  0  0  0  0
  -23.7070  -29.7890   20.1650 C   0  0  0  0  0  2  0  0  0  0  0  0
  -24.7020  -31.1000   22.1010 N   0  0  0  0  0  0  0  0  0  0  0  0
  -23.5230  -32.1600   23.7180 O   0  0  0  0  0  0  0  0  0  0  0  0
  -22.8030  -29.4530   22.4870 C   0  0  0  0  0  0  0  0  0  0  0  0
  -21.4790  -29.2750   22.3490 N   0  0  0  0  0  0  0  0  0  0  0  0
  -23.4790  -28.8190   23.3010 O   0  0  0  0  0  0  0  0  0  0  0  0
  -20.9960  -29.8450   21.6690 H   0  0  0  0  0  0  0  0  0  0  0  0
  -18.0950  -28.0990   22.8220 C   0  0  0  0  0  0  0  0  0  0  0  0
  -20.6530  -28.3310   23.1010 C   0  0  0  0  0  3  0  0  0  0  0  0
  -20.7440  -26.9090   22.5000 C   0  0  0  0  0  2  0  0  0  0  0  0
  -19.6430  -26.6130   21.4790 C   0  0  0  0  0  2  0  0  0  0  0  0
  -18.2610  -26.7610   22.1240 C   0  0  0  0  0  2  0  0  0  0  0  0
  -19.2200  -28.8440   23.2660 C   0  0  0  0  0  0  0  0  0  0  0  0
  -19.0120  -30.1000   23.8760 C   0  0  0  0  0  3  0  0  0  0  0  0
  -17.7120  -30.6130   24.0450 C   0  0  0  0  0  3  0  0  0  0  0  0
  -16.6020  -29.8640   23.6170 C   0  0  0  0  0  3  0  0  0  0  0  0
  -16.7950  -28.6080   23.0160 C   0  0  0  0  0  3  0  0  0  0  0  0
  -25.8840  -32.5450   23.8480 C   0  0  0  0  0  3  0  0  0  0  0  0
  -26.3940  -31.7720   25.1240 C   0  0  1  0  0  0  0  0  0  0  0  0
  -25.2870  -31.5070   26.1710 C   0  0  0  0  0  1  0  0  0  0  0  0
  -27.0060  -30.4090   24.7260 C   0  0  0  0  0  1  0  0  0  0  0  0
  -27.5210  -32.5790   25.8130 C   0  0  0  0  0  1  0  0  0  0  0  0
  -25.5480  -33.9360   24.1810 N   0  0  0  0  0  0  0  0  0  0  0  0
  -25.8650  -34.9950   23.4260 C   0  0  0  0  0  0  0  0  0  0  0  0
  -26.5420  -34.9070   22.3960 O   0  0  0  0  0  0  0  0  0  0  0  0
  -24.9500  -34.0760   24.9820 H   0  0  0  0  0  0  0  0  0  0  0  0
  -24.1030  -36.7530   23.0640 C   0  0  0  0  0  1  0  0  0  0  0  0
  -25.3480  -36.3720   23.8820 C   0  0  0  0  0  3  0  0  0  0  0  0
  -27.4590  -37.3000   24.7260 C   0  0  0  0  0  1  0  0  0  0  0  0
  -26.3620  -37.4450   23.7730 N   0  0  0  0  0  0  0  0  0  0  0  0
  -25.9360  -38.3570   23.9160 H   0  0  0  0  0  0  0  0  0  0  0  0
  1  2  1  0
  1 50  1  0
  2  4  1  0
  3  1  2  0
  6  5  1  0
  7  9  1  0
  8  7  2  0
  8 10  1  0
  9 20  1  0
  9  5  2  0
 10  2  1  0
 10  6  2  0
 11  8  1  0
 12 20  1  0
 13 18  1  0
 14 15  1  0
 14 13  1  0
 16 15  1  0
 16 25  1  0
 16 17  1  0
 18 12  1  0
 18 17  1  0
 19 12  2  0
 20 21  1  0
 22 23  2  0
 23 42  1  0
 24 23  1  0
 24 27  1  0
 25 26  1  0
 25 22  1  0
 26 24  2  0
 27 28  1  0
 28 29  2  0
 30 33  1  0
 30 29  1  0
 31 30  2  0
 32 31  1  0
 32 27  2  0
 33 34  1  0
 34 35  1  0
 35 36  2  0
 37 36  1  0
 37 41  1  0
 38 37  2  0
 39 34  2  0
 39 38  1  0
 40 39  1  0
 42 43  1  0
 43 46  1  0
 43 45  1  0
 44 42  2  0
 47 22  1  0
 47 48  1  0
 49 47  1  0
 51 52  1  0
 51 50  1  0
 53 55  1  0
 53 52  1  0
 54 65  2  0
 55 60  1  0
 56 64  1  0
 56 66  1  0
 57 63  1  0
 57 59  1  0
 58 64  1  0
 59 60  2  0
 59 58  1  0
 61 55  2  0
 62 61  1  0
 62 57  2  0
 63 56  1  0
 64 54  1  0
 66 68  2  0
 67 66  1  0
 69 67  1  0
 70 79  2  0
 70 75  1  0
 71 67  1  0
 71 75  1  0
 72 71  1  0
 73 74  1  0
 73 72  1  0
 74 70  1  0
 75 76  2  0
 76 77  1  0
 78 77  2  0
 79 78  1  0
 80 54  1  0
 80 85  1  0
 80 81  1  0
 81 84  1  1
 81 82  1  0
 83 81  1  0
 85 88  1  0
 86 90  1  0
 86 85  1  0
 87 86  2  0
 90 89  1  0
 92 90  1  0
 92 93  1  0
 92 91  1  0
M  ISO  4  12 100  20 100  52 101  53 101
M  END
>  <TORSDO>  (10) 
F 20

>  <SCORE>  (10) 
-13.760

>  <name>  (10) 
9

>  <ligand_id>  (10) 
9

>  <original_smiles>  (10) 
[H]c1c([H])c([H])c2c(c1[H])C([H])([H])C([H])([H])C([H])([H])C2([H])N([H])C(=O)C1([H])N(C(=O)C([H])(N([H])C(=O)C([H])(N([H])C([H])([H])[H])C([H])([H])[H])C(C([H])([H])[H])(C([H])([H])[H])C([H])([H])[H])C([H])([H])c2c([H])c(OC([H])([H])C([H])([H])C([H])([H])C(=O)N([H])c3c([H])c([H])c(N([H])C(=O)N4C([H])([H])C([H])([H])C([H])([H])C([H])(n5nc(-c6c([H])c([H])c(Oc7c([H])c([H])c(F)c([H])c7F)c([H])c6[H])c(C(=O)N([H])[H])c5N([H])[H])C4([H])[H])c([H])c3C([H])([H])[H])c([H])c([H])c2C1([H])[H]

>  <smiles>  (10) 
[H]c1c([H])c([H])c2c(c1[H])C([H])([H])C([H])([H])C([H])([H])C2([H])N([H])C(=O)C1([H])N(C(=O)C([H])(N([H])C(=O)C([H])(N([H])C([H])([H])[H])C([H])([H])[H])C(C([H])([H])[H])(C([H])([H])[H])C([H])([H])[H])C([H])([H])c2c([H])c(OC([H])([H])C([H])([H])C([H])([H])C(=O)N([H])c3c([H])c([H])c(N([H])C(=O)N4C([H])([H])C([H])([H])C([H])([H])C([H])(n5nc(-c6c([H])c([H])c(Oc7c([H])c([H])c(F)c([H])c7F)c([H])c6[H])c(C(=O)N([H])[H])c5N([H])[H])C4([H])[H])c([H])c3C([H])([H])[H])c([H])c([H])c2C1([H])[H]

$$$$
10:0:0
     RDKit          3D

 96105  0  0  1  0  0  0  0  0999 V2000
  -29.4380  -20.1980   18.7430 C   0  0  0  0  0  3  0  0  0  0  0  0
  -29.6820  -20.8380   21.0380 C   0  0  0  0  0  3  0  0  0  0  0  0
  -30.1760  -18.4710   20.3590 C   0  0  0  0  0  0  0  0  0  0  0  0
  -29.8320  -18.8600   19.0330 C   0  0  0  0  0  0  0  0  0  0  0  0
  -29.3250  -21.2340   19.7220 C   0  0  0  0  0  0  0  0  0  0  0  0
  -30.0940  -19.5020   21.3470 C   0  0  0  0  0  0  0  0  0  0  0  0
  -29.9330  -17.8820   17.8700 C   0  0  0  0  0  1  0  0  0  0  0  0
  -30.4240  -19.2240   22.6320 F   0  0  0  0  0  0  0  0  0  0  0  0
  -30.9390  -14.7430   20.0410 C   0  0  0  0  0  0  0  0  0  0  0  0
  -30.5570  -12.5510   18.9300 C   0  0  0  0  0  2  0  0  0  0  0  0
  -29.5480  -12.6950   17.7740 C   0  0  0  0  0  2  0  0  0  0  0  0
  -28.1080  -12.5330   18.2970 C   0  0  0  0  0  2  0  0  0  0  0  0
  -27.8270  -13.3930   19.5580 C   0  0  0  0  0  3  0  0  0  0  0  0
  -28.9550  -13.2610   20.6050 C   0  0  0  0  0  2  0  0  0  0  0  0
  -30.2170  -13.5840   19.9280 N   0  0  0  0  0  0  0  0  0  0  0  0
  -32.1120  -14.7680   19.6610 O   0  0  0  0  0  0  0  0  0  0  0  0
  -30.8390  -17.1100   20.6710 C   0  0  0  0  0  0  0  0  0  0  0  0
  -30.2670  -15.9100   20.3200 N   0  0  0  0  0  0  0  0  0  0  0  0
  -31.9400  -17.1580   21.2330 O   0  0  0  0  0  0  0  0  0  0  0  0
  -29.2700  -15.9060   20.1920 H   0  0  0  0  0  0  0  0  0  0  0  0
  -25.4980  -13.9840   20.4590 C   0  0  0  0  0  0  0  0  0  0  0  0
  -24.4490  -13.2070   20.8680 C   0  0  0  0  0  0  0  0  0  0  0  0
  -24.8920  -11.8540   20.7600 C   0  0  0  0  0  0  0  0  0  0  0  0
  -26.5140  -13.1030   20.1260 N   0  0  0  0  0  0  0  0  0  0  0  0
  -26.1610  -11.8150   20.3700 N   0  0  0  0  0  0  0  0  0  0  0  0
  -24.1650  -10.5930   20.9510 C   0  0  0  0  0  0  0  0  0  0  0  0
  -24.5950   -9.6240   21.8840 C   0  0  0  0  0  3  0  0  0  0  0  0
  -23.8670   -8.4280   22.0610 C   0  0  0  0  0  3  0  0  0  0  0  0
  -22.6940   -8.1920   21.3060 C   0  0  0  0  0  0  0  0  0  0  0  0
  -22.2830   -9.1500   20.3620 C   0  0  0  0  0  3  0  0  0  0  0  0
  -23.0110  -10.3370   20.1820 C   0  0  0  0  0  3  0  0  0  0  0  0
  -21.9370   -7.0490   21.3930 O   0  0  0  0  0  0  0  0  0  0  0  0
  -21.8140   -6.3560   22.5710 C   0  0  0  0  0  0  0  0  0  0  0  0
  -21.2690   -6.9490   23.7320 C   0  0  0  0  0  3  0  0  0  0  0  0
  -21.0960   -6.1800   24.9000 C   0  0  0  0  0  3  0  0  0  0  0  0
  -21.4570   -4.8200   24.9080 C   0  0  0  0  0  0  0  0  0  0  0  0
  -21.9930   -4.2260   23.7520 C   0  0  0  0  0  3  0  0  0  0  0  0
  -22.1670   -4.9920   22.5850 C   0  0  0  0  0  0  0  0  0  0  0  0
  -22.6650   -4.4100   21.4680 F   0  0  0  0  0  0  0  0  0  0  0  0
  -21.2830   -4.0790   26.0280 F   0  0  0  0  0  0  0  0  0  0  0  0
  -23.0770  -13.6890   21.2410 C   0  0  0  0  0  0  0  0  0  0  0  0
  -22.3970  -12.9700   22.1280 N   0  0  0  0  0  0  0  0  0  0  0  0
  -22.6190  -14.7350   20.7830 O   0  0  0  0  0  0  0  0  0  0  0  0
  -22.7820  -12.1230   22.5180 H   0  0  0  0  0  0  0  0  0  0  0  0
  -21.4790  -13.2720   22.4210 H   0  0  0  0  0  0  0  0  0  0  0  0
  -25.6660  -15.3590   20.3180 N   0  0  0  0  0  0  0  0  0  0  0  0
  -24.9090  -16.0110   20.4960 H   0  0  0  0  0  0  0  0  0  0  0  0
  -26.4820  -15.8030   19.9180 H   0  0  0  0  0  0  0  0  0  0  0  0
  -28.0550  -22.7020   18.2380 C   0  0  0  0  0  0  0  0  0  0  0  0
  -27.9110  -24.0430   17.4990 C   0  0  0  0  0  2  0  0  0  0  0  0
  -28.5420  -25.2440   18.2010 C   0  0  0  0  0  2  0  0  0  0  0  0
  -29.1050  -23.8440   20.1810 C   0  0  0  0  0  2  0  0  0  0  0  0
  -28.3040  -25.1460   19.7090 C   0  0  0  0  0  3  0  0  0  0  0  0
  -28.8360  -22.5890   19.3580 N   0  0  0  0  0  0  0  0  0  0  0  0
  -27.4050  -21.7590   17.7720 O   0  0  0  0  0  0  0  0  0  0  0  0
  -28.4510  -26.5150   20.2710 O   0  0  0  0  0  0  0  0  0  0  0  0
  -24.6680  -31.9000   23.2920 C   0  0  0  0  0  0  0  0  0  0  0  0
  -27.3390  -27.3870   20.2030 C   0  0  0  0  0  0  0  0  0  0  0  0
  -23.4940  -30.5170   21.6210 C   0  0  0  0  0  3  0  0  0  0  0  0
  -24.9710  -29.0070   20.1930 C   0  0  0  0  0  0  0  0  0  0  0  0
  -26.0400  -30.8460   21.4830 C   0  0  0  0  0  2  0  0  0  0  0  0
  -26.1330  -29.4780   20.8170 C   0  0  0  0  0  0  0  0  0  0  0  0
  -27.3180  -28.6780   20.8210 C   0  0  0  0  0  3  0  0  0  0  0  0
  -26.1480  -26.9940   19.5400 C   0  0  0  0  0  3  0  0  0  0  0  0
  -24.9810  -27.7690   19.5470 C   0  0  0  0  0  3  0  0  0  0  0  0
  -23.7310  -29.8730   20.2330 C   0  0  0  0  0  2  0  0  0  0  0  0
  -24.7520  -31.1040   22.1880 N   0  0  0  0  0  0  0  0  0  0  0  0
  -23.5750  -32.1650   23.8140 O   0  0  0  0  0  0  0  0  0  0  0  0
  -22.8270  -29.4790   22.5540 C   0  0  0  0  0  0  0  0  0  0  0  0
  -21.5040  -29.2960   22.4090 N   0  0  0  0  0  0  0  0  0  0  0  0
  -23.5000  -28.8420   23.3700 O   0  0  0  0  0  0  0  0  0  0  0  0
  -21.0210  -29.8610   21.7250 H   0  0  0  0  0  0  0  0  0  0  0  0
  -18.1210  -28.1000   22.8720 C   0  0  0  0  0  0  0  0  0  0  0  0
  -20.6790  -28.3470   23.1580 C   0  0  0  0  0  3  0  0  0  0  0  0
  -20.7790  -26.9250   22.5580 C   0  0  0  0  0  2  0  0  0  0  0  0
  -19.6810  -26.6250   21.5330 C   0  0  0  0  0  2  0  0  0  0  0  0
  -18.2960  -26.7620   22.1730 C   0  0  0  0  0  2  0  0  0  0  0  0
  -19.2390  -28.8500   23.3210 C   0  0  0  0  0  0  0  0  0  0  0  0
  -19.0220  -30.1040   23.9340 C   0  0  0  0  0  3  0  0  0  0  0  0
  -17.7170  -30.6050   24.1040 C   0  0  0  0  0  3  0  0  0  0  0  0
  -16.6120  -29.8510   23.6700 C   0  0  0  0  0  3  0  0  0  0  0  0
  -16.8150  -28.6010   23.0600 C   0  0  0  0  0  3  0  0  0  0  0  0
  -25.9380  -32.5330   23.9380 C   0  0  0  0  0  3  0  0  0  0  0  0
  -25.6250  -33.9330   24.2520 N   0  0  0  0  0  0  0  0  0  0  0  0
  -25.9390  -34.9770   23.4760 C   0  0  0  0  0  0  0  0  0  0  0  0
  -26.5960  -34.8650   22.4370 O   0  0  0  0  0  0  0  0  0  0  0  0
  -25.0430  -34.0950   25.0610 H   0  0  0  0  0  0  0  0  0  0  0  0
  -24.1780  -36.7410   23.1380 C   0  0  0  0  0  1  0  0  0  0  0  0
  -25.4480  -36.3680   23.9210 C   0  0  0  0  0  3  0  0  0  0  0  0
  -27.5880  -37.2990   24.6790 C   0  0  0  0  0  1  0  0  0  0  0  0
  -26.4630  -37.4310   23.7580 N   0  0  0  0  0  0  0  0  0  0  0  0
  -26.0470  -38.3490   23.8940 H   0  0  0  0  0  0  0  0  0  0  0  0
  -26.4240  -31.7670   25.2300 C   0  0  1  0  0  0  0  0  0  0  0  0
  -25.3040  -31.5320   26.2700 C   0  0  0  0  0  1  0  0  0  0  0  0
  -27.0190  -30.3890   24.8610 C   0  0  0  0  0  1  0  0  0  0  0  0
  -27.5550  -32.5670   25.9170 C   0  0  0  0  0  1  0  0  0  0  0  0
  1  4  2  0
  1  5  1  0
  2  6  1  0
  3 17  1  0
  3  6  2  0
  4  3  1  0
  5  2  2  0
  6  8  1  0
  7  4  1  0
  9 18  1  0
 10 15  1  0
 11 12  1  0
 11 10  1  0
 13 12  1  0
 13 24  1  0
 13 14  1  0
 15  9  1  0
 15 14  1  0
 16  9  2  0
 17 19  2  0
 18 17  1  0
 20 18  1  0
 21 22  2  0
 22 41  1  0
 23 22  1  0
 23 26  1  0
 24 25  1  0
 24 21  1  0
 25 23  2  0
 26 27  1  0
 27 28  2  0
 29 32  1  0
 29 28  1  0
 30 29  2  0
 31 30  1  0
 31 26  2  0
 32 33  1  0
 33 38  2  0
 33 34  1  0
 34 35  2  0
 35 36  1  0
 36 40  1  0
 37 36  2  0
 38 37  1  0
 39 38  1  0
 41 42  1  0
 42 45  1  0
 42 44  1  0
 43 41  2  0
 46 21  1  0
 46 47  1  0
 48 46  1  0
 49 54  1  0
 50 51  1  0
 50 49  1  0
 51 53  1  0
 53 52  1  0
 53 56  1  0
 54  5  1  0
 54 52  1  0
 55 49  2  0
 57 68  2  0
 58 56  1  0
 58 63  1  0
 59 67  1  0
 59 69  1  0
 60 66  1  0
 60 62  1  0
 61 67  1  0
 62 63  2  0
 62 61  1  0
 64 65  1  0
 64 58  2  0
 65 60  2  0
 66 59  1  0
 67 57  1  0
 69 71  2  0
 70 69  1  0
 72 70  1  0
 73 82  2  0
 73 78  1  0
 74 70  1  0
 74 78  1  0
 75 74  1  0
 76 77  1  0
 76 75  1  0
 77 73  1  0
 78 79  2  0
 79 80  1  0
 81 80  2  0
 82 81  1  0
 83 57  1  0
 83 84  1  0
 83 93  1  0
 84 87  1  0
 85 89  1  0
 85 84  1  0
 86 85  2  0
 89 88  1  0
 91 92  1  0
 91 89  1  0
 91 90  1  0
 93 96  1  1
 93 94  1  0
 95 93  1  0
M  ISO  4   9 100  18 100  53 101  56 101
M  END
>  <TORSDO>  (11) 
F 17

>  <SCORE>  (11) 
-15.010

>  <name>  (11) 
10

>  <ligand_id>  (11) 
10

>  <original_smiles>  (11) 
[H]c1c([H])c([H])c2c(c1[H])C([H])([H])C([H])([H])C([H])([H])C2([H])N([H])C(=O)C1([H])N(C(=O)C([H])(N([H])C(=O)C([H])(N([H])C([H])([H])[H])C([H])([H])[H])C(C([H])([H])[H])(C([H])([H])[H])C([H])([H])[H])C([H])([H])c2c([H])c(OC3([H])C([H])([H])N(c4c([H])c(F)c(C(=O)N([H])C(=O)N5C([H])([H])C([H])([H])C([H])([H])C([H])(n6nc(-c7c([H])c([H])c(Oc8c([H])c([H])c(F)c([H])c8F)c([H])c7[H])c(C(=O)N([H])[H])c6N([H])[H])C5([H])[H])c(C([H])([H])[H])c4[H])C(=O)C([H])([H])C3([H])[H])c([H])c([H])c2C1([H])[H]

>  <smiles>  (11) 
[H]c1c([H])c([H])c2c(c1[H])C([H])([H])C([H])([H])C([H])([H])C2([H])N([H])C(=O)C1([H])N(C(=O)C([H])(N([H])C(=O)C([H])(N([H])C([H])([H])[H])C([H])([H])[H])C(C([H])([H])[H])(C([H])([H])[H])C([H])([H])[H])C([H])([H])c2c([H])c(OC3([H])C([H])([H])N(c4c([H])c(F)c(C(=O)N([H])C(=O)N5C([H])([H])C([H])([H])C([H])([H])C([H])(n6nc(-c7c([H])c([H])c(Oc8c([H])c([H])c(F)c([H])c8F)c([H])c7[H])c(C(=O)N([H])[H])c6N([H])[H])C5([H])[H])c(C([H])([H])[H])c4[H])C(=O)C([H])([H])C3([H])[H])c([H])c([H])c2C1([H])[H]

$$$$
11:0:0
     RDKit          3D

 92 94  0  0  1  0  0  0  0  0999 V2000
  -27.1500  -22.0990   18.0600 C   0  0  0  0  0  0  0  0  0  0  0  0
  -26.3930  -22.8360   19.3290 N   0  0  1  0  0  4  0  0  0  0  0  0
  -26.6090  -21.2850   17.3250 O   0  0  0  0  0  0  0  0  0  0  0  0
  -25.4190  -22.5740   19.3000 H   0  0  0  0  0  0  0  0  0  0  0  0
  -26.7620  -27.2850   18.6560 C   0  0  0  0  0  1  0  0  0  0  0  0
  -26.1440  -26.0020   20.8730 C   0  0  0  0  0 15  0  0  0  0  0  0
  -27.7030  -24.4990   18.1820 C   0  0  0  0  0  1  0  0  0  0  0  0
  -27.8250  -23.3790   19.8760 C   0  0  0  0  0  2  0  0  0  0  0  0
  -27.4810  -26.1390   17.6010 C   0  0  0  0  0  3  0  0  0  0  0  0
  -26.6560  -24.0980   20.5910 C   0  0  0  0  0  2  0  0  0  0  0  0
  -27.6010  -26.5930   16.1550 C   0  0  0  0  0  1  0  0  0  0  0  0
  -28.7010  -21.0330   20.3090 C   0  0  0  0  0  1  0  0  0  0  0  0
  -28.8090  -19.1830   20.4050 N   0  0  0  0  0  1  0  0  0  0  0  0
  -29.7280  -17.3240   20.5710 C   0  0  0  0  0  2  0  0  0  0  0  0
  -30.4490  -14.3900   20.0630 C   0  0  0  0  0  2  0  0  0  0  0  0
  -29.9370  -13.2950   18.9960 C   0  0  0  0  0  2  0  0  0  0  0  0
  -28.6580  -12.5840   19.4300 C   0  0  0  0  0  2  0  0  0  0  0  0
  -27.8070  -13.6350   20.1450 C   0  0  0  0  0  3  0  0  0  0  0  0
  -28.5420  -14.6010   21.1790 C   0  0  0  0  0  2  0  0  0  0  0  0
  -29.4900  -15.6620   20.5300 N   0  0  0  0  0  0  0  0  0  0  0  0
  -30.9850  -17.0570   20.6640 O   0  0  0  0  0  1  0  0  0  0  0  0
  -25.3950  -13.9540   20.7140 C   0  0  0  0  0  0  0  0  0  0  0  0
  -24.3480  -13.1280   20.9890 C   0  0  0  0  0  0  0  0  0  0  0  0
  -24.8800  -11.7990   21.0140 C   0  0  0  0  0  0  0  0  0  0  0  0
  -26.5040  -13.1490   20.5930 N   0  0  0  0  0  0  0  0  0  0  0  0
  -26.2040  -11.8330   20.8160 N   0  0  0  0  0  0  0  0  0  0  0  0
  -24.1640  -10.5150   21.1520 C   0  0  0  0  0  0  0  0  0  0  0  0
  -24.5120   -9.5650   22.1390 C   0  0  0  0  0  3  0  0  0  0  0  0
  -23.7810   -8.3630   22.2720 C   0  0  0  0  0  3  0  0  0  0  0  0
  -22.6840   -8.0970   21.4170 C   0  0  0  0  0  0  0  0  0  0  0  0
  -22.3530   -9.0340   20.4220 C   0  0  0  0  0  3  0  0  0  0  0  0
  -23.0860  -10.2260   20.2890 C   0  0  0  0  0  3  0  0  0  0  0  0
  -21.9350   -6.9440   21.4550 O   0  0  0  0  0  0  0  0  0  0  0  0
  -21.7850   -6.2150   22.6080 C   0  0  0  0  0  0  0  0  0  0  0  0
  -21.2180   -6.7750   23.7740 C   0  0  0  0  0  3  0  0  0  0  0  0
  -21.0190   -5.9720   24.9160 C   0  0  0  0  0  3  0  0  0  0  0  0
  -21.3770   -4.6110   24.8920 C   0  0  0  0  0  0  0  0  0  0  0  0
  -21.9360   -4.0500   23.7300 C   0  0  0  0  0  3  0  0  0  0  0  0
  -22.1360   -4.8490   22.5910 C   0  0  0  0  0  0  0  0  0  0  0  0
  -22.6550   -4.2980   21.4670 F   0  0  0  0  0  0  0  0  0  0  0  0
  -21.1800   -3.8390   25.9860 F   0  0  0  0  0  0  0  0  0  0  0  0
  -22.9190  -13.5590   21.1100 C   0  0  0  0  0  0  0  0  0  0  0  0
  -22.1370  -12.8660   21.9270 N   0  0  0  0  0  0  0  0  0  0  0  0
  -22.5050  -14.5550   20.5180 O   0  0  0  0  0  0  0  0  0  0  0  0
  -22.4920  -12.0650   22.4290 H   0  0  0  0  0  0  0  0  0  0  0  0
  -21.1710  -13.1350   22.0510 H   0  0  0  0  0  0  0  0  0  0  0  0
  -25.4930  -15.3260   20.5110 N   0  0  0  0  0  0  0  0  0  0  0  0
  -24.6830  -15.9350   20.5260 H   0  0  0  0  0  0  0  0  0  0  0  0
  -26.3510  -15.8100   20.2740 H   0  0  0  0  0  0  0  0  0  0  0  0
  -28.9130  -22.7000   17.6980 C   0  0  0  0  0  1  0  0  0  0  0  0
  -29.8360  -24.2240   18.5520 C   0  0  0  0  0  1  0  0  0  0  0  0
  -29.2330  -25.5980   19.5120 O   0  0  0  0  0  0  0  0  0  0  0  0
  -24.6640  -31.8000   23.0620 C   0  0  0  0  0  0  0  0  0  0  0  0
  -27.8730  -26.1950   19.8680 C   0  0  0  0  0  3  0  0  0  0  0  0
  -23.5010  -30.3460   21.4590 C   0  0  0  0  0  3  0  0  0  0  0  0
  -24.7600  -28.2860   20.1880 C   0  0  0  0  0  0  0  0  0  0  0  0
  -26.0740  -30.2720   21.3860 C   0  0  0  0  0  2  0  0  0  0  0  0
  -26.1760  -28.6820   20.8880 C   0  0  0  0  0  0  0  0  0  0  0  0
  -27.6330  -27.7490   20.8300 C   0  0  0  0  0  3  0  0  0  0  0  0
  -25.5050  -25.6920   18.7650 C   0  0  0  0  0  1  0  0  0  0  0  0
  -24.3910  -26.9550   19.2440 C   0  0  0  0  0  2  0  0  0  0  0  0
  -23.7300  -29.4930   20.1590 C   0  0  0  0  0  2  0  0  0  0  0  0
  -24.7890  -30.8550   22.0290 N   0  0  0  0  0  0  0  0  0  0  0  0
  -23.5600  -32.1300   23.5330 O   0  0  0  0  0  0  0  0  0  0  0  0
  -22.7270  -29.4620   22.4560 C   0  0  0  0  0  0  0  0  0  0  0  0
  -21.3910  -29.3670   22.3340 N   0  0  0  0  0  0  0  0  0  0  0  0
  -23.3570  -28.8300   23.3030 O   0  0  0  0  0  0  0  0  0  0  0  0
  -20.9430  -29.9210   21.6220 H   0  0  0  0  0  0  0  0  0  0  0  0
  -17.9790  -28.1730   22.8410 C   0  0  0  0  0  0  0  0  0  0  0  0
  -20.5470  -28.4190   23.0720 C   0  0  0  0  0  3  0  0  0  0  0  0
  -20.6290  -27.0060   22.4470 C   0  0  0  0  0  2  0  0  0  0  0  0
  -19.5090  -26.7250   21.4400 C   0  0  0  0  0  2  0  0  0  0  0  0
  -18.1390  -26.8500   22.1090 C   0  0  0  0  0  2  0  0  0  0  0  0
  -19.1100  -28.9190   23.2730 C   0  0  0  0  0  0  0  0  0  0  0  0
  -18.9030  -30.1530   23.9270 C   0  0  0  0  0  3  0  0  0  0  0  0
  -17.6010  -30.6450   24.1470 C   0  0  0  0  0  3  0  0  0  0  0  0
  -16.4870  -29.8980   23.7290 C   0  0  0  0  0  3  0  0  0  0  0  0
  -16.6760  -28.6640   23.0820 C   0  0  0  0  0  3  0  0  0  0  0  0
  -25.8860  -32.5150   23.7290 C   0  0  0  0  0  3  0  0  0  0  0  0
  -26.3540  -31.7900   25.0510 C   0  0  1  0  0  0  0  0  0  0  0  0
  -25.2250  -31.5730   26.0910 C   0  0  0  0  0  1  0  0  0  0  0  0
  -26.9540  -30.4090   24.7290 C   0  0  0  0  0  1  0  0  0  0  0  0
  -27.4820  -32.6050   25.7350 C   0  0  0  0  0  1  0  0  0  0  0  0
  -25.5290  -33.9230   24.0670 N   0  0  0  0  0  0  0  0  0  0  0  0
  -25.8950  -35.0160   23.3780 C   0  0  0  0  0  0  0  0  0  0  0  0
  -26.5970  -34.9450   22.3670 O   0  0  0  0  0  0  0  0  0  0  0  0
  -24.9010  -34.0490   24.8490 H   0  0  0  0  0  0  0  0  0  0  0  0
  -24.1920  -36.8510   23.0450 C   0  0  0  0  0  1  0  0  0  0  0  0
  -25.4120  -36.4050   23.8690 C   0  0  0  0  0  3  0  0  0  0  0  0
  -27.5310  -37.2530   24.7770 C   0  0  0  0  0  1  0  0  0  0  0  0
  -26.4560  -37.4550   23.8100 N   0  0  0  0  0  0  0  0  0  0  0  0
  -26.0550  -38.3740   23.9780 H   0  0  0  0  0  0  0  0  0  0  0  0
  1  2  1  0
  2  8  1  0
  2 10  1  0
  3  1  2  0
  2  4  1  1
  8 10  1  0
  9  7  1  0
  9  5  1  0
 11  9  1  0
 12 13  1  0
 14 21  1  0
 15 20  1  0
 16 17  1  0
 16 15  1  0
 18 17  1  0
 18 25  1  0
 18 19  1  0
 20 14  1  0
 20 19  1  0
 22 23  2  0
 23 24  1  0
 23 42  1  0
 24 27  1  0
 25 22  1  0
 25 26  1  0
 26 24  2  0
 27 28  1  0
 28 29  2  0
 30 33  1  0
 30 29  1  0
 31 30  2  0
 32 31  1  0
 32 27  2  0
 33 34  1  0
 34 35  1  0
 35 36  2  0
 37 36  1  0
 37 41  1  0
 38 37  2  0
 39 34  2  0
 39 38  1  0
 40 39  1  0
 42 43  1  0
 43 46  1  0
 43 45  1  0
 44 42  2  0
 47 48  1  0
 47 22  1  0
 49 47  1  0
 50  1  1  0
 51 52  1  0
 52 54  1  0
 53 64  2  0
 54 59  2  0
 55 63  1  0
 55 65  1  0
 56 58  2  0
 57 63  1  0
 58 57  1  0
 59 58  1  0
 60 61  1  0
 61 56  1  0
 62 56  1  0
 62 55  1  0
 63 53  1  0
 65 67  2  0
 66 65  1  0
 68 66  1  0
 69 78  2  0
 69 74  1  0
 70 66  1  0
 70 74  1  0
 71 70  1  0
 72 73  1  0
 72 71  1  0
 73 69  1  0
 74 75  2  0
 75 76  1  0
 77 76  2  0
 78 77  1  0
 79 53  1  0
 79 84  1  0
 79 80  1  0
 80 83  1  1
 80 81  1  0
 82 80  1  0
 84 87  1  0
 85 89  1  0
 85 84  1  0
 86 85  2  0
 89 88  1  0
 91 89  1  0
 91 92  1  0
 91 90  1  0
M  ISO  4  13 100  14 100  51 101  52 101
M  END
>  <TORSDO>  (12) 
F 20

>  <SCORE>  (12) 
-16.526

>  <name>  (12) 
11

>  <ligand_id>  (12) 
11

>  <original_smiles>  (12) 
[H]C(=NC(=O)N1C([H])([H])C([H])([H])C([H])([H])C([H])(n2nc(-c3c([H])c([H])c(Oc4c([H])c([H])c(F)c([H])c4F)c([H])c3[H])c(C(=O)N([H])[H])c2N([H])[H])C1([H])[H])c1c([H])c(C([H])([H])[H])c([H])c([H])c1N([H])C(=O)C([H])([H])C([H])([H])Oc1c([H])c([H])c2c(c1[H])C([H])([H])N(C(=O)C([H])(N([H])C(=O)C([H])(N([H])C([H])([H])[H])C([H])([H])[H])C(C([H])([H])[H])(C([H])([H])[H])C([H])([H])[H])C([H])(C(=O)N([H])C1([H])c3c([H])c([H])c([H])c([H])c3C([H])([H])C([H])([H])C1([H])[H])C2([H])[H]

>  <smiles>  (12) 
[H]C(=NC(=O)N1C([H])([H])C([H])([H])C([H])([H])C([H])(n2nc(-c3c([H])c([H])c(Oc4c([H])c([H])c(F)c([H])c4F)c([H])c3[H])c(C(=O)N([H])[H])c2N([H])[H])C1([H])[H])c1c([H])c(C([H])([H])[H])c([H])c([H])c1N([H])C(=O)C([H])([H])C([H])([H])Oc1c([H])c([H])c2c(c1[H])C([H])([H])N(C(=O)C([H])(N([H])C(=O)C([H])(N([H])C([H])([H])[H])C([H])([H])[H])C(C([H])([H])[H])(C([H])([H])[H])C([H])([H])[H])C([H])(C(=O)N([H])C1([H])c3c([H])c([H])c([H])c([H])c3C([H])([H])C([H])([H])C1([H])[H])C2([H])[H]

$$$$
12:0:0
     RDKit          3D

 93101  0  0  1  0  0  0  0  0999 V2000
  -29.9590  -22.0720   22.2760 O   0  0  0  0  0  0  0  0  0  0  0  0
  -31.9460  -22.2920   20.7070 O   0  0  0  0  0  0  0  0  0  0  0  0
  -30.5220  -21.9960   20.9170 S   0  0  1  0  0  0  0  0  0  0  0  0
  -30.3040  -20.3410   20.4180 N   0  0  0  0  0  0  0  0  0  0  0  0
  -29.8710  -20.2180   19.5120 H   0  0  0  0  0  0  0  0  0  0  0  0
  -31.3960  -18.0870   23.1980 C   0  0  0  0  0  3  0  0  0  0  0  0
  -30.9410  -16.8370   22.7430 C   0  0  0  0  0  3  0  0  0  0  0  0
  -31.2050  -19.2390   22.4110 C   0  0  0  0  0  3  0  0  0  0  0  0
  -30.1180  -17.8950   20.6990 C   0  0  0  0  0  3  0  0  0  0  0  0
  -30.3170  -16.7290   21.4860 C   0  0  0  0  0  0  0  0  0  0  0  0
  -30.5470  -19.1690   21.1620 C   0  0  0  0  0  0  0  0  0  0  0  0
  -30.4680  -14.5410   20.3570 C   0  0  0  0  0  0  0  0  0  0  0  0
  -30.1560  -12.4420   19.0930 C   0  0  0  0  0  2  0  0  0  0  0  0
  -29.1730  -12.6910   17.9330 C   0  0  0  0  0  2  0  0  0  0  0  0
  -27.7190  -12.4970   18.4070 C   0  0  0  0  0  2  0  0  0  0  0  0
  -27.4090  -13.2640   19.7190 C   0  0  0  0  0  3  0  0  0  0  0  0
  -28.5050  -13.0110   20.7810 C   0  0  0  0  0  2  0  0  0  0  0  0
  -29.8040  -13.3670   20.1800 N   0  0  0  0  0  0  0  0  0  0  0  0
  -31.5420  -14.7940   19.8070 O   0  0  0  0  0  0  0  0  0  0  0  0
  -29.8090  -15.4650   21.0800 N   0  0  0  0  0  0  0  0  0  0  0  0
  -28.9180  -15.1810   21.4590 H   0  0  0  0  0  0  0  0  0  0  0  0
  -25.0030  -13.7830   20.4690 C   0  0  0  0  0  0  0  0  0  0  0  0
  -23.9700  -12.9750   20.8590 C   0  0  0  0  0  0  0  0  0  0  0  0
  -24.4790  -11.6400   20.8220 C   0  0  0  0  0  0  0  0  0  0  0  0
  -26.0760  -12.9400   20.2210 N   0  0  0  0  0  0  0  0  0  0  0  0
  -25.7640  -11.6470   20.4890 N   0  0  0  0  0  0  0  0  0  0  0  0
  -23.8040  -10.3520   21.0280 C   0  0  0  0  0  0  0  0  0  0  0  0
  -24.2780   -9.4130   21.9730 C   0  0  0  0  0  3  0  0  0  0  0  0
  -23.6010   -8.1890   22.1670 C   0  0  0  0  0  3  0  0  0  0  0  0
  -22.4380   -7.8940   21.4150 C   0  0  0  0  0  0  0  0  0  0  0  0
  -21.9870   -8.8200   20.4580 C   0  0  0  0  0  3  0  0  0  0  0  0
  -22.6640  -10.0350   20.2620 C   0  0  0  0  0  3  0  0  0  0  0  0
  -21.7360   -6.7180   21.5160 O   0  0  0  0  0  0  0  0  0  0  0  0
  -21.7080   -5.9930   22.6800 C   0  0  0  0  0  0  0  0  0  0  0  0
  -21.2440   -6.5500   23.8920 C   0  0  0  0  0  3  0  0  0  0  0  0
  -21.1680   -5.7510   25.0500 C   0  0  0  0  0  3  0  0  0  0  0  0
  -21.5440   -4.3960   24.9980 C   0  0  0  0  0  0  0  0  0  0  0  0
  -21.9970   -3.8380   23.7910 C   0  0  0  0  0  3  0  0  0  0  0  0
  -22.0770   -4.6330   22.6350 C   0  0  0  0  0  0  0  0  0  0  0  0
  -22.4970   -4.0860   21.4690 F   0  0  0  0  0  0  0  0  0  0  0  0
  -21.4620   -3.6250   26.1090 F   0  0  0  0  0  0  0  0  0  0  0  0
  -22.5610  -13.4000   21.1590 C   0  0  0  0  0  0  0  0  0  0  0  0
  -21.8760  -12.6820   22.0430 N   0  0  0  0  0  0  0  0  0  0  0  0
  -22.0730  -14.4040   20.6450 O   0  0  0  0  0  0  0  0  0  0  0  0
  -22.2820  -11.8680   22.4830 H   0  0  0  0  0  0  0  0  0  0  0  0
  -20.9310  -12.9520   22.2840 H   0  0  0  0  0  0  0  0  0  0  0  0
  -25.1160  -15.1580   20.2830 N   0  0  0  0  0  0  0  0  0  0  0  0
  -24.3350  -15.7930   20.4120 H   0  0  0  0  0  0  0  0  0  0  0  0
  -25.9430  -15.6200   19.9300 H   0  0  0  0  0  0  0  0  0  0  0  0
  -29.5080  -23.0440   19.7730 C   0  0  0  0  0  2  0  0  0  0  0  0
  -29.3870  -24.5320   20.2600 C   0  0  0  0  0  2  0  0  0  0  0  0
  -28.1240  -25.4050   20.5780 C   0  0  0  0  0  2  0  0  0  0  0  0
  -28.2480  -26.7590   20.0930 O   0  0  0  0  0  0  0  0  0  0  0  0
  -24.5150  -31.9740   23.2390 C   0  0  0  0  0  0  0  0  0  0  0  0
  -27.0910  -27.5120   20.1180 C   0  0  0  0  0  0  0  0  0  0  0  0
  -23.2820  -30.5800   21.6130 C   0  0  0  0  0  3  0  0  0  0  0  0
  -24.7080  -29.0420   20.1640 C   0  0  0  0  0  0  0  0  0  0  0  0
  -25.8070  -30.9260   21.3790 C   0  0  0  0  0  2  0  0  0  0  0  0
  -25.8770  -29.5550   20.7350 C   0  0  0  0  0  0  0  0  0  0  0  0
  -27.0750  -28.8010   20.7030 C   0  0  0  0  0  3  0  0  0  0  0  0
  -25.9000  -27.0200   19.5370 C   0  0  0  0  0  3  0  0  0  0  0  0
  -24.7140  -27.7750   19.5590 C   0  0  0  0  0  3  0  0  0  0  0  0
  -23.4720  -29.9120   20.2260 C   0  0  0  0  0  2  0  0  0  0  0  0
  -24.5540  -31.1750   22.1350 N   0  0  0  0  0  0  0  0  0  0  0  0
  -23.4400  -32.2510   23.7900 O   0  0  0  0  0  0  0  0  0  0  0  0
  -22.6360  -29.5590   22.5770 C   0  0  0  0  0  0  0  0  0  0  0  0
  -21.3150  -29.3520   22.4370 N   0  0  0  0  0  0  0  0  0  0  0  0
  -23.3190  -28.9540   23.4080 O   0  0  0  0  0  0  0  0  0  0  0  0
  -20.8230  -29.8940   21.7390 H   0  0  0  0  0  0  0  0  0  0  0  0
  -17.9580  -28.0900   22.8930 C   0  0  0  0  0  0  0  0  0  0  0  0
  -20.5030  -28.4140   23.2120 C   0  0  0  0  0  3  0  0  0  0  0  0
  -20.6520  -26.9740   22.6720 C   0  0  0  0  0  2  0  0  0  0  0  0
  -19.5790  -26.6030   21.6430 C   0  0  0  0  0  2  0  0  0  0  0  0
  -18.1810  -26.7300   22.2540 C   0  0  0  0  0  2  0  0  0  0  0  0
  -19.0500  -28.8870   23.3290 C   0  0  0  0  0  0  0  0  0  0  0  0
  -18.7880  -30.1600   23.8830 C   0  0  0  0  0  3  0  0  0  0  0  0
  -17.4680  -30.6340   24.0080 C   0  0  0  0  0  3  0  0  0  0  0  0
  -16.3920  -29.8340   23.5890 C   0  0  0  0  0  3  0  0  0  0  0  0
  -16.6370  -28.5640   23.0370 C   0  0  0  0  0  3  0  0  0  0  0  0
  -25.8100  -32.6000   23.8420 C   0  0  0  0  0  3  0  0  0  0  0  0
  -25.5100  -33.9990   24.1770 N   0  0  0  0  0  0  0  0  0  0  0  0
  -25.8410  -35.0500   23.4150 C   0  0  0  0  0  0  0  0  0  0  0  0
  -26.5040  -34.9440   22.3800 O   0  0  0  0  0  0  0  0  0  0  0  0
  -24.9250  -34.1570   24.9830 H   0  0  0  0  0  0  0  0  0  0  0  0
  -24.1250  -36.8520   23.0630 C   0  0  0  0  0  1  0  0  0  0  0  0
  -25.3620  -36.4390   23.8750 C   0  0  0  0  0  3  0  0  0  0  0  0
  -27.5040  -37.3040   24.7090 C   0  0  0  0  0  1  0  0  0  0  0  0
  -26.4030  -37.4860   23.7690 N   0  0  0  0  0  0  0  0  0  0  0  0
  -26.0020  -38.4070   23.9250 H   0  0  0  0  0  0  0  0  0  0  0  0
  -26.3450  -31.8230   25.1060 C   0  0  1  0  0  0  0  0  0  0  0  0
  -25.2670  -31.5740   26.1870 C   0  0  0  0  0  1  0  0  0  0  0  0
  -26.9260  -30.4490   24.6970 C   0  0  0  0  0  1  0  0  0  0  0  0
  -27.5040  -32.6150   25.7570 C   0  0  0  0  0  1  0  0  0  0  0  0
  2  3  2  0
  3  1  2  0
  4  3  1  0
  4 11  1  0
  5  4  1  0
  7  6  1  0
  8  6  2  0
  9 11  2  0
  9 10  1  0
 10  7  2  0
 11  8  1  0
 12 20  1  0
 13 18  1  0
 14 15  1  0
 14 13  1  0
 16 15  1  0
 16 25  1  0
 16 17  1  0
 18 12  1  0
 18 17  1  0
 19 12  2  0
 20 21  1  0
 20 10  1  0
 22 23  2  0
 23 42  1  0
 24 23  1  0
 24 27  1  0
 25 22  1  0
 25 26  1  0
 26 24  2  0
 27 28  1  0
 28 29  2  0
 30 33  1  0
 30 29  1  0
 31 30  2  0
 32 31  1  0
 32 27  2  0
 33 34  1  0
 34 35  1  0
 35 36  2  0
 37 36  1  0
 37 41  1  0
 38 37  2  0
 39 34  2  0
 39 38  1  0
 40 39  1  0
 42 43  1  0
 43 46  1  0
 43 45  1  0
 44 42  2  0
 47 48  1  0
 47 22  1  0
 49 47  1  0
 50 51  1  0
  3 50  1  6
 51 52  1  0
 53 55  1  0
 53 52  1  0
 54 65  2  0
 55 60  1  0
 56 64  1  0
 56 66  1  0
 57 63  1  0
 57 59  1  0
 58 64  1  0
 59 58  1  0
 60 59  2  0
 61 62  1  0
 61 55  2  0
 62 57  2  0
 63 56  1  0
 64 54  1  0
 66 68  2  0
 67 66  1  0
 69 67  1  0
 70 79  2  0
 70 75  1  0
 71 67  1  0
 71 75  1  0
 72 71  1  0
 73 74  1  0
 73 72  1  0
 74 70  1  0
 75 76  2  0
 76 77  1  0
 78 77  2  0
 79 78  1  0
 80 54  1  0
 80 81  1  0
 80 90  1  0
 81 84  1  0
 82 86  1  0
 82 81  1  0
 83 82  2  0
 86 85  1  0
 88 86  1  0
 88 89  1  0
 88 87  1  0
 90 93  1  1
 90 91  1  0
 92 90  1  0
M  ISO  4  12 100  20 100  52 101  53 101
M  END
>  <TORSDO>  (13) 
F 21

>  <SCORE>  (13) 
-12.913

>  <name>  (13) 
12

>  <ligand_id>  (13) 
12

>  <original_smiles>  (13) 
[H]c1c([H])c(N([H])C(=O)N2C([H])([H])C([H])([H])C([H])([H])C([H])(n3nc(-c4c([H])c([H])c(Oc5c([H])c([H])c(F)c([H])c5F)c([H])c4[H])c(C(=O)N([H])[H])c3N([H])[H])C2([H])[H])c([H])c(N([H])S(=O)(=O)C([H])([H])C([H])([H])C([H])([H])Oc2c([H])c([H])c3c(c2[H])C([H])([H])N(C(=O)C([H])(N([H])C(=O)C([H])(N([H])C([H])([H])[H])C([H])([H])[H])C(C([H])([H])[H])(C([H])([H])[H])C([H])([H])[H])C([H])(C(=O)N([H])C2([H])c4c([H])c([H])c([H])c([H])c4C([H])([H])C([H])([H])C2([H])[H])C3([H])[H])c1[H]

>  <smiles>  (13) 
[H]c1c([H])c(N([H])C(=O)N2C([H])([H])C([H])([H])C([H])([H])C([H])(n3nc(-c4c([H])c([H])c(Oc5c([H])c([H])c(F)c([H])c5F)c([H])c4[H])c(C(=O)N([H])[H])c3N([H])[H])C2([H])[H])c([H])c(N([H])S(=O)(=O)C([H])([H])C([H])([H])C([H])([H])Oc2c([H])c([H])c3c(c2[H])C([H])([H])N(C(=O)C([H])(N([H])C(=O)C([H])(N([H])C([H])([H])[H])C([H])([H])[H])C(C([H])([H])[H])(C([H])([H])[H])C([H])([H])[H])C([H])(C(=O)N([H])C2([H])c4c([H])c([H])c([H])c([H])c4C([H])([H])C([H])([H])C2([H])[H])C3([H])[H])c1[H]

$$$$
13:0:0
     RDKit          3D

 96105  0  0  1  0  0  0  0  0999 V2000
  -30.2810  -22.4170   19.2360 C   0  0  0  0  0  3  0  0  0  0  0  0
  -28.9560  -23.8930   20.3880 C   0  0  0  0  0  0  0  0  0  0  0  0
  -29.9130  -23.7400   19.3340 C   0  0  0  0  0  0  0  0  0  0  0  0
  -28.8370  -22.5940   20.8900 C   0  0  0  0  0  0  0  0  0  0  0  0
  -29.6360  -21.6510   20.2000 N   0  0  0  0  0  0  0  0  0  0  0  0
  -28.6030  -19.3700   20.4360 C   0  0  0  0  0  3  0  0  0  0  0  0
  -28.6650  -17.9490   20.5350 C   0  0  0  0  0  3  0  0  0  0  0  0
  -31.0590  -18.0350   20.4710 C   0  0  0  0  0  3  0  0  0  0  0  0
  -31.0070  -19.4710   20.3990 C   0  0  0  0  0  0  0  0  0  0  0  0
  -29.7620  -20.1870   20.3610 C   0  0  0  0  0  0  0  0  0  0  0  0
  -29.8900  -17.2310   20.5410 C   0  0  0  0  0  0  0  0  0  0  0  0
  -32.3400  -20.2050   20.3830 C   0  0  0  0  0  1  0  0  0  0  0  0
  -30.6510  -14.7390   20.2400 C   0  0  0  0  0  0  0  0  0  0  0  0
  -30.4290  -12.5180   19.1280 C   0  0  0  0  0  2  0  0  0  0  0  0
  -29.4460  -12.6680   17.9460 C   0  0  0  0  0  2  0  0  0  0  0  0
  -27.9870  -12.4930   18.4140 C   0  0  0  0  0  2  0  0  0  0  0  0
  -27.6620  -13.3210   19.6850 C   0  0  0  0  0  3  0  0  0  0  0  0
  -28.7560  -13.1390   20.7630 C   0  0  0  0  0  2  0  0  0  0  0  0
  -30.0450  -13.5080   20.1560 N   0  0  0  0  0  0  0  0  0  0  0  0
  -31.7990  -14.9150   19.8220 O   0  0  0  0  0  0  0  0  0  0  0  0
  -29.8380  -15.7670   20.6540 N   0  0  0  0  0  0  0  0  0  0  0  0
  -28.9460  -15.4180   20.9690 H   0  0  0  0  0  0  0  0  0  0  0  0
  -25.2870  -13.9030   20.4740 C   0  0  0  0  0  0  0  0  0  0  0  0
  -24.2310  -13.1210   20.8590 C   0  0  0  0  0  0  0  0  0  0  0  0
  -24.6950  -11.7710   20.7940 C   0  0  0  0  0  0  0  0  0  0  0  0
  -26.3270  -13.0280   20.1980 N   0  0  0  0  0  0  0  0  0  0  0  0
  -25.9780  -11.7410   20.4500 N   0  0  0  0  0  0  0  0  0  0  0  0
  -23.9760  -10.5040   20.9820 C   0  0  0  0  0  0  0  0  0  0  0  0
  -24.4010   -9.5480   21.9310 C   0  0  0  0  0  3  0  0  0  0  0  0
  -23.6840   -8.3460   22.1070 C   0  0  0  0  0  3  0  0  0  0  0  0
  -22.5270   -8.0900   21.3350 C   0  0  0  0  0  0  0  0  0  0  0  0
  -22.1190   -9.0340   20.3770 C   0  0  0  0  0  3  0  0  0  0  0  0
  -22.8380  -10.2280   20.1980 C   0  0  0  0  0  3  0  0  0  0  0  0
  -21.7840   -6.9380   21.4190 O   0  0  0  0  0  0  0  0  0  0  0  0
  -21.6870   -6.2270   22.5890 C   0  0  0  0  0  0  0  0  0  0  0  0
  -21.1240   -6.7880   23.7570 C   0  0  0  0  0  3  0  0  0  0  0  0
  -20.9800   -6.0000   24.9160 C   0  0  0  0  0  3  0  0  0  0  0  0
  -21.3870   -4.6520   24.9080 C   0  0  0  0  0  0  0  0  0  0  0  0
  -21.9420   -4.0910   23.7460 C   0  0  0  0  0  3  0  0  0  0  0  0
  -22.0880   -4.8750   22.5890 C   0  0  0  0  0  0  0  0  0  0  0  0
  -22.6040   -4.3240   21.4630 F   0  0  0  0  0  0  0  0  0  0  0  0
  -21.2410   -3.8930   26.0200 F   0  0  0  0  0  0  0  0  0  0  0  0
  -22.8400  -13.5890   21.1750 C   0  0  0  0  0  0  0  0  0  0  0  0
  -22.1310  -12.8720   22.0390 N   0  0  0  0  0  0  0  0  0  0  0  0
  -22.3880  -14.6250   20.6880 O   0  0  0  0  0  0  0  0  0  0  0  0
  -22.5070  -12.0340   22.4570 H   0  0  0  0  0  0  0  0  0  0  0  0
  -21.1990  -13.1670   22.2900 H   0  0  0  0  0  0  0  0  0  0  0  0
  -25.4430  -15.2760   20.3130 N   0  0  0  0  0  0  0  0  0  0  0  0
  -24.6700  -15.9220   20.4340 H   0  0  0  0  0  0  0  0  0  0  0  0
  -26.2590  -15.7120   19.9030 H   0  0  0  0  0  0  0  0  0  0  0  0
  -30.3760  -24.7410   18.5320 O   0  0  0  0  0  0  0  0  0  0  0  0
  -31.0120  -24.4490   17.8840 H   0  0  0  0  0  0  0  0  0  0  0  0
  -28.0570  -22.1660   21.9240 O   0  0  0  0  0  0  0  0  0  0  0  0
  -27.6040  -22.9170   22.2910 H   0  0  0  0  0  0  0  0  0  0  0  0
  -28.1840  -25.1870   20.8610 C   0  0  0  0  0  2  0  0  0  0  0  0
  -28.4130  -26.5250   20.2540 O   0  0  0  0  0  0  0  0  0  0  0  0
  -24.6080  -31.8970   23.2530 C   0  0  0  0  0  0  0  0  0  0  0  0
  -27.3000  -27.3790   20.2200 C   0  0  0  0  0  0  0  0  0  0  0  0
  -23.4310  -30.4880   21.6030 C   0  0  0  0  0  3  0  0  0  0  0  0
  -24.9130  -28.9540   20.1860 C   0  0  0  0  0  0  0  0  0  0  0  0
  -25.9670  -30.8380   21.4370 C   0  0  0  0  0  2  0  0  0  0  0  0
  -26.0710  -29.4610   20.7920 C   0  0  0  0  0  0  0  0  0  0  0  0
  -27.2700  -28.6850   20.8010 C   0  0  0  0  0  3  0  0  0  0  0  0
  -26.1240  -26.9290   19.5820 C   0  0  0  0  0  3  0  0  0  0  0  0
  -24.9400  -27.6920   19.5730 C   0  0  0  0  0  3  0  0  0  0  0  0
  -23.6640  -29.8110   20.2240 C   0  0  0  0  0  2  0  0  0  0  0  0
  -24.6870  -31.0910   22.1550 N   0  0  0  0  0  0  0  0  0  0  0  0
  -23.5190  -32.1630   23.7830 O   0  0  0  0  0  0  0  0  0  0  0  0
  -22.7730  -29.4630   22.5570 C   0  0  0  0  0  0  0  0  0  0  0  0
  -21.4490  -29.2740   22.4230 N   0  0  0  0  0  0  0  0  0  0  0  0
  -23.4520  -28.8410   23.3780 O   0  0  0  0  0  0  0  0  0  0  0  0
  -20.9600  -29.8260   21.7330 H   0  0  0  0  0  0  0  0  0  0  0  0
  -18.0770  -28.0670   22.9220 C   0  0  0  0  0  0  0  0  0  0  0  0
  -20.6360  -28.3280   23.1890 C   0  0  0  0  0  3  0  0  0  0  0  0
  -20.7390  -26.9030   22.6010 C   0  0  0  0  0  2  0  0  0  0  0  0
  -19.6360  -26.5850   21.5870 C   0  0  0  0  0  2  0  0  0  0  0  0
  -18.2550  -26.7240   22.2340 C   0  0  0  0  0  2  0  0  0  0  0  0
  -19.1950  -28.8280   23.3570 C   0  0  0  0  0  0  0  0  0  0  0  0
  -18.9760  -30.0850   23.9600 C   0  0  0  0  0  3  0  0  0  0  0  0
  -17.6700  -30.5820   24.1320 C   0  0  0  0  0  3  0  0  0  0  0  0
  -16.5670  -29.8190   23.7140 C   0  0  0  0  0  3  0  0  0  0  0  0
  -16.7700  -28.5630   23.1160 C   0  0  0  0  0  3  0  0  0  0  0  0
  -25.8810  -32.5420   23.8830 C   0  0  0  0  0  3  0  0  0  0  0  0
  -26.3780  -31.7950   25.1810 C   0  0  1  0  0  0  0  0  0  0  0  0
  -25.2680  -31.5730   26.2350 C   0  0  0  0  0  1  0  0  0  0  0  0
  -26.9720  -30.4110   24.8250 C   0  0  0  0  0  1  0  0  0  0  0  0
  -27.5150  -32.6030   25.8500 C   0  0  0  0  0  1  0  0  0  0  0  0
  -25.5660  -33.9460   24.1840 N   0  0  0  0  0  0  0  0  0  0  0  0
  -25.9020  -34.9850   23.4100 C   0  0  0  0  0  0  0  0  0  0  0  0
  -26.5810  -34.8640   22.3860 O   0  0  0  0  0  0  0  0  0  0  0  0
  -24.9640  -34.1130   24.9770 H   0  0  0  0  0  0  0  0  0  0  0  0
  -24.1890  -36.7780   22.9890 C   0  0  0  0  0  1  0  0  0  0  0  0
  -25.4090  -36.3800   23.8360 C   0  0  0  0  0  3  0  0  0  0  0  0
  -27.5190  -37.2800   24.7140 C   0  0  0  0  0  1  0  0  0  0  0  0
  -26.4470  -37.4290   23.7330 N   0  0  0  0  0  0  0  0  0  0  0  0
  -26.0380  -38.3530   23.8490 H   0  0  0  0  0  0  0  0  0  0  0  0
  1  3  2  0
  1  5  1  0
  2 55  1  0
  2  4  2  0
  3  2  1  0
  4 53  1  0
  5 10  1  0
  5  4  1  0
  6  7  1  0
  7 11  2  0
  8 11  1  0
  9  8  2  0
 10  9  1  0
 10  6  2  0
 11 21  1  0
 12  9  1  0
 13 21  1  0
 14 19  1  0
 15 16  1  0
 15 14  1  0
 17 16  1  0
 17 26  1  0
 17 18  1  0
 19 13  1  0
 19 18  1  0
 20 13  2  0
 21 22  1  0
 23 24  2  0
 24 43  1  0
 25 24  1  0
 25 28  1  0
 26 27  1  0
 26 23  1  0
 27 25  2  0
 28 29  1  0
 29 30  2  0
 31 34  1  0
 31 30  1  0
 32 31  2  0
 33 32  1  0
 33 28  2  0
 34 35  1  0
 35 36  1  0
 36 37  2  0
 38 37  1  0
 38 42  1  0
 39 38  2  0
 40 35  2  0
 40 39  1  0
 41 40  1  0
 43 44  1  0
 44 47  1  0
 44 46  1  0
 45 43  2  0
 48 49  1  0
 48 23  1  0
 50 48  1  0
 51  3  1  0
 52 51  1  0
 53 54  1  0
 56 55  1  0
 57 68  2  0
 58 56  1  0
 58 63  1  0
 59 67  1  0
 59 69  1  0
 60 66  1  0
 60 62  1  0
 61 67  1  0
 62 63  2  0
 62 61  1  0
 64 58  2  0
 65 64  1  0
 65 60  2  0
 66 59  1  0
 67 57  1  0
 69 71  2  0
 70 69  1  0
 72 70  1  0
 73 82  2  0
 73 78  1  0
 74 70  1  0
 74 78  1  0
 75 74  1  0
 76 77  1  0
 76 75  1  0
 77 73  1  0
 78 79  2  0
 79 80  1  0
 81 80  2  0
 82 81  1  0
 83 57  1  0
 83 88  1  0
 83 84  1  0
 84 87  1  1
 84 85  1  0
 86 84  1  0
 88 91  1  0
 89 93  1  0
 89 88  1  0
 90 89  2  0
 93 92  1  0
 95 93  1  0
 95 96  1  0
 95 94  1  0
M  ISO  4  13 100  21 100  55 101  56 101
M  END
>  <TORSDO>  (14) 
F 20

>  <SCORE>  (14) 
-14.687

>  <name>  (14) 
13

>  <ligand_id>  (14) 
13

>  <original_smiles>  (14) 
[H]Oc1c(C([H])([H])Oc2c([H])c([H])c3c(c2[H])C([H])([H])N(C(=O)C([H])(N([H])C(=O)C([H])(N([H])C([H])([H])[H])C([H])([H])[H])C(C([H])([H])[H])(C([H])([H])[H])C([H])([H])[H])C([H])(C(=O)N([H])C2([H])c4c([H])c([H])c([H])c([H])c4C([H])([H])C([H])([H])C2([H])[H])C3([H])[H])c(O[H])n(-c2c([H])c([H])c(N([H])C(=O)N3C([H])([H])C([H])([H])C([H])([H])C([H])(n4nc(-c5c([H])c([H])c(Oc6c([H])c([H])c(F)c([H])c6F)c([H])c5[H])c(C(=O)N([H])[H])c4N([H])[H])C3([H])[H])c([H])c2C([H])([H])[H])c1[H]

>  <smiles>  (14) 
[H]Oc1c(C([H])([H])Oc2c([H])c([H])c3c(c2[H])C([H])([H])N(C(=O)C([H])(N([H])C(=O)C([H])(N([H])C([H])([H])[H])C([H])([H])[H])C(C([H])([H])[H])(C([H])([H])[H])C([H])([H])[H])C([H])(C(=O)N([H])C2([H])c4c([H])c([H])c([H])c([H])c4C([H])([H])C([H])([H])C2([H])[H])C3([H])[H])c(O[H])n(-c2c([H])c([H])c(N([H])C(=O)N3C([H])([H])C([H])([H])C([H])([H])C([H])(n4nc(-c5c([H])c([H])c(Oc6c([H])c([H])c(F)c([H])c6F)c([H])c5[H])c(C(=O)N([H])[H])c4N([H])[H])C3([H])[H])c([H])c2C([H])([H])[H])c1[H]

$$$$
14:0:0
     RDKit          3D

 93101  0  0  1  0  0  0  0  0999 V2000
  -29.5880  -21.6800   20.5150 C   0  0  0  0  0  0  0  0  0  0  0  0
  -29.4120  -20.5070   21.1650 N   0  0  0  0  0  0  0  0  0  0  0  0
  -30.4360  -21.8260   19.6320 O   0  0  0  0  0  0  0  0  0  0  0  0
  -28.5810  -20.4400   21.7380 H   0  0  0  0  0  0  0  0  0  0  0  0
  -29.7220  -18.0580   20.9200 C   0  0  0  0  0  3  0  0  0  0  0  0
  -31.9270  -17.1310   21.2400 C   0  0  0  0  0  3  0  0  0  0  0  0
  -30.5620  -16.9150   20.9510 C   0  0  0  0  0  0  0  0  0  0  0  0
  -30.2680  -19.3530   21.1430 C   0  0  0  0  0  0  0  0  0  0  0  0
  -31.6530  -19.4290   21.4500 C   0  0  0  0  0  0  0  0  0  0  0  0
  -32.3500  -20.7180   21.8530 C   0  0  0  0  0  1  0  0  0  0  0  0
  -32.4540  -18.3460   21.4850 N   0  0  0  0  0  0  0  0  0  0  0  0
  -30.6930  -14.5580   20.1390 C   0  0  0  0  0  0  0  0  0  0  0  0
  -30.3190  -12.4320   18.9410 C   0  0  0  0  0  2  0  0  0  0  0  0
  -29.3150  -12.6570   17.7940 C   0  0  0  0  0  2  0  0  0  0  0  0
  -27.8690  -12.4970   18.2990 C   0  0  0  0  0  2  0  0  0  0  0  0
  -27.5950  -13.3030   19.5980 C   0  0  0  0  0  3  0  0  0  0  0  0
  -28.7100  -13.0750   20.6440 C   0  0  0  0  0  2  0  0  0  0  0  0
  -29.9970  -13.3950   20.0080 N   0  0  0  0  0  0  0  0  0  0  0  0
  -31.7920  -14.7290   19.6040 O   0  0  0  0  0  0  0  0  0  0  0  0
  -30.0460  -15.5860   20.7370 N   0  0  0  0  0  0  0  0  0  0  0  0
  -29.0860  -15.4100   20.9970 H   0  0  0  0  0  0  0  0  0  0  0  0
  -25.2320  -13.8740   20.4380 C   0  0  0  0  0  0  0  0  0  0  0  0
  -24.1900  -13.0850   20.8480 C   0  0  0  0  0  0  0  0  0  0  0  0
  -24.6610  -11.7390   20.7720 C   0  0  0  0  0  0  0  0  0  0  0  0
  -26.2720  -13.0070   20.1410 N   0  0  0  0  0  0  0  0  0  0  0  0
  -25.9350  -11.7160   20.3990 N   0  0  0  0  0  0  0  0  0  0  0  0
  -23.9560  -10.4670   20.9760 C   0  0  0  0  0  0  0  0  0  0  0  0
  -24.4120   -9.5110   21.9100 C   0  0  0  0  0  3  0  0  0  0  0  0
  -23.7070   -8.3040   22.1020 C   0  0  0  0  0  3  0  0  0  0  0  0
  -22.5300   -8.0430   21.3600 C   0  0  0  0  0  0  0  0  0  0  0  0
  -22.0930   -8.9890   20.4140 C   0  0  0  0  0  3  0  0  0  0  0  0
  -22.8000  -10.1870   20.2210 C   0  0  0  0  0  3  0  0  0  0  0  0
  -21.7950   -6.8880   21.4600 O   0  0  0  0  0  0  0  0  0  0  0  0
  -21.7430   -6.1670   22.6270 C   0  0  0  0  0  0  0  0  0  0  0  0
  -21.2670   -6.7290   23.8300 C   0  0  0  0  0  3  0  0  0  0  0  0
  -21.1670   -5.9330   24.9880 C   0  0  0  0  0  3  0  0  0  0  0  0
  -21.5320   -4.5750   24.9440 C   0  0  0  0  0  0  0  0  0  0  0  0
  -22.0010   -4.0110   23.7440 C   0  0  0  0  0  3  0  0  0  0  0  0
  -22.1040   -4.8040   22.5880 C   0  0  0  0  0  0  0  0  0  0  0  0
  -22.5360   -4.2510   21.4290 F   0  0  0  0  0  0  0  0  0  0  0  0
  -21.4290   -3.8060   26.0540 F   0  0  0  0  0  0  0  0  0  0  0  0
  -22.8040  -13.5450   21.1980 C   0  0  0  0  0  0  0  0  0  0  0  0
  -22.1210  -12.8200   22.0760 N   0  0  0  0  0  0  0  0  0  0  0  0
  -22.3370  -14.5820   20.7270 O   0  0  0  0  0  0  0  0  0  0  0  0
  -22.5140  -11.9810   22.4770 H   0  0  0  0  0  0  0  0  0  0  0  0
  -21.1930  -13.1090   22.3520 H   0  0  0  0  0  0  0  0  0  0  0  0
  -25.3760  -15.2480   20.2740 N   0  0  0  0  0  0  0  0  0  0  0  0
  -24.6080  -15.8940   20.4250 H   0  0  0  0  0  0  0  0  0  0  0  0
  -26.1970  -15.6970   19.8880 H   0  0  0  0  0  0  0  0  0  0  0  0
  -28.6610  -22.8530   20.9020 C   0  0  0  0  0  2  0  0  0  0  0  0
  -29.0090  -24.2490   20.2900 C   0  0  0  0  0  2  0  0  0  0  0  0
  -28.1340  -25.3930   20.8690 C   0  0  0  0  0  2  0  0  0  0  0  0
  -28.3440  -26.6950   20.2710 O   0  0  0  0  0  0  0  0  0  0  0  0
  -24.5390  -31.9540   23.2440 C   0  0  0  0  0  0  0  0  0  0  0  0
  -27.2070  -27.4810   20.2240 C   0  0  0  0  0  0  0  0  0  0  0  0
  -23.3500  -30.5420   21.6010 C   0  0  0  0  0  3  0  0  0  0  0  0
  -24.8180  -29.0020   20.1920 C   0  0  0  0  0  0  0  0  0  0  0  0
  -25.8780  -30.9010   21.4230 C   0  0  0  0  0  2  0  0  0  0  0  0
  -25.9730  -29.5260   20.7900 C   0  0  0  0  0  0  0  0  0  0  0  0
  -27.1740  -28.7740   20.7990 C   0  0  0  0  0  3  0  0  0  0  0  0
  -26.0410  -26.9850   19.6020 C   0  0  0  0  0  3  0  0  0  0  0  0
  -24.8490  -27.7330   19.5920 C   0  0  0  0  0  3  0  0  0  0  0  0
  -23.5710  -29.8580   20.2260 C   0  0  0  0  0  2  0  0  0  0  0  0
  -24.6070  -31.1470   22.1480 N   0  0  0  0  0  0  0  0  0  0  0  0
  -23.4520  -32.2280   23.7730 O   0  0  0  0  0  0  0  0  0  0  0  0
  -22.6910  -29.5240   22.5610 C   0  0  0  0  0  0  0  0  0  0  0  0
  -21.3650  -29.3540   22.4370 N   0  0  0  0  0  0  0  0  0  0  0  0
  -23.3710  -28.8920   23.3750 O   0  0  0  0  0  0  0  0  0  0  0  0
  -20.8780  -29.9150   21.7520 H   0  0  0  0  0  0  0  0  0  0  0  0
  -17.9790  -28.2020   22.9540 C   0  0  0  0  0  0  0  0  0  0  0  0
  -20.5420  -28.4220   23.2070 C   0  0  0  0  0  3  0  0  0  0  0  0
  -20.6200  -26.9940   22.6210 C   0  0  0  0  0  2  0  0  0  0  0  0
  -19.5050  -26.6940   21.6130 C   0  0  0  0  0  2  0  0  0  0  0  0
  -18.1300  -26.8550   22.2690 C   0  0  0  0  0  2  0  0  0  0  0  0
  -19.1110  -28.9450   23.3810 C   0  0  0  0  0  0  0  0  0  0  0  0
  -18.9150  -30.2070   23.9810 C   0  0  0  0  0  3  0  0  0  0  0  0
  -17.6200  -30.7280   24.1590 C   0  0  0  0  0  3  0  0  0  0  0  0
  -16.5010  -29.9810   23.7490 C   0  0  0  0  0  3  0  0  0  0  0  0
  -16.6820  -28.7200   23.1530 C   0  0  0  0  0  3  0  0  0  0  0  0
  -25.8190  -32.5920   23.8710 C   0  0  0  0  0  3  0  0  0  0  0  0
  -26.3260  -31.8310   25.1570 C   0  0  1  0  0  0  0  0  0  0  0  0
  -25.2220  -31.5910   26.2140 C   0  0  0  0  0  1  0  0  0  0  0  0
  -26.9220  -30.4560   24.7770 C   0  0  0  0  0  1  0  0  0  0  0  0
  -27.4640  -32.6360   25.8270 C   0  0  0  0  0  1  0  0  0  0  0  0
  -25.5060  -33.9920   24.1850 N   0  0  0  0  0  0  0  0  0  0  0  0
  -25.8550  -35.0380   23.4250 C   0  0  0  0  0  0  0  0  0  0  0  0
  -26.5450  -34.9260   22.4080 O   0  0  0  0  0  0  0  0  0  0  0  0
  -24.8960  -34.1530   24.9740 H   0  0  0  0  0  0  0  0  0  0  0  0
  -24.1500  -36.8380   23.0080 C   0  0  0  0  0  1  0  0  0  0  0  0
  -25.3610  -36.4300   23.8620 C   0  0  0  0  0  3  0  0  0  0  0  0
  -27.4710  -37.3060   24.7600 C   0  0  0  0  0  1  0  0  0  0  0  0
  -26.4030  -37.4770   23.7800 N   0  0  0  0  0  0  0  0  0  0  0  0
  -25.9980  -38.3990   23.9100 H   0  0  0  0  0  0  0  0  0  0  0  0
  1 50  1  0
  1  2  1  0
  2  4  1  0
  3  1  2  0
  5  7  2  0
  5  8  1  0
  6 11  2  0
  7  6  1  0
  8  2  1  0
  8  9  2  0
  9 11  1  0
  9 10  1  0
 12 20  1  0
 13 18  1  0
 14 15  1  0
 14 13  1  0
 16 15  1  0
 16 25  1  0
 16 17  1  0
 18 12  1  0
 18 17  1  0
 19 12  2  0
 20  7  1  0
 20 21  1  0
 22 23  2  0
 23 42  1  0
 24 23  1  0
 24 27  1  0
 25 26  1  0
 25 22  1  0
 26 24  2  0
 27 28  1  0
 28 29  2  0
 30 33  1  0
 30 29  1  0
 31 30  2  0
 32 31  1  0
 32 27  2  0
 33 34  1  0
 34 35  1  0
 35 36  2  0
 37 36  1  0
 37 41  1  0
 38 37  2  0
 39 34  2  0
 39 38  1  0
 40 39  1  0
 42 43  1  0
 43 46  1  0
 43 45  1  0
 44 42  2  0
 47 48  1  0
 47 22  1  0
 49 47  1  0
 51 52  1  0
 51 50  1  0
 53 52  1  0
 54 65  2  0
 55 53  1  0
 55 60  1  0
 56 64  1  0
 56 66  1  0
 57 63  1  0
 57 59  1  0
 58 64  1  0
 59 60  2  0
 59 58  1  0
 61 55  2  0
 62 61  1  0
 62 57  2  0
 63 56  1  0
 64 54  1  0
 66 68  2  0
 67 66  1  0
 69 67  1  0
 70 79  2  0
 70 75  1  0
 71 67  1  0
 71 75  1  0
 72 71  1  0
 73 74  1  0
 73 72  1  0
 74 70  1  0
 75 76  2  0
 76 77  1  0
 78 77  2  0
 79 78  1  0
 80 54  1  0
 80 85  1  0
 80 81  1  0
 81 84  1  1
 81 82  1  0
 83 81  1  0
 85 88  1  0
 86 90  1  0
 86 85  1  0
 87 86  2  0
 90 89  1  0
 92 90  1  0
 92 93  1  0
 92 91  1  0
M  ISO  4  12 100  20 100  52 101  53 101
M  END
>  <TORSDO>  (15) 
F 20

>  <SCORE>  (15) 
-13.822

>  <name>  (15) 
14

>  <ligand_id>  (15) 
14

>  <original_smiles>  (15) 
[H]c1nc(C([H])([H])[H])c(N([H])C(=O)C([H])([H])C([H])([H])C([H])([H])Oc2c([H])c([H])c3c(c2[H])C([H])([H])N(C(=O)C([H])(N([H])C(=O)C([H])(N([H])C([H])([H])[H])C([H])([H])[H])C(C([H])([H])[H])(C([H])([H])[H])C([H])([H])[H])C([H])(C(=O)N([H])C2([H])c4c([H])c([H])c([H])c([H])c4C([H])([H])C([H])([H])C2([H])[H])C3([H])[H])c([H])c1N([H])C(=O)N1C([H])([H])C([H])([H])C([H])([H])C([H])(n2nc(-c3c([H])c([H])c(Oc4c([H])c([H])c(F)c([H])c4F)c([H])c3[H])c(C(=O)N([H])[H])c2N([H])[H])C1([H])[H]

>  <smiles>  (15) 
[H]c1nc(C([H])([H])[H])c(N([H])C(=O)C([H])([H])C([H])([H])C([H])([H])Oc2c([H])c([H])c3c(c2[H])C([H])([H])N(C(=O)C([H])(N([H])C(=O)C([H])(N([H])C([H])([H])[H])C([H])([H])[H])C(C([H])([H])[H])(C([H])([H])[H])C([H])([H])[H])C([H])(C(=O)N([H])C2([H])c4c([H])c([H])c([H])c([H])c4C([H])([H])C([H])([H])C2([H])[H])C3([H])[H])c([H])c1N([H])C(=O)N1C([H])([H])C([H])([H])C([H])([H])C([H])(n2nc(-c3c([H])c([H])c(Oc4c([H])c([H])c(F)c([H])c4F)c([H])c3[H])c(C(=O)N([H])[H])c2N([H])[H])C1([H])[H]

$$$$
15:0:0
     RDKit          3D

 92100  0  0  1  0  0  0  0  0999 V2000
  -29.5870  -20.7240   21.2840 C   0  0  0  0  0  0  0  0  0  0  0  0
  -30.4450  -20.7970   22.1680 O   0  0  0  0  0  0  0  0  0  0  0  0
  -28.9230  -18.2570   18.4250 C   0  0  0  0  0  3  0  0  0  0  0  0
  -29.0300  -19.4330   19.1850 C   0  0  0  0  0  3  0  0  0  0  0  0
  -29.2550  -17.0120   18.9870 C   0  0  0  0  0  3  0  0  0  0  0  0
  -29.4420  -19.3980   20.5350 C   0  0  0  0  0  0  0  0  0  0  0  0
  -29.6940  -16.9110   20.3240 C   0  0  0  0  0  0  0  0  0  0  0  0
  -29.7660  -18.1140   21.1040 C   0  0  0  0  0  0  0  0  0  0  0  0
  -30.1530  -18.0200   22.4000 F   0  0  0  0  0  0  0  0  0  0  0  0
  -30.6220  -14.5900   20.2330 C   0  0  0  0  0  0  0  0  0  0  0  0
  -30.3410  -12.4260   19.0570 C   0  0  0  0  0  2  0  0  0  0  0  0
  -29.3590  -12.6330   17.8820 C   0  0  0  0  0  2  0  0  0  0  0  0
  -27.8990  -12.4770   18.3510 C   0  0  0  0  0  2  0  0  0  0  0  0
  -27.5970  -13.2770   19.6450 C   0  0  0  0  0  3  0  0  0  0  0  0
  -28.6880  -13.0380   20.7140 C   0  0  0  0  0  2  0  0  0  0  0  0
  -29.9870  -13.3830   20.1230 N   0  0  0  0  0  0  0  0  0  0  0  0
  -31.7140  -14.8000   19.6930 O   0  0  0  0  0  0  0  0  0  0  0  0
  -29.9490  -15.5900   20.8660 N   0  0  0  0  0  0  0  0  0  0  0  0
  -29.2640  -15.2820   21.5400 H   0  0  0  0  0  0  0  0  0  0  0  0
  -25.2250  -13.8650   20.4460 C   0  0  0  0  0  0  0  0  0  0  0  0
  -24.1720  -13.0840   20.8410 C   0  0  0  0  0  0  0  0  0  0  0  0
  -24.6330  -11.7350   20.7720 C   0  0  0  0  0  0  0  0  0  0  0  0
  -26.2620  -12.9890   20.1630 N   0  0  0  0  0  0  0  0  0  0  0  0
  -25.9120  -11.7010   20.4160 N   0  0  0  0  0  0  0  0  0  0  0  0
  -23.9140  -10.4700   20.9700 C   0  0  0  0  0  0  0  0  0  0  0  0
  -24.3590   -9.5060   21.9020 C   0  0  0  0  0  3  0  0  0  0  0  0
  -23.6410   -8.3040   22.0850 C   0  0  0  0  0  3  0  0  0  0  0  0
  -22.4640   -8.0570   21.3400 C   0  0  0  0  0  0  0  0  0  0  0  0
  -22.0400   -9.0090   20.3960 C   0  0  0  0  0  3  0  0  0  0  0  0
  -22.7570  -10.2030   20.2100 C   0  0  0  0  0  3  0  0  0  0  0  0
  -21.7170   -6.9080   21.4350 O   0  0  0  0  0  0  0  0  0  0  0  0
  -21.6510   -6.1850   22.6000 C   0  0  0  0  0  0  0  0  0  0  0  0
  -21.1790   -6.7530   23.8030 C   0  0  0  0  0  3  0  0  0  0  0  0
  -21.0630   -5.9550   24.9590 C   0  0  0  0  0  3  0  0  0  0  0  0
  -21.4080   -4.5910   24.9120 C   0  0  0  0  0  0  0  0  0  0  0  0
  -21.8740   -4.0240   23.7130 C   0  0  0  0  0  3  0  0  0  0  0  0
  -21.9930   -4.8180   22.5600 C   0  0  0  0  0  0  0  0  0  0  0  0
  -22.4210   -4.2600   21.4020 F   0  0  0  0  0  0  0  0  0  0  0  0
  -21.2900   -3.8220   26.0210 F   0  0  0  0  0  0  0  0  0  0  0  0
  -22.7860  -13.5550   21.1750 C   0  0  0  0  0  0  0  0  0  0  0  0
  -22.0890  -12.8420   22.0510 N   0  0  0  0  0  0  0  0  0  0  0  0
  -22.3280  -14.5900   20.6890 O   0  0  0  0  0  0  0  0  0  0  0  0
  -22.4700  -12.0030   22.4650 H   0  0  0  0  0  0  0  0  0  0  0  0
  -21.1600  -13.1410   22.3140 H   0  0  0  0  0  0  0  0  0  0  0  0
  -25.3850  -15.2390   20.2860 N   0  0  0  0  0  0  0  0  0  0  0  0
  -24.6260  -15.8930   20.4350 H   0  0  0  0  0  0  0  0  0  0  0  0
  -26.2250  -15.6830   19.9330 H   0  0  0  0  0  0  0  0  0  0  0  0
  -29.0210  -22.9900   21.2230 C   0  0  0  0  0  3  0  0  0  0  0  0
  -28.7130  -21.7720   20.9060 N   0  0  0  0  0  0  0  0  0  0  0  0
  -28.1280  -24.2480   21.0130 C   0  0  0  0  0  2  0  0  0  0  0  0
  -28.6500  -25.3110   19.9830 C   0  0  0  0  0  2  0  0  0  0  0  0
  -28.5130  -26.7160   20.3300 O   0  0  0  0  0  0  0  0  0  0  0  0
  -24.6180  -31.8990   23.2330 C   0  0  0  0  0  0  0  0  0  0  0  0
  -27.3200  -27.4210   20.2370 C   0  0  0  0  0  0  0  0  0  0  0  0
  -23.4380  -30.4820   21.5790 C   0  0  0  0  0  3  0  0  0  0  0  0
  -24.9170  -28.9390   20.1800 C   0  0  0  0  0  0  0  0  0  0  0  0
  -25.9600  -30.8570   21.4020 C   0  0  0  0  0  2  0  0  0  0  0  0
  -26.0640  -29.4760   20.7770 C   0  0  0  0  0  0  0  0  0  0  0  0
  -27.2640  -28.7250   20.7930 C   0  0  0  0  0  3  0  0  0  0  0  0
  -26.1540  -26.9050   19.6280 C   0  0  0  0  0  3  0  0  0  0  0  0
  -24.9600  -27.6570   19.6000 C   0  0  0  0  0  3  0  0  0  0  0  0
  -23.6670  -29.7920   20.2050 C   0  0  0  0  0  2  0  0  0  0  0  0
  -24.6900  -31.0970   22.1310 N   0  0  0  0  0  0  0  0  0  0  0  0
  -23.5310  -32.1650   23.7630 O   0  0  0  0  0  0  0  0  0  0  0  0
  -22.7780  -29.4660   22.5430 C   0  0  0  0  0  0  0  0  0  0  0  0
  -21.4540  -29.2840   22.4110 N   0  0  0  0  0  0  0  0  0  0  0  0
  -23.4580  -28.8450   23.3640 O   0  0  0  0  0  0  0  0  0  0  0  0
  -20.9650  -29.8450   21.7270 H   0  0  0  0  0  0  0  0  0  0  0  0
  -18.0770  -28.0920   22.8960 C   0  0  0  0  0  0  0  0  0  0  0  0
  -20.6360  -28.3430   23.1790 C   0  0  0  0  0  3  0  0  0  0  0  0
  -20.7350  -26.9130   22.6000 C   0  0  0  0  0  2  0  0  0  0  0  0
  -19.6380  -26.5950   21.5810 C   0  0  0  0  0  2  0  0  0  0  0  0
  -18.2540  -26.7430   22.2190 C   0  0  0  0  0  2  0  0  0  0  0  0
  -19.1950  -28.8490   23.3340 C   0  0  0  0  0  0  0  0  0  0  0  0
  -18.9790  -30.1110   23.9290 C   0  0  0  0  0  3  0  0  0  0  0  0
  -17.6760  -30.6180   24.0900 C   0  0  0  0  0  3  0  0  0  0  0  0
  -16.5710  -29.8560   23.6710 C   0  0  0  0  0  3  0  0  0  0  0  0
  -16.7720  -28.5960   23.0800 C   0  0  0  0  0  3  0  0  0  0  0  0
  -25.8950  -32.5390   23.8640 C   0  0  0  0  0  3  0  0  0  0  0  0
  -26.4060  -31.7760   25.1480 C   0  0  1  0  0  0  0  0  0  0  0  0
  -25.3060  -31.5350   26.2090 C   0  0  0  0  0  1  0  0  0  0  0  0
  -26.9970  -30.4000   24.7590 C   0  0  0  0  0  1  0  0  0  0  0  0
  -27.5450  -32.5780   25.8210 C   0  0  0  0  0  1  0  0  0  0  0  0
  -25.5790  -33.9370   24.1860 N   0  0  0  0  0  0  0  0  0  0  0  0
  -25.9250  -34.9890   23.4280 C   0  0  0  0  0  0  0  0  0  0  0  0
  -26.6150  -34.8810   22.4110 O   0  0  0  0  0  0  0  0  0  0  0  0
  -24.9710  -34.0930   24.9770 H   0  0  0  0  0  0  0  0  0  0  0  0
  -24.2110  -36.7840   23.0270 C   0  0  0  0  0  1  0  0  0  0  0  0
  -25.4290  -36.3790   23.8720 C   0  0  0  0  0  3  0  0  0  0  0  0
  -27.5410  -37.2620   24.7610 C   0  0  0  0  0  1  0  0  0  0  0  0
  -26.4660  -37.4290   23.7850 N   0  0  0  0  0  0  0  0  0  0  0  0
  -26.0570  -38.3510   23.9180 H   0  0  0  0  0  0  0  0  0  0  0  0
  1  2  2  0
  3  5  2  0
  3  4  1  0
  4  6  2  0
  5  7  1  0
  6  8  1  0
  6  1  1  0
  7 18  1  0
  7  8  2  0
  8  9  1  0
 10 18  1  0
 11 16  1  0
 12 13  1  0
 12 11  1  0
 14 13  1  0
 14 23  1  0
 14 15  1  0
 16 10  1  0
 16 15  1  0
 17 10  2  0
 18 19  1  0
 20 21  2  0
 21 40  1  0
 22 21  1  0
 22 25  1  0
 23 24  1  0
 23 20  1  0
 24 22  2  0
 25 26  1  0
 26 27  2  0
 28 31  1  0
 28 27  1  0
 29 28  2  0
 30 29  1  0
 30 25  2  0
 31 32  1  0
 32 33  1  0
 33 34  2  0
 35 34  1  0
 35 39  1  0
 36 35  2  0
 37 32  2  0
 37 36  1  0
 38 37  1  0
 40 41  1  0
 41 44  1  0
 41 43  1  0
 42 40  2  0
 45 46  1  0
 45 20  1  0
 47 45  1  0
 49 48  2  0
 49  1  1  0
 50 48  1  0
 51 52  1  0
 51 50  1  0
 53 64  2  0
 54 52  1  0
 54 59  1  0
 55 63  1  0
 55 65  1  0
 56 62  1  0
 56 58  1  0
 57 63  1  0
 58 59  2  0
 58 57  1  0
 60 54  2  0
 61 60  1  0
 61 56  2  0
 62 55  1  0
 63 53  1  0
 65 67  2  0
 66 65  1  0
 68 66  1  0
 69 78  2  0
 69 74  1  0
 70 66  1  0
 70 74  1  0
 71 70  1  0
 72 73  1  0
 72 71  1  0
 73 69  1  0
 74 75  2  0
 75 76  1  0
 77 76  2  0
 78 77  1  0
 79 53  1  0
 79 84  1  0
 79 80  1  0
 80 83  1  1
 80 81  1  0
 82 80  1  0
 84 87  1  0
 85 89  1  0
 85 84  1  0
 86 85  2  0
 89 88  1  0
 91 89  1  0
 91 92  1  0
 91 90  1  0
M  ISO  4  10 100  18 100  51 101  52 101
M  END
>  <TORSDO>  (16) 
F 20

>  <SCORE>  (16) 
-13.985

>  <name>  (16) 
15

>  <ligand_id>  (16) 
15

>  <original_smiles>  (16) 
[H]C(=NC(=O)c1c([H])c([H])c([H])c(N([H])C(=O)N2C([H])([H])C([H])([H])C([H])([H])C([H])(n3nc(-c4c([H])c([H])c(Oc5c([H])c([H])c(F)c([H])c5F)c([H])c4[H])c(C(=O)N([H])[H])c3N([H])[H])C2([H])[H])c1F)C([H])([H])C([H])([H])Oc1c([H])c([H])c2c(c1[H])C([H])([H])N(C(=O)C([H])(N([H])C(=O)C([H])(N([H])C([H])([H])[H])C([H])([H])[H])C(C([H])([H])[H])(C([H])([H])[H])C([H])([H])[H])C([H])(C(=O)N([H])C1([H])c3c([H])c([H])c([H])c([H])c3C([H])([H])C([H])([H])C1([H])[H])C2([H])[H]

>  <smiles>  (16) 
[H]C(=NC(=O)c1c([H])c([H])c([H])c(N([H])C(=O)N2C([H])([H])C([H])([H])C([H])([H])C([H])(n3nc(-c4c([H])c([H])c(Oc5c([H])c([H])c(F)c([H])c5F)c([H])c4[H])c(C(=O)N([H])[H])c3N([H])[H])C2([H])[H])c1F)C([H])([H])C([H])([H])Oc1c([H])c([H])c2c(c1[H])C([H])([H])N(C(=O)C([H])(N([H])C(=O)C([H])(N([H])C([H])([H])[H])C([H])([H])[H])C(C([H])([H])[H])(C([H])([H])[H])C([H])([H])[H])C([H])(C(=O)N([H])C1([H])c3c([H])c([H])c([H])c([H])c3C([H])([H])C([H])([H])C1([H])[H])C2([H])[H]

$$$$
16:0:0
     RDKit          3D

 96105  0  0  1  0  0  0  0  0999 V2000
  -29.1830  -22.4420   21.8920 C   0  0  0  0  0  0  0  0  0  0  0  0
  -28.5160  -23.8370   21.8530 C   0  0  0  0  0  2  0  0  0  0  0  0
  -29.5100  -24.2680   19.6310 C   0  0  0  0  0  2  0  0  0  0  0  0
  -30.2310  -22.8910   19.6780 C   0  0  0  0  0  2  0  0  0  0  0  0
  -29.3120  -24.8700   21.0310 C   0  0  0  0  0  3  0  0  0  0  0  0
  -29.9100  -22.0100   20.8270 N   0  0  0  0  0  0  0  0  0  0  0  0
  -29.0260  -21.7520   22.9030 O   0  0  0  0  0  0  0  0  0  0  0  0
  -30.6720  -20.7220   20.8560 C   0  0  0  0  0  2  0  0  0  0  0  0
  -27.8990  -18.2690   19.8010 C   0  0  0  0  0  3  0  0  0  0  0  0
  -28.6340  -19.4420   20.0140 C   0  0  0  0  0  3  0  0  0  0  0  0
  -28.4550  -17.0240   20.1250 C   0  0  0  0  0  3  0  0  0  0  0  0
  -29.9330  -19.3920   20.5690 C   0  0  0  0  0  0  0  0  0  0  0  0
  -30.5170  -18.1050   20.8520 C   0  0  0  0  0  0  0  0  0  0  0  0
  -29.7670  -16.9060   20.6170 C   0  0  0  0  0  0  0  0  0  0  0  0
  -30.6970  -14.6480   20.1480 C   0  0  0  0  0  0  0  0  0  0  0  0
  -30.3550  -12.4530   19.0420 C   0  0  0  0  0  2  0  0  0  0  0  0
  -29.3580  -12.6040   17.8730 C   0  0  0  0  0  2  0  0  0  0  0  0
  -27.9060  -12.4500   18.3670 C   0  0  0  0  0  2  0  0  0  0  0  0
  -27.6130  -13.3290   19.6080 C   0  0  0  0  0  3  0  0  0  0  0  0
  -28.7160  -13.1640   20.6830 C   0  0  0  0  0  2  0  0  0  0  0  0
  -30.0250  -13.4600   20.0690 N   0  0  0  0  0  0  0  0  0  0  0  0
  -31.7300  -14.8650   19.5070 O   0  0  0  0  0  0  0  0  0  0  0  0
  -30.1720  -15.5740   20.9820 N   0  0  0  0  0  0  0  0  0  0  0  0
  -29.4990  -15.1240   21.5830 H   0  0  0  0  0  0  0  0  0  0  0  0
  -25.2640  -13.9770   20.4570 C   0  0  0  0  0  0  0  0  0  0  0  0
  -24.2060  -13.2210   20.8830 C   0  0  0  0  0  0  0  0  0  0  0  0
  -24.6360  -11.8620   20.7990 C   0  0  0  0  0  0  0  0  0  0  0  0
  -26.2790  -13.0800   20.1530 N   0  0  0  0  0  0  0  0  0  0  0  0
  -25.9050  -11.8020   20.4160 N   0  0  0  0  0  0  0  0  0  0  0  0
  -23.8940  -10.6130   21.0020 C   0  0  0  0  0  0  0  0  0  0  0  0
  -24.3460   -9.6230   21.9020 C   0  0  0  0  0  3  0  0  0  0  0  0
  -23.6030   -8.4390   22.0930 C   0  0  0  0  0  3  0  0  0  0  0  0
  -22.3950   -8.2370   21.3840 C   0  0  0  0  0  0  0  0  0  0  0  0
  -21.9600   -9.2150   20.4740 C   0  0  0  0  0  3  0  0  0  0  0  0
  -22.7040  -10.3910   20.2800 C   0  0  0  0  0  3  0  0  0  0  0  0
  -21.6230   -7.1040   21.4870 O   0  0  0  0  0  0  0  0  0  0  0  0
  -21.6160   -6.3380   22.6250 C   0  0  0  0  0  0  0  0  0  0  0  0
  -21.2510   -6.8730   23.8790 C   0  0  0  0  0  3  0  0  0  0  0  0
  -21.1900   -6.0360   25.0110 C   0  0  0  0  0  3  0  0  0  0  0  0
  -21.4820   -4.6640   24.8890 C   0  0  0  0  0  0  0  0  0  0  0  0
  -21.8410   -4.1300   23.6400 C   0  0  0  0  0  3  0  0  0  0  0  0
  -21.9040   -4.9640   22.5100 C   0  0  0  0  0  0  0  0  0  0  0  0
  -22.2300   -4.4380   21.3040 F   0  0  0  0  0  0  0  0  0  0  0  0
  -21.4160   -3.8580   25.9740 F   0  0  0  0  0  0  0  0  0  0  0  0
  -22.8370  -13.7230   21.2430 C   0  0  0  0  0  0  0  0  0  0  0  0
  -22.1460  -13.0350   22.1460 N   0  0  0  0  0  0  0  0  0  0  0  0
  -22.3890  -14.7630   20.7610 O   0  0  0  0  0  0  0  0  0  0  0  0
  -22.5180  -12.1930   22.5600 H   0  0  0  0  0  0  0  0  0  0  0  0
  -21.2310  -13.3570   22.4270 H   0  0  0  0  0  0  0  0  0  0  0  0
  -25.4240  -15.3450   20.2750 N   0  0  0  0  0  0  0  0  0  0  0  0
  -24.6460  -15.9840   20.3970 H   0  0  0  0  0  0  0  0  0  0  0  0
  -26.1860  -15.7530   19.7530 H   0  0  0  0  0  0  0  0  0  0  0  0
  -31.9240  -18.0650   22.9720 C   0  0  0  0  0  1  0  0  0  0  0  0
  -31.9210  -18.0070   21.4410 C   0  0  0  0  0  2  0  0  0  0  0  0
  -28.7340  -26.3310   21.0760 C   0  0  0  0  0  2  0  0  0  0  0  0
  -28.0560  -26.7340   19.8790 O   0  0  0  0  0  0  0  0  0  0  0  0
  -24.4850  -32.0010   23.2280 C   0  0  0  0  0  0  0  0  0  0  0  0
  -26.9440  -27.5430   20.0080 C   0  0  0  0  0  0  0  0  0  0  0  0
  -23.1940  -30.6250   21.6290 C   0  0  0  0  0  3  0  0  0  0  0  0
  -24.5710  -29.0850   20.1300 C   0  0  0  0  0  0  0  0  0  0  0  0
  -25.7130  -30.9550   21.3260 C   0  0  0  0  0  2  0  0  0  0  0  0
  -25.7600  -29.5840   20.6820 C   0  0  0  0  0  0  0  0  0  0  0  0
  -26.9510  -28.8160   20.6310 C   0  0  0  0  0  3  0  0  0  0  0  0
  -25.7460  -27.0710   19.4390 C   0  0  0  0  0  3  0  0  0  0  0  0
  -24.5590  -27.8240   19.5090 C   0  0  0  0  0  3  0  0  0  0  0  0
  -23.3380  -29.9560   20.2360 C   0  0  0  0  0  2  0  0  0  0  0  0
  -24.4840  -31.2090   22.1180 N   0  0  0  0  0  0  0  0  0  0  0  0
  -23.4320  -32.2780   23.8190 O   0  0  0  0  0  0  0  0  0  0  0  0
  -22.5750  -29.6010   22.6080 C   0  0  0  0  0  0  0  0  0  0  0  0
  -21.2520  -29.3900   22.4990 N   0  0  0  0  0  0  0  0  0  0  0  0
  -23.2800  -29.0000   23.4220 O   0  0  0  0  0  0  0  0  0  0  0  0
  -20.7420  -29.9270   21.8120 H   0  0  0  0  0  0  0  0  0  0  0  0
  -17.9210  -28.0860   23.0120 C   0  0  0  0  0  0  0  0  0  0  0  0
  -20.4650  -28.4450   23.2910 C   0  0  0  0  0  3  0  0  0  0  0  0
  -20.6240  -27.0030   22.7540 C   0  0  0  0  0  2  0  0  0  0  0  0
  -19.5410  -26.6140   21.7430 C   0  0  0  0  0  2  0  0  0  0  0  0
  -18.1500  -26.7260   22.3740 C   0  0  0  0  0  2  0  0  0  0  0  0
  -19.0080  -28.9000   23.4280 C   0  0  0  0  0  0  0  0  0  0  0  0
  -18.7410  -30.1690   23.9830 C   0  0  0  0  0  3  0  0  0  0  0  0
  -17.4180  -30.6270   24.1270 C   0  0  0  0  0  3  0  0  0  0  0  0
  -16.3440  -29.8130   23.7280 C   0  0  0  0  0  3  0  0  0  0  0  0
  -16.5970  -28.5440   23.1750 C   0  0  0  0  0  3  0  0  0  0  0  0
  -25.8030  -32.6140   23.7940 C   0  0  0  0  0  3  0  0  0  0  0  0
  -26.3700  -31.8290   25.0400 C   0  0  1  0  0  0  0  0  0  0  0  0
  -25.3230  -31.5880   26.1520 C   0  0  0  0  0  1  0  0  0  0  0  0
  -26.9270  -30.4510   24.6100 C   0  0  0  0  0  1  0  0  0  0  0  0
  -27.5520  -32.6110   25.6590 C   0  0  0  0  0  1  0  0  0  0  0  0
  -25.5270  -34.0130   24.1430 N   0  0  0  0  0  0  0  0  0  0  0  0
  -25.8530  -35.0660   23.3820 C   0  0  0  0  0  0  0  0  0  0  0  0
  -26.4920  -34.9610   22.3320 O   0  0  0  0  0  0  0  0  0  0  0  0
  -24.9590  -34.1700   24.9640 H   0  0  0  0  0  0  0  0  0  0  0  0
  -24.1580  -36.8960   23.0710 C   0  0  0  0  0  1  0  0  0  0  0  0
  -25.4000  -36.4580   23.8620 C   0  0  0  0  0  3  0  0  0  0  0  0
  -27.5610  -37.2910   24.6790 C   0  0  0  0  0  1  0  0  0  0  0  0
  -26.4520  -37.4910   23.7490 N   0  0  0  0  0  0  0  0  0  0  0  0
  -26.0660  -38.4170   23.9120 H   0  0  0  0  0  0  0  0  0  0  0  0
  1  7  2  0
  2  1  1  0
  3  4  1  0
  3  5  1  0
  4  6  1  0
  5 55  1  0
  5  2  1  0
  6  8  1  0
  6  1  1  0
  9 10  2  0
  9 11  1  0
 10 12  1  0
 11 14  2  0
 12 13  2  0
 12  8  1  0
 13 54  1  0
 14 13  1  0
 14 23  1  0
 15 23  1  0
 16 21  1  0
 17 18  1  0
 17 16  1  0
 19 18  1  0
 19 28  1  0
 19 20  1  0
 21 15  1  0
 21 20  1  0
 22 15  2  0
 23 24  1  0
 25 26  2  0
 26 45  1  0
 27 26  1  0
 27 30  1  0
 28 29  1  0
 28 25  1  0
 29 27  2  0
 30 31  1  0
 31 32  2  0
 33 36  1  0
 33 32  1  0
 34 33  2  0
 35 34  1  0
 35 30  2  0
 36 37  1  0
 37 38  1  0
 38 39  2  0
 40 39  1  0
 40 44  1  0
 41 40  2  0
 42 37  2  0
 42 41  1  0
 43 42  1  0
 45 46  1  0
 46 49  1  0
 46 48  1  0
 47 45  2  0
 50 51  1  0
 50 25  1  0
 52 50  1  0
 54 53  1  0
 56 58  1  0
 56 55  1  0
 57 68  2  0
 58 63  1  0
 59 67  1  0
 59 69  1  0
 60 66  1  0
 60 62  1  0
 61 67  1  0
 62 61  1  0
 63 62  2  0
 64 65  1  0
 64 58  2  0
 65 60  2  0
 66 59  1  0
 67 57  1  0
 69 71  2  0
 70 69  1  0
 72 70  1  0
 73 82  2  0
 73 78  1  0
 74 70  1  0
 74 78  1  0
 75 74  1  0
 76 77  1  0
 76 75  1  0
 77 73  1  0
 78 79  2  0
 79 80  1  0
 81 80  2  0
 82 81  1  0
 83 57  1  0
 83 88  1  0
 83 84  1  0
 84 87  1  1
 84 85  1  0
 86 84  1  0
 88 91  1  0
 89 93  1  0
 89 88  1  0
 90 89  2  0
 93 92  1  0
 95 93  1  0
 95 96  1  0
 95 94  1  0
M  ISO  4  15 100  23 100  55 101  56 101
M  END
>  <TORSDO>  (17) 
F 20

>  <SCORE>  (17) 
-13.110

>  <name>  (17) 
16

>  <ligand_id>  (17) 
16

>  <original_smiles>  (17) 
[H]c1c([H])c(N([H])C(=O)N2C([H])([H])C([H])([H])C([H])([H])C([H])(n3nc(-c4c([H])c([H])c(Oc5c([H])c([H])c(F)c([H])c5F)c([H])c4[H])c(C(=O)N([H])[H])c3N([H])[H])C2([H])[H])c(C([H])([H])C([H])([H])[H])c(C([H])([H])N2C(=O)C([H])([H])C([H])(C([H])([H])Oc3c([H])c([H])c4c(c3[H])C([H])([H])N(C(=O)C([H])(N([H])C(=O)C([H])(N([H])C([H])([H])[H])C([H])([H])[H])C(C([H])([H])[H])(C([H])([H])[H])C([H])([H])[H])C([H])(C(=O)N([H])C3([H])c5c([H])c([H])c([H])c([H])c5C([H])([H])C([H])([H])C3([H])[H])C4([H])[H])C([H])([H])C2([H])[H])c1[H]

>  <smiles>  (17) 
[H]c1c([H])c(N([H])C(=O)N2C([H])([H])C([H])([H])C([H])([H])C([H])(n3nc(-c4c([H])c([H])c(Oc5c([H])c([H])c(F)c([H])c5F)c([H])c4[H])c(C(=O)N([H])[H])c3N([H])[H])C2([H])[H])c(C([H])([H])C([H])([H])[H])c(C([H])([H])N2C(=O)C([H])([H])C([H])(C([H])([H])Oc3c([H])c([H])c4c(c3[H])C([H])([H])N(C(=O)C([H])(N([H])C(=O)C([H])(N([H])C([H])([H])[H])C([H])([H])[H])C(C([H])([H])[H])(C([H])([H])[H])C([H])([H])[H])C([H])(C(=O)N([H])C3([H])c5c([H])c([H])c([H])c([H])c5C([H])([H])C([H])([H])C3([H])[H])C4([H])[H])C([H])([H])C2([H])[H])c1[H]

$$$$
17:0:0
     RDKit          3D

 96105  0  0  1  0  0  0  0  0999 V2000
  -28.2570  -22.7620   17.9600 C   0  0  0  0  0  0  0  0  0  0  0  0
  -28.3980  -22.9160   20.8260 C   0  0  0  0  0  0  0  0  0  0  0  0
  -28.6330  -24.1130   18.5400 C   0  0  0  0  0  2  0  0  0  0  0  0
  -28.7900  -21.5610   18.7430 C   0  0  0  0  0  2  0  0  0  0  0  0
  -28.1400  -24.2080   19.9950 C   0  0  0  0  0  3  0  0  0  0  0  0
  -28.8070  -21.7590   20.2170 N   0  0  0  0  0  0  0  0  0  0  0  0
  -27.5720  -22.6520   16.9390 O   0  0  0  0  0  0  0  0  0  0  0  0
  -28.1870  -22.9670   22.0390 O   0  0  0  0  0  0  0  0  0  0  0  0
  -29.0680  -20.5510   21.0580 C   0  0  0  0  0  2  0  0  0  0  0  0
  -32.0040  -18.8110   19.2960 C   0  0  0  0  0  3  0  0  0  0  0  0
  -31.1690  -19.7860   19.8500 C   0  0  0  0  0  3  0  0  0  0  0  0
  -31.6920  -17.4490   19.4360 C   0  0  0  0  0  3  0  0  0  0  0  0
  -29.9800  -19.4250   20.5150 C   0  0  0  0  0  0  0  0  0  0  0  0
  -29.7050  -18.0330   20.7340 C   0  0  0  0  0  0  0  0  0  0  0  0
  -30.5600  -17.0240   20.1820 C   0  0  0  0  0  0  0  0  0  0  0  0
  -28.5100  -17.6360   21.5950 C   0  0  0  0  0  1  0  0  0  0  0  0
  -30.9250  -14.5160   19.9750 C   0  0  0  0  0  0  0  0  0  0  0  0
  -30.4840  -12.3730   18.8510 C   0  0  0  0  0  2  0  0  0  0  0  0
  -29.4600  -12.6140   17.7230 C   0  0  0  0  0  2  0  0  0  0  0  0
  -28.0250  -12.4930   18.2660 C   0  0  0  0  0  2  0  0  0  0  0  0
  -27.7950  -13.3170   19.5640 C   0  0  0  0  0  3  0  0  0  0  0  0
  -28.9320  -13.0790   20.5840 C   0  0  0  0  0  2  0  0  0  0  0  0
  -30.2080  -13.3590   19.9110 N   0  0  0  0  0  0  0  0  0  0  0  0
  -32.0730  -14.5750   19.5380 O   0  0  0  0  0  0  0  0  0  0  0  0
  -30.2400  -15.6210   20.3610 N   0  0  0  0  0  0  0  0  0  0  0  0
  -29.3220  -15.4300   20.7230 H   0  0  0  0  0  0  0  0  0  0  0  0
  -25.4740  -13.9390   20.4820 C   0  0  0  0  0  0  0  0  0  0  0  0
  -24.4230  -13.1730   20.9040 C   0  0  0  0  0  0  0  0  0  0  0  0
  -24.8530  -11.8140   20.7930 C   0  0  0  0  0  0  0  0  0  0  0  0
  -26.4790  -13.0490   20.1390 N   0  0  0  0  0  0  0  0  0  0  0  0
  -26.1150  -11.7630   20.3860 N   0  0  0  0  0  0  0  0  0  0  0  0
  -24.1170  -10.5600   20.9900 C   0  0  0  0  0  0  0  0  0  0  0  0
  -24.5680   -9.5750   21.8960 C   0  0  0  0  0  3  0  0  0  0  0  0
  -23.8330   -8.3830   22.0840 C   0  0  0  0  0  3  0  0  0  0  0  0
  -22.6320   -8.1700   21.3670 C   0  0  0  0  0  0  0  0  0  0  0  0
  -22.1990   -9.1440   20.4480 C   0  0  0  0  0  3  0  0  0  0  0  0
  -22.9350  -10.3250   20.2590 C   0  0  0  0  0  3  0  0  0  0  0  0
  -21.8640   -7.0340   21.4660 O   0  0  0  0  0  0  0  0  0  0  0  0
  -21.8080   -6.3040   22.6260 C   0  0  0  0  0  0  0  0  0  0  0  0
  -21.3950   -6.8780   23.8480 C   0  0  0  0  0  3  0  0  0  0  0  0
  -21.2840   -6.0760   25.0010 C   0  0  0  0  0  3  0  0  0  0  0  0
  -21.5760   -4.7000   24.9330 C   0  0  0  0  0  0  0  0  0  0  0  0
  -21.9780   -4.1250   23.7150 C   0  0  0  0  0  3  0  0  0  0  0  0
  -22.0920   -4.9250   22.5640 C   0  0  0  0  0  0  0  0  0  0  0  0
  -22.4610   -4.3620   21.3880 F   0  0  0  0  0  0  0  0  0  0  0  0
  -21.4600   -3.9270   26.0380 F   0  0  0  0  0  0  0  0  0  0  0  0
  -23.0590  -13.6630   21.2960 C   0  0  0  0  0  0  0  0  0  0  0  0
  -22.3880  -12.9550   22.1980 N   0  0  0  0  0  0  0  0  0  0  0  0
  -22.5990  -14.7090   20.8400 O   0  0  0  0  0  0  0  0  0  0  0  0
  -22.7730  -12.1070   22.5890 H   0  0  0  0  0  0  0  0  0  0  0  0
  -21.4760  -13.2620   22.5030 H   0  0  0  0  0  0  0  0  0  0  0  0
  -25.6510  -15.3110   20.3320 N   0  0  0  0  0  0  0  0  0  0  0  0
  -24.9010  -15.9700   20.5100 H   0  0  0  0  0  0  0  0  0  0  0  0
  -26.4600  -15.7390   19.9040 H   0  0  0  0  0  0  0  0  0  0  0  0
  -28.6900  -25.4840   20.6950 C   0  0  0  0  0  2  0  0  0  0  0  0
  -28.5980  -26.7210   19.9590 O   0  0  0  0  0  0  0  0  0  0  0  0
  -24.5560  -31.7300   23.0590 C   0  0  0  0  0  0  0  0  0  0  0  0
  -27.3990  -27.3980   19.9980 C   0  0  0  0  0  0  0  0  0  0  0  0
  -23.4230  -30.3000   21.3910 C   0  0  0  0  0  3  0  0  0  0  0  0
  -24.9520  -28.8200   19.9800 C   0  0  0  0  0  0  0  0  0  0  0  0
  -25.9370  -30.7450   21.2300 C   0  0  0  0  0  2  0  0  0  0  0  0
  -26.0820  -29.3780   20.5910 C   0  0  0  0  0  0  0  0  0  0  0  0
  -27.3080  -28.6730   20.6020 C   0  0  0  0  0  3  0  0  0  0  0  0
  -26.2560  -26.8630   19.3670 C   0  0  0  0  0  3  0  0  0  0  0  0
  -25.0360  -27.5620   19.3620 C   0  0  0  0  0  3  0  0  0  0  0  0
  -23.6730  -29.6290   20.0120 C   0  0  0  0  0  2  0  0  0  0  0  0
  -24.6540  -30.9400   21.9520 N   0  0  0  0  0  0  0  0  0  0  0  0
  -23.4610  -31.9680   23.5850 O   0  0  0  0  0  0  0  0  0  0  0  0
  -22.7900  -29.2550   22.3370 C   0  0  0  0  0  0  0  0  0  0  0  0
  -21.4700  -29.0540   22.2070 N   0  0  0  0  0  0  0  0  0  0  0  0
  -23.4820  -28.6270   23.1430 O   0  0  0  0  0  0  0  0  0  0  0  0
  -20.9710  -29.6100   21.5280 H   0  0  0  0  0  0  0  0  0  0  0  0
  -18.1140  -27.8140   22.7050 C   0  0  0  0  0  0  0  0  0  0  0  0
  -20.6710  -28.0880   22.9630 C   0  0  0  0  0  3  0  0  0  0  0  0
  -20.7820  -26.6720   22.3510 C   0  0  0  0  0  2  0  0  0  0  0  0
  -19.6730  -26.3650   21.3400 C   0  0  0  0  0  2  0  0  0  0  0  0
  -18.2960  -26.4820   21.9970 C   0  0  0  0  0  2  0  0  0  0  0  0
  -19.2300  -28.5750   23.1440 C   0  0  0  0  0  0  0  0  0  0  0  0
  -19.0050  -29.8210   23.7680 C   0  0  0  0  0  3  0  0  0  0  0  0
  -17.6980  -30.3080   23.9580 C   0  0  0  0  0  3  0  0  0  0  0  0
  -16.5960  -29.5410   23.5360 C   0  0  0  0  0  3  0  0  0  0  0  0
  -16.8050  -28.2970   22.9160 C   0  0  0  0  0  3  0  0  0  0  0  0
  -25.8130  -32.3960   23.7010 C   0  0  0  0  0  3  0  0  0  0  0  0
  -26.3570  -31.6210   24.9620 C   0  0  1  0  0  0  0  0  0  0  0  0
  -25.2680  -31.3150   26.0160 C   0  0  0  0  0  1  0  0  0  0  0  0
  -27.0030  -30.2800   24.5420 C   0  0  0  0  0  1  0  0  0  0  0  0
  -27.4750  -32.4460   25.6430 C   0  0  0  0  0  1  0  0  0  0  0  0
  -25.4500  -33.7760   24.0520 N   0  0  0  0  0  0  0  0  0  0  0  0
  -25.7470  -34.8540   23.3160 C   0  0  0  0  0  0  0  0  0  0  0  0
  -26.4250  -34.7930   22.2860 O   0  0  0  0  0  0  0  0  0  0  0  0
  -24.8400  -33.8910   24.8480 H   0  0  0  0  0  0  0  0  0  0  0  0
  -23.9460  -36.5780   22.9900 C   0  0  0  0  0  1  0  0  0  0  0  0
  -25.2030  -36.2130   23.7970 C   0  0  0  0  0  3  0  0  0  0  0  0
  -27.2960  -37.1690   24.6450 C   0  0  0  0  0  1  0  0  0  0  0  0
  -26.1920  -37.3070   23.6990 N   0  0  0  0  0  0  0  0  0  0  0  0
  -25.7480  -38.2070   23.8610 H   0  0  0  0  0  0  0  0  0  0  0  0
  1  3  1  0
  1  4  1  0
  2  8  2  0
  3  5  1  0
  4  6  1  0
  5 55  1  0
  5  2  1  0
  6  2  1  0
  6  9  1  0
  7  1  2  0
 10 12  2  0
 10 11  1  0
 11 13  2  0
 12 15  1  0
 13 14  1  0
 13  9  1  0
 14 16  1  0
 15 25  1  0
 15 14  2  0
 17 25  1  0
 18 23  1  0
 19 20  1  0
 19 18  1  0
 21 20  1  0
 21 30  1  0
 21 22  1  0
 23 17  1  0
 23 22  1  0
 24 17  2  0
 25 26  1  0
 27 28  2  0
 28 47  1  0
 29 28  1  0
 29 32  1  0
 30 31  1  0
 30 27  1  0
 31 29  2  0
 32 33  1  0
 33 34  2  0
 35 38  1  0
 35 34  1  0
 36 35  2  0
 37 36  1  0
 37 32  2  0
 38 39  1  0
 39 40  1  0
 40 41  2  0
 42 41  1  0
 42 46  1  0
 43 42  2  0
 44 39  2  0
 44 43  1  0
 45 44  1  0
 47 48  1  0
 48 51  1  0
 48 50  1  0
 49 47  2  0
 52 27  1  0
 52 53  1  0
 54 52  1  0
 56 58  1  0
 56 55  1  0
 57 68  2  0
 58 63  1  0
 59 67  1  0
 59 69  1  0
 60 66  1  0
 60 62  1  0
 61 67  1  0
 62 63  2  0
 62 61  1  0
 64 58  2  0
 65 64  1  0
 65 60  2  0
 66 59  1  0
 67 57  1  0
 69 71  2  0
 70 69  1  0
 72 70  1  0
 73 82  2  0
 73 78  1  0
 74 70  1  0
 74 78  1  0
 75 74  1  0
 76 77  1  0
 76 75  1  0
 77 73  1  0
 78 79  2  0
 79 80  1  0
 81 80  2  0
 82 81  1  0
 83 57  1  0
 83 88  1  0
 83 84  1  0
 84 87  1  1
 84 85  1  0
 86 84  1  0
 88 91  1  0
 89 93  1  0
 89 88  1  0
 90 89  2  0
 93 92  1  0
 95 93  1  0
 95 96  1  0
 95 94  1  0
M  ISO  4  17 100  25 100  55 101  56 101
M  END
>  <TORSDO>  (18) 
F 19

>  <SCORE>  (18) 
-12.461

>  <name>  (18) 
17

>  <ligand_id>  (18) 
17

>  <original_smiles>  (18) 
[H]c1c([H])c(N([H])C(=O)N2C([H])([H])C([H])([H])C([H])([H])C([H])(n3nc(-c4c([H])c([H])c(Oc5c([H])c([H])c(F)c([H])c5F)c([H])c4[H])c(C(=O)N([H])[H])c3N([H])[H])C2([H])[H])c(C([H])([H])[H])c(C([H])([H])N2C(=O)C([H])(C([H])([H])Oc3c([H])c([H])c4c(c3[H])C([H])([H])N(C(=O)C([H])(N([H])C(=O)C([H])(N([H])C([H])([H])[H])C([H])([H])[H])C(C([H])([H])[H])(C([H])([H])[H])C([H])([H])[H])C([H])(C(=O)N([H])C3([H])c5c([H])c([H])c([H])c([H])c5C([H])([H])C([H])([H])C3([H])[H])C4([H])[H])C([H])([H])C(=O)C2([H])[H])c1[H]

>  <smiles>  (18) 
[H]c1c([H])c(N([H])C(=O)N2C([H])([H])C([H])([H])C([H])([H])C([H])(n3nc(-c4c([H])c([H])c(Oc5c([H])c([H])c(F)c([H])c5F)c([H])c4[H])c(C(=O)N([H])[H])c3N([H])[H])C2([H])[H])c(C([H])([H])[H])c(C([H])([H])N2C(=O)C([H])(C([H])([H])Oc3c([H])c([H])c4c(c3[H])C([H])([H])N(C(=O)C([H])(N([H])C(=O)C([H])(N([H])C([H])([H])[H])C([H])([H])[H])C(C([H])([H])[H])(C([H])([H])[H])C([H])([H])[H])C([H])(C(=O)N([H])C3([H])c5c([H])c([H])c([H])c([H])c5C([H])([H])C([H])([H])C3([H])[H])C4([H])[H])C([H])([H])C(=O)C2([H])[H])c1[H]

$$$$
18:0:0
     RDKit          3D

 97106  0  0  1  0  0  0  0  0999 V2000
  -29.9550  -23.0040   19.2620 C   0  0  0  0  0  0  0  0  0  0  0  0
  -32.0580  -20.9670   19.1960 C   0  0  0  0  0  3  0  0  0  0  0  0
  -29.3870  -24.2480   19.3970 C   0  0  0  0  0  3  0  0  0  0  0  0
  -30.7690  -22.7230   18.0150 C   0  0  0  0  0  2  0  0  0  0  0  0
  -29.8850  -21.7710   20.2110 C   0  0  0  0  0  2  0  0  0  0  0  0
  -32.1660  -22.2340   18.3970 C   0  0  0  0  0  2  0  0  0  0  0  0
  -30.9430  -20.7070   19.9350 N   0  0  0  0  0  0  0  0  0  0  0  0
  -33.1310  -20.1460   19.1700 N   0  0  0  0  0  0  0  0  0  0  0  0
  -33.9750  -20.4080   18.6750 H   0  0  0  0  0  0  0  0  0  0  0  0
  -33.1710  -19.2860   19.7000 H   0  0  0  0  0  0  0  0  0  0  0  0
  -30.8510  -18.1270   20.0860 C   0  0  0  0  0  3  0  0  0  0  0  0
  -30.8240  -19.5120   22.1100 C   0  0  0  0  0  3  0  0  0  0  0  0
  -30.8030  -17.0740   22.2840 C   0  0  0  0  0  3  0  0  0  0  0  0
  -30.8490  -19.4320   20.7040 C   0  0  0  0  0  0  0  0  0  0  0  0
  -30.8310  -16.9270   20.8790 C   0  0  0  0  0  0  0  0  0  0  0  0
  -30.8080  -18.3440   22.8920 C   0  0  0  0  0  0  0  0  0  0  0  0
  -30.7950  -18.4410   24.2440 F   0  0  0  0  0  0  0  0  0  0  0  0
  -31.4140  -14.5440   20.0050 C   0  0  0  0  0  0  0  0  0  0  0  0
  -31.0360  -12.3680   18.8510 C   0  0  0  0  0  2  0  0  0  0  0  0
  -30.0510  -12.6060   17.6820 C   0  0  0  0  0  2  0  0  0  0  0  0
  -28.5820  -12.5640   18.1600 C   0  0  0  0  0  2  0  0  0  0  0  0
  -28.3430  -13.4010   19.4440 C   0  0  0  0  0  3  0  0  0  0  0  0
  -29.4250  -13.0820   20.5020 C   0  0  0  0  0  2  0  0  0  0  0  0
  -30.7370  -13.3610   19.8950 N   0  0  0  0  0  0  0  0  0  0  0  0
  -32.5660  -14.6960   19.5800 O   0  0  0  0  0  0  0  0  0  0  0  0
  -30.6130  -15.5770   20.3970 N   0  0  0  0  0  0  0  0  0  0  0  0
  -29.7080  -15.2080   20.6480 H   0  0  0  0  0  0  0  0  0  0  0  0
  -26.0290  -14.1790   20.2550 C   0  0  0  0  0  0  0  0  0  0  0  0
  -24.9170  -13.4890   20.6530 C   0  0  0  0  0  0  0  0  0  0  0  0
  -25.2670  -12.1050   20.5830 C   0  0  0  0  0  0  0  0  0  0  0  0
  -26.9910  -13.2230   19.9700 N   0  0  0  0  0  0  0  0  0  0  0  0
  -26.5390  -11.9700   20.2260 N   0  0  0  0  0  0  0  0  0  0  0  0
  -24.4510  -10.9010   20.7830 C   0  0  0  0  0  0  0  0  0  0  0  0
  -24.8310   -9.8980   21.7000 C   0  0  0  0  0  3  0  0  0  0  0  0
  -24.0240   -8.7560   21.8880 C   0  0  0  0  0  3  0  0  0  0  0  0
  -22.8190   -8.6110   21.1600 C   0  0  0  0  0  0  0  0  0  0  0  0
  -22.4560   -9.6020   20.2310 C   0  0  0  0  0  3  0  0  0  0  0  0
  -23.2630  -10.7360   20.0410 C   0  0  0  0  0  3  0  0  0  0  0  0
  -21.9850   -7.5240   21.2580 O   0  0  0  0  0  0  0  0  0  0  0  0
  -21.8670   -6.8100   22.4250 C   0  0  0  0  0  0  0  0  0  0  0  0
  -21.4850   -7.4190   23.6390 C   0  0  0  0  0  3  0  0  0  0  0  0
  -21.3130   -6.6340   24.7960 C   0  0  0  0  0  3  0  0  0  0  0  0
  -21.5120   -5.2420   24.7390 C   0  0  0  0  0  0  0  0  0  0  0  0
  -21.8870   -4.6330   23.5280 C   0  0  0  0  0  3  0  0  0  0  0  0
  -22.0610   -5.4150   22.3750 C   0  0  0  0  0  0  0  0  0  0  0  0
  -22.4040   -4.8200   21.2060 F   0  0  0  0  0  0  0  0  0  0  0  0
  -21.3350   -4.4870   25.8490 F   0  0  0  0  0  0  0  0  0  0  0  0
  -23.5710  -14.0700   20.9790 C   0  0  0  0  0  0  0  0  0  0  0  0
  -22.8350  -13.4400   21.8890 N   0  0  0  0  0  0  0  0  0  0  0  0
  -23.1840  -15.1170   20.4610 O   0  0  0  0  0  0  0  0  0  0  0  0
  -23.1610  -12.5940   22.3340 H   0  0  0  0  0  0  0  0  0  0  0  0
  -21.9340  -13.8110   22.1470 H   0  0  0  0  0  0  0  0  0  0  0  0
  -26.2990  -15.5360   20.0960 N   0  0  0  0  0  0  0  0  0  0  0  0
  -25.5890  -16.2460   20.2490 H   0  0  0  0  0  0  0  0  0  0  0  0
  -27.1620  -15.9130   19.7240 H   0  0  0  0  0  0  0  0  0  0  0  0
  -28.4830  -24.8980   20.4640 C   0  0  0  0  0  2  0  0  0  0  0  0
  -28.5760  -26.3690   20.4690 O   0  0  0  0  0  0  0  0  0  0  0  0
  -24.6470  -31.7510   23.1700 C   0  0  0  0  0  0  0  0  0  0  0  0
  -27.4190  -27.1450   20.3730 C   0  0  0  0  0  0  0  0  0  0  0  0
  -23.5210  -30.2900   21.5270 C   0  0  0  0  0  3  0  0  0  0  0  0
  -25.0360  -28.7070   20.2170 C   0  0  0  0  0  0  0  0  0  0  0  0
  -26.0600  -30.6310   21.4390 C   0  0  0  0  0  2  0  0  0  0  0  0
  -26.1720  -29.2340   20.8420 C   0  0  0  0  0  0  0  0  0  0  0  0
  -27.3650  -28.4630   20.9100 C   0  0  0  0  0  3  0  0  0  0  0  0
  -26.2650  -26.6620   19.7150 C   0  0  0  0  0  3  0  0  0  0  0  0
  -25.0820  -27.4230   19.6490 C   0  0  0  0  0  3  0  0  0  0  0  0
  -23.7940  -29.5720   20.1800 C   0  0  0  0  0  2  0  0  0  0  0  0
  -24.7580  -30.9090   22.1030 N   0  0  0  0  0  0  0  0  0  0  0  0
  -23.5420  -32.0350   23.6530 O   0  0  0  0  0  0  0  0  0  0  0  0
  -22.8250  -29.3000   22.4910 C   0  0  0  0  0  0  0  0  0  0  0  0
  -21.4980  -29.1390   22.3420 N   0  0  0  0  0  0  0  0  0  0  0  0
  -23.4770  -28.6800   23.3350 O   0  0  0  0  0  0  0  0  0  0  0  0
  -21.0310  -29.6870   21.6340 H   0  0  0  0  0  0  0  0  0  0  0  0
  -18.0910  -28.0240   22.8160 C   0  0  0  0  0  0  0  0  0  0  0  0
  -20.6520  -28.2270   23.1140 C   0  0  0  0  0  3  0  0  0  0  0  0
  -20.7270  -26.7860   22.5600 C   0  0  0  0  0  2  0  0  0  0  0  0
  -19.6310  -26.4770   21.5370 C   0  0  0  0  0  2  0  0  0  0  0  0
  -18.2440  -26.6640   22.1580 C   0  0  0  0  0  2  0  0  0  0  0  0
  -19.2230  -28.7650   23.2510 C   0  0  0  0  0  0  0  0  0  0  0  0
  -19.0260  -30.0380   23.8260 C   0  0  0  0  0  3  0  0  0  0  0  0
  -17.7330  -30.5730   23.9700 C   0  0  0  0  0  3  0  0  0  0  0  0
  -16.6150  -29.8300   23.5530 C   0  0  0  0  0  3  0  0  0  0  0  0
  -16.7960  -28.5570   22.9800 C   0  0  0  0  0  3  0  0  0  0  0  0
  -25.9020  -32.4110   23.8230 C   0  0  0  0  0  3  0  0  0  0  0  0
  -25.5520  -33.8000   24.1520 N   0  0  0  0  0  0  0  0  0  0  0  0
  -25.8650  -34.8640   23.4020 C   0  0  0  0  0  0  0  0  0  0  0  0
  -26.5500  -34.7810   22.3780 O   0  0  0  0  0  0  0  0  0  0  0  0
  -24.9450  -33.9390   24.9470 H   0  0  0  0  0  0  0  0  0  0  0  0
  -24.0800  -36.5980   23.0420 C   0  0  0  0  0  1  0  0  0  0  0  0
  -25.3320  -36.2370   23.8560 C   0  0  0  0  0  3  0  0  0  0  0  0
  -27.4360  -37.1890   24.6850 C   0  0  0  0  0  1  0  0  0  0  0  0
  -26.3300  -37.3230   23.7420 N   0  0  0  0  0  0  0  0  0  0  0  0
  -25.8940  -38.2300   23.8920 H   0  0  0  0  0  0  0  0  0  0  0  0
  -26.4080  -31.6490   25.1090 C   0  0  1  0  0  0  0  0  0  0  0  0
  -25.2960  -31.3770   26.1480 C   0  0  0  0  0  1  0  0  0  0  0  0
  -27.0390  -30.2900   24.7280 C   0  0  0  0  0  1  0  0  0  0  0  0
  -27.5210  -32.4700   25.8020 C   0  0  0  0  0  1  0  0  0  0  0  0
  1  3  2  0
  1  5  1  0
  2  8  1  0
  2  7  1  0
  3 56  1  0
  4  6  1  0
  4  1  1  0
  6  2  1  0
  7  5  1  0
  7 14  1  0
  8 10  1  0
  9  8  1  0
 11 14  2  0
 11 15  1  0
 12 16  2  0
 13 16  1  0
 14 12  1  0
 15 13  2  0
 16 17  1  0
 18 26  1  0
 19 24  1  0
 20 21  1  0
 20 19  1  0
 22 21  1  0
 22 31  1  0
 22 23  1  0
 24 18  1  0
 24 23  1  0
 25 18  2  0
 26 27  1  0
 26 15  1  0
 28 29  2  0
 29 48  1  0
 30 29  1  0
 30 33  1  0
 31 32  1  0
 31 28  1  0
 32 30  2  0
 33 34  1  0
 34 35  2  0
 36 39  1  0
 36 35  1  0
 37 36  2  0
 38 37  1  0
 38 33  2  0
 39 40  1  0
 40 41  1  0
 41 42  2  0
 43 42  1  0
 43 47  1  0
 44 43  2  0
 45 40  2  0
 45 44  1  0
 46 45  1  0
 48 49  1  0
 49 52  1  0
 49 51  1  0
 50 48  2  0
 53 54  1  0
 53 28  1  0
 55 53  1  0
 56 57  1  0
 58 69  2  0
 59 57  1  0
 59 64  1  0
 60 68  1  0
 60 70  1  0
 61 63  1  0
 62 68  1  0
 63 64  2  0
 63 62  1  0
 65 59  2  0
 66 65  1  0
 66 61  2  0
 67 61  1  0
 67 60  1  0
 68 58  1  0
 70 72  2  0
 71 70  1  0
 73 71  1  0
 74 83  2  0
 74 79  1  0
 75 71  1  0
 75 79  1  0
 76 75  1  0
 77 78  1  0
 77 76  1  0
 78 74  1  0
 79 80  2  0
 80 81  1  0
 82 81  2  0
 83 82  1  0
 84 58  1  0
 84 85  1  0
 84 94  1  0
 85 88  1  0
 86 90  1  0
 86 85  1  0
 87 86  2  0
 90 89  1  0
 92 90  1  0
 92 93  1  0
 92 91  1  0
 94 97  1  1
 94 95  1  0
 96 94  1  0
M  ISO  4  18 100  26 100  56 101  57 101
M  END
>  <TORSDO>  (19) 
F 18

>  <SCORE>  (19) 
-13.637

>  <name>  (19) 
18

>  <ligand_id>  (19) 
18

>  <original_smiles>  (19) 
[H]C(=C1C([H])([H])N(c2c([H])c(F)c([H])c(N([H])C(=O)N3C([H])([H])C([H])([H])C([H])([H])C([H])(n4nc(-c5c([H])c([H])c(Oc6c([H])c([H])c(F)c([H])c6F)c([H])c5[H])c(C(=O)N([H])[H])c4N([H])[H])C3([H])[H])c2[H])C(=[N+]([H])[H])C([H])([H])C1([H])[H])C([H])([H])Oc1c([H])c([H])c2c(c1[H])C([H])([H])N(C(=O)C([H])(N([H])C(=O)C([H])(N([H])C([H])([H])[H])C([H])([H])[H])C(C([H])([H])[H])(C([H])([H])[H])C([H])([H])[H])C([H])(C(=O)N([H])C1([H])c3c([H])c([H])c([H])c([H])c3C([H])([H])C([H])([H])C1([H])[H])C2([H])[H]

>  <smiles>  (19) 
[H]C(=C1C([H])([H])N(c2c([H])c(F)c([H])c(N([H])C(=O)N3C([H])([H])C([H])([H])C([H])([H])C([H])(n4nc(-c5c([H])c([H])c(Oc6c([H])c([H])c(F)c([H])c6F)c([H])c5[H])c(C(=O)N([H])[H])c4N([H])[H])C3([H])[H])c2[H])C(=[N+]([H])[H])C([H])([H])C1([H])[H])C([H])([H])Oc1c([H])c([H])c2c(c1[H])C([H])([H])N(C(=O)C([H])(N([H])C(=O)C([H])(N([H])C([H])([H])[H])C([H])([H])[H])C(C([H])([H])[H])(C([H])([H])[H])C([H])([H])[H])C([H])(C(=O)N([H])C1([H])c3c([H])c([H])c([H])c([H])c3C([H])([H])C([H])([H])C1([H])[H])C2([H])[H]

$$$$
19:0:0
     RDKit          3D

 96104  0  0  1  0  0  0  0  0999 V2000
  -30.3600  -22.7230   18.9580 C   0  0  0  0  0  0  0  0  0  0  0  0
  -29.9800  -21.4400   18.6880 N   0  0  0  0  0  0  0  0  0  0  0  0
  -31.4730  -23.1840   18.6780 O   0  0  0  0  0  0  0  0  0  0  0  0
  -31.2580  -21.1220   16.5710 C   0  0  0  0  0  2  0  0  0  0  0  0
  -30.4780  -20.6960   17.5870 C   0  0  0  0  0  3  0  0  0  0  0  0
  -29.2920  -23.5400   19.5200 C   0  0  0  0  0  3  0  0  0  0  0  0
  -29.5470  -24.6690   20.2040 C   0  0  0  0  0  3  0  0  0  0  0  0
  -28.4620  -25.5470   20.7820 C   0  0  0  0  0  2  0  0  0  0  0  0
  -28.4590  -26.8050   20.1230 O   0  0  0  0  0  0  0  0  0  0  0  0
  -24.6060  -31.8790   23.2320 C   0  0  0  0  0  0  0  0  0  0  0  0
  -27.2670  -27.4790   20.1580 C   0  0  0  0  0  0  0  0  0  0  0  0
  -23.3980  -30.4750   21.5890 C   0  0  0  0  0  3  0  0  0  0  0  0
  -24.8540  -28.9370   20.1720 C   0  0  0  0  0  0  0  0  0  0  0  0
  -25.9160  -30.8530   21.3830 C   0  0  0  0  0  2  0  0  0  0  0  0
  -26.0060  -29.4800   20.7530 C   0  0  0  0  0  0  0  0  0  0  0  0
  -27.2160  -28.7580   20.7440 C   0  0  0  0  0  3  0  0  0  0  0  0
  -26.1020  -26.9360   19.5710 C   0  0  0  0  0  3  0  0  0  0  0  0
  -24.8930  -27.6600   19.5810 C   0  0  0  0  0  3  0  0  0  0  0  0
  -23.6060  -29.7890   20.2120 C   0  0  0  0  0  2  0  0  0  0  0  0
  -24.6580  -31.0830   22.1280 N   0  0  0  0  0  0  0  0  0  0  0  0
  -23.5260  -32.1480   23.7750 O   0  0  0  0  0  0  0  0  0  0  0  0
  -22.7530  -29.4540   22.5520 C   0  0  0  0  0  0  0  0  0  0  0  0
  -21.4290  -29.2680   22.4250 N   0  0  0  0  0  0  0  0  0  0  0  0
  -23.4390  -28.8310   23.3660 O   0  0  0  0  0  0  0  0  0  0  0  0
  -20.9360  -29.8210   21.7360 H   0  0  0  0  0  0  0  0  0  0  0  0
  -18.0590  -28.0770   22.9280 C   0  0  0  0  0  0  0  0  0  0  0  0
  -20.6150  -28.3310   23.1980 C   0  0  0  0  0  3  0  0  0  0  0  0
  -20.7180  -26.9000   22.6200 C   0  0  0  0  0  2  0  0  0  0  0  0
  -19.6130  -26.5820   21.6090 C   0  0  0  0  0  2  0  0  0  0  0  0
  -18.2320  -26.7290   22.2530 C   0  0  0  0  0  2  0  0  0  0  0  0
  -19.1780  -28.8370   23.3580 C   0  0  0  0  0  0  0  0  0  0  0  0
  -18.9600  -30.1020   23.9470 C   0  0  0  0  0  3  0  0  0  0  0  0
  -17.6560  -30.6050   24.1150 C   0  0  0  0  0  3  0  0  0  0  0  0
  -16.5510  -29.8410   23.6980 C   0  0  0  0  0  3  0  0  0  0  0  0
  -16.7530  -28.5810   23.1090 C   0  0  0  0  0  3  0  0  0  0  0  0
  -25.8920  -32.5100   23.8510 C   0  0  0  0  0  3  0  0  0  0  0  0
  -25.5840  -33.9070   24.1830 N   0  0  0  0  0  0  0  0  0  0  0  0
  -25.9170  -34.9600   23.4230 C   0  0  0  0  0  0  0  0  0  0  0  0
  -26.5900  -34.8550   22.3940 O   0  0  0  0  0  0  0  0  0  0  0  0
  -24.9900  -34.0640   24.9840 H   0  0  0  0  0  0  0  0  0  0  0  0
  -24.1900  -36.7480   23.0560 C   0  0  0  0  0  1  0  0  0  0  0  0
  -25.4270  -36.3470   23.8760 C   0  0  0  0  0  3  0  0  0  0  0  0
  -27.5600  -37.2280   24.7170 C   0  0  0  0  0  1  0  0  0  0  0  0
  -26.4610  -37.4000   23.7710 N   0  0  0  0  0  0  0  0  0  0  0  0
  -26.0540  -38.3200   23.9210 H   0  0  0  0  0  0  0  0  0  0  0  0
  -26.4150  -31.7370   25.1240 C   0  0  1  0  0  0  0  0  0  0  0  0
  -25.3260  -31.4940   26.1940 C   0  0  0  0  0  1  0  0  0  0  0  0
  -27.0000  -30.3630   24.7250 C   0  0  0  0  0  1  0  0  0  0  0  0
  -27.5680  -32.5300   25.7820 C   0  0  0  0  0  1  0  0  0  0  0  0
  -29.0130  -20.7480   19.5760 C   0  0  0  0  0  2  0  0  0  0  0  0
  -30.5940  -17.7540   21.4780 C   0  0  0  0  0  3  0  0  0  0  0  0
  -28.9750  -16.9380   19.8540 C   0  0  0  0  0  3  0  0  0  0  0  0
  -30.3390  -19.0860   21.0570 C   0  0  0  0  0  0  0  0  0  0  0  0
  -29.3850  -19.3350   20.0320 C   0  0  0  0  0  0  0  0  0  0  0  0
  -29.9110  -16.6740   20.8730 C   0  0  0  0  0  0  0  0  0  0  0  0
  -28.7130  -18.2480   19.4350 C   0  0  0  0  0  0  0  0  0  0  0  0
  -31.0790  -20.2310   21.7300 C   0  0  0  0  0  1  0  0  0  0  0  0
  -27.8040  -18.4530   18.4520 F   0  0  0  0  0  0  0  0  0  0  0  0
  -30.6900  -14.4130   20.5370 C   0  0  0  0  0  0  0  0  0  0  0  0
  -30.3510  -12.2920   19.3300 C   0  0  0  0  0  2  0  0  0  0  0  0
  -29.4210  -12.5450   18.1280 C   0  0  0  0  0  2  0  0  0  0  0  0
  -27.9480  -12.3820   18.5540 C   0  0  0  0  0  2  0  0  0  0  0  0
  -27.6090  -13.2040   19.8240 C   0  0  0  0  0  3  0  0  0  0  0  0
  -28.6570  -12.9670   20.9370 C   0  0  0  0  0  2  0  0  0  0  0  0
  -29.9970  -13.2510   20.3870 N   0  0  0  0  0  0  0  0  0  0  0  0
  -31.7640  -14.6420   19.9750 O   0  0  0  0  0  0  0  0  0  0  0  0
  -30.1010  -15.3370   21.3100 N   0  0  0  0  0  0  0  0  0  0  0  0
  -29.3380  -14.9590   21.8510 H   0  0  0  0  0  0  0  0  0  0  0  0
  -25.2060  -13.8380   20.5010 C   0  0  0  0  0  0  0  0  0  0  0  0
  -24.1330  -13.0700   20.8610 C   0  0  0  0  0  0  0  0  0  0  0  0
  -24.5920  -11.7170   20.8400 C   0  0  0  0  0  0  0  0  0  0  0  0
  -26.2500  -12.9480   20.2890 N   0  0  0  0  0  0  0  0  0  0  0  0
  -25.8840  -11.6700   20.5500 N   0  0  0  0  0  0  0  0  0  0  0  0
  -23.8640  -10.4590   21.0350 C   0  0  0  0  0  0  0  0  0  0  0  0
  -24.2930   -9.4960   21.9720 C   0  0  0  0  0  3  0  0  0  0  0  0
  -23.5660   -8.3000   22.1520 C   0  0  0  0  0  3  0  0  0  0  0  0
  -22.3950   -8.0620   21.3960 C   0  0  0  0  0  0  0  0  0  0  0  0
  -21.9820   -9.0170   20.4490 C   0  0  0  0  0  3  0  0  0  0  0  0
  -22.7110  -10.2030   20.2680 C   0  0  0  0  0  3  0  0  0  0  0  0
  -21.6390   -6.9180   21.4860 O   0  0  0  0  0  0  0  0  0  0  0  0
  -21.5980   -6.1730   22.6350 C   0  0  0  0  0  0  0  0  0  0  0  0
  -21.1830   -6.7250   23.8680 C   0  0  0  0  0  3  0  0  0  0  0  0
  -21.0820   -5.9040   25.0080 C   0  0  0  0  0  3  0  0  0  0  0  0
  -21.3920   -4.5340   24.9200 C   0  0  0  0  0  0  0  0  0  0  0  0
  -21.8040   -3.9820   23.6940 C   0  0  0  0  0  3  0  0  0  0  0  0
  -21.9030   -4.7990   22.5560 C   0  0  0  0  0  0  0  0  0  0  0  0
  -22.2760   -4.2580   21.3700 F   0  0  0  0  0  0  0  0  0  0  0  0
  -21.2900   -3.7440   26.0150 F   0  0  0  0  0  0  0  0  0  0  0  0
  -22.7370  -13.5520   21.1250 C   0  0  0  0  0  0  0  0  0  0  0  0
  -22.0080  -12.8630   21.9950 N   0  0  0  0  0  0  0  0  0  0  0  0
  -22.3040  -14.5760   20.5970 O   0  0  0  0  0  0  0  0  0  0  0  0
  -22.3710  -12.0330   22.4410 H   0  0  0  0  0  0  0  0  0  0  0  0
  -21.0720  -13.1690   22.2210 H   0  0  0  0  0  0  0  0  0  0  0  0
  -25.3700  -15.2080   20.3200 N   0  0  0  0  0  0  0  0  0  0  0  0
  -24.5860  -15.8440   20.4170 H   0  0  0  0  0  0  0  0  0  0  0  0
  -26.2210  -15.6720   20.0300 H   0  0  0  0  0  0  0  0  0  0  0  0
  1  6  1  0
  2  1  1  0
  2 50  1  0
  3  1  2  0
  4  5  2  0
  5  2  1  0
  6  7  2  0
  7  8  1  0
  9 11  1  0
  9  8  1  0
 10 21  2  0
 11 16  1  0
 12 20  1  0
 12 22  1  0
 13 19  1  0
 13 15  1  0
 14 20  1  0
 15 14  1  0
 16 15  2  0
 17 18  1  0
 17 11  2  0
 18 13  2  0
 19 12  1  0
 20 10  1  0
 22 24  2  0
 23 22  1  0
 25 23  1  0
 26 35  2  0
 26 31  1  0
 27 23  1  0
 27 31  1  0
 28 27  1  0
 29 30  1  0
 29 28  1  0
 30 26  1  0
 31 32  2  0
 32 33  1  0
 34 33  2  0
 35 34  1  0
 36 10  1  0
 36 37  1  0
 36 46  1  0
 37 40  1  0
 38 42  1  0
 38 37  1  0
 39 38  2  0
 42 41  1  0
 44 42  1  0
 44 45  1  0
 44 43  1  0
 46 49  1  1
 46 47  1  0
 48 46  1  0
 50 54  1  0
 52 55  1  0
 53 51  1  0
 53 57  1  0
 54 53  2  0
 55 67  1  0
 55 51  2  0
 56 52  2  0
 56 54  1  0
 58 56  1  0
 59 67  1  0
 60 65  1  0
 61 62  1  0
 61 60  1  0
 63 62  1  0
 63 72  1  0
 63 64  1  0
 65 59  1  0
 65 64  1  0
 66 59  2  0
 67 68  1  0
 69 70  2  0
 70 89  1  0
 71 70  1  0
 71 74  1  0
 72 69  1  0
 72 73  1  0
 73 71  2  0
 74 75  1  0
 75 76  2  0
 77 80  1  0
 77 76  1  0
 78 77  2  0
 79 78  1  0
 79 74  2  0
 80 81  1  0
 81 82  1  0
 82 83  2  0
 84 83  1  0
 84 88  1  0
 85 84  2  0
 86 81  2  0
 86 85  1  0
 87 86  1  0
 89 90  1  0
 90 93  1  0
 90 92  1  0
 91 89  2  0
 94 95  1  0
 94 69  1  0
 96 94  1  0
M  ISO  4   8 101   9 101  59 100  67 100
M  END
>  <TORSDO>  (20) 
F 21

>  <SCORE>  (20) 
-13.954

>  <name>  (20) 
19

>  <ligand_id>  (20) 
19

>  <original_smiles>  (20) 
[H]C([H])=C([H])N(C(=O)C([H])=C([H])C([H])([H])Oc1c([H])c([H])c2c(c1[H])C([H])([H])N(C(=O)C([H])(N([H])C(=O)C([H])(N([H])C([H])([H])[H])C([H])([H])[H])C(C([H])([H])[H])(C([H])([H])[H])C([H])([H])[H])C([H])(C(=O)N([H])C1([H])c3c([H])c([H])c([H])c([H])c3C([H])([H])C([H])([H])C1([H])[H])C2([H])[H])C([H])([H])c1c(F)c([H])c(N([H])C(=O)N2C([H])([H])C([H])([H])C([H])([H])C([H])(n3nc(-c4c([H])c([H])c(Oc5c([H])c([H])c(F)c([H])c5F)c([H])c4[H])c(C(=O)N([H])[H])c3N([H])[H])C2([H])[H])c([H])c1C([H])([H])[H]

>  <smiles>  (20) 
[H]C([H])=C([H])N(C(=O)C([H])=C([H])C([H])([H])Oc1c([H])c([H])c2c(c1[H])C([H])([H])N(C(=O)C([H])(N([H])C(=O)C([H])(N([H])C([H])([H])[H])C([H])([H])[H])C(C([H])([H])[H])(C([H])([H])[H])C([H])([H])[H])C([H])(C(=O)N([H])C1([H])c3c([H])c([H])c([H])c([H])c3C([H])([H])C([H])([H])C1([H])[H])C2([H])[H])C([H])([H])c1c(F)c([H])c(N([H])C(=O)N2C([H])([H])C([H])([H])C([H])([H])C([H])(n3nc(-c4c([H])c([H])c(Oc5c([H])c([H])c(F)c([H])c5F)c([H])c4[H])c(C(=O)N([H])[H])c3N([H])[H])C2([H])[H])c([H])c1C([H])([H])[H]

$$$$
20:0:0
     RDKit          3D

 97106  0  0  1  0  0  0  0  0999 V2000
  -28.2000  -21.8210   20.6520 C   0  0  0  0  0  0  0  0  0  0  0  0
  -27.9640  -23.0740   19.7910 C   0  0  0  0  0  2  0  0  0  0  0  0
  -29.9880  -24.1340   20.8300 C   0  0  0  0  0  2  0  0  0  0  0  0
  -30.1190  -22.9170   21.7680 C   0  0  0  0  0  2  0  0  0  0  0  0
  -28.5370  -24.3770   20.3750 C   0  0  0  0  0  3  0  0  0  0  0  0
  -29.3750  -21.7220   21.3240 N   0  0  0  0  0  0  0  0  0  0  0  0
  -27.3740  -20.9060   20.6110 O   0  0  0  0  0  0  0  0  0  0  0  0
  -29.8990  -20.4260   21.8040 C   0  0  0  0  0  2  0  0  0  0  0  0
  -30.0010  -17.9840   21.1410 C   0  0  0  0  0  3  0  0  0  0  0  0
  -30.6170  -17.2310   18.9200 C   0  0  0  0  0  3  0  0  0  0  0  0
  -30.1860  -19.3360   20.7500 C   0  0  0  0  0  0  0  0  0  0  0  0
  -30.6810  -19.6110   19.4380 C   0  0  0  0  0  0  0  0  0  0  0  0
  -30.2770  -16.9150   20.2530 C   0  0  0  0  0  0  0  0  0  0  0  0
  -30.8240  -18.5520   18.5150 C   0  0  0  0  0  0  0  0  0  0  0  0
  -31.1360  -20.9950   19.0060 C   0  0  0  0  0  1  0  0  0  0  0  0
  -30.8660  -14.5250   20.1320 C   0  0  0  0  0  0  0  0  0  0  0  0
  -30.5070  -12.3830   18.9870 C   0  0  0  0  0  2  0  0  0  0  0  0
  -29.5120  -12.6170   17.8320 C   0  0  0  0  0  2  0  0  0  0  0  0
  -28.0540  -12.5110   18.3230 C   0  0  0  0  0  2  0  0  0  0  0  0
  -27.7910  -13.3220   19.6210 C   0  0  0  0  0  3  0  0  0  0  0  0
  -28.8920  -13.0620   20.6720 C   0  0  0  0  0  2  0  0  0  0  0  0
  -30.1930  -13.3500   20.0510 N   0  0  0  0  0  0  0  0  0  0  0  0
  -31.9740  -14.6890   19.6070 O   0  0  0  0  0  0  0  0  0  0  0  0
  -30.1910  -15.5540   20.6870 N   0  0  0  0  0  0  0  0  0  0  0  0
  -29.4330  -15.3210   21.3130 H   0  0  0  0  0  0  0  0  0  0  0  0
  -25.4370  -13.9320   20.4670 C   0  0  0  0  0  0  0  0  0  0  0  0
  -24.3820  -13.1600   20.8720 C   0  0  0  0  0  0  0  0  0  0  0  0
  -24.8220  -11.8040   20.7730 C   0  0  0  0  0  0  0  0  0  0  0  0
  -26.4570  -13.0470   20.1540 N   0  0  0  0  0  0  0  0  0  0  0  0
  -26.0930  -11.7590   20.3900 N   0  0  0  0  0  0  0  0  0  0  0  0
  -24.0900  -10.5450   20.9630 C   0  0  0  0  0  0  0  0  0  0  0  0
  -24.5140   -9.5810   21.9040 C   0  0  0  0  0  3  0  0  0  0  0  0
  -23.7840   -8.3860   22.0840 C   0  0  0  0  0  3  0  0  0  0  0  0
  -22.6170   -8.1470   21.3200 C   0  0  0  0  0  0  0  0  0  0  0  0
  -22.2100   -9.1000   20.3680 C   0  0  0  0  0  3  0  0  0  0  0  0
  -22.9410  -10.2860   20.1880 C   0  0  0  0  0  3  0  0  0  0  0  0
  -21.8590   -7.0040   21.4090 O   0  0  0  0  0  0  0  0  0  0  0  0
  -21.7350   -6.3100   22.5860 C   0  0  0  0  0  0  0  0  0  0  0  0
  -21.1950   -6.9040   23.7470 C   0  0  0  0  0  3  0  0  0  0  0  0
  -21.0170   -6.1350   24.9140 C   0  0  0  0  0  3  0  0  0  0  0  0
  -21.3750   -4.7740   24.9230 C   0  0  0  0  0  0  0  0  0  0  0  0
  -21.9140   -4.1800   23.7670 C   0  0  0  0  0  3  0  0  0  0  0  0
  -22.0900   -4.9460   22.6020 C   0  0  0  0  0  0  0  0  0  0  0  0
  -22.5870   -4.3630   21.4840 F   0  0  0  0  0  0  0  0  0  0  0  0
  -21.2020   -4.0320   26.0420 F   0  0  0  0  0  0  0  0  0  0  0  0
  -23.0080  -13.6430   21.2420 C   0  0  0  0  0  0  0  0  0  0  0  0
  -22.3240  -12.9340   22.1340 N   0  0  0  0  0  0  0  0  0  0  0  0
  -22.5510  -14.6840   20.7710 O   0  0  0  0  0  0  0  0  0  0  0  0
  -22.7030  -12.0920   22.5380 H   0  0  0  0  0  0  0  0  0  0  0  0
  -21.4060  -13.2450   22.4200 H   0  0  0  0  0  0  0  0  0  0  0  0
  -25.6100  -15.3060   20.3250 N   0  0  0  0  0  0  0  0  0  0  0  0
  -24.8690  -15.9720   20.5130 H   0  0  0  0  0  0  0  0  0  0  0  0
  -26.4430  -15.7400   19.9500 H   0  0  0  0  0  0  0  0  0  0  0  0
  -30.2360  -19.2710   16.3510 C   0  0  0  0  0  1  0  0  0  0  0  0
  -31.2360  -18.7600   17.2220 O   0  0  0  0  0  0  0  0  0  0  0  0
  -28.4660  -25.5360   19.3470 C   0  0  0  0  0  2  0  0  0  0  0  0
  -28.3980  -26.8190   19.9800 O   0  0  0  0  0  0  0  0  0  0  0  0
  -24.6660  -31.8500   23.3600 C   0  0  0  0  0  0  0  0  0  0  0  0
  -27.2020  -27.5100   20.0360 C   0  0  0  0  0  0  0  0  0  0  0  0
  -23.4210  -30.5500   21.6680 C   0  0  0  0  0  3  0  0  0  0  0  0
  -24.8270  -29.0510   20.1670 C   0  0  0  0  0  0  0  0  0  0  0  0
  -25.9520  -30.8690   21.4630 C   0  0  0  0  0  2  0  0  0  0  0  0
  -26.0040  -29.5310   20.7540 C   0  0  0  0  0  0  0  0  0  0  0  0
  -27.1930  -28.7700   20.6810 C   0  0  0  0  0  3  0  0  0  0  0  0
  -25.9880  -27.0280   19.4870 C   0  0  0  0  0  3  0  0  0  0  0  0
  -24.8100  -27.7930   19.5450 C   0  0  0  0  0  3  0  0  0  0  0  0
  -23.6050  -29.9360   20.2570 C   0  0  0  0  0  2  0  0  0  0  0  0
  -24.6980  -31.1020   22.2210 N   0  0  0  0  0  0  0  0  0  0  0  0
  -23.5970  -32.1150   23.9250 O   0  0  0  0  0  0  0  0  0  0  0  0
  -22.7620  -29.4910   22.5850 C   0  0  0  0  0  0  0  0  0  0  0  0
  -21.4380  -29.3230   22.4470 N   0  0  0  0  0  0  0  0  0  0  0  0
  -23.4420  -28.8290   23.3740 O   0  0  0  0  0  0  0  0  0  0  0  0
  -20.9560  -29.9070   21.7800 H   0  0  0  0  0  0  0  0  0  0  0  0
  -18.0580  -28.1230   22.8760 C   0  0  0  0  0  0  0  0  0  0  0  0
  -20.6130  -28.3610   23.1760 C   0  0  0  0  0  3  0  0  0  0  0  0
  -20.7170  -26.9520   22.5500 C   0  0  0  0  0  2  0  0  0  0  0  0
  -19.6220  -26.6690   21.5160 C   0  0  0  0  0  2  0  0  0  0  0  0
  -18.2360  -26.7960   22.1560 C   0  0  0  0  0  2  0  0  0  0  0  0
  -19.1760  -28.8650   23.3410 C   0  0  0  0  0  0  0  0  0  0  0  0
  -18.9570  -30.1070   23.9740 C   0  0  0  0  0  3  0  0  0  0  0  0
  -17.6540  -30.6100   24.1450 C   0  0  0  0  0  3  0  0  0  0  0  0
  -16.5500  -29.8620   23.6990 C   0  0  0  0  0  3  0  0  0  0  0  0
  -16.7530  -28.6200   23.0710 C   0  0  0  0  0  3  0  0  0  0  0  0
  -25.9720  -32.4260   23.9920 C   0  0  0  0  0  3  0  0  0  0  0  0
  -26.5020  -31.5770   25.2120 C   0  0  1  0  0  0  0  0  0  0  0  0
  -25.4210  -31.2790   26.2790 C   0  0  0  0  0  1  0  0  0  0  0  0
  -27.0700  -30.2210   24.7300 C   0  0  0  0  0  1  0  0  0  0  0  0
  -27.6650  -32.3230   25.9060 C   0  0  0  0  0  1  0  0  0  0  0  0
  -25.6900  -33.8070   24.4040 N   0  0  0  0  0  0  0  0  0  0  0  0
  -26.0390  -34.8950   23.7060 C   0  0  0  0  0  0  0  0  0  0  0  0
  -26.7080  -34.8400   22.6710 O   0  0  0  0  0  0  0  0  0  0  0  0
  -25.1000  -33.9220   25.2160 H   0  0  0  0  0  0  0  0  0  0  0  0
  -24.3680  -36.7510   23.4180 C   0  0  0  0  0  1  0  0  0  0  0  0
  -25.5720  -36.2640   24.2400 C   0  0  0  0  0  3  0  0  0  0  0  0
  -27.6970  -37.0350   25.1980 C   0  0  0  0  0  1  0  0  0  0  0  0
  -26.6330  -37.2930   24.2310 N   0  0  0  0  0  0  0  0  0  0  0  0
  -26.2450  -38.2120   24.4260 H   0  0  0  0  0  0  0  0  0  0  0  0
  1  6  1  0
  2  5  1  0
  2  1  1  0
  3  4  1  0
  5 56  1  0
  5  3  1  0
  6  4  1  0
  6  8  1  0
  7  1  2  0
 10 13  1  0
 11  9  1  0
 11  8  1  0
 12 11  2  0
 13 24  1  0
 13  9  2  0
 14 10  2  0
 14 12  1  0
 15 12  1  0
 16 24  1  0
 17 22  1  0
 18 19  1  0
 18 17  1  0
 20 19  1  0
 20 29  1  0
 20 21  1  0
 22 16  1  0
 22 21  1  0
 23 16  2  0
 24 25  1  0
 26 27  2  0
 27 46  1  0
 28 27  1  0
 28 31  1  0
 29 30  1  0
 29 26  1  0
 30 28  2  0
 31 32  1  0
 32 33  2  0
 34 37  1  0
 34 33  1  0
 35 34  2  0
 36 35  1  0
 36 31  2  0
 37 38  1  0
 38 43  2  0
 38 39  1  0
 39 40  2  0
 40 41  1  0
 41 45  1  0
 42 41  2  0
 43 42  1  0
 44 43  1  0
 46 47  1  0
 47 50  1  0
 47 49  1  0
 48 46  2  0
 51 26  1  0
 51 52  1  0
 53 51  1  0
 54 55  1  0
 55 14  1  0
 56 57  1  0
 57 59  1  0
 58 69  2  0
 59 64  1  0
 60 68  1  0
 60 70  1  0
 61 67  1  0
 61 63  1  0
 62 68  1  0
 63 62  1  0
 64 63  2  0
 65 66  1  0
 65 59  2  0
 66 61  2  0
 67 60  1  0
 68 58  1  0
 70 72  2  0
 71 70  1  0
 73 71  1  0
 74 83  2  0
 74 79  1  0
 75 71  1  0
 75 79  1  0
 76 75  1  0
 77 78  1  0
 77 76  1  0
 78 74  1  0
 79 80  2  0
 80 81  1  0
 82 81  2  0
 83 82  1  0
 84 58  1  0
 84 89  1  0
 84 85  1  0
 85 88  1  1
 85 86  1  0
 87 85  1  0
 89 92  1  0
 90 94  1  0
 90 89  1  0
 91 90  2  0
 94 93  1  0
 96 94  1  0
 96 97  1  0
 96 95  1  0
M  ISO  4  16 100  24 100  56 101  57 101
M  END
>  <TORSDO>  (21) 
F 20

>  <SCORE>  (21) 
-13.558

>  <name>  (21) 
20

>  <ligand_id>  (21) 
20

>  <original_smiles>  (21) 
[H]c1c([H])c([H])c2c(c1[H])C([H])([H])C([H])([H])C([H])([H])C2([H])N([H])C(=O)C1([H])N(C(=O)C([H])(N([H])C(=O)C([H])(N([H])C([H])([H])[H])C([H])([H])[H])C(C([H])([H])[H])(C([H])([H])[H])C([H])([H])[H])C([H])([H])c2c([H])c(OC([H])([H])C3([H])C([H])([H])C(=O)N(C([H])([H])c4c([H])c(N([H])C(=O)N5C([H])([H])C([H])([H])C([H])([H])C([H])(n6nc(-c7c([H])c([H])c(Oc8c([H])c([H])c(F)c([H])c8F)c([H])c7[H])c(C(=O)N([H])[H])c6N([H])[H])C5([H])[H])c([H])c(OC([H])([H])[H])c4C([H])([H])[H])C([H])([H])C3([H])[H])c([H])c([H])c2C1([H])[H]

>  <smiles>  (21) 
[H]c1c([H])c([H])c2c(c1[H])C([H])([H])C([H])([H])C([H])([H])C2([H])N([H])C(=O)C1([H])N(C(=O)C([H])(N([H])C(=O)C([H])(N([H])C([H])([H])[H])C([H])([H])[H])C(C([H])([H])[H])(C([H])([H])[H])C([H])([H])[H])C([H])([H])c2c([H])c(OC([H])([H])C3([H])C([H])([H])C(=O)N(C([H])([H])c4c([H])c(N([H])C(=O)N5C([H])([H])C([H])([H])C([H])([H])C([H])(n6nc(-c7c([H])c([H])c(Oc8c([H])c([H])c(F)c([H])c8F)c([H])c7[H])c(C(=O)N([H])[H])c6N([H])[H])C5([H])[H])c([H])c(OC([H])([H])[H])c4C([H])([H])[H])C([H])([H])C3([H])[H])c([H])c([H])c2C1([H])[H]

$$$$
21:0:0
     RDKit          3D

 98107  0  0  1  0  0  0  0  0999 V2000
  -28.8450  -19.7880   19.3140 C   0  0  0  0  0  2  0  0  0  0  0  0
  -27.2260  -21.7060   19.3020 C   0  0  0  0  0  0  0  0  0  0  0  0
  -26.9390  -23.2330   19.2880 C   0  0  0  0  0  2  0  0  0  0  0  0
  -29.1320  -23.3380   18.0000 C   0  0  0  0  0  2  0  0  0  0  0  0
  -29.5990  -22.1680   18.9090 C   0  0  0  0  0  2  0  0  0  0  0  0
  -28.0050  -24.1760   18.6560 C   0  0  0  0  0  3  0  0  0  0  0  0
  -28.5040  -21.2450   19.2420 N   0  0  0  0  0  0  0  0  0  0  0  0
  -26.2540  -20.9510   19.3990 O   0  0  0  0  0  0  0  0  0  0  0  0
  -27.3990  -25.2460   17.6720 C   0  0  0  0  0  2  0  0  0  0  0  0
  -27.3700  -26.6270   18.1140 O   0  0  0  0  0  0  0  0  0  0  0  0
  -24.1960  -31.3010   22.4520 C   0  0  0  0  0  0  0  0  0  0  0  0
  -26.2000  -27.3320   18.3600 C   0  0  0  0  0  0  0  0  0  0  0  0
  -22.7000  -30.1340   20.8630 C   0  0  0  0  0  3  0  0  0  0  0  0
  -23.8590  -28.8220   19.0020 C   0  0  0  0  0  0  0  0  0  0  0  0
  -25.1610  -30.5320   20.2830 C   0  0  0  0  0  2  0  0  0  0  0  0
  -25.1080  -29.2630   19.4510 C   0  0  0  0  0  0  0  0  0  0  0  0
  -26.2730  -28.5210   19.1320 C   0  0  0  0  0  3  0  0  0  0  0  0
  -24.9240  -26.9160   17.9110 C   0  0  0  0  0  3  0  0  0  0  0  0
  -23.7630  -27.6480   18.2340 C   0  0  0  0  0  3  0  0  0  0  0  0
  -22.6520  -29.6520   19.3880 C   0  0  0  0  0  2  0  0  0  0  0  0
  -24.0460  -30.6650   21.2540 N   0  0  0  0  0  0  0  0  0  0  0  0
  -23.2290  -31.4850   23.2040 O   0  0  0  0  0  0  0  0  0  0  0  0
  -22.2090  -28.9850   21.7710 C   0  0  0  0  0  0  0  0  0  0  0  0
  -20.8820  -28.7770   21.8190 N   0  0  0  0  0  0  0  0  0  0  0  0
  -23.0130  -28.2820   22.3930 O   0  0  0  0  0  0  0  0  0  0  0  0
  -20.2870  -29.3900   21.2780 H   0  0  0  0  0  0  0  0  0  0  0  0
  -17.6440  -27.3720   22.5720 C   0  0  0  0  0  0  0  0  0  0  0  0
  -20.2040  -27.7290   22.5790 C   0  0  0  0  0  3  0  0  0  0  0  0
  -20.2900  -26.3700   21.8500 C   0  0  0  0  0  2  0  0  0  0  0  0
  -19.0930  -26.1030   20.9340 C   0  0  0  0  0  2  0  0  0  0  0  0
  -17.7880  -26.1120   21.7360 C   0  0  0  0  0  2  0  0  0  0  0  0
  -18.7760  -28.1400   22.9530 C   0  0  0  0  0  0  0  0  0  0  0  0
  -18.5800  -29.3250   23.6960 C   0  0  0  0  0  3  0  0  0  0  0  0
  -17.2860  -29.7400   24.0620 C   0  0  0  0  0  3  0  0  0  0  0  0
  -16.1710  -28.9630   23.6990 C   0  0  0  0  0  3  0  0  0  0  0  0
  -16.3500  -27.7820   22.9580 C   0  0  0  0  0  3  0  0  0  0  0  0
  -25.5770  -31.8520   22.9200 C   0  0  0  0  0  3  0  0  0  0  0  0
  -26.3640  -30.8500   23.8490 C   0  0  1  0  0  0  0  0  0  0  0  0
  -25.5320  -30.3360   25.0480 C   0  0  0  0  0  1  0  0  0  0  0  0
  -26.8510  -29.6210   23.0450 C   0  0  0  0  0  1  0  0  0  0  0  0
  -27.6270  -31.5410   24.4130 C   0  0  0  0  0  1  0  0  0  0  0  0
  -25.3320  -33.1230   23.6140 N   0  0  0  0  0  0  0  0  0  0  0  0
  -25.5690  -34.3340   23.0940 C   0  0  0  0  0  0  0  0  0  0  0  0
  -26.0820  -34.4980   21.9820 O   0  0  0  0  0  0  0  0  0  0  0  0
  -24.8590  -33.0660   24.5040 H   0  0  0  0  0  0  0  0  0  0  0  0
  -23.8340  -36.1260   23.4220 C   0  0  0  0  0  1  0  0  0  0  0  0
  -25.1670  -35.5590   23.9350 C   0  0  0  0  0  3  0  0  0  0  0  0
  -27.4050  -36.2590   24.6630 C   0  0  0  0  0  1  0  0  0  0  0  0
  -26.1900  -36.6260   23.9430 N   0  0  0  0  0  0  0  0  0  0  0  0
  -25.8180  -37.4760   24.3590 H   0  0  0  0  0  0  0  0  0  0  0  0
  -31.5360  -18.0660   22.3140 C   0  0  0  0  0  3  0  0  0  0  0  0
  -30.3850  -17.9400   20.1800 C   0  0  0  0  0  3  0  0  0  0  0  0
  -31.0150  -19.3520   22.5500 C   0  0  0  0  0  0  0  0  0  0  0  0
  -29.8440  -19.2500   20.3770 C   0  0  0  0  0  0  0  0  0  0  0  0
  -30.1270  -19.9300   21.6020 C   0  0  0  0  0  0  0  0  0  0  0  0
  -31.1900  -17.3210   21.1720 C   0  0  0  0  0  0  0  0  0  0  0  0
  -29.4210  -21.2330   21.9630 C   0  0  0  0  0  1  0  0  0  0  0  0
  -32.0300  -15.0870   20.2830 C   0  0  0  0  0  0  0  0  0  0  0  0
  -31.6710  -12.8230   19.3240 C   0  0  0  0  0  2  0  0  0  0  0  0
  -30.7910  -12.8980   18.0560 C   0  0  0  0  0  2  0  0  0  0  0  0
  -29.2920  -12.8960   18.4230 C   0  0  0  0  0  2  0  0  0  0  0  0
  -28.9590  -13.9410   19.5170 C   0  0  0  0  0  3  0  0  0  0  0  0
  -29.9190  -13.7820   20.7120 C   0  0  0  0  0  2  0  0  0  0  0  0
  -31.3060  -13.9330   20.2230 N   0  0  0  0  0  0  0  0  0  0  0  0
  -33.0720  -15.2710   19.6480 O   0  0  0  0  0  0  0  0  0  0  0  0
  -31.5860  -15.9430   21.2220 N   0  0  0  0  0  0  0  0  0  0  0  0
  -31.0450  -15.4410   21.9120 H   0  0  0  0  0  0  0  0  0  0  0  0
  -26.6290  -14.8640   20.1060 C   0  0  0  0  0  0  0  0  0  0  0  0
  -25.4580  -14.2400   20.4460 C   0  0  0  0  0  0  0  0  0  0  0  0
  -25.7480  -12.8420   20.4660 C   0  0  0  0  0  0  0  0  0  0  0  0
  -27.5620  -13.8520   19.9390 N   0  0  0  0  0  0  0  0  0  0  0  0
  -27.0300  -12.6310   20.2070 N   0  0  0  0  0  0  0  0  0  0  0  0
  -24.8650  -11.6840   20.6550 C   0  0  0  0  0  0  0  0  0  0  0  0
  -25.1530  -10.6840   21.6100 C   0  0  0  0  0  3  0  0  0  0  0  0
  -24.2810   -9.5880   21.7850 C   0  0  0  0  0  3  0  0  0  0  0  0
  -23.1050   -9.4880   21.0040 C   0  0  0  0  0  0  0  0  0  0  0  0
  -22.8330  -10.4740   20.0390 C   0  0  0  0  0  3  0  0  0  0  0  0
  -23.7060  -11.5610   19.8630 C   0  0  0  0  0  3  0  0  0  0  0  0
  -22.2130   -8.4440   21.0870 O   0  0  0  0  0  0  0  0  0  0  0  0
  -21.9980   -7.7720   22.2630 C   0  0  0  0  0  0  0  0  0  0  0  0
  -21.6210   -8.4420   23.4470 C   0  0  0  0  0  3  0  0  0  0  0  0
  -21.3440   -7.7060   24.6160 C   0  0  0  0  0  3  0  0  0  0  0  0
  -21.4310   -6.3010   24.6000 C   0  0  0  0  0  0  0  0  0  0  0  0
  -21.8060   -5.6310   23.4220 C   0  0  0  0  0  3  0  0  0  0  0  0
  -22.0840   -6.3650   22.2550 C   0  0  0  0  0  0  0  0  0  0  0  0
  -22.4190   -5.7120   21.1170 F   0  0  0  0  0  0  0  0  0  0  0  0
  -21.1590   -5.5940   25.7220 F   0  0  0  0  0  0  0  0  0  0  0  0
  -24.1200  -14.8940   20.6500 C   0  0  0  0  0  0  0  0  0  0  0  0
  -23.3050  -14.3520   21.5490 N   0  0  0  0  0  0  0  0  0  0  0  0
  -23.8070  -15.9180   20.0470 O   0  0  0  0  0  0  0  0  0  0  0  0
  -23.5690  -13.5240   22.0610 H   0  0  0  0  0  0  0  0  0  0  0  0
  -22.4040  -14.7720   21.7270 H   0  0  0  0  0  0  0  0  0  0  0  0
  -26.9710  -16.1990   19.9110 N   0  0  0  0  0  0  0  0  0  0  0  0
  -26.2920  -16.9470   19.9940 H   0  0  0  0  0  0  0  0  0  0  0  0
  -27.8990  -16.5290   19.6710 H   0  0  0  0  0  0  0  0  0  0  0  0
  -32.0270  -21.1840   23.8660 C   0  0  0  0  0  2  0  0  0  0  0  0
  -31.3700  -20.0120   23.8310 C   0  0  0  0  0  0  0  0  0  0  0  0
  -30.9260  -19.3280   25.1090 C   0  0  0  0  0  1  0  0  0  0  0  0
  1 54  1  0
  2  8  2  0
  3  2  1  0
  4  6  1  0
  4  5  1  0
  5  7  1  0
  6  9  1  0
  6  3  1  0
  7  2  1  0
  7  1  1  0
  9 10  1  0
 10 12  1  0
 11 22  2  0
 12 17  1  0
 13 21  1  0
 13 23  1  0
 14 20  1  0
 14 16  1  0
 15 21  1  0
 16 15  1  0
 17 16  2  0
 18 19  1  0
 18 12  2  0
 19 14  2  0
 20 13  1  0
 21 11  1  0
 23 24  1  0
 23 25  2  0
 26 24  1  0
 27 32  2  0
 27 36  1  0
 28 24  1  0
 28 32  1  0
 29 28  1  0
 30 31  1  0
 30 29  1  0
 31 27  1  0
 32 33  1  0
 33 34  2  0
 35 34  1  0
 36 35  2  0
 37 11  1  0
 37 42  1  0
 37 38  1  0
 38 41  1  1
 38 39  1  0
 40 38  1  0
 42 45  1  0
 43 42  1  0
 43 47  1  0
 44 43  2  0
 47 46  1  0
 47 49  1  0
 49 50  1  0
 49 48  1  0
 51 53  1  0
 52 54  2  0
 52 56  1  0
 53 97  1  0
 54 55  1  0
 55 57  1  0
 55 53  2  0
 56 66  1  0
 56 51  2  0
 58 66  1  0
 59 64  1  0
 60 61  1  0
 60 59  1  0
 62 61  1  0
 62 71  1  0
 62 63  1  0
 64 58  1  0
 64 63  1  0
 65 58  2  0
 66 67  1  0
 68 69  2  0
 69 70  1  0
 69 88  1  0
 70 73  1  0
 71 68  1  0
 71 72  1  0
 72 70  2  0
 73 74  1  0
 74 75  2  0
 76 79  1  0
 76 75  1  0
 77 76  2  0
 78 77  1  0
 78 73  2  0
 79 80  1  0
 80 81  1  0
 81 82  2  0
 83 82  1  0
 83 87  1  0
 84 83  2  0
 85 80  2  0
 85 84  1  0
 86 85  1  0
 88 89  1  0
 89 92  1  0
 89 91  1  0
 90 88  2  0
 93 94  1  0
 93 68  1  0
 95 93  1  0
 97 96  2  0
 97 98  1  0
M  ISO  4   9 101  10 101  58 100  66 100
M  END
>  <TORSDO>  (22) 
F 20

>  <SCORE>  (22) 
-7.463

>  <name>  (22) 
21

>  <ligand_id>  (22) 
21

>  <original_smiles>  (22) 
[H]C([H])=C(c1c([H])c(N([H])C(=O)N2C([H])([H])C([H])([H])C([H])([H])C([H])(n3nc(-c4c([H])c([H])c(Oc5c([H])c([H])c(F)c([H])c5F)c([H])c4[H])c(C(=O)N([H])[H])c3N([H])[H])C2([H])[H])c([H])c(C([H])([H])N2C(=O)C([H])([H])C([H])(C([H])([H])Oc3c([H])c([H])c4c(c3[H])C([H])([H])N(C(=O)C([H])(N([H])C(=O)C([H])(N([H])C([H])([H])[H])C([H])([H])[H])C(C([H])([H])[H])(C([H])([H])[H])C([H])([H])[H])C([H])(C(=O)N([H])C3([H])c5c([H])c([H])c([H])c([H])c5C([H])([H])C([H])([H])C3([H])[H])C4([H])[H])C([H])([H])C2([H])[H])c1C([H])([H])[H])C([H])([H])[H]

>  <smiles>  (22) 
[H]C([H])=C(c1c([H])c(N([H])C(=O)N2C([H])([H])C([H])([H])C([H])([H])C([H])(n3nc(-c4c([H])c([H])c(Oc5c([H])c([H])c(F)c([H])c5F)c([H])c4[H])c(C(=O)N([H])[H])c3N([H])[H])C2([H])[H])c([H])c(C([H])([H])N2C(=O)C([H])([H])C([H])(C([H])([H])Oc3c([H])c([H])c4c(c3[H])C([H])([H])N(C(=O)C([H])(N([H])C(=O)C([H])(N([H])C([H])([H])[H])C([H])([H])[H])C(C([H])([H])[H])(C([H])([H])[H])C([H])([H])[H])C([H])(C(=O)N([H])C3([H])c5c([H])c([H])c([H])c([H])c5C([H])([H])C([H])([H])C3([H])[H])C4([H])[H])C([H])([H])C2([H])[H])c1C([H])([H])[H])C([H])([H])[H]

$$$$
22:0:0
     RDKit          3D

 99109  0  0  1  0  0  0  0  0999 V2000
  -30.6580  -23.6820   19.1240 C   0  0  0  0  0  0  0  0  0  0  0  0
  -30.4220  -25.1770   19.4120 C   0  0  0  0  0  2  0  0  0  0  0  0
  -32.6090  -22.9480   21.4280 C   0  0  0  0  0  2  0  0  0  0  0  0
  -32.9750  -21.5170   21.0330 C   0  0  0  0  0  2  0  0  0  0  0  0
  -28.1510  -24.3230   20.1310 C   0  0  0  0  0  2  0  0  0  0  0  0
  -31.0790  -23.1010   21.5390 C   0  0  0  0  0  2  0  0  0  0  0  0
  -28.7480  -22.8820   20.4410 C   0  0  0  0  0  2  0  0  0  0  0  0
  -32.2300  -21.0980   19.7580 C   0  0  0  0  0  2  0  0  0  0  0  0
  -29.1640  -25.4980   20.2670 C   0  0  0  0  0  3  0  0  0  0  0  0
  -30.3010  -22.6590   20.2510 C   0  0  1  0  0  0  0  0  0  0  0  0
  -30.7650  -21.2520   19.9060 N   0  0  0  0  0  0  0  0  0  0  0  0
  -31.0620  -23.3360   18.0070 O   0  0  0  0  0  0  0  0  0  0  0  0
  -30.1180  -19.1070   18.9580 C   0  0  0  0  0  3  0  0  0  0  0  0
  -29.9360  -17.8790   21.4370 C   0  0  0  0  0  3  0  0  0  0  0  0
  -30.0010  -17.6920   19.0280 C   0  0  0  0  0  0  0  0  0  0  0  0
  -30.0350  -19.2950   21.3680 C   0  0  0  0  0  0  0  0  0  0  0  0
  -30.2110  -19.9430   20.1080 C   0  0  0  0  0  0  0  0  0  0  0  0
  -30.0110  -17.0490   20.2940 C   0  0  0  0  0  0  0  0  0  0  0  0
  -29.8520  -16.9010   17.7350 C   0  0  0  0  0  1  0  0  0  0  0  0
  -30.0330  -20.0400   22.6880 C   0  0  0  0  0  1  0  0  0  0  0  0
  -30.8200  -14.6440   20.0340 C   0  0  0  0  0  0  0  0  0  0  0  0
  -30.5870  -12.4610   18.9050 C   0  0  0  0  0  2  0  0  0  0  0  0
  -29.5730  -12.6600   17.7550 C   0  0  0  0  0  2  0  0  0  0  0  0
  -28.1190  -12.5040   18.2570 C   0  0  0  0  0  2  0  0  0  0  0  0
  -27.8400  -13.3070   19.5560 C   0  0  0  0  0  3  0  0  0  0  0  0
  -28.9560  -13.0560   20.5970 C   0  0  0  0  0  2  0  0  0  0  0  0
  -30.2400  -13.4130   19.9700 N   0  0  0  0  0  0  0  0  0  0  0  0
  -31.9450  -14.8680   19.5720 O   0  0  0  0  0  0  0  0  0  0  0  0
  -29.9910  -15.6220   20.4900 N   0  0  0  0  0  0  0  0  0  0  0  0
  -29.1890  -15.2680   20.9920 H   0  0  0  0  0  0  0  0  0  0  0  0
  -25.5110  -13.9120   20.4650 C   0  0  0  0  0  0  0  0  0  0  0  0
  -24.4550  -13.1370   20.8630 C   0  0  0  0  0  0  0  0  0  0  0  0
  -24.8840  -11.7830   20.7150 C   0  0  0  0  0  0  0  0  0  0  0  0
  -26.5170  -13.0290   20.1040 N   0  0  0  0  0  0  0  0  0  0  0  0
  -26.1480  -11.7410   20.3140 N   0  0  0  0  0  0  0  0  0  0  0  0
  -24.1490  -10.5250   20.8800 C   0  0  0  0  0  0  0  0  0  0  0  0
  -24.5320   -9.5670   21.8470 C   0  0  0  0  0  3  0  0  0  0  0  0
  -23.7990   -8.3700   21.9970 C   0  0  0  0  0  3  0  0  0  0  0  0
  -22.6680   -8.1230   21.1830 C   0  0  0  0  0  0  0  0  0  0  0  0
  -22.3070   -9.0690   20.2080 C   0  0  0  0  0  3  0  0  0  0  0  0
  -23.0400  -10.2570   20.0530 C   0  0  0  0  0  3  0  0  0  0  0  0
  -21.9120   -6.9770   21.2400 O   0  0  0  0  0  0  0  0  0  0  0  0
  -21.6600   -6.3400   22.4280 C   0  0  0  0  0  0  0  0  0  0  0  0
  -20.9690   -6.9760   23.4850 C   0  0  0  0  0  3  0  0  0  0  0  0
  -20.6690   -6.2590   24.6610 C   0  0  0  0  0  3  0  0  0  0  0  0
  -21.0510   -4.9090   24.7820 C   0  0  0  0  0  0  0  0  0  0  0  0
  -21.7350   -4.2750   23.7300 C   0  0  0  0  0  3  0  0  0  0  0  0
  -22.0360   -4.9890   22.5570 C   0  0  0  0  0  0  0  0  0  0  0  0
  -22.6760   -4.3640   21.5370 F   0  0  0  0  0  0  0  0  0  0  0  0
  -20.7600   -4.2200   25.9090 F   0  0  0  0  0  0  0  0  0  0  0  0
  -23.0890  -13.6200   21.2580 C   0  0  0  0  0  0  0  0  0  0  0  0
  -22.4080  -12.8950   22.1400 N   0  0  0  0  0  0  0  0  0  0  0  0
  -22.6310  -14.6750   20.8210 O   0  0  0  0  0  0  0  0  0  0  0  0
  -22.7900  -12.0430   22.5230 H   0  0  0  0  0  0  0  0  0  0  0  0
  -21.4930  -13.2020   22.4380 H   0  0  0  0  0  0  0  0  0  0  0  0
  -25.6910  -15.2890   20.3640 N   0  0  0  0  0  0  0  0  0  0  0  0
  -24.9540  -15.9450   20.5990 H   0  0  0  0  0  0  0  0  0  0  0  0
  -26.5100  -15.7400   19.9770 H   0  0  0  0  0  0  0  0  0  0  0  0
  -28.8190  -26.8460   19.8490 O   0  0  0  0  0  0  0  0  0  0  0  0
  -24.7610  -31.7400   23.2110 C   0  0  0  0  0  0  0  0  0  0  0  0
  -27.5860  -27.4470   20.0300 C   0  0  0  0  0  0  0  0  0  0  0  0
  -23.6140  -30.3420   21.5230 C   0  0  0  0  0  3  0  0  0  0  0  0
  -25.1290  -28.8740   20.0870 C   0  0  0  0  0  0  0  0  0  0  0  0
  -26.1280  -30.7870   21.3510 C   0  0  0  0  0  2  0  0  0  0  0  0
  -26.2670  -29.4260   20.6880 C   0  0  0  0  0  0  0  0  0  0  0  0
  -27.4950  -28.7190   20.6550 C   0  0  0  0  0  3  0  0  0  0  0  0
  -26.4260  -26.9140   19.4320 C   0  0  0  0  0  3  0  0  0  0  0  0
  -25.2020  -27.6140   19.4660 C   0  0  0  0  0  3  0  0  0  0  0  0
  -23.8580  -29.6930   20.1350 C   0  0  0  0  0  2  0  0  0  0  0  0
  -24.8530  -30.9710   22.0880 N   0  0  0  0  0  0  0  0  0  0  0  0
  -23.6660  -31.9580   23.7520 O   0  0  0  0  0  0  0  0  0  0  0  0
  -22.9900  -29.2780   22.4550 C   0  0  0  0  0  0  0  0  0  0  0  0
  -21.6820  -29.0240   22.2850 N   0  0  0  0  0  0  0  0  0  0  0  0
  -23.6830  -28.6800   23.2830 O   0  0  0  0  0  0  0  0  0  0  0  0
  -21.1840  -29.5570   21.5870 H   0  0  0  0  0  0  0  0  0  0  0  0
  -18.3810  -27.5980   22.6310 C   0  0  0  0  0  0  0  0  0  0  0  0
  -20.9000  -28.0290   23.0170 C   0  0  0  0  0  3  0  0  0  0  0  0
  -21.1270  -26.6110   22.4470 C   0  0  0  0  0  2  0  0  0  0  0  0
  -20.0970  -26.2160   21.3850 C   0  0  0  0  0  2  0  0  0  0  0  0
  -18.6800  -26.2660   21.9650 C   0  0  0  0  0  2  0  0  0  0  0  0
  -19.4240  -28.4330   23.1120 C   0  0  0  0  0  0  0  0  0  0  0  0
  -19.0930  -29.6760   23.6920 C   0  0  0  0  0  3  0  0  0  0  0  0
  -17.7500  -30.0870   23.7980 C   0  0  0  0  0  3  0  0  0  0  0  0
  -16.7210  -29.2490   23.3350 C   0  0  0  0  0  3  0  0  0  0  0  0
  -17.0370  -28.0060   22.7560 C   0  0  0  0  0  3  0  0  0  0  0  0
  -26.0190  -32.3980   23.8600 C   0  0  0  0  0  3  0  0  0  0  0  0
  -25.6660  -33.7820   24.2060 N   0  0  0  0  0  0  0  0  0  0  0  0
  -25.9630  -34.8510   23.4560 C   0  0  0  0  0  0  0  0  0  0  0  0
  -26.6300  -34.7790   22.4210 O   0  0  0  0  0  0  0  0  0  0  0  0
  -25.0720  -33.9080   25.0110 H   0  0  0  0  0  0  0  0  0  0  0  0
  -24.1710  -36.5870   23.1340 C   0  0  0  0  0  1  0  0  0  0  0  0
  -25.4340  -36.2180   23.9300 C   0  0  0  0  0  3  0  0  0  0  0  0
  -27.5370  -37.1770   24.7580 C   0  0  0  0  0  1  0  0  0  0  0  0
  -26.4290  -37.3070   23.8150 N   0  0  0  0  0  0  0  0  0  0  0  0
  -25.9920  -38.2110   23.9620 H   0  0  0  0  0  0  0  0  0  0  0  0
  -26.5420  -31.6230   25.1310 C   0  0  1  0  0  0  0  0  0  0  0  0
  -25.4420  -31.3340   26.1800 C   0  0  0  0  0  1  0  0  0  0  0  0
  -27.1750  -30.2720   24.7220 C   0  0  0  0  0  1  0  0  0  0  0  0
  -27.6560  -32.4440   25.8220 C   0  0  0  0  0  1  0  0  0  0  0  0
  1  2  1  0
  1 10  1  0
  2  9  1  0
  3  6  1  0
  4  3  1  0
  5  9  1  0
  5  7  1  0
  8 11  1  0
  8  4  1  0
  9 59  1  0
 10  7  1  1
 10  6  1  0
 11 17  1  0
 11 10  1  0
 12  1  2  0
 13 15  2  0
 13 17  1  0
 15 18  1  0
 16 14  1  0
 16 20  1  0
 17 16  2  0
 18 29  1  0
 18 14  2  0
 19 15  1  0
 21 29  1  0
 22 27  1  0
 23 24  1  0
 23 22  1  0
 25 24  1  0
 25 34  1  0
 25 26  1  0
 27 21  1  0
 27 26  1  0
 28 21  2  0
 29 30  1  0
 31 32  2  0
 32 51  1  0
 33 32  1  0
 33 36  1  0
 34 35  1  0
 34 31  1  0
 35 33  2  0
 36 37  1  0
 37 38  2  0
 39 42  1  0
 39 38  1  0
 40 39  2  0
 41 40  1  0
 41 36  2  0
 42 43  1  0
 43 48  2  0
 43 44  1  0
 44 45  2  0
 45 46  1  0
 46 50  1  0
 47 46  2  0
 48 47  1  0
 49 48  1  0
 51 52  1  0
 52 55  1  0
 52 54  1  0
 53 51  2  0
 56 31  1  0
 56 57  1  0
 58 56  1  0
 59 61  1  0
 60 71  2  0
 61 66  1  0
 62 70  1  0
 62 72  1  0
 63 69  1  0
 63 65  1  0
 64 70  1  0
 65 64  1  0
 66 65  2  0
 67 68  1  0
 67 61  2  0
 68 63  2  0
 69 62  1  0
 70 60  1  0
 72 74  2  0
 73 72  1  0
 75 73  1  0
 76 85  2  0
 76 81  1  0
 77 73  1  0
 77 81  1  0
 78 77  1  0
 79 80  1  0
 79 78  1  0
 80 76  1  0
 81 82  2  0
 82 83  1  0
 84 83  2  0
 85 84  1  0
 86 60  1  0
 86 87  1  0
 86 96  1  0
 87 90  1  0
 88 92  1  0
 88 87  1  0
 89 88  2  0
 92 91  1  0
 94 92  1  0
 94 95  1  0
 94 93  1  0
 96 99  1  1
 96 97  1  0
 98 96  1  0
M  ISO  4   9 101  21 100  29 100  59 101
M  END
>  <TORSDO>  (23) 
F 17

>  <SCORE>  (23) 
-11.508

>  <name>  (23) 
22

>  <ligand_id>  (23) 
22

>  <original_smiles>  (23) 
[H]c1c([H])c([H])c2c(c1[H])C([H])([H])C([H])([H])C([H])([H])C2([H])N([H])C(=O)C1([H])N(C(=O)C([H])(N([H])C(=O)C([H])(N([H])C([H])([H])[H])C([H])([H])[H])C(C([H])([H])[H])(C([H])([H])[H])C([H])([H])[H])C([H])([H])c2c([H])c(OC3([H])C([H])([H])C(=O)C4(N(c5c([H])c(C([H])([H])[H])c(N([H])C(=O)N6C([H])([H])C([H])([H])C([H])([H])C([H])(n7nc(-c8c([H])c([H])c(Oc9c([H])c([H])c(F)c([H])c9F)c([H])c8[H])c(C(=O)N([H])[H])c7N([H])[H])C6([H])[H])c([H])c5C([H])([H])[H])C([H])([H])C([H])([H])C([H])([H])C4([H])[H])C([H])([H])C3([H])[H])c([H])c([H])c2C1([H])[H]

>  <smiles>  (23) 
[H]c1c([H])c([H])c2c(c1[H])C([H])([H])C([H])([H])C([H])([H])C2([H])N([H])C(=O)C1([H])N(C(=O)C([H])(N([H])C(=O)C([H])(N([H])C([H])([H])[H])C([H])([H])[H])C(C([H])([H])[H])(C([H])([H])[H])C([H])([H])[H])C([H])([H])c2c([H])c(OC3([H])C([H])([H])C(=O)C4(N(c5c([H])c(C([H])([H])[H])c(N([H])C(=O)N6C([H])([H])C([H])([H])C([H])([H])C([H])(n7nc(-c8c([H])c([H])c(Oc9c([H])c([H])c(F)c([H])c9F)c([H])c8[H])c(C(=O)N([H])[H])c7N([H])[H])C6([H])[H])c([H])c5C([H])([H])[H])C([H])([H])C([H])([H])C([H])([H])C4([H])[H])C([H])([H])C3([H])[H])c([H])c([H])c2C1([H])[H]

$$$$
23:0:0
     RDKit          3D

 93101  0  0  1  0  0  0  0  0999 V2000
  -30.3390  -21.9090   20.5190 C   0  0  0  0  0  0  0  0  0  0  0  0
  -29.7420  -20.7900   20.9680 N   0  0  0  0  0  0  0  0  0  0  0  0
  -31.3020  -21.9310   19.7500 O   0  0  0  0  0  0  0  0  0  0  0  0
  -28.9530  -20.9690   21.5730 H   0  0  0  0  0  0  0  0  0  0  0  0
  -31.1140  -18.8960   20.0090 C   0  0  0  0  0  3  0  0  0  0  0  0
  -31.2940  -17.5000   19.8680 C   0  0  0  0  0  3  0  0  0  0  0  0
  -29.1420  -18.4950   21.3670 C   0  0  0  0  0  3  0  0  0  0  0  0
  -29.3130  -17.1020   21.2300 C   0  0  0  0  0  0  0  0  0  0  0  0
  -30.0290  -19.4070   20.7590 C   0  0  0  0  0  0  0  0  0  0  0  0
  -30.3920  -16.5870   20.4700 C   0  0  0  0  0  0  0  0  0  0  0  0
  -28.3120  -16.1740   21.8980 C   0  0  0  0  0  1  0  0  0  0  0  0
  -30.8760  -14.3980   19.3160 C   0  0  0  0  0  0  0  0  0  0  0  0
  -30.3350  -12.3570   18.0300 C   0  0  0  0  0  2  0  0  0  0  0  0
  -29.1700  -12.6500   17.0610 C   0  0  0  0  0  2  0  0  0  0  0  0
  -27.8080  -12.4720   17.7600 C   0  0  0  0  0  2  0  0  0  0  0  0
  -27.7380  -13.2070   19.1240 C   0  0  0  0  0  3  0  0  0  0  0  0
  -28.9800  -12.8680   19.9780 C   0  0  0  0  0  2  0  0  0  0  0  0
  -30.1860  -13.2300   19.2040 N   0  0  0  0  0  0  0  0  0  0  0  0
  -31.7990  -14.7110   18.5570 O   0  0  0  0  0  0  0  0  0  0  0  0
  -30.4730  -15.1670   20.3410 N   0  0  0  0  0  0  0  0  0  0  0  0
  -29.8760  -14.6660   20.9800 H   0  0  0  0  0  0  0  0  0  0  0  0
  -25.5310  -13.7670   20.3320 C   0  0  0  0  0  0  0  0  0  0  0  0
  -24.5400  -12.9700   20.8410 C   0  0  0  0  0  0  0  0  0  0  0  0
  -24.9600  -11.6240   20.6110 C   0  0  0  0  0  0  0  0  0  0  0  0
  -26.4950  -12.9040   19.8320 N   0  0  0  0  0  0  0  0  0  0  0  0
  -26.1620  -11.6060   20.0520 N   0  0  0  0  0  0  0  0  0  0  0  0
  -24.2610  -10.3520   20.8360 C   0  0  0  0  0  0  0  0  0  0  0  0
  -24.7410   -9.4010   21.7630 C   0  0  0  0  0  3  0  0  0  0  0  0
  -24.0420   -8.1920   21.9760 C   0  0  0  0  0  3  0  0  0  0  0  0
  -22.8500   -7.9270   21.2610 C   0  0  0  0  0  0  0  0  0  0  0  0
  -22.3880   -8.8680   20.3230 C   0  0  0  0  0  3  0  0  0  0  0  0
  -23.0880  -10.0680   20.1090 C   0  0  0  0  0  3  0  0  0  0  0  0
  -22.1180   -6.7700   21.3830 O   0  0  0  0  0  0  0  0  0  0  0  0
  -21.9620   -6.1440   22.5930 C   0  0  0  0  0  0  0  0  0  0  0  0
  -21.4060   -6.8070   23.7100 C   0  0  0  0  0  3  0  0  0  0  0  0
  -21.1980   -6.1040   24.9140 C   0  0  0  0  0  3  0  0  0  0  0  0
  -21.5350   -4.7400   25.0010 C   0  0  0  0  0  0  0  0  0  0  0  0
  -22.0850   -4.0770   23.8880 C   0  0  0  0  0  3  0  0  0  0  0  0
  -22.2940   -4.7770   22.6870 C   0  0  0  0  0  0  0  0  0  0  0  0
  -22.8030   -4.1290   21.6110 F   0  0  0  0  0  0  0  0  0  0  0  0
  -21.3290   -4.0620   26.1550 F   0  0  0  0  0  0  0  0  0  0  0  0
  -23.2330  -13.4260   21.4230 C   0  0  0  0  0  0  0  0  0  0  0  0
  -22.7070  -12.6940   22.3990 N   0  0  0  0  0  0  0  0  0  0  0  0
  -22.6940  -14.4670   21.0480 O   0  0  0  0  0  0  0  0  0  0  0  0
  -23.1590  -11.8520   22.7230 H   0  0  0  0  0  0  0  0  0  0  0  0
  -21.8380  -12.9800   22.8290 H   0  0  0  0  0  0  0  0  0  0  0  0
  -25.6850  -15.1460   20.2350 N   0  0  0  0  0  0  0  0  0  0  0  0
  -24.9620  -15.7930   20.5290 H   0  0  0  0  0  0  0  0  0  0  0  0
  -26.4640  -15.6050   19.7810 H   0  0  0  0  0  0  0  0  0  0  0  0
  -29.7440  -23.2220   21.0530 C   0  0  0  0  0  2  0  0  0  0  0  0
  -29.6560  -24.3740   20.0280 C   0  0  0  0  0  2  0  0  0  0  0  0
  -28.8920  -25.5860   20.5950 C   0  0  0  0  0  2  0  0  0  0  0  0
  -28.7870  -26.6330   19.6290 O   0  0  0  0  0  0  0  0  0  0  0  0
  -24.8120  -31.6030   22.8370 C   0  0  0  0  0  0  0  0  0  0  0  0
  -27.5980  -27.3190   19.6760 C   0  0  0  0  0  0  0  0  0  0  0  0
  -23.6440  -30.1750   21.1860 C   0  0  0  0  0  3  0  0  0  0  0  0
  -25.1430  -28.7080   19.7340 C   0  0  0  0  0  0  0  0  0  0  0  0
  -26.1490  -30.6370   20.9680 C   0  0  0  0  0  2  0  0  0  0  0  0
  -26.2840  -29.2780   20.3150 C   0  0  0  0  0  0  0  0  0  0  0  0
  -27.5160  -28.5890   20.2850 C   0  0  0  0  0  3  0  0  0  0  0  0
  -26.4450  -26.7540   19.0960 C   0  0  0  0  0  3  0  0  0  0  0  0
  -25.2160  -27.4410   19.1250 C   0  0  0  0  0  3  0  0  0  0  0  0
  -23.8670  -29.5170   19.7980 C   0  0  0  0  0  2  0  0  0  0  0  0
  -24.8860  -30.8190   21.7230 N   0  0  0  0  0  0  0  0  0  0  0  0
  -23.7270  -31.8300   23.3900 O   0  0  0  0  0  0  0  0  0  0  0  0
  -23.0400  -29.1200   22.1410 C   0  0  0  0  0  0  0  0  0  0  0  0
  -21.7120  -28.9330   22.0620 N   0  0  0  0  0  0  0  0  0  0  0  0
  -23.7600  -28.4740   22.9080 O   0  0  0  0  0  0  0  0  0  0  0  0
  -21.1920  -29.5090   21.4160 H   0  0  0  0  0  0  0  0  0  0  0  0
  -18.3590  -27.7610   22.7180 C   0  0  0  0  0  0  0  0  0  0  0  0
  -20.9320  -27.9650   22.8320 C   0  0  0  0  0  3  0  0  0  0  0  0
  -20.9700  -26.5670   22.1720 C   0  0  0  0  0  2  0  0  0  0  0  0
  -19.7990  -26.3180   21.2180 C   0  0  0  0  0  2  0  0  0  0  0  0
  -18.4650  -26.4480   21.9610 C   0  0  0  0  0  2  0  0  0  0  0  0
  -19.5170  -28.4810   23.1110 C   0  0  0  0  0  0  0  0  0  0  0  0
  -19.3630  -29.7140   23.7820 C   0  0  0  0  0  3  0  0  0  0  0  0
  -18.0810  -30.2260   24.0630 C   0  0  0  0  0  3  0  0  0  0  0  0
  -16.9380  -29.5010   23.6840 C   0  0  0  0  0  3  0  0  0  0  0  0
  -17.0780  -28.2710   23.0170 C   0  0  0  0  0  3  0  0  0  0  0  0
  -26.0810  -32.2730   23.4530 C   0  0  0  0  0  3  0  0  0  0  0  0
  -26.7660  -31.3970   24.5730 C   0  0  1  0  0  0  0  0  0  0  0  0
  -25.7780  -30.8660   25.6380 C   0  0  0  0  0  1  0  0  0  0  0  0
  -27.4850  -30.1800   23.9470 C   0  0  0  0  0  1  0  0  0  0  0  0
  -27.8490  -32.2270   25.3010 C   0  0  0  0  0  1  0  0  0  0  0  0
  -25.6760  -33.5780   23.9880 N   0  0  0  0  0  0  0  0  0  0  0  0
  -25.8540  -34.7470   23.3540 C   0  0  0  0  0  0  0  0  0  0  0  0
  -26.4470  -34.8420   22.2760 O   0  0  0  0  0  0  0  0  0  0  0  0
  -25.1380  -33.5720   24.8420 H   0  0  0  0  0  0  0  0  0  0  0  0
  -23.9570  -36.3960   23.3460 C   0  0  0  0  0  1  0  0  0  0  0  0
  -25.2820  -36.0100   24.0250 C   0  0  0  0  0  3  0  0  0  0  0  0
  -27.3820  -36.9800   24.8470 C   0  0  0  0  0  1  0  0  0  0  0  0
  -26.2090  -37.1620   23.9970 N   0  0  0  0  0  0  0  0  0  0  0  0
  -25.7350  -38.0120   24.2870 H   0  0  0  0  0  0  0  0  0  0  0  0
  1  2  1  0
  1 50  1  0
  2  4  1  0
  3  1  2  0
  5  9  1  0
  6  5  2  0
  6 10  1  0
  8  7  1  0
  8 11  1  0
  9  2  1  0
  9  7  2  0
 10  8  2  0
 12 20  1  0
 13 18  1  0
 14 15  1  0
 14 13  1  0
 16 15  1  0
 16 25  1  0
 16 17  1  0
 18 12  1  0
 18 17  1  0
 19 12  2  0
 20 10  1  0
 20 21  1  0
 22 23  2  0
 23 42  1  0
 24 27  1  0
 24 23  1  0
 25 26  1  0
 25 22  1  0
 26 24  2  0
 27 28  1  0
 28 29  2  0
 30 33  1  0
 30 29  1  0
 31 30  2  0
 32 31  1  0
 32 27  2  0
 33 34  1  0
 34 39  2  0
 34 35  1  0
 35 36  2  0
 36 37  1  0
 37 41  1  0
 38 37  2  0
 39 38  1  0
 40 39  1  0
 42 43  1  0
 43 45  1  0
 43 46  1  0
 44 42  2  0
 47 22  1  0
 47 48  1  0
 49 47  1  0
 51 52  1  0
 51 50  1  0
 53 55  1  0
 53 52  1  0
 54 65  2  0
 55 60  1  0
 56 64  1  0
 56 66  1  0
 57 63  1  0
 57 59  1  0
 58 64  1  0
 59 58  1  0
 60 59  2  0
 61 62  1  0
 61 55  2  0
 62 57  2  0
 63 56  1  0
 64 54  1  0
 66 68  2  0
 67 66  1  0
 69 67  1  0
 70 79  2  0
 70 75  1  0
 71 67  1  0
 71 75  1  0
 72 71  1  0
 73 74  1  0
 73 72  1  0
 74 70  1  0
 75 76  2  0
 76 77  1  0
 78 77  2  0
 79 78  1  0
 80 54  1  0
 80 85  1  0
 80 81  1  0
 81 84  1  1
 81 82  1  0
 83 81  1  0
 85 88  1  0
 86 85  1  0
 86 90  1  0
 87 86  2  0
 90 89  1  0
 92 90  1  0
 92 93  1  0
 92 91  1  0
M  ISO  4  12 100  20 100  52 101  53 101
M  END
>  <TORSDO>  (24) 
F 20

>  <SCORE>  (24) 
-8.421

>  <name>  (24) 
23

>  <ligand_id>  (24) 
23

>  <original_smiles>  (24) 
[H]c1c([H])c([H])c2c(c1[H])C([H])([H])C([H])([H])C([H])([H])C2([H])N([H])C(=O)C1([H])N(C(=O)C([H])(N([H])C(=O)C([H])(N([H])C([H])([H])[H])C([H])([H])[H])C(C([H])([H])[H])(C([H])([H])[H])C([H])([H])[H])C([H])([H])c2c([H])c(OC([H])([H])C([H])([H])C([H])([H])C(=O)N([H])c3c([H])c([H])c(N([H])C(=O)N4C([H])([H])C([H])([H])C([H])([H])C([H])(n5nc(-c6c([H])c([H])c(Oc7c([H])c([H])c(F)c([H])c7F)c([H])c6[H])c(C(=O)N([H])[H])c5N([H])[H])C4([H])[H])c(C([H])([H])[H])c3[H])c([H])c([H])c2C1([H])[H]

>  <smiles>  (24) 
[H]c1c([H])c([H])c2c(c1[H])C([H])([H])C([H])([H])C([H])([H])C2([H])N([H])C(=O)C1([H])N(C(=O)C([H])(N([H])C(=O)C([H])(N([H])C([H])([H])[H])C([H])([H])[H])C(C([H])([H])[H])(C([H])([H])[H])C([H])([H])[H])C([H])([H])c2c([H])c(OC([H])([H])C([H])([H])C([H])([H])C(=O)N([H])c3c([H])c([H])c(N([H])C(=O)N4C([H])([H])C([H])([H])C([H])([H])C([H])(n5nc(-c6c([H])c([H])c(Oc7c([H])c([H])c(F)c([H])c7F)c([H])c6[H])c(C(=O)N([H])[H])c5N([H])[H])C4([H])[H])c(C([H])([H])[H])c3[H])c([H])c([H])c2C1([H])[H]

$$$$
24:0:0
     RDKit          3D

 95103  0  0  1  0  0  0  0  0999 V2000
  -29.0370  -21.7380   21.3560 C   0  0  0  0  0  0  0  0  0  0  0  0
  -29.0880  -20.7170   20.4510 N   0  0  0  0  0  0  0  0  0  0  0  0
  -29.6190  -21.6590   22.4410 O   0  0  0  0  0  0  0  0  0  0  0  0
  -28.4670  -20.7520   19.6510 H   0  0  0  0  0  0  0  0  0  0  0  0
  -29.5240  -18.2290   20.5450 C   0  0  0  0  0  3  0  0  0  0  0  0
  -31.7990  -17.4210   20.8490 C   0  0  0  0  0  3  0  0  0  0  0  0
  -31.4030  -19.8210   20.5980 C   0  0  0  0  0  0  0  0  0  0  0  0
  -30.4260  -17.1180   20.6890 C   0  0  0  0  0  0  0  0  0  0  0  0
  -29.9960  -19.5880   20.5390 C   0  0  0  0  0  0  0  0  0  0  0  0
  -32.2790  -18.7390   20.7940 C   0  0  0  0  0  0  0  0  0  0  0  0
  -32.0150  -21.2130   20.4370 C   0  0  0  0  0  1  0  0  0  0  0  0
  -33.6110  -18.9530   20.9240 F   0  0  0  0  0  0  0  0  0  0  0  0
  -30.6630  -14.6060   20.3630 C   0  0  0  0  0  0  0  0  0  0  0  0
  -30.3350  -12.4060   19.2940 C   0  0  0  0  0  2  0  0  0  0  0  0
  -29.4000  -12.5970   18.0820 C   0  0  0  0  0  2  0  0  0  0  0  0
  -27.9280  -12.4700   18.5150 C   0  0  0  0  0  2  0  0  0  0  0  0
  -27.5960  -13.3220   19.7690 C   0  0  0  0  0  3  0  0  0  0  0  0
  -28.6580  -13.1520   20.8800 C   0  0  0  0  0  2  0  0  0  0  0  0
  -29.9720  -13.4320   20.2890 N   0  0  0  0  0  0  0  0  0  0  0  0
  -31.8240  -14.6800   19.9480 O   0  0  0  0  0  0  0  0  0  0  0  0
  -29.9620  -15.7280   20.7060 N   0  0  0  0  0  0  0  0  0  0  0  0
  -28.9890  -15.5790   20.9140 H   0  0  0  0  0  0  0  0  0  0  0  0
  -25.2090  -13.9350   20.4870 C   0  0  0  0  0  0  0  0  0  0  0  0
  -24.1400  -13.1640   20.8670 C   0  0  0  0  0  0  0  0  0  0  0  0
  -24.5960  -11.8110   20.8380 C   0  0  0  0  0  0  0  0  0  0  0  0
  -26.2490  -13.0480   20.2580 N   0  0  0  0  0  0  0  0  0  0  0  0
  -25.8860  -11.7680   20.5290 N   0  0  0  0  0  0  0  0  0  0  0  0
  -23.8670  -10.5520   21.0370 C   0  0  0  0  0  0  0  0  0  0  0  0
  -24.3000   -9.5850   21.9670 C   0  0  0  0  0  3  0  0  0  0  0  0
  -23.5700   -8.3900   22.1510 C   0  0  0  0  0  3  0  0  0  0  0  0
  -22.3930   -8.1540   21.3990 C   0  0  0  0  0  0  0  0  0  0  0  0
  -21.9830   -9.1110   20.4550 C   0  0  0  0  0  3  0  0  0  0  0  0
  -22.7140  -10.2970   20.2720 C   0  0  0  0  0  3  0  0  0  0  0  0
  -21.6370   -7.0110   21.4920 O   0  0  0  0  0  0  0  0  0  0  0  0
  -21.5950   -6.2660   22.6420 C   0  0  0  0  0  0  0  0  0  0  0  0
  -21.1800   -6.8190   23.8730 C   0  0  0  0  0  3  0  0  0  0  0  0
  -21.0850   -6.0010   25.0170 C   0  0  0  0  0  3  0  0  0  0  0  0
  -21.3950   -4.6310   24.9300 C   0  0  0  0  0  0  0  0  0  0  0  0
  -21.8020   -4.0780   23.7030 C   0  0  0  0  0  3  0  0  0  0  0  0
  -21.8990   -4.8930   22.5620 C   0  0  0  0  0  0  0  0  0  0  0  0
  -22.2710   -4.3490   21.3780 F   0  0  0  0  0  0  0  0  0  0  0  0
  -21.2970   -3.8410   26.0250 F   0  0  0  0  0  0  0  0  0  0  0  0
  -22.7430  -13.6470   21.1340 C   0  0  0  0  0  0  0  0  0  0  0  0
  -22.0110  -12.9540   22.0010 N   0  0  0  0  0  0  0  0  0  0  0  0
  -22.3110  -14.6770   20.6180 O   0  0  0  0  0  0  0  0  0  0  0  0
  -22.3720  -12.1200   22.4400 H   0  0  0  0  0  0  0  0  0  0  0  0
  -21.0760  -13.2590   22.2260 H   0  0  0  0  0  0  0  0  0  0  0  0
  -25.3810  -15.3020   20.2980 N   0  0  0  0  0  0  0  0  0  0  0  0
  -24.6150  -15.9620   20.3860 H   0  0  0  0  0  0  0  0  0  0  0  0
  -26.2200  -15.7220   19.9240 H   0  0  0  0  0  0  0  0  0  0  0  0
  -28.7280  -24.1500   21.1760 C   0  0  0  0  0  3  0  0  0  0  0  0
  -28.1860  -22.8970   21.0560 C   0  0  0  0  0  0  0  0  0  0  0  0
  -26.7150  -22.6050   20.8030 C   0  0  0  0  0  1  0  0  0  0  0  0
  -28.0020  -25.5070   21.2930 C   0  0  0  0  0  2  0  0  0  0  0  0
  -28.3380  -26.5920   20.3780 O   0  0  0  0  0  0  0  0  0  0  0  0
  -24.6070  -31.9460   23.2680 C   0  0  0  0  0  0  0  0  0  0  0  0
  -27.2660  -27.4590   20.2460 C   0  0  0  0  0  0  0  0  0  0  0  0
  -23.4190  -30.5280   21.6270 C   0  0  0  0  0  3  0  0  0  0  0  0
  -24.8940  -29.0030   20.2030 C   0  0  0  0  0  0  0  0  0  0  0  0
  -25.9480  -30.8890   21.4510 C   0  0  0  0  0  2  0  0  0  0  0  0
  -26.0460  -29.5160   20.8130 C   0  0  0  0  0  0  0  0  0  0  0  0
  -27.2430  -28.7530   20.8290 C   0  0  0  0  0  3  0  0  0  0  0  0
  -26.1090  -26.9850   19.5960 C   0  0  0  0  0  3  0  0  0  0  0  0
  -24.9230  -27.7400   19.5890 C   0  0  0  0  0  3  0  0  0  0  0  0
  -23.6410  -29.8530   20.2480 C   0  0  0  0  0  2  0  0  0  0  0  0
  -24.6760  -31.1360   22.1720 N   0  0  0  0  0  0  0  0  0  0  0  0
  -23.5210  -32.2200   23.7970 O   0  0  0  0  0  0  0  0  0  0  0  0
  -22.7650  -29.5090   22.5880 C   0  0  0  0  0  0  0  0  0  0  0  0
  -21.4400  -29.3330   22.4690 N   0  0  0  0  0  0  0  0  0  0  0  0
  -23.4480  -28.8860   23.4040 O   0  0  0  0  0  0  0  0  0  0  0  0
  -20.9480  -29.8980   21.7910 H   0  0  0  0  0  0  0  0  0  0  0  0
  -18.0610  -28.1410   22.9700 C   0  0  0  0  0  0  0  0  0  0  0  0
  -20.6190  -28.3960   23.2390 C   0  0  0  0  0  3  0  0  0  0  0  0
  -20.7170  -26.9620   22.6680 C   0  0  0  0  0  2  0  0  0  0  0  0
  -19.6140  -26.6390   21.6560 C   0  0  0  0  0  2  0  0  0  0  0  0
  -18.2330  -26.7890   22.3000 C   0  0  0  0  0  2  0  0  0  0  0  0
  -19.1810  -28.9030   23.3970 C   0  0  0  0  0  0  0  0  0  0  0  0
  -18.9650  -30.1700   23.9840 C   0  0  0  0  0  3  0  0  0  0  0  0
  -17.6610  -30.6720   24.1500 C   0  0  0  0  0  3  0  0  0  0  0  0
  -16.5550  -29.9100   23.7380 C   0  0  0  0  0  3  0  0  0  0  0  0
  -16.7570  -28.6450   23.1540 C   0  0  0  0  0  3  0  0  0  0  0  0
  -25.8850  -32.5910   23.8920 C   0  0  0  0  0  3  0  0  0  0  0  0
  -26.4000  -31.8290   25.1770 C   0  0  1  0  0  0  0  0  0  0  0  0
  -25.3020  -31.5990   26.2410 C   0  0  0  0  0  1  0  0  0  0  0  0
  -26.9900  -30.4540   24.7950 C   0  0  0  0  0  1  0  0  0  0  0  0
  -27.5460  -32.6320   25.8350 C   0  0  0  0  0  1  0  0  0  0  0  0
  -25.5700  -33.9890   24.2080 N   0  0  0  0  0  0  0  0  0  0  0  0
  -25.9010  -35.0350   23.4410 C   0  0  0  0  0  0  0  0  0  0  0  0
  -26.5730  -34.9270   22.4110 O   0  0  0  0  0  0  0  0  0  0  0  0
  -24.9770  -34.1490   25.0090 H   0  0  0  0  0  0  0  0  0  0  0  0
  -24.1670  -36.8150   23.0620 C   0  0  0  0  0  1  0  0  0  0  0  0
  -25.4060  -36.4240   23.8840 C   0  0  0  0  0  3  0  0  0  0  0  0
  -27.5350  -37.3230   24.7140 C   0  0  0  0  0  1  0  0  0  0  0  0
  -26.4340  -37.4820   23.7660 N   0  0  0  0  0  0  0  0  0  0  0  0
  -26.0250  -38.4020   23.9060 H   0  0  0  0  0  0  0  0  0  0  0  0
  1  3  2  0
  2  9  1  0
  2  1  1  0
  4  2  1  0
  5  8  1  0
  7 10  2  0
  8 21  1  0
  8  6  2  0
  9  5  2  0
  9  7  1  0
 10  6  1  0
 10 12  1  0
 11  7  1  0
 13 21  1  0
 14 19  1  0
 15 16  1  0
 15 14  1  0
 17 16  1  0
 17 26  1  0
 17 18  1  0
 19 13  1  0
 19 18  1  0
 20 13  2  0
 21 22  1  0
 23 24  2  0
 24 43  1  0
 25 24  1  0
 25 28  1  0
 26 23  1  0
 26 27  1  0
 27 25  2  0
 28 29  1  0
 29 30  2  0
 31 34  1  0
 31 30  1  0
 32 31  2  0
 33 32  1  0
 33 28  2  0
 34 35  1  0
 35 36  1  0
 36 37  2  0
 38 37  1  0
 38 42  1  0
 39 38  2  0
 40 35  2  0
 40 39  1  0
 41 40  1  0
 43 44  1  0
 44 47  1  0
 44 46  1  0
 45 43  2  0
 48 49  1  0
 48 23  1  0
 50 48  1  0
 51 54  1  0
 52 51  2  0
 52  1  1  0
 53 52  1  0
 55 54  1  0
 56 67  2  0
 57 55  1  0
 57 62  1  0
 58 66  1  0
 58 68  1  0
 59 65  1  0
 59 61  1  0
 60 66  1  0
 61 62  2  0
 61 60  1  0
 63 57  2  0
 64 63  1  0
 64 59  2  0
 65 58  1  0
 66 56  1  0
 68 70  2  0
 69 68  1  0
 71 69  1  0
 72 81  2  0
 72 77  1  0
 73 69  1  0
 73 77  1  0
 74 73  1  0
 75 76  1  0
 75 74  1  0
 76 72  1  0
 77 78  2  0
 78 79  1  0
 80 79  2  0
 81 80  1  0
 82 56  1  0
 82 87  1  0
 82 83  1  0
 83 86  1  1
 83 84  1  0
 85 83  1  0
 87 90  1  0
 88 92  1  0
 88 87  1  0
 89 88  2  0
 92 91  1  0
 94 92  1  0
 94 95  1  0
 94 93  1  0
M  ISO  4  13 100  21 100  54 101  55 101
M  END
>  <TORSDO>  (25) 
F 19

>  <SCORE>  (25) 
-14.800

>  <name>  (25) 
24

>  <ligand_id>  (25) 
24

>  <original_smiles>  (25) 
[H]C(=C(C(=O)N([H])c1c([H])c(N([H])C(=O)N2C([H])([H])C([H])([H])C([H])([H])C([H])(n3nc(-c4c([H])c([H])c(Oc5c([H])c([H])c(F)c([H])c5F)c([H])c4[H])c(C(=O)N([H])[H])c3N([H])[H])C2([H])[H])c([H])c(F)c1C([H])([H])[H])C([H])([H])[H])C([H])([H])Oc1c([H])c([H])c2c(c1[H])C([H])([H])N(C(=O)C([H])(N([H])C(=O)C([H])(N([H])C([H])([H])[H])C([H])([H])[H])C(C([H])([H])[H])(C([H])([H])[H])C([H])([H])[H])C([H])(C(=O)N([H])C1([H])c3c([H])c([H])c([H])c([H])c3C([H])([H])C([H])([H])C1([H])[H])C2([H])[H]

>  <smiles>  (25) 
[H]C(=C(C(=O)N([H])c1c([H])c(N([H])C(=O)N2C([H])([H])C([H])([H])C([H])([H])C([H])(n3nc(-c4c([H])c([H])c(Oc5c([H])c([H])c(F)c([H])c5F)c([H])c4[H])c(C(=O)N([H])[H])c3N([H])[H])C2([H])[H])c([H])c(F)c1C([H])([H])[H])C([H])([H])[H])C([H])([H])Oc1c([H])c([H])c2c(c1[H])C([H])([H])N(C(=O)C([H])(N([H])C(=O)C([H])(N([H])C([H])([H])[H])C([H])([H])[H])C(C([H])([H])[H])(C([H])([H])[H])C([H])([H])[H])C([H])(C(=O)N([H])C1([H])c3c([H])c([H])c([H])c([H])c3C([H])([H])C([H])([H])C1([H])[H])C2([H])[H]

$$$$
25:0:0
     RDKit          3D

 92100  0  0  1  0  0  0  0  0999 V2000
  -30.2710  -21.7270   20.4740 C   0  0  0  0  0  2  0  0  0  0  0  0
  -28.9120  -19.4760   20.7200 C   0  0  0  0  0  3  0  0  0  0  0  0
  -28.8450  -18.0480   20.7510 C   0  0  0  0  0  3  0  0  0  0  0  0
  -31.1260  -17.9030   20.0080 C   0  0  0  0  0  3  0  0  0  0  0  0
  -30.0950  -20.1600   20.3450 C   0  0  0  0  0  0  0  0  0  0  0  0
  -29.9510  -17.2160   20.4140 C   0  0  0  0  0  0  0  0  0  0  0  0
  -31.1950  -19.3290   19.9770 C   0  0  0  0  0  0  0  0  0  0  0  0
  -32.3640  -19.9010   19.5980 F   0  0  0  0  0  0  0  0  0  0  0  0
  -30.5930  -14.6970   20.1250 C   0  0  0  0  0  0  0  0  0  0  0  0
  -30.3260  -12.4860   19.0220 C   0  0  0  0  0  2  0  0  0  0  0  0
  -29.3390  -12.6730   17.8510 C   0  0  0  0  0  2  0  0  0  0  0  0
  -27.8760  -12.5320   18.3230 C   0  0  0  0  0  2  0  0  0  0  0  0
  -27.5800  -13.3300   19.6240 C   0  0  0  0  0  3  0  0  0  0  0  0
  -28.6880  -13.1250   20.6840 C   0  0  0  0  0  2  0  0  0  0  0  0
  -29.9710  -13.4770   20.0560 N   0  0  0  0  0  0  0  0  0  0  0  0
  -31.7470  -14.8450   19.7120 O   0  0  0  0  0  0  0  0  0  0  0  0
  -29.7970  -15.7550   20.4900 N   0  0  0  0  0  0  0  0  0  0  0  0
  -28.8840  -15.4530   20.7930 H   0  0  0  0  0  0  0  0  0  0  0  0
  -25.2150  -13.9140   20.4430 C   0  0  0  0  0  0  0  0  0  0  0  0
  -24.1650  -13.1340   20.8460 C   0  0  0  0  0  0  0  0  0  0  0  0
  -24.6240  -11.7840   20.7750 C   0  0  0  0  0  0  0  0  0  0  0  0
  -26.2500  -13.0380   20.1530 N   0  0  0  0  0  0  0  0  0  0  0  0
  -25.9010  -11.7510   20.4130 N   0  0  0  0  0  0  0  0  0  0  0  0
  -23.9040  -10.5200   20.9760 C   0  0  0  0  0  0  0  0  0  0  0  0
  -24.3540   -9.5510   21.9010 C   0  0  0  0  0  3  0  0  0  0  0  0
  -23.6310   -8.3530   22.0930 C   0  0  0  0  0  3  0  0  0  0  0  0
  -22.4450   -8.1150   21.3590 C   0  0  0  0  0  0  0  0  0  0  0  0
  -22.0130   -9.0710   20.4240 C   0  0  0  0  0  3  0  0  0  0  0  0
  -22.7350  -10.2610   20.2310 C   0  0  0  0  0  3  0  0  0  0  0  0
  -21.6940   -6.9680   21.4570 O   0  0  0  0  0  0  0  0  0  0  0  0
  -21.6470   -6.2380   22.6170 C   0  0  0  0  0  0  0  0  0  0  0  0
  -21.1920   -6.7950   23.8320 C   0  0  0  0  0  3  0  0  0  0  0  0
  -21.0940   -5.9890   24.9820 C   0  0  0  0  0  3  0  0  0  0  0  0
  -21.4420   -4.6270   24.9200 C   0  0  0  0  0  0  0  0  0  0  0  0
  -21.8880   -4.0690   23.7080 C   0  0  0  0  0  3  0  0  0  0  0  0
  -21.9880   -4.8730   22.5590 C   0  0  0  0  0  0  0  0  0  0  0  0
  -22.4000   -4.3260   21.3900 F   0  0  0  0  0  0  0  0  0  0  0  0
  -21.3410   -3.8490   26.0240 F   0  0  0  0  0  0  0  0  0  0  0  0
  -22.7780  -13.6100   21.1800 C   0  0  0  0  0  0  0  0  0  0  0  0
  -22.0840  -12.9030   22.0660 N   0  0  0  0  0  0  0  0  0  0  0  0
  -22.3200  -14.6400   20.6880 O   0  0  0  0  0  0  0  0  0  0  0  0
  -22.4610  -12.0650   22.4810 H   0  0  0  0  0  0  0  0  0  0  0  0
  -21.1580  -13.2080   22.3330 H   0  0  0  0  0  0  0  0  0  0  0  0
  -25.3620  -15.2870   20.2760 N   0  0  0  0  0  0  0  0  0  0  0  0
  -24.5820  -15.9150   20.4320 H   0  0  0  0  0  0  0  0  0  0  0  0
  -26.1320  -15.7360   19.7950 H   0  0  0  0  0  0  0  0  0  0  0  0
  -29.2430  -24.0650   20.4190 C   0  0  0  0  0  0  0  0  0  0  0  0
  -28.4800  -22.3570   18.8080 C   0  0  0  0  0  1  0  0  0  0  0  0
  -29.2750  -22.7510   19.9740 N   0  0  0  0  0  0  0  0  0  0  0  0
  -29.9960  -24.4460   21.3200 O   0  0  0  0  0  0  0  0  0  0  0  0
  -28.2290  -25.1180   19.8100 C   0  0  0  0  0  2  0  0  0  0  0  0
  -28.3700  -26.5330   20.2370 O   0  0  0  0  0  0  0  0  0  0  0  0
  -24.5920  -31.8770   23.2430 C   0  0  0  0  0  0  0  0  0  0  0  0
  -27.2370  -27.3660   20.1660 C   0  0  0  0  0  0  0  0  0  0  0  0
  -23.3960  -30.4860   21.5900 C   0  0  0  0  0  3  0  0  0  0  0  0
  -24.8590  -28.9610   20.1570 C   0  0  0  0  0  0  0  0  0  0  0  0
  -25.9310  -30.8270   21.4090 C   0  0  0  0  0  2  0  0  0  0  0  0
  -26.0230  -29.4560   20.7530 C   0  0  0  0  0  0  0  0  0  0  0  0
  -27.2130  -28.6700   20.7490 C   0  0  0  0  0  3  0  0  0  0  0  0
  -26.0460  -26.9300   19.5350 C   0  0  0  0  0  3  0  0  0  0  0  0
  -24.8720  -27.7040   19.5370 C   0  0  0  0  0  3  0  0  0  0  0  0
  -23.6140  -29.8220   20.2060 C   0  0  0  0  0  2  0  0  0  0  0  0
  -24.6580  -31.0790   22.1370 N   0  0  0  0  0  0  0  0  0  0  0  0
  -23.5080  -32.1460   23.7800 O   0  0  0  0  0  0  0  0  0  0  0  0
  -22.7350  -29.4600   22.5420 C   0  0  0  0  0  0  0  0  0  0  0  0
  -21.4090  -29.2830   22.4150 N   0  0  0  0  0  0  0  0  0  0  0  0
  -23.4140  -28.8250   23.3530 O   0  0  0  0  0  0  0  0  0  0  0  0
  -20.9180  -29.8420   21.7290 H   0  0  0  0  0  0  0  0  0  0  0  0
  -18.0280  -28.1050   22.9250 C   0  0  0  0  0  0  0  0  0  0  0  0
  -20.5900  -28.3430   23.1820 C   0  0  0  0  0  3  0  0  0  0  0  0
  -20.6790  -26.9180   22.5900 C   0  0  0  0  0  2  0  0  0  0  0  0
  -19.5670  -26.6160   21.5790 C   0  0  0  0  0  2  0  0  0  0  0  0
  -18.1900  -26.7640   22.2310 C   0  0  0  0  0  2  0  0  0  0  0  0
  -19.1550  -28.8540   23.3570 C   0  0  0  0  0  0  0  0  0  0  0  0
  -18.9490  -30.1120   23.9650 C   0  0  0  0  0  3  0  0  0  0  0  0
  -17.6490  -30.6200   24.1460 C   0  0  0  0  0  3  0  0  0  0  0  0
  -16.5360  -29.8660   23.7320 C   0  0  0  0  0  3  0  0  0  0  0  0
  -16.7280  -28.6120   23.1260 C   0  0  0  0  0  3  0  0  0  0  0  0
  -25.8750  -32.5090   23.8660 C   0  0  0  0  0  3  0  0  0  0  0  0
  -26.3880  -31.7340   25.1420 C   0  0  1  0  0  0  0  0  0  0  0  0
  -25.2900  -31.4870   26.2010 C   0  0  0  0  0  1  0  0  0  0  0  0
  -26.9790  -30.3590   24.7490 C   0  0  0  0  0  1  0  0  0  0  0  0
  -27.5330  -32.5290   25.8110 C   0  0  0  0  0  1  0  0  0  0  0  0
  -25.5650  -33.9080   24.1990 N   0  0  0  0  0  0  0  0  0  0  0  0
  -25.8830  -34.9620   23.4340 C   0  0  0  0  0  0  0  0  0  0  0  0
  -26.5390  -34.8580   22.3940 O   0  0  0  0  0  0  0  0  0  0  0  0
  -24.9880  -34.0610   25.0130 H   0  0  0  0  0  0  0  0  0  0  0  0
  -24.1420  -36.7430   23.0970 C   0  0  0  0  0  1  0  0  0  0  0  0
  -25.3940  -36.3470   23.8950 C   0  0  0  0  0  3  0  0  0  0  0  0
  -27.5280  -37.2480   24.7040 C   0  0  0  0  0  1  0  0  0  0  0  0
  -26.4170  -37.4060   23.7690 N   0  0  0  0  0  0  0  0  0  0  0  0
  -26.0060  -38.3230   23.9220 H   0  0  0  0  0  0  0  0  0  0  0  0
  2  3  1  0
  4  6  1  0
  5  1  1  0
  5  2  2  0
  6 17  1  0
  6  3  2  0
  7  4  2  0
  7  5  1  0
  8  7  1  0
  9 17  1  0
 10 15  1  0
 11 12  1  0
 11 10  1  0
 13 12  1  0
 13 22  1  0
 13 14  1  0
 15  9  1  0
 15 14  1  0
 16  9  2  0
 17 18  1  0
 19 20  2  0
 20 39  1  0
 21 20  1  0
 21 24  1  0
 22 23  1  0
 22 19  1  0
 23 21  2  0
 24 25  1  0
 25 26  2  0
 27 30  1  0
 27 26  1  0
 28 27  2  0
 29 28  1  0
 29 24  2  0
 30 31  1  0
 31 32  1  0
 32 33  2  0
 34 33  1  0
 34 38  1  0
 35 34  2  0
 36 31  2  0
 36 35  1  0
 37 36  1  0
 39 40  1  0
 40 43  1  0
 40 42  1  0
 41 39  2  0
 44 45  1  0
 44 19  1  0
 46 44  1  0
 47 50  2  0
 48 49  1  0
 49 47  1  0
 49  1  1  0
 51 52  1  0
 51 47  1  0
 53 64  2  0
 54 52  1  0
 54 59  1  0
 55 63  1  0
 55 65  1  0
 56 62  1  0
 56 58  1  0
 57 63  1  0
 58 57  1  0
 59 58  2  0
 60 61  1  0
 60 54  2  0
 61 56  2  0
 62 55  1  0
 63 53  1  0
 65 67  2  0
 66 65  1  0
 68 66  1  0
 69 78  2  0
 69 74  1  0
 70 66  1  0
 70 74  1  0
 71 70  1  0
 72 73  1  0
 72 71  1  0
 73 69  1  0
 74 75  2  0
 75 76  1  0
 77 76  2  0
 78 77  1  0
 79 53  1  0
 79 84  1  0
 79 80  1  0
 80 83  1  1
 80 81  1  0
 82 80  1  0
 84 87  1  0
 85 89  1  0
 85 84  1  0
 86 85  2  0
 89 88  1  0
 91 89  1  0
 91 92  1  0
 91 90  1  0
M  ISO  4   9 100  17 100  51 101  52 101
M  END
>  <TORSDO>  (26) 
F 19

>  <SCORE>  (26) 
-14.274

>  <name>  (26) 
25

>  <ligand_id>  (26) 
25

>  <original_smiles>  (26) 
[H]c1c([H])c([H])c2c(c1[H])C([H])([H])C([H])([H])C([H])([H])C2([H])N([H])C(=O)C1([H])N(C(=O)C([H])(N([H])C(=O)C([H])(N([H])C([H])([H])[H])C([H])([H])[H])C(C([H])([H])[H])(C([H])([H])[H])C([H])([H])[H])C([H])([H])c2c([H])c(OC([H])([H])C(=O)N(C([H])([H])[H])C([H])([H])c3c([H])c([H])c(N([H])C(=O)N4C([H])([H])C([H])([H])C([H])([H])C([H])(n5nc(-c6c([H])c([H])c(Oc7c([H])c([H])c(F)c([H])c7F)c([H])c6[H])c(C(=O)N([H])[H])c5N([H])[H])C4([H])[H])c([H])c3F)c([H])c([H])c2C1([H])[H]

>  <smiles>  (26) 
[H]c1c([H])c([H])c2c(c1[H])C([H])([H])C([H])([H])C([H])([H])C2([H])N([H])C(=O)C1([H])N(C(=O)C([H])(N([H])C(=O)C([H])(N([H])C([H])([H])[H])C([H])([H])[H])C(C([H])([H])[H])(C([H])([H])[H])C([H])([H])[H])C([H])([H])c2c([H])c(OC([H])([H])C(=O)N(C([H])([H])[H])C([H])([H])c3c([H])c([H])c(N([H])C(=O)N4C([H])([H])C([H])([H])C([H])([H])C([H])(n5nc(-c6c([H])c([H])c(Oc7c([H])c([H])c(F)c([H])c7F)c([H])c6[H])c(C(=O)N([H])[H])c5N([H])[H])C4([H])[H])c([H])c3F)c([H])c([H])c2C1([H])[H]

$$$$
26:0:0
     RDKit          3D

 92100  0  0  1  0  0  0  0  0999 V2000
  -29.1730  -22.3970   19.5690 C   0  0  0  0  0  0  0  0  0  0  0  0
  -29.3420  -21.1560   20.1850 N   0  0  0  0  0  0  0  0  0  0  0  0
  -29.2700  -22.5050   18.3450 O   0  0  0  0  0  0  0  0  0  0  0  0
  -29.1130  -21.1470   21.1690 H   0  0  0  0  0  0  0  0  0  0  0  0
  -31.4320  -18.7620   18.0860 C   0  0  0  0  0  3  0  0  0  0  0  0
  -30.8260  -19.9210   18.6020 C   0  0  0  0  0  3  0  0  0  0  0  0
  -31.1560  -17.4890   18.6170 C   0  0  0  0  0  3  0  0  0  0  0  0
  -29.6090  -18.5270   20.1890 C   0  0  0  0  0  0  0  0  0  0  0  0
  -29.8880  -19.8670   19.6600 C   0  0  0  0  0  0  0  0  0  0  0  0
  -30.2580  -17.3100   19.6940 C   0  0  0  0  0  0  0  0  0  0  0  0
  -28.5810  -18.3710   21.2960 C   0  0  0  0  0  1  0  0  0  0  0  0
  -30.7140  -14.7480   19.9680 C   0  0  0  0  0  0  0  0  0  0  0  0
  -30.4020  -12.5010   18.9480 C   0  0  0  0  0  2  0  0  0  0  0  0
  -29.4050  -12.6330   17.7760 C   0  0  0  0  0  2  0  0  0  0  0  0
  -27.9600  -12.4670   18.2810 C   0  0  0  0  0  2  0  0  0  0  0  0
  -27.6630  -13.3230   19.5400 C   0  0  0  0  0  3  0  0  0  0  0  0
  -28.7820  -13.2070   20.6000 C   0  0  0  0  0  2  0  0  0  0  0  0
  -30.0500  -13.5420   19.9420 N   0  0  0  0  0  0  0  0  0  0  0  0
  -31.9010  -14.7850   19.6350 O   0  0  0  0  0  0  0  0  0  0  0  0
  -29.9910  -15.9200   20.1760 N   0  0  0  0  0  0  0  0  0  0  0  0
  -29.0810  -15.7800   20.5860 H   0  0  0  0  0  0  0  0  0  0  0  0
  -25.3140  -13.9080   20.3910 C   0  0  0  0  0  0  0  0  0  0  0  0
  -24.2670  -13.1310   20.8030 C   0  0  0  0  0  0  0  0  0  0  0  0
  -24.7270  -11.7800   20.7380 C   0  0  0  0  0  0  0  0  0  0  0  0
  -26.3450  -13.0300   20.0970 N   0  0  0  0  0  0  0  0  0  0  0  0
  -26.0010  -11.7440   20.3680 N   0  0  0  0  0  0  0  0  0  0  0  0
  -24.0080  -10.5160   20.9460 C   0  0  0  0  0  0  0  0  0  0  0  0
  -24.4620   -9.5490   21.8690 C   0  0  0  0  0  3  0  0  0  0  0  0
  -23.7410   -8.3520   22.0650 C   0  0  0  0  0  3  0  0  0  0  0  0
  -22.5510   -8.1110   21.3380 C   0  0  0  0  0  0  0  0  0  0  0  0
  -22.1160   -9.0660   20.4020 C   0  0  0  0  0  3  0  0  0  0  0  0
  -22.8380  -10.2550   20.2040 C   0  0  0  0  0  3  0  0  0  0  0  0
  -21.8000   -6.9660   21.4450 O   0  0  0  0  0  0  0  0  0  0  0  0
  -21.7540   -6.2390   22.6070 C   0  0  0  0  0  0  0  0  0  0  0  0
  -21.3250   -6.8100   23.8250 C   0  0  0  0  0  3  0  0  0  0  0  0
  -21.2280   -6.0100   24.9830 C   0  0  0  0  0  3  0  0  0  0  0  0
  -21.5500   -4.6420   24.9220 C   0  0  0  0  0  0  0  0  0  0  0  0
  -21.9720   -4.0700   23.7080 C   0  0  0  0  0  3  0  0  0  0  0  0
  -22.0710   -4.8670   22.5550 C   0  0  0  0  0  0  0  0  0  0  0  0
  -22.4570   -4.3070   21.3830 F   0  0  0  0  0  0  0  0  0  0  0  0
  -21.4490   -3.8710   26.0310 F   0  0  0  0  0  0  0  0  0  0  0  0
  -22.8840  -13.6050   21.1420 C   0  0  0  0  0  0  0  0  0  0  0  0
  -22.1980  -12.9020   22.0340 N   0  0  0  0  0  0  0  0  0  0  0  0
  -22.4250  -14.6360   20.6530 O   0  0  0  0  0  0  0  0  0  0  0  0
  -22.5830  -12.0680   22.4530 H   0  0  0  0  0  0  0  0  0  0  0  0
  -21.2700  -13.2010   22.3050 H   0  0  0  0  0  0  0  0  0  0  0  0
  -25.4720  -15.2810   20.2190 N   0  0  0  0  0  0  0  0  0  0  0  0
  -24.7020  -15.9280   20.3530 H   0  0  0  0  0  0  0  0  0  0  0  0
  -26.2900  -15.7180   19.8130 H   0  0  0  0  0  0  0  0  0  0  0  0
  -28.8140  -23.7370   20.3730 C   0  0  0  0  0  3  0  0  0  0  0  0
  -28.4980  -25.0990   19.5500 C   0  0  0  0  0  3  0  0  0  0  0  0
  -28.3710  -26.4410   20.2140 O   0  0  0  0  0  0  0  0  0  0  0  0
  -24.6360  -31.8710   23.2260 C   0  0  0  0  0  0  0  0  0  0  0  0
  -27.2280  -27.2740   20.1500 C   0  0  0  0  0  0  0  0  0  0  0  0
  -23.4210  -30.4700   21.5960 C   0  0  0  0  0  3  0  0  0  0  0  0
  -24.8600  -28.9090   20.1650 C   0  0  0  0  0  0  0  0  0  0  0  0
  -25.9640  -30.7720   21.4010 C   0  0  0  0  0  2  0  0  0  0  0  0
  -26.0340  -29.3910   20.7530 C   0  0  0  0  0  0  0  0  0  0  0  0
  -27.2130  -28.5840   20.7380 C   0  0  0  0  0  3  0  0  0  0  0  0
  -26.0170  -26.8470   19.5560 C   0  0  0  0  0  3  0  0  0  0  0  0
  -24.8540  -27.6420   19.5600 C   0  0  0  0  0  3  0  0  0  0  0  0
  -23.6270  -29.7900   20.2160 C   0  0  0  0  0  2  0  0  0  0  0  0
  -24.6930  -31.0580   22.1300 N   0  0  0  0  0  0  0  0  0  0  0  0
  -23.5570  -32.1530   23.7650 O   0  0  0  0  0  0  0  0  0  0  0  0
  -22.7620  -29.4590   22.5630 C   0  0  0  0  0  0  0  0  0  0  0  0
  -21.4340  -29.2860   22.4480 N   0  0  0  0  0  0  0  0  0  0  0  0
  -23.4440  -28.8310   23.3760 O   0  0  0  0  0  0  0  0  0  0  0  0
  -20.9460  -29.8430   21.7620 H   0  0  0  0  0  0  0  0  0  0  0  0
  -18.0550  -28.0960   22.9670 C   0  0  0  0  0  0  0  0  0  0  0  0
  -20.6170  -28.3550   23.2250 C   0  0  0  0  0  3  0  0  0  0  0  0
  -20.7140  -26.9200   22.6580 C   0  0  0  0  0  2  0  0  0  0  0  0
  -19.6080  -26.5950   21.6490 C   0  0  0  0  0  2  0  0  0  0  0  0
  -18.2280  -26.7440   22.2970 C   0  0  0  0  0  2  0  0  0  0  0  0
  -19.1770  -28.8600   23.3880 C   0  0  0  0  0  0  0  0  0  0  0  0
  -18.9630  -30.1240   23.9760 C   0  0  0  0  0  3  0  0  0  0  0  0
  -17.6600  -30.6270   24.1480 C   0  0  0  0  0  3  0  0  0  0  0  0
  -16.5520  -29.8630   23.7420 C   0  0  0  0  0  3  0  0  0  0  0  0
  -16.7520  -28.5990   23.1570 C   0  0  0  0  0  3  0  0  0  0  0  0
  -25.9230  -32.5030   23.8380 C   0  0  0  0  0  3  0  0  0  0  0  0
  -26.4540  -31.7240   25.1040 C   0  0  1  0  0  0  0  0  0  0  0  0
  -25.3740  -31.4750   26.1820 C   0  0  0  0  0  1  0  0  0  0  0  0
  -27.0410  -30.3530   24.6970 C   0  0  0  0  0  1  0  0  0  0  0  0
  -27.6070  -32.5190   25.7610 C   0  0  0  0  0  1  0  0  0  0  0  0
  -25.6110  -33.8970   24.1870 N   0  0  0  0  0  0  0  0  0  0  0  0
  -25.9180  -34.9590   23.4320 C   0  0  0  0  0  0  0  0  0  0  0  0
  -26.5650  -34.8690   22.3840 O   0  0  0  0  0  0  0  0  0  0  0  0
  -25.0320  -34.0390   25.0020 H   0  0  0  0  0  0  0  0  0  0  0  0
  -24.1660  -36.7420   23.1360 C   0  0  0  0  0  1  0  0  0  0  0  0
  -25.4310  -36.3410   23.9130 C   0  0  0  0  0  3  0  0  0  0  0  0
  -27.5790  -37.2380   24.6900 C   0  0  0  0  0  1  0  0  0  0  0  0
  -26.4500  -37.4040   23.7800 N   0  0  0  0  0  0  0  0  0  0  0  0
  -26.0400  -38.3200   23.9460 H   0  0  0  0  0  0  0  0  0  0  0  0
  1  2  1  0
  1 50  1  0
  2  4  1  0
  3  1  2  0
  5  6  2  0
  5  7  1  0
  6  9  1  0
  7 10  2  0
  8 11  1  0
  9  2  1  0
  9  8  2  0
 10 20  1  0
 10  8  1  0
 12 20  1  0
 13 18  1  0
 14 15  1  0
 14 13  1  0
 16 15  1  0
 16 25  1  0
 16 17  1  0
 18 12  1  0
 18 17  1  0
 19 12  2  0
 20 21  1  0
 22 23  2  0
 23 42  1  0
 24 23  1  0
 24 27  1  0
 25 26  1  0
 25 22  1  0
 26 24  2  0
 27 28  1  0
 28 29  2  0
 30 33  1  0
 30 29  1  0
 31 30  2  0
 32 31  1  0
 32 27  2  0
 33 34  1  0
 34 35  1  0
 35 36  2  0
 37 36  1  0
 37 41  1  0
 38 37  2  0
 39 34  2  0
 39 38  1  0
 40 39  1  0
 42 43  1  0
 43 46  1  0
 43 45  1  0
 44 42  2  0
 47 48  1  0
 47 22  1  0
 49 47  1  0
 51 52  1  0
 51 50  2  0
 53 64  2  0
 54 52  1  0
 54 59  1  0
 55 63  1  0
 55 65  1  0
 56 62  1  0
 56 58  1  0
 57 63  1  0
 58 57  1  0
 59 58  2  0
 60 61  1  0
 60 54  2  0
 61 56  2  0
 62 55  1  0
 63 53  1  0
 65 67  2  0
 66 65  1  0
 68 66  1  0
 69 78  2  0
 69 74  1  0
 70 66  1  0
 70 74  1  0
 71 70  1  0
 72 73  1  0
 72 71  1  0
 73 69  1  0
 74 75  2  0
 75 76  1  0
 77 76  2  0
 78 77  1  0
 79 53  1  0
 79 84  1  0
 79 80  1  0
 80 83  1  1
 80 81  1  0
 82 80  1  0
 84 87  1  0
 85 89  1  0
 85 84  1  0
 86 85  2  0
 89 88  1  0
 91 89  1  0
 91 92  1  0
 91 90  1  0
M  ISO  4  12 100  20 100  51 101  52 101
M  END
>  <TORSDO>  (27) 
F 19

>  <SCORE>  (27) 
-13.295

>  <name>  (27) 
26

>  <ligand_id>  (27) 
26

>  <original_smiles>  (27) 
[H]c1c([H])c(N([H])C(=O)N2C([H])([H])C([H])([H])C([H])([H])C([H])(n3nc(-c4c([H])c([H])c(Oc5c([H])c([H])c(F)c([H])c5F)c([H])c4[H])c(C(=O)N([H])[H])c3N([H])[H])C2([H])[H])c(C([H])([H])[H])c(N([H])C(=O)C([H])([H])C([H])([H])Oc2c([H])c([H])c3c(c2[H])C([H])([H])N(C(=O)C([H])(N([H])C(=O)C([H])(N([H])C([H])([H])[H])C([H])([H])[H])C(C([H])([H])[H])(C([H])([H])[H])C([H])([H])[H])C([H])(C(=O)N([H])C2([H])c4c([H])c([H])c([H])c([H])c4C([H])([H])C([H])([H])C2([H])[H])C3([H])[H])c1[H]

>  <smiles>  (27) 
[H]c1c([H])c(N([H])C(=O)N2C([H])([H])C([H])([H])C([H])([H])C([H])(n3nc(-c4c([H])c([H])c(Oc5c([H])c([H])c(F)c([H])c5F)c([H])c4[H])c(C(=O)N([H])[H])c3N([H])[H])C2([H])[H])c(C([H])([H])[H])c(N([H])C(=O)C([H])([H])C([H])([H])Oc2c([H])c([H])c3c(c2[H])C([H])([H])N(C(=O)C([H])(N([H])C(=O)C([H])(N([H])C([H])([H])[H])C([H])([H])[H])C(C([H])([H])[H])(C([H])([H])[H])C([H])([H])[H])C([H])(C(=O)N([H])C2([H])c4c([H])c([H])c([H])c([H])c4C([H])([H])C([H])([H])C2([H])[H])C3([H])[H])c1[H]

$$$$
27:0:0
     RDKit          3D

 95104  0  0  1  0  0  0  0  0999 V2000
  -31.3880  -22.7140   20.5830 C   0  0  0  0  0  0  0  0  0  0  0  0
  -28.5930  -22.1710   20.2300 C   0  0  0  0  0  0  0  0  0  0  0  0
  -30.4990  -23.9390   20.3040 C   0  0  0  0  0  2  0  0  0  0  0  0
  -30.7040  -21.4860   21.2060 C   0  0  0  0  0  2  0  0  0  0  0  0
  -28.9910  -23.6980   20.5750 C   0  0  0  0  0  3  0  0  0  0  0  0
  -29.4990  -21.1240   20.4480 N   0  0  0  0  0  0  0  0  0  0  0  0
  -32.5890  -22.7180   20.3090 O   0  0  0  0  0  0  0  0  0  0  0  0
  -27.4640  -21.9580   19.7840 O   0  0  0  0  0  0  0  0  0  0  0  0
  -29.4540  -18.2340   17.9350 C   0  0  0  0  0  3  0  0  0  0  0  0
  -29.6170  -17.0860   18.7290 C   0  0  0  0  0  3  0  0  0  0  0  0
  -29.6340  -18.5100   20.6980 C   0  0  0  0  0  3  0  0  0  0  0  0
  -29.3980  -19.5340   18.4880 C   0  0  0  0  0  0  0  0  0  0  0  0
  -29.4580  -19.7270   19.9020 C   0  0  0  0  0  0  0  0  0  0  0  0
  -29.7300  -17.1680   20.1300 C   0  0  0  0  0  0  0  0  0  0  0  0
  -29.3390  -20.6900   17.4950 C   0  0  0  0  0  1  0  0  0  0  0  0
  -30.5640  -14.7550   20.5600 C   0  0  0  0  0  0  0  0  0  0  0  0
  -30.4020  -12.4530   19.6200 C   0  0  0  0  0  2  0  0  0  0  0  0
  -29.5170  -12.5340   18.3550 C   0  0  0  0  0  2  0  0  0  0  0  0
  -28.0280  -12.3800   18.7230 C   0  0  0  0  0  2  0  0  0  0  0  0
  -27.6130  -13.2650   19.9300 C   0  0  0  0  0  3  0  0  0  0  0  0
  -28.6300  -13.1810   21.0900 C   0  0  0  0  0  2  0  0  0  0  0  0
  -29.9530  -13.5190   20.5470 N   0  0  0  0  0  0  0  0  0  0  0  0
  -31.7340  -14.8630   20.1830 O   0  0  0  0  0  0  0  0  0  0  0  0
  -29.8140  -15.8810   20.8670 N   0  0  0  0  0  0  0  0  0  0  0  0
  -29.0000  -15.6760   21.4280 H   0  0  0  0  0  0  0  0  0  0  0  0
  -25.1980  -13.8530   20.5730 C   0  0  0  0  0  0  0  0  0  0  0  0
  -24.1220  -13.0800   20.9150 C   0  0  0  0  0  0  0  0  0  0  0  0
  -24.5870  -11.7300   20.9090 C   0  0  0  0  0  0  0  0  0  0  0  0
  -26.2510  -12.9740   20.3760 N   0  0  0  0  0  0  0  0  0  0  0  0
  -25.8870  -11.6920   20.6360 N   0  0  0  0  0  0  0  0  0  0  0  0
  -23.8570  -10.4680   21.0900 C   0  0  0  0  0  0  0  0  0  0  0  0
  -24.2750   -9.4980   22.0280 C   0  0  0  0  0  3  0  0  0  0  0  0
  -23.5420   -8.3020   22.1980 C   0  0  0  0  0  3  0  0  0  0  0  0
  -22.3770   -8.0680   21.4290 C   0  0  0  0  0  0  0  0  0  0  0  0
  -21.9770   -9.0270   20.4810 C   0  0  0  0  0  3  0  0  0  0  0  0
  -22.7110  -10.2130   20.3100 C   0  0  0  0  0  3  0  0  0  0  0  0
  -21.6220   -6.9220   21.5020 O   0  0  0  0  0  0  0  0  0  0  0  0
  -21.5740   -6.1650   22.6460 C   0  0  0  0  0  0  0  0  0  0  0  0
  -21.1640   -6.7090   23.8830 C   0  0  0  0  0  3  0  0  0  0  0  0
  -21.0600   -5.8800   25.0180 C   0  0  0  0  0  3  0  0  0  0  0  0
  -21.3570   -4.5090   24.9180 C   0  0  0  0  0  0  0  0  0  0  0  0
  -21.7610   -3.9640   23.6870 C   0  0  0  0  0  3  0  0  0  0  0  0
  -21.8660   -4.7900   22.5540 C   0  0  0  0  0  0  0  0  0  0  0  0
  -22.2350   -4.2560   21.3640 F   0  0  0  0  0  0  0  0  0  0  0  0
  -21.2510   -3.7110   26.0050 F   0  0  0  0  0  0  0  0  0  0  0  0
  -22.7160  -13.5580   21.1390 C   0  0  0  0  0  0  0  0  0  0  0  0
  -21.9610  -12.8710   21.9890 N   0  0  0  0  0  0  0  0  0  0  0  0
  -22.2960  -14.5800   20.5970 O   0  0  0  0  0  0  0  0  0  0  0  0
  -22.3100  -12.0440   22.4500 H   0  0  0  0  0  0  0  0  0  0  0  0
  -21.0200  -13.1790   22.1820 H   0  0  0  0  0  0  0  0  0  0  0  0
  -25.3680  -15.2220   20.3920 N   0  0  0  0  0  0  0  0  0  0  0  0
  -24.6000  -15.8800   20.4860 H   0  0  0  0  0  0  0  0  0  0  0  0
  -26.2250  -15.6600   20.0830 H   0  0  0  0  0  0  0  0  0  0  0  0
  -28.0620  -24.9010   19.9960 C   0  0  0  0  0  2  0  0  0  0  0  0
  -28.2760  -26.3690   20.2860 O   0  0  0  0  0  0  0  0  0  0  0  0
  -24.5990  -31.8940   23.2390 C   0  0  0  0  0  0  0  0  0  0  0  0
  -27.1840  -27.2710   20.2000 C   0  0  0  0  0  0  0  0  0  0  0  0
  -23.3900  -30.4950   21.6070 C   0  0  0  0  0  3  0  0  0  0  0  0
  -24.8330  -28.9340   20.1790 C   0  0  0  0  0  0  0  0  0  0  0  0
  -25.9330  -30.7940   21.4190 C   0  0  0  0  0  2  0  0  0  0  0  0
  -26.0070  -29.4080   20.7770 C   0  0  0  0  0  0  0  0  0  0  0  0
  -27.1850  -28.5890   20.7780 C   0  0  0  0  0  3  0  0  0  0  0  0
  -25.9870  -26.8780   19.5550 C   0  0  0  0  0  3  0  0  0  0  0  0
  -24.8290  -27.6790   19.5570 C   0  0  0  0  0  3  0  0  0  0  0  0
  -23.6000  -29.8150   20.2280 C   0  0  0  0  0  2  0  0  0  0  0  0
  -24.6610  -31.0780   22.1460 N   0  0  0  0  0  0  0  0  0  0  0  0
  -23.5150  -32.1780   23.7730 O   0  0  0  0  0  0  0  0  0  0  0  0
  -22.7220  -29.4850   22.5730 C   0  0  0  0  0  0  0  0  0  0  0  0
  -21.3940  -29.3070   22.4450 N   0  0  0  0  0  0  0  0  0  0  0  0
  -23.3960  -28.8630   23.3980 O   0  0  0  0  0  0  0  0  0  0  0  0
  -20.9080  -29.8580   21.7520 H   0  0  0  0  0  0  0  0  0  0  0  0
  -18.0170  -28.1090   22.9430 C   0  0  0  0  0  0  0  0  0  0  0  0
  -20.5740  -28.3750   23.2210 C   0  0  0  0  0  3  0  0  0  0  0  0
  -20.6810  -26.9390   22.6560 C   0  0  0  0  0  2  0  0  0  0  0  0
  -19.5830  -26.6060   21.6410 C   0  0  0  0  0  2  0  0  0  0  0  0
  -18.1980  -26.7540   22.2790 C   0  0  0  0  0  2  0  0  0  0  0  0
  -19.1330  -28.8770   23.3720 C   0  0  0  0  0  0  0  0  0  0  0  0
  -18.9090  -30.1430   23.9550 C   0  0  0  0  0  3  0  0  0  0  0  0
  -17.6010  -30.6420   24.1110 C   0  0  0  0  0  3  0  0  0  0  0  0
  -16.5010  -29.8720   23.6970 C   0  0  0  0  0  3  0  0  0  0  0  0
  -16.7100  -28.6070   23.1210 C   0  0  0  0  0  3  0  0  0  0  0  0
  -25.8820  -32.5280   23.8580 C   0  0  0  0  0  3  0  0  0  0  0  0
  -25.5730  -33.9270   24.1880 N   0  0  0  0  0  0  0  0  0  0  0  0
  -25.9030  -34.9790   23.4290 C   0  0  0  0  0  0  0  0  0  0  0  0
  -26.5680  -34.8750   22.3930 O   0  0  0  0  0  0  0  0  0  0  0  0
  -24.9800  -34.0800   24.9910 H   0  0  0  0  0  0  0  0  0  0  0  0
  -24.1740  -36.7740   23.0840 C   0  0  0  0  0  1  0  0  0  0  0  0
  -25.4210  -36.3700   23.8870 C   0  0  0  0  0  3  0  0  0  0  0  0
  -27.5660  -37.2510   24.6970 C   0  0  0  0  0  1  0  0  0  0  0  0
  -26.4540  -37.4210   23.7640 N   0  0  0  0  0  0  0  0  0  0  0  0
  -26.0510  -38.3420   23.9150 H   0  0  0  0  0  0  0  0  0  0  0  0
  -26.3960  -31.7580   25.1360 C   0  0  1  0  0  0  0  0  0  0  0  0
  -25.3020  -31.5270   26.2050 C   0  0  0  0  0  1  0  0  0  0  0  0
  -26.9720  -30.3770   24.7460 C   0  0  0  0  0  1  0  0  0  0  0  0
  -27.5530  -32.5470   25.7920 C   0  0  0  0  0  1  0  0  0  0  0  0
  1  4  1  0
  2  6  1  0
  2  5  1  0
  3  5  1  0
  3  1  1  0
  5 54  1  0
  6  4  1  0
  7  1  2  0
  8  2  2  0
  9 12  2  0
  9 10  1  0
 10 14  2  0
 12 13  1  0
 13  6  1  0
 13 11  2  0
 14 11  1  0
 14 24  1  0
 15 12  1  0
 16 24  1  0
 17 22  1  0
 18 19  1  0
 18 17  1  0
 20 19  1  0
 20 29  1  0
 20 21  1  0
 22 16  1  0
 22 21  1  0
 23 16  2  0
 24 25  1  0
 26 27  2  0
 27 46  1  0
 28 27  1  0
 28 31  1  0
 29 26  1  0
 29 30  1  0
 30 28  2  0
 31 32  1  0
 32 33  2  0
 34 37  1  0
 34 33  1  0
 35 34  2  0
 36 35  1  0
 36 31  2  0
 37 38  1  0
 38 39  1  0
 39 40  2  0
 41 40  1  0
 41 45  1  0
 42 41  2  0
 43 38  2  0
 43 42  1  0
 44 43  1  0
 46 47  1  0
 47 50  1  0
 47 49  1  0
 48 46  2  0
 51 52  1  0
 51 26  1  0
 53 51  1  0
 54 55  1  0
 56 67  2  0
 57 55  1  0
 57 62  1  0
 58 66  1  0
 58 68  1  0
 59 65  1  0
 59 61  1  0
 60 66  1  0
 61 62  2  0
 61 60  1  0
 63 64  1  0
 63 57  2  0
 64 59  2  0
 65 58  1  0
 66 56  1  0
 68 70  2  0
 69 68  1  0
 71 69  1  0
 72 81  2  0
 72 77  1  0
 73 69  1  0
 73 77  1  0
 74 73  1  0
 75 76  1  0
 75 74  1  0
 76 72  1  0
 77 78  2  0
 78 79  1  0
 80 79  2  0
 81 80  1  0
 82 56  1  0
 82 83  1  0
 82 92  1  0
 83 86  1  0
 84 88  1  0
 84 83  1  0
 85 84  2  0
 88 87  1  0
 90 88  1  0
 90 91  1  0
 90 89  1  0
 92 95  1  1
 92 93  1  0
 94 92  1  0
M  ISO  4  16 100  24 100  54 101  55 101
M  END
>  <TORSDO>  (28) 
F 18

>  <SCORE>  (28) 
-14.804

>  <name>  (28) 
27

>  <ligand_id>  (28) 
27

>  <original_smiles>  (28) 
[H]c1c([H])c([H])c2c(c1[H])C([H])([H])C([H])([H])C([H])([H])C2([H])N([H])C(=O)C1([H])N(C(=O)C([H])(N([H])C(=O)C([H])(N([H])C([H])([H])[H])C([H])([H])[H])C(C([H])([H])[H])(C([H])([H])[H])C([H])([H])[H])C([H])([H])c2c([H])c(OC([H])([H])C3([H])C(=O)N(c4c([H])c(N([H])C(=O)N5C([H])([H])C([H])([H])C([H])([H])C([H])(n6nc(-c7c([H])c([H])c(Oc8c([H])c([H])c(F)c([H])c8F)c([H])c7[H])c(C(=O)N([H])[H])c6N([H])[H])C5([H])[H])c([H])c([H])c4C([H])([H])[H])C([H])([H])C(=O)C3([H])[H])c([H])c([H])c2C1([H])[H]

>  <smiles>  (28) 
[H]c1c([H])c([H])c2c(c1[H])C([H])([H])C([H])([H])C([H])([H])C2([H])N([H])C(=O)C1([H])N(C(=O)C([H])(N([H])C(=O)C([H])(N([H])C([H])([H])[H])C([H])([H])[H])C(C([H])([H])[H])(C([H])([H])[H])C([H])([H])[H])C([H])([H])c2c([H])c(OC([H])([H])C3([H])C(=O)N(c4c([H])c(N([H])C(=O)N5C([H])([H])C([H])([H])C([H])([H])C([H])(n6nc(-c7c([H])c([H])c(Oc8c([H])c([H])c(F)c([H])c8F)c([H])c7[H])c(C(=O)N([H])[H])c6N([H])[H])C5([H])[H])c([H])c([H])c4C([H])([H])[H])C([H])([H])C(=O)C3([H])[H])c([H])c([H])c2C1([H])[H]

$$$$
28:0:0
     RDKit          3D

 92100  0  0  1  0  0  0  0  0999 V2000
  -29.5060  -23.1030   21.0590 C   0  0  0  0  0  0  0  0  0  0  0  0
  -29.6650  -21.8630   20.5340 N   0  0  0  0  0  0  0  0  0  0  0  0
  -29.8820  -23.4100   22.1930 O   0  0  0  0  0  0  0  0  0  0  0  0
  -29.3870  -21.7820   19.5650 H   0  0  0  0  0  0  0  0  0  0  0  0
  -31.2550  -19.3960   22.9450 C   0  0  0  0  0  3  0  0  0  0  0  0
  -31.2340  -18.2170   22.1760 C   0  0  0  0  0  3  0  0  0  0  0  0
  -30.7430  -20.6050   22.4290 C   0  0  0  0  0  3  0  0  0  0  0  0
  -30.1840  -19.4630   20.3620 C   0  0  0  0  0  3  0  0  0  0  0  0
  -30.6980  -18.2400   20.8720 C   0  0  0  0  0  0  0  0  0  0  0  0
  -30.2050  -20.6630   21.1210 C   0  0  0  0  0  0  0  0  0  0  0  0
  -30.7280  -16.9990   19.9700 C   0  0  0  0  0  2  0  0  0  0  0  0
  -31.2450  -14.5880   20.3540 C   0  0  0  0  0  0  0  0  0  0  0  0
  -30.9380  -12.3450   19.3890 C   0  0  0  0  0  2  0  0  0  0  0  0
  -30.0210  -12.4850   18.1560 C   0  0  0  0  0  2  0  0  0  0  0  0
  -28.5390  -12.4030   18.5680 C   0  0  0  0  0  2  0  0  0  0  0  0
  -28.1970  -13.3280   19.7680 C   0  0  0  0  0  3  0  0  0  0  0  0
  -29.2320  -13.1760   20.9060 C   0  0  0  0  0  2  0  0  0  0  0  0
  -30.5700  -13.4070   20.3400 N   0  0  0  0  0  0  0  0  0  0  0  0
  -32.4030  -14.6980   19.9380 O   0  0  0  0  0  0  0  0  0  0  0  0
  -30.4880  -15.6800   20.5900 N   0  0  0  0  0  0  0  0  0  0  0  0
  -29.5510  -15.5000   20.9160 H   0  0  0  0  0  0  0  0  0  0  0  0
  -25.8420  -14.0390   20.5170 C   0  0  0  0  0  0  0  0  0  0  0  0
  -24.7320  -13.3150   20.8580 C   0  0  0  0  0  0  0  0  0  0  0  0
  -25.1120  -11.9410   20.7640 C   0  0  0  0  0  0  0  0  0  0  0  0
  -26.8340  -13.1100   20.2440 N   0  0  0  0  0  0  0  0  0  0  0  0
  -26.3970  -11.8390   20.4490 N   0  0  0  0  0  0  0  0  0  0  0  0
  -24.3170  -10.7150   20.9030 C   0  0  0  0  0  0  0  0  0  0  0  0
  -24.6710   -9.7050   21.8250 C   0  0  0  0  0  3  0  0  0  0  0  0
  -23.8780   -8.5450   21.9540 C   0  0  0  0  0  3  0  0  0  0  0  0
  -22.7180   -8.3870   21.1600 C   0  0  0  0  0  0  0  0  0  0  0  0
  -22.3820   -9.3850   20.2300 C   0  0  0  0  0  3  0  0  0  0  0  0
  -23.1740  -10.5370   20.0980 C   0  0  0  0  0  3  0  0  0  0  0  0
  -21.9030   -7.2810   21.2000 O   0  0  0  0  0  0  0  0  0  0  0  0
  -21.7110   -6.5670   22.3540 C   0  0  0  0  0  0  0  0  0  0  0  0
  -21.1910   -7.1640   23.5230 C   0  0  0  0  0  3  0  0  0  0  0  0
  -20.9470   -6.3790   24.6670 C   0  0  0  0  0  3  0  0  0  0  0  0
  -21.2110   -4.9970   24.6420 C   0  0  0  0  0  0  0  0  0  0  0  0
  -21.7230   -4.3980   23.4770 C   0  0  0  0  0  3  0  0  0  0  0  0
  -21.9700   -5.1810   22.3350 C   0  0  0  0  0  0  0  0  0  0  0  0
  -22.4430   -4.5960   21.2090 F   0  0  0  0  0  0  0  0  0  0  0  0
  -20.9680   -4.2390   25.7370 F   0  0  0  0  0  0  0  0  0  0  0  0
  -23.3660  -13.8610   21.1570 C   0  0  0  0  0  0  0  0  0  0  0  0
  -22.6150  -13.1910   22.0260 N   0  0  0  0  0  0  0  0  0  0  0  0
  -22.9740  -14.9140   20.6570 O   0  0  0  0  0  0  0  0  0  0  0  0
  -22.9430  -12.3380   22.4530 H   0  0  0  0  0  0  0  0  0  0  0  0
  -21.6980  -13.5410   22.2700 H   0  0  0  0  0  0  0  0  0  0  0  0
  -26.0850  -15.4050   20.3960 N   0  0  0  0  0  0  0  0  0  0  0  0
  -25.3610  -16.0990   20.5440 H   0  0  0  0  0  0  0  0  0  0  0  0
  -26.9530  -15.8080   20.0670 H   0  0  0  0  0  0  0  0  0  0  0  0
  -28.8570  -24.1880   20.1640 C   0  0  0  0  0  2  0  0  0  0  0  0
  -28.3770  -25.4570   20.9300 C   0  0  0  0  0  2  0  0  0  0  0  0
  -28.3720  -26.6480   20.1190 O   0  0  0  0  0  0  0  0  0  0  0  0
  -24.5820  -31.8970   23.1330 C   0  0  0  0  0  0  0  0  0  0  0  0
  -27.2070  -27.3830   20.1470 C   0  0  0  0  0  0  0  0  0  0  0  0
  -23.3590  -30.4510   21.5400 C   0  0  0  0  0  3  0  0  0  0  0  0
  -24.8020  -28.8770   20.1430 C   0  0  0  0  0  0  0  0  0  0  0  0
  -25.8800  -30.8150   21.3010 C   0  0  0  0  0  2  0  0  0  0  0  0
  -25.9660  -29.4270   20.6980 C   0  0  0  0  0  0  0  0  0  0  0  0
  -27.1740  -28.6880   20.6940 C   0  0  0  0  0  3  0  0  0  0  0  0
  -26.0270  -26.8450   19.5910 C   0  0  0  0  0  3  0  0  0  0  0  0
  -24.8280  -27.5850   19.5880 C   0  0  0  0  0  3  0  0  0  0  0  0
  -23.5550  -29.7330   20.1780 C   0  0  0  0  0  2  0  0  0  0  0  0
  -24.6260  -31.0690   22.0490 N   0  0  0  0  0  0  0  0  0  0  0  0
  -23.5070  -32.1830   23.6800 O   0  0  0  0  0  0  0  0  0  0  0  0
  -22.7210  -29.4560   22.5360 C   0  0  0  0  0  0  0  0  0  0  0  0
  -21.3950  -29.2670   22.4280 N   0  0  0  0  0  0  0  0  0  0  0  0
  -23.4150  -28.8560   23.3620 O   0  0  0  0  0  0  0  0  0  0  0  0
  -20.8950  -29.8010   21.7300 H   0  0  0  0  0  0  0  0  0  0  0  0
  -18.0380  -28.0480   22.9680 C   0  0  0  0  0  0  0  0  0  0  0  0
  -20.5920  -28.3480   23.2330 C   0  0  0  0  0  3  0  0  0  0  0  0
  -20.7160  -26.8980   22.7100 C   0  0  0  0  0  2  0  0  0  0  0  0
  -19.6190  -26.5230   21.7080 C   0  0  0  0  0  2  0  0  0  0  0  0
  -18.2340  -26.6760   22.3440 C   0  0  0  0  0  2  0  0  0  0  0  0
  -19.1480  -28.8380   23.3720 C   0  0  0  0  0  0  0  0  0  0  0  0
  -18.9120  -30.1200   23.9160 C   0  0  0  0  0  3  0  0  0  0  0  0
  -17.6030  -30.6130   24.0600 C   0  0  0  0  0  3  0  0  0  0  0  0
  -16.5080  -29.8200   23.6740 C   0  0  0  0  0  3  0  0  0  0  0  0
  -16.7260  -28.5390   23.1350 C   0  0  0  0  0  3  0  0  0  0  0  0
  -25.8760  -32.5460   23.7190 C   0  0  0  0  0  3  0  0  0  0  0  0
  -26.4690  -31.7540   24.9480 C   0  0  1  0  0  0  0  0  0  0  0  0
  -25.4240  -31.4420   26.0450 C   0  0  0  0  0  1  0  0  0  0  0  0
  -27.0850  -30.4120   24.4870 C   0  0  0  0  0  1  0  0  0  0  0  0
  -27.6140  -32.5670   25.5940 C   0  0  0  0  0  1  0  0  0  0  0  0
  -25.5450  -33.9260   24.1020 N   0  0  0  0  0  0  0  0  0  0  0  0
  -25.8080  -35.0060   23.3560 C   0  0  0  0  0  0  0  0  0  0  0  0
  -26.4300  -34.9490   22.2910 O   0  0  0  0  0  0  0  0  0  0  0  0
  -24.9880  -34.0430   24.9360 H   0  0  0  0  0  0  0  0  0  0  0  0
  -24.0130  -36.7490   23.1330 C   0  0  0  0  0  1  0  0  0  0  0  0
  -25.3040  -36.3660   23.8730 C   0  0  0  0  0  3  0  0  0  0  0  0
  -27.4460  -37.2980   24.6280 C   0  0  0  0  0  1  0  0  0  0  0  0
  -26.3000  -37.4520   23.7370 N   0  0  0  0  0  0  0  0  0  0  0  0
  -25.8720  -38.3560   23.9230 H   0  0  0  0  0  0  0  0  0  0  0  0
  1  3  2  0
  2  1  1  0
  2 10  1  0
  4  2  1  0
  6  5  2  0
  7  5  1  0
  8  9  2  0
  8 10  1  0
  9  6  1  0
 10  7  2  0
 11 20  1  0
 11  9  1  0
 12 20  1  0
 13 18  1  0
 14 15  1  0
 14 13  1  0
 16 15  1  0
 16 25  1  0
 16 17  1  0
 18 12  1  0
 18 17  1  0
 19 12  2  0
 20 21  1  0
 22 23  2  0
 23 42  1  0
 24 23  1  0
 24 27  1  0
 25 26  1  0
 25 22  1  0
 26 24  2  0
 27 28  1  0
 28 29  2  0
 30 33  1  0
 30 29  1  0
 31 30  2  0
 32 31  1  0
 32 27  2  0
 33 34  1  0
 34 35  1  0
 35 36  2  0
 37 36  1  0
 37 41  1  0
 38 37  2  0
 39 34  2  0
 39 38  1  0
 40 39  1  0
 42 43  1  0
 43 46  1  0
 43 45  1  0
 44 42  2  0
 47 22  1  0
 47 48  1  0
 49 47  1  0
 50 51  1  0
 50  1  1  0
 52 54  1  0
 52 51  1  0
 53 64  2  0
 54 59  1  0
 55 63  1  0
 55 65  1  0
 56 62  1  0
 56 58  1  0
 57 63  1  0
 58 57  1  0
 59 58  2  0
 60 54  2  0
 61 60  1  0
 61 56  2  0
 62 55  1  0
 63 53  1  0
 65 67  2  0
 66 65  1  0
 68 66  1  0
 69 78  2  0
 69 74  1  0
 70 66  1  0
 70 74  1  0
 71 70  1  0
 72 73  1  0
 72 71  1  0
 73 69  1  0
 74 75  2  0
 75 76  1  0
 77 76  2  0
 78 77  1  0
 79 53  1  0
 79 84  1  0
 79 80  1  0
 80 83  1  1
 80 81  1  0
 82 80  1  0
 84 87  1  0
 85 89  1  0
 85 84  1  0
 86 85  2  0
 89 88  1  0
 91 89  1  0
 91 92  1  0
 91 90  1  0
M  ISO  4  12 100  20 100  51 101  52 101
M  END
>  <TORSDO>  (29) 
F 20

>  <SCORE>  (29) 
-13.379

>  <name>  (29) 
28

>  <ligand_id>  (29) 
28

>  <original_smiles>  (29) 
[H]c1c([H])c(N([H])C(=O)C([H])([H])C([H])([H])Oc2c([H])c([H])c3c(c2[H])C([H])([H])N(C(=O)C([H])(N([H])C(=O)C([H])(N([H])C([H])([H])[H])C([H])([H])[H])C(C([H])([H])[H])(C([H])([H])[H])C([H])([H])[H])C([H])(C(=O)N([H])C2([H])c4c([H])c([H])c([H])c([H])c4C([H])([H])C([H])([H])C2([H])[H])C3([H])[H])c([H])c(C([H])([H])N([H])C(=O)N2C([H])([H])C([H])([H])C([H])([H])C([H])(n3nc(-c4c([H])c([H])c(Oc5c([H])c([H])c(F)c([H])c5F)c([H])c4[H])c(C(=O)N([H])[H])c3N([H])[H])C2([H])[H])c1[H]

>  <smiles>  (29) 
[H]c1c([H])c(N([H])C(=O)C([H])([H])C([H])([H])Oc2c([H])c([H])c3c(c2[H])C([H])([H])N(C(=O)C([H])(N([H])C(=O)C([H])(N([H])C([H])([H])[H])C([H])([H])[H])C(C([H])([H])[H])(C([H])([H])[H])C([H])([H])[H])C([H])(C(=O)N([H])C2([H])c4c([H])c([H])c([H])c([H])c4C([H])([H])C([H])([H])C2([H])[H])C3([H])[H])c([H])c(C([H])([H])N([H])C(=O)N2C([H])([H])C([H])([H])C([H])([H])C([H])(n3nc(-c4c([H])c([H])c(Oc5c([H])c([H])c(F)c([H])c5F)c([H])c4[H])c(C(=O)N([H])[H])c3N([H])[H])C2([H])[H])c1[H]

$$$$
29:0:0
     RDKit          3D

 96105  0  0  1  0  0  0  0  0999 V2000
  -29.5200  -21.6140   18.3480 C   0  0  0  0  0  0  0  0  0  0  0  0
  -30.1410  -22.8510   20.2980 C   0  0  0  0  0  0  0  0  0  0  0  0
  -28.4640  -22.6650   17.9710 C   0  0  0  0  0  2  0  0  0  0  0  0
  -28.7540  -24.0510   18.5590 C   0  0  0  0  0  2  0  0  0  0  0  0
  -29.0230  -23.9410   20.0600 C   0  0  0  0  0  3  0  0  0  0  0  0
  -30.2940  -21.7660   19.4590 N   0  0  0  0  0  0  0  0  0  0  0  0
  -29.6300  -20.6450   17.5890 O   0  0  0  0  0  0  0  0  0  0  0  0
  -30.8820  -23.0030   21.2770 O   0  0  0  0  0  0  0  0  0  0  0  0
  -31.4210  -20.7730   19.6240 C   0  0  0  0  0  2  0  0  0  0  0  0
  -30.9740  -19.7170   21.8720 C   0  0  0  0  0  3  0  0  0  0  0  0
  -30.8330  -18.6330   22.7470 C   0  0  0  0  0  3  0  0  0  0  0  0
  -31.3040  -18.1610   20.0070 C   0  0  0  0  0  3  0  0  0  0  0  0
  -31.1990  -19.5120   20.4980 C   0  0  0  0  0  0  0  0  0  0  0  0
  -30.9090  -17.3110   22.2650 C   0  0  0  0  0  0  0  0  0  0  0  0
  -31.1590  -17.0410   20.8930 C   0  0  0  0  0  0  0  0  0  0  0  0
  -30.7150  -16.1880   23.2710 C   0  0  0  0  0  1  0  0  0  0  0  0
  -31.8760  -14.6620   20.0000 C   0  0  0  0  0  0  0  0  0  0  0  0
  -31.4930  -12.4740   18.8560 C   0  0  0  0  0  2  0  0  0  0  0  0
  -30.5150  -12.7320   17.6860 C   0  0  0  0  0  2  0  0  0  0  0  0
  -29.0420  -12.7130   18.1530 C   0  0  0  0  0  2  0  0  0  0  0  0
  -28.8170  -13.5510   19.4360 C   0  0  0  0  0  3  0  0  0  0  0  0
  -29.8830  -13.2010   20.4960 C   0  0  0  0  0  2  0  0  0  0  0  0
  -31.2060  -13.4720   19.9010 N   0  0  0  0  0  0  0  0  0  0  0  0
  -33.0040  -14.8340   19.5240 O   0  0  0  0  0  0  0  0  0  0  0  0
  -31.0950  -15.6340   20.5450 N   0  0  0  0  0  0  0  0  0  0  0  0
  -30.2490  -15.2040   20.8850 H   0  0  0  0  0  0  0  0  0  0  0  0
  -26.5350  -14.3930   20.2720 C   0  0  0  0  0  0  0  0  0  0  0  0
  -25.4000  -13.7310   20.6550 C   0  0  0  0  0  0  0  0  0  0  0  0
  -25.7000  -12.3390   20.5460 C   0  0  0  0  0  0  0  0  0  0  0  0
  -27.4600  -13.4100   19.9560 N   0  0  0  0  0  0  0  0  0  0  0  0
  -26.9640  -12.1660   20.1760 N   0  0  0  0  0  0  0  0  0  0  0  0
  -24.8420  -11.1600   20.7160 C   0  0  0  0  0  0  0  0  0  0  0  0
  -25.1530  -10.1500   21.6550 C   0  0  0  0  0  3  0  0  0  0  0  0
  -24.3040   -9.0350   21.8130 C   0  0  0  0  0  3  0  0  0  0  0  0
  -23.1290   -8.9220   21.0320 C   0  0  0  0  0  0  0  0  0  0  0  0
  -22.8360   -9.9180   20.0850 C   0  0  0  0  0  3  0  0  0  0  0  0
  -23.6850  -11.0250   19.9240 C   0  0  0  0  0  3  0  0  0  0  0  0
  -22.2570   -7.8640   21.0990 O   0  0  0  0  0  0  0  0  0  0  0  0
  -22.0280   -7.1910   22.2730 C   0  0  0  0  0  0  0  0  0  0  0  0
  -21.5950   -7.8570   23.4400 C   0  0  0  0  0  3  0  0  0  0  0  0
  -21.3080   -7.1210   24.6050 C   0  0  0  0  0  3  0  0  0  0  0  0
  -21.4410   -5.7190   24.6030 C   0  0  0  0  0  0  0  0  0  0  0  0
  -21.8690   -5.0530   23.4410 C   0  0  0  0  0  3  0  0  0  0  0  0
  -22.1580   -5.7880   22.2780 C   0  0  0  0  0  0  0  0  0  0  0  0
  -22.5490   -5.1400   21.1530 F   0  0  0  0  0  0  0  0  0  0  0  0
  -21.1570   -5.0090   25.7200 F   0  0  0  0  0  0  0  0  0  0  0  0
  -24.0790  -14.3500   21.0110 C   0  0  0  0  0  0  0  0  0  0  0  0
  -23.3340  -13.7230   21.9130 N   0  0  0  0  0  0  0  0  0  0  0  0
  -23.7230  -15.4230   20.5250 O   0  0  0  0  0  0  0  0  0  0  0  0
  -23.6360  -12.8480   22.3220 H   0  0  0  0  0  0  0  0  0  0  0  0
  -22.4480  -14.1160   22.1990 H   0  0  0  0  0  0  0  0  0  0  0  0
  -26.8480  -15.7440   20.1480 N   0  0  0  0  0  0  0  0  0  0  0  0
  -26.1720  -16.4730   20.3480 H   0  0  0  0  0  0  0  0  0  0  0  0
  -27.7210  -16.1070   19.7860 H   0  0  0  0  0  0  0  0  0  0  0  0
  -29.2730  -25.3470   20.7460 C   0  0  0  0  0  2  0  0  0  0  0  0
  -29.0930  -26.5750   19.9730 O   0  0  0  0  0  0  0  0  0  0  0  0
  -24.9230  -31.5270   23.0990 C   0  0  0  0  0  0  0  0  0  0  0  0
  -27.8810  -27.2500   20.0260 C   0  0  0  0  0  0  0  0  0  0  0  0
  -23.8340  -30.0950   21.4020 C   0  0  0  0  0  3  0  0  0  0  0  0
  -25.4030  -28.6480   19.9960 C   0  0  0  0  0  0  0  0  0  0  0  0
  -26.3420  -30.5840   21.2720 C   0  0  0  0  0  2  0  0  0  0  0  0
  -26.5190  -29.2230   20.6180 C   0  0  0  0  0  0  0  0  0  0  0  0
  -27.7620  -28.5360   20.6200 C   0  0  0  0  0  3  0  0  0  0  0  0
  -26.7460  -26.6990   19.3970 C   0  0  0  0  0  3  0  0  0  0  0  0
  -25.5150  -27.3880   19.3810 C   0  0  0  0  0  3  0  0  0  0  0  0
  -24.1120  -29.4420   20.0210 C   0  0  0  0  0  2  0  0  0  0  0  0
  -25.0490  -30.7540   21.9820 N   0  0  0  0  0  0  0  0  0  0  0  0
  -23.8170  -31.7300   23.6190 O   0  0  0  0  0  0  0  0  0  0  0  0
  -23.2110  -29.0290   22.3310 C   0  0  0  0  0  0  0  0  0  0  0  0
  -21.9040  -28.7720   22.1620 N   0  0  0  0  0  0  0  0  0  0  0  0
  -23.9050  -28.4350   23.1600 O   0  0  0  0  0  0  0  0  0  0  0  0
  -21.3980  -29.3040   21.4660 H   0  0  0  0  0  0  0  0  0  0  0  0
  -18.6060  -27.3390   22.5230 C   0  0  0  0  0  0  0  0  0  0  0  0
  -21.1260  -27.7730   22.8970 C   0  0  0  0  0  3  0  0  0  0  0  0
  -21.3510  -26.3570   22.3210 C   0  0  0  0  0  2  0  0  0  0  0  0
  -20.3180  -25.9670   21.2610 C   0  0  0  0  0  2  0  0  0  0  0  0
  -18.9030  -26.0110   21.8470 C   0  0  0  0  0  2  0  0  0  0  0  0
  -19.6510  -28.1730   23.0030 C   0  0  0  0  0  0  0  0  0  0  0  0
  -19.3210  -29.4130   23.5900 C   0  0  0  0  0  3  0  0  0  0  0  0
  -17.9800  -29.8220   23.7050 C   0  0  0  0  0  3  0  0  0  0  0  0
  -16.9480  -28.9860   23.2420 C   0  0  0  0  0  3  0  0  0  0  0  0
  -17.2630  -27.7470   22.6560 C   0  0  0  0  0  3  0  0  0  0  0  0
  -26.1590  -32.2150   23.7610 C   0  0  0  0  0  3  0  0  0  0  0  0
  -26.7090  -31.4310   25.0140 C   0  0  1  0  0  0  0  0  0  0  0  0
  -25.6240  -31.0940   26.0620 C   0  0  0  0  0  1  0  0  0  0  0  0
  -27.3730  -30.1020   24.5780 C   0  0  0  0  0  1  0  0  0  0  0  0
  -27.8050  -32.2640   25.7190 C   0  0  0  0  0  1  0  0  0  0  0  0
  -25.7630  -33.5790   24.1380 N   0  0  0  0  0  0  0  0  0  0  0  0
  -26.0310  -34.6780   23.4200 C   0  0  0  0  0  0  0  0  0  0  0  0
  -26.7160  -34.6560   22.3940 O   0  0  0  0  0  0  0  0  0  0  0  0
  -25.1640  -33.6650   24.9440 H   0  0  0  0  0  0  0  0  0  0  0  0
  -24.1890  -36.3580   23.1100 C   0  0  0  0  0  1  0  0  0  0  0  0
  -25.4480  -36.0120   23.9200 C   0  0  0  0  0  3  0  0  0  0  0  0
  -27.5100  -37.0070   24.8030 C   0  0  0  0  0  1  0  0  0  0  0  0
  -26.4060  -37.1360   23.8550 N   0  0  0  0  0  0  0  0  0  0  0  0
  -25.9360  -38.0190   24.0350 H   0  0  0  0  0  0  0  0  0  0  0  0
  1  6  1  0
  2  8  2  0
  3  1  1  0
  3  4  1  0
  4  5  1  0
  5  2  1  0
  5 55  1  0
  6  9  1  0
  6  2  1  0
  7  1  2  0
  9 13  1  0
 10 11  1  0
 12 13  1  0
 12 15  2  0
 13 10  2  0
 14 11  2  0
 14 16  1  0
 15 14  1  0
 17 25  1  0
 18 23  1  0
 19 20  1  0
 19 18  1  0
 21 20  1  0
 21 30  1  0
 21 22  1  0
 23 17  1  0
 23 22  1  0
 24 17  2  0
 25 26  1  0
 25 15  1  0
 27 28  2  0
 28 47  1  0
 29 28  1  0
 29 32  1  0
 30 31  1  0
 30 27  1  0
 31 29  2  0
 32 33  1  0
 33 34  2  0
 35 38  1  0
 35 34  1  0
 36 35  2  0
 37 36  1  0
 37 32  2  0
 38 39  1  0
 39 44  2  0
 39 40  1  0
 40 41  2  0
 42 41  1  0
 42 46  1  0
 43 42  2  0
 44 43  1  0
 45 44  1  0
 47 48  1  0
 48 51  1  0
 48 50  1  0
 49 47  2  0
 52 27  1  0
 52 53  1  0
 54 52  1  0
 56 58  1  0
 56 55  1  0
 57 68  2  0
 58 63  1  0
 59 67  1  0
 59 69  1  0
 60 66  1  0
 60 62  1  0
 61 67  1  0
 62 63  2  0
 62 61  1  0
 64 58  2  0
 65 64  1  0
 65 60  2  0
 66 59  1  0
 67 57  1  0
 69 71  2  0
 70 69  1  0
 72 70  1  0
 73 82  2  0
 73 78  1  0
 74 70  1  0
 74 78  1  0
 75 74  1  0
 76 77  1  0
 76 75  1  0
 77 73  1  0
 78 79  2  0
 79 80  1  0
 81 80  2  0
 82 81  1  0
 83 57  1  0
 83 88  1  0
 83 84  1  0
 84 87  1  1
 84 85  1  0
 86 84  1  0
 88 91  1  0
 89 93  1  0
 89 88  1  0
 90 89  2  0
 93 92  1  0
 95 93  1  0
 95 96  1  0
 95 94  1  0
M  ISO  4  17 100  25 100  55 101  56 101
M  END
>  <TORSDO>  (30) 
F 19

>  <SCORE>  (30) 
-10.243

>  <name>  (30) 
29

>  <ligand_id>  (30) 
29

>  <original_smiles>  (30) 
[H]c1c([H])c([H])c2c(c1[H])C([H])([H])C([H])([H])C([H])([H])C2([H])N([H])C(=O)C1([H])N(C(=O)C([H])(N([H])C(=O)C([H])(N([H])C([H])([H])[H])C([H])([H])[H])C(C([H])([H])[H])(C([H])([H])[H])C([H])([H])[H])C([H])([H])c2c([H])c(OC([H])([H])C3([H])C(=O)N(C([H])([H])c4c([H])c([H])c(C([H])([H])[H])c(N([H])C(=O)N5C([H])([H])C([H])([H])C([H])([H])C([H])(n6nc(-c7c([H])c([H])c(Oc8c([H])c([H])c(F)c([H])c8F)c([H])c7[H])c(C(=O)N([H])[H])c6N([H])[H])C5([H])[H])c4[H])C(=O)C([H])([H])C3([H])[H])c([H])c([H])c2C1([H])[H]

>  <smiles>  (30) 
[H]c1c([H])c([H])c2c(c1[H])C([H])([H])C([H])([H])C([H])([H])C2([H])N([H])C(=O)C1([H])N(C(=O)C([H])(N([H])C(=O)C([H])(N([H])C([H])([H])[H])C([H])([H])[H])C(C([H])([H])[H])(C([H])([H])[H])C([H])([H])[H])C([H])([H])c2c([H])c(OC([H])([H])C3([H])C(=O)N(C([H])([H])c4c([H])c([H])c(C([H])([H])[H])c(N([H])C(=O)N5C([H])([H])C([H])([H])C([H])([H])C([H])(n6nc(-c7c([H])c([H])c(Oc8c([H])c([H])c(F)c([H])c8F)c([H])c7[H])c(C(=O)N([H])[H])c6N([H])[H])C5([H])[H])c4[H])C(=O)C([H])([H])C3([H])[H])c([H])c([H])c2C1([H])[H]

$$$$
30:0:0
     RDKit          3D

 97100  0  0  1  0  0  0  0  0999 V2000
  -25.4940  -21.0340   17.8300 C   0  0  0  0  0  0  0  0  0  0  0  0
  -24.7160  -20.1460   17.2140 N   0  0  0  0  0  4  0  0  0  0  0  0
  -24.7310  -22.3300   17.8560 N   0  0  0  0  0  0  0  0  0  0  0  0
  -25.0250  -19.1850   17.1720 H   0  0  0  0  0  0  0  0  0  0  0  0
  -23.7640  -20.3600   16.9790 H   0  0  0  0  0  0  0  0  0  0  0  0
  -25.1930  -23.0010   18.4640 H   0  0  0  0  0  0  0  0  0  0  0  0
  -27.7250  -20.2550   19.5660 C   0  0  0  0  0  3  0  0  0  0  0  0
  -28.9090  -19.4010   19.9460 C   0  0  0  0  0  3  0  0  0  0  0  0
  -28.8550  -18.3880   17.9190 C   0  0  0  0  0  3  0  0  0  0  0  0
  -26.9720  -20.2760   18.2970 C   0  0  0  0  0  0  0  0  0  0  0  0
  -27.6930  -19.2510   17.5050 C   0  0  0  0  0  0  0  0  0  0  0  0
  -29.6180  -18.3720   19.1690 C   0  0  0  0  0  0  0  0  0  0  0  0
  -27.2080  -19.0370   16.0760 C   0  0  0  0  0  1  0  0  0  0  0  0
  -31.9800  -16.5710   19.9310 C   0  0  0  0  0  0  0  0  0  0  0  0
  -32.9280  -14.1380   20.2650 C   0  0  0  0  0  2  0  0  0  0  0  0
  -32.2890  -13.1950   19.2010 C   0  0  0  0  0  2  0  0  0  0  0  0
  -30.8170  -12.8510   19.5340 C   0  0  0  0  0  2  0  0  0  0  0  0
  -30.0530  -14.0980   20.0310 C   0  0  0  0  0  3  0  0  0  0  0  0
  -30.8130  -14.7910   21.1650 C   0  0  0  0  0  2  0  0  0  0  0  0
  -31.9930  -15.2990   20.5200 N   0  0  0  0  0  0  0  0  0  0  0  0
  -33.1310  -16.9300   19.5810 O   0  0  0  0  0  0  0  0  0  0  0  0
  -30.6160  -17.1860   19.7110 N   0  0  0  0  0  0  0  0  0  0  0  0
  -30.0150  -16.4550   20.0520 H   0  0  0  0  0  0  0  0  0  0  0  0
  -27.7240  -14.7830   20.7800 C   0  0  0  0  0  0  0  0  0  0  0  0
  -26.6190  -14.0450   21.0840 C   0  0  0  0  0  0  0  0  0  0  0  0
  -27.0040  -12.6780   20.9320 C   0  0  0  0  0  0  0  0  0  0  0  0
  -28.6980  -13.8570   20.4450 N   0  0  0  0  0  0  0  0  0  0  0  0
  -28.2840  -12.5840   20.6120 N   0  0  0  0  0  0  0  0  0  0  0  0
  -26.2110  -11.4530   21.0070 C   0  0  0  0  0  0  0  0  0  0  0  0
  -26.2520  -10.6120   22.1400 C   0  0  0  0  0  3  0  0  0  0  0  0
  -25.4670   -9.4400   22.1840 C   0  0  0  0  0  3  0  0  0  0  0  0
  -24.6300   -9.1070   21.0930 C   0  0  0  0  0  0  0  0  0  0  0  0
  -24.6160   -9.9350   19.9580 C   0  0  0  0  0  3  0  0  0  0  0  0
  -25.4020  -11.0960   19.9110 C   0  0  0  0  0  3  0  0  0  0  0  0
  -23.8490   -7.9790   21.0370 O   0  0  0  0  0  0  0  0  0  0  0  0
  -22.9190   -7.7040   22.0070 C   0  0  0  0  0  0  0  0  0  0  0  0
  -21.8320   -8.5680   22.2620 C   0  0  0  0  0  3  0  0  0  0  0  0
  -20.8590   -8.2140   23.2170 C   0  0  0  0  0  3  0  0  0  0  0  0
  -20.9640   -6.9910   23.9090 C   0  0  0  0  0  0  0  0  0  0  0  0
  -22.0430   -6.1260   23.6520 C   0  0  0  0  0  3  0  0  0  0  0  0
  -23.0150   -6.4820   22.7000 C   0  0  0  0  0  0  0  0  0  0  0  0
  -24.0420   -5.6370   22.4410 F   0  0  0  0  0  0  0  0  0  0  0  0
  -20.0260   -6.6440   24.8210 F   0  0  0  0  0  0  0  0  0  0  0  0
  -25.2530  -14.5800   21.3860 C   0  0  0  0  0  0  0  0  0  0  0  0
  -24.4990  -13.8930   22.2340 N   0  0  0  0  0  0  0  0  0  0  0  0
  -24.8630  -15.6420   20.8990 O   0  0  0  0  0  0  0  0  0  0  0  0
  -24.8210  -13.0280   22.6470 H   0  0  0  0  0  0  0  0  0  0  0  0
  -23.5790  -14.2340   22.4730 H   0  0  0  0  0  0  0  0  0  0  0  0
  -27.9650  -16.1550   20.7340 N   0  0  0  0  0  0  0  0  0  0  0  0
  -27.2040  -16.7950   20.9370 H   0  0  0  0  0  0  0  0  0  0  0  0
  -28.7040  -16.5930   20.2050 H   0  0  0  0  0  0  0  0  0  0  0  0
  -23.5060  -23.0910   16.9130 C   0  0  0  0  0  2  0  0  0  0  0  0
  -21.7070  -23.5780   17.0250 C   0  0  0  0  0  2  0  0  0  0  0  0
  -20.7060  -25.0880   16.5910 C   0  0  0  0  0  2  0  0  0  0  0  0
  -19.4900  -24.8380   16.6200 O   0  0  0  0  0  1  0  0  0  0  0  0
  -22.1720  -27.4940   16.2000 C   0  0  0  0  0 15  0  0  0  0  0  0
  -24.0510  -27.4420   15.2910 O   0  0  0  0  0  1  0  0  0  0  0  0
  -26.7480  -27.7360   20.0240 C   0  0  0  0  0  0  0  0  0  0  0  0
  -25.4860  -26.8730   14.9350 C   0  0  0  0  0  3  0  0  0  0  0  0
  -25.2230  -28.6510   18.3500 C   0  0  0  0  0  3  0  0  0  0  0  0
  -26.1520  -29.0350   15.9080 C   0  0  0  0  0  3  0  0  0  0  0  0
  -27.6190  -28.1580   17.7230 C   0  0  0  0  0  2  0  0  0  0  0  0
  -27.0110  -28.0410   16.3480 C   0  0  0  0  0  3  0  0  0  0  0  0
  -26.7320  -26.8310   15.7070 C   0  0  0  0  0  2  0  0  0  0  0  0
  -25.8330  -27.7260   13.8850 C   0  0  0  0  0  2  0  0  0  0  0  0
  -25.7720  -28.9880   14.5240 C   0  0  0  0  0  2  0  0  0  0  0  0
  -25.2450  -29.5410   17.0230 C   0  0  0  0  0  2  0  0  0  0  0  0
  -26.5790  -28.2200   18.7660 N   0  0  0  0  0  0  0  0  0  0  0  0
  -25.8330  -27.7810   20.8630 O   0  0  0  0  0  0  0  0  0  0  0  0
  -24.4160  -27.3280   18.3370 C   0  0  0  0  0  0  0  0  0  0  0  0
  -23.9320  -26.8350   19.4350 N   0  0  0  0  0  0  0  0  0  0  0  0
  -24.2470  -26.6470   17.3400 O   0  0  0  0  0  0  0  0  0  0  0  0
  -24.1580  -27.2640   20.3220 H   0  0  0  0  0  0  0  0  0  0  0  0
  -22.4560  -25.2820   22.2450 C   0  0  0  0  0  0  0  0  0  0  0  0
  -22.7060  -26.0290   19.3580 C   0  0  0  0  0  2  0  0  0  0  0  0
  -20.8010  -27.0830   18.9440 C   0  0  0  0  0 15  0  0  0  0  0  0
  -19.7740  -27.2960   21.1860 C   0  0  0  0  0 15  0  0  0  0  0  0
  -20.9560  -26.2560   22.5640 C   0  0  0  0  0  1  0  0  0  0  0  0
  -23.2060  -25.2810   20.9140 C   0  0  0  0  0  0  0  0  0  0  0  0
  -24.4800  -24.5590   20.9090 C   0  0  0  0  0  3  0  0  0  0  0  0
  -25.0160  -23.7530   21.9510 C   0  0  0  0  0  3  0  0  0  0  0  0
  -24.2270  -23.5560   23.0900 C   0  0  0  0  0  3  0  0  0  0  0  0
  -22.9970  -24.2890   23.2100 C   0  0  0  0  0  3  0  0  0  0  0  0
  -28.1010  -27.1300   20.4670 C   0  0  0  0  0  3  0  0  0  0  0  0
  -28.3690  -27.6930   21.7920 N   0  0  0  0  0  0  0  0  0  0  0  0
  -29.1970  -28.7180   22.0140 C   0  0  0  0  0  0  0  0  0  0  0  0
  -29.8850  -29.2230   21.1220 O   0  0  0  0  0  0  0  0  0  0  0  0
  -27.7970  -27.3620   22.5560 H   0  0  0  0  0  0  0  0  0  0  0  0
  -28.4840  -30.5750   23.5480 C   0  0  0  0  0  1  0  0  0  0  0  0
  -29.2740  -29.2620   23.4500 C   0  0  0  0  0  3  0  0  0  0  0  0
  -31.4130  -28.2300   24.0670 C   0  0  0  0  0  1  0  0  0  0  0  0
  -30.6590  -29.4710   23.9170 N   0  0  0  0  0  0  0  0  0  0  0  0
  -30.6700  -29.9600   24.8090 H   0  0  0  0  0  0  0  0  0  0  0  0
  -28.1000  -25.5550   20.5130 C   0  0  1  0  0  0  0  0  0  0  0  0
  -26.8810  -24.9380   21.2370 C   0  0  0  0  0  1  0  0  0  0  0  0
  -28.1430  -24.9570   19.0890 C   0  0  0  0  0  1  0  0  0  0  0  0
  -29.3800  -25.0710   21.2320 C   0  0  0  0  0  1  0  0  0  0  0  0
  1  3  1  0
  1 10  1  0
  2  1  2  0
  3  6  1  0
  4  2  1  0
  5  2  1  0
  7  8  1  0
  9 12  1  0
 10  7  2  0
 11  9  2  0
 11 10  1  0
 12 22  1  0
 12  8  2  0
 13 11  1  0
 14 20  1  0
 15 20  1  0
 16 17  1  0
 16 15  1  0
 18 17  1  0
 18 27  1  0
 18 19  1  0
 20 19  1  0
 21 14  2  0
 22 14  1  0
 22 23  1  0
 24 25  2  0
 25 44  1  0
 26 29  1  0
 26 25  1  0
 27 28  1  0
 27 24  1  0
 28 26  2  0
 29 30  1  0
 30 31  2  0
 32 31  1  0
 33 32  2  0
 34 33  1  0
 34 29  2  0
 35 32  1  0
 35 36  1  0
 36 37  2  0
 36 41  1  0
 37 38  1  0
 38 39  2  0
 39 43  1  0
 40 39  1  0
 41 40  2  0
 42 41  1  0
 44 45  1  0
 45 48  1  0
 45 47  1  0
 46 44  2  0
 49 24  1  0
 49 50  1  0
 51 49  1  0
 52 53  1  0
 52  3  1  0
 54 55  1  0
 54 53  1  0
 58 69  2  0
 59 57  1  0
 59 64  1  0
 60 70  1  0
 60 68  1  0
 61 66  1  0
 61 63  1  0
 61 67  1  0
 62 68  1  0
 63 64  1  0
 63 62  1  0
 65 66  1  0
 65 59  1  0
 67 60  1  0
 68 58  1  0
 70 71  1  0
 71 73  1  0
 72 70  2  0
 74 78  1  0
 74 83  1  0
 75 71  1  0
 75 79  1  0
 79 74  2  0
 80 79  1  0
 80 81  2  0
 81 82  1  0
 82 83  2  0
 84 58  1  0
 84 94  1  0
 84 85  1  0
 85 86  1  0
 85 88  1  0
 86 90  1  0
 87 86  2  0
 90 89  1  0
 90 92  1  0
 92 91  1  0
 92 93  1  0
 94 97  1  1
 94 95  1  0
 96 94  1  0
M  ISO  4  14 100  22 100  56 101  57 101
M  END
>  <TORSDO>  (31) 
F 21

>  <SCORE>  (31) 
-4.116

>  <name>  (31) 
30

>  <ligand_id>  (31) 
30

>  <original_smiles>  (31) 
[H]c1c([H])c([H])c2c(c1[H])C([H])([H])C([H])([H])C([H])([H])C2([H])N([H])C(=O)C1([H])N(C(=O)C([H])(N([H])C(=O)C([H])(N([H])C([H])([H])[H])C([H])([H])[H])C(C([H])([H])[H])(C([H])([H])[H])C([H])([H])[H])C([H])([H])c2c([H])c(OC([H])([H])C(=O)C([H])([H])C([H])([H])[N+]([H])=C(c3c([H])c([H])c(N([H])C(=O)N4C([H])([H])C([H])([H])C([H])([H])C([H])(n5nc(-c6c([H])c([H])c(Oc7c([H])c([H])c(F)c([H])c7F)c([H])c6[H])c(C(=O)N([H])[H])c5N([H])[H])C4([H])[H])c([H])c3C([H])([H])[H])N([H])[H])c([H])c([H])c2C1([H])[H]

>  <smiles>  (31) 
[H]c1c([H])c([H])c2c(c1[H])C([H])([H])C([H])([H])C([H])([H])C2([H])N([H])C(=O)C1([H])N(C(=O)C([H])(N([H])C(=O)C([H])(N([H])C([H])([H])[H])C([H])([H])[H])C(C([H])([H])[H])(C([H])([H])[H])C([H])([H])[H])C([H])([H])c2c([H])c(OC([H])([H])C(=O)C([H])([H])C([H])([H])[N+]([H])=C(c3c([H])c([H])c(N([H])C(=O)N4C([H])([H])C([H])([H])C([H])([H])C([H])(n5nc(-c6c([H])c([H])c(Oc7c([H])c([H])c(F)c([H])c7F)c([H])c6[H])c(C(=O)N([H])[H])c5N([H])[H])C4([H])[H])c([H])c3C([H])([H])[H])N([H])[H])c([H])c([H])c2C1([H])[H]

$$$$
31:0:0
     RDKit          3D

 97106  0  0  1  0  0  0  0  0999 V2000
  -30.1920  -22.4590   21.2970 C   0  0  0  0  0  3  0  0  0  0  0  0
  -30.1550  -23.1850   20.1550 C   0  0  0  0  0  0  0  0  0  0  0  0
  -30.2740  -22.4680   18.8840 C   0  0  0  0  0  0  0  0  0  0  0  0
  -30.2460  -20.9960   21.3850 C   0  0  0  0  0  0  0  0  0  0  0  0
  -30.2710  -23.1340   17.7070 C   0  0  0  0  0  3  0  0  0  0  0  0
  -30.4220  -20.9450   18.9050 C   0  0  0  0  0  2  0  0  0  0  0  0
  -30.3930  -22.5270   16.3220 C   0  0  0  0  0  1  0  0  0  0  0  0
  -30.1960  -20.3070   20.2100 N   0  0  0  0  0  0  0  0  0  0  0  0
  -30.3040  -20.4190   22.4760 O   0  0  0  0  0  0  0  0  0  0  0  0
  -27.7870  -17.4480   20.0480 C   0  0  0  0  0  3  0  0  0  0  0  0
  -28.6160  -16.3500   20.3170 C   0  0  0  0  0  3  0  0  0  0  0  0
  -30.5580  -17.8220   20.4300 C   0  0  0  0  0  3  0  0  0  0  0  0
  -28.3200  -18.7460   19.9850 C   0  0  0  0  0  0  0  0  0  0  0  0
  -29.7080  -18.9520   20.2040 C   0  0  0  0  0  0  0  0  0  0  0  0
  -30.0070  -16.5080   20.4880 C   0  0  0  0  0  0  0  0  0  0  0  0
  -27.3660  -19.9010   19.7100 C   0  0  0  0  0  1  0  0  0  0  0  0
  -31.1920  -14.3780   19.9730 C   0  0  0  0  0  0  0  0  0  0  0  0
  -30.8980  -12.0540   19.1480 C   0  0  0  0  0  2  0  0  0  0  0  0
  -29.9420  -12.0480   17.9370 C   0  0  0  0  0  2  0  0  0  0  0  0
  -28.4670  -12.0010   18.3860 C   0  0  0  0  0  2  0  0  0  0  0  0
  -28.1490  -13.0470   19.4870 C   0  0  0  0  0  3  0  0  0  0  0  0
  -29.2020  -12.9650   20.6160 C   0  0  0  0  0  2  0  0  0  0  0  0
  -30.5380  -13.1810   20.0240 N   0  0  0  0  0  0  0  0  0  0  0  0
  -32.1990  -14.5680   19.2830 O   0  0  0  0  0  0  0  0  0  0  0  0
  -30.7160  -15.3100   20.8210 N   0  0  0  0  0  0  0  0  0  0  0  0
  -30.2570  -14.8250   21.5790 H   0  0  0  0  0  0  0  0  0  0  0  0
  -25.8190  -13.8560   20.2370 C   0  0  0  0  0  0  0  0  0  0  0  0
  -24.7040  -13.1770   20.6480 C   0  0  0  0  0  0  0  0  0  0  0  0
  -25.0540  -11.7920   20.6240 C   0  0  0  0  0  0  0  0  0  0  0  0
  -26.7880  -12.8910   19.9970 N   0  0  0  0  0  0  0  0  0  0  0  0
  -26.3270  -11.6450   20.2810 N   0  0  0  0  0  0  0  0  0  0  0  0
  -24.2350  -10.5960   20.8520 C   0  0  0  0  0  0  0  0  0  0  0  0
  -24.6140   -9.6090   21.7880 C   0  0  0  0  0  3  0  0  0  0  0  0
  -23.8000   -8.4760   22.0040 C   0  0  0  0  0  3  0  0  0  0  0  0
  -22.5940   -8.3220   21.2820 C   0  0  0  0  0  0  0  0  0  0  0  0
  -22.2320   -9.2960   20.3340 C   0  0  0  0  0  3  0  0  0  0  0  0
  -23.0450  -10.4210   20.1180 C   0  0  0  0  0  3  0  0  0  0  0  0
  -21.7540   -7.2400   21.4050 O   0  0  0  0  0  0  0  0  0  0  0  0
  -21.6620   -6.5300   22.5750 C   0  0  0  0  0  0  0  0  0  0  0  0
  -21.3210   -7.1500   23.7970 C   0  0  0  0  0  3  0  0  0  0  0  0
  -21.1700   -6.3710   24.9610 C   0  0  0  0  0  3  0  0  0  0  0  0
  -21.3500   -4.9750   24.9050 C   0  0  0  0  0  0  0  0  0  0  0  0
  -21.6840   -4.3570   23.6880 C   0  0  0  0  0  3  0  0  0  0  0  0
  -21.8370   -5.1330   22.5250 C   0  0  0  0  0  0  0  0  0  0  0  0
  -22.1380   -4.5300   21.3500 F   0  0  0  0  0  0  0  0  0  0  0  0
  -21.1960   -4.2260   26.0220 F   0  0  0  0  0  0  0  0  0  0  0  0
  -23.3590  -13.7700   20.9550 C   0  0  0  0  0  0  0  0  0  0  0  0
  -22.6120  -13.1550   21.8660 N   0  0  0  0  0  0  0  0  0  0  0  0
  -22.9820  -14.8130   20.4240 O   0  0  0  0  0  0  0  0  0  0  0  0
  -22.9290  -12.3110   22.3190 H   0  0  0  0  0  0  0  0  0  0  0  0
  -21.7090  -13.5360   22.1150 H   0  0  0  0  0  0  0  0  0  0  0  0
  -26.0830  -15.2050   20.0300 N   0  0  0  0  0  0  0  0  0  0  0  0
  -25.3730  -15.9180   20.1580 H   0  0  0  0  0  0  0  0  0  0  0  0
  -26.9710  -15.5790   19.7220 H   0  0  0  0  0  0  0  0  0  0  0  0
  -30.0950  -24.7290   20.2570 C   0  0  0  0  0  2  0  0  0  0  0  0
  -28.7110  -25.3830   19.9900 C   0  0  0  0  0  2  0  0  0  0  0  0
  -28.7380  -26.8160   20.1750 O   0  0  0  0  0  0  0  0  0  0  0  0
  -24.6410  -31.8190   23.2130 C   0  0  0  0  0  0  0  0  0  0  0  0
  -27.5320  -27.5030   20.1420 C   0  0  0  0  0  0  0  0  0  0  0  0
  -23.5350  -30.4070   21.5120 C   0  0  0  0  0  3  0  0  0  0  0  0
  -25.0830  -28.9430   20.1090 C   0  0  0  0  0  0  0  0  0  0  0  0
  -26.0560  -30.8490   21.3990 C   0  0  0  0  0  2  0  0  0  0  0  0
  -26.2080  -29.4930   20.7360 C   0  0  0  0  0  0  0  0  0  0  0  0
  -27.4350  -28.7850   20.7420 C   0  0  0  0  0  3  0  0  0  0  0  0
  -26.3800  -26.9710   19.5140 C   0  0  0  0  0  3  0  0  0  0  0  0
  -25.1670  -27.6830   19.4950 C   0  0  0  0  0  3  0  0  0  0  0  0
  -23.8110  -29.7590   20.1290 C   0  0  0  0  0  2  0  0  0  0  0  0
  -24.7600  -31.0410   22.1000 N   0  0  0  0  0  0  0  0  0  0  0  0
  -23.5340  -32.0450   23.7230 O   0  0  0  0  0  0  0  0  0  0  0  0
  -22.8900  -29.3460   22.4350 C   0  0  0  0  0  0  0  0  0  0  0  0
  -21.5740  -29.1320   22.2750 N   0  0  0  0  0  0  0  0  0  0  0  0
  -23.5720  -28.7210   23.2510 O   0  0  0  0  0  0  0  0  0  0  0  0
  -21.0830  -29.6930   21.5910 H   0  0  0  0  0  0  0  0  0  0  0  0
  -18.2190  -27.8520   22.6840 C   0  0  0  0  0  0  0  0  0  0  0  0
  -20.7650  -28.1550   23.0050 C   0  0  0  0  0  3  0  0  0  0  0  0
  -20.9080  -26.7440   22.3900 C   0  0  0  0  0  2  0  0  0  0  0  0
  -19.8290  -26.4270   21.3500 C   0  0  0  0  0  2  0  0  0  0  0  0
  -18.4340  -26.5250   21.9750 C   0  0  0  0  0  2  0  0  0  0  0  0
  -19.3140  -28.6250   23.1540 C   0  0  0  0  0  0  0  0  0  0  0  0
  -19.0580  -29.8660   23.7750 C   0  0  0  0  0  3  0  0  0  0  0  0
  -17.7400  -30.3360   23.9310 C   0  0  0  0  0  3  0  0  0  0  0  0
  -16.6600  -29.5600   23.4780 C   0  0  0  0  0  3  0  0  0  0  0  0
  -16.9000  -28.3190   22.8610 C   0  0  0  0  0  3  0  0  0  0  0  0
  -25.8840  -32.4830   23.8830 C   0  0  0  0  0  3  0  0  0  0  0  0
  -26.3700  -31.7280   25.1810 C   0  0  1  0  0  0  0  0  0  0  0  0
  -25.2410  -31.4610   26.2040 C   0  0  0  0  0  1  0  0  0  0  0  0
  -27.0060  -30.3650   24.8150 C   0  0  0  0  0  1  0  0  0  0  0  0
  -27.4700  -32.5540   25.8870 C   0  0  0  0  0  1  0  0  0  0  0  0
  -25.5280  -33.8740   24.1940 N   0  0  0  0  0  0  0  0  0  0  0  0
  -25.8580  -34.9300   23.4370 C   0  0  0  0  0  0  0  0  0  0  0  0
  -26.5640  -34.8380   22.4290 O   0  0  0  0  0  0  0  0  0  0  0  0
  -24.9030  -34.0180   24.9740 H   0  0  0  0  0  0  0  0  0  0  0  0
  -24.0870  -36.6680   23.0240 C   0  0  0  0  0  1  0  0  0  0  0  0
  -25.3190  -36.3080   23.8700 C   0  0  0  0  0  3  0  0  0  0  0  0
  -27.4080  -37.2590   24.7410 C   0  0  0  0  0  1  0  0  0  0  0  0
  -26.3240  -37.3890   23.7720 N   0  0  0  0  0  0  0  0  0  0  0  0
  -25.8880  -38.2980   23.9010 H   0  0  0  0  0  0  0  0  0  0  0  0
  1  4  1  0
  2 55  1  0
  2  1  2  0
  3  6  1  0
  3  2  1  0
  4  9  2  0
  5  3  2  0
  6  8  1  0
  7  5  1  0
  8  4  1  0
 10 11  1  0
 11 15  2  0
 12 15  1  0
 13 10  2  0
 13 14  1  0
 14  8  1  0
 14 12  2  0
 15 25  1  0
 16 13  1  0
 17 23  1  0
 17 25  1  0
 18 23  1  0
 19 20  1  0
 19 18  1  0
 21 20  1  0
 21 30  1  0
 21 22  1  0
 23 22  1  0
 24 17  2  0
 25 26  1  0
 27 28  2  0
 28 47  1  0
 29 28  1  0
 29 32  1  0
 30 27  1  0
 30 31  1  0
 31 29  2  0
 32 33  1  0
 33 34  2  0
 35 38  1  0
 35 34  1  0
 36 35  2  0
 37 36  1  0
 37 32  2  0
 38 39  1  0
 39 40  1  0
 40 41  2  0
 42 41  1  0
 42 46  1  0
 43 42  2  0
 44 39  2  0
 44 43  1  0
 45 44  1  0
 47 48  1  0
 48 51  1  0
 48 50  1  0
 49 47  2  0
 52 53  1  0
 52 27  1  0
 54 52  1  0
 56 57  1  0
 56 55  1  0
 58 69  2  0
 59 57  1  0
 59 64  1  0
 60 68  1  0
 60 70  1  0
 61 67  1  0
 61 63  1  0
 62 68  1  0
 63 64  2  0
 63 62  1  0
 65 59  2  0
 66 65  1  0
 66 61  2  0
 67 60  1  0
 68 58  1  0
 70 72  2  0
 71 70  1  0
 73 71  1  0
 74 83  2  0
 74 79  1  0
 75 71  1  0
 75 79  1  0
 76 75  1  0
 77 78  1  0
 77 76  1  0
 78 74  1  0
 79 80  2  0
 80 81  1  0
 82 81  2  0
 83 82  1  0
 84 58  1  0
 84 89  1  0
 84 85  1  0
 85 88  1  1
 85 86  1  0
 87 85  1  0
 89 92  1  0
 90 94  1  0
 90 89  1  0
 91 90  2  0
 94 93  1  0
 96 94  1  0
 96 97  1  0
 96 95  1  0
M  ISO  4  17 100  25 100  56 101  57 101
M  END
>  <TORSDO>  (32) 
F 19

>  <SCORE>  (32) 
-14.212

>  <name>  (32) 
31

>  <ligand_id>  (32) 
31

>  <original_smiles>  (32) 
[H]C1=C(C([H])([H])C([H])([H])Oc2c([H])c([H])c3c(c2[H])C([H])([H])N(C(=O)C([H])(N([H])C(=O)C([H])(N([H])C([H])([H])[H])C([H])([H])[H])C(C([H])([H])[H])(C([H])([H])[H])C([H])([H])[H])C([H])(C(=O)N([H])C2([H])c4c([H])c([H])c([H])c([H])c4C([H])([H])C([H])([H])C2([H])[H])C3([H])[H])C(=C([H])C([H])([H])[H])C([H])([H])N(c2c([H])c(N([H])C(=O)N3C([H])([H])C([H])([H])C([H])([H])C([H])(n4nc(-c5c([H])c([H])c(Oc6c([H])c([H])c(F)c([H])c6F)c([H])c5[H])c(C(=O)N([H])[H])c4N([H])[H])C3([H])[H])c([H])c([H])c2C([H])([H])[H])C1=O

>  <smiles>  (32) 
[H]C1=C(C([H])([H])C([H])([H])Oc2c([H])c([H])c3c(c2[H])C([H])([H])N(C(=O)C([H])(N([H])C(=O)C([H])(N([H])C([H])([H])[H])C([H])([H])[H])C(C([H])([H])[H])(C([H])([H])[H])C([H])([H])[H])C([H])(C(=O)N([H])C2([H])c4c([H])c([H])c([H])c([H])c4C([H])([H])C([H])([H])C2([H])[H])C3([H])[H])C(=C([H])C([H])([H])[H])C([H])([H])N(c2c([H])c(N([H])C(=O)N3C([H])([H])C([H])([H])C([H])([H])C([H])(n4nc(-c5c([H])c([H])c(Oc6c([H])c([H])c(F)c([H])c6F)c([H])c5[H])c(C(=O)N([H])[H])c4N([H])[H])C3([H])[H])c([H])c([H])c2C([H])([H])[H])C1=O

$$$$
32:0:0
     RDKit          3D

 95103  0  0  1  0  0  0  0  0999 V2000
  -29.5700  -23.1520   21.2500 C   0  0  0  0  0  0  0  0  0  0  0  0
  -29.8140  -21.8740   21.2860 N   0  0  0  0  0  0  0  0  0  0  0  0
  -29.4550  -20.9060   20.3440 C   0  0  0  0  0  0  0  0  0  0  0  0
  -28.6100  -21.0170   19.4570 O   0  0  0  0  0  0  0  0  0  0  0  0
  -32.4190  -18.5560   20.8990 C   0  0  0  0  0  3  0  0  0  0  0  0
  -31.6210  -19.6890   20.6900 C   0  0  0  0  0  3  0  0  0  0  0  0
  -31.8470  -17.2760   20.8800 C   0  0  0  0  0  3  0  0  0  0  0  0
  -30.2220  -19.5850   20.5100 C   0  0  0  0  0  0  0  0  0  0  0  0
  -29.6410  -18.2600   20.4870 C   0  0  0  0  0  0  0  0  0  0  0  0
  -30.4670  -17.0830   20.6240 C   0  0  0  0  0  0  0  0  0  0  0  0
  -28.1380  -18.0930   20.3050 C   0  0  0  0  0  1  0  0  0  0  0  0
  -30.5750  -14.6160   20.0550 C   0  0  0  0  0  0  0  0  0  0  0  0
  -30.1810  -12.4420   18.9410 C   0  0  0  0  0  2  0  0  0  0  0  0
  -29.1750  -12.6190   17.7870 C   0  0  0  0  0  2  0  0  0  0  0  0
  -27.7330  -12.4620   18.3050 C   0  0  0  0  0  2  0  0  0  0  0  0
  -27.4590  -13.3040   19.5810 C   0  0  0  0  0  3  0  0  0  0  0  0
  -28.5850  -13.1450   20.6280 C   0  0  0  0  0  2  0  0  0  0  0  0
  -29.8620  -13.4530   19.9680 N   0  0  0  0  0  0  0  0  0  0  0  0
  -31.6940  -14.7010   19.5470 O   0  0  0  0  0  0  0  0  0  0  0  0
  -29.9430  -15.7240   20.5430 N   0  0  0  0  0  0  0  0  0  0  0  0
  -28.9750  -15.5950   20.7880 H   0  0  0  0  0  0  0  0  0  0  0  0
  -25.1090  -13.8790   20.4460 C   0  0  0  0  0  0  0  0  0  0  0  0
  -24.0690  -13.0950   20.8670 C   0  0  0  0  0  0  0  0  0  0  0  0
  -24.5340  -11.7470   20.7890 C   0  0  0  0  0  0  0  0  0  0  0  0
  -26.1430  -13.0080   20.1410 N   0  0  0  0  0  0  0  0  0  0  0  0
  -25.8050  -11.7190   20.4070 N   0  0  0  0  0  0  0  0  0  0  0  0
  -23.8230  -10.4770   21.0000 C   0  0  0  0  0  0  0  0  0  0  0  0
  -24.2920   -9.5120   21.9180 C   0  0  0  0  0  3  0  0  0  0  0  0
  -23.5810   -8.3100   22.1180 C   0  0  0  0  0  3  0  0  0  0  0  0
  -22.3880   -8.0620   21.3990 C   0  0  0  0  0  0  0  0  0  0  0  0
  -21.9380   -9.0150   20.4690 C   0  0  0  0  0  3  0  0  0  0  0  0
  -22.6500  -10.2100   20.2670 C   0  0  0  0  0  3  0  0  0  0  0  0
  -21.6470   -6.9100   21.5090 O   0  0  0  0  0  0  0  0  0  0  0  0
  -21.6220   -6.1780   22.6690 C   0  0  0  0  0  0  0  0  0  0  0  0
  -21.2100   -6.7410   23.8970 C   0  0  0  0  0  3  0  0  0  0  0  0
  -21.1340   -5.9340   25.0500 C   0  0  0  0  0  3  0  0  0  0  0  0
  -21.4590   -4.5660   24.9770 C   0  0  0  0  0  0  0  0  0  0  0  0
  -21.8620   -4.0030   23.7540 C   0  0  0  0  0  3  0  0  0  0  0  0
  -21.9410   -4.8070   22.6030 C   0  0  0  0  0  0  0  0  0  0  0  0
  -22.3100   -4.2540   21.4210 F   0  0  0  0  0  0  0  0  0  0  0  0
  -21.3770   -3.7900   26.0820 F   0  0  0  0  0  0  0  0  0  0  0  0
  -22.6880  -13.5610   21.2260 C   0  0  0  0  0  0  0  0  0  0  0  0
  -22.0140  -12.8470   22.1220 N   0  0  0  0  0  0  0  0  0  0  0  0
  -22.2170  -14.5920   20.7490 O   0  0  0  0  0  0  0  0  0  0  0  0
  -22.4100  -12.0140   22.5310 H   0  0  0  0  0  0  0  0  0  0  0  0
  -21.0890  -13.1400   22.4050 H   0  0  0  0  0  0  0  0  0  0  0  0
  -25.2550  -15.2510   20.2710 N   0  0  0  0  0  0  0  0  0  0  0  0
  -24.4780  -15.8900   20.3980 H   0  0  0  0  0  0  0  0  0  0  0  0
  -26.0550  -15.6830   19.8290 H   0  0  0  0  0  0  0  0  0  0  0  0
  -28.9020  -24.1320   20.2370 C   0  0  0  0  0  0  0  0  0  0  0  0
  -28.9820  -23.9680   19.0120 O   0  0  0  0  0  0  0  0  0  0  0  0
  -28.0730  -25.3340   20.8030 C   0  0  0  0  0  2  0  0  0  0  0  0
  -28.3200  -26.6360   20.1840 O   0  0  0  0  0  0  0  0  0  0  0  0
  -24.5680  -31.9430   23.2360 C   0  0  0  0  0  0  0  0  0  0  0  0
  -27.2000  -27.4570   20.1590 C   0  0  0  0  0  0  0  0  0  0  0  0
  -23.3640  -30.5390   21.5990 C   0  0  0  0  0  3  0  0  0  0  0  0
  -24.8180  -29.0040   20.1650 C   0  0  0  0  0  0  0  0  0  0  0  0
  -25.8940  -30.8900   21.3970 C   0  0  0  0  0  2  0  0  0  0  0  0
  -25.9820  -29.5160   20.7550 C   0  0  0  0  0  0  0  0  0  0  0  0
  -27.1830  -28.7550   20.7390 C   0  0  0  0  0  3  0  0  0  0  0  0
  -26.0200  -26.9840   19.5440 C   0  0  0  0  0  3  0  0  0  0  0  0
  -24.8360  -27.7420   19.5490 C   0  0  0  0  0  3  0  0  0  0  0  0
  -23.5710  -29.8630   20.2180 C   0  0  0  0  0  2  0  0  0  0  0  0
  -24.6280  -31.1390   22.1350 N   0  0  0  0  0  0  0  0  0  0  0  0
  -23.4870  -32.2120   23.7780 O   0  0  0  0  0  0  0  0  0  0  0  0
  -22.7140  -29.5160   22.5610 C   0  0  0  0  0  0  0  0  0  0  0  0
  -21.3900  -29.3280   22.4340 N   0  0  0  0  0  0  0  0  0  0  0  0
  -23.3980  -28.8960   23.3780 O   0  0  0  0  0  0  0  0  0  0  0  0
  -20.8980  -29.8770   21.7440 H   0  0  0  0  0  0  0  0  0  0  0  0
  -18.0220  -28.1110   22.9230 C   0  0  0  0  0  0  0  0  0  0  0  0
  -20.5760  -28.3890   23.2050 C   0  0  0  0  0  3  0  0  0  0  0  0
  -20.6910  -26.9560   22.6360 C   0  0  0  0  0  2  0  0  0  0  0  0
  -19.5960  -26.6210   21.6180 C   0  0  0  0  0  2  0  0  0  0  0  0
  -18.2110  -26.7600   22.2550 C   0  0  0  0  0  2  0  0  0  0  0  0
  -19.1320  -28.8840   23.3540 C   0  0  0  0  0  0  0  0  0  0  0  0
  -18.9020  -30.1490   23.9360 C   0  0  0  0  0  3  0  0  0  0  0  0
  -17.5920  -30.6410   24.0930 C   0  0  0  0  0  3  0  0  0  0  0  0
  -16.4960  -29.8670   23.6780 C   0  0  0  0  0  3  0  0  0  0  0  0
  -16.7120  -28.6030   23.0980 C   0  0  0  0  0  3  0  0  0  0  0  0
  -25.8530  -32.5780   23.8520 C   0  0  0  0  0  3  0  0  0  0  0  0
  -25.5420  -33.9770   24.1790 N   0  0  0  0  0  0  0  0  0  0  0  0
  -25.8770  -35.0280   23.4180 C   0  0  0  0  0  0  0  0  0  0  0  0
  -26.5510  -34.9220   22.3890 O   0  0  0  0  0  0  0  0  0  0  0  0
  -24.9440  -34.1340   24.9770 H   0  0  0  0  0  0  0  0  0  0  0  0
  -24.1500  -36.8200   23.0510 C   0  0  0  0  0  1  0  0  0  0  0  0
  -25.3870  -36.4170   23.8700 C   0  0  0  0  0  3  0  0  0  0  0  0
  -27.5190  -37.3020   24.7100 C   0  0  0  0  0  1  0  0  0  0  0  0
  -26.4210  -37.4700   23.7610 N   0  0  0  0  0  0  0  0  0  0  0  0
  -26.0130  -38.3900   23.9080 H   0  0  0  0  0  0  0  0  0  0  0  0
  -26.3710  -31.8110   25.1310 C   0  0  1  0  0  0  0  0  0  0  0  0
  -25.2810  -31.5750   26.2010 C   0  0  0  0  0  1  0  0  0  0  0  0
  -26.9550  -30.4320   24.7400 C   0  0  0  0  0  1  0  0  0  0  0  0
  -27.5200  -32.6090   25.7910 C   0  0  0  0  0  1  0  0  0  0  0  0
  -29.4250  -23.6440   23.7630 C   0  0  0  0  0  1  0  0  0  0  0  0
  -30.1850  -23.8820   22.4460 C   0  0  0  0  0  2  0  0  0  0  0  0
  1  2  2  0
  1 95  1  0
  3  8  1  0
  3  2  1  0
  4  3  2  0
  6  5  2  0
  7  5  1  0
  8  6  1  0
  9  8  2  0
  9 10  1  0
 10  7  2  0
 11  9  1  0
 12 20  1  0
 13 18  1  0
 14 15  1  0
 14 13  1  0
 16 15  1  0
 16 25  1  0
 16 17  1  0
 18 12  1  0
 18 17  1  0
 19 12  2  0
 20 10  1  0
 20 21  1  0
 22 23  2  0
 23 42  1  0
 24 23  1  0
 24 27  1  0
 25 26  1  0
 25 22  1  0
 26 24  2  0
 27 28  1  0
 28 29  2  0
 30 33  1  0
 30 29  1  0
 31 30  2  0
 32 31  1  0
 32 27  2  0
 33 34  1  0
 34 35  1  0
 35 36  2  0
 37 36  1  0
 37 41  1  0
 38 37  2  0
 39 34  2  0
 39 38  1  0
 40 39  1  0
 42 43  1  0
 43 46  1  0
 43 45  1  0
 44 42  2  0
 47 48  1  0
 47 22  1  0
 49 47  1  0
 50 52  1  0
 50  1  1  0
 51 50  2  0
 53 52  1  0
 54 65  2  0
 55 53  1  0
 55 60  1  0
 56 64  1  0
 56 66  1  0
 57 63  1  0
 57 59  1  0
 58 64  1  0
 59 58  1  0
 60 59  2  0
 61 62  1  0
 61 55  2  0
 62 57  2  0
 63 56  1  0
 64 54  1  0
 66 68  2  0
 67 66  1  0
 69 67  1  0
 70 79  2  0
 70 75  1  0
 71 67  1  0
 71 75  1  0
 72 71  1  0
 73 74  1  0
 73 72  1  0
 74 70  1  0
 75 76  2  0
 76 77  1  0
 78 77  2  0
 79 78  1  0
 80 54  1  0
 80 81  1  0
 80 90  1  0
 81 84  1  0
 82 86  1  0
 82 81  1  0
 83 82  2  0
 86 85  1  0
 88 86  1  0
 88 89  1  0
 88 87  1  0
 90 93  1  1
 90 91  1  0
 92 90  1  0
 95 94  1  0
M  ISO  4  12 100  20 100  52 101  53 101
M  END
>  <TORSDO>  (33) 
F 21

>  <SCORE>  (33) 
-13.560

>  <name>  (33) 
32

>  <ligand_id>  (33) 
32

>  <original_smiles>  (33) 
[H]c1c([H])c(C(=O)N=C(C(=O)C([H])([H])Oc2c([H])c([H])c3c(c2[H])C([H])([H])N(C(=O)C([H])(N([H])C(=O)C([H])(N([H])C([H])([H])[H])C([H])([H])[H])C(C([H])([H])[H])(C([H])([H])[H])C([H])([H])[H])C([H])(C(=O)N([H])C2([H])c4c([H])c([H])c([H])c([H])c4C([H])([H])C([H])([H])C2([H])[H])C3([H])[H])C([H])([H])C([H])([H])[H])c(C([H])([H])[H])c(N([H])C(=O)N2C([H])([H])C([H])([H])C([H])([H])C([H])(n3nc(-c4c([H])c([H])c(Oc5c([H])c([H])c(F)c([H])c5F)c([H])c4[H])c(C(=O)N([H])[H])c3N([H])[H])C2([H])[H])c1[H]

>  <smiles>  (33) 
[H]c1c([H])c(C(=O)N=C(C(=O)C([H])([H])Oc2c([H])c([H])c3c(c2[H])C([H])([H])N(C(=O)C([H])(N([H])C(=O)C([H])(N([H])C([H])([H])[H])C([H])([H])[H])C(C([H])([H])[H])(C([H])([H])[H])C([H])([H])[H])C([H])(C(=O)N([H])C2([H])c4c([H])c([H])c([H])c([H])c4C([H])([H])C([H])([H])C2([H])[H])C3([H])[H])C([H])([H])C([H])([H])[H])c(C([H])([H])[H])c(N([H])C(=O)N2C([H])([H])C([H])([H])C([H])([H])C([H])(n3nc(-c4c([H])c([H])c(Oc5c([H])c([H])c(F)c([H])c5F)c([H])c4[H])c(C(=O)N([H])[H])c3N([H])[H])C2([H])[H])c1[H]

$$$$
33:0:0
     RDKit          3D

 89 97  0  0  1  0  0  0  0  0999 V2000
  -29.7270  -22.4030   20.9640 C   0  0  0  0  0  3  0  0  0  0  0  0
  -29.2880  -23.7700   20.9100 C   0  0  0  0  0  0  0  0  0  0  0  0
  -30.0030  -24.7090   21.8990 C   0  0  0  0  0  1  0  0  0  0  0  0
  -28.4830  -20.0000   20.4340 C   0  0  0  0  0  3  0  0  0  0  0  0
  -30.8250  -20.0160   20.5750 C   0  0  0  0  0  3  0  0  0  0  0  0
  -28.5350  -18.5400   20.3580 C   0  0  0  0  0  3  0  0  0  0  0  0
  -30.8850  -18.5620   20.4580 C   0  0  0  0  0  3  0  0  0  0  0  0
  -29.6330  -20.8410   20.5830 C   0  0  0  0  0  0  0  0  0  0  0  0
  -29.7270  -17.7200   20.3800 C   0  0  0  0  0  0  0  0  0  0  0  0
  -30.4880  -15.0380   20.2110 C   0  0  0  0  0  0  0  0  0  0  0  0
  -30.3650  -12.6930   19.2470 C   0  0  0  0  0  2  0  0  0  0  0  0
  -29.3990  -12.6430   18.0410 C   0  0  0  0  0  2  0  0  0  0  0  0
  -27.9450  -12.4130   18.5030 C   0  0  0  0  0  2  0  0  0  0  0  0
  -27.5550  -13.3340   19.6880 C   0  0  0  0  0  3  0  0  0  0  0  0
  -28.6350  -13.3520   20.7900 C   0  0  0  0  0  2  0  0  0  0  0  0
  -29.9000  -13.7720   20.1640 N   0  0  0  0  0  0  0  0  0  0  0  0
  -31.6850  -15.1270   19.9140 O   0  0  0  0  0  0  0  0  0  0  0  0
  -29.6510  -16.1800   20.3730 N   0  0  0  0  0  0  0  0  0  0  0  0
  -28.6980  -15.8680   20.4740 H   0  0  0  0  0  0  0  0  0  0  0  0
  -25.2010  -13.9040   20.5160 C   0  0  0  0  0  0  0  0  0  0  0  0
  -24.1470  -13.1270   20.9090 C   0  0  0  0  0  0  0  0  0  0  0  0
  -24.6060  -11.7750   20.8430 C   0  0  0  0  0  0  0  0  0  0  0  0
  -26.2320  -13.0290   20.2230 N   0  0  0  0  0  0  0  0  0  0  0  0
  -25.8860  -11.7410   20.4870 N   0  0  0  0  0  0  0  0  0  0  0  0
  -23.8800  -10.5130   21.0330 C   0  0  0  0  0  0  0  0  0  0  0  0
  -24.3330   -9.5390   21.9490 C   0  0  0  0  0  3  0  0  0  0  0  0
  -23.6130   -8.3400   22.1330 C   0  0  0  0  0  3  0  0  0  0  0  0
  -22.4210   -8.1090   21.4060 C   0  0  0  0  0  0  0  0  0  0  0  0
  -21.9840   -9.0730   20.4810 C   0  0  0  0  0  3  0  0  0  0  0  0
  -22.7060  -10.2640   20.2950 C   0  0  0  0  0  3  0  0  0  0  0  0
  -21.6670   -6.9660   21.5000 O   0  0  0  0  0  0  0  0  0  0  0  0
  -21.6390   -6.2140   22.6480 C   0  0  0  0  0  0  0  0  0  0  0  0
  -21.2310   -6.7560   23.8860 C   0  0  0  0  0  3  0  0  0  0  0  0
  -21.1540   -5.9290   25.0250 C   0  0  0  0  0  3  0  0  0  0  0  0
  -21.4730   -4.5620   24.9240 C   0  0  0  0  0  0  0  0  0  0  0  0
  -21.8740   -4.0190   23.6900 C   0  0  0  0  0  3  0  0  0  0  0  0
  -21.9530   -4.8450   22.5540 C   0  0  0  0  0  0  0  0  0  0  0  0
  -22.3210   -4.3130   21.3650 F   0  0  0  0  0  0  0  0  0  0  0  0
  -21.3870   -3.7640   26.0150 F   0  0  0  0  0  0  0  0  0  0  0  0
  -22.7570  -13.6050   21.2190 C   0  0  0  0  0  0  0  0  0  0  0  0
  -22.0470  -12.9040   22.0940 N   0  0  0  0  0  0  0  0  0  0  0  0
  -22.3100  -14.6350   20.7180 O   0  0  0  0  0  0  0  0  0  0  0  0
  -22.4210  -12.0740   22.5350 H   0  0  0  0  0  0  0  0  0  0  0  0
  -21.1120  -13.2050   22.3290 H   0  0  0  0  0  0  0  0  0  0  0  0
  -25.3630  -15.2790   20.3560 N   0  0  0  0  0  0  0  0  0  0  0  0
  -24.5990  -15.9250   20.5240 H   0  0  0  0  0  0  0  0  0  0  0  0
  -26.1850  -15.7260   19.9700 H   0  0  0  0  0  0  0  0  0  0  0  0
  -28.2220  -24.7330   20.1170 C   0  0  0  0  0  2  0  0  0  0  0  0
  -28.3170  -26.2800   20.3000 O   0  0  0  0  0  0  0  0  0  0  0  0
  -24.6150  -31.8890   23.2480 C   0  0  0  0  0  0  0  0  0  0  0  0
  -27.2180  -27.2110   20.2140 C   0  0  0  0  0  0  0  0  0  0  0  0
  -23.4090  -30.4940   21.6090 C   0  0  0  0  0  3  0  0  0  0  0  0
  -24.8570  -28.9170   20.1800 C   0  0  0  0  0  0  0  0  0  0  0  0
  -25.9520  -30.7700   21.4270 C   0  0  0  0  0  2  0  0  0  0  0  0
  -26.0320  -29.3790   20.7800 C   0  0  0  0  0  0  0  0  0  0  0  0
  -27.2140  -28.5490   20.7740 C   0  0  0  0  0  3  0  0  0  0  0  0
  -26.0170  -26.8370   19.5720 C   0  0  0  0  0  3  0  0  0  0  0  0
  -24.8590  -27.6560   19.5580 C   0  0  0  0  0  3  0  0  0  0  0  0
  -23.6240  -29.8120   20.2290 C   0  0  0  0  0  2  0  0  0  0  0  0
  -24.6800  -31.0730   22.1510 N   0  0  0  0  0  0  0  0  0  0  0  0
  -23.5340  -32.1700   23.7880 O   0  0  0  0  0  0  0  0  0  0  0  0
  -22.7350  -29.4920   22.5780 C   0  0  0  0  0  0  0  0  0  0  0  0
  -21.4090  -29.3110   22.4470 N   0  0  0  0  0  0  0  0  0  0  0  0
  -23.4090  -28.8740   23.4080 O   0  0  0  0  0  0  0  0  0  0  0  0
  -20.9260  -29.8470   21.7400 H   0  0  0  0  0  0  0  0  0  0  0  0
  -18.0420  -28.0820   22.9570 C   0  0  0  0  0  0  0  0  0  0  0  0
  -20.5970  -28.3680   23.2200 C   0  0  0  0  0  3  0  0  0  0  0  0
  -20.7210  -26.9410   22.6420 C   0  0  0  0  0  2  0  0  0  0  0  0
  -19.6070  -26.5930   21.6430 C   0  0  0  0  0  2  0  0  0  0  0  0
  -18.2310  -26.7240   22.3020 C   0  0  0  0  0  2  0  0  0  0  0  0
  -19.1530  -28.8560   23.3830 C   0  0  0  0  0  0  0  0  0  0  0  0
  -18.9230  -30.1190   23.9700 C   0  0  0  0  0  3  0  0  0  0  0  0
  -17.6140  -30.6070   24.1380 C   0  0  0  0  0  3  0  0  0  0  0  0
  -16.5160  -29.8320   23.7250 C   0  0  0  0  0  3  0  0  0  0  0  0
  -16.7300  -28.5720   23.1370 C   0  0  0  0  0  3  0  0  0  0  0  0
  -25.8970  -32.5260   23.8690 C   0  0  0  0  0  3  0  0  0  0  0  0
  -25.5860  -33.9260   24.1970 N   0  0  0  0  0  0  0  0  0  0  0  0
  -25.8960  -34.9790   23.4260 C   0  0  0  0  0  0  0  0  0  0  0  0
  -26.5450  -34.8700   22.3830 O   0  0  0  0  0  0  0  0  0  0  0  0
  -25.0200  -34.0790   25.0190 H   0  0  0  0  0  0  0  0  0  0  0  0
  -24.1560  -36.7660   23.0940 C   0  0  0  0  0  1  0  0  0  0  0  0
  -25.4150  -36.3700   23.8840 C   0  0  0  0  0  3  0  0  0  0  0  0
  -27.5660  -37.2720   24.6540 C   0  0  0  0  0  1  0  0  0  0  0  0
  -26.4400  -37.4270   23.7360 N   0  0  0  0  0  0  0  0  0  0  0  0
  -26.0310  -38.3470   23.8860 H   0  0  0  0  0  0  0  0  0  0  0  0
  -26.4050  -31.7600   25.1530 C   0  0  1  0  0  0  0  0  0  0  0  0
  -25.3180  -31.5270   26.2260 C   0  0  0  0  0  1  0  0  0  0  0  0
  -26.9890  -30.3780   24.7750 C   0  0  0  0  0  1  0  0  0  0  0  0
  -27.5540  -32.5550   25.8140 C   0  0  0  0  0  1  0  0  0  0  0  0
  2  1  2  0
  2  3  1  0
  4  8  1  0
  5  8  2  0
  6  9  1  0
  6  4  2  0
  7  5  1  0
  8  1  1  0
  9  7  2  0
 10 18  1  0
 11 16  1  0
 12 13  1  0
 12 11  1  0
 14 13  1  0
 14 23  1  0
 14 15  1  0
 16 10  1  0
 16 15  1  0
 17 10  2  0
 18  9  1  0
 18 19  1  0
 20 21  2  0
 21 40  1  0
 22 21  1  0
 22 25  1  0
 23 24  1  0
 23 20  1  0
 24 22  2  0
 25 26  1  0
 26 27  2  0
 28 31  1  0
 28 27  1  0
 29 28  2  0
 30 29  1  0
 30 25  2  0
 31 32  1  0
 32 33  1  0
 33 34  2  0
 35 34  1  0
 35 39  1  0
 36 35  2  0
 37 32  2  0
 37 36  1  0
 38 37  1  0
 40 41  1  0
 41 44  1  0
 41 43  1  0
 42 40  2  0
 45 20  1  0
 45 46  1  0
 47 45  1  0
 48 49  1  0
 48  2  1  0
 50 61  2  0
 51 49  1  0
 51 56  1  0
 52 60  1  0
 52 62  1  0
 53 59  1  0
 53 55  1  0
 54 60  1  0
 55 54  1  0
 56 55  2  0
 57 51  2  0
 58 57  1  0
 58 53  2  0
 59 52  1  0
 60 50  1  0
 62 64  2  0
 63 62  1  0
 65 63  1  0
 66 75  2  0
 66 71  1  0
 67 63  1  0
 67 71  1  0
 68 67  1  0
 69 70  1  0
 69 68  1  0
 70 66  1  0
 71 72  2  0
 72 73  1  0
 74 73  2  0
 75 74  1  0
 76 50  1  0
 76 77  1  0
 76 86  1  0
 77 80  1  0
 78 82  1  0
 78 77  1  0
 79 78  2  0
 82 81  1  0
 84 82  1  0
 84 85  1  0
 84 83  1  0
 86 89  1  1
 86 87  1  0
 88 86  1  0
M  ISO  4  10 100  18 100  48 101  49 101
M  END
>  <TORSDO>  (34) 
F 18

>  <SCORE>  (34) 
-14.806

>  <name>  (34) 
33

>  <ligand_id>  (34) 
33

>  <original_smiles>  (34) 
[H]C(=C(C([H])([H])[H])C([H])([H])Oc1c([H])c([H])c2c(c1[H])C([H])([H])N(C(=O)C([H])(N([H])C(=O)C([H])(N([H])C([H])([H])[H])C([H])([H])[H])C(C([H])([H])[H])(C([H])([H])[H])C([H])([H])[H])C([H])(C(=O)N([H])C1([H])c3c([H])c([H])c([H])c([H])c3C([H])([H])C([H])([H])C1([H])[H])C2([H])[H])c1c([H])c([H])c(N([H])C(=O)N2C([H])([H])C([H])([H])C([H])([H])C([H])(n3nc(-c4c([H])c([H])c(Oc5c([H])c([H])c(F)c([H])c5F)c([H])c4[H])c(C(=O)N([H])[H])c3N([H])[H])C2([H])[H])c([H])c1[H]

>  <smiles>  (34) 
[H]C(=C(C([H])([H])[H])C([H])([H])Oc1c([H])c([H])c2c(c1[H])C([H])([H])N(C(=O)C([H])(N([H])C(=O)C([H])(N([H])C([H])([H])[H])C([H])([H])[H])C(C([H])([H])[H])(C([H])([H])[H])C([H])([H])[H])C([H])(C(=O)N([H])C1([H])c3c([H])c([H])c([H])c([H])c3C([H])([H])C([H])([H])C1([H])[H])C2([H])[H])c1c([H])c([H])c(N([H])C(=O)N2C([H])([H])C([H])([H])C([H])([H])C([H])(n3nc(-c4c([H])c([H])c(Oc5c([H])c([H])c(F)c([H])c5F)c([H])c4[H])c(C(=O)N([H])[H])c3N([H])[H])C2([H])[H])c([H])c1[H]

$$$$
34:0:0
     RDKit          3D

 93101  0  0  1  0  0  0  0  0999 V2000
  -31.6770  -22.1340   20.9010 O   0  0  0  0  0  0  0  0  0  0  0  0
  -30.7020  -21.8800   18.5840 O   0  0  0  0  0  0  0  0  0  0  0  0
  -30.5540  -21.7270   20.0410 S   0  0  1  0  0  0  0  0  0  0  0  0
  -30.7790  -17.8510   21.5600 C   0  0  0  0  0  3  0  0  0  0  0  0
  -30.8740  -19.2630   21.4180 C   0  0  0  0  0  3  0  0  0  0  0  0
  -29.3760  -19.1780   19.5190 C   0  0  0  0  0  3  0  0  0  0  0  0
  -29.2780  -17.7600   19.6530 C   0  0  0  0  0  0  0  0  0  0  0  0
  -29.9900  -17.0730   20.6770 C   0  0  0  0  0  0  0  0  0  0  0  0
  -30.1770  -19.9490   20.3950 C   0  0  0  0  0  0  0  0  0  0  0  0
  -28.4230  -16.9940   18.6560 C   0  0  0  0  0  1  0  0  0  0  0  0
  -30.5880  -14.6190   20.4670 C   0  0  0  0  0  0  0  0  0  0  0  0
  -30.3550  -12.4170   19.3570 C   0  0  0  0  0  2  0  0  0  0  0  0
  -29.4170  -12.5880   18.1420 C   0  0  0  0  0  2  0  0  0  0  0  0
  -27.9410  -12.4350   18.5600 C   0  0  0  0  0  2  0  0  0  0  0  0
  -27.5840  -13.2710   19.8170 C   0  0  0  0  0  3  0  0  0  0  0  0
  -28.6360  -13.0830   20.9350 C   0  0  0  0  0  2  0  0  0  0  0  0
  -29.9560  -13.4100   20.3710 N   0  0  0  0  0  0  0  0  0  0  0  0
  -31.7380  -14.7940   20.0510 O   0  0  0  0  0  0  0  0  0  0  0  0
  -29.8180  -15.6530   20.8990 N   0  0  0  0  0  0  0  0  0  0  0  0
  -28.9000  -15.3710   21.2100 H   0  0  0  0  0  0  0  0  0  0  0  0
  -25.1800  -13.8690   20.5120 C   0  0  0  0  0  0  0  0  0  0  0  0
  -24.1100  -13.0960   20.8800 C   0  0  0  0  0  0  0  0  0  0  0  0
  -24.5780  -11.7460   20.8590 C   0  0  0  0  0  0  0  0  0  0  0  0
  -26.2300  -12.9910   20.2900 N   0  0  0  0  0  0  0  0  0  0  0  0
  -25.8700  -11.7090   20.5550 N   0  0  0  0  0  0  0  0  0  0  0  0
  -23.8540  -10.4840   21.0510 C   0  0  0  0  0  0  0  0  0  0  0  0
  -24.2900   -9.5160   21.9830 C   0  0  0  0  0  3  0  0  0  0  0  0
  -23.5680   -8.3150   22.1610 C   0  0  0  0  0  3  0  0  0  0  0  0
  -22.3950   -8.0760   21.4080 C   0  0  0  0  0  0  0  0  0  0  0  0
  -21.9770   -9.0310   20.4650 C   0  0  0  0  0  3  0  0  0  0  0  0
  -22.7000  -10.2230   20.2860 C   0  0  0  0  0  3  0  0  0  0  0  0
  -21.6390   -6.9310   21.4980 O   0  0  0  0  0  0  0  0  0  0  0  0
  -21.6050   -6.1790   22.6460 C   0  0  0  0  0  0  0  0  0  0  0  0
  -21.1960   -6.7260   23.8810 C   0  0  0  0  0  3  0  0  0  0  0  0
  -21.1100   -5.9000   25.0210 C   0  0  0  0  0  3  0  0  0  0  0  0
  -21.4200   -4.5300   24.9260 C   0  0  0  0  0  0  0  0  0  0  0  0
  -21.8220   -3.9840   23.6940 C   0  0  0  0  0  3  0  0  0  0  0  0
  -21.9100   -4.8060   22.5560 C   0  0  0  0  0  0  0  0  0  0  0  0
  -22.2790   -4.2690   21.3680 F   0  0  0  0  0  0  0  0  0  0  0  0
  -21.3300   -3.7370   26.0180 F   0  0  0  0  0  0  0  0  0  0  0  0
  -22.7100  -13.5700   21.1400 C   0  0  0  0  0  0  0  0  0  0  0  0
  -21.9740  -12.8780   22.0020 N   0  0  0  0  0  0  0  0  0  0  0  0
  -22.2760  -14.5940   20.6130 O   0  0  0  0  0  0  0  0  0  0  0  0
  -22.3350  -12.0520   22.4560 H   0  0  0  0  0  0  0  0  0  0  0  0
  -21.0320  -13.1800   22.2130 H   0  0  0  0  0  0  0  0  0  0  0  0
  -25.3430  -15.2390   20.3290 N   0  0  0  0  0  0  0  0  0  0  0  0
  -24.5720  -15.8910   20.4290 H   0  0  0  0  0  0  0  0  0  0  0  0
  -26.1940  -15.6740   19.9990 H   0  0  0  0  0  0  0  0  0  0  0  0
  -29.2290  -22.7790   20.4930 N   0  0  0  0  0  0  0  0  0  0  0  0
  -28.3910  -22.4810   19.9900 H   0  0  0  0  0  0  0  0  0  0  0  0
  -29.4500  -24.2640   20.3370 C   0  0  0  0  0  3  0  0  0  0  0  0
  -28.1700  -25.1580   20.5200 C   0  0  0  0  0  3  0  0  0  0  0  0
  -28.3550  -26.5940   20.2730 O   0  0  0  0  0  0  0  0  0  0  0  0
  -24.5910  -31.9420   23.2490 C   0  0  0  0  0  0  0  0  0  0  0  0
  -27.2110  -27.3940   20.2350 C   0  0  0  0  0  0  0  0  0  0  0  0
  -23.3890  -30.5370   21.6090 C   0  0  0  0  0  3  0  0  0  0  0  0
  -24.8410  -28.9770   20.2070 C   0  0  0  0  0  0  0  0  0  0  0  0
  -25.9270  -30.8590   21.4340 C   0  0  0  0  0  2  0  0  0  0  0  0
  -26.0060  -29.4770   20.8030 C   0  0  0  0  0  0  0  0  0  0  0  0
  -27.1940  -28.6960   20.8080 C   0  0  0  0  0  3  0  0  0  0  0  0
  -26.0250  -26.9370   19.6140 C   0  0  0  0  0  3  0  0  0  0  0  0
  -24.8510  -27.7090   19.6070 C   0  0  0  0  0  3  0  0  0  0  0  0
  -23.6070  -29.8500   20.2360 C   0  0  0  0  0  2  0  0  0  0  0  0
  -24.6530  -31.1300   22.1550 N   0  0  0  0  0  0  0  0  0  0  0  0
  -23.5060  -32.2220   23.7810 O   0  0  0  0  0  0  0  0  0  0  0  0
  -22.7210  -29.5250   22.5730 C   0  0  0  0  0  0  0  0  0  0  0  0
  -21.3970  -29.3440   22.4360 N   0  0  0  0  0  0  0  0  0  0  0  0
  -23.3950  -28.9070   23.4010 O   0  0  0  0  0  0  0  0  0  0  0  0
  -20.9120  -29.8950   21.7410 H   0  0  0  0  0  0  0  0  0  0  0  0
  -18.0190  -28.1420   22.9090 C   0  0  0  0  0  0  0  0  0  0  0  0
  -20.5730  -28.4130   23.2090 C   0  0  0  0  0  3  0  0  0  0  0  0
  -20.6860  -26.9740   22.6540 C   0  0  0  0  0  2  0  0  0  0  0  0
  -19.5990  -26.6330   21.6310 C   0  0  0  0  0  2  0  0  0  0  0  0
  -18.2090  -26.7850   22.2540 C   0  0  0  0  0  2  0  0  0  0  0  0
  -19.1300  -28.9140   23.3430 C   0  0  0  0  0  0  0  0  0  0  0  0
  -18.9000  -30.1840   23.9140 C   0  0  0  0  0  3  0  0  0  0  0  0
  -17.5920  -30.6840   24.0570 C   0  0  0  0  0  3  0  0  0  0  0  0
  -16.4950  -29.9090   23.6420 C   0  0  0  0  0  3  0  0  0  0  0  0
  -16.7100  -28.6400   23.0740 C   0  0  0  0  0  3  0  0  0  0  0  0
  -25.8760  -32.5740   23.8690 C   0  0  0  0  0  3  0  0  0  0  0  0
  -26.3940  -31.8030   25.1450 C   0  0  1  0  0  0  0  0  0  0  0  0
  -25.3030  -31.5630   26.2150 C   0  0  0  0  0  1  0  0  0  0  0  0
  -26.9810  -30.4280   24.7550 C   0  0  0  0  0  1  0  0  0  0  0  0
  -27.5460  -32.5970   25.8060 C   0  0  0  0  0  1  0  0  0  0  0  0
  -25.5690  -33.9730   24.2000 N   0  0  0  0  0  0  0  0  0  0  0  0
  -25.8940  -35.0240   23.4350 C   0  0  0  0  0  0  0  0  0  0  0  0
  -26.5560  -34.9180   22.3990 O   0  0  0  0  0  0  0  0  0  0  0  0
  -24.9920  -34.1280   25.0130 H   0  0  0  0  0  0  0  0  0  0  0  0
  -24.1630  -36.8130   23.0790 C   0  0  0  0  0  1  0  0  0  0  0  0
  -25.4070  -36.4140   23.8890 C   0  0  0  0  0  3  0  0  0  0  0  0
  -27.5470  -37.3010   24.7060 C   0  0  0  0  0  1  0  0  0  0  0  0
  -26.4390  -37.4680   23.7700 N   0  0  0  0  0  0  0  0  0  0  0  0
  -26.0320  -38.3880   23.9190 H   0  0  0  0  0  0  0  0  0  0  0  0
  2  3  2  0
  3  9  1  0
  3 49  1  1
  3  1  2  0
  5  4  1  0
  6  7  2  0
  6  9  1  0
  7  8  1  0
  8 19  1  0
  8  4  2  0
  9  5  2  0
 10  7  1  0
 11 19  1  0
 12 17  1  0
 13 14  1  0
 13 12  1  0
 15 14  1  0
 15 24  1  0
 15 16  1  0
 17 11  1  0
 17 16  1  0
 18 11  2  0
 19 20  1  0
 21 22  2  0
 22 41  1  0
 23 22  1  0
 23 26  1  0
 24 21  1  0
 24 25  1  0
 25 23  2  0
 26 27  1  0
 27 28  2  0
 29 32  1  0
 29 28  1  0
 30 29  2  0
 31 30  1  0
 31 26  2  0
 32 33  1  0
 33 34  1  0
 34 35  2  0
 36 35  1  0
 36 40  1  0
 37 36  2  0
 38 33  2  0
 38 37  1  0
 39 38  1  0
 41 42  1  0
 42 45  1  0
 42 44  1  0
 43 41  2  0
 46 47  1  0
 46 21  1  0
 48 46  1  0
 50 49  1  0
 51 49  1  0
 51 52  2  0
 53 52  1  0
 54 65  2  0
 55 53  1  0
 55 60  1  0
 56 64  1  0
 56 66  1  0
 57 63  1  0
 57 59  1  0
 58 64  1  0
 59 60  2  0
 59 58  1  0
 61 55  2  0
 62 61  1  0
 62 57  2  0
 63 56  1  0
 64 54  1  0
 66 68  2  0
 67 66  1  0
 69 67  1  0
 70 79  2  0
 70 75  1  0
 71 67  1  0
 71 75  1  0
 72 71  1  0
 73 74  1  0
 73 72  1  0
 74 70  1  0
 75 76  2  0
 76 77  1  0
 78 77  2  0
 79 78  1  0
 80 54  1  0
 80 85  1  0
 80 81  1  0
 81 84  1  1
 81 82  1  0
 83 81  1  0
 85 88  1  0
 86 90  1  0
 86 85  1  0
 87 86  2  0
 90 89  1  0
 92 90  1  0
 92 93  1  0
 92 91  1  0
M  ISO  4  11 100  19 100  52 101  53 101
M  END
>  <TORSDO>  (35) 
F 20

>  <SCORE>  (35) 
-14.150

>  <name>  (35) 
34

>  <ligand_id>  (35) 
34

>  <original_smiles>  (35) 
[H]c1c([H])c([H])c2c(c1[H])C([H])([H])C([H])([H])C([H])([H])C2([H])N([H])C(=O)C1([H])N(C(=O)C([H])(N([H])C(=O)C([H])(N([H])C([H])([H])[H])C([H])([H])[H])C(C([H])([H])[H])(C([H])([H])[H])C([H])([H])[H])C([H])([H])c2c([H])c(OC([H])([H])C([H])([H])N([H])S(=O)(=O)c3c([H])c([H])c(N([H])C(=O)N4C([H])([H])C([H])([H])C([H])([H])C([H])(n5nc(-c6c([H])c([H])c(Oc7c([H])c([H])c(F)c([H])c7F)c([H])c6[H])c(C(=O)N([H])[H])c5N([H])[H])C4([H])[H])c(C([H])([H])[H])c3[H])c([H])c([H])c2C1([H])[H]

>  <smiles>  (35) 
[H]c1c([H])c([H])c2c(c1[H])C([H])([H])C([H])([H])C([H])([H])C2([H])N([H])C(=O)C1([H])N(C(=O)C([H])(N([H])C(=O)C([H])(N([H])C([H])([H])[H])C([H])([H])[H])C(C([H])([H])[H])(C([H])([H])[H])C([H])([H])[H])C([H])([H])c2c([H])c(OC([H])([H])C([H])([H])N([H])S(=O)(=O)c3c([H])c([H])c(N([H])C(=O)N4C([H])([H])C([H])([H])C([H])([H])C([H])(n5nc(-c6c([H])c([H])c(Oc7c([H])c([H])c(F)c([H])c7F)c([H])c6[H])c(C(=O)N([H])[H])c5N([H])[H])C4([H])[H])c(C([H])([H])[H])c3[H])c([H])c([H])c2C1([H])[H]

$$$$
35:0:0
     RDKit          3D

 95104  0  0  1  0  0  0  0  0999 V2000
  -30.6930  -21.9520   21.6200 C   0  0  0  0  0  0  0  0  0  0  0  0
  -31.4260  -23.2780   21.5160 C   0  0  0  0  0  2  0  0  0  0  0  0
  -30.7560  -23.9290   20.3060 C   0  0  0  0  0  2  0  0  0  0  0  0
  -29.3520  -23.2950   20.2490 C   0  0  0  0  0  3  0  0  0  0  0  0
  -29.6020  -21.9410   20.8360 N   0  0  0  0  0  0  0  0  0  0  0  0
  -31.1060  -21.0220   22.3170 O   0  0  0  0  0  0  0  0  0  0  0  0
  -28.8160  -20.7090   20.5420 C   0  0  0  0  0  2  0  0  0  0  0  0
  -30.9920  -18.4260   18.2720 C   0  0  0  0  0  3  0  0  0  0  0  0
  -30.8330  -17.1650   18.8700 C   0  0  0  0  0  3  0  0  0  0  0  0
  -29.4140  -18.1670   20.5670 C   0  0  0  0  0  3  0  0  0  0  0  0
  -30.3620  -19.5680   18.8000 C   0  0  0  0  0  0  0  0  0  0  0  0
  -29.5650  -19.4650   19.9710 C   0  0  0  0  0  0  0  0  0  0  0  0
  -30.0490  -16.9990   20.0360 C   0  0  0  0  0  0  0  0  0  0  0  0
  -30.5470  -20.8770   18.0530 C   0  0  0  0  0  1  0  0  0  0  0  0
  -30.5970  -14.5580   20.3990 C   0  0  0  0  0  0  0  0  0  0  0  0
  -30.3300  -12.3350   19.3750 C   0  0  0  0  0  2  0  0  0  0  0  0
  -29.4000  -12.4900   18.1530 C   0  0  0  0  0  2  0  0  0  0  0  0
  -27.9260  -12.3450   18.5770 C   0  0  0  0  0  2  0  0  0  0  0  0
  -27.5660  -13.2130   19.8140 C   0  0  0  0  0  3  0  0  0  0  0  0
  -28.6210  -13.0710   20.9350 C   0  0  0  0  0  2  0  0  0  0  0  0
  -29.9370  -13.3650   20.3540 N   0  0  0  0  0  0  0  0  0  0  0  0
  -31.7860  -14.6430   20.0770 O   0  0  0  0  0  0  0  0  0  0  0  0
  -29.8460  -15.6760   20.6100 N   0  0  0  0  0  0  0  0  0  0  0  0
  -28.9500  -15.5170   21.0460 H   0  0  0  0  0  0  0  0  0  0  0  0
  -25.1710  -13.8010   20.5350 C   0  0  0  0  0  0  0  0  0  0  0  0
  -24.1060  -13.0220   20.9010 C   0  0  0  0  0  0  0  0  0  0  0  0
  -24.5730  -11.6720   20.8620 C   0  0  0  0  0  0  0  0  0  0  0  0
  -26.2180  -12.9260   20.2970 N   0  0  0  0  0  0  0  0  0  0  0  0
  -25.8640  -11.6400   20.5540 N   0  0  0  0  0  0  0  0  0  0  0  0
  -23.8500  -10.4060   21.0440 C   0  0  0  0  0  0  0  0  0  0  0  0
  -24.2780   -9.4400   21.9810 C   0  0  0  0  0  3  0  0  0  0  0  0
  -23.5560   -8.2390   22.1510 C   0  0  0  0  0  3  0  0  0  0  0  0
  -22.3920   -7.9960   21.3860 C   0  0  0  0  0  0  0  0  0  0  0  0
  -21.9830   -8.9510   20.4380 C   0  0  0  0  0  3  0  0  0  0  0  0
  -22.7060  -10.1430   20.2650 C   0  0  0  0  0  3  0  0  0  0  0  0
  -21.6430   -6.8470   21.4650 O   0  0  0  0  0  0  0  0  0  0  0  0
  -21.5810   -6.1060   22.6190 C   0  0  0  0  0  0  0  0  0  0  0  0
  -21.1210   -6.6570   23.8340 C   0  0  0  0  0  3  0  0  0  0  0  0
  -21.0060   -5.8440   24.9780 C   0  0  0  0  0  3  0  0  0  0  0  0
  -21.3410   -4.4780   24.9070 C   0  0  0  0  0  0  0  0  0  0  0  0
  -21.7950   -3.9250   23.6970 C   0  0  0  0  0  3  0  0  0  0  0  0
  -21.9110   -4.7370   22.5550 C   0  0  0  0  0  0  0  0  0  0  0  0
  -22.3280   -4.1950   21.3850 F   0  0  0  0  0  0  0  0  0  0  0  0
  -21.2240   -3.6940   26.0050 F   0  0  0  0  0  0  0  0  0  0  0  0
  -22.7070  -13.4930   21.1720 C   0  0  0  0  0  0  0  0  0  0  0  0
  -21.9780  -12.7880   22.0310 N   0  0  0  0  0  0  0  0  0  0  0  0
  -22.2670  -14.5210   20.6590 O   0  0  0  0  0  0  0  0  0  0  0  0
  -22.3460  -11.9570   22.4700 H   0  0  0  0  0  0  0  0  0  0  0  0
  -21.0380  -13.0850   22.2550 H   0  0  0  0  0  0  0  0  0  0  0  0
  -25.3310  -15.1730   20.3640 N   0  0  0  0  0  0  0  0  0  0  0  0
  -24.5600  -15.8220   20.4770 H   0  0  0  0  0  0  0  0  0  0  0  0
  -26.1730  -15.6150   20.0190 H   0  0  0  0  0  0  0  0  0  0  0  0
  -28.2620  -24.1270   21.0280 C   0  0  0  0  0  2  0  0  0  0  0  0
  -28.4150  -25.6770   21.2710 C   0  0  0  0  0  2  0  0  0  0  0  0
  -28.3090  -26.5940   20.1550 O   0  0  0  0  0  0  0  0  0  0  0  0
  -24.5620  -31.8730   23.2410 C   0  0  0  0  0  0  0  0  0  0  0  0
  -27.1810  -27.3960   20.1630 C   0  0  0  0  0  0  0  0  0  0  0  0
  -23.3520  -30.4770   21.5970 C   0  0  0  0  0  3  0  0  0  0  0  0
  -24.8010  -28.9340   20.1680 C   0  0  0  0  0  0  0  0  0  0  0  0
  -25.8810  -30.8210   21.4010 C   0  0  0  0  0  2  0  0  0  0  0  0
  -25.9640  -29.4470   20.7590 C   0  0  0  0  0  0  0  0  0  0  0  0
  -27.1610  -28.6860   20.7520 C   0  0  0  0  0  3  0  0  0  0  0  0
  -26.0080  -26.9060   19.5600 C   0  0  0  0  0  3  0  0  0  0  0  0
  -24.8200  -27.6640   19.5630 C   0  0  0  0  0  3  0  0  0  0  0  0
  -23.5600  -29.7990   20.2160 C   0  0  0  0  0  2  0  0  0  0  0  0
  -24.6170  -31.0730   22.1370 N   0  0  0  0  0  0  0  0  0  0  0  0
  -23.4810  -32.1470   23.7820 O   0  0  0  0  0  0  0  0  0  0  0  0
  -22.6970  -29.4580   22.5570 C   0  0  0  0  0  0  0  0  0  0  0  0
  -21.3710  -29.2820   22.4320 N   0  0  0  0  0  0  0  0  0  0  0  0
  -23.3780  -28.8290   23.3710 O   0  0  0  0  0  0  0  0  0  0  0  0
  -20.8820  -29.8400   21.7460 H   0  0  0  0  0  0  0  0  0  0  0  0
  -17.9920  -28.0990   22.9350 C   0  0  0  0  0  0  0  0  0  0  0  0
  -20.5510  -28.3440   23.2010 C   0  0  0  0  0  3  0  0  0  0  0  0
  -20.6460  -26.9150   22.6180 C   0  0  0  0  0  2  0  0  0  0  0  0
  -19.5400  -26.6010   21.6060 C   0  0  0  0  0  2  0  0  0  0  0  0
  -18.1600  -26.7520   22.2540 C   0  0  0  0  0  2  0  0  0  0  0  0
  -19.1150  -28.8540   23.3660 C   0  0  0  0  0  0  0  0  0  0  0  0
  -18.9040  -30.1160   23.9630 C   0  0  0  0  0  3  0  0  0  0  0  0
  -17.6020  -30.6240   24.1320 C   0  0  0  0  0  3  0  0  0  0  0  0
  -16.4930  -29.8660   23.7180 C   0  0  0  0  0  3  0  0  0  0  0  0
  -16.6890  -28.6050   23.1260 C   0  0  0  0  0  3  0  0  0  0  0  0
  -25.8490  -32.5000   23.8610 C   0  0  0  0  0  3  0  0  0  0  0  0
  -26.3620  -31.7300   25.1400 C   0  0  1  0  0  0  0  0  0  0  0  0
  -25.2680  -31.5020   26.2080 C   0  0  0  0  0  1  0  0  0  0  0  0
  -26.9400  -30.3490   24.7500 C   0  0  0  0  0  1  0  0  0  0  0  0
  -27.5170  -32.5220   25.7990 C   0  0  0  0  0  1  0  0  0  0  0  0
  -25.5480  -33.9010   24.1850 N   0  0  0  0  0  0  0  0  0  0  0  0
  -25.8940  -34.9480   23.4250 C   0  0  0  0  0  0  0  0  0  0  0  0
  -26.5720  -34.8360   22.3990 O   0  0  0  0  0  0  0  0  0  0  0  0
  -24.9490  -34.0620   24.9820 H   0  0  0  0  0  0  0  0  0  0  0  0
  -24.1890  -36.7570   23.0420 C   0  0  0  0  0  1  0  0  0  0  0  0
  -25.4130  -36.3410   23.8740 C   0  0  0  0  0  3  0  0  0  0  0  0
  -27.5430  -37.2070   24.7380 C   0  0  0  0  0  1  0  0  0  0  0  0
  -26.4580  -37.3840   23.7760 N   0  0  0  0  0  0  0  0  0  0  0  0
  -26.0590  -38.3090   23.9150 H   0  0  0  0  0  0  0  0  0  0  0  0
  1  6  2  0
  2  1  1  0
  3  2  1  0
  4  3  1  0
  4  5  1  0
  4 53  1  0
  5  1  1  0
  7  5  1  0
  8 11  2  0
  8  9  1  0
  9 13  2  0
 11 12  1  0
 12  7  1  0
 12 10  2  0
 13 10  1  0
 13 23  1  0
 14 11  1  0
 15 23  1  0
 16 21  1  0
 17 18  1  0
 17 16  1  0
 19 18  1  0
 19 28  1  0
 19 20  1  0
 21 15  1  0
 21 20  1  0
 22 15  2  0
 23 24  1  0
 25 26  2  0
 26 45  1  0
 27 26  1  0
 27 30  1  0
 28 25  1  0
 28 29  1  0
 29 27  2  0
 30 31  1  0
 31 32  2  0
 33 36  1  0
 33 32  1  0
 34 33  2  0
 35 34  1  0
 35 30  2  0
 36 37  1  0
 37 38  1  0
 38 39  2  0
 40 39  1  0
 40 44  1  0
 41 40  2  0
 42 37  2  0
 42 41  1  0
 43 42  1  0
 45 46  1  0
 46 49  1  0
 46 48  1  0
 47 45  2  0
 50 51  1  0
 50 25  1  0
 52 50  1  0
 53 54  1  0
 55 57  1  0
 55 54  1  0
 56 67  2  0
 57 62  1  0
 58 66  1  0
 58 68  1  0
 59 65  1  0
 59 61  1  0
 60 66  1  0
 61 60  1  0
 62 61  2  0
 63 64  1  0
 63 57  2  0
 64 59  2  0
 65 58  1  0
 66 56  1  0
 68 70  2  0
 69 68  1  0
 71 69  1  0
 72 81  2  0
 72 77  1  0
 73 69  1  0
 73 77  1  0
 74 73  1  0
 75 76  1  0
 75 74  1  0
 76 72  1  0
 77 78  2  0
 78 79  1  0
 80 79  2  0
 81 80  1  0
 82 56  1  0
 82 87  1  0
 82 83  1  0
 83 86  1  1
 83 84  1  0
 85 83  1  0
 87 90  1  0
 88 92  1  0
 88 87  1  0
 89 88  2  0
 92 91  1  0
 94 92  1  0
 94 95  1  0
 94 93  1  0
M  ISO  4  15 100  23 100  54 101  55 101
M  END
>  <TORSDO>  (36) 
F 20

>  <SCORE>  (36) 
-13.876

>  <name>  (36) 
35

>  <ligand_id>  (36) 
35

>  <original_smiles>  (36) 
[H]c1c([H])c([H])c2c(c1[H])C([H])([H])C([H])([H])C([H])([H])C2([H])N([H])C(=O)C1([H])N(C(=O)C([H])(N([H])C(=O)C([H])(N([H])C([H])([H])[H])C([H])([H])[H])C(C([H])([H])[H])(C([H])([H])[H])C([H])([H])[H])C([H])([H])c2c([H])c(OC([H])([H])C([H])([H])C3([H])N(C([H])([H])c4c([H])c(N([H])C(=O)N5C([H])([H])C([H])([H])C([H])([H])C([H])(n6nc(-c7c([H])c([H])c(Oc8c([H])c([H])c(F)c([H])c8F)c([H])c7[H])c(C(=O)N([H])[H])c6N([H])[H])C5([H])[H])c([H])c([H])c4C([H])([H])[H])C(=O)C([H])([H])C3([H])[H])c([H])c([H])c2C1([H])[H]

>  <smiles>  (36) 
[H]c1c([H])c([H])c2c(c1[H])C([H])([H])C([H])([H])C([H])([H])C2([H])N([H])C(=O)C1([H])N(C(=O)C([H])(N([H])C(=O)C([H])(N([H])C([H])([H])[H])C([H])([H])[H])C(C([H])([H])[H])(C([H])([H])[H])C([H])([H])[H])C([H])([H])c2c([H])c(OC([H])([H])C([H])([H])C3([H])N(C([H])([H])c4c([H])c(N([H])C(=O)N5C([H])([H])C([H])([H])C([H])([H])C([H])(n6nc(-c7c([H])c([H])c(Oc8c([H])c([H])c(F)c([H])c8F)c([H])c7[H])c(C(=O)N([H])[H])c6N([H])[H])C5([H])[H])c([H])c([H])c4C([H])([H])[H])C(=O)C([H])([H])C3([H])[H])c([H])c([H])c2C1([H])[H]

$$$$
36:0:0
     RDKit          3D

 94103  0  0  1  0  0  0  0  0999 V2000
  -28.4710  -21.1370   18.6180 C   0  0  0  0  0  0  0  0  0  0  0  0
  -27.8390  -22.4170   18.0250 C   0  0  0  0  0  2  0  0  0  0  0  0
  -28.3800  -23.7390   18.6000 C   0  0  0  0  0  2  0  0  0  0  0  0
  -28.9170  -22.4450   20.6780 C   0  0  0  0  0  2  0  0  0  0  0  0
  -28.1340  -23.7400   20.1010 C   0  0  0  0  0  3  0  0  0  0  0  0
  -28.9040  -21.1090   19.9150 N   0  0  0  0  0  0  0  0  0  0  0  0
  -28.5400  -20.1640   17.8620 O   0  0  0  0  0  0  0  0  0  0  0  0
  -30.7900  -20.0950   21.1950 C   0  0  0  0  0  3  0  0  0  0  0  0
  -31.2480  -17.6850   21.3740 C   0  0  0  0  0  3  0  0  0  0  0  0
  -29.2850  -18.4860   20.1800 C   0  0  0  0  0  3  0  0  0  0  0  0
  -31.5930  -19.0240   21.6430 C   0  0  0  0  0  0  0  0  0  0  0  0
  -29.6200  -19.8900   20.4290 C   0  0  0  0  0  0  0  0  0  0  0  0
  -30.0920  -17.3580   20.6340 C   0  0  0  0  0  0  0  0  0  0  0  0
  -32.8690  -19.3130   22.4080 C   0  0  0  0  0  1  0  0  0  0  0  0
  -30.5730  -14.7970   20.3600 C   0  0  0  0  0  0  0  0  0  0  0  0
  -30.3990  -12.5170   19.3510 C   0  0  0  0  0  2  0  0  0  0  0  0
  -29.4650  -12.5900   18.1240 C   0  0  0  0  0  2  0  0  0  0  0  0
  -27.9930  -12.4110   18.5480 C   0  0  0  0  0  2  0  0  0  0  0  0
  -27.6140  -13.2930   19.7660 C   0  0  0  0  0  3  0  0  0  0  0  0
  -28.6690  -13.2110   20.8900 C   0  0  0  0  0  2  0  0  0  0  0  0
  -29.9580  -13.5700   20.2900 N   0  0  0  0  0  0  0  0  0  0  0  0
  -31.7760  -14.8900   20.0960 O   0  0  0  0  0  0  0  0  0  0  0  0
  -29.7610  -15.9220   20.4460 N   0  0  0  0  0  0  0  0  0  0  0  0
  -28.7740  -15.7180   20.4110 H   0  0  0  0  0  0  0  0  0  0  0  0
  -25.2250  -13.8820   20.4760 C   0  0  0  0  0  0  0  0  0  0  0  0
  -24.1600  -13.1080   20.8430 C   0  0  0  0  0  0  0  0  0  0  0  0
  -24.6270  -11.7580   20.8260 C   0  0  0  0  0  0  0  0  0  0  0  0
  -26.2710  -13.0040   20.2520 N   0  0  0  0  0  0  0  0  0  0  0  0
  -25.9210  -11.7210   20.5270 N   0  0  0  0  0  0  0  0  0  0  0  0
  -23.9050  -10.4950   21.0170 C   0  0  0  0  0  0  0  0  0  0  0  0
  -24.3370   -9.5350   21.9600 C   0  0  0  0  0  3  0  0  0  0  0  0
  -23.6160   -8.3350   22.1400 C   0  0  0  0  0  3  0  0  0  0  0  0
  -22.4500   -8.0870   21.3790 C   0  0  0  0  0  0  0  0  0  0  0  0
  -22.0380   -9.0340   20.4250 C   0  0  0  0  0  3  0  0  0  0  0  0
  -22.7590  -10.2260   20.2430 C   0  0  0  0  0  3  0  0  0  0  0  0
  -21.7000   -6.9400   21.4690 O   0  0  0  0  0  0  0  0  0  0  0  0
  -21.6430   -6.2050   22.6250 C   0  0  0  0  0  0  0  0  0  0  0  0
  -21.1910   -6.7620   23.8420 C   0  0  0  0  0  3  0  0  0  0  0  0
  -21.0850   -5.9530   24.9910 C   0  0  0  0  0  3  0  0  0  0  0  0
  -21.4180   -4.5870   24.9230 C   0  0  0  0  0  0  0  0  0  0  0  0
  -21.8610   -4.0290   23.7100 C   0  0  0  0  0  3  0  0  0  0  0  0
  -21.9700   -4.8360   22.5640 C   0  0  0  0  0  0  0  0  0  0  0  0
  -22.3780   -4.2880   21.3940 F   0  0  0  0  0  0  0  0  0  0  0  0
  -21.3090   -3.8060   26.0240 F   0  0  0  0  0  0  0  0  0  0  0  0
  -22.7590  -13.5810   21.0990 C   0  0  0  0  0  0  0  0  0  0  0  0
  -22.0270  -12.8830   21.9600 N   0  0  0  0  0  0  0  0  0  0  0  0
  -22.3210  -14.6040   20.5720 O   0  0  0  0  0  0  0  0  0  0  0  0
  -22.3980  -12.0540   22.4010 H   0  0  0  0  0  0  0  0  0  0  0  0
  -21.0860  -13.1750   22.1810 H   0  0  0  0  0  0  0  0  0  0  0  0
  -25.3890  -15.2520   20.2870 N   0  0  0  0  0  0  0  0  0  0  0  0
  -24.6200  -15.9070   20.3840 H   0  0  0  0  0  0  0  0  0  0  0  0
  -26.2230  -15.6810   19.9120 H   0  0  0  0  0  0  0  0  0  0  0  0
  -28.3420  -25.1800   20.8120 C   0  0  0  0  0  2  0  0  0  0  0  0
  -28.3060  -26.5040   20.1250 O   0  0  0  0  0  0  0  0  0  0  0  0
  -24.5780  -31.9080   23.2380 C   0  0  0  0  0  0  0  0  0  0  0  0
  -27.1740  -27.3290   20.1880 C   0  0  0  0  0  0  0  0  0  0  0  0
  -23.3640  -30.5040   21.6060 C   0  0  0  0  0  3  0  0  0  0  0  0
  -24.8080  -28.9380   20.1850 C   0  0  0  0  0  0  0  0  0  0  0  0
  -25.9020  -30.8220   21.4060 C   0  0  0  0  0  2  0  0  0  0  0  0
  -25.9800  -29.4380   20.7670 C   0  0  0  0  0  0  0  0  0  0  0  0
  -27.1710  -28.6470   20.7500 C   0  0  0  0  0  3  0  0  0  0  0  0
  -25.9800  -26.8750   19.5980 C   0  0  0  0  0  3  0  0  0  0  0  0
  -24.8100  -27.6630   19.5920 C   0  0  0  0  0  3  0  0  0  0  0  0
  -23.5670  -29.8080   20.2330 C   0  0  0  0  0  2  0  0  0  0  0  0
  -24.6340  -31.0980   22.1390 N   0  0  0  0  0  0  0  0  0  0  0  0
  -23.4980  -32.1840   23.7790 O   0  0  0  0  0  0  0  0  0  0  0  0
  -22.7070  -29.4960   22.5770 C   0  0  0  0  0  0  0  0  0  0  0  0
  -21.3810  -29.3140   22.4560 N   0  0  0  0  0  0  0  0  0  0  0  0
  -23.3900  -28.8760   23.3970 O   0  0  0  0  0  0  0  0  0  0  0  0
  -20.8880  -29.8670   21.7690 H   0  0  0  0  0  0  0  0  0  0  0  0
  -18.0100  -28.1060   22.9630 C   0  0  0  0  0  0  0  0  0  0  0  0
  -20.5670  -28.3740   23.2290 C   0  0  0  0  0  3  0  0  0  0  0  0
  -20.6730  -26.9420   22.6540 C   0  0  0  0  0  2  0  0  0  0  0  0
  -19.5720  -26.6130   21.6420 C   0  0  0  0  0  2  0  0  0  0  0  0
  -18.1900  -26.7570   22.2880 C   0  0  0  0  0  2  0  0  0  0  0  0
  -19.1270  -28.8730   23.3880 C   0  0  0  0  0  0  0  0  0  0  0  0
  -18.9060  -30.1380   23.9750 C   0  0  0  0  0  3  0  0  0  0  0  0
  -17.6000  -30.6360   24.1420 C   0  0  0  0  0  3  0  0  0  0  0  0
  -16.4980  -29.8640   23.7370 C   0  0  0  0  0  3  0  0  0  0  0  0
  -16.7020  -28.6000   23.1540 C   0  0  0  0  0  3  0  0  0  0  0  0
  -25.8630  -32.5450   23.8510 C   0  0  0  0  0  3  0  0  0  0  0  0
  -25.5560  -33.9470   24.1670 N   0  0  0  0  0  0  0  0  0  0  0  0
  -25.8960  -34.9950   23.4050 C   0  0  0  0  0  0  0  0  0  0  0  0
  -26.5690  -34.8830   22.3760 O   0  0  0  0  0  0  0  0  0  0  0  0
  -24.9570  -34.1060   24.9640 H   0  0  0  0  0  0  0  0  0  0  0  0
  -24.1830  -36.8020   23.0300 C   0  0  0  0  0  1  0  0  0  0  0  0
  -25.4150  -36.3890   23.8520 C   0  0  0  0  0  3  0  0  0  0  0  0
  -27.5470  -37.2680   24.6980 C   0  0  0  0  0  1  0  0  0  0  0  0
  -26.4530  -37.4360   23.7440 N   0  0  0  0  0  0  0  0  0  0  0  0
  -26.0500  -38.3590   23.8840 H   0  0  0  0  0  0  0  0  0  0  0  0
  -26.3790  -31.7890   25.1380 C   0  0  1  0  0  0  0  0  0  0  0  0
  -25.2870  -31.5620   26.2110 C   0  0  0  0  0  1  0  0  0  0  0  0
  -26.9620  -30.4070   24.7660 C   0  0  0  0  0  1  0  0  0  0  0  0
  -27.5290  -32.5910   25.7910 C   0  0  0  0  0  1  0  0  0  0  0  0
  1  6  1  0
  2  3  1  0
  2  1  1  0
  3  5  1  0
  5  4  1  0
  5 53  1  0
  6 12  1  0
  6  4  1  0
  7  1  2  0
  8 11  1  0
  9 11  2  0
 10 12  1  0
 10 13  2  0
 11 14  1  0
 12  8  2  0
 13  9  1  0
 15 23  1  0
 16 21  1  0
 17 18  1  0
 17 16  1  0
 19 18  1  0
 19 28  1  0
 19 20  1  0
 21 15  1  0
 21 20  1  0
 22 15  2  0
 23 13  1  0
 24 23  1  0
 25 26  2  0
 26 45  1  0
 27 26  1  0
 27 30  1  0
 28 25  1  0
 28 29  1  0
 29 27  2  0
 30 31  1  0
 31 32  2  0
 33 36  1  0
 33 32  1  0
 34 33  2  0
 35 34  1  0
 35 30  2  0
 36 37  1  0
 37 38  1  0
 38 39  2  0
 40 39  1  0
 40 44  1  0
 41 40  2  0
 42 37  2  0
 42 41  1  0
 43 42  1  0
 45 46  1  0
 46 49  1  0
 46 48  1  0
 47 45  2  0
 50 51  1  0
 50 25  1  0
 52 50  1  0
 54 56  1  0
 54 53  1  0
 55 66  2  0
 56 61  1  0
 57 65  1  0
 57 67  1  0
 58 64  1  0
 58 60  1  0
 59 65  1  0
 60 59  1  0
 61 60  2  0
 62 56  2  0
 63 62  1  0
 63 58  2  0
 64 57  1  0
 65 55  1  0
 67 69  2  0
 68 67  1  0
 70 68  1  0
 71 80  2  0
 71 76  1  0
 72 68  1  0
 72 76  1  0
 73 72  1  0
 74 75  1  0
 74 73  1  0
 75 71  1  0
 76 77  2  0
 77 78  1  0
 79 78  2  0
 80 79  1  0
 81 55  1  0
 81 82  1  0
 81 91  1  0
 82 85  1  0
 83 87  1  0
 83 82  1  0
 84 83  2  0
 87 86  1  0
 89 87  1  0
 89 90  1  0
 89 88  1  0
 91 94  1  1
 91 92  1  0
 93 91  1  0
M  ISO  4  15 100  23 100  53 101  54 101
M  END
>  <TORSDO>  (37) 
F 18

>  <SCORE>  (37) 
-14.848

>  <name>  (37) 
36

>  <ligand_id>  (37) 
36

>  <original_smiles>  (37) 
[H]c1c([H])c([H])c2c(c1[H])C([H])([H])C([H])([H])C([H])([H])C2([H])N([H])C(=O)C1([H])N(C(=O)C([H])(N([H])C(=O)C([H])(N([H])C([H])([H])[H])C([H])([H])[H])C(C([H])([H])[H])(C([H])([H])[H])C([H])([H])[H])C([H])([H])c2c([H])c(OC([H])([H])C3([H])C([H])([H])N(c4c([H])c(N([H])C(=O)N5C([H])([H])C([H])([H])C([H])([H])C([H])(n6nc(-c7c([H])c([H])c(Oc8c([H])c([H])c(F)c([H])c8F)c([H])c7[H])c(C(=O)N([H])[H])c6N([H])[H])C5([H])[H])c([H])c(C([H])([H])[H])c4[H])C(=O)C([H])([H])C3([H])[H])c([H])c([H])c2C1([H])[H]

>  <smiles>  (37) 
[H]c1c([H])c([H])c2c(c1[H])C([H])([H])C([H])([H])C([H])([H])C2([H])N([H])C(=O)C1([H])N(C(=O)C([H])(N([H])C(=O)C([H])(N([H])C([H])([H])[H])C([H])([H])[H])C(C([H])([H])[H])(C([H])([H])[H])C([H])([H])[H])C([H])([H])c2c([H])c(OC([H])([H])C3([H])C([H])([H])N(c4c([H])c(N([H])C(=O)N5C([H])([H])C([H])([H])C([H])([H])C([H])(n6nc(-c7c([H])c([H])c(Oc8c([H])c([H])c(F)c([H])c8F)c([H])c7[H])c(C(=O)N([H])[H])c6N([H])[H])C5([H])[H])c([H])c(C([H])([H])[H])c4[H])C(=O)C([H])([H])C3([H])[H])c([H])c([H])c2C1([H])[H]

$$$$
37:0:0
     RDKit          3D

 96105  0  0  1  0  0  0  0  0999 V2000
  -29.3840  -21.8790   22.0570 C   0  0  0  0  0  0  0  0  0  0  0  0
  -28.6110  -23.0600   22.6520 C   0  0  0  0  0  2  0  0  0  0  0  0
  -28.9550  -24.3960   21.9660 C   0  0  0  0  0  2  0  0  0  0  0  0
  -29.3700  -23.0590   19.8470 C   0  0  0  0  0  2  0  0  0  0  0  0
  -28.6270  -24.3070   20.4720 C   0  0  0  0  0  3  0  0  0  0  0  0
  -29.6850  -21.8910   20.7330 N   0  0  0  0  0  0  0  0  0  0  0  0
  -29.7260  -20.9690   22.8200 O   0  0  0  0  0  0  0  0  0  0  0  0
  -30.6440  -20.8730   20.2030 C   0  0  0  0  0  2  0  0  0  0  0  0
  -29.2490  -17.0080   18.6560 C   0  0  0  0  0  3  0  0  0  0  0  0
  -30.2830  -18.3340   20.4080 C   0  0  0  0  0  3  0  0  0  0  0  0
  -29.0350  -18.1740   17.8990 C   0  0  0  0  0  0  0  0  0  0  0  0
  -30.1020  -19.5300   19.6500 C   0  0  0  0  0  0  0  0  0  0  0  0
  -29.5300  -19.4260   18.3500 C   0  0  0  0  0  0  0  0  0  0  0  0
  -29.9030  -17.0620   19.9050 C   0  0  0  0  0  0  0  0  0  0  0  0
  -28.2690  -18.0640   16.5890 C   0  0  0  0  0  1  0  0  0  0  0  0
  -29.4840  -20.6110   17.3890 C   0  0  0  0  0  1  0  0  0  0  0  0
  -30.8560  -14.8150   20.2730 C   0  0  0  0  0  0  0  0  0  0  0  0
  -30.6090  -12.6560   19.1240 C   0  0  0  0  0  2  0  0  0  0  0  0
  -29.6500  -12.8810   17.9330 C   0  0  0  0  0  2  0  0  0  0  0  0
  -28.1750  -12.7390   18.3620 C   0  0  0  0  0  2  0  0  0  0  0  0
  -27.8440  -13.5150   19.6670 C   0  0  0  0  0  3  0  0  0  0  0  0
  -28.9160  -13.2700   20.7550 C   0  0  0  0  0  2  0  0  0  0  0  0
  -30.2300  -13.6080   20.1800 N   0  0  0  0  0  0  0  0  0  0  0  0
  -32.0110  -14.9970   19.8770 O   0  0  0  0  0  0  0  0  0  0  0  0
  -30.0760  -15.8490   20.6610 N   0  0  0  0  0  0  0  0  0  0  0  0
  -29.2350  -15.5310   21.1150 H   0  0  0  0  0  0  0  0  0  0  0  0
  -25.4380  -14.1030   20.3580 C   0  0  0  0  0  0  0  0  0  0  0  0
  -24.3740  -13.3250   20.7330 C   0  0  0  0  0  0  0  0  0  0  0  0
  -24.8510  -11.9780   20.7200 C   0  0  0  0  0  0  0  0  0  0  0  0
  -26.4930  -13.2300   20.1450 N   0  0  0  0  0  0  0  0  0  0  0  0
  -26.1440  -11.9480   20.4160 N   0  0  0  0  0  0  0  0  0  0  0  0
  -24.1380  -10.7120   20.9220 C   0  0  0  0  0  0  0  0  0  0  0  0
  -24.5500   -9.7800   21.9000 C   0  0  0  0  0  3  0  0  0  0  0  0
  -23.8390   -8.5750   22.0870 C   0  0  0  0  0  3  0  0  0  0  0  0
  -22.6990   -8.2960   21.2970 C   0  0  0  0  0  0  0  0  0  0  0  0
  -22.3070   -9.2160   20.3090 C   0  0  0  0  0  3  0  0  0  0  0  0
  -23.0200  -10.4120   20.1200 C   0  0  0  0  0  3  0  0  0  0  0  0
  -21.9600   -7.1410   21.3900 O   0  0  0  0  0  0  0  0  0  0  0  0
  -21.8500   -6.4530   22.5710 C   0  0  0  0  0  0  0  0  0  0  0  0
  -21.3220   -7.0490   23.7370 C   0  0  0  0  0  3  0  0  0  0  0  0
  -21.1590   -6.2830   24.9080 C   0  0  0  0  0  3  0  0  0  0  0  0
  -21.5150   -4.9210   24.9150 C   0  0  0  0  0  0  0  0  0  0  0  0
  -22.0350   -4.3240   23.7530 C   0  0  0  0  0  3  0  0  0  0  0  0
  -22.1960   -5.0870   22.5830 C   0  0  0  0  0  0  0  0  0  0  0  0
  -22.6770   -4.4990   21.4610 F   0  0  0  0  0  0  0  0  0  0  0  0
  -21.3520   -4.1830   26.0380 F   0  0  0  0  0  0  0  0  0  0  0  0
  -22.9720  -13.7910   20.9980 C   0  0  0  0  0  0  0  0  0  0  0  0
  -22.2490  -13.1030   21.8750 N   0  0  0  0  0  0  0  0  0  0  0  0
  -22.5220  -14.8040   20.4640 O   0  0  0  0  0  0  0  0  0  0  0  0
  -22.6220  -12.2810   22.3280 H   0  0  0  0  0  0  0  0  0  0  0  0
  -21.3130  -13.4090   22.1010 H   0  0  0  0  0  0  0  0  0  0  0  0
  -25.5940  -15.4740   20.1670 N   0  0  0  0  0  0  0  0  0  0  0  0
  -24.8280  -16.1290   20.2750 H   0  0  0  0  0  0  0  0  0  0  0  0
  -26.4450  -15.9150   19.8430 H   0  0  0  0  0  0  0  0  0  0  0  0
  -28.8530  -25.6490   19.6700 C   0  0  0  0  0  2  0  0  0  0  0  0
  -28.6280  -26.9250   20.3350 O   0  0  0  0  0  0  0  0  0  0  0  0
  -24.6190  -32.0000   23.3640 C   0  0  0  0  0  0  0  0  0  0  0  0
  -27.4230  -27.6170   20.2750 C   0  0  0  0  0  0  0  0  0  0  0  0
  -23.4750  -30.5810   21.6940 C   0  0  0  0  0  3  0  0  0  0  0  0
  -24.9860  -29.0880   20.2730 C   0  0  0  0  0  0  0  0  0  0  0  0
  -25.9960  -30.9960   21.5350 C   0  0  0  0  0  2  0  0  0  0  0  0
  -26.1240  -29.6320   20.8790 C   0  0  0  0  0  0  0  0  0  0  0  0
  -27.3420  -28.9050   20.8740 C   0  0  0  0  0  3  0  0  0  0  0  0
  -26.2580  -27.0940   19.6690 C   0  0  0  0  0  3  0  0  0  0  0  0
  -25.0490  -27.8220   19.6620 C   0  0  0  0  0  3  0  0  0  0  0  0
  -23.7180  -29.9130   20.3130 C   0  0  0  0  0  2  0  0  0  0  0  0
  -24.7140  -31.2110   22.2530 N   0  0  0  0  0  0  0  0  0  0  0  0
  -23.5250  -32.2310   23.8960 O   0  0  0  0  0  0  0  0  0  0  0  0
  -22.8390  -29.5350   22.6410 C   0  0  0  0  0  0  0  0  0  0  0  0
  -21.5280  -29.2950   22.4840 N   0  0  0  0  0  0  0  0  0  0  0  0
  -23.5270  -28.9420   23.4760 O   0  0  0  0  0  0  0  0  0  0  0  0
  -21.0280  -29.8360   21.7920 H   0  0  0  0  0  0  0  0  0  0  0  0
  -18.2030  -27.9310   22.8880 C   0  0  0  0  0  0  0  0  0  0  0  0
  -20.7360  -28.3160   23.2320 C   0  0  0  0  0  3  0  0  0  0  0  0
  -20.9250  -26.8900   22.6640 C   0  0  0  0  0  2  0  0  0  0  0  0
  -19.8690  -26.5120   21.6200 C   0  0  0  0  0  2  0  0  0  0  0  0
  -18.4640  -26.5900   22.2230 C   0  0  0  0  0  2  0  0  0  0  0  0
  -19.2700  -28.7480   23.3490 C   0  0  0  0  0  0  0  0  0  0  0  0
  -18.9700  -30.0000   23.9270 C   0  0  0  0  0  3  0  0  0  0  0  0
  -17.6380  -30.4370   24.0530 C   0  0  0  0  0  3  0  0  0  0  0  0
  -16.5870  -29.6170   23.6090 C   0  0  0  0  0  3  0  0  0  0  0  0
  -16.8700  -28.3670   23.0350 C   0  0  0  0  0  3  0  0  0  0  0  0
  -25.8760  -32.6670   24.0040 C   0  0  0  0  0  3  0  0  0  0  0  0
  -26.3640  -31.9460   25.3200 C   0  0  1  0  0  0  0  0  0  0  0  0
  -25.2400  -31.7120   26.3570 C   0  0  0  0  0  1  0  0  0  0  0  0
  -27.0000  -30.5760   24.9900 C   0  0  0  0  0  1  0  0  0  0  0  0
  -27.4640  -32.7920   26.0060 C   0  0  0  0  0  1  0  0  0  0  0  0
  -25.5380  -34.0690   24.2880 N   0  0  0  0  0  0  0  0  0  0  0  0
  -25.8710  -35.1070   23.5100 C   0  0  0  0  0  0  0  0  0  0  0  0
  -26.5640  -34.9860   22.4960 O   0  0  0  0  0  0  0  0  0  0  0  0
  -24.9320  -34.2340   25.0780 H   0  0  0  0  0  0  0  0  0  0  0  0
  -24.1160  -36.8580   23.0800 C   0  0  0  0  0  1  0  0  0  0  0  0
  -25.3520  -36.4980   23.9200 C   0  0  0  0  0  3  0  0  0  0  0  0
  -27.4540  -37.4490   24.7580 C   0  0  0  0  0  1  0  0  0  0  0  0
  -26.3650  -37.5680   23.7920 N   0  0  0  0  0  0  0  0  0  0  0  0
  -25.9390  -38.4850   23.9020 H   0  0  0  0  0  0  0  0  0  0  0  0
  1  2  1  0
  1  7  2  0
  3  2  1  0
  4  5  1  0
  4  6  1  0
  5 55  1  0
  5  3  1  0
  6  1  1  0
  8  6  1  0
  9 14  1  0
 11 13  1  0
 11  9  2  0
 12  8  1  0
 12 10  1  0
 13 12  2  0
 14 10  2  0
 14 25  1  0
 15 11  1  0
 16 13  1  0
 17 25  1  0
 18 23  1  0
 19 20  1  0
 19 18  1  0
 21 20  1  0
 21 30  1  0
 21 22  1  0
 23 17  1  0
 23 22  1  0
 24 17  2  0
 25 26  1  0
 27 28  2  0
 28 47  1  0
 29 28  1  0
 29 32  1  0
 30 27  1  0
 30 31  1  0
 31 29  2  0
 32 33  1  0
 33 34  2  0
 35 38  1  0
 35 34  1  0
 36 35  2  0
 37 36  1  0
 37 32  2  0
 38 39  1  0
 39 44  2  0
 39 40  1  0
 40 41  2  0
 41 42  1  0
 42 46  1  0
 43 42  2  0
 44 43  1  0
 45 44  1  0
 47 48  1  0
 48 51  1  0
 48 50  1  0
 49 47  2  0
 52 53  1  0
 52 27  1  0
 54 52  1  0
 55 56  1  0
 57 68  2  0
 58 56  1  0
 58 63  1  0
 59 67  1  0
 59 69  1  0
 60 66  1  0
 60 62  1  0
 61 67  1  0
 62 61  1  0
 63 62  2  0
 64 58  2  0
 65 64  1  0
 65 60  2  0
 66 59  1  0
 67 57  1  0
 69 71  2  0
 70 69  1  0
 72 70  1  0
 73 82  2  0
 73 78  1  0
 74 70  1  0
 74 78  1  0
 75 74  1  0
 76 77  1  0
 76 75  1  0
 77 73  1  0
 78 79  2  0
 79 80  1  0
 81 80  2  0
 82 81  1  0
 83 57  1  0
 83 88  1  0
 83 84  1  0
 84 87  1  1
 84 85  1  0
 86 84  1  0
 88 91  1  0
 89 93  1  0
 89 88  1  0
 90 89  2  0
 93 92  1  0
 95 96  1  0
 95 93  1  0
 95 94  1  0
M  ISO  4  17 100  25 100  55 101  56 101
M  END
>  <TORSDO>  (38) 
F 19

>  <SCORE>  (38) 
-13.324

>  <name>  (38) 
37

>  <ligand_id>  (38) 
37

>  <original_smiles>  (38) 
[H]c1c([H])c([H])c2c(c1[H])C([H])([H])C([H])([H])C([H])([H])C2([H])N([H])C(=O)C1([H])N(C(=O)C([H])(N([H])C(=O)C([H])(N([H])C([H])([H])[H])C([H])([H])[H])C(C([H])([H])[H])(C([H])([H])[H])C([H])([H])[H])C([H])([H])c2c([H])c(OC([H])([H])C3([H])C([H])([H])N(C([H])([H])c4c([H])c(N([H])C(=O)N5C([H])([H])C([H])([H])C([H])([H])C([H])(n6nc(-c7c([H])c([H])c(Oc8c([H])c([H])c(F)c([H])c8F)c([H])c7[H])c(C(=O)N([H])[H])c6N([H])[H])C5([H])[H])c([H])c(C([H])([H])[H])c4C([H])([H])[H])C(=O)C([H])([H])C3([H])[H])c([H])c([H])c2C1([H])[H]

>  <smiles>  (38) 
[H]c1c([H])c([H])c2c(c1[H])C([H])([H])C([H])([H])C([H])([H])C2([H])N([H])C(=O)C1([H])N(C(=O)C([H])(N([H])C(=O)C([H])(N([H])C([H])([H])[H])C([H])([H])[H])C(C([H])([H])[H])(C([H])([H])[H])C([H])([H])[H])C([H])([H])c2c([H])c(OC([H])([H])C3([H])C([H])([H])N(C([H])([H])c4c([H])c(N([H])C(=O)N5C([H])([H])C([H])([H])C([H])([H])C([H])(n6nc(-c7c([H])c([H])c(Oc8c([H])c([H])c(F)c([H])c8F)c([H])c7[H])c(C(=O)N([H])[H])c6N([H])[H])C5([H])[H])c([H])c(C([H])([H])[H])c4C([H])([H])[H])C(=O)C([H])([H])C3([H])[H])c([H])c([H])c2C1([H])[H]

$$$$
38:0:0
     RDKit          3D

 92100  0  0  1  0  0  0  0  0999 V2000
  -29.8100  -21.8560   20.8020 C   0  0  0  0  0  0  0  0  0  0  0  0
  -29.5540  -20.5370   20.6090 N   0  0  0  0  0  0  0  0  0  0  0  0
  -30.7950  -22.2920   21.4000 O   0  0  0  0  0  0  0  0  0  0  0  0
  -28.6930  -20.3530   20.1140 H   0  0  0  0  0  0  0  0  0  0  0  0
  -32.2920  -18.2550   21.9100 C   0  0  0  0  0  3  0  0  0  0  0  0
  -31.5900  -19.4280   21.5810 C   0  0  0  0  0  3  0  0  0  0  0  0
  -31.7390  -16.9920   21.6340 C   0  0  0  0  0  3  0  0  0  0  0  0
  -29.7550  -18.0760   20.7190 C   0  0  0  0  0  3  0  0  0  0  0  0
  -30.3080  -19.3650   20.9790 C   0  0  0  0  0  0  0  0  0  0  0  0
  -30.4710  -16.8850   21.0220 C   0  0  0  0  0  0  0  0  0  0  0  0
  -30.5610  -14.5520   20.1720 C   0  0  0  0  0  0  0  0  0  0  0  0
  -30.1900  -12.4110   19.0000 C   0  0  0  0  0  2  0  0  0  0  0  0
  -29.2030  -12.6220   17.8340 C   0  0  0  0  0  2  0  0  0  0  0  0
  -27.7490  -12.4770   18.3220 C   0  0  0  0  0  2  0  0  0  0  0  0
  -27.4600  -13.3020   19.6050 C   0  0  0  0  0  3  0  0  0  0  0  0
  -28.5610  -13.0890   20.6690 C   0  0  0  0  0  2  0  0  0  0  0  0
  -29.8570  -13.3940   20.0430 N   0  0  0  0  0  0  0  0  0  0  0  0
  -31.6710  -14.7050   19.6530 O   0  0  0  0  0  0  0  0  0  0  0  0
  -29.9160  -15.5900   20.7490 N   0  0  0  0  0  0  0  0  0  0  0  0
  -28.9410  -15.4480   20.9630 H   0  0  0  0  0  0  0  0  0  0  0  0
  -25.0950  -13.8910   20.4270 C   0  0  0  0  0  0  0  0  0  0  0  0
  -24.0430  -13.1110   20.8250 C   0  0  0  0  0  0  0  0  0  0  0  0
  -24.5030  -11.7600   20.7470 C   0  0  0  0  0  0  0  0  0  0  0  0
  -26.1300  -13.0150   20.1360 N   0  0  0  0  0  0  0  0  0  0  0  0
  -25.7780  -11.7280   20.3850 N   0  0  0  0  0  0  0  0  0  0  0  0
  -23.7830  -10.4940   20.9410 C   0  0  0  0  0  0  0  0  0  0  0  0
  -24.2020   -9.5470   21.9020 C   0  0  0  0  0  3  0  0  0  0  0  0
  -23.4830   -8.3440   22.0820 C   0  0  0  0  0  3  0  0  0  0  0  0
  -22.3320   -8.0820   21.3020 C   0  0  0  0  0  0  0  0  0  0  0  0
  -21.9330   -9.0190   20.3310 C   0  0  0  0  0  3  0  0  0  0  0  0
  -22.6530  -10.2120   20.1490 C   0  0  0  0  0  3  0  0  0  0  0  0
  -21.5870   -6.9320   21.3890 O   0  0  0  0  0  0  0  0  0  0  0  0
  -21.4690   -6.2390   22.5680 C   0  0  0  0  0  0  0  0  0  0  0  0
  -20.9180   -6.8270   23.7260 C   0  0  0  0  0  3  0  0  0  0  0  0
  -20.7520   -6.0570   24.8960 C   0  0  0  0  0  3  0  0  0  0  0  0
  -21.1270   -4.7010   24.9060 C   0  0  0  0  0  0  0  0  0  0  0  0
  -21.6720   -4.1120   23.7510 C   0  0  0  0  0  3  0  0  0  0  0  0
  -21.8390   -4.8790   22.5840 C   0  0  0  0  0  0  0  0  0  0  0  0
  -22.3450   -4.3000   21.4680 F   0  0  0  0  0  0  0  0  0  0  0  0
  -20.9610   -3.9590   26.0260 F   0  0  0  0  0  0  0  0  0  0  0  0
  -22.6590  -13.5830   21.1640 C   0  0  0  0  0  0  0  0  0  0  0  0
  -21.9630  -12.8610   22.0360 N   0  0  0  0  0  0  0  0  0  0  0  0
  -22.2040  -14.6240   20.6930 O   0  0  0  0  0  0  0  0  0  0  0  0
  -22.3440  -12.0160   22.4360 H   0  0  0  0  0  0  0  0  0  0  0  0
  -21.0360  -13.1560   22.3070 H   0  0  0  0  0  0  0  0  0  0  0  0
  -25.2530  -15.2650   20.2690 N   0  0  0  0  0  0  0  0  0  0  0  0
  -24.4910  -15.9180   20.4170 H   0  0  0  0  0  0  0  0  0  0  0  0
  -26.0850  -15.7080   19.8970 H   0  0  0  0  0  0  0  0  0  0  0  0
  -28.7830  -22.8580   20.2350 C   0  0  0  0  0  2  0  0  0  0  0  0
  -29.1160  -24.3710   20.4390 C   0  0  0  0  0  2  0  0  0  0  0  0
  -28.0100  -25.2920   19.8740 C   0  0  0  0  0  2  0  0  0  0  0  0
  -28.1880  -26.7090   20.1100 O   0  0  0  0  0  0  0  0  0  0  0  0
  -24.4900  -31.9610   23.2280 C   0  0  0  0  0  0  0  0  0  0  0  0
  -27.0360  -27.4840   20.0860 C   0  0  0  0  0  0  0  0  0  0  0  0
  -23.2410  -30.5640   21.6180 C   0  0  0  0  0  3  0  0  0  0  0  0
  -24.6540  -29.0270   20.1530 C   0  0  0  0  0  0  0  0  0  0  0  0
  -25.7670  -30.9060   21.3620 C   0  0  0  0  0  2  0  0  0  0  0  0
  -25.8310  -29.5350   20.7160 C   0  0  0  0  0  0  0  0  0  0  0  0
  -27.0250  -28.7720   20.6790 C   0  0  0  0  0  3  0  0  0  0  0  0
  -25.8350  -27.0120   19.4980 C   0  0  0  0  0  3  0  0  0  0  0  0
  -24.6520  -27.7670   19.5410 C   0  0  0  0  0  3  0  0  0  0  0  0
  -23.4150  -29.8900   20.2330 C   0  0  0  0  0  2  0  0  0  0  0  0
  -24.5200  -31.1590   22.1270 N   0  0  0  0  0  0  0  0  0  0  0  0
  -23.4230  -32.2370   23.7920 O   0  0  0  0  0  0  0  0  0  0  0  0
  -22.6100  -29.5410   22.5920 C   0  0  0  0  0  0  0  0  0  0  0  0
  -21.2900  -29.3320   22.4700 N   0  0  0  0  0  0  0  0  0  0  0  0
  -23.3070  -28.9410   23.4150 O   0  0  0  0  0  0  0  0  0  0  0  0
  -20.7880  -29.8690   21.7760 H   0  0  0  0  0  0  0  0  0  0  0  0
  -17.9400  -28.0730   22.9820 C   0  0  0  0  0  0  0  0  0  0  0  0
  -20.4910  -28.3920   23.2550 C   0  0  0  0  0  3  0  0  0  0  0  0
  -20.6270  -26.9530   22.7040 C   0  0  0  0  0  2  0  0  0  0  0  0
  -19.5340  -26.5880   21.6940 C   0  0  0  0  0  2  0  0  0  0  0  0
  -18.1480  -26.7160   22.3320 C   0  0  0  0  0  2  0  0  0  0  0  0
  -19.0420  -28.8660   23.4000 C   0  0  0  0  0  0  0  0  0  0  0  0
  -18.7940  -30.1360   23.9650 C   0  0  0  0  0  3  0  0  0  0  0  0
  -17.4780  -30.6130   24.1180 C   0  0  0  0  0  3  0  0  0  0  0  0
  -16.3920  -29.8170   23.7160 C   0  0  0  0  0  3  0  0  0  0  0  0
  -16.6230  -28.5490   23.1530 C   0  0  0  0  0  3  0  0  0  0  0  0
  -25.7920  -32.5890   23.8150 C   0  0  0  0  0  3  0  0  0  0  0  0
  -26.3360  -31.8220   25.0830 C   0  0  1  0  0  0  0  0  0  0  0  0
  -25.2600  -31.5670   26.1630 C   0  0  0  0  0  1  0  0  0  0  0  0
  -26.9320  -30.4540   24.6790 C   0  0  0  0  0  1  0  0  0  0  0  0
  -27.4840  -32.6300   25.7310 C   0  0  0  0  0  1  0  0  0  0  0  0
  -25.4980  -33.9910   24.1420 N   0  0  0  0  0  0  0  0  0  0  0  0
  -25.7940  -35.0340   23.3540 C   0  0  0  0  0  0  0  0  0  0  0  0
  -26.4170  -34.9170   22.2950 O   0  0  0  0  0  0  0  0  0  0  0  0
  -24.9410  -34.1550   24.9680 H   0  0  0  0  0  0  0  0  0  0  0  0
  -24.0370  -36.8100   23.0710 C   0  0  0  0  0  1  0  0  0  0  0  0
  -25.3260  -36.4270   23.8160 C   0  0  0  0  0  3  0  0  0  0  0  0
  -27.4950  -37.3420   24.5130 C   0  0  0  0  0  1  0  0  0  0  0  0
  -26.3440  -37.4830   23.6250 N   0  0  0  0  0  0  0  0  0  0  0  0
  -25.9400  -38.4040   23.7730 H   0  0  0  0  0  0  0  0  0  0  0  0
  1  3  2  0
  2  1  1  0
  2  9  1  0
  4  2  1  0
  6  5  2  0
  7  5  1  0
  8  9  2  0
  8 10  1  0
  9  6  1  0
 10  7  2  0
 11 19  1  0
 12 17  1  0
 13 14  1  0
 13 12  1  0
 15 14  1  0
 15 24  1  0
 15 16  1  0
 17 11  1  0
 17 16  1  0
 18 11  2  0
 19 20  1  0
 19 10  1  0
 21 22  2  0
 22 41  1  0
 23 22  1  0
 23 26  1  0
 24 25  1  0
 24 21  1  0
 25 23  2  0
 26 27  1  0
 27 28  2  0
 29 32  1  0
 29 28  1  0
 30 29  2  0
 31 30  1  0
 31 26  2  0
 32 33  1  0
 33 38  2  0
 33 34  1  0
 34 35  2  0
 35 36  1  0
 36 40  1  0
 37 36  2  0
 38 37  1  0
 39 38  1  0
 41 42  1  0
 42 45  1  0
 42 44  1  0
 43 41  2  0
 46 47  1  0
 46 21  1  0
 48 46  1  0
 49 50  1  0
 49  1  1  0
 51 52  1  0
 51 50  1  0
 53 64  2  0
 54 52  1  0
 54 59  1  0
 55 63  1  0
 55 65  1  0
 56 62  1  0
 56 58  1  0
 57 63  1  0
 58 57  1  0
 59 58  2  0
 60 61  1  0
 60 54  2  0
 61 56  2  0
 62 55  1  0
 63 53  1  0
 65 67  2  0
 66 65  1  0
 68 66  1  0
 69 78  2  0
 69 74  1  0
 70 66  1  0
 70 74  1  0
 71 70  1  0
 72 73  1  0
 72 71  1  0
 73 69  1  0
 74 75  2  0
 75 76  1  0
 77 76  2  0
 78 77  1  0
 79 53  1  0
 79 84  1  0
 79 80  1  0
 80 83  1  1
 80 81  1  0
 82 80  1  0
 84 87  1  0
 85 89  1  0
 85 84  1  0
 86 85  2  0
 89 88  1  0
 91 92  1  0
 91 89  1  0
 91 90  1  0
M  ISO  4  11 100  19 100  51 101  52 101
M  END
>  <TORSDO>  (39) 
F 20

>  <SCORE>  (39) 
-12.886

>  <name>  (39) 
38

>  <ligand_id>  (39) 
38

>  <original_smiles>  (39) 
[H]c1c([H])c(N([H])C(=O)N2C([H])([H])C([H])([H])C([H])([H])C([H])(n3nc(-c4c([H])c([H])c(Oc5c([H])c([H])c(F)c([H])c5F)c([H])c4[H])c(C(=O)N([H])[H])c3N([H])[H])C2([H])[H])c([H])c(N([H])C(=O)C([H])([H])C([H])([H])C([H])([H])Oc2c([H])c([H])c3c(c2[H])C([H])([H])N(C(=O)C([H])(N([H])C(=O)C([H])(N([H])C([H])([H])[H])C([H])([H])[H])C(C([H])([H])[H])(C([H])([H])[H])C([H])([H])[H])C([H])(C(=O)N([H])C2([H])c4c([H])c([H])c([H])c([H])c4C([H])([H])C([H])([H])C2([H])[H])C3([H])[H])c1[H]

>  <smiles>  (39) 
[H]c1c([H])c(N([H])C(=O)N2C([H])([H])C([H])([H])C([H])([H])C([H])(n3nc(-c4c([H])c([H])c(Oc5c([H])c([H])c(F)c([H])c5F)c([H])c4[H])c(C(=O)N([H])[H])c3N([H])[H])C2([H])[H])c([H])c(N([H])C(=O)C([H])([H])C([H])([H])C([H])([H])Oc2c([H])c([H])c3c(c2[H])C([H])([H])N(C(=O)C([H])(N([H])C(=O)C([H])(N([H])C([H])([H])[H])C([H])([H])[H])C(C([H])([H])[H])(C([H])([H])[H])C([H])([H])[H])C([H])(C(=O)N([H])C2([H])c4c([H])c([H])c([H])c([H])c4C([H])([H])C([H])([H])C2([H])[H])C3([H])[H])c1[H]

$$$$
39:0:0
     RDKit          3D

 92100  0  0  1  0  0  0  0  0999 V2000
  -28.7530  -22.2290   19.8590 C   0  0  0  0  0  0  0  0  0  0  0  0
  -29.3620  -21.1110   20.4180 N   0  0  0  0  0  0  0  0  0  0  0  0
  -27.9370  -22.0890   18.9460 O   0  0  0  0  0  0  0  0  0  0  0  0
  -29.8020  -21.2700   21.3140 H   0  0  0  0  0  0  0  0  0  0  0  0
  -30.2500  -17.2170   18.6310 C   0  0  0  0  0  3  0  0  0  0  0  0
  -30.2700  -18.4130   17.8890 C   0  0  0  0  0  3  0  0  0  0  0  0
  -29.5780  -18.5010   20.5900 C   0  0  0  0  0  3  0  0  0  0  0  0
  -29.9220  -17.2050   20.0050 C   0  0  0  0  0  0  0  0  0  0  0  0
  -29.5890  -19.7560   19.8400 C   0  0  0  0  0  0  0  0  0  0  0  0
  -29.9690  -19.6550   18.4760 C   0  0  0  0  0  0  0  0  0  0  0  0
  -30.1180  -20.7620   17.7090 F   0  0  0  0  0  0  0  0  0  0  0  0
  -30.6180  -14.7470   20.4040 C   0  0  0  0  0  0  0  0  0  0  0  0
  -30.4140  -12.4680   19.4180 C   0  0  0  0  0  2  0  0  0  0  0  0
  -29.5150  -12.5900   18.1660 C   0  0  0  0  0  2  0  0  0  0  0  0
  -28.0290  -12.4350   18.5530 C   0  0  0  0  0  2  0  0  0  0  0  0
  -27.6390  -13.3080   19.7760 C   0  0  0  0  0  3  0  0  0  0  0  0
  -28.6700  -13.1930   20.9210 C   0  0  0  0  0  2  0  0  0  0  0  0
  -29.9900  -13.5220   20.3700 N   0  0  0  0  0  0  0  0  0  0  0  0
  -31.7960  -14.8400   20.0470 O   0  0  0  0  0  0  0  0  0  0  0  0
  -29.8720  -15.8830   20.6800 N   0  0  0  0  0  0  0  0  0  0  0  0
  -29.0380  -15.7120   21.2250 H   0  0  0  0  0  0  0  0  0  0  0  0
  -25.2310  -13.9070   20.4340 C   0  0  0  0  0  0  0  0  0  0  0  0
  -24.1570  -13.1360   20.7930 C   0  0  0  0  0  0  0  0  0  0  0  0
  -24.6240  -11.7870   20.7990 C   0  0  0  0  0  0  0  0  0  0  0  0
  -26.2810  -13.0250   20.2360 N   0  0  0  0  0  0  0  0  0  0  0  0
  -25.9210  -11.7460   20.5180 N   0  0  0  0  0  0  0  0  0  0  0  0
  -23.8930  -10.5270   20.9980 C   0  0  0  0  0  0  0  0  0  0  0  0
  -24.3120   -9.5720   21.9490 C   0  0  0  0  0  3  0  0  0  0  0  0
  -23.5820   -8.3780   22.1360 C   0  0  0  0  0  3  0  0  0  0  0  0
  -22.4170   -8.1320   21.3700 C   0  0  0  0  0  0  0  0  0  0  0  0
  -22.0170   -9.0760   20.4090 C   0  0  0  0  0  3  0  0  0  0  0  0
  -22.7490  -10.2610   20.2210 C   0  0  0  0  0  3  0  0  0  0  0  0
  -21.6580   -6.9890   21.4640 O   0  0  0  0  0  0  0  0  0  0  0  0
  -21.6030   -6.2550   22.6240 C   0  0  0  0  0  0  0  0  0  0  0  0
  -21.1780   -6.8220   23.8430 C   0  0  0  0  0  3  0  0  0  0  0  0
  -21.0680   -6.0150   24.9950 C   0  0  0  0  0  3  0  0  0  0  0  0
  -21.3750   -4.6430   24.9240 C   0  0  0  0  0  0  0  0  0  0  0  0
  -21.7940   -4.0750   23.7080 C   0  0  0  0  0  3  0  0  0  0  0  0
  -21.9060   -4.8800   22.5600 C   0  0  0  0  0  0  0  0  0  0  0  0
  -22.2890   -4.3230   21.3870 F   0  0  0  0  0  0  0  0  0  0  0  0
  -21.2630   -3.8670   26.0280 F   0  0  0  0  0  0  0  0  0  0  0  0
  -22.7540  -13.6180   21.0210 C   0  0  0  0  0  0  0  0  0  0  0  0
  -22.0060  -12.9380   21.8840 N   0  0  0  0  0  0  0  0  0  0  0  0
  -22.3270  -14.6310   20.4700 O   0  0  0  0  0  0  0  0  0  0  0  0
  -22.3630  -12.1180   22.3500 H   0  0  0  0  0  0  0  0  0  0  0  0
  -21.0620  -13.2420   22.0800 H   0  0  0  0  0  0  0  0  0  0  0  0
  -25.4010  -15.2740   20.2400 N   0  0  0  0  0  0  0  0  0  0  0  0
  -24.6340  -15.9320   20.3390 H   0  0  0  0  0  0  0  0  0  0  0  0
  -26.2610  -15.7110   19.9360 H   0  0  0  0  0  0  0  0  0  0  0  0
  -29.0180  -23.7260   20.3770 C   0  0  0  0  0  3  0  0  0  0  0  0
  -27.9830  -24.9080   19.9880 C   0  0  0  0  0  3  0  0  0  0  0  0
  -28.2580  -26.3760   20.2030 O   0  0  0  0  0  0  0  0  0  0  0  0
  -24.6160  -31.9070   23.2100 C   0  0  0  0  0  0  0  0  0  0  0  0
  -27.1700  -27.2820   20.1470 C   0  0  0  0  0  0  0  0  0  0  0  0
  -23.3960  -30.4990   21.5950 C   0  0  0  0  0  3  0  0  0  0  0  0
  -24.8250  -28.9410   20.1600 C   0  0  0  0  0  0  0  0  0  0  0  0
  -25.9410  -30.8040   21.3820 C   0  0  0  0  0  2  0  0  0  0  0  0
  -26.0090  -29.4180   20.7360 C   0  0  0  0  0  0  0  0  0  0  0  0
  -27.1880  -28.6030   20.7150 C   0  0  0  0  0  3  0  0  0  0  0  0
  -25.9560  -26.8770   19.5440 C   0  0  0  0  0  3  0  0  0  0  0  0
  -24.8040  -27.6790   19.5550 C   0  0  0  0  0  3  0  0  0  0  0  0
  -23.5940  -29.8230   20.2160 C   0  0  0  0  0  2  0  0  0  0  0  0
  -24.6710  -31.0890   22.1160 N   0  0  0  0  0  0  0  0  0  0  0  0
  -23.5380  -32.1860   23.7530 O   0  0  0  0  0  0  0  0  0  0  0  0
  -22.7420  -29.4880   22.5690 C   0  0  0  0  0  0  0  0  0  0  0  0
  -21.4170  -29.2990   22.4480 N   0  0  0  0  0  0  0  0  0  0  0  0
  -23.4280  -28.8770   23.3920 O   0  0  0  0  0  0  0  0  0  0  0  0
  -20.9260  -29.8440   21.7520 H   0  0  0  0  0  0  0  0  0  0  0  0
  -18.0480  -28.0710   22.9550 C   0  0  0  0  0  0  0  0  0  0  0  0
  -20.6020  -28.3640   23.2300 C   0  0  0  0  0  3  0  0  0  0  0  0
  -20.7230  -26.9250   22.6780 C   0  0  0  0  0  2  0  0  0  0  0  0
  -19.6270  -26.5720   21.6680 C   0  0  0  0  0  2  0  0  0  0  0  0
  -18.2410  -26.7120   22.3030 C   0  0  0  0  0  2  0  0  0  0  0  0
  -19.1550  -28.8540   23.3760 C   0  0  0  0  0  0  0  0  0  0  0  0
  -18.9170  -30.1220   23.9470 C   0  0  0  0  0  3  0  0  0  0  0  0
  -17.6060  -30.6100   24.0980 C   0  0  0  0  0  3  0  0  0  0  0  0
  -16.5120  -29.8250   23.6920 C   0  0  0  0  0  3  0  0  0  0  0  0
  -16.7350  -28.5560   23.1280 C   0  0  0  0  0  3  0  0  0  0  0  0
  -25.9010  -32.5470   23.8180 C   0  0  0  0  0  3  0  0  0  0  0  0
  -26.4360  -31.7760   25.0870 C   0  0  1  0  0  0  0  0  0  0  0  0
  -25.3530  -31.5330   26.1670 C   0  0  0  0  0  1  0  0  0  0  0  0
  -27.0150  -30.4020   24.6830 C   0  0  0  0  0  1  0  0  0  0  0  0
  -27.5930  -32.5750   25.7310 C   0  0  0  0  0  1  0  0  0  0  0  0
  -25.5870  -33.9430   24.1560 N   0  0  0  0  0  0  0  0  0  0  0  0
  -25.9100  -35.0010   23.4010 C   0  0  0  0  0  0  0  0  0  0  0  0
  -26.5730  -34.9050   22.3640 O   0  0  0  0  0  0  0  0  0  0  0  0
  -25.0030  -34.0910   24.9660 H   0  0  0  0  0  0  0  0  0  0  0  0
  -24.1780  -36.7910   23.0640 C   0  0  0  0  0  1  0  0  0  0  0  0
  -25.4230  -36.3860   23.8700 C   0  0  0  0  0  3  0  0  0  0  0  0
  -27.5600  -37.2640   24.6990 C   0  0  0  0  0  1  0  0  0  0  0  0
  -26.4550  -37.4400   23.7600 N   0  0  0  0  0  0  0  0  0  0  0  0
  -26.0500  -38.3590   23.9160 H   0  0  0  0  0  0  0  0  0  0  0  0
  1 50  1  0
  1  2  1  0
  2  4  1  0
  3  1  2  0
  5  8  1  0
  6 10  1  0
  6  5  2  0
  8  7  2  0
  8 20  1  0
  9  2  1  0
  9  7  1  0
 10  9  2  0
 11 10  1  0
 12 20  1  0
 13 18  1  0
 14 15  1  0
 14 13  1  0
 16 15  1  0
 16 25  1  0
 16 17  1  0
 18 12  1  0
 18 17  1  0
 19 12  2  0
 20 21  1  0
 22 23  2  0
 23 24  1  0
 23 42  1  0
 24 27  1  0
 25 22  1  0
 25 26  1  0
 26 24  2  0
 27 28  1  0
 28 29  2  0
 30 33  1  0
 30 29  1  0
 31 30  2  0
 32 31  1  0
 32 27  2  0
 33 34  1  0
 34 35  1  0
 35 36  2  0
 37 36  1  0
 37 41  1  0
 38 37  2  0
 39 34  2  0
 39 38  1  0
 40 39  1  0
 42 43  1  0
 43 46  1  0
 43 45  1  0
 44 42  2  0
 47 48  1  0
 47 22  1  0
 49 47  1  0
 51 52  1  0
 51 50  2  0
 53 64  2  0
 54 52  1  0
 54 59  1  0
 55 63  1  0
 55 65  1  0
 56 62  1  0
 56 58  1  0
 57 63  1  0
 58 57  1  0
 59 58  2  0
 60 61  1  0
 60 54  2  0
 61 56  2  0
 62 55  1  0
 63 53  1  0
 65 67  2  0
 66 65  1  0
 68 66  1  0
 69 78  2  0
 69 74  1  0
 70 66  1  0
 70 74  1  0
 71 70  1  0
 72 73  1  0
 72 71  1  0
 73 69  1  0
 74 75  2  0
 75 76  1  0
 77 76  2  0
 78 77  1  0
 79 53  1  0
 79 84  1  0
 79 80  1  0
 80 83  1  1
 80 81  1  0
 82 80  1  0
 84 87  1  0
 85 89  1  0
 85 84  1  0
 86 85  2  0
 89 88  1  0
 91 89  1  0
 91 92  1  0
 91 90  1  0
M  ISO  4  12 100  20 100  51 101  52 101
M  END
>  <TORSDO>  (40) 
F 19

>  <SCORE>  (40) 
-14.169

>  <name>  (40) 
39

>  <ligand_id>  (40) 
39

>  <original_smiles>  (40) 
[H]c1c([H])c([H])c2c(c1[H])C([H])([H])C([H])([H])C([H])([H])C2([H])N([H])C(=O)C1([H])N(C(=O)C([H])(N([H])C(=O)C([H])(N([H])C([H])([H])[H])C([H])([H])[H])C(C([H])([H])[H])(C([H])([H])[H])C([H])([H])[H])C([H])([H])c2c([H])c(OC([H])([H])C([H])([H])C(=O)N([H])c3c([H])c(N([H])C(=O)N4C([H])([H])C([H])([H])C([H])([H])C([H])(n5nc(-c6c([H])c([H])c(Oc7c([H])c([H])c(F)c([H])c7F)c([H])c6[H])c(C(=O)N([H])[H])c5N([H])[H])C4([H])[H])c([H])c([H])c3F)c([H])c([H])c2C1([H])[H]

>  <smiles>  (40) 
[H]c1c([H])c([H])c2c(c1[H])C([H])([H])C([H])([H])C([H])([H])C2([H])N([H])C(=O)C1([H])N(C(=O)C([H])(N([H])C(=O)C([H])(N([H])C([H])([H])[H])C([H])([H])[H])C(C([H])([H])[H])(C([H])([H])[H])C([H])([H])[H])C([H])([H])c2c([H])c(OC([H])([H])C([H])([H])C(=O)N([H])c3c([H])c(N([H])C(=O)N4C([H])([H])C([H])([H])C([H])([H])C([H])(n5nc(-c6c([H])c([H])c(Oc7c([H])c([H])c(F)c([H])c7F)c([H])c6[H])c(C(=O)N([H])[H])c5N([H])[H])C4([H])[H])c([H])c([H])c3F)c([H])c([H])c2C1([H])[H]

$$$$
40:0:0
     RDKit          3D

 94103  0  0  1  0  0  0  0  0999 V2000
  -30.6520  -21.9370   20.4060 C   0  0  0  0  0  0  0  0  0  0  0  0
  -30.2470  -23.4450   20.3370 C   0  0  0  0  0  2  0  0  0  0  0  0
  -27.8720  -22.6240   20.1140 C   0  0  0  0  0  2  0  0  0  0  0  0
  -28.3420  -21.2740   20.7320 C   0  0  0  0  0  2  0  0  0  0  0  0
  -28.7520  -23.8510   20.4950 C   0  0  0  0  0  3  0  0  0  0  0  0
  -29.7230  -20.9320   20.3670 N   0  0  0  0  0  0  0  0  0  0  0  0
  -31.8630  -21.6950   20.4620 O   0  0  0  0  0  0  0  0  0  0  0  0
  -30.6760  -19.5250   18.6100 C   0  0  0  0  0  3  0  0  0  0  0  0
  -30.7760  -17.0960   18.7000 C   0  0  0  0  0  3  0  0  0  0  0  0
  -29.7800  -18.3410   20.5500 C   0  0  0  0  0  3  0  0  0  0  0  0
  -31.0280  -18.3000   18.0230 C   0  0  0  0  0  0  0  0  0  0  0  0
  -30.0540  -19.5890   19.8790 C   0  0  0  0  0  0  0  0  0  0  0  0
  -30.1730  -17.0720   19.9810 C   0  0  0  0  0  0  0  0  0  0  0  0
  -31.6730  -18.2740   16.6510 C   0  0  0  0  0  1  0  0  0  0  0  0
  -30.6570  -14.6230   20.3910 C   0  0  0  0  0  0  0  0  0  0  0  0
  -30.3790  -12.3980   19.3570 C   0  0  0  0  0  2  0  0  0  0  0  0
  -29.4530  -12.5490   18.1330 C   0  0  0  0  0  2  0  0  0  0  0  0
  -27.9770  -12.4080   18.5560 C   0  0  0  0  0  2  0  0  0  0  0  0
  -27.6170  -13.2770   19.7900 C   0  0  0  0  0  3  0  0  0  0  0  0
  -28.6700  -13.1390   20.9140 C   0  0  0  0  0  2  0  0  0  0  0  0
  -29.9850  -13.4330   20.3340 N   0  0  0  0  0  0  0  0  0  0  0  0
  -31.8460  -14.6890   20.0710 O   0  0  0  0  0  0  0  0  0  0  0  0
  -29.9320  -15.7680   20.6040 N   0  0  0  0  0  0  0  0  0  0  0  0
  -29.0340  -15.6480   21.0490 H   0  0  0  0  0  0  0  0  0  0  0  0
  -25.2210  -13.8700   20.5060 C   0  0  0  0  0  0  0  0  0  0  0  0
  -24.1540  -13.0970   20.8750 C   0  0  0  0  0  0  0  0  0  0  0  0
  -24.6180  -11.7450   20.8490 C   0  0  0  0  0  0  0  0  0  0  0  0
  -26.2670  -12.9920   20.2740 N   0  0  0  0  0  0  0  0  0  0  0  0
  -25.9100  -11.7080   20.5440 N   0  0  0  0  0  0  0  0  0  0  0  0
  -23.8910  -10.4840   21.0430 C   0  0  0  0  0  0  0  0  0  0  0  0
  -24.3250   -9.5130   21.9730 C   0  0  0  0  0  3  0  0  0  0  0  0
  -23.5960   -8.3170   22.1520 C   0  0  0  0  0  3  0  0  0  0  0  0
  -22.4210   -8.0810   21.4010 C   0  0  0  0  0  0  0  0  0  0  0  0
  -22.0040   -9.0400   20.4610 C   0  0  0  0  0  3  0  0  0  0  0  0
  -22.7330  -10.2270   20.2800 C   0  0  0  0  0  3  0  0  0  0  0  0
  -21.6650   -6.9370   21.4900 O   0  0  0  0  0  0  0  0  0  0  0  0
  -21.6270   -6.1880   22.6380 C   0  0  0  0  0  0  0  0  0  0  0  0
  -21.2050   -6.7330   23.8700 C   0  0  0  0  0  3  0  0  0  0  0  0
  -21.1130   -5.9080   25.0100 C   0  0  0  0  0  3  0  0  0  0  0  0
  -21.4360   -4.5410   24.9190 C   0  0  0  0  0  0  0  0  0  0  0  0
  -21.8500   -3.9950   23.6910 C   0  0  0  0  0  3  0  0  0  0  0  0
  -21.9420   -4.8170   22.5540 C   0  0  0  0  0  0  0  0  0  0  0  0
  -22.3230   -4.2810   21.3690 F   0  0  0  0  0  0  0  0  0  0  0  0
  -21.3390   -3.7470   26.0110 F   0  0  0  0  0  0  0  0  0  0  0  0
  -22.7550  -13.5750   21.1380 C   0  0  0  0  0  0  0  0  0  0  0  0
  -22.0230  -12.8830   22.0040 N   0  0  0  0  0  0  0  0  0  0  0  0
  -22.3200  -14.5990   20.6130 O   0  0  0  0  0  0  0  0  0  0  0  0
  -22.3830  -12.0540   22.4520 H   0  0  0  0  0  0  0  0  0  0  0  0
  -21.0850  -13.1880   22.2230 H   0  0  0  0  0  0  0  0  0  0  0  0
  -25.3830  -15.2410   20.3260 N   0  0  0  0  0  0  0  0  0  0  0  0
  -24.6090  -15.8870   20.4370 H   0  0  0  0  0  0  0  0  0  0  0  0
  -26.2270  -15.6830   19.9820 H   0  0  0  0  0  0  0  0  0  0  0  0
  -28.3410  -25.1460   19.6620 C   0  0  0  0  0  2  0  0  0  0  0  0
  -28.3330  -26.5090   20.2470 O   0  0  0  0  0  0  0  0  0  0  0  0
  -24.5750  -31.8870   23.2360 C   0  0  0  0  0  0  0  0  0  0  0  0
  -27.1970  -27.3370   20.1700 C   0  0  0  0  0  0  0  0  0  0  0  0
  -23.3770  -30.4900   21.5940 C   0  0  0  0  0  3  0  0  0  0  0  0
  -24.8310  -28.9570   20.1660 C   0  0  0  0  0  0  0  0  0  0  0  0
  -25.9180  -30.8090   21.4210 C   0  0  0  0  0  2  0  0  0  0  0  0
  -25.9980  -29.4330   20.7730 C   0  0  0  0  0  0  0  0  0  0  0  0
  -27.1790  -28.6340   20.7750 C   0  0  0  0  0  3  0  0  0  0  0  0
  -26.0000  -26.9310   19.5250 C   0  0  0  0  0  3  0  0  0  0  0  0
  -24.8350  -27.7100   19.5350 C   0  0  0  0  0  3  0  0  0  0  0  0
  -23.5950  -29.8270   20.2100 C   0  0  0  0  0  2  0  0  0  0  0  0
  -24.6420  -31.0800   22.1390 N   0  0  0  0  0  0  0  0  0  0  0  0
  -23.4900  -32.1630   23.7680 O   0  0  0  0  0  0  0  0  0  0  0  0
  -22.7200  -29.4640   22.5480 C   0  0  0  0  0  0  0  0  0  0  0  0
  -21.3950  -29.2780   22.4130 N   0  0  0  0  0  0  0  0  0  0  0  0
  -23.3980  -28.8420   23.3690 O   0  0  0  0  0  0  0  0  0  0  0  0
  -20.9090  -29.8330   21.7240 H   0  0  0  0  0  0  0  0  0  0  0  0
  -18.0200  -28.0710   22.8990 C   0  0  0  0  0  0  0  0  0  0  0  0
  -20.5760  -28.3400   23.1810 C   0  0  0  0  0  3  0  0  0  0  0  0
  -20.6860  -26.9070   22.6090 C   0  0  0  0  0  2  0  0  0  0  0  0
  -19.5900  -26.5780   21.5910 C   0  0  0  0  0  2  0  0  0  0  0  0
  -18.2050  -26.7200   22.2280 C   0  0  0  0  0  2  0  0  0  0  0  0
  -19.1340  -28.8390   23.3320 C   0  0  0  0  0  0  0  0  0  0  0  0
  -18.9080  -30.1010   23.9200 C   0  0  0  0  0  3  0  0  0  0  0  0
  -17.6000  -30.5980   24.0780 C   0  0  0  0  0  3  0  0  0  0  0  0
  -16.5000  -29.8290   23.6600 C   0  0  0  0  0  3  0  0  0  0  0  0
  -16.7110  -28.5670   23.0760 C   0  0  0  0  0  3  0  0  0  0  0  0
  -25.8560  -32.5220   23.8580 C   0  0  0  0  0  3  0  0  0  0  0  0
  -25.5470  -33.9240   24.1720 N   0  0  0  0  0  0  0  0  0  0  0  0
  -25.8820  -34.9690   23.4030 C   0  0  0  0  0  0  0  0  0  0  0  0
  -26.5560  -34.8540   22.3760 O   0  0  0  0  0  0  0  0  0  0  0  0
  -24.9520  -34.0870   24.9710 H   0  0  0  0  0  0  0  0  0  0  0  0
  -24.1610  -36.7620   23.0150 C   0  0  0  0  0  1  0  0  0  0  0  0
  -25.3940  -36.3620   23.8430 C   0  0  0  0  0  3  0  0  0  0  0  0
  -27.5210  -37.2510   24.6890 C   0  0  0  0  0  1  0  0  0  0  0  0
  -26.4300  -37.4110   23.7290 N   0  0  0  0  0  0  0  0  0  0  0  0
  -26.0260  -38.3340   23.8620 H   0  0  0  0  0  0  0  0  0  0  0  0
  -26.3610  -31.7630   25.1460 C   0  0  1  0  0  0  0  0  0  0  0  0
  -25.2580  -31.5380   26.2070 C   0  0  0  0  0  1  0  0  0  0  0  0
  -26.9460  -30.3800   24.7750 C   0  0  0  0  0  1  0  0  0  0  0  0
  -27.5070  -32.5610   25.8090 C   0  0  0  0  0  1  0  0  0  0  0  0
  1  7  2  0
  2  1  1  0
  2  5  1  0
  3  5  1  0
  3  4  1  0
  5 53  1  0
  6  1  1  0
  6  4  1  0
  8 12  1  0
  9 13  2  0
 11  8  2  0
 11  9  1  0
 12  6  1  0
 12 10  2  0
 13 10  1  0
 13 23  1  0
 14 11  1  0
 15 23  1  0
 16 21  1  0
 17 18  1  0
 17 16  1  0
 19 18  1  0
 19 28  1  0
 19 20  1  0
 21 15  1  0
 21 20  1  0
 22 15  2  0
 23 24  1  0
 25 26  2  0
 26 45  1  0
 27 26  1  0
 27 30  1  0
 28 25  1  0
 28 29  1  0
 29 27  2  0
 30 31  1  0
 31 32  2  0
 33 36  1  0
 33 32  1  0
 34 33  2  0
 35 34  1  0
 35 30  2  0
 36 37  1  0
 37 38  1  0
 38 39  2  0
 40 39  1  0
 40 44  1  0
 41 40  2  0
 42 37  2  0
 42 41  1  0
 43 42  1  0
 45 46  1  0
 46 49  1  0
 46 48  1  0
 47 45  2  0
 50 51  1  0
 50 25  1  0
 52 50  1  0
 53 54  1  0
 55 66  2  0
 56 54  1  0
 56 61  1  0
 57 65  1  0
 57 67  1  0
 58 64  1  0
 58 60  1  0
 59 65  1  0
 60 61  2  0
 60 59  1  0
 62 63  1  0
 62 56  2  0
 63 58  2  0
 64 57  1  0
 65 55  1  0
 67 69  2  0
 68 67  1  0
 70 68  1  0
 71 80  2  0
 71 76  1  0
 72 68  1  0
 72 76  1  0
 73 72  1  0
 74 75  1  0
 74 73  1  0
 75 71  1  0
 76 77  2  0
 77 78  1  0
 79 78  2  0
 80 79  1  0
 81 55  1  0
 81 82  1  0
 81 91  1  0
 82 85  1  0
 83 87  1  0
 83 82  1  0
 84 83  2  0
 87 86  1  0
 89 87  1  0
 89 90  1  0
 89 88  1  0
 91 94  1  1
 91 92  1  0
 93 91  1  0
M  ISO  4  15 100  23 100  53 101  54 101
M  END
>  <TORSDO>  (41) 
F 18

>  <SCORE>  (41) 
-14.990

>  <name>  (41) 
40

>  <ligand_id>  (41) 
40

>  <original_smiles>  (41) 
[H]c1c([H])c([H])c2c(c1[H])C([H])([H])C([H])([H])C([H])([H])C2([H])N([H])C(=O)C1([H])N(C(=O)C([H])(N([H])C(=O)C([H])(N([H])C([H])([H])[H])C([H])([H])[H])C(C([H])([H])[H])(C([H])([H])[H])C([H])([H])[H])C([H])([H])c2c([H])c(OC([H])([H])C3([H])C([H])([H])C(=O)N(c4c([H])c(N([H])C(=O)N5C([H])([H])C([H])([H])C([H])([H])C([H])(n6nc(-c7c([H])c([H])c(Oc8c([H])c([H])c(F)c([H])c8F)c([H])c7[H])c(C(=O)N([H])[H])c6N([H])[H])C5([H])[H])c([H])c(C([H])([H])[H])c4[H])C([H])([H])C3([H])[H])c([H])c([H])c2C1([H])[H]

>  <smiles>  (41) 
[H]c1c([H])c([H])c2c(c1[H])C([H])([H])C([H])([H])C([H])([H])C2([H])N([H])C(=O)C1([H])N(C(=O)C([H])(N([H])C(=O)C([H])(N([H])C([H])([H])[H])C([H])([H])[H])C(C([H])([H])[H])(C([H])([H])[H])C([H])([H])[H])C([H])([H])c2c([H])c(OC([H])([H])C3([H])C([H])([H])C(=O)N(c4c([H])c(N([H])C(=O)N5C([H])([H])C([H])([H])C([H])([H])C([H])(n6nc(-c7c([H])c([H])c(Oc8c([H])c([H])c(F)c([H])c8F)c([H])c7[H])c(C(=O)N([H])[H])c6N([H])[H])C5([H])[H])c([H])c(C([H])([H])[H])c4[H])C([H])([H])C3([H])[H])c([H])c([H])c2C1([H])[H]

$$$$
41:0:0
     RDKit          3D

100109  0  0  1  0  0  0  0  0999 V2000
  -32.1400  -23.2490   19.7580 C   0  0  0  0  0  3  0  0  0  0  0  0
  -31.3000  -23.9500   20.5690 C   0  0  0  0  0  0  0  0  0  0  0  0
  -31.8740  -22.0150   19.0230 C   0  0  0  0  0  0  0  0  0  0  0  0
  -29.6360  -22.2500   21.1170 C   0  0  0  0  0  0  0  0  0  0  0  0
  -30.7380  -21.1850   21.0590 C   0  0  0  0  0  2  0  0  0  0  0  0
  -29.9800  -23.5490   20.9150 N   0  0  0  0  0  0  0  0  0  0  0  0
  -31.2220  -21.0210   19.6790 N   0  0  0  0  0  0  0  0  0  0  0  0
  -32.2670  -21.8770   17.8610 O   0  0  0  0  0  0  0  0  0  0  0  0
  -28.4810  -21.8840   21.3620 O   0  0  0  0  0  0  0  0  0  0  0  0
  -32.3380  -26.1710   20.2410 C   0  0  0  0  0  2  0  0  0  0  0  0
  -31.7800  -25.2450   21.0360 C   0  0  0  0  0  3  0  0  0  0  0  0
  -31.0510  -19.7350   18.9600 C   0  0  0  0  0  2  0  0  0  0  0  0
  -28.7280  -18.8130   19.4730 C   0  0  0  0  0  3  0  0  0  0  0  0
  -28.4390  -16.6550   20.5670 C   0  0  0  0  0  3  0  0  0  0  0  0
  -30.6820  -17.4880   20.0960 C   0  0  0  0  0  3  0  0  0  0  0  0
  -27.8820  -17.8230   20.0100 C   0  0  0  0  0  0  0  0  0  0  0  0
  -30.1300  -18.6660   19.5430 C   0  0  0  0  0  0  0  0  0  0  0  0
  -29.8350  -16.4630   20.5790 C   0  0  0  0  0  0  0  0  0  0  0  0
  -26.3770  -18.0030   19.9780 C   0  0  0  0  0  1  0  0  0  0  0  0
  -30.8940  -14.2810   20.3050 C   0  0  0  0  0  0  0  0  0  0  0  0
  -30.6570  -11.9840   19.4330 C   0  0  0  0  0  2  0  0  0  0  0  0
  -29.7470  -11.9970   18.1890 C   0  0  0  0  0  2  0  0  0  0  0  0
  -28.2600  -11.9030   18.5870 C   0  0  0  0  0  2  0  0  0  0  0  0
  -27.8770  -12.9200   19.6950 C   0  0  0  0  0  3  0  0  0  0  0  0
  -28.8910  -12.8570   20.8590 C   0  0  0  0  0  2  0  0  0  0  0  0
  -30.2460  -13.0860   20.3150 N   0  0  0  0  0  0  0  0  0  0  0  0
  -31.9390  -14.4870   19.6780 O   0  0  0  0  0  0  0  0  0  0  0  0
  -30.3170  -15.2220   21.0660 N   0  0  0  0  0  0  0  0  0  0  0  0
  -29.7010  -14.8020   21.7450 H   0  0  0  0  0  0  0  0  0  0  0  0
  -25.4920  -13.6360   20.3570 C   0  0  0  0  0  0  0  0  0  0  0  0
  -24.3910  -12.9130   20.7330 C   0  0  0  0  0  0  0  0  0  0  0  0
  -24.8010  -11.5450   20.7340 C   0  0  0  0  0  0  0  0  0  0  0  0
  -26.5060  -12.7120   20.1600 N   0  0  0  0  0  0  0  0  0  0  0  0
  -26.0900  -11.4500   20.4380 N   0  0  0  0  0  0  0  0  0  0  0  0
  -24.0260  -10.3160   20.9460 C   0  0  0  0  0  0  0  0  0  0  0  0
  -24.4190   -9.3500   21.8990 C   0  0  0  0  0  3  0  0  0  0  0  0
  -23.6470   -8.1850   22.0970 C   0  0  0  0  0  3  0  0  0  0  0  0
  -22.4690   -7.9760   21.3410 C   0  0  0  0  0  0  0  0  0  0  0  0
  -22.0950   -8.9300   20.3780 C   0  0  0  0  0  3  0  0  0  0  0  0
  -22.8670  -10.0870   20.1790 C   0  0  0  0  0  3  0  0  0  0  0  0
  -21.6720   -6.8620   21.4460 O   0  0  0  0  0  0  0  0  0  0  0  0
  -21.5940   -6.1400   22.6100 C   0  0  0  0  0  0  0  0  0  0  0  0
  -21.1860   -6.7300   23.8270 C   0  0  0  0  0  3  0  0  0  0  0  0
  -21.0520   -5.9380   24.9840 C   0  0  0  0  0  3  0  0  0  0  0  0
  -21.3150   -4.5550   24.9260 C   0  0  0  0  0  0  0  0  0  0  0  0
  -21.7160   -3.9660   23.7140 C   0  0  0  0  0  3  0  0  0  0  0  0
  -21.8520   -4.7560   22.5600 C   0  0  0  0  0  0  0  0  0  0  0  0
  -22.2180   -4.1780   21.3900 F   0  0  0  0  0  0  0  0  0  0  0  0
  -21.1790   -3.7920   26.0340 F   0  0  0  0  0  0  0  0  0  0  0  0
  -23.0120  -13.4490   20.9870 C   0  0  0  0  0  0  0  0  0  0  0  0
  -22.2570  -12.8040   21.8690 N   0  0  0  0  0  0  0  0  0  0  0  0
  -22.6120  -14.4750   20.4380 O   0  0  0  0  0  0  0  0  0  0  0  0
  -22.5940  -11.9760   22.3360 H   0  0  0  0  0  0  0  0  0  0  0  0
  -21.3300  -13.1450   22.0830 H   0  0  0  0  0  0  0  0  0  0  0  0
  -25.7070  -14.9950   20.1520 N   0  0  0  0  0  0  0  0  0  0  0  0
  -24.9620  -15.6760   20.2360 H   0  0  0  0  0  0  0  0  0  0  0  0
  -26.5860  -15.4020   19.8550 H   0  0  0  0  0  0  0  0  0  0  0  0
  -28.9670  -24.6020   21.1670 C   0  0  0  0  0  2  0  0  0  0  0  0
  -28.3160  -25.0940   19.8580 C   0  0  0  0  0  2  0  0  0  0  0  0
  -28.3100  -26.5240   19.8520 O   0  0  0  0  0  0  0  0  0  0  0  0
  -24.5410  -31.6190   23.0300 C   0  0  0  0  0  0  0  0  0  0  0  0
  -27.1110  -27.2010   19.8740 C   0  0  0  0  0  0  0  0  0  0  0  0
  -23.3010  -30.2500   21.3810 C   0  0  0  0  0  3  0  0  0  0  0  0
  -24.7230  -28.7150   19.9230 C   0  0  0  0  0  0  0  0  0  0  0  0
  -25.8240  -30.5940   21.1550 C   0  0  0  0  0  2  0  0  0  0  0  0
  -25.8880  -29.2280   20.5040 C   0  0  0  0  0  0  0  0  0  0  0  0
  -27.0830  -28.4790   20.4740 C   0  0  0  0  0  3  0  0  0  0  0  0
  -25.9310  -26.7000   19.2800 C   0  0  0  0  0  3  0  0  0  0  0  0
  -24.7380  -27.4480   19.3120 C   0  0  0  0  0  3  0  0  0  0  0  0
  -23.4860  -29.5820   19.9920 C   0  0  0  0  0  2  0  0  0  0  0  0
  -24.5750  -30.8340   21.9150 N   0  0  0  0  0  0  0  0  0  0  0  0
  -23.4690  -31.8940   23.5870 O   0  0  0  0  0  0  0  0  0  0  0  0
  -22.6530  -29.2240   22.3380 C   0  0  0  0  0  0  0  0  0  0  0  0
  -21.3220  -29.0780   22.2420 N   0  0  0  0  0  0  0  0  0  0  0  0
  -23.3430  -28.5640   23.1190 O   0  0  0  0  0  0  0  0  0  0  0  0
  -20.8290  -29.6620   21.5810 H   0  0  0  0  0  0  0  0  0  0  0  0
  -17.9300  -27.9750   22.8080 C   0  0  0  0  0  0  0  0  0  0  0  0
  -20.5000  -28.1420   23.0100 C   0  0  0  0  0  3  0  0  0  0  0  0
  -20.5400  -26.7270   22.3900 C   0  0  0  0  0  2  0  0  0  0  0  0
  -19.3990  -26.4690   21.4020 C   0  0  0  0  0  2  0  0  0  0  0  0
  -18.0420  -26.6410   22.0920 C   0  0  0  0  0  2  0  0  0  0  0  0
  -19.0850  -28.6880   23.2260 C   0  0  0  0  0  0  0  0  0  0  0  0
  -18.9260  -29.9410   23.8560 C   0  0  0  0  0  3  0  0  0  0  0  0
  -17.6450  -30.4800   24.0760 C   0  0  0  0  0  3  0  0  0  0  0  0
  -16.5040  -29.7620   23.6790 C   0  0  0  0  0  3  0  0  0  0  0  0
  -16.6470  -28.5130   23.0470 C   0  0  0  0  0  3  0  0  0  0  0  0
  -25.8410  -32.2270   23.6430 C   0  0  0  0  0  3  0  0  0  0  0  0
  -25.5360  -33.6030   24.0510 N   0  0  0  0  0  0  0  0  0  0  0  0
  -25.8440  -34.6950   23.3380 C   0  0  0  0  0  0  0  0  0  0  0  0
  -26.4880  -34.6450   22.2860 O   0  0  0  0  0  0  0  0  0  0  0  0
  -24.9590  -33.7140   24.8720 H   0  0  0  0  0  0  0  0  0  0  0  0
  -24.0970  -36.4870   23.1170 C   0  0  0  0  0  1  0  0  0  0  0  0
  -25.3600  -36.0540   23.8760 C   0  0  0  0  0  3  0  0  0  0  0  0
  -27.5110  -36.9110   24.6930 C   0  0  0  0  0  1  0  0  0  0  0  0
  -26.3840  -37.1180   23.7880 N   0  0  0  0  0  0  0  0  0  0  0  0
  -25.9770  -38.0270   23.9920 H   0  0  0  0  0  0  0  0  0  0  0  0
  -26.4010  -31.3940   24.8600 C   0  0  1  0  0  0  0  0  0  0  0  0
  -25.3460  -31.1100   25.9550 C   0  0  0  0  0  1  0  0  0  0  0  0
  -26.9660  -30.0400   24.3760 C   0  0  0  0  0  1  0  0  0  0  0  0
  -27.5760  -32.1560   25.5180 C   0  0  0  0  0  1  0  0  0  0  0  0
  1  2  2  0
  2  6  1  0
  2 11  1  0
  3  7  1  0
  3  1  1  0
  4  9  2  0
  5  4  1  0
  6  4  1  0
  6 58  1  0
  7  5  1  0
  8  3  2  0
 10 11  2  0
 12 17  1  0
 12  7  1  0
 13 17  2  0
 13 16  1  0
 14 18  1  0
 15 18  2  0
 16 14  2  0
 17 15  1  0
 18 28  1  0
 19 16  1  0
 20 26  1  0
 20 28  1  0
 21 26  1  0
 22 23  1  0
 22 21  1  0
 24 23  1  0
 24 33  1  0
 24 25  1  0
 26 25  1  0
 27 20  2  0
 28 29  1  0
 30 31  2  0
 31 32  1  0
 31 50  1  0
 32 35  1  0
 33 30  1  0
 33 34  1  0
 34 32  2  0
 35 36  1  0
 36 37  2  0
 38 41  1  0
 38 37  1  0
 39 38  2  0
 40 39  1  0
 40 35  2  0
 41 42  1  0
 42 43  1  0
 43 44  2  0
 45 44  1  0
 45 49  1  0
 46 45  2  0
 47 42  2  0
 47 46  1  0
 48 47  1  0
 50 51  1  0
 51 54  1  0
 51 53  1  0
 52 50  2  0
 55 56  1  0
 55 30  1  0
 57 55  1  0
 59 58  1  0
 60 59  1  0
 60 62  1  0
 61 72  2  0
 62 67  1  0
 63 71  1  0
 63 73  1  0
 64 70  1  0
 64 66  1  0
 65 71  1  0
 66 65  1  0
 67 66  2  0
 68 69  1  0
 68 62  2  0
 69 64  2  0
 70 63  1  0
 71 61  1  0
 73 75  2  0
 74 73  1  0
 76 74  1  0
 77 86  2  0
 77 82  1  0
 78 74  1  0
 78 82  1  0
 79 78  1  0
 80 81  1  0
 80 79  1  0
 81 77  1  0
 82 83  2  0
 83 84  1  0
 85 84  2  0
 86 85  1  0
 87 61  1  0
 87 88  1  0
 87 97  1  0
 88 91  1  0
 89 93  1  0
 89 88  1  0
 90 89  2  0
 93 92  1  0
 95 93  1  0
 95 96  1  0
 95 94  1  0
 97100  1  1
 97 98  1  0
 99 97  1  0
M  ISO  4  20 100  28 100  59 101  60 101
M  END
>  <TORSDO>  (42) 
F 21

>  <SCORE>  (42) 
-13.395

>  <name>  (42) 
41

>  <ligand_id>  (42) 
41

>  <original_smiles>  (42) 
[H]C([H])=C([H])C1=C([H])C(=O)N(C([H])([H])c2c([H])c(N([H])C(=O)N3C([H])([H])C([H])([H])C([H])([H])C([H])(n4nc(-c5c([H])c([H])c(Oc6c([H])c([H])c(F)c([H])c6F)c([H])c5[H])c(C(=O)N([H])[H])c4N([H])[H])C3([H])[H])c([H])c(C([H])([H])[H])c2[H])C([H])([H])C(=O)N1C([H])([H])C([H])([H])Oc1c([H])c([H])c2c(c1[H])C([H])([H])N(C(=O)C([H])(N([H])C(=O)C([H])(N([H])C([H])([H])[H])C([H])([H])[H])C(C([H])([H])[H])(C([H])([H])[H])C([H])([H])[H])C([H])(C(=O)N([H])C1([H])c3c([H])c([H])c([H])c([H])c3C([H])([H])C([H])([H])C1([H])[H])C2([H])[H]

>  <smiles>  (42) 
[H]C([H])=C([H])C1=C([H])C(=O)N(C([H])([H])c2c([H])c(N([H])C(=O)N3C([H])([H])C([H])([H])C([H])([H])C([H])(n4nc(-c5c([H])c([H])c(Oc6c([H])c([H])c(F)c([H])c6F)c([H])c5[H])c(C(=O)N([H])[H])c4N([H])[H])C3([H])[H])c([H])c(C([H])([H])[H])c2[H])C([H])([H])C(=O)N1C([H])([H])C([H])([H])Oc1c([H])c([H])c2c(c1[H])C([H])([H])N(C(=O)C([H])(N([H])C(=O)C([H])(N([H])C([H])([H])[H])C([H])([H])[H])C(C([H])([H])[H])(C([H])([H])[H])C([H])([H])[H])C([H])(C(=O)N([H])C1([H])c3c([H])c([H])c([H])c([H])c3C([H])([H])C([H])([H])C1([H])[H])C2([H])[H]

$$$$
42:0:0
     RDKit          3D

 94102  0  0  1  0  0  0  0  0999 V2000
  -29.9080  -21.6630   20.8210 C   0  0  0  0  0  0  0  0  0  0  0  0
  -29.7050  -20.4290   20.2840 N   0  0  0  0  0  0  0  0  0  0  0  0
  -30.8690  -21.9330   21.5470 O   0  0  0  0  0  0  0  0  0  0  0  0
  -28.8140  -20.2960   19.8280 H   0  0  0  0  0  0  0  0  0  0  0  0
  -32.8650  -18.3920   20.0500 C   0  0  0  0  0  3  0  0  0  0  0  0
  -31.9730  -19.4740   20.0490 C   0  0  0  0  0  3  0  0  0  0  0  0
  -32.3890  -17.0910   20.2610 C   0  0  0  0  0  3  0  0  0  0  0  0
  -30.1020  -17.9460   20.4560 C   0  0  0  0  0  0  0  0  0  0  0  0
  -30.5900  -19.2860   20.2840 C   0  0  0  0  0  0  0  0  0  0  0  0
  -31.0090  -16.8330   20.4380 C   0  0  0  0  0  0  0  0  0  0  0  0
  -28.6140  -17.7060   20.6750 C   0  0  0  0  0  1  0  0  0  0  0  0
  -30.8580  -14.5100   19.6960 C   0  0  0  0  0  0  0  0  0  0  0  0
  -30.3070  -12.3850   18.5410 C   0  0  0  0  0  2  0  0  0  0  0  0
  -29.2000  -12.5780   17.4860 C   0  0  0  0  0  2  0  0  0  0  0  0
  -27.8160  -12.3860   18.1280 C   0  0  0  0  0  2  0  0  0  0  0  0
  -27.6530  -13.2140   19.4260 C   0  0  0  0  0  3  0  0  0  0  0  0
  -28.8620  -13.0420   20.3660 C   0  0  0  0  0  2  0  0  0  0  0  0
  -30.1000  -13.3650   19.6300 N   0  0  0  0  0  0  0  0  0  0  0  0
  -31.7470  -14.7100   18.8610 O   0  0  0  0  0  0  0  0  0  0  0  0
  -30.6260  -15.4510   20.6680 N   0  0  0  0  0  0  0  0  0  0  0  0
  -25.4450  -13.7630   20.6260 C   0  0  0  0  0  0  0  0  0  0  0  0
  -24.4370  -12.9670   21.0980 C   0  0  0  0  0  0  0  0  0  0  0  0
  -24.8410  -11.6210   20.8390 C   0  0  0  0  0  0  0  0  0  0  0  0
  -26.4000  -12.9010   20.1110 N   0  0  0  0  0  0  0  0  0  0  0  0
  -26.0510  -11.6000   20.2970 N   0  0  0  0  0  0  0  0  0  0  0  0
  -24.1190  -10.3550   21.0220 C   0  0  0  0  0  0  0  0  0  0  0  0
  -24.6130   -9.3370   21.8670 C   0  0  0  0  0  3  0  0  0  0  0  0
  -23.8920   -8.1360   22.0400 C   0  0  0  0  0  3  0  0  0  0  0  0
  -22.6600   -7.9440   21.3680 C   0  0  0  0  0  0  0  0  0  0  0  0
  -22.1840   -8.9510   20.5120 C   0  0  0  0  0  3  0  0  0  0  0  0
  -22.9060  -10.1440   20.3360 C   0  0  0  0  0  3  0  0  0  0  0  0
  -21.9030   -6.8010   21.4560 O   0  0  0  0  0  0  0  0  0  0  0  0
  -21.8340   -6.0700   22.6150 C   0  0  0  0  0  0  0  0  0  0  0  0
  -21.3950   -6.6390   23.8310 C   0  0  0  0  0  3  0  0  0  0  0  0
  -21.2720   -5.8360   24.9820 C   0  0  0  0  0  3  0  0  0  0  0  0
  -21.5790   -4.4630   24.9180 C   0  0  0  0  0  0  0  0  0  0  0  0
  -22.0100   -3.8930   23.7080 C   0  0  0  0  0  3  0  0  0  0  0  0
  -22.1340   -4.6940   22.5590 C   0  0  0  0  0  0  0  0  0  0  0  0
  -22.5300   -4.1360   21.3900 F   0  0  0  0  0  0  0  0  0  0  0  0
  -21.4530   -3.6880   26.0210 F   0  0  0  0  0  0  0  0  0  0  0  0
  -23.1270  -13.4290   21.6700 C   0  0  0  0  0  0  0  0  0  0  0  0
  -22.5470  -12.6520   22.5770 N   0  0  0  0  0  0  0  0  0  0  0  0
  -22.6350  -14.5090   21.3460 O   0  0  0  0  0  0  0  0  0  0  0  0
  -22.9610  -11.7760   22.8580 H   0  0  0  0  0  0  0  0  0  0  0  0
  -21.6750  -12.9410   23.0000 H   0  0  0  0  0  0  0  0  0  0  0  0
  -25.6210  -15.1410   20.5720 N   0  0  0  0  0  0  0  0  0  0  0  0
  -24.9130  -15.7910   20.8960 H   0  0  0  0  0  0  0  0  0  0  0  0
  -26.4200  -15.5990   20.1520 H   0  0  0  0  0  0  0  0  0  0  0  0
  -30.5660  -15.8720   23.0860 C   0  0  0  0  0  2  0  0  0  0  0  0
  -30.6040  -15.0490   22.0220 C   0  0  0  0  0  3  0  0  0  0  0  0
  -28.8560  -22.7640   20.5450 C   0  0  0  0  0  2  0  0  0  0  0  0
  -29.2870  -24.2340   20.8810 C   0  0  0  0  0  2  0  0  0  0  0  0
  -28.0790  -25.1700   21.1530 C   0  0  0  0  0  2  0  0  0  0  0  0
  -28.3570  -26.5890   21.2940 O   0  0  0  0  0  0  0  0  0  0  0  0
  -27.9540  -32.1150   25.8200 C   0  0  0  0  0  0  0  0  0  0  0  0
  -27.5750  -27.2850   22.2110 C   0  0  0  0  0  0  0  0  0  0  0  0
  -26.2340  -30.3610   26.0870 C   0  0  0  0  0  3  0  0  0  0  0  0
  -26.0690  -28.6710   24.1840 C   0  0  0  0  0  0  0  0  0  0  0  0
  -27.2970  -30.8080   23.7970 C   0  0  0  0  0  2  0  0  0  0  0  0
  -27.0610  -29.3460   23.4640 C   0  0  0  0  0  0  0  0  0  0  0  0
  -27.8120  -28.6620   22.4730 C   0  0  0  0  0  3  0  0  0  0  0  0
  -26.5400  -26.6440   22.9340 C   0  0  0  0  0  3  0  0  0  0  0  0
  -25.8020  -27.3200   23.9200 C   0  0  0  0  0  3  0  0  0  0  0  0
  -25.3120  -29.4530   25.2340 C   0  0  0  0  0  2  0  0  0  0  0  0
  -27.2160  -31.1220   25.2470 N   0  0  0  0  0  0  0  0  0  0  0  0
  -27.8020  -32.4220   27.0110 O   0  0  0  0  0  0  0  0  0  0  0  0
  -26.9030  -29.5020   27.1850 C   0  0  0  0  0  0  0  0  0  0  0  0
  -26.1700  -29.2570   28.2840 N   0  0  0  0  0  0  0  0  0  0  0  0
  -28.0430  -29.0560   27.0320 O   0  0  0  0  0  0  0  0  0  0  0  0
  -25.2480  -29.6660   28.3390 H   0  0  0  0  0  0  0  0  0  0  0  0
  -25.1050  -28.0120   31.5070 C   0  0  0  0  0  0  0  0  0  0  0  0
  -26.5810  -28.4430   29.4290 C   0  0  0  0  0  3  0  0  0  0  0  0
  -26.4190  -26.9350   29.1280 C   0  0  0  0  0  2  0  0  0  0  0  0
  -25.0690  -26.3710   29.5820 C   0  0  0  0  0  2  0  0  0  0  0  0
  -24.8830  -26.5690   31.0890 C   0  0  0  0  0  2  0  0  0  0  0  0
  -25.8890  -28.8970   30.7190 C   0  0  0  0  0  0  0  0  0  0  0  0
  -26.0340  -30.2380   31.1360 C   0  0  0  0  0  3  0  0  0  0  0  0
  -25.4170  -30.6970   32.3140 C   0  0  0  0  0  3  0  0  0  0  0  0
  -24.6550  -29.8140   33.0980 C   0  0  0  0  0  3  0  0  0  0  0  0
  -24.5040  -28.4740   32.6970 C   0  0  0  0  0  3  0  0  0  0  0  0
  -29.0070  -32.9250   25.0020 C   0  0  0  0  0  3  0  0  0  0  0  0
  -28.8510  -34.3410   25.3600 N   0  0  0  0  0  0  0  0  0  0  0  0
  -28.2190  -35.2520   24.6080 C   0  0  0  0  0  0  0  0  0  0  0  0
  -27.7630  -34.9970   23.4900 O   0  0  0  0  0  0  0  0  0  0  0  0
  -29.1540  -34.6100   26.2850 H   0  0  0  0  0  0  0  0  0  0  0  0
  -26.6440  -36.8560   25.7360 C   0  0  0  0  0  1  0  0  0  0  0  0
  -28.0680  -36.6710   25.1890 C   0  0  0  0  0  3  0  0  0  0  0  0
  -29.7790  -37.7980   23.8350 C   0  0  0  0  0  1  0  0  0  0  0  0
  -28.3700  -37.7420   24.2140 N   0  0  0  0  0  0  0  0  0  0  0  0
  -28.1040  -38.6510   24.5840 H   0  0  0  0  0  0  0  0  0  0  0  0
  -30.4890  -32.4460   25.2510 C   0  0  1  0  0  0  0  0  0  0  0  0
  -30.8620  -32.3290   26.7470 C   0  0  0  0  0  1  0  0  0  0  0  0
  -30.7360  -31.0690   24.5930 C   0  0  0  0  0  1  0  0  0  0  0  0
  -31.4770  -33.4360   24.5880 C   0  0  0  0  0  1  0  0  0  0  0  0
  1  3  2  0
  2  9  1  0
  2  1  1  0
  4  2  1  0
  5  7  1  0
  6  5  2  0
  6  9  1  0
  7 10  2  0
  8 11  1  0
  9  8  2  0
 10  8  1  0
 10 20  1  0
 12 20  1  0
 13 18  1  0
 14 15  1  0
 14 13  1  0
 16 15  1  0
 16 24  1  0
 16 17  1  0
 18 12  1  0
 18 17  1  0
 19 12  2  0
 20 50  1  0
 21 22  2  0
 22 41  1  0
 23 26  1  0
 23 22  1  0
 24 25  1  0
 24 21  1  0
 25 23  2  0
 26 27  1  0
 27 28  2  0
 29 32  1  0
 29 28  1  0
 30 29  2  0
 31 30  1  0
 31 26  2  0
 32 33  1  0
 33 34  1  0
 34 35  2  0
 36 35  1  0
 36 40  1  0
 37 36  2  0
 38 33  2  0
 38 37  1  0
 39 38  1  0
 41 42  1  0
 42 44  1  0
 42 45  1  0
 43 41  2  0
 46 21  1  0
 46 47  1  0
 48 46  1  0
 50 49  2  0
 51  1  1  0
 51 52  1  0
 52 53  1  0
 53 54  1  0
 54 56  1  0
 55 66  2  0
 56 61  2  0
 56 62  1  0
 57 67  1  0
 58 64  1  0
 59 65  1  0
 60 59  1  0
 60 58  2  0
 61 60  1  0
 62 63  2  0
 63 58  1  0
 64 57  1  0
 65 55  1  0
 65 57  1  0
 67 68  1  0
 68 70  1  0
 69 67  2  0
 71 80  1  0
 72 68  1  0
 72 76  1  0
 73 72  1  0
 73 74  1  0
 74 75  1  0
 75 71  1  0
 76 77  1  0
 76 71  2  0
 77 78  2  0
 78 79  1  0
 80 79  2  0
 81 91  1  0
 81 82  1  0
 81 55  1  0
 82 85  1  0
 83 87  1  0
 83 82  1  0
 84 83  2  0
 87 86  1  0
 88 89  1  0
 89 90  1  0
 89 87  1  0
 91 92  1  1
 93 91  1  0
 94 91  1  0
M  ISO  4  12 100  20 100  53 101  54 101
M  END
>  <TORSDO>  (43) 
F 21

>  <SCORE>  (43) 
-6.916

>  <name>  (43) 
42

>  <ligand_id>  (43) 
42

>  <original_smiles>  (43) 
[H]C([H])=C([H])N(C(=O)N1C([H])([H])C([H])([H])C([H])([H])C([H])(n2nc(-c3c([H])c([H])c(Oc4c([H])c([H])c(F)c([H])c4F)c([H])c3[H])c(C(=O)N([H])[H])c2N([H])[H])C1([H])[H])c1c([H])c([H])c([H])c(N([H])C(=O)C([H])([H])C([H])([H])C([H])([H])Oc2c([H])c([H])c3c(c2[H])C([H])([H])N(C(=O)C([H])(N([H])C(=O)C([H])(N([H])C([H])([H])[H])C([H])([H])[H])C(C([H])([H])[H])(C([H])([H])[H])C([H])([H])[H])C([H])(C(=O)N([H])C2([H])c4c([H])c([H])c([H])c([H])c4C([H])([H])C([H])([H])C2([H])[H])C3([H])[H])c1C([H])([H])[H]

>  <smiles>  (43) 
[H]C([H])=C([H])N(C(=O)N1C([H])([H])C([H])([H])C([H])([H])C([H])(n2nc(-c3c([H])c([H])c(Oc4c([H])c([H])c(F)c([H])c4F)c([H])c3[H])c(C(=O)N([H])[H])c2N([H])[H])C1([H])[H])c1c([H])c([H])c([H])c(N([H])C(=O)C([H])([H])C([H])([H])C([H])([H])Oc2c([H])c([H])c3c(c2[H])C([H])([H])N(C(=O)C([H])(N([H])C(=O)C([H])(N([H])C([H])([H])[H])C([H])([H])[H])C(C([H])([H])[H])(C([H])([H])[H])C([H])([H])[H])C([H])(C(=O)N([H])C2([H])c4c([H])c([H])c([H])c([H])c4C([H])([H])C([H])([H])C2([H])[H])C3([H])[H])c1C([H])([H])[H]

$$$$
43:0:0
     RDKit          3D

 96104  0  0  1  0  0  0  0  0999 V2000
  -28.9710  -23.0300   19.4190 C   0  0  0  0  0  3  0  0  0  0  0  0
  -28.8430  -20.5760   20.0820 C   0  0  0  0  0  0  0  0  0  0  0  0
  -29.2440  -21.8540   20.2970 N   0  0  0  0  0  0  0  0  0  0  0  0
  -27.8640  -20.3170   19.3800 O   0  0  0  0  0  0  0  0  0  0  0  0
  -30.0490  -21.9660   20.8950 H   0  0  0  0  0  0  0  0  0  0  0  0
  -31.7350  -18.6670   21.7700 C   0  0  0  0  0  3  0  0  0  0  0  0
  -30.9090  -19.7120   21.3170 C   0  0  0  0  0  3  0  0  0  0  0  0
  -31.3810  -17.3220   21.5570 C   0  0  0  0  0  3  0  0  0  0  0  0
  -29.3330  -18.0630   20.4640 C   0  0  0  0  0  3  0  0  0  0  0  0
  -29.6920  -19.4380   20.6490 C   0  0  0  0  0  0  0  0  0  0  0  0
  -30.1790  -16.9930   20.8940 C   0  0  0  0  0  0  0  0  0  0  0  0
  -30.5760  -14.5600   20.3220 C   0  0  0  0  0  0  0  0  0  0  0  0
  -30.2970  -12.3820   19.1790 C   0  0  0  0  0  2  0  0  0  0  0  0
  -29.3380  -12.5860   17.9880 C   0  0  0  0  0  2  0  0  0  0  0  0
  -27.8690  -12.4350   18.4390 C   0  0  0  0  0  2  0  0  0  0  0  0
  -27.5470  -13.2540   19.7190 C   0  0  0  0  0  3  0  0  0  0  0  0
  -28.6250  -13.0420   20.8070 C   0  0  0  0  0  2  0  0  0  0  0  0
  -29.9270  -13.3670   20.2070 N   0  0  0  0  0  0  0  0  0  0  0  0
  -31.7270  -14.7180   19.9040 O   0  0  0  0  0  0  0  0  0  0  0  0
  -29.8040  -15.6120   20.7110 N   0  0  0  0  0  0  0  0  0  0  0  0
  -28.8280  -15.3930   20.8400 H   0  0  0  0  0  0  0  0  0  0  0  0
  -25.1620  -13.8450   20.4700 C   0  0  0  0  0  0  0  0  0  0  0  0
  -24.1050  -13.0680   20.8580 C   0  0  0  0  0  0  0  0  0  0  0  0
  -24.5720  -11.7180   20.8190 C   0  0  0  0  0  0  0  0  0  0  0  0
  -26.2070  -12.9690   20.2210 N   0  0  0  0  0  0  0  0  0  0  0  0
  -25.8560  -11.6840   20.4880 N   0  0  0  0  0  0  0  0  0  0  0  0
  -23.8530  -10.4530   21.0180 C   0  0  0  0  0  0  0  0  0  0  0  0
  -24.3060   -9.4860   21.9430 C   0  0  0  0  0  3  0  0  0  0  0  0
  -23.5900   -8.2850   22.1320 C   0  0  0  0  0  3  0  0  0  0  0  0
  -22.4070   -8.0420   21.3940 C   0  0  0  0  0  0  0  0  0  0  0  0
  -21.9720   -8.9960   20.4570 C   0  0  0  0  0  3  0  0  0  0  0  0
  -22.6900  -10.1900   20.2680 C   0  0  0  0  0  3  0  0  0  0  0  0
  -21.6600   -6.8920   21.4910 O   0  0  0  0  0  0  0  0  0  0  0  0
  -21.6400   -6.1410   22.6390 C   0  0  0  0  0  0  0  0  0  0  0  0
  -21.2330   -6.6850   23.8780 C   0  0  0  0  0  3  0  0  0  0  0  0
  -21.1610   -5.8610   25.0180 C   0  0  0  0  0  3  0  0  0  0  0  0
  -21.4860   -4.4940   24.9210 C   0  0  0  0  0  0  0  0  0  0  0  0
  -21.8850   -3.9500   23.6880 C   0  0  0  0  0  3  0  0  0  0  0  0
  -21.9580   -4.7720   22.5500 C   0  0  0  0  0  0  0  0  0  0  0  0
  -22.3230   -4.2390   21.3590 F   0  0  0  0  0  0  0  0  0  0  0  0
  -21.4090   -3.6990   26.0150 F   0  0  0  0  0  0  0  0  0  0  0  0
  -22.7100  -13.5380   21.1550 C   0  0  0  0  0  0  0  0  0  0  0  0
  -21.9990  -12.8340   22.0290 N   0  0  0  0  0  0  0  0  0  0  0  0
  -22.2590  -14.5630   20.6450 O   0  0  0  0  0  0  0  0  0  0  0  0
  -22.3780  -12.0040   22.4610 H   0  0  0  0  0  0  0  0  0  0  0  0
  -21.0640  -13.1300   22.2700 H   0  0  0  0  0  0  0  0  0  0  0  0
  -25.3140  -15.2160   20.2880 N   0  0  0  0  0  0  0  0  0  0  0  0
  -24.5370  -15.8580   20.3890 H   0  0  0  0  0  0  0  0  0  0  0  0
  -26.1440  -15.6570   19.9130 H   0  0  0  0  0  0  0  0  0  0  0  0
  -30.3050  -23.6980   19.0470 C   0  0  0  0  0  0  0  0  0  0  0  0
  -30.3280  -24.5700   17.8010 C   0  0  0  0  0  1  0  0  0  0  0  0
  -31.3350  -23.5480   19.7100 O   0  0  0  0  0  0  0  0  0  0  0  0
  -26.6540  -23.3670   20.5010 C   0  0  0  0  0  1  0  0  0  0  0  0
  -27.8830  -24.0770   19.9020 C   0  0  0  0  0  3  0  0  0  0  0  0
  -28.3150  -25.3190   20.7780 C   0  0  0  0  0  2  0  0  0  0  0  0
  -28.3690  -26.6300   20.1400 O   0  0  0  0  0  0  0  0  0  0  0  0
  -24.5840  -31.8810   23.2450 C   0  0  0  0  0  0  0  0  0  0  0  0
  -27.2180  -27.4030   20.1610 C   0  0  0  0  0  0  0  0  0  0  0  0
  -23.3810  -30.4890   21.5950 C   0  0  0  0  0  3  0  0  0  0  0  0
  -24.8360  -28.9520   20.1690 C   0  0  0  0  0  0  0  0  0  0  0  0
  -25.9130  -30.8360   21.4050 C   0  0  0  0  0  2  0  0  0  0  0  0
  -25.9990  -29.4630   20.7590 C   0  0  0  0  0  0  0  0  0  0  0  0
  -27.1960  -28.6990   20.7440 C   0  0  0  0  0  3  0  0  0  0  0  0
  -26.0350  -26.9240   19.5610 C   0  0  0  0  0  3  0  0  0  0  0  0
  -24.8510  -27.6850   19.5640 C   0  0  0  0  0  3  0  0  0  0  0  0
  -23.5940  -29.8160   20.2150 C   0  0  0  0  0  2  0  0  0  0  0  0
  -24.6450  -31.0830   22.1410 N   0  0  0  0  0  0  0  0  0  0  0  0
  -23.5020  -32.1530   23.7830 O   0  0  0  0  0  0  0  0  0  0  0  0
  -22.7250  -29.4650   22.5500 C   0  0  0  0  0  0  0  0  0  0  0  0
  -21.4010  -29.2810   22.4160 N   0  0  0  0  0  0  0  0  0  0  0  0
  -23.4050  -28.8390   23.3680 O   0  0  0  0  0  0  0  0  0  0  0  0
  -20.9120  -29.8340   21.7270 H   0  0  0  0  0  0  0  0  0  0  0  0
  -18.0310  -28.0690   22.8940 C   0  0  0  0  0  0  0  0  0  0  0  0
  -20.5850  -28.3400   23.1830 C   0  0  0  0  0  3  0  0  0  0  0  0
  -20.7000  -26.9100   22.6090 C   0  0  0  0  0  2  0  0  0  0  0  0
  -19.6060  -26.5810   21.5870 C   0  0  0  0  0  2  0  0  0  0  0  0
  -18.2190  -26.7200   22.2210 C   0  0  0  0  0  2  0  0  0  0  0  0
  -19.1430  -28.8360   23.3320 C   0  0  0  0  0  0  0  0  0  0  0  0
  -18.9120  -30.0980   23.9210 C   0  0  0  0  0  3  0  0  0  0  0  0
  -17.6040  -30.5930   24.0780 C   0  0  0  0  0  3  0  0  0  0  0  0
  -16.5060  -29.8220   23.6560 C   0  0  0  0  0  3  0  0  0  0  0  0
  -16.7210  -28.5630   23.0690 C   0  0  0  0  0  3  0  0  0  0  0  0
  -25.8690  -32.5100   23.8700 C   0  0  0  0  0  3  0  0  0  0  0  0
  -25.5610  -33.9090   24.1980 N   0  0  0  0  0  0  0  0  0  0  0  0
  -25.8970  -34.9600   23.4390 C   0  0  0  0  0  0  0  0  0  0  0  0
  -26.5690  -34.8540   22.4090 O   0  0  0  0  0  0  0  0  0  0  0  0
  -24.9650  -34.0650   24.9980 H   0  0  0  0  0  0  0  0  0  0  0  0
  -24.1770  -36.7580   23.0760 C   0  0  0  0  0  1  0  0  0  0  0  0
  -25.4110  -36.3500   23.8940 C   0  0  0  0  0  3  0  0  0  0  0  0
  -27.5440  -37.2280   24.7370 C   0  0  0  0  0  1  0  0  0  0  0  0
  -26.4480  -37.4000   23.7870 N   0  0  0  0  0  0  0  0  0  0  0  0
  -26.0430  -38.3200   23.9350 H   0  0  0  0  0  0  0  0  0  0  0  0
  -26.3850  -31.7360   25.1450 C   0  0  1  0  0  0  0  0  0  0  0  0
  -25.2910  -31.4960   26.2120 C   0  0  0  0  0  1  0  0  0  0  0  0
  -26.9690  -30.3590   24.7510 C   0  0  0  0  0  1  0  0  0  0  0  0
  -27.5360  -32.5290   25.8090 C   0  0  0  0  0  1  0  0  0  0  0  0
  1 50  1  0
  1 54  1  0
  1  3  1  0
  2  3  1  0
  2 10  1  0
  3  5  1  0
  4  2  2  0
  7  6  2  0
  8  6  1  0
  9 10  2  0
  9 11  1  0
 10  7  1  0
 11  8  2  0
 12 20  1  0
 13 18  1  0
 14 15  1  0
 14 13  1  0
 16 15  1  0
 16 25  1  0
 16 17  1  0
 18 12  1  0
 18 17  1  0
 19 12  2  0
 20 21  1  0
 20 11  1  0
 22 23  2  0
 23 42  1  0
 24 23  1  0
 24 27  1  0
 25 22  1  0
 25 26  1  0
 26 24  2  0
 27 28  1  0
 28 29  2  0
 30 33  1  0
 30 29  1  0
 31 30  2  0
 32 31  1  0
 32 27  2  0
 33 34  1  0
 34 35  1  0
 35 36  2  0
 37 36  1  0
 37 41  1  0
 38 37  2  0
 39 34  2  0
 39 38  1  0
 40 39  1  0
 42 43  1  0
 43 46  1  0
 43 45  1  0
 44 42  2  0
 47 48  1  0
 47 22  1  0
 49 47  1  0
 50 52  2  0
 51 50  1  0
 54 53  1  0
 54 55  1  0
 56 58  1  0
 56 55  1  0
 57 68  2  0
 58 63  1  0
 59 67  1  0
 59 69  1  0
 60 66  1  0
 60 62  1  0
 61 67  1  0
 62 61  1  0
 63 62  2  0
 64 65  1  0
 64 58  2  0
 65 60  2  0
 66 59  1  0
 67 57  1  0
 69 71  2  0
 70 69  1  0
 72 70  1  0
 73 82  2  0
 73 78  1  0
 74 70  1  0
 74 78  1  0
 75 74  1  0
 76 77  1  0
 76 75  1  0
 77 73  1  0
 78 79  2  0
 79 80  1  0
 81 80  2  0
 82 81  1  0
 83 57  1  0
 83 84  1  0
 83 93  1  0
 84 87  1  0
 85 89  1  0
 85 84  1  0
 86 85  2  0
 89 88  1  0
 91 89  1  0
 91 92  1  0
 91 90  1  0
 93 96  1  1
 93 94  1  0
 95 93  1  0
M  ISO  4  12 100  20 100  55 101  56 101
M  END
>  <TORSDO>  (44) 
F 21

>  <SCORE>  (44) 
-13.857

>  <name>  (44) 
43

>  <ligand_id>  (44) 
43

>  <original_smiles>  (44) 
[H]c1c([H])c(C(=O)N([H])C([H])(C(=O)C([H])([H])[H])C([H])(C([H])([H])[H])C([H])([H])Oc2c([H])c([H])c3c(c2[H])C([H])([H])N(C(=O)C([H])(N([H])C(=O)C([H])(N([H])C([H])([H])[H])C([H])([H])[H])C(C([H])([H])[H])(C([H])([H])[H])C([H])([H])[H])C([H])(C(=O)N([H])C2([H])c4c([H])c([H])c([H])c([H])c4C([H])([H])C([H])([H])C2([H])[H])C3([H])[H])c([H])c(N([H])C(=O)N2C([H])([H])C([H])([H])C([H])([H])C([H])(n3nc(-c4c([H])c([H])c(Oc5c([H])c([H])c(F)c([H])c5F)c([H])c4[H])c(C(=O)N([H])[H])c3N([H])[H])C2([H])[H])c1[H]

>  <smiles>  (44) 
[H]c1c([H])c(C(=O)N([H])C([H])(C(=O)C([H])([H])[H])C([H])(C([H])([H])[H])C([H])([H])Oc2c([H])c([H])c3c(c2[H])C([H])([H])N(C(=O)C([H])(N([H])C(=O)C([H])(N([H])C([H])([H])[H])C([H])([H])[H])C(C([H])([H])[H])(C([H])([H])[H])C([H])([H])[H])C([H])(C(=O)N([H])C2([H])c4c([H])c([H])c([H])c([H])c4C([H])([H])C([H])([H])C2([H])[H])C3([H])[H])c([H])c(N([H])C(=O)N2C([H])([H])C([H])([H])C([H])([H])C([H])(n3nc(-c4c([H])c([H])c(Oc5c([H])c([H])c(F)c([H])c5F)c([H])c4[H])c(C(=O)N([H])[H])c3N([H])[H])C2([H])[H])c1[H]

$$$$
44:0:0
     RDKit          3D

 99108  0  0  1  0  0  0  0  0999 V2000
  -31.8380  -22.0020   18.6800 C   0  0  0  0  0  0  0  0  0  0  0  0
  -29.4590  -22.1060   20.6810 C   0  0  0  0  0  0  0  0  0  0  0  0
  -31.7690  -21.5670   20.1460 C   0  0  0  0  0  2  0  0  0  0  0  0
  -30.2100  -23.9660   18.9710 C   0  0  0  0  0  2  0  0  0  0  0  0
  -29.7710  -23.6720   20.4300 C   0  0  0  0  0  3  0  0  0  0  0  0
  -30.4430  -21.1150   20.5750 N   0  0  0  0  0  0  0  0  0  0  0  0
  -31.1390  -23.0780   18.2340 N   0  0  0  0  0  0  0  0  0  0  0  0
  -32.5610  -21.3380   17.9310 O   0  0  0  0  0  0  0  0  0  0  0  0
  -28.3010  -21.8000   20.9720 O   0  0  0  0  0  0  0  0  0  0  0  0
  -30.5470  -18.4910   20.3230 C   0  0  0  0  0  3  0  0  0  0  0  0
  -30.6520  -17.0920   22.3090 C   0  0  0  0  0  3  0  0  0  0  0  0
  -30.4320  -19.5410   22.5360 C   0  0  0  0  0  0  0  0  0  0  0  0
  -30.4140  -19.7150   21.1180 C   0  0  0  0  0  0  0  0  0  0  0  0
  -30.6770  -17.1570   20.9050 C   0  0  0  0  0  0  0  0  0  0  0  0
  -30.5340  -18.2450   23.1070 C   0  0  0  0  0  0  0  0  0  0  0  0
  -30.3810  -20.7550   23.4650 C   0  0  0  0  0  1  0  0  0  0  0  0
  -30.5010  -18.0010   24.8210 Cl  0  0  0  0  0  0  0  0  0  0  0  0
  -31.3310  -14.6780   20.3060 C   0  0  0  0  0  0  0  0  0  0  0  0
  -30.9820  -12.4320   19.2500 C   0  0  0  0  0  2  0  0  0  0  0  0
  -30.0540  -12.5900   18.0270 C   0  0  0  0  0  2  0  0  0  0  0  0
  -28.5720  -12.5210   18.4500 C   0  0  0  0  0  2  0  0  0  0  0  0
  -28.2570  -13.4160   19.6790 C   0  0  0  0  0  3  0  0  0  0  0  0
  -29.3070  -13.2400   20.7970 C   0  0  0  0  0  2  0  0  0  0  0  0
  -30.6210  -13.5040   20.1980 N   0  0  0  0  0  0  0  0  0  0  0  0
  -32.5490  -14.6910   20.1100 O   0  0  0  0  0  0  0  0  0  0  0  0
  -30.5930  -15.8510   20.2130 N   0  0  0  0  0  0  0  0  0  0  0  0
  -29.6450  -15.6270   19.9550 H   0  0  0  0  0  0  0  0  0  0  0  0
  -25.9170  -14.1800   20.3980 C   0  0  0  0  0  0  0  0  0  0  0  0
  -24.7950  -13.4860   20.7560 C   0  0  0  0  0  0  0  0  0  0  0  0
  -25.1580  -12.1040   20.7250 C   0  0  0  0  0  0  0  0  0  0  0  0
  -26.8950  -13.2260   20.1640 N   0  0  0  0  0  0  0  0  0  0  0  0
  -26.4450  -11.9730   20.4260 N   0  0  0  0  0  0  0  0  0  0  0  0
  -24.3400  -10.8980   20.9060 C   0  0  0  0  0  0  0  0  0  0  0  0
  -24.6990   -9.8920   21.8300 C   0  0  0  0  0  3  0  0  0  0  0  0
  -23.8850   -8.7510   21.9970 C   0  0  0  0  0  3  0  0  0  0  0  0
  -22.6970   -8.6080   21.2420 C   0  0  0  0  0  0  0  0  0  0  0  0
  -22.3550   -9.6010   20.3070 C   0  0  0  0  0  3  0  0  0  0  0  0
  -23.1700  -10.7340   20.1380 C   0  0  0  0  0  3  0  0  0  0  0  0
  -21.8620   -7.5200   21.3180 O   0  0  0  0  0  0  0  0  0  0  0  0
  -21.7610   -6.7680   22.4610 C   0  0  0  0  0  0  0  0  0  0  0  0
  -21.4040   -7.3440   23.7010 C   0  0  0  0  0  3  0  0  0  0  0  0
  -21.2420   -6.5240   24.8370 C   0  0  0  0  0  3  0  0  0  0  0  0
  -21.4280   -5.1320   24.7330 C   0  0  0  0  0  0  0  0  0  0  0  0
  -21.7780   -4.5580   23.4990 C   0  0  0  0  0  3  0  0  0  0  0  0
  -21.9400   -5.3740   22.3650 C   0  0  0  0  0  0  0  0  0  0  0  0
  -22.2570   -4.8130   21.1740 F   0  0  0  0  0  0  0  0  0  0  0  0
  -21.2630   -4.3440   25.8220 F   0  0  0  0  0  0  0  0  0  0  0  0
  -23.4340  -14.0670   21.0130 C   0  0  0  0  0  0  0  0  0  0  0  0
  -22.6520  -13.4410   21.8850 N   0  0  0  0  0  0  0  0  0  0  0  0
  -23.0750  -15.1110   20.4730 O   0  0  0  0  0  0  0  0  0  0  0  0
  -22.9500  -12.5950   22.3450 H   0  0  0  0  0  0  0  0  0  0  0  0
  -21.7400  -13.8230   22.1010 H   0  0  0  0  0  0  0  0  0  0  0  0
  -26.1840  -15.5360   20.2300 N   0  0  0  0  0  0  0  0  0  0  0  0
  -25.4680  -16.2440   20.3520 H   0  0  0  0  0  0  0  0  0  0  0  0
  -27.0660  -15.9170   19.9130 H   0  0  0  0  0  0  0  0  0  0  0  0
  -30.4060  -22.7940   15.8630 C   0  0  0  0  0  1  0  0  0  0  0  0
  -31.3270  -23.5340   16.8440 C   0  0  0  0  0  2  0  0  0  0  0  0
  -28.6060  -24.7570   20.7790 C   0  0  0  0  0  2  0  0  0  0  0  0
  -28.8080  -26.2590   20.7310 O   0  0  0  0  0  0  0  0  0  0  0  0
  -24.7650  -31.7380   23.3170 C   0  0  0  0  0  0  0  0  0  0  0  0
  -27.6810  -27.1130   20.5930 C   0  0  0  0  0  0  0  0  0  0  0  0
  -23.7000  -30.2360   21.6770 C   0  0  0  0  0  3  0  0  0  0  0  0
  -25.2750  -28.6860   20.3900 C   0  0  0  0  0  0  0  0  0  0  0  0
  -26.2380  -30.6280   21.6140 C   0  0  0  0  0  2  0  0  0  0  0  0
  -26.4000  -29.2240   21.0270 C   0  0  0  0  0  0  0  0  0  0  0  0
  -27.6060  -28.4520   21.1140 C   0  0  0  0  0  3  0  0  0  0  0  0
  -26.5270  -26.6490   19.9180 C   0  0  0  0  0  3  0  0  0  0  0  0
  -25.3450  -27.4060   19.8240 C   0  0  0  0  0  3  0  0  0  0  0  0
  -24.0120  -29.5230   20.3350 C   0  0  0  0  0  2  0  0  0  0  0  0
  -24.9170  -30.8890   22.2580 N   0  0  0  0  0  0  0  0  0  0  0  0
  -23.6450  -31.9950   23.7830 O   0  0  0  0  0  0  0  0  0  0  0  0
  -23.0220  -29.2320   22.6410 C   0  0  0  0  0  0  0  0  0  0  0  0
  -21.7120  -28.9990   22.4520 N   0  0  0  0  0  0  0  0  0  0  0  0
  -23.6770  -28.6620   23.5170 O   0  0  0  0  0  0  0  0  0  0  0  0
  -21.2420  -29.5090   21.7180 H   0  0  0  0  0  0  0  0  0  0  0  0
  -18.3640  -27.6670   22.8050 C   0  0  0  0  0  0  0  0  0  0  0  0
  -20.8870  -28.0620   23.2180 C   0  0  0  0  0  3  0  0  0  0  0  0
  -21.0900  -26.6110   22.7260 C   0  0  0  0  0  2  0  0  0  0  0  0
  -20.0710  -26.1860   21.6660 C   0  0  0  0  0  2  0  0  0  0  0  0
  -18.6440  -26.2960   22.2120 C   0  0  0  0  0  2  0  0  0  0  0  0
  -19.4170  -28.5020   23.2630 C   0  0  0  0  0  0  0  0  0  0  0  0
  -19.1040  -29.7800   23.7750 C   0  0  0  0  0  3  0  0  0  0  0  0
  -17.7700  -30.2230   23.8370 C   0  0  0  0  0  3  0  0  0  0  0  0
  -16.7300  -29.3870   23.3950 C   0  0  0  0  0  3  0  0  0  0  0  0
  -17.0280  -28.1110   22.8850 C   0  0  0  0  0  3  0  0  0  0  0  0
  -25.9880  -32.4450   23.9770 C   0  0  0  0  0  3  0  0  0  0  0  0
  -26.4710  -31.7390   25.3020 C   0  0  1  0  0  0  0  0  0  0  0  0
  -25.3370  -31.4920   26.3240 C   0  0  0  0  0  1  0  0  0  0  0  0
  -27.1310  -30.3750   24.9910 C   0  0  0  0  0  1  0  0  0  0  0  0
  -27.5520  -32.6040   25.9920 C   0  0  0  0  0  1  0  0  0  0  0  0
  -25.6040  -33.8380   24.2460 N   0  0  0  0  0  0  0  0  0  0  0  0
  -25.9580  -34.8860   23.4900 C   0  0  0  0  0  0  0  0  0  0  0  0
  -26.7090  -34.7850   22.5170 O   0  0  0  0  0  0  0  0  0  0  0  0
  -24.9460  -33.9880   24.9970 H   0  0  0  0  0  0  0  0  0  0  0  0
  -24.1950  -36.6050   22.9700 C   0  0  0  0  0  1  0  0  0  0  0  0
  -25.3900  -36.2660   23.8750 C   0  0  0  0  0  3  0  0  0  0  0  0
  -27.4320  -37.2440   24.8260 C   0  0  0  0  0  1  0  0  0  0  0  0
  -26.3890  -37.3550   23.8090 N   0  0  0  0  0  0  0  0  0  0  0  0
  -25.9420  -38.2610   23.9140 H   0  0  0  0  0  0  0  0  0  0  0  0
  1  3  1  0
  2  9  2  0
  3  6  1  0
  4  5  1  0
  5  2  1  0
  5 58  1  0
  6  2  1  0
  6 13  1  0
  7  1  1  0
  7  4  1  0
  8  1  2  0
 10 14  2  0
 10 13  1  0
 11 15  2  0
 12 15  1  0
 12 16  1  0
 13 12  2  0
 14 11  1  0
 15 17  1  0
 19 24  1  0
 20 21  1  0
 20 19  1  0
 22 21  1  0
 22 31  1  0
 22 23  1  0
 24 18  1  0
 24 23  1  0
 25 18  2  0
 26 18  1  0
 26 14  1  0
 27 26  1  0
 28 29  2  0
 29 48  1  0
 30 29  1  0
 30 33  1  0
 31 28  1  0
 31 32  1  0
 32 30  2  0
 33 34  1  0
 34 35  2  0
 36 39  1  0
 36 35  1  0
 37 36  2  0
 38 37  1  0
 38 33  2  0
 39 40  1  0
 40 41  1  0
 41 42  2  0
 43 42  1  0
 43 47  1  0
 44 43  2  0
 45 40  2  0
 45 44  1  0
 46 45  1  0
 48 49  1  0
 49 52  1  0
 49 51  1  0
 50 48  2  0
 53 54  1  0
 53 28  1  0
 55 53  1  0
 56 57  1  0
 57  7  1  0
 59 58  1  0
 60 71  2  0
 61 59  1  0
 61 66  1  0
 62 70  1  0
 62 72  1  0
 63 65  1  0
 64 70  1  0
 65 66  2  0
 65 64  1  0
 67 61  2  0
 68 67  1  0
 68 63  2  0
 69 63  1  0
 69 62  1  0
 70 60  1  0
 72 74  2  0
 73 72  1  0
 75 73  1  0
 76 85  2  0
 76 81  1  0
 77 73  1  0
 77 81  1  0
 78 77  1  0
 79 80  1  0
 79 78  1  0
 80 76  1  0
 81 82  2  0
 82 83  1  0
 84 83  2  0
 85 84  1  0
 86 60  1  0
 86 91  1  0
 86 87  1  0
 87 90  1  1
 87 88  1  0
 89 87  1  0
 91 94  1  0
 92 96  1  0
 92 91  1  0
 93 92  2  0
 96 95  1  0
 98 96  1  0
 98 99  1  0
 98 97  1  0
M  ISO  4  18 100  26 100  58 101  59 101
M  END
>  <TORSDO>  (45) 
F 19

>  <SCORE>  (45) 
-11.784

>  <name>  (45) 
44

>  <ligand_id>  (45) 
44

>  <original_smiles>  (45) 
[H]c1c([H])c([H])c2c(c1[H])C([H])([H])C([H])([H])C([H])([H])C2([H])N([H])C(=O)C1([H])N(C(=O)C([H])(N([H])C(=O)C([H])(N([H])C([H])([H])[H])C([H])([H])[H])C(C([H])([H])[H])(C([H])([H])[H])C([H])([H])[H])C([H])([H])c2c([H])c(OC([H])([H])C3([H])C(=O)N(c4c([H])c(N([H])C(=O)N5C([H])([H])C([H])([H])C([H])([H])C([H])(n6nc(-c7c([H])c([H])c(Oc8c([H])c([H])c(F)c([H])c8F)c([H])c7[H])c(C(=O)N([H])[H])c6N([H])[H])C5([H])[H])c([H])c(Cl)c4C([H])([H])[H])C([H])([H])C(=O)N(C([H])([H])C([H])([H])[H])C3([H])[H])c([H])c([H])c2C1([H])[H]

>  <smiles>  (45) 
[H]c1c([H])c([H])c2c(c1[H])C([H])([H])C([H])([H])C([H])([H])C2([H])N([H])C(=O)C1([H])N(C(=O)C([H])(N([H])C(=O)C([H])(N([H])C([H])([H])[H])C([H])([H])[H])C(C([H])([H])[H])(C([H])([H])[H])C([H])([H])[H])C([H])([H])c2c([H])c(OC([H])([H])C3([H])C(=O)N(c4c([H])c(N([H])C(=O)N5C([H])([H])C([H])([H])C([H])([H])C([H])(n6nc(-c7c([H])c([H])c(Oc8c([H])c([H])c(F)c([H])c8F)c([H])c7[H])c(C(=O)N([H])[H])c6N([H])[H])C5([H])[H])c([H])c(Cl)c4C([H])([H])[H])C([H])([H])C(=O)N(C([H])([H])C([H])([H])[H])C3([H])[H])c([H])c([H])c2C1([H])[H]

$$$$
45:0:0
     RDKit          3D

100108  0  0  1  0  0  0  0  0999 V2000
  -32.4710  -18.9020   18.0890 C   0  0  0  0  0  0  0  0  0  0  0  0
  -32.6390  -20.2250   18.0530 N   0  0  0  0  0  0  0  0  0  0  0  0
  -33.2270  -18.1050   17.5310 O   0  0  0  0  0  0  0  0  0  0  0  0
  -31.9810  -20.7790   18.5800 H   0  0  0  0  0  0  0  0  0  0  0  0
  -29.1920  -17.7720   20.6740 C   0  0  0  0  0  3  0  0  0  0  0  0
  -30.6830  -19.4260   19.7120 C   0  0  0  0  0  3  0  0  0  0  0  0
  -29.8510  -16.7480   19.9520 C   0  0  0  0  0  0  0  0  0  0  0  0
  -31.3660  -18.4310   18.9910 C   0  0  0  0  0  0  0  0  0  0  0  0
  -30.9790  -17.0660   19.1310 C   0  0  0  0  0  0  0  0  0  0  0  0
  -29.6130  -19.1100   20.5590 C   0  0  0  0  0  0  0  0  0  0  0  0
  -31.7840  -15.9560   18.4450 C   0  0  0  0  0  1  0  0  0  0  0  0
  -29.3660  -21.4560   21.4450 C   0  0  0  0  0  0  0  0  0  0  0  0
  -28.7120  -23.4810   20.2540 C   0  0  0  0  0  2  0  0  0  0  0  0
  -27.5380  -23.1170   19.3200 C   0  0  0  0  0  2  0  0  0  0  0  0
  -28.0630  -22.6190   17.9580 C   0  0  0  0  0  2  0  0  0  0  0  0
  -29.1690  -21.5370   18.0900 C   0  0  0  0  0  3  0  0  0  0  0  0
  -30.2350  -21.9650   19.1240 C   0  0  0  0  0  2  0  0  0  0  0  0
  -29.5440  -22.2780   20.3800 N   0  0  0  0  0  0  0  0  0  0  0  0
  -29.0430  -21.8580   22.5630 O   0  0  0  0  0  0  0  0  0  0  0  0
  -28.9650  -20.2140   21.1530 N   0  0  0  0  0  0  0  0  0  0  0  0
  -28.2030  -19.9410   21.7550 H   0  0  0  0  0  0  0  0  0  0  0  0
  -29.6350  -20.0600   16.0340 C   0  0  0  0  0  0  0  0  0  0  0  0
  -30.3230  -20.2980   14.8750 C   0  0  0  0  0  0  0  0  0  0  0  0
  -30.8450  -21.6230   14.9930 C   0  0  0  0  0  0  0  0  0  0  0  0
  -29.7630  -21.2100   16.7970 N   0  0  0  0  0  0  0  0  0  0  0  0
  -30.5460  -22.1330   16.1810 N   0  0  0  0  0  0  0  0  0  0  0  0
  -31.5670  -22.4540   14.0220 C   0  0  0  0  0  0  0  0  0  0  0  0
  -32.9770  -22.4510   13.9540 C   0  0  0  0  0  3  0  0  0  0  0  0
  -33.6490  -23.2450   13.0000 C   0  0  0  0  0  3  0  0  0  0  0  0
  -32.9080  -24.0490   12.1000 C   0  0  0  0  0  0  0  0  0  0  0  0
  -31.5040  -24.0650   12.1880 C   0  0  0  0  0  3  0  0  0  0  0  0
  -30.8390  -23.2780   13.1410 C   0  0  0  0  0  3  0  0  0  0  0  0
  -33.4740  -24.8720   11.1570 O   0  0  0  0  0  0  0  0  0  0  0  0
  -34.3330  -24.3880   10.2030 C   0  0  0  0  0  0  0  0  0  0  0  0
  -33.8800  -23.6010    9.1210 C   0  0  0  0  0  3  0  0  0  0  0  0
  -34.7860  -23.1840    8.1260 C   0  0  0  0  0  3  0  0  0  0  0  0
  -36.1410  -23.5590    8.2040 C   0  0  0  0  0  0  0  0  0  0  0  0
  -36.5940  -24.3460    9.2790 C   0  0  0  0  0  3  0  0  0  0  0  0
  -35.6910  -24.7610   10.2730 C   0  0  0  0  0  0  0  0  0  0  0  0
  -36.1270  -25.5380   11.2930 F   0  0  0  0  0  0  0  0  0  0  0  0
  -37.0100  -23.1650    7.2450 F   0  0  0  0  0  0  0  0  0  0  0  0
  -30.4120  -19.3880   13.6850 C   0  0  0  0  0  0  0  0  0  0  0  0
  -31.6200  -19.1410   13.1930 N   0  0  0  0  0  0  0  0  0  0  0  0
  -29.4100  -18.8490   13.2150 O   0  0  0  0  0  0  0  0  0  0  0  0
  -32.4430  -19.5620   13.5960 H   0  0  0  0  0  0  0  0  0  0  0  0
  -31.7250  -18.5190   12.4040 H   0  0  0  0  0  0  0  0  0  0  0  0
  -28.9000  -18.9710   16.4850 N   0  0  0  0  0  0  0  0  0  0  0  0
  -28.7820  -18.1350   15.9230 H   0  0  0  0  0  0  0  0  0  0  0  0
  -28.4940  -18.8880   17.4090 H   0  0  0  0  0  0  0  0  0  0  0  0
  -29.3260  -15.3660   20.1420 C   0  0  0  0  0  0  0  0  0  0  0  0
  -27.9800  -15.0340   19.5080 C   0  0  0  0  0  1  0  0  0  0  0  0
  -29.8880  -14.5160   20.8380 O   0  0  0  0  0  0  0  0  0  0  0  0
  -33.8030  -20.8890   17.4860 C   0  0  0  0  0  2  0  0  0  0  0  0
  -34.6730  -23.2150   17.3310 C   0  0  0  0  0  0  0  0  0  0  0  0
  -33.6960  -22.3370   17.5910 N   0  0  0  0  0  0  0  0  0  0  0  0
  -35.8120  -22.8740   17.0030 O   0  0  0  0  0  0  0  0  0  0  0  0
  -32.7830  -22.7070   17.8220 H   0  0  0  0  0  0  0  0  0  0  0  0
  -34.3230  -24.6930   17.4680 C   0  0  0  0  0  2  0  0  0  0  0  0
  -32.8200  -24.9090   17.7230 C   0  0  0  0  0  2  0  0  0  0  0  0
  -32.4490  -26.2460   17.4080 O   0  0  0  0  0  0  0  0  0  0  0  0
  -33.7640  -32.4920   14.3270 C   0  0  0  0  0  0  0  0  0  0  0  0
  -33.0120  -26.8710   16.3160 C   0  0  0  0  0  0  0  0  0  0  0  0
  -34.2940  -30.5030   12.9560 C   0  0  0  0  0  3  0  0  0  0  0  0
  -34.2250  -28.2690   14.1790 C   0  0  0  0  0  0  0  0  0  0  0  0
  -34.3500  -30.3820   15.5100 C   0  0  0  0  0  2  0  0  0  0  0  0
  -33.9660  -28.9240   15.3870 C   0  0  0  0  0  0  0  0  0  0  0  0
  -33.3610  -28.2300   16.4550 C   0  0  0  0  0  3  0  0  0  0  0  0
  -33.2680  -26.2260   15.0820 C   0  0  0  0  0  3  0  0  0  0  0  0
  -33.8700  -26.9190   14.0170 C   0  0  0  0  0  3  0  0  0  0  0  0
  -34.8900  -29.0780   13.0900 C   0  0  0  0  0  2  0  0  0  0  0  0
  -34.0990  -31.1720   14.2830 N   0  0  0  0  0  0  0  0  0  0  0  0
  -33.6600  -33.1610   13.2890 O   0  0  0  0  0  0  0  0  0  0  0  0
  -32.9980  -30.4150   12.1160 C   0  0  0  0  0  0  0  0  0  0  0  0
  -33.1510  -30.1380   10.8120 N   0  0  0  0  0  0  0  0  0  0  0  0
  -31.8920  -30.5630   12.6420 O   0  0  0  0  0  0  0  0  0  0  0  0
  -34.0910  -30.0390   10.4530 H   0  0  0  0  0  0  0  0  0  0  0  0
  -32.4290  -29.1030    7.4340 C   0  0  0  0  0  0  0  0  0  0  0  0
  -32.0720  -29.9710    9.8410 C   0  0  0  0  0  3  0  0  0  0  0  0
  -31.2960  -28.6560   10.0870 C   0  0  0  0  0  2  0  0  0  0  0  0
  -31.8460  -27.4760    9.2810 C   0  0  0  0  0  2  0  0  0  0  0  0
  -31.7730  -27.7760    7.7830 C   0  0  0  0  0  2  0  0  0  0  0  0
  -32.5830  -30.1270    8.4050 C   0  0  0  0  0  0  0  0  0  0  0  0
  -33.2350  -31.3250    8.0390 C   0  0  0  0  0  3  0  0  0  0  0  0
  -33.7230  -31.5080    6.7330 C   0  0  0  0  0  3  0  0  0  0  0  0
  -33.5560  -30.4970    5.7730 C   0  0  0  0  0  3  0  0  0  0  0  0
  -32.9040  -29.3020    6.1220 C   0  0  0  0  0  3  0  0  0  0  0  0
  -33.5180  -33.2300   15.6810 C   0  0  0  0  0  3  0  0  0  0  0  0
  -34.5490  -34.2690   15.8090 N   0  0  0  0  0  0  0  0  0  0  0  0
  -35.5570  -34.2340   16.6910 C   0  0  0  0  0  0  0  0  0  0  0  0
  -35.6770  -33.3430   17.5360 O   0  0  0  0  0  0  0  0  0  0  0  0
  -34.5450  -34.9990   15.1110 H   0  0  0  0  0  0  0  0  0  0  0  0
  -37.9890  -34.7680   16.3400 C   0  0  0  0  0  1  0  0  0  0  0  0
  -36.6000  -35.3650   16.6200 C   0  0  0  0  0  3  0  0  0  0  0  0
  -35.5010  -37.0850   17.9850 C   0  0  0  0  0  1  0  0  0  0  0  0
  -36.6510  -36.1950   17.8440 N   0  0  0  0  0  0  0  0  0  0  0  0
  -37.4960  -36.7600   17.8620 H   0  0  0  0  0  0  0  0  0  0  0  0
  -32.0750  -33.8550   15.7960 C   0  0  1  0  0  0  0  0  0  0  0  0
  -31.6900  -34.7580   14.6010 C   0  0  0  0  0  1  0  0  0  0  0  0
  -31.0070  -32.7430   15.9110 C   0  0  0  0  0  1  0  0  0  0  0  0
  -31.9710  -34.7000   17.0890 C   0  0  0  0  0  1  0  0  0  0  0  0
  1  8  1  0
  2  1  1  0
  2  4  1  0
  3  1  2  0
  6 10  2  0
  7 50  1  0
  7  5  2  0
  8  9  2  0
  8  6  1  0
  9  7  1  0
 10  5  1  0
 10 20  1  0
 11  9  1  0
 12 19  2  0
 13 18  1  0
 14 13  1  0
 15 16  1  0
 15 14  1  0
 16 25  1  0
 16 17  1  0
 17 18  1  0
 18 12  1  0
 20 12  1  0
 20 21  1  0
 22 47  1  0
 22 25  1  0
 23 24  1  0
 23 22  2  0
 24 26  2  0
 26 25  1  0
 27 24  1  0
 28 27  1  0
 29 28  2  0
 30 31  2  0
 30 29  1  0
 31 32  1  0
 32 27  2  0
 33 30  1  0
 34 39  1  0
 34 33  1  0
 35 34  2  0
 36 37  2  0
 36 35  1  0
 37 38  1  0
 38 39  2  0
 39 40  1  0
 41 37  1  0
 42 23  1  0
 43 45  1  0
 43 42  1  0
 44 42  2  0
 46 43  1  0
 47 49  1  0
 48 47  1  0
 50 52  2  0
 51 50  1  0
 53 55  1  0
 53  2  1  0
 54 58  1  0
 54 55  1  0
 55 57  1  0
 56 54  2  0
 58 59  1  0
 60 59  1  0
 62 67  1  0
 62 60  1  0
 63 73  1  0
 63 70  1  0
 63 71  1  0
 64 66  1  0
 66 65  1  0
 66 67  2  0
 68 62  2  0
 69 64  2  0
 69 68  1  0
 70 64  1  0
 71 61  1  0
 71 65  1  0
 72 61  2  0
 73 75  2  0
 74 73  1  0
 76 74  1  0
 77 81  1  0
 77 82  1  0
 78 79  1  0
 78 74  1  0
 80 79  1  0
 81 80  1  0
 82 78  1  0
 83 82  2  0
 84 83  1  0
 85 86  1  0
 85 84  2  0
 86 77  2  0
 87 61  1  0
 87 97  1  0
 87 88  1  0
 88 89  1  0
 89 90  2  0
 91 88  1  0
 93 92  1  0
 93 89  1  0
 93 95  1  0
 95 96  1  0
 95 94  1  0
 97 99  1  1
 97100  1  0
 98 97  1  0
M  ISO  4  12 100  20 100  59 101  60 101
M  END
>  <TORSDO>  (46) 
F 22

>  <SCORE>  (46) 
-4.238

>  <name>  (46) 
45

>  <ligand_id>  (46) 
45

>  <original_smiles>  (46) 
[H]c1c([H])c([H])c2c(c1[H])C([H])([H])C([H])([H])C([H])([H])C2([H])N([H])C(=O)C1([H])N(C(=O)C([H])(N([H])C(=O)C([H])(N([H])C([H])([H])[H])C([H])([H])[H])C(C([H])([H])[H])(C([H])([H])[H])C([H])([H])[H])C([H])([H])c2c([H])c(OC([H])([H])C([H])([H])C(=O)N([H])C([H])([H])N([H])C(=O)c3c([H])c(N([H])C(=O)N4C([H])([H])C([H])([H])C([H])([H])C([H])(n5nc(-c6c([H])c([H])c(Oc7c([H])c([H])c(F)c([H])c7F)c([H])c6[H])c(C(=O)N([H])[H])c5N([H])[H])C4([H])[H])c([H])c(C(=O)C([H])([H])[H])c3C([H])([H])[H])c([H])c([H])c2C1([H])[H]

>  <smiles>  (46) 
[H]c1c([H])c([H])c2c(c1[H])C([H])([H])C([H])([H])C([H])([H])C2([H])N([H])C(=O)C1([H])N(C(=O)C([H])(N([H])C(=O)C([H])(N([H])C([H])([H])[H])C([H])([H])[H])C(C([H])([H])[H])(C([H])([H])[H])C([H])([H])[H])C([H])([H])c2c([H])c(OC([H])([H])C([H])([H])C(=O)N([H])C([H])([H])N([H])C(=O)c3c([H])c(N([H])C(=O)N4C([H])([H])C([H])([H])C([H])([H])C([H])(n5nc(-c6c([H])c([H])c(Oc7c([H])c([H])c(F)c([H])c7F)c([H])c6[H])c(C(=O)N([H])[H])c5N([H])[H])C4([H])[H])c([H])c(C(=O)C([H])([H])[H])c3C([H])([H])[H])c([H])c([H])c2C1([H])[H]

$$$$
46:0:0
     RDKit          3D

 94102  0  0  1  0  0  0  0  0999 V2000
  -29.7170  -22.3680   21.6220 C   0  0  0  0  0  0  0  0  0  0  0  0
  -30.3410  -21.1960   21.3950 N   0  0  0  0  0  0  0  0  0  0  0  0
  -28.7710  -22.4850   22.4030 O   0  0  0  0  0  0  0  0  0  0  0  0
  -31.0450  -21.2060   20.6700 H   0  0  0  0  0  0  0  0  0  0  0  0
  -30.5190  -20.1320   22.3870 C   0  0  0  0  0  2  0  0  0  0  0  0
  -28.5270  -18.6720   22.9060 C   0  0  0  0  0  3  0  0  0  0  0  0
  -28.3050  -16.4030   22.0360 C   0  0  0  0  0  3  0  0  0  0  0  0
  -30.2080  -17.7780   21.3790 C   0  0  0  0  0  3  0  0  0  0  0  0
  -27.8180  -17.4580   22.8380 C   0  0  0  0  0  0  0  0  0  0  0  0
  -29.7270  -18.8400   22.1900 C   0  0  0  0  0  0  0  0  0  0  0  0
  -29.4980  -16.5520   21.2980 C   0  0  0  0  0  0  0  0  0  0  0  0
  -26.5310  -17.2900   23.6220 C   0  0  0  0  0  1  0  0  0  0  0  0
  -30.6690  -14.5020   20.5140 C   0  0  0  0  0  0  0  0  0  0  0  0
  -30.4200  -12.3130   19.4200 C   0  0  0  0  0  2  0  0  0  0  0  0
  -29.4930  -12.5170   18.2030 C   0  0  0  0  0  2  0  0  0  0  0  0
  -28.0120  -12.3770   18.6100 C   0  0  0  0  0  2  0  0  0  0  0  0
  -27.6570  -13.2110   19.8760 C   0  0  0  0  0  3  0  0  0  0  0  0
  -28.7070  -12.9930   20.9920 C   0  0  0  0  0  2  0  0  0  0  0  0
  -30.0230  -13.3080   20.4250 N   0  0  0  0  0  0  0  0  0  0  0  0
  -31.8600  -14.6370   20.2280 O   0  0  0  0  0  0  0  0  0  0  0  0
  -29.8720  -15.5720   20.3340 N   0  0  0  0  0  0  0  0  0  0  0  0
  -30.2210  -16.0400   19.5110 H   0  0  0  0  0  0  0  0  0  0  0  0
  -25.2560  -13.8210   20.5700 C   0  0  0  0  0  0  0  0  0  0  0  0
  -24.1820  -13.0480   20.9190 C   0  0  0  0  0  0  0  0  0  0  0  0
  -24.6390  -11.6940   20.8740 C   0  0  0  0  0  0  0  0  0  0  0  0
  -26.3000  -12.9380   20.3390 N   0  0  0  0  0  0  0  0  0  0  0  0
  -25.9300  -11.6540   20.5730 N   0  0  0  0  0  0  0  0  0  0  0  0
  -23.9060  -10.4320   21.0390 C   0  0  0  0  0  0  0  0  0  0  0  0
  -24.3620   -9.4240   21.9170 C   0  0  0  0  0  3  0  0  0  0  0  0
  -23.6300   -8.2270   22.0740 C   0  0  0  0  0  3  0  0  0  0  0  0
  -22.4280   -8.0300   21.3540 C   0  0  0  0  0  0  0  0  0  0  0  0
  -21.9910   -9.0270   20.4650 C   0  0  0  0  0  3  0  0  0  0  0  0
  -22.7230  -10.2150   20.3040 C   0  0  0  0  0  3  0  0  0  0  0  0
  -21.6650   -6.8880   21.4240 O   0  0  0  0  0  0  0  0  0  0  0  0
  -21.6880   -6.0740   22.5280 C   0  0  0  0  0  0  0  0  0  0  0  0
  -21.4020   -6.5640   23.8220 C   0  0  0  0  0  3  0  0  0  0  0  0
  -21.3650   -5.6790   24.9180 C   0  0  0  0  0  3  0  0  0  0  0  0
  -21.6040   -4.3050   24.7240 C   0  0  0  0  0  0  0  0  0  0  0  0
  -21.8820   -3.8150   23.4350 C   0  0  0  0  0  3  0  0  0  0  0  0
  -21.9200   -4.6960   22.3410 C   0  0  0  0  0  0  0  0  0  0  0  0
  -22.1670   -4.2160   21.0990 F   0  0  0  0  0  0  0  0  0  0  0  0
  -21.5620   -3.4530   25.7740 F   0  0  0  0  0  0  0  0  0  0  0  0
  -22.7850  -13.5260   21.1860 C   0  0  0  0  0  0  0  0  0  0  0  0
  -22.0470  -12.8280   22.0410 N   0  0  0  0  0  0  0  0  0  0  0  0
  -22.3520  -14.5570   20.6690 O   0  0  0  0  0  0  0  0  0  0  0  0
  -22.4050  -11.9940   22.4850 H   0  0  0  0  0  0  0  0  0  0  0  0
  -21.1070  -13.1310   22.2560 H   0  0  0  0  0  0  0  0  0  0  0  0
  -25.4220  -15.1940   20.4030 N   0  0  0  0  0  0  0  0  0  0  0  0
  -24.6430  -15.8390   20.4820 H   0  0  0  0  0  0  0  0  0  0  0  0
  -26.2720  -15.6400   20.0830 H   0  0  0  0  0  0  0  0  0  0  0  0
  -30.3430  -23.6150   20.9740 C   0  0  0  0  0  2  0  0  0  0  0  0
  -29.4200  -24.5050   20.0970 C   0  0  0  0  0  2  0  0  0  0  0  0
  -28.4790  -25.4980   20.8260 C   0  0  0  0  0  2  0  0  0  0  0  0
  -28.4250  -26.7260   20.0810 O   0  0  0  0  0  0  0  0  0  0  0  0
  -24.6130  -31.8670   23.2040 C   0  0  0  0  0  0  0  0  0  0  0  0
  -27.2480  -27.4360   20.1260 C   0  0  0  0  0  0  0  0  0  0  0  0
  -23.4060  -30.4790   21.5460 C   0  0  0  0  0  3  0  0  0  0  0  0
  -24.8610  -28.9460   20.1160 C   0  0  0  0  0  0  0  0  0  0  0  0
  -25.9290  -30.8360   21.3580 C   0  0  0  0  0  2  0  0  0  0  0  0
  -26.0150  -29.4660   20.7180 C   0  0  0  0  0  0  0  0  0  0  0  0
  -27.2110  -28.7150   20.7210 C   0  0  0  0  0  3  0  0  0  0  0  0
  -26.0810  -26.9240   19.5190 C   0  0  0  0  0  3  0  0  0  0  0  0
  -24.8890  -27.6750   19.5130 C   0  0  0  0  0  3  0  0  0  0  0  0
  -23.6200  -29.8080   20.1600 C   0  0  0  0  0  2  0  0  0  0  0  0
  -24.6660  -31.0750   22.0950 N   0  0  0  0  0  0  0  0  0  0  0  0
  -23.5300  -32.1460   23.7370 O   0  0  0  0  0  0  0  0  0  0  0  0
  -22.7440  -29.4580   22.4990 C   0  0  0  0  0  0  0  0  0  0  0  0
  -21.4150  -29.3000   22.3820 N   0  0  0  0  0  0  0  0  0  0  0  0
  -23.4230  -28.8130   23.3040 O   0  0  0  0  0  0  0  0  0  0  0  0
  -20.9330  -29.8770   21.7080 H   0  0  0  0  0  0  0  0  0  0  0  0
  -18.0250  -28.1400   22.8490 C   0  0  0  0  0  0  0  0  0  0  0  0
  -20.5840  -28.3630   23.1390 C   0  0  0  0  0  3  0  0  0  0  0  0
  -20.6750  -26.9390   22.5440 C   0  0  0  0  0  2  0  0  0  0  0  0
  -19.5730  -26.6380   21.5240 C   0  0  0  0  0  2  0  0  0  0  0  0
  -18.1910  -26.7940   22.1630 C   0  0  0  0  0  2  0  0  0  0  0  0
  -19.1500  -28.8840   23.2930 C   0  0  0  0  0  0  0  0  0  0  0  0
  -18.9420  -30.1450   23.8920 C   0  0  0  0  0  3  0  0  0  0  0  0
  -17.6420  -30.6600   24.0560 C   0  0  0  0  0  3  0  0  0  0  0  0
  -16.5320  -29.9100   23.6320 C   0  0  0  0  0  3  0  0  0  0  0  0
  -16.7240  -28.6520   23.0340 C   0  0  0  0  0  3  0  0  0  0  0  0
  -25.9010  -32.4830   23.8380 C   0  0  0  0  0  3  0  0  0  0  0  0
  -25.5880  -33.8630   24.2320 N   0  0  0  0  0  0  0  0  0  0  0  0
  -25.9030  -34.9490   23.5130 C   0  0  0  0  0  0  0  0  0  0  0  0
  -26.5600  -34.8940   22.4700 O   0  0  0  0  0  0  0  0  0  0  0  0
  -25.0090  -33.9810   25.0500 H   0  0  0  0  0  0  0  0  0  0  0  0
  -24.1490  -36.7320   23.2630 C   0  0  0  0  0  1  0  0  0  0  0  0
  -25.4110  -36.3120   24.0330 C   0  0  0  0  0  3  0  0  0  0  0  0
  -27.5580  -37.1810   24.8470 C   0  0  0  0  0  1  0  0  0  0  0  0
  -26.4290  -37.3800   23.9410 N   0  0  0  0  0  0  0  0  0  0  0  0
  -26.0190  -38.2890   24.1380 H   0  0  0  0  0  0  0  0  0  0  0  0
  -26.4450  -31.6630   25.0730 C   0  0  1  0  0  0  0  0  0  0  0  0
  -25.3700  -31.3770   26.1470 C   0  0  0  0  0  1  0  0  0  0  0  0
  -27.0290  -30.3070   24.6120 C   0  0  0  0  0  1  0  0  0  0  0  0
  -27.6030  -32.4350   25.7490 C   0  0  0  0  0  1  0  0  0  0  0  0
  1  3  2  0
  2  1  1  0
  2  5  1  0
  4  2  1  0
  7  9  2  0
  8 10  1  0
  9  6  1  0
  9 12  1  0
 10  5  1  0
 10  6  2  0
 11  8  2  0
 11  7  1  0
 14 19  1  0
 15 16  1  0
 15 14  1  0
 17 16  1  0
 17 26  1  0
 17 18  1  0
 19 13  1  0
 19 18  1  0
 20 13  2  0
 21 13  1  0
 21 11  1  0
 22 21  1  0
 23 24  2  0
 24 43  1  0
 25 24  1  0
 25 28  1  0
 26 23  1  0
 26 27  1  0
 27 25  2  0
 28 29  1  0
 29 30  2  0
 31 34  1  0
 31 30  1  0
 32 31  2  0
 33 32  1  0
 33 28  2  0
 34 35  1  0
 35 36  1  0
 36 37  2  0
 38 37  1  0
 38 42  1  0
 39 38  2  0
 40 35  2  0
 40 39  1  0
 41 40  1  0
 43 44  1  0
 44 47  1  0
 44 46  1  0
 45 43  2  0
 48 49  1  0
 48 23  1  0
 50 48  1  0
 51  1  1  0
 52 53  1  0
 52 51  1  0
 54 56  1  0
 54 53  1  0
 55 66  2  0
 56 61  1  0
 57 65  1  0
 57 67  1  0
 58 64  1  0
 58 60  1  0
 59 65  1  0
 60 61  2  0
 60 59  1  0
 62 56  2  0
 63 62  1  0
 63 58  2  0
 64 57  1  0
 65 55  1  0
 67 69  2  0
 68 67  1  0
 70 68  1  0
 71 80  2  0
 71 76  1  0
 72 68  1  0
 72 76  1  0
 73 72  1  0
 74 75  1  0
 74 73  1  0
 75 71  1  0
 76 77  2  0
 77 78  1  0
 79 78  2  0
 80 79  1  0
 81 55  1  0
 81 82  1  0
 81 91  1  0
 82 85  1  0
 83 87  1  0
 83 82  1  0
 84 83  2  0
 87 86  1  0
 89 87  1  0
 89 90  1  0
 89 88  1  0
 91 94  1  1
 91 92  1  0
 93 91  1  0
M  ISO  4  13 100  21 100  53 101  54 101
M  END
>  <TORSDO>  (47) 
F 21

>  <SCORE>  (47) 
13.620

>  <name>  (47) 
46

>  <ligand_id>  (47) 
46

>  <original_smiles>  (47) 
[H]c1c([H])c([H])c2c(c1[H])C([H])([H])C([H])([H])C([H])([H])C2([H])N([H])C(=O)C1([H])N(C(=O)C([H])(N([H])C(=O)C([H])(N([H])C([H])([H])[H])C([H])([H])[H])C(C([H])([H])[H])(C([H])([H])[H])C([H])([H])[H])C([H])([H])c2c([H])c(OC([H])([H])C([H])([H])C([H])([H])C(=O)N([H])C([H])([H])c3c([H])c(N([H])C(=O)N4C([H])([H])C([H])([H])C([H])([H])C([H])(n5nc(-c6c([H])c([H])c(Oc7c([H])c([H])c(F)c([H])c7F)c([H])c6[H])c(C(=O)N([H])[H])c5N([H])[H])C4([H])[H])c([H])c(C([H])([H])[H])c3[H])c([H])c([H])c2C1([H])[H]

>  <smiles>  (47) 
[H]c1c([H])c([H])c2c(c1[H])C([H])([H])C([H])([H])C([H])([H])C2([H])N([H])C(=O)C1([H])N(C(=O)C([H])(N([H])C(=O)C([H])(N([H])C([H])([H])[H])C([H])([H])[H])C(C([H])([H])[H])(C([H])([H])[H])C([H])([H])[H])C([H])([H])c2c([H])c(OC([H])([H])C([H])([H])C([H])([H])C(=O)N([H])C([H])([H])c3c([H])c(N([H])C(=O)N4C([H])([H])C([H])([H])C([H])([H])C([H])(n5nc(-c6c([H])c([H])c(Oc7c([H])c([H])c(F)c([H])c7F)c([H])c6[H])c(C(=O)N([H])[H])c5N([H])[H])C4([H])[H])c([H])c(C([H])([H])[H])c3[H])c([H])c([H])c2C1([H])[H]

$$$$
47:0:0
     RDKit          3D

 98107  0  0  1  0  0  0  0  0999 V2000
  -28.6550  -22.1150   19.4460 C   0  0  0  0  0  0  0  0  0  0  0  0
  -28.1660  -21.5660   18.3150 C   0  0  0  0  0  3  0  0  0  0  0  0
  -29.0920  -23.5800   19.5920 C   0  0  0  0  0  2  0  0  0  0  0  0
  -28.5960  -23.5080   22.0340 C   0  0  0  0  0  2  0  0  0  0  0  0
  -28.1070  -22.0510   21.8760 C   0  0  0  0  0  2  0  0  0  0  0  0
  -28.3800  -24.3240   20.7440 C   0  0  0  0  0  3  0  0  0  0  0  0
  -28.7470  -21.3410   20.7350 N   0  0  2  0  0  4  0  0  0  0  0  0
  -28.1610  -20.5280   20.6180 H   0  0  0  0  0  0  0  0  0  0  0  0
  -27.2690  -19.6940   17.0120 C   0  0  0  0  0  2  0  0  0  0  0  0
  -27.7070  -20.1940   18.1780 C   0  0  0  0  0  3  0  0  0  0  0  0
  -30.0740  -20.7350   21.0730 C   0  0  0  0  0  2  0  0  0  0  0  0
  -31.5680  -18.6550   18.2340 C   0  0  0  0  0  3  0  0  0  0  0  0
  -31.1640  -19.7200   19.0500 C   0  0  0  0  0  3  0  0  0  0  0  0
  -31.3060  -17.3350   18.6230 C   0  0  0  0  0  3  0  0  0  0  0  0
  -30.4510  -19.4880   20.2430 C   0  0  0  0  0  0  0  0  0  0  0  0
  -30.1770  -18.1350   20.6400 C   0  0  0  0  0  0  0  0  0  0  0  0
  -30.6470  -17.0400   19.8440 C   0  0  0  0  0  0  0  0  0  0  0  0
  -29.4170  -17.8510   21.9320 C   0  0  0  0  0  1  0  0  0  0  0  0
  -31.1410  -14.5720   19.9020 C   0  0  0  0  0  0  0  0  0  0  0  0
  -30.7990  -12.3490   18.9100 C   0  0  0  0  0  2  0  0  0  0  0  0
  -29.8220  -12.5020   17.7250 C   0  0  0  0  0  2  0  0  0  0  0  0
  -28.3640  -12.3890   18.2110 C   0  0  0  0  0  2  0  0  0  0  0  0
  -28.0690  -13.2850   19.4440 C   0  0  0  0  0  3  0  0  0  0  0  0
  -29.1630  -13.1320   20.5250 C   0  0  0  0  0  2  0  0  0  0  0  0
  -30.4630  -13.3920   19.8930 N   0  0  0  0  0  0  0  0  0  0  0  0
  -32.2950  -14.6620   19.4760 O   0  0  0  0  0  0  0  0  0  0  0  0
  -30.4200  -15.6700   20.2410 N   0  0  0  0  0  0  0  0  0  0  0  0
  -29.5530  -15.4820   20.7190 H   0  0  0  0  0  0  0  0  0  0  0  0
  -25.7230  -13.9330   20.2760 C   0  0  0  0  0  0  0  0  0  0  0  0
  -24.6560  -13.1780   20.6830 C   0  0  0  0  0  0  0  0  0  0  0  0
  -25.0840  -11.8160   20.6110 C   0  0  0  0  0  0  0  0  0  0  0  0
  -26.7350  -13.0320   19.9830 N   0  0  0  0  0  0  0  0  0  0  0  0
  -26.3570  -11.7530   20.2440 N   0  0  0  0  0  0  0  0  0  0  0  0
  -24.3400  -10.5670   20.8150 C   0  0  0  0  0  0  0  0  0  0  0  0
  -24.7270   -9.6290   21.7970 C   0  0  0  0  0  3  0  0  0  0  0  0
  -23.9830   -8.4440   21.9870 C   0  0  0  0  0  3  0  0  0  0  0  0
  -22.8380   -8.1890   21.1960 C   0  0  0  0  0  0  0  0  0  0  0  0
  -22.4710   -9.1160   20.2050 C   0  0  0  0  0  3  0  0  0  0  0  0
  -23.2140  -10.2920   20.0120 C   0  0  0  0  0  3  0  0  0  0  0  0
  -22.0710   -7.0550   21.2930 O   0  0  0  0  0  0  0  0  0  0  0  0
  -21.8830   -6.4130   22.4910 C   0  0  0  0  0  0  0  0  0  0  0  0
  -21.3090   -7.0670   23.6040 C   0  0  0  0  0  3  0  0  0  0  0  0
  -21.0690   -6.3510   24.7940 C   0  0  0  0  0  3  0  0  0  0  0  0
  -21.3910   -4.9830   24.8710 C   0  0  0  0  0  0  0  0  0  0  0  0
  -21.9560   -4.3290   23.7610 C   0  0  0  0  0  3  0  0  0  0  0  0
  -22.1970   -5.0420   22.5740 C   0  0  0  0  0  0  0  0  0  0  0  0
  -22.7220   -4.4020   21.5020 F   0  0  0  0  0  0  0  0  0  0  0  0
  -21.1530   -4.2930   26.0100 F   0  0  0  0  0  0  0  0  0  0  0  0
  -23.2840  -13.6810   21.0250 C   0  0  0  0  0  0  0  0  0  0  0  0
  -22.5910  -13.0030   21.9350 N   0  0  0  0  0  0  0  0  0  0  0  0
  -22.8350  -14.7110   20.5230 O   0  0  0  0  0  0  0  0  0  0  0  0
  -22.9670  -12.1690   22.3630 H   0  0  0  0  0  0  0  0  0  0  0  0
  -21.6730  -13.3220   22.2060 H   0  0  0  0  0  0  0  0  0  0  0  0
  -25.9110  -15.3020   20.1090 N   0  0  0  0  0  0  0  0  0  0  0  0
  -25.1610  -15.9680   20.2520 H   0  0  0  0  0  0  0  0  0  0  0  0
  -26.7440  -15.7220   19.7150 H   0  0  0  0  0  0  0  0  0  0  0  0
  -28.8370  -25.8050   20.9150 C   0  0  0  0  0  2  0  0  0  0  0  0
  -28.6000  -26.6520   19.7770 O   0  0  0  0  0  0  0  0  0  0  0  0
  -24.7320  -31.6220   23.1370 C   0  0  0  0  0  0  0  0  0  0  0  0
  -27.4390  -27.3880   19.8350 C   0  0  0  0  0  0  0  0  0  0  0  0
  -23.5460  -30.2900   21.4230 C   0  0  0  0  0  3  0  0  0  0  0  0
  -25.0250  -28.8520   19.9180 C   0  0  0  0  0  0  0  0  0  0  0  0
  -26.0640  -30.7010   21.2430 C   0  0  0  0  0  2  0  0  0  0  0  0
  -26.1730  -29.3640   20.5360 C   0  0  0  0  0  0  0  0  0  0  0  0
  -27.3850  -28.6370   20.4960 C   0  0  0  0  0  3  0  0  0  0  0  0
  -26.2820  -26.8930   19.2050 C   0  0  0  0  0  3  0  0  0  0  0  0
  -25.0730  -27.6150   19.2500 C   0  0  0  0  0  3  0  0  0  0  0  0
  -23.7650  -29.6850   20.0090 C   0  0  0  0  0  2  0  0  0  0  0  0
  -24.7990  -30.8830   21.9930 N   0  0  0  0  0  0  0  0  0  0  0  0
  -23.6480  -31.8470   23.6930 O   0  0  0  0  0  0  0  0  0  0  0  0
  -22.9130  -29.2090   22.3300 C   0  0  0  0  0  0  0  0  0  0  0  0
  -21.5900  -29.0190   22.2000 N   0  0  0  0  0  0  0  0  0  0  0  0
  -23.6100  -28.5470   23.1020 O   0  0  0  0  0  0  0  0  0  0  0  0
  -21.0890  -29.6070   21.5490 H   0  0  0  0  0  0  0  0  0  0  0  0
  -18.2340  -27.7530   22.6410 C   0  0  0  0  0  0  0  0  0  0  0  0
  -20.7890  -28.0300   22.9210 C   0  0  0  0  0  3  0  0  0  0  0  0
  -20.9100  -26.6330   22.2670 C   0  0  0  0  0  2  0  0  0  0  0  0
  -19.8100  -26.3520   21.2390 C   0  0  0  0  0  2  0  0  0  0  0  0
  -18.4280  -26.4440   21.8920 C   0  0  0  0  0  2  0  0  0  0  0  0
  -19.3440  -28.5050   23.1090 C   0  0  0  0  0  0  0  0  0  0  0  0
  -19.1120  -29.7330   23.7670 C   0  0  0  0  0  3  0  0  0  0  0  0
  -17.8010  -30.2070   23.9610 C   0  0  0  0  0  3  0  0  0  0  0  0
  -16.7060  -29.4500   23.5120 C   0  0  0  0  0  3  0  0  0  0  0  0
  -16.9230  -28.2250   22.8560 C   0  0  0  0  0  3  0  0  0  0  0  0
  -26.0100  -32.2400   23.7880 C   0  0  0  0  0  3  0  0  0  0  0  0
  -26.5700  -31.3870   24.9920 C   0  0  1  0  0  0  0  0  0  0  0  0
  -25.5030  -31.0390   26.0560 C   0  0  0  0  0  1  0  0  0  0  0  0
  -27.1800  -30.0600   24.4840 C   0  0  0  0  0  1  0  0  0  0  0  0
  -27.7120  -32.1590   25.6940 C   0  0  0  0  0  1  0  0  0  0  0  0
  -25.6690  -33.5990   24.2280 N   0  0  0  0  0  0  0  0  0  0  0  0
  -25.9740  -34.7160   23.5520 C   0  0  0  0  0  0  0  0  0  0  0  0
  -26.6450  -34.7090   22.5160 O   0  0  0  0  0  0  0  0  0  0  0  0
  -25.0760  -33.6770   25.0400 H   0  0  0  0  0  0  0  0  0  0  0  0
  -24.2090  -36.4930   23.3280 C   0  0  0  0  0  1  0  0  0  0  0  0
  -25.4530  -36.0520   24.1150 C   0  0  0  0  0  3  0  0  0  0  0  0
  -27.5590  -36.9160   25.0380 C   0  0  0  0  0  1  0  0  0  0  0  0
  -26.4630  -37.1320   24.0960 N   0  0  0  0  0  0  0  0  0  0  0  0
  -26.0350  -38.0290   24.3080 H   0  0  0  0  0  0  0  0  0  0  0  0
  1  3  1  0
  1  7  1  0
  2  1  2  0
  3  6  1  0
  5  4  1  0
  6 57  1  0
  6  4  1  0
  7 11  1  0
  7  5  1  0
  7  8  1  6
  9 10  2  0
 10  2  1  0
 12 14  2  0
 12 13  1  0
 13 15  2  0
 14 17  1  0
 15 16  1  0
 15 11  1  0
 16 18  1  0
 17 27  1  0
 17 16  2  0
 19 27  1  0
 20 25  1  0
 21 22  1  0
 21 20  1  0
 23 22  1  0
 23 32  1  0
 23 24  1  0
 25 19  1  0
 25 24  1  0
 26 19  2  0
 27 28  1  0
 29 30  2  0
 30 49  1  0
 31 30  1  0
 31 34  1  0
 32 33  1  0
 32 29  1  0
 33 31  2  0
 34 35  1  0
 35 36  2  0
 37 40  1  0
 37 36  1  0
 38 37  2  0
 39 38  1  0
 39 34  2  0
 40 41  1  0
 41 46  2  0
 41 42  1  0
 42 43  2  0
 43 44  1  0
 44 48  1  0
 45 44  2  0
 46 45  1  0
 47 46  1  0
 49 50  1  0
 50 53  1  0
 50 52  1  0
 51 49  2  0
 54 55  1  0
 54 29  1  0
 56 54  1  0
 58 60  1  0
 58 57  1  0
 59 70  2  0
 60 65  1  0
 61 69  1  0
 61 71  1  0
 62 68  1  0
 62 64  1  0
 63 69  1  0
 64 63  1  0
 65 64  2  0
 66 67  1  0
 66 60  2  0
 67 62  2  0
 68 61  1  0
 69 59  1  0
 71 73  2  0
 72 71  1  0
 74 72  1  0
 75 84  2  0
 75 80  1  0
 76 72  1  0
 76 80  1  0
 77 76  1  0
 78 79  1  0
 78 77  1  0
 79 75  1  0
 80 81  2  0
 81 82  1  0
 83 82  2  0
 84 83  1  0
 85 59  1  0
 85 90  1  0
 85 86  1  0
 86 89  1  1
 86 87  1  0
 88 86  1  0
 90 93  1  0
 91 95  1  0
 91 90  1  0
 92 91  2  0
 95 94  1  0
 97 95  1  0
 97 98  1  0
 97 96  1  0
M  ISO  4  19 100  27 100  57 101  58 101
M  END
>  <TORSDO>  (48) 
F 20

>  <SCORE>  (48) 
-12.516

>  <name>  (48) 
47

>  <ligand_id>  (48) 
47

>  <original_smiles>  (48) 
[H]C([H])=C([H])C([H])=C1C([H])([H])C([H])(C([H])([H])Oc2c([H])c([H])c3c(c2[H])C([H])([H])N(C(=O)C([H])(N([H])C(=O)C([H])(N([H])C([H])([H])[H])C([H])([H])[H])C(C([H])([H])[H])(C([H])([H])[H])C([H])([H])[H])C([H])(C(=O)N([H])C2([H])c4c([H])c([H])c([H])c([H])c4C([H])([H])C([H])([H])C2([H])[H])C3([H])[H])C([H])([H])C([H])([H])[N+]1([H])C([H])([H])c1c([H])c([H])c([H])c(N([H])C(=O)N2C([H])([H])C([H])([H])C([H])([H])C([H])(n3nc(-c4c([H])c([H])c(Oc5c([H])c([H])c(F)c([H])c5F)c([H])c4[H])c(C(=O)N([H])[H])c3N([H])[H])C2([H])[H])c1C([H])([H])[H]

>  <smiles>  (48) 
[H]C([H])=C([H])C([H])=C1C([H])([H])C([H])(C([H])([H])Oc2c([H])c([H])c3c(c2[H])C([H])([H])N(C(=O)C([H])(N([H])C(=O)C([H])(N([H])C([H])([H])[H])C([H])([H])[H])C(C([H])([H])[H])(C([H])([H])[H])C([H])([H])[H])C([H])(C(=O)N([H])C2([H])c4c([H])c([H])c([H])c([H])c4C([H])([H])C([H])([H])C2([H])[H])C3([H])[H])C([H])([H])C([H])([H])[N+]1([H])C([H])([H])c1c([H])c([H])c([H])c(N([H])C(=O)N2C([H])([H])C([H])([H])C([H])([H])C([H])(n3nc(-c4c([H])c([H])c(Oc5c([H])c([H])c(F)c([H])c5F)c([H])c4[H])c(C(=O)N([H])[H])c3N([H])[H])C2([H])[H])c1C([H])([H])[H]

$$$$
48:0:0
     RDKit          3D

 94102  0  0  1  0  0  0  0  0999 V2000
  -29.0980  -20.6680   20.8270 C   0  0  0  0  0  0  0  0  0  0  0  0
  -29.4980  -21.9060   20.4590 N   0  0  0  0  0  0  0  0  0  0  0  0
  -27.9630  -20.4690   21.2700 O   0  0  0  0  0  0  0  0  0  0  0  0
  -30.4220  -22.0210   20.0610 H   0  0  0  0  0  0  0  0  0  0  0  0
  -31.4560  -19.8040   21.0050 C   0  0  0  0  0  3  0  0  0  0  0  0
  -32.0020  -17.4320   20.9970 C   0  0  0  0  0  3  0  0  0  0  0  0
  -30.0930  -19.5220   20.7470 C   0  0  0  0  0  0  0  0  0  0  0  0
  -29.6960  -18.1520   20.5600 C   0  0  0  0  0  0  0  0  0  0  0  0
  -30.6520  -17.1000   20.7110 C   0  0  0  0  0  0  0  0  0  0  0  0
  -32.4030  -18.7710   21.1160 C   0  0  0  0  0  0  0  0  0  0  0  0
  -28.2530  -17.7920   20.1800 C   0  0  0  0  0  1  0  0  0  0  0  0
  -33.7040  -19.0710   21.3660 F   0  0  0  0  0  0  0  0  0  0  0  0
  -30.8680  -14.6950   20.0420 C   0  0  0  0  0  0  0  0  0  0  0  0
  -30.4940  -12.5060   18.9520 C   0  0  0  0  0  2  0  0  0  0  0  0
  -29.4880  -12.6590   17.7950 C   0  0  0  0  0  2  0  0  0  0  0  0
  -28.0430  -12.5130   18.3050 C   0  0  0  0  0  2  0  0  0  0  0  0
  -27.7600  -13.3800   19.5610 C   0  0  0  0  0  3  0  0  0  0  0  0
  -28.8810  -13.2250   20.6140 C   0  0  0  0  0  2  0  0  0  0  0  0
  -30.1700  -13.5240   19.9670 N   0  0  0  0  0  0  0  0  0  0  0  0
  -31.9530  -14.8550   19.4790 O   0  0  0  0  0  0  0  0  0  0  0  0
  -30.2390  -15.7210   20.6570 N   0  0  0  0  0  0  0  0  0  0  0  0
  -29.3120  -15.5190   20.9870 H   0  0  0  0  0  0  0  0  0  0  0  0
  -25.4190  -13.9740   20.4580 C   0  0  0  0  0  0  0  0  0  0  0  0
  -24.3750  -13.1920   20.8740 C   0  0  0  0  0  0  0  0  0  0  0  0
  -24.8210  -11.8410   20.7630 C   0  0  0  0  0  0  0  0  0  0  0  0
  -26.4410  -13.0970   20.1250 N   0  0  0  0  0  0  0  0  0  0  0  0
  -26.0860  -11.8080   20.3630 N   0  0  0  0  0  0  0  0  0  0  0  0
  -24.0970  -10.5780   20.9590 C   0  0  0  0  0  0  0  0  0  0  0  0
  -24.5440   -9.6090   21.8860 C   0  0  0  0  0  3  0  0  0  0  0  0
  -23.8250   -8.4080   22.0710 C   0  0  0  0  0  3  0  0  0  0  0  0
  -22.6440   -8.1650   21.3300 C   0  0  0  0  0  0  0  0  0  0  0  0
  -22.2150   -9.1230   20.3940 C   0  0  0  0  0  3  0  0  0  0  0  0
  -22.9360  -10.3140   20.2070 C   0  0  0  0  0  3  0  0  0  0  0  0
  -21.8960   -7.0160   21.4280 O   0  0  0  0  0  0  0  0  0  0  0  0
  -21.8170   -6.3040   22.5990 C   0  0  0  0  0  0  0  0  0  0  0  0
  -21.3180   -6.8770   23.7890 C   0  0  0  0  0  3  0  0  0  0  0  0
  -21.1900   -6.0910   24.9510 C   0  0  0  0  0  3  0  0  0  0  0  0
  -21.5470   -4.7290   24.9230 C   0  0  0  0  0  0  0  0  0  0  0  0
  -22.0400   -4.1540   23.7380 C   0  0  0  0  0  3  0  0  0  0  0  0
  -22.1730   -4.9400   22.5780 C   0  0  0  0  0  0  0  0  0  0  0  0
  -22.6280   -4.3770   21.4340 F   0  0  0  0  0  0  0  0  0  0  0  0
  -21.4180   -3.9700   26.0350 F   0  0  0  0  0  0  0  0  0  0  0  0
  -23.0010  -13.6660   21.2550 C   0  0  0  0  0  0  0  0  0  0  0  0
  -22.3220  -12.9510   22.1460 N   0  0  0  0  0  0  0  0  0  0  0  0
  -22.5370  -14.7090   20.7970 O   0  0  0  0  0  0  0  0  0  0  0  0
  -22.7060  -12.1100   22.5490 H   0  0  0  0  0  0  0  0  0  0  0  0
  -21.4000  -13.2530   22.4300 H   0  0  0  0  0  0  0  0  0  0  0  0
  -25.5760  -15.3470   20.3210 N   0  0  0  0  0  0  0  0  0  0  0  0
  -24.8090  -15.9870   20.4980 H   0  0  0  0  0  0  0  0  0  0  0  0
  -26.3930  -15.8070   19.9400 H   0  0  0  0  0  0  0  0  0  0  0  0
  -28.6950  -23.1040   20.7840 C   0  0  0  0  0  2  0  0  0  0  0  0
  -29.1920  -24.4720   20.2390 C   0  0  0  0  0  2  0  0  0  0  0  0
  -28.1850  -25.5870   20.6450 C   0  0  0  0  0  2  0  0  0  0  0  0
  -28.3920  -26.9080   20.0970 O   0  0  0  0  0  0  0  0  0  0  0  0
  -24.6530  -32.0290   23.3800 C   0  0  0  0  0  0  0  0  0  0  0  0
  -27.2530  -27.6930   20.1060 C   0  0  0  0  0  0  0  0  0  0  0  0
  -23.4300  -30.7000   21.6890 C   0  0  0  0  0  3  0  0  0  0  0  0
  -24.8690  -29.2190   20.1930 C   0  0  0  0  0  0  0  0  0  0  0  0
  -25.9590  -31.0540   21.4910 C   0  0  0  0  0  2  0  0  0  0  0  0
  -26.0370  -29.7110   20.7930 C   0  0  0  0  0  0  0  0  0  0  0  0
  -27.2350  -28.9590   20.7460 C   0  0  0  0  0  3  0  0  0  0  0  0
  -26.0740  -27.2350   19.4770 C   0  0  0  0  0  3  0  0  0  0  0  0
  -24.8800  -27.9830   19.5270 C   0  0  0  0  0  3  0  0  0  0  0  0
  -23.6280  -30.0770   20.2830 C   0  0  0  0  0  2  0  0  0  0  0  0
  -24.7000  -31.2740   22.2450 N   0  0  0  0  0  0  0  0  0  0  0  0
  -23.5760  -32.2840   23.9360 O   0  0  0  0  0  0  0  0  0  0  0  0
  -22.7780  -29.6450   22.6130 C   0  0  0  0  0  0  0  0  0  0  0  0
  -21.4530  -29.4700   22.4850 N   0  0  0  0  0  0  0  0  0  0  0  0
  -23.4630  -28.9890   23.4040 O   0  0  0  0  0  0  0  0  0  0  0  0
  -20.9570  -30.0530   21.8250 H   0  0  0  0  0  0  0  0  0  0  0  0
  -18.0810  -28.2610   22.9410 C   0  0  0  0  0  0  0  0  0  0  0  0
  -20.6360  -28.5080   23.2220 C   0  0  0  0  0  3  0  0  0  0  0  0
  -20.7370  -27.0990   22.5970 C   0  0  0  0  0  2  0  0  0  0  0  0
  -19.6370  -26.8130   21.5690 C   0  0  0  0  0  2  0  0  0  0  0  0
  -18.2550  -26.9380   22.2150 C   0  0  0  0  0  2  0  0  0  0  0  0
  -19.1970  -29.0060   23.3990 C   0  0  0  0  0  0  0  0  0  0  0  0
  -18.9770  -30.2490   24.0300 C   0  0  0  0  0  3  0  0  0  0  0  0
  -17.6710  -30.7450   24.2140 C   0  0  0  0  0  3  0  0  0  0  0  0
  -16.5690  -29.9930   23.7720 C   0  0  0  0  0  3  0  0  0  0  0  0
  -16.7720  -28.7550   23.1380 C   0  0  0  0  0  3  0  0  0  0  0  0
  -25.9450  -32.6290   24.0180 C   0  0  0  0  0  3  0  0  0  0  0  0
  -26.4410  -31.8340   25.2870 C   0  0  1  0  0  0  0  0  0  0  0  0
  -25.3350  -31.5880   26.3370 C   0  0  0  0  0  1  0  0  0  0  0  0
  -27.0150  -30.4580   24.8770 C   0  0  0  0  0  1  0  0  0  0  0  0
  -27.5910  -32.6090   25.9760 C   0  0  0  0  0  1  0  0  0  0  0  0
  -25.6630  -34.0320   24.3600 N   0  0  0  0  0  0  0  0  0  0  0  0
  -26.0330  -35.0840   23.6170 C   0  0  0  0  0  0  0  0  0  0  0  0
  -26.7180  -34.9740   22.5960 O   0  0  0  0  0  0  0  0  0  0  0  0
  -25.0640  -34.1950   25.1560 H   0  0  0  0  0  0  0  0  0  0  0  0
  -24.3630  -36.9230   23.2440 C   0  0  0  0  0  1  0  0  0  0  0  0
  -25.5710  -36.4770   24.0810 C   0  0  0  0  0  3  0  0  0  0  0  0
  -27.7040  -37.2940   24.9820 C   0  0  0  0  0  1  0  0  0  0  0  0
  -26.6330  -37.5040   24.0120 N   0  0  0  0  0  0  0  0  0  0  0  0
  -26.2450  -38.4320   24.1610 H   0  0  0  0  0  0  0  0  0  0  0  0
  1  3  2  0
  2 51  1  0
  2  1  1  0
  4  2  1  0
  5 10  1  0
  6 10  2  0
  7  1  1  0
  7  5  2  0
  8  9  2  0
  8  7  1  0
  9  6  1  0
 10 12  1  0
 11  8  1  0
 13 21  1  0
 14 19  1  0
 15 16  1  0
 15 14  1  0
 17 16  1  0
 17 26  1  0
 17 18  1  0
 19 13  1  0
 19 18  1  0
 20 13  2  0
 21  9  1  0
 21 22  1  0
 23 24  2  0
 24 43  1  0
 25 24  1  0
 25 28  1  0
 26 27  1  0
 26 23  1  0
 27 25  2  0
 28 29  1  0
 29 30  2  0
 31 34  1  0
 31 30  1  0
 32 31  2  0
 33 32  1  0
 33 28  2  0
 34 35  1  0
 35 36  1  0
 36 37  2  0
 38 37  1  0
 38 42  1  0
 39 38  2  0
 40 35  2  0
 40 39  1  0
 41 40  1  0
 43 44  1  0
 44 47  1  0
 44 46  1  0
 45 43  2  0
 48 23  1  0
 48 49  1  0
 50 48  1  0
 52 53  1  0
 52 51  1  0
 54 56  1  0
 54 53  1  0
 55 66  2  0
 56 61  1  0
 57 65  1  0
 57 67  1  0
 58 64  1  0
 58 60  1  0
 59 65  1  0
 60 59  1  0
 61 60  2  0
 62 63  1  0
 62 56  2  0
 63 58  2  0
 64 57  1  0
 65 55  1  0
 67 69  2  0
 68 67  1  0
 70 68  1  0
 71 80  2  0
 71 76  1  0
 72 68  1  0
 72 76  1  0
 73 72  1  0
 74 75  1  0
 74 73  1  0
 75 71  1  0
 76 77  2  0
 77 78  1  0
 79 78  2  0
 80 79  1  0
 81 55  1  0
 81 86  1  0
 81 82  1  0
 82 85  1  1
 82 83  1  0
 84 82  1  0
 86 89  1  0
 87 91  1  0
 87 86  1  0
 88 87  2  0
 91 90  1  0
 93 91  1  0
 93 94  1  0
 93 92  1  0
M  ISO  4  13 100  21 100  53 101  54 101
M  END
>  <TORSDO>  (49) 
F 20

>  <SCORE>  (49) 
-13.610

>  <name>  (49) 
48

>  <ligand_id>  (49) 
48

>  <original_smiles>  (49) 
[H]c1c([H])c([H])c2c(c1[H])C([H])([H])C([H])([H])C([H])([H])C2([H])N([H])C(=O)C1([H])N(C(=O)C([H])(N([H])C(=O)C([H])(N([H])C([H])([H])[H])C([H])([H])[H])C(C([H])([H])[H])(C([H])([H])[H])C([H])([H])[H])C([H])([H])c2c([H])c(OC([H])([H])C([H])([H])C([H])([H])N([H])C(=O)c3c([H])c(F)c([H])c(N([H])C(=O)N4C([H])([H])C([H])([H])C([H])([H])C([H])(n5nc(-c6c([H])c([H])c(Oc7c([H])c([H])c(F)c([H])c7F)c([H])c6[H])c(C(=O)N([H])[H])c5N([H])[H])C4([H])[H])c3C([H])([H])[H])c([H])c([H])c2C1([H])[H]

>  <smiles>  (49) 
[H]c1c([H])c([H])c2c(c1[H])C([H])([H])C([H])([H])C([H])([H])C2([H])N([H])C(=O)C1([H])N(C(=O)C([H])(N([H])C(=O)C([H])(N([H])C([H])([H])[H])C([H])([H])[H])C(C([H])([H])[H])(C([H])([H])[H])C([H])([H])[H])C([H])([H])c2c([H])c(OC([H])([H])C([H])([H])C([H])([H])N([H])C(=O)c3c([H])c(F)c([H])c(N([H])C(=O)N4C([H])([H])C([H])([H])C([H])([H])C([H])(n5nc(-c6c([H])c([H])c(Oc7c([H])c([H])c(F)c([H])c7F)c([H])c6[H])c(C(=O)N([H])[H])c5N([H])[H])C4([H])[H])c3C([H])([H])[H])c([H])c([H])c2C1([H])[H]

$$$$
49:0:0
     RDKit          3D

 94102  0  0  1  0  0  0  0  0999 V2000
  -30.0320  -21.8190   19.4200 C   0  0  0  0  0  0  0  0  0  0  0  0
  -31.2440  -21.3820   19.8050 N   0  0  0  0  0  0  0  0  0  0  0  0
  -29.0620  -21.0720   19.2940 O   0  0  0  0  0  0  0  0  0  0  0  0
  -31.9440  -22.0970   19.9430 H   0  0  0  0  0  0  0  0  0  0  0  0
  -33.3100  -20.1020   19.6950 C   0  0  0  0  0  1  0  0  0  0  0  0
  -31.7760  -20.0120   19.7040 C   0  0  0  0  0  3  0  0  0  0  0  0
  -30.5080  -18.4400   22.9910 C   0  0  0  0  0  3  0  0  0  0  0  0
  -30.8500  -19.4000   22.0220 C   0  0  0  0  0  3  0  0  0  0  0  0
  -30.6390  -17.0680   22.7100 C   0  0  0  0  0  3  0  0  0  0  0  0
  -31.4620  -17.6020   20.4830 C   0  0  0  0  0  3  0  0  0  0  0  0
  -31.3330  -18.9910   20.7590 C   0  0  0  0  0  0  0  0  0  0  0  0
  -31.1090  -16.6280   21.4530 C   0  0  0  0  0  0  0  0  0  0  0  0
  -31.5960  -14.4660   20.2300 C   0  0  0  0  0  0  0  0  0  0  0  0
  -31.1090  -12.4280   18.9050 C   0  0  0  0  0  2  0  0  0  0  0  0
  -30.1230  -12.7630   17.7680 C   0  0  0  0  0  2  0  0  0  0  0  0
  -28.6630  -12.6900   18.2600 C   0  0  0  0  0  2  0  0  0  0  0  0
  -28.4440  -13.4660   19.5840 C   0  0  0  0  0  3  0  0  0  0  0  0
  -29.5230  -13.0840   20.6200 C   0  0  0  0  0  2  0  0  0  0  0  0
  -30.8520  -13.3430   20.0280 N   0  0  0  0  0  0  0  0  0  0  0  0
  -32.6030  -14.7380   19.5700 O   0  0  0  0  0  0  0  0  0  0  0  0
  -31.1720  -15.2120   21.2690 N   0  0  0  0  0  0  0  0  0  0  0  0
  -30.5210  -14.7020   21.8450 H   0  0  0  0  0  0  0  0  0  0  0  0
  -26.1330  -14.2030   20.4540 C   0  0  0  0  0  0  0  0  0  0  0  0
  -25.0230  -13.4900   20.8220 C   0  0  0  0  0  0  0  0  0  0  0  0
  -25.3700  -12.1120   20.6660 C   0  0  0  0  0  0  0  0  0  0  0  0
  -27.0920  -13.2640   20.1060 N   0  0  0  0  0  0  0  0  0  0  0  0
  -26.6370  -11.9970   20.2860 N   0  0  0  0  0  0  0  0  0  0  0  0
  -24.5560  -10.8990   20.8060 C   0  0  0  0  0  0  0  0  0  0  0  0
  -24.9080   -9.8730   21.7100 C   0  0  0  0  0  3  0  0  0  0  0  0
  -24.0980   -8.7240   21.8400 C   0  0  0  0  0  3  0  0  0  0  0  0
  -22.9220   -8.5940   21.0640 C   0  0  0  0  0  0  0  0  0  0  0  0
  -22.5870   -9.6080   20.1500 C   0  0  0  0  0  3  0  0  0  0  0  0
  -23.3970  -10.7500   20.0180 C   0  0  0  0  0  3  0  0  0  0  0  0
  -22.0890   -7.5020   21.1030 O   0  0  0  0  0  0  0  0  0  0  0  0
  -21.9070   -6.7760   22.2530 C   0  0  0  0  0  0  0  0  0  0  0  0
  -21.4560   -7.3760   23.4490 C   0  0  0  0  0  3  0  0  0  0  0  0
  -21.2140   -6.5810   24.5880 C   0  0  0  0  0  3  0  0  0  0  0  0
  -21.4140   -5.1900   24.5310 C   0  0  0  0  0  0  0  0  0  0  0  0
  -21.8600   -4.5900   23.3400 C   0  0  0  0  0  3  0  0  0  0  0  0
  -22.1020   -5.3820   22.2030 C   0  0  0  0  0  0  0  0  0  0  0  0
  -22.5110   -4.7950   21.0510 F   0  0  0  0  0  0  0  0  0  0  0  0
  -21.1760   -4.4250   25.6220 F   0  0  0  0  0  0  0  0  0  0  0  0
  -23.6850  -14.0500   21.2090 C   0  0  0  0  0  0  0  0  0  0  0  0
  -22.9640  -13.3610   22.0860 N   0  0  0  0  0  0  0  0  0  0  0  0
  -23.2930  -15.1290   20.7680 O   0  0  0  0  0  0  0  0  0  0  0  0
  -23.2970  -12.4870   22.4640 H   0  0  0  0  0  0  0  0  0  0  0  0
  -22.0670  -13.7150   22.3870 H   0  0  0  0  0  0  0  0  0  0  0  0
  -26.3980  -15.5660   20.3710 N   0  0  0  0  0  0  0  0  0  0  0  0
  -25.6950  -16.2670   20.5730 H   0  0  0  0  0  0  0  0  0  0  0  0
  -27.2770  -15.9650   20.0660 H   0  0  0  0  0  0  0  0  0  0  0  0
  -29.9220  -23.2970   19.0000 C   0  0  0  0  0  2  0  0  0  0  0  0
  -28.9550  -24.1890   19.8210 C   0  0  0  0  0  2  0  0  0  0  0  0
  -28.7450  -25.5730   19.1550 C   0  0  0  0  0  2  0  0  0  0  0  0
  -28.4550  -26.6130   20.0940 O   0  0  0  0  0  0  0  0  0  0  0  0
  -24.6940  -31.7690   23.1920 C   0  0  0  0  0  0  0  0  0  0  0  0
  -27.2610  -27.3070   20.0670 C   0  0  0  0  0  0  0  0  0  0  0  0
  -23.4530  -30.3890   21.5530 C   0  0  0  0  0  3  0  0  0  0  0  0
  -24.8730  -28.8350   20.1090 C   0  0  0  0  0  0  0  0  0  0  0  0
  -25.9820  -30.7120   21.3390 C   0  0  0  0  0  2  0  0  0  0  0  0
  -26.0380  -29.3420   20.6940 C   0  0  0  0  0  0  0  0  0  0  0  0
  -27.2270  -28.5820   20.6750 C   0  0  0  0  0  3  0  0  0  0  0  0
  -26.0720  -26.8010   19.4920 C   0  0  0  0  0  3  0  0  0  0  0  0
  -24.8860  -27.5610   19.5070 C   0  0  0  0  0  3  0  0  0  0  0  0
  -23.6390  -29.7080   20.1680 C   0  0  0  0  0  2  0  0  0  0  0  0
  -24.7280  -30.9750   22.0840 N   0  0  0  0  0  0  0  0  0  0  0  0
  -23.6220  -32.0550   23.7420 O   0  0  0  0  0  0  0  0  0  0  0  0
  -22.7980  -29.3750   22.5170 C   0  0  0  0  0  0  0  0  0  0  0  0
  -21.4770  -29.1840   22.3750 N   0  0  0  0  0  0  0  0  0  0  0  0
  -23.4770  -28.7630   23.3470 O   0  0  0  0  0  0  0  0  0  0  0  0
  -20.9940  -29.7300   21.6740 H   0  0  0  0  0  0  0  0  0  0  0  0
  -18.1160  -27.9260   22.7930 C   0  0  0  0  0  0  0  0  0  0  0  0
  -20.6560  -28.2500   23.1430 C   0  0  0  0  0  3  0  0  0  0  0  0
  -20.8100  -26.8060   22.6130 C   0  0  0  0  0  2  0  0  0  0  0  0
  -19.7500  -26.4290   21.5730 C   0  0  0  0  0  2  0  0  0  0  0  0
  -18.3450  -26.5620   22.1650 C   0  0  0  0  0  2  0  0  0  0  0  0
  -19.2020  -28.7250   23.2390 C   0  0  0  0  0  0  0  0  0  0  0  0
  -18.9370  -29.9990   23.7850 C   0  0  0  0  0  3  0  0  0  0  0  0
  -17.6160  -30.4750   23.8950 C   0  0  0  0  0  3  0  0  0  0  0  0
  -16.5430  -29.6750   23.4640 C   0  0  0  0  0  3  0  0  0  0  0  0
  -16.7940  -28.4030   22.9200 C   0  0  0  0  0  3  0  0  0  0  0  0
  -25.9980  -32.3770   23.8020 C   0  0  0  0  0  3  0  0  0  0  0  0
  -25.6910  -33.7530   24.2170 N   0  0  0  0  0  0  0  0  0  0  0  0
  -25.9680  -34.8460   23.4940 C   0  0  0  0  0  0  0  0  0  0  0  0
  -26.5820  -34.8030   22.4240 O   0  0  0  0  0  0  0  0  0  0  0  0
  -25.1410  -33.8620   25.0570 H   0  0  0  0  0  0  0  0  0  0  0  0
  -24.1870  -36.6150   23.3360 C   0  0  0  0  0  1  0  0  0  0  0  0
  -25.4870  -36.2020   24.0440 C   0  0  0  0  0  3  0  0  0  0  0  0
  -27.6550  -37.0950   24.7740 C   0  0  0  0  0  1  0  0  0  0  0  0
  -26.4900  -37.2810   23.9110 N   0  0  0  0  0  0  0  0  0  0  0  0
  -26.0780  -38.1860   24.1250 H   0  0  0  0  0  0  0  0  0  0  0  0
  -26.5690  -31.5420   25.0130 C   0  0  1  0  0  0  0  0  0  0  0  0
  -25.5170  -31.2250   26.1010 C   0  0  0  0  0  1  0  0  0  0  0  0
  -27.1570  -30.1970   24.5230 C   0  0  0  0  0  1  0  0  0  0  0  0
  -27.7300  -32.3140   25.6830 C   0  0  0  0  0  1  0  0  0  0  0  0
  1  2  1  0
  2  4  1  0
  3  1  2  0
  6  5  1  0
  6  2  1  0
  6 11  1  0
  8  7  2  0
  9  7  1  0
 10 11  2  0
 10 12  1  0
 11  8  1  0
 12  9  2  0
 13 21  1  0
 14 19  1  0
 15 16  1  0
 15 14  1  0
 17 16  1  0
 17 26  1  0
 17 18  1  0
 19 13  1  0
 19 18  1  0
 20 13  2  0
 21 12  1  0
 21 22  1  0
 23 24  2  0
 24 43  1  0
 25 28  1  0
 25 24  1  0
 26 27  1  0
 26 23  1  0
 27 25  2  0
 28 29  1  0
 29 30  2  0
 31 34  1  0
 31 30  1  0
 32 31  2  0
 33 32  1  0
 33 28  2  0
 34 35  1  0
 35 36  1  0
 36 37  2  0
 38 37  1  0
 38 42  1  0
 39 38  2  0
 40 35  2  0
 40 39  1  0
 41 40  1  0
 43 44  1  0
 44 47  1  0
 44 46  1  0
 45 43  2  0
 48 23  1  0
 48 49  1  0
 50 48  1  0
 51  1  1  0
 51 52  1  0
 53 52  1  0
 53 54  1  0
 55 66  2  0
 56 54  1  0
 56 61  1  0
 57 65  1  0
 57 67  1  0
 58 64  1  0
 58 60  1  0
 59 65  1  0
 60 59  1  0
 61 60  2  0
 62 63  1  0
 62 56  2  0
 63 58  2  0
 64 57  1  0
 65 55  1  0
 67 69  2  0
 68 67  1  0
 70 68  1  0
 71 80  2  0
 71 76  1  0
 72 68  1  0
 72 76  1  0
 73 72  1  0
 74 75  1  0
 74 73  1  0
 75 71  1  0
 76 77  2  0
 77 78  1  0
 79 78  2  0
 80 79  1  0
 81 55  1  0
 81 82  1  0
 81 91  1  0
 82 85  1  0
 83 87  1  0
 83 82  1  0
 84 83  2  0
 87 86  1  0
 89 87  1  0
 89 90  1  0
 89 88  1  0
 91 94  1  1
 91 92  1  0
 93 91  1  0
M  ISO  4  13 100  21 100  53 101  54 101
M  END
>  <TORSDO>  (50) 
F 21

>  <SCORE>  (50) 
-11.965

>  <name>  (50) 
49

>  <ligand_id>  (50) 
49

>  <original_smiles>  (50) 
[H]c1c([H])c([H])c2c(c1[H])C([H])([H])C([H])([H])C([H])([H])C2([H])N([H])C(=O)C1([H])N(C(=O)C([H])(N([H])C(=O)C([H])(N([H])C([H])([H])[H])C([H])([H])[H])C(C([H])([H])[H])(C([H])([H])[H])C([H])([H])[H])C([H])([H])c2c([H])c(OC([H])([H])C([H])([H])C([H])([H])C(=O)N([H])C([H])(c3c([H])c([H])c([H])c(N([H])C(=O)N4C([H])([H])C([H])([H])C([H])([H])C([H])(n5nc(-c6c([H])c([H])c(Oc7c([H])c([H])c(F)c([H])c7F)c([H])c6[H])c(C(=O)N([H])[H])c5N([H])[H])C4([H])[H])c3[H])C([H])([H])[H])c([H])c([H])c2C1([H])[H]

>  <smiles>  (50) 
[H]c1c([H])c([H])c2c(c1[H])C([H])([H])C([H])([H])C([H])([H])C2([H])N([H])C(=O)C1([H])N(C(=O)C([H])(N([H])C(=O)C([H])(N([H])C([H])([H])[H])C([H])([H])[H])C(C([H])([H])[H])(C([H])([H])[H])C([H])([H])[H])C([H])([H])c2c([H])c(OC([H])([H])C([H])([H])C([H])([H])C(=O)N([H])C([H])(c3c([H])c([H])c([H])c(N([H])C(=O)N4C([H])([H])C([H])([H])C([H])([H])C([H])(n5nc(-c6c([H])c([H])c(Oc7c([H])c([H])c(F)c([H])c7F)c([H])c6[H])c(C(=O)N([H])[H])c5N([H])[H])C4([H])[H])c3[H])C([H])([H])[H])c([H])c([H])c2C1([H])[H]

$$$$
50:0:0
     RDKit          3D

 95103  0  0  1  0  0  0  0  0999 V2000
  -29.0930  -20.6420   19.9910 C   0  0  0  0  0  0  0  0  0  0  0  0
  -29.3400  -21.8210   20.6000 N   0  0  0  0  0  0  0  0  0  0  0  0
  -28.2060  -20.5270   19.1430 O   0  0  0  0  0  0  0  0  0  0  0  0
  -30.0700  -21.8250   21.2990 H   0  0  0  0  0  0  0  0  0  0  0  0
  -32.1910  -18.6530   21.0370 C   0  0  0  0  0  3  0  0  0  0  0  0
  -31.3190  -19.6970   20.6940 C   0  0  0  0  0  3  0  0  0  0  0  0
  -31.7320  -17.3260   21.0620 C   0  0  0  0  0  3  0  0  0  0  0  0
  -29.9570  -19.4500   20.4040 C   0  0  0  0  0  0  0  0  0  0  0  0
  -29.4880  -18.0860   20.4430 C   0  0  0  0  0  0  0  0  0  0  0  0
  -30.3940  -17.0090   20.7350 C   0  0  0  0  0  0  0  0  0  0  0  0
  -28.0230  -17.7590   20.1650 C   0  0  0  0  0  1  0  0  0  0  0  0
  -30.6570  -14.5490   20.2660 C   0  0  0  0  0  0  0  0  0  0  0  0
  -30.3040  -12.3930   19.1210 C   0  0  0  0  0  2  0  0  0  0  0  0
  -29.3260  -12.6040   17.9490 C   0  0  0  0  0  2  0  0  0  0  0  0
  -27.8680  -12.4610   18.4240 C   0  0  0  0  0  2  0  0  0  0  0  0
  -27.5700  -13.2800   19.7080 C   0  0  0  0  0  3  0  0  0  0  0  0
  -28.6660  -13.0710   20.7790 C   0  0  0  0  0  2  0  0  0  0  0  0
  -29.9640  -13.3790   20.1610 N   0  0  0  0  0  0  0  0  0  0  0  0
  -31.7930  -14.6650   19.8020 O   0  0  0  0  0  0  0  0  0  0  0  0
  -29.9670  -15.6260   20.7270 N   0  0  0  0  0  0  0  0  0  0  0  0
  -29.0020  -15.4470   20.9550 H   0  0  0  0  0  0  0  0  0  0  0  0
  -25.1900  -13.8590   20.4930 C   0  0  0  0  0  0  0  0  0  0  0  0
  -24.1400  -13.0770   20.8880 C   0  0  0  0  0  0  0  0  0  0  0  0
  -24.6080  -11.7280   20.8290 C   0  0  0  0  0  0  0  0  0  0  0  0
  -26.2350  -12.9890   20.2260 N   0  0  0  0  0  0  0  0  0  0  0  0
  -25.8890  -11.7010   20.4850 N   0  0  0  0  0  0  0  0  0  0  0  0
  -23.8920  -10.4600   21.0210 C   0  0  0  0  0  0  0  0  0  0  0  0
  -24.3420   -9.4930   21.9480 C   0  0  0  0  0  3  0  0  0  0  0  0
  -23.6260   -8.2900   22.1300 C   0  0  0  0  0  3  0  0  0  0  0  0
  -22.4470   -8.0460   21.3860 C   0  0  0  0  0  0  0  0  0  0  0  0
  -22.0180   -9.0010   20.4480 C   0  0  0  0  0  3  0  0  0  0  0  0
  -22.7330  -10.1960   20.2640 C   0  0  0  0  0  3  0  0  0  0  0  0
  -21.7020   -6.8960   21.4790 O   0  0  0  0  0  0  0  0  0  0  0  0
  -21.6630   -6.1550   22.6320 C   0  0  0  0  0  0  0  0  0  0  0  0
  -21.2060   -6.6980   23.8530 C   0  0  0  0  0  3  0  0  0  0  0  0
  -21.1170   -5.8820   24.9990 C   0  0  0  0  0  3  0  0  0  0  0  0
  -21.4750   -4.5220   24.9240 C   0  0  0  0  0  0  0  0  0  0  0  0
  -21.9260   -3.9770   23.7080 C   0  0  0  0  0  3  0  0  0  0  0  0
  -22.0160   -4.7910   22.5660 C   0  0  0  0  0  0  0  0  0  0  0  0
  -22.4300   -4.2560   21.3920 F   0  0  0  0  0  0  0  0  0  0  0  0
  -21.3830   -3.7360   26.0220 F   0  0  0  0  0  0  0  0  0  0  0  0
  -22.7470  -13.5420   21.2040 C   0  0  0  0  0  0  0  0  0  0  0  0
  -22.0460  -12.8290   22.0760 N   0  0  0  0  0  0  0  0  0  0  0  0
  -22.2930  -14.5750   20.7120 O   0  0  0  0  0  0  0  0  0  0  0  0
  -22.4270  -11.9930   22.4930 H   0  0  0  0  0  0  0  0  0  0  0  0
  -21.1140  -13.1210   22.3330 H   0  0  0  0  0  0  0  0  0  0  0  0
  -25.3370  -15.2310   20.3160 N   0  0  0  0  0  0  0  0  0  0  0  0
  -24.5560  -15.8690   20.4270 H   0  0  0  0  0  0  0  0  0  0  0  0
  -26.1400  -15.6610   19.8790 H   0  0  0  0  0  0  0  0  0  0  0  0
  -28.5910  -23.0850   20.4150 C   0  0  0  0  0  2  0  0  0  0  0  0
  -30.5310  -24.7340   20.5660 C   0  0  0  0  0  1  0  0  0  0  0  0
  -29.4580  -23.8780   22.6530 C   0  0  0  0  0  1  0  0  0  0  0  0
  -29.1900  -24.3140   21.1900 C   0  0  2  0  0  0  0  0  0  0  0  0
  -28.2070  -25.5470   21.2350 C   0  0  0  0  0  2  0  0  0  0  0  0
  -28.3720  -26.6180   20.2740 O   0  0  0  0  0  0  0  0  0  0  0  0
  -24.5800  -31.9060   23.2290 C   0  0  0  0  0  0  0  0  0  0  0  0
  -27.2550  -27.4290   20.2080 C   0  0  0  0  0  0  0  0  0  0  0  0
  -23.3930  -30.4930   21.5830 C   0  0  0  0  0  3  0  0  0  0  0  0
  -24.8660  -28.9540   20.1720 C   0  0  0  0  0  0  0  0  0  0  0  0
  -25.9240  -30.8520   21.4080 C   0  0  0  0  0  2  0  0  0  0  0  0
  -26.0210  -29.4780   20.7710 C   0  0  0  0  0  0  0  0  0  0  0  0
  -27.2220  -28.7240   20.7860 C   0  0  0  0  0  3  0  0  0  0  0  0
  -26.0890  -26.9310   19.5900 C   0  0  0  0  0  3  0  0  0  0  0  0
  -24.8980  -27.6810   19.5740 C   0  0  0  0  0  3  0  0  0  0  0  0
  -23.6180  -29.8100   20.2070 C   0  0  0  0  0  2  0  0  0  0  0  0
  -24.6500  -31.0990   22.1310 N   0  0  0  0  0  0  0  0  0  0  0  0
  -23.4920  -32.1820   23.7550 O   0  0  0  0  0  0  0  0  0  0  0  0
  -22.7360  -29.4750   22.5440 C   0  0  0  0  0  0  0  0  0  0  0  0
  -21.4110  -29.2960   22.4110 N   0  0  0  0  0  0  0  0  0  0  0  0
  -23.4140  -28.8490   23.3620 O   0  0  0  0  0  0  0  0  0  0  0  0
  -20.9280  -29.8540   21.7210 H   0  0  0  0  0  0  0  0  0  0  0  0
  -18.0220  -28.1500   22.9300 C   0  0  0  0  0  0  0  0  0  0  0  0
  -20.5860  -28.3620   23.1780 C   0  0  0  0  0  3  0  0  0  0  0  0
  -20.6600  -26.9380   22.5820 C   0  0  0  0  0  2  0  0  0  0  0  0
  -19.5420  -26.6450   21.5760 C   0  0  0  0  0  2  0  0  0  0  0  0
  -18.1690  -26.8060   22.2350 C   0  0  0  0  0  2  0  0  0  0  0  0
  -19.1570  -28.8880   23.3560 C   0  0  0  0  0  0  0  0  0  0  0  0
  -18.9670  -30.1480   23.9640 C   0  0  0  0  0  3  0  0  0  0  0  0
  -17.6730  -30.6700   24.1490 C   0  0  0  0  0  3  0  0  0  0  0  0
  -16.5520  -29.9270   23.7400 C   0  0  0  0  0  3  0  0  0  0  0  0
  -16.7270  -28.6680   23.1350 C   0  0  0  0  0  3  0  0  0  0  0  0
  -25.8590  -32.5440   23.8580 C   0  0  0  0  0  3  0  0  0  0  0  0
  -26.3660  -31.7800   25.1420 C   0  0  1  0  0  0  0  0  0  0  0  0
  -25.2620  -31.5420   26.1990 C   0  0  0  0  0  1  0  0  0  0  0  0
  -26.9610  -30.4060   24.7590 C   0  0  0  0  0  1  0  0  0  0  0  0
  -27.5060  -32.5840   25.8120 C   0  0  0  0  0  1  0  0  0  0  0  0
  -25.5450  -33.9440   24.1750 N   0  0  0  0  0  0  0  0  0  0  0  0
  -25.8900  -34.9920   23.4150 C   0  0  0  0  0  0  0  0  0  0  0  0
  -26.5800  -34.8840   22.3990 O   0  0  0  0  0  0  0  0  0  0  0  0
  -24.9370  -34.1030   24.9640 H   0  0  0  0  0  0  0  0  0  0  0  0
  -24.1820  -36.7900   23.0070 C   0  0  0  0  0  1  0  0  0  0  0  0
  -25.3950  -36.3820   23.8570 C   0  0  0  0  0  3  0  0  0  0  0  0
  -27.5040  -37.2610   24.7560 C   0  0  0  0  0  1  0  0  0  0  0  0
  -26.4350  -37.4300   23.7740 N   0  0  0  0  0  0  0  0  0  0  0  0
  -26.0300  -38.3520   23.9060 H   0  0  0  0  0  0  0  0  0  0  0  0
  1  8  1  0
  1  2  1  0
  2  4  1  0
  3  1  2  0
  5  7  1  0
  6  5  2  0
  8  9  2  0
  8  6  1  0
  9 10  1  0
 10  7  2  0
 11  9  1  0
 12 20  1  0
 13 18  1  0
 14 15  1  0
 14 13  1  0
 16 15  1  0
 16 25  1  0
 16 17  1  0
 18 12  1  0
 18 17  1  0
 19 12  2  0
 20 10  1  0
 20 21  1  0
 22 23  2  0
 23 42  1  0
 24 23  1  0
 24 27  1  0
 25 26  1  0
 25 22  1  0
 26 24  2  0
 27 28  1  0
 28 29  2  0
 30 33  1  0
 30 29  1  0
 31 30  2  0
 32 31  1  0
 32 27  2  0
 33 34  1  0
 34 35  1  0
 35 36  2  0
 37 36  1  0
 37 41  1  0
 38 37  2  0
 39 34  2  0
 39 38  1  0
 40 39  1  0
 42 43  1  0
 43 46  1  0
 43 45  1  0
 44 42  2  0
 47 48  1  0
 47 22  1  0
 49 47  1  0
 50  2  1  0
 50 53  1  0
 53 51  1  6
 53 54  1  0
 53 52  1  0
 55 54  1  0
 56 67  2  0
 57 55  1  0
 57 62  1  0
 58 66  1  0
 58 68  1  0
 59 65  1  0
 59 61  1  0
 60 66  1  0
 61 62  2  0
 61 60  1  0
 63 57  2  0
 64 63  1  0
 64 59  2  0
 65 58  1  0
 66 56  1  0
 68 70  2  0
 69 68  1  0
 71 69  1  0
 72 81  2  0
 72 77  1  0
 73 69  1  0
 73 77  1  0
 74 73  1  0
 75 76  1  0
 75 74  1  0
 76 72  1  0
 77 78  2  0
 78 79  1  0
 80 79  2  0
 81 80  1  0
 82 56  1  0
 82 87  1  0
 82 83  1  0
 83 86  1  1
 83 84  1  0
 85 83  1  0
 87 90  1  0
 88 92  1  0
 88 87  1  0
 89 88  2  0
 92 91  1  0
 94 92  1  0
 94 95  1  0
 94 93  1  0
M  ISO  4  12 100  20 100  54 101  55 101
M  END
>  <TORSDO>  (51) 
F 20

>  <SCORE>  (51) 
-14.419

>  <name>  (51) 
50

>  <ligand_id>  (51) 
50

>  <original_smiles>  (51) 
[H]c1c([H])c(C(=O)N([H])C([H])([H])C(C([H])([H])[H])(C([H])([H])[H])C([H])([H])Oc2c([H])c([H])c3c(c2[H])C([H])([H])N(C(=O)C([H])(N([H])C(=O)C([H])(N([H])C([H])([H])[H])C([H])([H])[H])C(C([H])([H])[H])(C([H])([H])[H])C([H])([H])[H])C([H])(C(=O)N([H])C2([H])c4c([H])c([H])c([H])c([H])c4C([H])([H])C([H])([H])C2([H])[H])C3([H])[H])c(C([H])([H])[H])c(N([H])C(=O)N2C([H])([H])C([H])([H])C([H])([H])C([H])(n3nc(-c4c([H])c([H])c(Oc5c([H])c([H])c(F)c([H])c5F)c([H])c4[H])c(C(=O)N([H])[H])c3N([H])[H])C2([H])[H])c1[H]

>  <smiles>  (51) 
[H]c1c([H])c(C(=O)N([H])C([H])([H])C(C([H])([H])[H])(C([H])([H])[H])C([H])([H])Oc2c([H])c([H])c3c(c2[H])C([H])([H])N(C(=O)C([H])(N([H])C(=O)C([H])(N([H])C([H])([H])[H])C([H])([H])[H])C(C([H])([H])[H])(C([H])([H])[H])C([H])([H])[H])C([H])(C(=O)N([H])C2([H])c4c([H])c([H])c([H])c([H])c4C([H])([H])C([H])([H])C2([H])[H])C3([H])[H])c(C([H])([H])[H])c(N([H])C(=O)N2C([H])([H])C([H])([H])C([H])([H])C([H])(n3nc(-c4c([H])c([H])c(Oc5c([H])c([H])c(F)c([H])c5F)c([H])c4[H])c(C(=O)N([H])[H])c3N([H])[H])C2([H])[H])c1[H]

$$$$
51:0:0
     RDKit          3D

 92100  0  0  1  0  0  0  0  0999 V2000
  -29.0370  -21.2110   20.6910 C   0  0  0  0  0  0  0  0  0  0  0  0
  -29.1920  -22.4490   20.0730 N   0  0  0  0  0  0  0  0  0  0  0  0
  -28.5230  -21.1330   21.8080 O   0  0  0  0  0  0  0  0  0  0  0  0
  -29.5080  -22.3530   19.1180 H   0  0  0  0  0  0  0  0  0  0  0  0
  -30.5880  -18.7350   18.1240 C   0  0  0  0  0  3  0  0  0  0  0  0
  -30.1090  -19.9110   18.7340 C   0  0  0  0  0  3  0  0  0  0  0  0
  -30.5230  -17.4800   18.7660 C   0  0  0  0  0  3  0  0  0  0  0  0
  -29.4630  -18.5660   20.6600 C   0  0  0  0  0  3  0  0  0  0  0  0
  -29.5300  -19.8830   20.0260 C   0  0  0  0  0  0  0  0  0  0  0  0
  -29.9770  -17.3380   20.0660 C   0  0  0  0  0  0  0  0  0  0  0  0
  -30.6650  -14.8400   20.3660 C   0  0  0  0  0  0  0  0  0  0  0  0
  -30.4920  -12.5590   19.3720 C   0  0  0  0  0  2  0  0  0  0  0  0
  -29.5640  -12.6500   18.1380 C   0  0  0  0  0  2  0  0  0  0  0  0
  -28.0910  -12.4740   18.5540 C   0  0  0  0  0  2  0  0  0  0  0  0
  -27.7100  -13.3410   19.7850 C   0  0  0  0  0  3  0  0  0  0  0  0
  -28.7640  -13.2350   20.9090 C   0  0  0  0  0  2  0  0  0  0  0  0
  -30.0620  -13.6020   20.3320 N   0  0  0  0  0  0  0  0  0  0  0  0
  -31.8410  -14.9450   19.9980 O   0  0  0  0  0  0  0  0  0  0  0  0
  -29.9090  -15.9710   20.6590 N   0  0  0  0  0  0  0  0  0  0  0  0
  -29.1010  -15.7930   21.2370 H   0  0  0  0  0  0  0  0  0  0  0  0
  -25.3020  -13.9030   20.4830 C   0  0  0  0  0  0  0  0  0  0  0  0
  -24.2420  -13.1220   20.8510 C   0  0  0  0  0  0  0  0  0  0  0  0
  -24.7180  -11.7750   20.8300 C   0  0  0  0  0  0  0  0  0  0  0  0
  -26.3620  -13.0360   20.2620 N   0  0  0  0  0  0  0  0  0  0  0  0
  -26.0120  -11.7510   20.5310 N   0  0  0  0  0  0  0  0  0  0  0  0
  -24.0010  -10.5060   21.0190 C   0  0  0  0  0  0  0  0  0  0  0  0
  -24.4290   -9.5430   21.9600 C   0  0  0  0  0  3  0  0  0  0  0  0
  -23.7050   -8.3450   22.1360 C   0  0  0  0  0  3  0  0  0  0  0  0
  -22.5420   -8.0980   21.3690 C   0  0  0  0  0  0  0  0  0  0  0  0
  -22.1360   -9.0480   20.4150 C   0  0  0  0  0  3  0  0  0  0  0  0
  -22.8610  -10.2370   20.2340 C   0  0  0  0  0  3  0  0  0  0  0  0
  -21.7880   -6.9530   21.4590 O   0  0  0  0  0  0  0  0  0  0  0  0
  -21.7260   -6.2190   22.6170 C   0  0  0  0  0  0  0  0  0  0  0  0
  -21.2640   -6.7780   23.8290 C   0  0  0  0  0  3  0  0  0  0  0  0
  -21.1460   -5.9700   24.9770 C   0  0  0  0  0  3  0  0  0  0  0  0
  -21.4860   -4.6050   24.9180 C   0  0  0  0  0  0  0  0  0  0  0  0
  -21.9440   -4.0460   23.7090 C   0  0  0  0  0  3  0  0  0  0  0  0
  -22.0610   -4.8510   22.5630 C   0  0  0  0  0  0  0  0  0  0  0  0
  -22.4820   -4.3030   21.3990 F   0  0  0  0  0  0  0  0  0  0  0  0
  -21.3680   -3.8270   26.0180 F   0  0  0  0  0  0  0  0  0  0  0  0
  -22.8350  -13.5870   21.1030 C   0  0  0  0  0  0  0  0  0  0  0  0
  -22.0990  -12.8860   21.9600 N   0  0  0  0  0  0  0  0  0  0  0  0
  -22.3950  -14.6060   20.5750 O   0  0  0  0  0  0  0  0  0  0  0  0
  -22.4700  -12.0640   22.4130 H   0  0  0  0  0  0  0  0  0  0  0  0
  -21.1530  -13.1790   22.1680 H   0  0  0  0  0  0  0  0  0  0  0  0
  -25.4460  -15.2740   20.2950 N   0  0  0  0  0  0  0  0  0  0  0  0
  -24.6680  -15.9120   20.4360 H   0  0  0  0  0  0  0  0  0  0  0  0
  -26.2570  -15.7190   19.8850 H   0  0  0  0  0  0  0  0  0  0  0  0
  -29.2990  -24.0300   22.1190 C   0  0  0  0  0  1  0  0  0  0  0  0
  -29.2230  -23.9110   20.5760 C   0  0  0  0  0  3  0  0  0  0  0  0
  -28.1910  -25.0050   19.9650 C   0  0  0  0  0  2  0  0  0  0  0  0
  -28.3410  -26.4770   20.2570 O   0  0  0  0  0  0  0  0  0  0  0  0
  -24.5910  -31.9240   23.2240 C   0  0  0  0  0  0  0  0  0  0  0  0
  -27.2260  -27.3490   20.1810 C   0  0  0  0  0  0  0  0  0  0  0  0
  -23.3960  -30.5300   21.5700 C   0  0  0  0  0  3  0  0  0  0  0  0
  -24.8620  -28.9870   20.1450 C   0  0  0  0  0  0  0  0  0  0  0  0
  -25.9320  -30.8650   21.3820 C   0  0  0  0  0  2  0  0  0  0  0  0
  -26.0250  -29.4710   20.7550 C   0  0  0  0  0  0  0  0  0  0  0  0
  -27.2060  -28.6590   20.7710 C   0  0  0  0  0  3  0  0  0  0  0  0
  -26.0380  -26.9390   19.5300 C   0  0  0  0  0  3  0  0  0  0  0  0
  -24.8730  -27.7290   19.5240 C   0  0  0  0  0  3  0  0  0  0  0  0
  -23.6260  -29.8650   20.1840 C   0  0  0  0  0  2  0  0  0  0  0  0
  -24.6600  -31.1230   22.1200 N   0  0  0  0  0  0  0  0  0  0  0  0
  -23.5040  -32.1920   23.7600 O   0  0  0  0  0  0  0  0  0  0  0  0
  -22.7310  -29.5100   22.5270 C   0  0  0  0  0  0  0  0  0  0  0  0
  -21.4030  -29.3380   22.4090 N   0  0  0  0  0  0  0  0  0  0  0  0
  -23.4100  -28.8730   23.3360 O   0  0  0  0  0  0  0  0  0  0  0  0
  -20.9100  -29.9080   21.7340 H   0  0  0  0  0  0  0  0  0  0  0  0
  -18.0250  -28.1460   22.9250 C   0  0  0  0  0  0  0  0  0  0  0  0
  -20.5870  -28.3980   23.1800 C   0  0  0  0  0  3  0  0  0  0  0  0
  -20.6810  -26.9710   22.5940 C   0  0  0  0  0  2  0  0  0  0  0  0
  -19.5710  -26.6560   21.5850 C   0  0  0  0  0  2  0  0  0  0  0  0
  -18.1920  -26.8030   22.2340 C   0  0  0  0  0  2  0  0  0  0  0  0
  -19.1480  -28.8990   23.3590 C   0  0  0  0  0  0  0  0  0  0  0  0
  -18.9360  -30.1540   23.9680 C   0  0  0  0  0  3  0  0  0  0  0  0
  -17.6350  -30.6600   24.1430 C   0  0  0  0  0  3  0  0  0  0  0  0
  -16.5250  -29.9070   23.7190 C   0  0  0  0  0  3  0  0  0  0  0  0
  -16.7210  -28.6510   23.1190 C   0  0  0  0  0  3  0  0  0  0  0  0
  -25.8690  -32.5580   23.8590 C   0  0  0  0  0  3  0  0  0  0  0  0
  -26.3760  -31.7820   25.1340 C   0  0  1  0  0  0  0  0  0  0  0  0
  -25.2800  -31.5410   26.1980 C   0  0  0  0  0  1  0  0  0  0  0  0
  -26.9580  -30.4090   24.7260 C   0  0  0  0  0  1  0  0  0  0  0  0
  -27.5270  -32.5700   25.8040 C   0  0  0  0  0  1  0  0  0  0  0  0
  -25.5620  -33.9580   24.1890 N   0  0  0  0  0  0  0  0  0  0  0  0
  -25.8950  -35.0080   23.4260 C   0  0  0  0  0  0  0  0  0  0  0  0
  -26.5620  -34.8990   22.3930 O   0  0  0  0  0  0  0  0  0  0  0  0
  -24.9850  -34.1190   25.0010 H   0  0  0  0  0  0  0  0  0  0  0  0
  -24.1820  -36.8100   23.0480 C   0  0  0  0  0  1  0  0  0  0  0  0
  -25.4100  -36.3990   23.8780 C   0  0  0  0  0  3  0  0  0  0  0  0
  -27.5370  -37.2740   24.7370 C   0  0  0  0  0  1  0  0  0  0  0  0
  -26.4500  -37.4460   23.7780 N   0  0  0  0  0  0  0  0  0  0  0  0
  -26.0440  -38.3690   23.9170 H   0  0  0  0  0  0  0  0  0  0  0  0
  1  3  2  0
  2 50  1  0
  2  1  1  0
  4  2  1  0
  5  6  2  0
  5  7  1  0
  6  9  1  0
  7 10  2  0
  9  8  2  0
  9  1  1  0
 10 19  1  0
 10  8  1  0
 11 19  1  0
 12 17  1  0
 13 14  1  0
 13 12  1  0
 15 14  1  0
 15 24  1  0
 15 16  1  0
 17 11  1  0
 17 16  1  0
 18 11  2  0
 19 20  1  0
 21 22  2  0
 22 41  1  0
 23 22  1  0
 23 26  1  0
 24 21  1  0
 24 25  1  0
 25 23  2  0
 26 27  1  0
 27 28  2  0
 29 32  1  0
 29 28  1  0
 30 29  2  0
 31 30  1  0
 31 26  2  0
 32 33  1  0
 33 34  1  0
 34 35  2  0
 36 35  1  0
 36 40  1  0
 37 36  2  0
 38 33  2  0
 38 37  1  0
 39 38  1  0
 41 42  1  0
 42 45  1  0
 42 44  1  0
 43 41  2  0
 46 47  1  0
 46 21  1  0
 48 46  1  0
 50 49  1  0
 51 52  1  0
 51 50  1  0
 53 64  2  0
 54 52  1  0
 54 59  1  0
 55 63  1  0
 55 65  1  0
 56 62  1  0
 56 58  1  0
 57 63  1  0
 58 59  2  0
 58 57  1  0
 60 54  2  0
 61 60  1  0
 61 56  2  0
 62 55  1  0
 63 53  1  0
 65 67  2  0
 66 65  1  0
 68 66  1  0
 69 78  2  0
 69 74  1  0
 70 66  1  0
 70 74  1  0
 71 70  1  0
 72 73  1  0
 72 71  1  0
 73 69  1  0
 74 75  2  0
 75 76  1  0
 77 76  2  0
 78 77  1  0
 79 53  1  0
 79 84  1  0
 79 80  1  0
 80 83  1  1
 80 81  1  0
 82 80  1  0
 84 87  1  0
 85 89  1  0
 85 84  1  0
 86 85  2  0
 89 88  1  0
 91 89  1  0
 91 92  1  0
 91 90  1  0
M  ISO  4  11 100  19 100  51 101  52 101
M  END
>  <TORSDO>  (52) 
F 19

>  <SCORE>  (52) 
-14.269

>  <name>  (52) 
51

>  <ligand_id>  (52) 
51

>  <original_smiles>  (52) 
[H]c1c([H])c(C(=O)N([H])C([H])(C([H])([H])[H])C([H])([H])Oc2c([H])c([H])c3c(c2[H])C([H])([H])N(C(=O)C([H])(N([H])C(=O)C([H])(N([H])C([H])([H])[H])C([H])([H])[H])C(C([H])([H])[H])(C([H])([H])[H])C([H])([H])[H])C([H])(C(=O)N([H])C2([H])c4c([H])c([H])c([H])c([H])c4C([H])([H])C([H])([H])C2([H])[H])C3([H])[H])c([H])c(N([H])C(=O)N2C([H])([H])C([H])([H])C([H])([H])C([H])(n3nc(-c4c([H])c([H])c(Oc5c([H])c([H])c(F)c([H])c5F)c([H])c4[H])c(C(=O)N([H])[H])c3N([H])[H])C2([H])[H])c1[H]

>  <smiles>  (52) 
[H]c1c([H])c(C(=O)N([H])C([H])(C([H])([H])[H])C([H])([H])Oc2c([H])c([H])c3c(c2[H])C([H])([H])N(C(=O)C([H])(N([H])C(=O)C([H])(N([H])C([H])([H])[H])C([H])([H])[H])C(C([H])([H])[H])(C([H])([H])[H])C([H])([H])[H])C([H])(C(=O)N([H])C2([H])c4c([H])c([H])c([H])c([H])c4C([H])([H])C([H])([H])C2([H])[H])C3([H])[H])c([H])c(N([H])C(=O)N2C([H])([H])C([H])([H])C([H])([H])C([H])(n3nc(-c4c([H])c([H])c(Oc5c([H])c([H])c(F)c([H])c5F)c([H])c4[H])c(C(=O)N([H])[H])c3N([H])[H])C2([H])[H])c1[H]

$$$$
52:0:0
     RDKit          3D

 92100  0  0  1  0  0  0  0  0999 V2000
  -29.7230  -21.9140   20.5050 C   0  0  0  0  0  0  0  0  0  0  0  0
  -29.5530  -20.6780   21.0450 N   0  0  0  0  0  0  0  0  0  0  0  0
  -30.3140  -22.0940   19.4340 O   0  0  0  0  0  0  0  0  0  0  0  0
  -28.8500  -20.6060   21.7670 H   0  0  0  0  0  0  0  0  0  0  0  0
  -32.6160  -18.5650   20.6470 C   0  0  0  0  0  3  0  0  0  0  0  0
  -31.7670  -19.6780   20.7030 C   0  0  0  0  0  3  0  0  0  0  0  0
  -32.0900  -17.2660   20.7200 C   0  0  0  0  0  3  0  0  0  0  0  0
  -29.8460  -18.1770   20.9130 C   0  0  0  0  0  3  0  0  0  0  0  0
  -30.3730  -19.5090   20.8490 C   0  0  0  0  0  0  0  0  0  0  0  0
  -30.6910  -17.0250   20.8130 C   0  0  0  0  0  0  0  0  0  0  0  0
  -30.7200  -14.5390   20.3340 C   0  0  0  0  0  0  0  0  0  0  0  0
  -30.3170  -12.3630   19.2450 C   0  0  0  0  0  2  0  0  0  0  0  0
  -29.3760  -12.5570   18.0390 C   0  0  0  0  0  2  0  0  0  0  0  0
  -27.9120  -12.4190   18.4900 C   0  0  0  0  0  2  0  0  0  0  0  0
  -27.5880  -13.2700   19.7490 C   0  0  0  0  0  3  0  0  0  0  0  0
  -28.6660  -13.1220   20.8490 C   0  0  0  0  0  2  0  0  0  0  0  0
  -29.9770  -13.3960   20.2440 N   0  0  0  0  0  0  0  0  0  0  0  0
  -31.8420  -14.5770   19.8330 O   0  0  0  0  0  0  0  0  0  0  0  0
  -30.1430  -15.6720   20.8280 N   0  0  0  0  0  0  0  0  0  0  0  0
  -29.1850  -15.5730   21.1280 H   0  0  0  0  0  0  0  0  0  0  0  0
  -25.2050  -13.8530   20.5110 C   0  0  0  0  0  0  0  0  0  0  0  0
  -24.1440  -13.0740   20.8870 C   0  0  0  0  0  0  0  0  0  0  0  0
  -24.6070  -11.7240   20.8350 C   0  0  0  0  0  0  0  0  0  0  0  0
  -26.2480  -12.9780   20.2540 N   0  0  0  0  0  0  0  0  0  0  0  0
  -25.8930  -11.6910   20.5080 N   0  0  0  0  0  0  0  0  0  0  0  0
  -23.8850  -10.4580   21.0220 C   0  0  0  0  0  0  0  0  0  0  0  0
  -24.3140   -9.4940   21.9610 C   0  0  0  0  0  3  0  0  0  0  0  0
  -23.5910   -8.2940   22.1360 C   0  0  0  0  0  3  0  0  0  0  0  0
  -22.4240   -8.0490   21.3730 C   0  0  0  0  0  0  0  0  0  0  0  0
  -22.0130   -9.0030   20.4250 C   0  0  0  0  0  3  0  0  0  0  0  0
  -22.7380  -10.1940   20.2470 C   0  0  0  0  0  3  0  0  0  0  0  0
  -21.6730   -6.9020   21.4580 O   0  0  0  0  0  0  0  0  0  0  0  0
  -21.6050   -6.1700   22.6170 C   0  0  0  0  0  0  0  0  0  0  0  0
  -21.1280   -6.7270   23.8230 C   0  0  0  0  0  3  0  0  0  0  0  0
  -21.0090   -5.9200   24.9720 C   0  0  0  0  0  3  0  0  0  0  0  0
  -21.3580   -4.5580   24.9150 C   0  0  0  0  0  0  0  0  0  0  0  0
  -21.8280   -3.9990   23.7130 C   0  0  0  0  0  3  0  0  0  0  0  0
  -21.9480   -4.8030   22.5670 C   0  0  0  0  0  0  0  0  0  0  0  0
  -22.3820   -4.2570   21.4050 F   0  0  0  0  0  0  0  0  0  0  0  0
  -21.2370   -3.7800   26.0160 F   0  0  0  0  0  0  0  0  0  0  0  0
  -22.7510  -13.5460   21.1860 C   0  0  0  0  0  0  0  0  0  0  0  0
  -22.0340  -12.8350   22.0480 N   0  0  0  0  0  0  0  0  0  0  0  0
  -22.3070  -14.5810   20.6890 O   0  0  0  0  0  0  0  0  0  0  0  0
  -22.4070  -11.9980   22.4720 H   0  0  0  0  0  0  0  0  0  0  0  0
  -21.0990  -13.1320   22.2880 H   0  0  0  0  0  0  0  0  0  0  0  0
  -25.3640  -15.2250   20.3440 N   0  0  0  0  0  0  0  0  0  0  0  0
  -24.5940  -15.8760   20.4620 H   0  0  0  0  0  0  0  0  0  0  0  0
  -26.2050  -15.6680   19.9960 H   0  0  0  0  0  0  0  0  0  0  0  0
  -28.7280  -24.1420   20.8260 C   0  0  0  0  0  0  0  0  0  0  0  0
  -29.1230  -22.9750   21.3200 C   0  0  0  0  0  3  0  0  0  0  0  0
  -27.9960  -25.1920   20.4900 C   0  0  0  0  0  3  0  0  0  0  0  0
  -28.2800  -26.5460   20.2720 O   0  0  0  0  0  0  0  0  0  0  0  0
  -24.5730  -31.9250   23.2380 C   0  0  0  0  0  0  0  0  0  0  0  0
  -27.1840  -27.4040   20.1860 C   0  0  0  0  0  0  0  0  0  0  0  0
  -23.3700  -30.5210   21.6010 C   0  0  0  0  0  3  0  0  0  0  0  0
  -24.8210  -28.9860   20.1720 C   0  0  0  0  0  0  0  0  0  0  0  0
  -25.9060  -30.8480   21.4250 C   0  0  0  0  0  2  0  0  0  0  0  0
  -25.9840  -29.4730   20.7840 C   0  0  0  0  0  0  0  0  0  0  0  0
  -27.1670  -28.6850   20.7990 C   0  0  0  0  0  3  0  0  0  0  0  0
  -26.0170  -26.9890   19.5010 C   0  0  0  0  0  3  0  0  0  0  0  0
  -24.8350  -27.7430   19.5260 C   0  0  0  0  0  3  0  0  0  0  0  0
  -23.5830  -29.8510   20.2200 C   0  0  0  0  0  2  0  0  0  0  0  0
  -24.6340  -31.1140   22.1440 N   0  0  0  0  0  0  0  0  0  0  0  0
  -23.4900  -32.2060   23.7690 O   0  0  0  0  0  0  0  0  0  0  0  0
  -22.7090  -29.5020   22.5580 C   0  0  0  0  0  0  0  0  0  0  0  0
  -21.3830  -29.3280   22.4290 N   0  0  0  0  0  0  0  0  0  0  0  0
  -23.3870  -28.8740   23.3760 O   0  0  0  0  0  0  0  0  0  0  0  0
  -20.8980  -29.8860   21.7420 H   0  0  0  0  0  0  0  0  0  0  0  0
  -17.9960  -28.1720   22.9490 C   0  0  0  0  0  0  0  0  0  0  0  0
  -20.5590  -28.3960   23.2010 C   0  0  0  0  0  3  0  0  0  0  0  0
  -20.6380  -26.9670   22.6190 C   0  0  0  0  0  2  0  0  0  0  0  0
  -19.5260  -26.6630   21.6110 C   0  0  0  0  0  2  0  0  0  0  0  0
  -18.1510  -26.8230   22.2660 C   0  0  0  0  0  2  0  0  0  0  0  0
  -19.1280  -28.9180   23.3740 C   0  0  0  0  0  0  0  0  0  0  0  0
  -18.9300  -30.1820   23.9710 C   0  0  0  0  0  3  0  0  0  0  0  0
  -17.6340  -30.7000   24.1480 C   0  0  0  0  0  3  0  0  0  0  0  0
  -16.5170  -29.9520   23.7390 C   0  0  0  0  0  3  0  0  0  0  0  0
  -16.6980  -28.6890   23.1460 C   0  0  0  0  0  3  0  0  0  0  0  0
  -25.8590  -32.5530   23.8580 C   0  0  0  0  0  3  0  0  0  0  0  0
  -26.3680  -31.7880   25.1400 C   0  0  1  0  0  0  0  0  0  0  0  0
  -25.2700  -31.5580   26.2030 C   0  0  0  0  0  1  0  0  0  0  0  0
  -26.9520  -30.4060   24.7600 C   0  0  0  0  0  1  0  0  0  0  0  0
  -27.5150  -32.5850   25.8030 C   0  0  0  0  0  1  0  0  0  0  0  0
  -25.5540  -33.9560   24.1760 N   0  0  0  0  0  0  0  0  0  0  0  0
  -25.8980  -35.0000   23.4110 C   0  0  0  0  0  0  0  0  0  0  0  0
  -26.5790  -34.8860   22.3880 O   0  0  0  0  0  0  0  0  0  0  0  0
  -24.9510  -34.1180   24.9690 H   0  0  0  0  0  0  0  0  0  0  0  0
  -24.1950  -36.8070   23.0120 C   0  0  0  0  0  1  0  0  0  0  0  0
  -25.4130  -36.3930   23.8540 C   0  0  0  0  0  3  0  0  0  0  0  0
  -27.5340  -37.2640   24.7350 C   0  0  0  0  0  1  0  0  0  0  0  0
  -26.4580  -37.4370   23.7610 N   0  0  0  0  0  0  0  0  0  0  0  0
  -26.0580  -38.3610   23.8930 H   0  0  0  0  0  0  0  0  0  0  0  0
  1  2  1  0
  1 50  1  0
  2  4  1  0
  3  1  2  0
  5  6  2  0
  5  7  1  0
  6  9  1  0
  7 10  2  0
  9  8  2  0
  9  2  1  0
 10 19  1  0
 10  8  1  0
 11 19  1  0
 12 17  1  0
 13 14  1  0
 13 12  1  0
 15 14  1  0
 15 24  1  0
 15 16  1  0
 17 11  1  0
 17 16  1  0
 18 11  2  0
 19 20  1  0
 21 22  2  0
 22 41  1  0
 23 22  1  0
 23 26  1  0
 24 25  1  0
 24 21  1  0
 25 23  2  0
 26 27  1  0
 27 28  2  0
 29 32  1  0
 29 28  1  0
 30 29  2  0
 31 30  1  0
 31 26  2  0
 32 33  1  0
 33 34  1  0
 34 35  2  0
 36 35  1  0
 36 40  1  0
 37 36  2  0
 38 33  2  0
 38 37  1  0
 39 38  1  0
 41 42  1  0
 42 45  1  0
 42 44  1  0
 43 41  2  0
 46 47  1  0
 46 21  1  0
 48 46  1  0
 49 50  2  0
 51 49  2  0
 52 51  1  0
 53 64  2  0
 54 52  1  0
 54 59  1  0
 55 63  1  0
 55 65  1  0
 56 62  1  0
 56 58  1  0
 57 63  1  0
 58 59  2  0
 58 57  1  0
 60 61  1  0
 60 54  2  0
 61 56  2  0
 62 55  1  0
 63 53  1  0
 65 67  2  0
 66 65  1  0
 68 66  1  0
 69 78  2  0
 69 74  1  0
 70 66  1  0
 70 74  1  0
 71 70  1  0
 72 73  1  0
 72 71  1  0
 73 69  1  0
 74 75  2  0
 75 76  1  0
 77 76  2  0
 78 77  1  0
 79 53  1  0
 79 84  1  0
 79 80  1  0
 80 83  1  1
 80 81  1  0
 82 80  1  0
 84 87  1  0
 85 89  1  0
 85 84  1  0
 86 85  2  0
 89 88  1  0
 91 89  1  0
 91 92  1  0
 91 90  1  0
M  ISO  4  11 100  19 100  51 101  52 101
M  END
>  <TORSDO>  (53) 
F 18

>  <SCORE>  (53) 
-14.823

>  <name>  (53) 
52

>  <ligand_id>  (53) 
52

>  <original_smiles>  (53) 
[H]C(=C=C([H])C(=O)N([H])c1c([H])c([H])c([H])c(N([H])C(=O)N2C([H])([H])C([H])([H])C([H])([H])C([H])(n3nc(-c4c([H])c([H])c(Oc5c([H])c([H])c(F)c([H])c5F)c([H])c4[H])c(C(=O)N([H])[H])c3N([H])[H])C2([H])[H])c1[H])Oc1c([H])c([H])c2c(c1[H])C([H])([H])N(C(=O)C([H])(N([H])C(=O)C([H])(N([H])C([H])([H])[H])C([H])([H])[H])C(C([H])([H])[H])(C([H])([H])[H])C([H])([H])[H])C([H])(C(=O)N([H])C1([H])c3c([H])c([H])c([H])c([H])c3C([H])([H])C([H])([H])C1([H])[H])C2([H])[H]

>  <smiles>  (53) 
[H]C(=C=C([H])C(=O)N([H])c1c([H])c([H])c([H])c(N([H])C(=O)N2C([H])([H])C([H])([H])C([H])([H])C([H])(n3nc(-c4c([H])c([H])c(Oc5c([H])c([H])c(F)c([H])c5F)c([H])c4[H])c(C(=O)N([H])[H])c3N([H])[H])C2([H])[H])c1[H])Oc1c([H])c([H])c2c(c1[H])C([H])([H])N(C(=O)C([H])(N([H])C(=O)C([H])(N([H])C([H])([H])[H])C([H])([H])[H])C(C([H])([H])[H])(C([H])([H])[H])C([H])([H])[H])C([H])(C(=O)N([H])C1([H])c3c([H])c([H])c([H])c([H])c3C([H])([H])C([H])([H])C1([H])[H])C2([H])[H]

$$$$
53:0:0
     RDKit          3D

 91 99  0  0  1  0  0  0  0  0999 V2000
  -30.5930  -21.7460   19.9070 C   0  0  0  0  0  0  0  0  0  0  0  0
  -31.7160  -22.2430   19.7700 O   0  0  0  0  0  0  0  0  0  0  0  0
  -31.2290  -19.3530   19.2870 C   0  0  0  0  0  3  0  0  0  0  0  0
  -31.2120  -17.9350   19.4240 C   0  0  0  0  0  3  0  0  0  0  0  0
  -29.6390  -18.1560   21.2250 C   0  0  0  0  0  3  0  0  0  0  0  0
  -30.4410  -20.2230   20.0950 C   0  0  0  0  0  0  0  0  0  0  0  0
  -29.6750  -19.5790   21.1140 C   0  0  0  0  0  0  0  0  0  0  0  0
  -30.4010  -17.2940   20.3940 C   0  0  0  0  0  0  0  0  0  0  0  0
  -28.9170  -20.3800   22.1590 C   0  0  0  0  0  1  0  0  0  0  0  0
  -30.9770  -14.8110   20.0230 C   0  0  0  0  0  0  0  0  0  0  0  0
  -30.6680  -12.5960   18.9510 C   0  0  0  0  0  2  0  0  0  0  0  0
  -29.6600  -12.7650   17.7930 C   0  0  0  0  0  2  0  0  0  0  0  0
  -28.2140  -12.6060   18.3030 C   0  0  0  0  0  2  0  0  0  0  0  0
  -27.9350  -13.4450   19.5790 C   0  0  0  0  0  3  0  0  0  0  0  0
  -29.0570  -13.2690   20.6280 C   0  0  0  0  0  2  0  0  0  0  0  0
  -30.3370  -13.6010   19.9800 N   0  0  0  0  0  0  0  0  0  0  0  0
  -32.0840  -14.9730   19.5020 O   0  0  0  0  0  0  0  0  0  0  0  0
  -30.2770  -15.8500   20.5630 N   0  0  0  0  0  0  0  0  0  0  0  0
  -29.4650  -15.5520   21.0800 H   0  0  0  0  0  0  0  0  0  0  0  0
  -25.6040  -14.0330   20.4840 C   0  0  0  0  0  0  0  0  0  0  0  0
  -24.5530  -13.2560   20.8900 C   0  0  0  0  0  0  0  0  0  0  0  0
  -24.9910  -11.9020   20.7580 C   0  0  0  0  0  0  0  0  0  0  0  0
  -26.6160  -13.1540   20.1370 N   0  0  0  0  0  0  0  0  0  0  0  0
  -26.2560  -11.8620   20.3560 N   0  0  0  0  0  0  0  0  0  0  0  0
  -24.2600  -10.6410   20.9360 C   0  0  0  0  0  0  0  0  0  0  0  0
  -24.6590   -9.6840   21.8950 C   0  0  0  0  0  3  0  0  0  0  0  0
  -23.9270   -8.4880   22.0610 C   0  0  0  0  0  3  0  0  0  0  0  0
  -22.7840   -8.2400   21.2660 C   0  0  0  0  0  0  0  0  0  0  0  0
  -22.4020   -9.1860   20.2980 C   0  0  0  0  0  3  0  0  0  0  0  0
  -23.1340  -10.3740   20.1300 C   0  0  0  0  0  3  0  0  0  0  0  0
  -22.0270   -7.0950   21.3380 O   0  0  0  0  0  0  0  0  0  0  0  0
  -21.8160   -6.4470   22.5280 C   0  0  0  0  0  0  0  0  0  0  0  0
  -21.1730   -7.0770   23.6160 C   0  0  0  0  0  3  0  0  0  0  0  0
  -20.9120   -6.3520   24.7960 C   0  0  0  0  0  3  0  0  0  0  0  0
  -21.2850   -4.9960   24.8880 C   0  0  0  0  0  0  0  0  0  0  0  0
  -21.9210   -4.3670   23.8030 C   0  0  0  0  0  3  0  0  0  0  0  0
  -22.1830   -5.0900   22.6270 C   0  0  0  0  0  0  0  0  0  0  0  0
  -22.7760   -4.4720   21.5770 F   0  0  0  0  0  0  0  0  0  0  0  0
  -21.0290   -4.2960   26.0170 F   0  0  0  0  0  0  0  0  0  0  0  0
  -23.1850  -13.7360   21.2790 C   0  0  0  0  0  0  0  0  0  0  0  0
  -22.5120  -13.0120   22.1670 N   0  0  0  0  0  0  0  0  0  0  0  0
  -22.7250  -14.7890   20.8360 O   0  0  0  0  0  0  0  0  0  0  0  0
  -22.8980  -12.1630   22.5490 H   0  0  0  0  0  0  0  0  0  0  0  0
  -21.5950  -13.3130   22.4660 H   0  0  0  0  0  0  0  0  0  0  0  0
  -25.7750  -15.4100   20.3650 N   0  0  0  0  0  0  0  0  0  0  0  0
  -25.0200  -16.0590   20.5530 H   0  0  0  0  0  0  0  0  0  0  0  0
  -26.5950  -15.8560   19.9720 H   0  0  0  0  0  0  0  0  0  0  0  0
  -29.3580  -22.7110   19.7810 C   0  0  0  0  0  2  0  0  0  0  0  0
  -29.6060  -24.2750   19.9860 C   0  0  0  0  0  3  0  0  0  0  0  0
  -28.3900  -25.2410   19.6720 C   0  0  0  0  0  3  0  0  0  0  0  0
  -28.5180  -26.6850   19.9440 O   0  0  0  0  0  0  0  0  0  0  0  0
  -24.5560  -31.7510   23.1850 C   0  0  0  0  0  0  0  0  0  0  0  0
  -27.3530  -27.4690   19.9220 C   0  0  0  0  0  0  0  0  0  0  0  0
  -23.4080  -30.3980   21.4660 C   0  0  0  0  0  3  0  0  0  0  0  0
  -24.9220  -28.9760   19.9730 C   0  0  0  0  0  0  0  0  0  0  0  0
  -25.9340  -30.8180   21.3170 C   0  0  0  0  0  2  0  0  0  0  0  0
  -26.0680  -29.4810   20.6020 C   0  0  0  0  0  0  0  0  0  0  0  0
  -27.2840  -28.7420   20.5650 C   0  0  0  0  0  3  0  0  0  0  0  0
  -26.1800  -27.0100   19.2770 C   0  0  0  0  0  3  0  0  0  0  0  0
  -24.9820  -27.7470   19.3010 C   0  0  0  0  0  3  0  0  0  0  0  0
  -23.6510  -29.7970   20.0560 C   0  0  0  0  0  2  0  0  0  0  0  0
  -24.6510  -31.0030   22.0470 N   0  0  0  0  0  0  0  0  0  0  0  0
  -23.4620  -31.9640   23.7270 O   0  0  0  0  0  0  0  0  0  0  0  0
  -22.7770  -29.3140   22.3710 C   0  0  0  0  0  0  0  0  0  0  0  0
  -21.4590  -29.0930   22.2170 N   0  0  0  0  0  0  0  0  0  0  0  0
  -23.4700  -28.6750   23.1650 O   0  0  0  0  0  0  0  0  0  0  0  0
  -20.9600  -29.6630   21.5490 H   0  0  0  0  0  0  0  0  0  0  0  0
  -18.1200  -27.7740   22.6380 C   0  0  0  0  0  0  0  0  0  0  0  0
  -20.6670  -28.0920   22.9330 C   0  0  0  0  0  3  0  0  0  0  0  0
  -20.8130  -26.6970   22.2820 C   0  0  0  0  0  2  0  0  0  0  0  0
  -19.7250  -26.3990   21.2450 C   0  0  0  0  0  2  0  0  0  0  0  0
  -18.3380  -26.4690   21.8910 C   0  0  0  0  0  2  0  0  0  0  0  0
  -19.2140  -28.5440   23.1130 C   0  0  0  0  0  0  0  0  0  0  0  0
  -18.9570  -29.7640   23.7730 C   0  0  0  0  0  3  0  0  0  0  0  0
  -17.6390  -30.2180   23.9610 C   0  0  0  0  0  3  0  0  0  0  0  0
  -16.5580  -29.4460   23.5010 C   0  0  0  0  0  3  0  0  0  0  0  0
  -16.7990  -28.2250   22.8450 C   0  0  0  0  0  3  0  0  0  0  0  0
  -25.8150  -32.3920   23.8480 C   0  0  0  0  0  3  0  0  0  0  0  0
  -26.3030  -31.6210   25.1350 C   0  0  1  0  0  0  0  0  0  0  0  0
  -25.1810  -31.3600   26.1670 C   0  0  0  0  0  1  0  0  0  0  0  0
  -26.9180  -30.2540   24.7550 C   0  0  0  0  0  1  0  0  0  0  0  0
  -27.4190  -32.4270   25.8380 C   0  0  0  0  0  1  0  0  0  0  0  0
  -25.4820  -33.7860   24.1770 N   0  0  0  0  0  0  0  0  0  0  0  0
  -25.7910  -34.8440   23.4150 C   0  0  0  0  0  0  0  0  0  0  0  0
  -26.4570  -34.7500   22.3800 O   0  0  0  0  0  0  0  0  0  0  0  0
  -24.8890  -33.9300   24.9810 H   0  0  0  0  0  0  0  0  0  0  0  0
  -24.0130  -36.5920   23.0850 C   0  0  0  0  0  1  0  0  0  0  0  0
  -25.2800  -36.2240   23.8740 C   0  0  0  0  0  3  0  0  0  0  0  0
  -27.4020  -37.1710   24.6670 C   0  0  0  0  0  1  0  0  0  0  0  0
  -26.2860  -37.2990   23.7340 N   0  0  0  0  0  0  0  0  0  0  0  0
  -25.8600  -38.2100   23.8720 H   0  0  0  0  0  0  0  0  0  0  0  0
  1  6  1  0
  2  1  2  0
  3  4  2  0
  3  6  1  0
  4  8  1  0
  6  7  2  0
  7  5  1  0
  7  9  1  0
  8 18  1  0
  8  5  2  0
 10 18  1  0
 11 16  1  0
 12 13  1  0
 12 11  1  0
 14 13  1  0
 14 23  1  0
 14 15  1  0
 16 10  1  0
 16 15  1  0
 17 10  2  0
 18 19  1  0
 20 21  2  0
 21 40  1  0
 22 21  1  0
 22 25  1  0
 23 24  1  0
 23 20  1  0
 24 22  2  0
 25 26  1  0
 26 27  2  0
 28 31  1  0
 28 27  1  0
 29 28  2  0
 30 29  1  0
 30 25  2  0
 31 32  1  0
 32 37  2  0
 32 33  1  0
 33 34  2  0
 34 35  1  0
 35 39  1  0
 36 35  2  0
 37 36  1  0
 38 37  1  0
 40 41  1  0
 41 44  1  0
 41 43  1  0
 42 40  2  0
 45 20  1  0
 45 46  1  0
 47 45  1  0
 48  1  1  0
 48 49  1  0
 50 51  1  0
 50 49  2  0
 52 63  2  0
 53 51  1  0
 53 58  1  0
 54 62  1  0
 54 64  1  0
 55 61  1  0
 55 57  1  0
 56 62  1  0
 57 56  1  0
 58 57  2  0
 59 60  1  0
 59 53  2  0
 60 55  2  0
 61 54  1  0
 62 52  1  0
 64 66  2  0
 65 64  1  0
 67 65  1  0
 68 77  2  0
 68 73  1  0
 69 65  1  0
 69 73  1  0
 70 69  1  0
 71 72  1  0
 71 70  1  0
 72 68  1  0
 73 74  2  0
 74 75  1  0
 76 75  2  0
 77 76  1  0
 78 52  1  0
 78 83  1  0
 78 79  1  0
 79 82  1  1
 79 80  1  0
 81 79  1  0
 83 86  1  0
 84 88  1  0
 84 83  1  0
 85 84  2  0
 88 87  1  0
 90 91  1  0
 90 88  1  0
 90 89  1  0
M  ISO  4  10 100  18 100  50 101  51 101
M  END
>  <TORSDO>  (54) 
F 20

>  <SCORE>  (54) 
-11.879

>  <name>  (54) 
53

>  <ligand_id>  (54) 
53

>  <original_smiles>  (54) 
[H]c1c([H])c([H])c2c(c1[H])C([H])([H])C([H])([H])C([H])([H])C2([H])N([H])C(=O)C1([H])N(C(=O)C([H])(N([H])C(=O)C([H])(N([H])C([H])([H])[H])C([H])([H])[H])C(C([H])([H])[H])(C([H])([H])[H])C([H])([H])[H])C([H])([H])c2c([H])c(OC([H])([H])C([H])([H])C([H])([H])C(=O)c3c([H])c([H])c(N([H])C(=O)N4C([H])([H])C([H])([H])C([H])([H])C([H])(n5nc(-c6c([H])c([H])c(Oc7c([H])c([H])c(F)c([H])c7F)c([H])c6[H])c(C(=O)N([H])[H])c5N([H])[H])C4([H])[H])c([H])c3C([H])([H])[H])c([H])c([H])c2C1([H])[H]

>  <smiles>  (54) 
[H]c1c([H])c([H])c2c(c1[H])C([H])([H])C([H])([H])C([H])([H])C2([H])N([H])C(=O)C1([H])N(C(=O)C([H])(N([H])C(=O)C([H])(N([H])C([H])([H])[H])C([H])([H])[H])C(C([H])([H])[H])(C([H])([H])[H])C([H])([H])[H])C([H])([H])c2c([H])c(OC([H])([H])C([H])([H])C([H])([H])C(=O)c3c([H])c([H])c(N([H])C(=O)N4C([H])([H])C([H])([H])C([H])([H])C([H])(n5nc(-c6c([H])c([H])c(Oc7c([H])c([H])c(F)c([H])c7F)c([H])c6[H])c(C(=O)N([H])[H])c5N([H])[H])C4([H])[H])c([H])c3C([H])([H])[H])c([H])c([H])c2C1([H])[H]

$$$$
54:0:0
     RDKit          3D

 95103  0  0  1  0  0  0  0  0999 V2000
  -29.5930  -20.5260   19.6850 C   0  0  0  0  0  0  0  0  0  0  0  0
  -29.6610  -20.4100   18.3590 N   0  0  0  0  0  4  0  0  0  0  0  0
  -29.2170  -21.7220   20.2010 N   0  0  0  0  0  0  0  0  0  0  0  0
  -30.0200  -19.5550   17.9650 H   0  0  0  0  0  0  0  0  0  0  0  0
  -29.4140  -21.1560   17.7320 H   0  0  0  0  0  0  0  0  0  0  0  0
  -29.1150  -21.7630   21.2090 H   0  0  0  0  0  0  0  0  0  0  0  0
  -31.4520  -18.5840   22.3430 C   0  0  0  0  0  3  0  0  0  0  0  0
  -30.9090  -19.6300   21.5710 C   0  0  0  0  0  3  0  0  0  0  0  0
  -31.1040  -17.2490   22.0720 C   0  0  0  0  0  3  0  0  0  0  0  0
  -29.9990  -19.3660   20.5230 C   0  0  0  0  0  0  0  0  0  0  0  0
  -29.6000  -18.0040   20.2850 C   0  0  0  0  0  0  0  0  0  0  0  0
  -30.1860  -16.9440   21.0460 C   0  0  0  0  0  0  0  0  0  0  0  0
  -28.5640  -17.6410   19.2220 C   0  0  0  0  0  1  0  0  0  0  0  0
  -30.5720  -14.5610   20.3990 C   0  0  0  0  0  0  0  0  0  0  0  0
  -30.2920  -12.4100   19.2110 C   0  0  0  0  0  2  0  0  0  0  0  0
  -29.3190  -12.6200   18.0310 C   0  0  0  0  0  2  0  0  0  0  0  0
  -27.8550  -12.4620   18.4880 C   0  0  0  0  0  2  0  0  0  0  0  0
  -27.5360  -13.2760   19.7700 C   0  0  0  0  0  3  0  0  0  0  0  0
  -28.6150  -13.0400   20.8510 C   0  0  0  0  0  2  0  0  0  0  0  0
  -29.9210  -13.3730   20.2600 N   0  0  0  0  0  0  0  0  0  0  0  0
  -31.7130  -14.7520   19.9680 O   0  0  0  0  0  0  0  0  0  0  0  0
  -29.8040  -15.5760   20.8550 N   0  0  0  0  0  0  0  0  0  0  0  0
  -28.8400  -15.3460   21.0350 H   0  0  0  0  0  0  0  0  0  0  0  0
  -25.1500  -13.8660   20.5320 C   0  0  0  0  0  0  0  0  0  0  0  0
  -24.0920  -13.0850   20.9120 C   0  0  0  0  0  0  0  0  0  0  0  0
  -24.5570  -11.7360   20.8540 C   0  0  0  0  0  0  0  0  0  0  0  0
  -26.1940  -12.9910   20.2720 N   0  0  0  0  0  0  0  0  0  0  0  0
  -25.8410  -11.7050   20.5230 N   0  0  0  0  0  0  0  0  0  0  0  0
  -23.8390  -10.4690   21.0390 C   0  0  0  0  0  0  0  0  0  0  0  0
  -24.2850   -9.4960   21.9600 C   0  0  0  0  0  3  0  0  0  0  0  0
  -23.5680   -8.2930   22.1340 C   0  0  0  0  0  3  0  0  0  0  0  0
  -22.3900   -8.0550   21.3860 C   0  0  0  0  0  0  0  0  0  0  0  0
  -21.9640   -9.0180   20.4530 C   0  0  0  0  0  3  0  0  0  0  0  0
  -22.6820  -10.2110   20.2780 C   0  0  0  0  0  3  0  0  0  0  0  0
  -21.6430   -6.9060   21.4700 O   0  0  0  0  0  0  0  0  0  0  0  0
  -21.6060   -6.1530   22.6160 C   0  0  0  0  0  0  0  0  0  0  0  0
  -21.1630   -6.6890   23.8450 C   0  0  0  0  0  3  0  0  0  0  0  0
  -21.0740   -5.8620   24.9830 C   0  0  0  0  0  3  0  0  0  0  0  0
  -21.4190   -4.5000   24.8920 C   0  0  0  0  0  0  0  0  0  0  0  0
  -21.8560   -3.9630   23.6680 C   0  0  0  0  0  3  0  0  0  0  0  0
  -21.9470   -4.7880   22.5320 C   0  0  0  0  0  0  0  0  0  0  0  0
  -22.3470   -4.2620   21.3500 F   0  0  0  0  0  0  0  0  0  0  0  0
  -21.3280   -3.7030   25.9820 F   0  0  0  0  0  0  0  0  0  0  0  0
  -22.6980  -13.5550   21.2160 C   0  0  0  0  0  0  0  0  0  0  0  0
  -21.9850  -12.8400   22.0800 N   0  0  0  0  0  0  0  0  0  0  0  0
  -22.2490  -14.5890   20.7210 O   0  0  0  0  0  0  0  0  0  0  0  0
  -22.3620  -12.0040   22.5000 H   0  0  0  0  0  0  0  0  0  0  0  0
  -21.0500  -13.1330   22.3230 H   0  0  0  0  0  0  0  0  0  0  0  0
  -25.3070  -15.2400   20.3670 N   0  0  0  0  0  0  0  0  0  0  0  0
  -24.5320  -15.8830   20.4860 H   0  0  0  0  0  0  0  0  0  0  0  0
  -26.1290  -15.6820   19.9810 H   0  0  0  0  0  0  0  0  0  0  0  0
  -28.9010  -22.9660   19.4320 C   0  0  0  0  0  2  0  0  0  0  0  0
  -28.6420  -24.2490   20.2770 C   0  0  0  0  0  2  0  0  0  0  0  0
  -28.6120  -25.5430   19.4110 C   0  0  0  0  0  2  0  0  0  0  0  0
  -28.4180  -26.7650   20.1570 O   0  0  0  0  0  0  0  0  0  0  0  0
  -24.5640  -31.9230   23.2200 C   0  0  0  0  0  0  0  0  0  0  0  0
  -27.2160  -27.4560   20.1390 C   0  0  0  0  0  0  0  0  0  0  0  0
  -23.3580  -30.5150   21.5820 C   0  0  0  0  0  3  0  0  0  0  0  0
  -24.8120  -28.9720   20.1600 C   0  0  0  0  0  0  0  0  0  0  0  0
  -25.8850  -30.8710   21.3820 C   0  0  0  0  0  2  0  0  0  0  0  0
  -25.9710  -29.4960   20.7450 C   0  0  0  0  0  0  0  0  0  0  0  0
  -27.1700  -28.7440   20.7310 C   0  0  0  0  0  3  0  0  0  0  0  0
  -26.0260  -26.9440   19.5710 C   0  0  0  0  0  3  0  0  0  0  0  0
  -24.8340  -27.6960   19.5750 C   0  0  0  0  0  3  0  0  0  0  0  0
  -23.5670  -29.8310   20.2050 C   0  0  0  0  0  2  0  0  0  0  0  0
  -24.6210  -31.1180   22.1200 N   0  0  0  0  0  0  0  0  0  0  0  0
  -23.4830  -32.1940   23.7590 O   0  0  0  0  0  0  0  0  0  0  0  0
  -22.7090  -29.4960   22.5450 C   0  0  0  0  0  0  0  0  0  0  0  0
  -21.3840  -29.3130   22.4210 N   0  0  0  0  0  0  0  0  0  0  0  0
  -23.3940  -28.8730   23.3610 O   0  0  0  0  0  0  0  0  0  0  0  0
  -20.8910  -29.8690   21.7360 H   0  0  0  0  0  0  0  0  0  0  0  0
  -18.0100  -28.1330   22.9460 C   0  0  0  0  0  0  0  0  0  0  0  0
  -20.5710  -28.3740   23.1940 C   0  0  0  0  0  3  0  0  0  0  0  0
  -20.6590  -26.9460   22.6080 C   0  0  0  0  0  2  0  0  0  0  0  0
  -19.5460  -26.6360   21.6030 C   0  0  0  0  0  2  0  0  0  0  0  0
  -18.1710  -26.7860   22.2610 C   0  0  0  0  0  2  0  0  0  0  0  0
  -19.1370  -28.8860   23.3690 C   0  0  0  0  0  0  0  0  0  0  0  0
  -18.9310  -30.1480   23.9680 C   0  0  0  0  0  3  0  0  0  0  0  0
  -17.6310  -30.6570   24.1450 C   0  0  0  0  0  3  0  0  0  0  0  0
  -16.5190  -29.9010   23.7390 C   0  0  0  0  0  3  0  0  0  0  0  0
  -16.7090  -28.6400   23.1450 C   0  0  0  0  0  3  0  0  0  0  0  0
  -25.8490  -32.5580   23.8360 C   0  0  0  0  0  3  0  0  0  0  0  0
  -26.3700  -31.7940   25.1140 C   0  0  1  0  0  0  0  0  0  0  0  0
  -25.2800  -31.5540   26.1830 C   0  0  0  0  0  1  0  0  0  0  0  0
  -26.9590  -30.4190   24.7230 C   0  0  0  0  0  1  0  0  0  0  0  0
  -27.5190  -32.5950   25.7720 C   0  0  0  0  0  1  0  0  0  0  0  0
  -25.5400  -33.9590   24.1590 N   0  0  0  0  0  0  0  0  0  0  0  0
  -25.8850  -35.0080   23.4020 C   0  0  0  0  0  0  0  0  0  0  0  0
  -26.5690  -34.9000   22.3810 O   0  0  0  0  0  0  0  0  0  0  0  0
  -24.9360  -34.1170   24.9530 H   0  0  0  0  0  0  0  0  0  0  0  0
  -24.1820  -36.8150   23.0020 C   0  0  0  0  0  1  0  0  0  0  0  0
  -25.3950  -36.3980   23.8510 C   0  0  0  0  0  3  0  0  0  0  0  0
  -27.5070  -37.2650   24.7550 C   0  0  0  0  0  1  0  0  0  0  0  0
  -26.4390  -37.4430   23.7740 N   0  0  0  0  0  0  0  0  0  0  0  0
  -26.0360  -38.3670   23.9090 H   0  0  0  0  0  0  0  0  0  0  0  0
  1  3  1  0
  1 10  1  0
  2  1  2  0
  3  6  1  0
  4  2  1  0
  5  2  1  0
  8  7  2  0
  9  7  1  0
 10  8  1  0
 11 10  2  0
 11 12  1  0
 12  9  2  0
 13 11  1  0
 14 22  1  0
 15 20  1  0
 16 17  1  0
 16 15  1  0
 18 17  1  0
 18 27  1  0
 18 19  1  0
 20 14  1  0
 20 19  1  0
 21 14  2  0
 22 23  1  0
 22 12  1  0
 24 25  2  0
 25 44  1  0
 26 25  1  0
 26 29  1  0
 27 28  1  0
 27 24  1  0
 28 26  2  0
 29 30  1  0
 30 31  2  0
 32 35  1  0
 32 31  1  0
 33 32  2  0
 34 33  1  0
 34 29  2  0
 35 36  1  0
 36 37  1  0
 37 38  2  0
 39 38  1  0
 39 43  1  0
 40 39  2  0
 41 36  2  0
 41 40  1  0
 42 41  1  0
 44 45  1  0
 45 48  1  0
 45 47  1  0
 46 44  2  0
 49 50  1  0
 49 24  1  0
 51 49  1  0
 52  3  1  0
 52 53  1  0
 54 55  1  0
 54 53  1  0
 56 67  2  0
 57 55  1  0
 57 62  1  0
 58 66  1  0
 58 68  1  0
 59 65  1  0
 59 61  1  0
 60 66  1  0
 61 60  1  0
 62 61  2  0
 63 64  1  0
 63 57  2  0
 64 59  2  0
 65 58  1  0
 66 56  1  0
 68 70  2  0
 69 68  1  0
 71 69  1  0
 72 81  2  0
 72 77  1  0
 73 69  1  0
 73 77  1  0
 74 73  1  0
 75 76  1  0
 75 74  1  0
 76 72  1  0
 77 78  2  0
 78 79  1  0
 80 79  2  0
 81 80  1  0
 82 56  1  0
 82 87  1  0
 82 83  1  0
 83 86  1  1
 83 84  1  0
 85 83  1  0
 87 90  1  0
 88 92  1  0
 88 87  1  0
 89 88  2  0
 92 91  1  0
 94 92  1  0
 94 95  1  0
 94 93  1  0
M  ISO  4  14 100  22 100  54 101  55 101
M  END
>  <TORSDO>  (55) 
F 20

>  <SCORE>  (55) 
-14.016

>  <name>  (55) 
54

>  <ligand_id>  (55) 
54

>  <original_smiles>  (55) 
[H]c1c([H])c(C(N([H])[H])=[N+]([H])C([H])([H])C([H])([H])C([H])([H])Oc2c([H])c([H])c3c(c2[H])C([H])([H])N(C(=O)C([H])(N([H])C(=O)C([H])(N([H])C([H])([H])[H])C([H])([H])[H])C(C([H])([H])[H])(C([H])([H])[H])C([H])([H])[H])C([H])(C(=O)N([H])C2([H])c4c([H])c([H])c([H])c([H])c4C([H])([H])C([H])([H])C2([H])[H])C3([H])[H])c(C([H])([H])[H])c(N([H])C(=O)N2C([H])([H])C([H])([H])C([H])([H])C([H])(n3nc(-c4c([H])c([H])c(Oc5c([H])c([H])c(F)c([H])c5F)c([H])c4[H])c(C(=O)N([H])[H])c3N([H])[H])C2([H])[H])c1[H]

>  <smiles>  (55) 
[H]c1c([H])c(C(N([H])[H])=[N+]([H])C([H])([H])C([H])([H])C([H])([H])Oc2c([H])c([H])c3c(c2[H])C([H])([H])N(C(=O)C([H])(N([H])C(=O)C([H])(N([H])C([H])([H])[H])C([H])([H])[H])C(C([H])([H])[H])(C([H])([H])[H])C([H])([H])[H])C([H])(C(=O)N([H])C2([H])c4c([H])c([H])c([H])c([H])c4C([H])([H])C([H])([H])C2([H])[H])C3([H])[H])c(C([H])([H])[H])c(N([H])C(=O)N2C([H])([H])C([H])([H])C([H])([H])C([H])(n3nc(-c4c([H])c([H])c(Oc5c([H])c([H])c(F)c([H])c5F)c([H])c4[H])c(C(=O)N([H])[H])c3N([H])[H])C2([H])[H])c1[H]

$$$$
55:0:0
     RDKit          3D

 93101  0  0  1  0  0  0  0  0999 V2000
  -30.5160  -21.5520   20.9250 C   0  0  0  0  0  0  0  0  0  0  0  0
  -30.0770  -20.3120   21.2140 N   0  0  0  0  0  0  0  0  0  0  0  0
  -31.5660  -21.7750   20.3180 O   0  0  0  0  0  0  0  0  0  0  0  0
  -29.1180  -20.2350   21.5260 H   0  0  0  0  0  0  0  0  0  0  0  0
  -32.9600  -17.9030   21.2800 C   0  0  0  0  0  3  0  0  0  0  0  0
  -32.2330  -19.1050   21.3090 C   0  0  0  0  0  3  0  0  0  0  0  0
  -32.2930  -16.6820   21.0880 C   0  0  0  0  0  3  0  0  0  0  0  0
  -30.1560  -17.8600   20.9800 C   0  0  0  0  0  3  0  0  0  0  0  0
  -30.8270  -19.1000   21.1470 C   0  0  0  0  0  0  0  0  0  0  0  0
  -30.8890  -16.6480   20.9160 C   0  0  0  0  0  0  0  0  0  0  0  0
  -30.6530  -14.4620   19.8290 C   0  0  0  0  0  0  0  0  0  0  0  0
  -30.1640  -12.3580   18.6480 C   0  0  0  0  0  2  0  0  0  0  0  0
  -29.1300  -12.5940   17.5320 C   0  0  0  0  0  2  0  0  0  0  0  0
  -27.7030  -12.4440   18.0860 C   0  0  0  0  0  2  0  0  0  0  0  0
  -27.4780  -13.2670   19.3820 C   0  0  0  0  0  3  0  0  0  0  0  0
  -28.6250  -13.0540   20.3980 C   0  0  0  0  0  2  0  0  0  0  0  0
  -29.9040  -13.3320   19.7190 N   0  0  0  0  0  0  0  0  0  0  0  0
  -31.6610  -14.6490   19.1390 O   0  0  0  0  0  0  0  0  0  0  0  0
  -30.2200  -15.4090   20.6790 N   0  0  0  0  0  0  0  0  0  0  0  0
  -29.3140  -15.2680   21.1030 H   0  0  0  0  0  0  0  0  0  0  0  0
  -25.1360  -13.8480   20.2780 C   0  0  0  0  0  0  0  0  0  0  0  0
  -24.1110  -13.0650   20.7370 C   0  0  0  0  0  0  0  0  0  0  0  0
  -24.5850  -11.7180   20.6740 C   0  0  0  0  0  0  0  0  0  0  0  0
  -26.1710  -12.9780   19.9700 N   0  0  0  0  0  0  0  0  0  0  0  0
  -25.8480  -11.6920   20.2630 N   0  0  0  0  0  0  0  0  0  0  0  0
  -23.8920  -10.4480   20.9280 C   0  0  0  0  0  0  0  0  0  0  0  0
  -24.3610   -9.5300   21.8930 C   0  0  0  0  0  3  0  0  0  0  0  0
  -23.6680   -8.3240   22.1310 C   0  0  0  0  0  3  0  0  0  0  0  0
  -22.4900   -8.0270   21.4030 C   0  0  0  0  0  0  0  0  0  0  0  0
  -22.0420   -8.9330   20.4250 C   0  0  0  0  0  3  0  0  0  0  0  0
  -22.7360  -10.1310   20.1880 C   0  0  0  0  0  3  0  0  0  0  0  0
  -21.7640   -6.8700   21.5510 O   0  0  0  0  0  0  0  0  0  0  0  0
  -21.7050   -6.2050   22.7490 C   0  0  0  0  0  0  0  0  0  0  0  0
  -21.2190   -6.8230   23.9210 C   0  0  0  0  0  3  0  0  0  0  0  0
  -21.1100   -6.0820   25.1150 C   0  0  0  0  0  3  0  0  0  0  0  0
  -21.4740   -4.7220   25.1360 C   0  0  0  0  0  0  0  0  0  0  0  0
  -21.9530   -4.1030   23.9680 C   0  0  0  0  0  3  0  0  0  0  0  0
  -22.0640   -4.8410   22.7770 C   0  0  0  0  0  0  0  0  0  0  0  0
  -22.5050   -4.2350   21.6490 F   0  0  0  0  0  0  0  0  0  0  0  0
  -21.3640   -4.0070   26.2800 F   0  0  0  0  0  0  0  0  0  0  0  0
  -22.7340  -13.5250   21.1210 C   0  0  0  0  0  0  0  0  0  0  0  0
  -22.0900  -12.8260   22.0480 N   0  0  0  0  0  0  0  0  0  0  0  0
  -22.2400  -14.5420   20.6330 O   0  0  0  0  0  0  0  0  0  0  0  0
  -22.5020  -12.0030   22.4640 H   0  0  0  0  0  0  0  0  0  0  0  0
  -21.1690  -13.1160   22.3470 H   0  0  0  0  0  0  0  0  0  0  0  0
  -25.2690  -15.2190   20.0780 N   0  0  0  0  0  0  0  0  0  0  0  0
  -24.5060  -15.8690   20.2300 H   0  0  0  0  0  0  0  0  0  0  0  0
  -26.0870  -15.6590   19.6760 H   0  0  0  0  0  0  0  0  0  0  0  0
  -29.6520  -22.7360   21.3820 C   0  0  0  0  0  2  0  0  0  0  0  0
  -28.3930  -22.9910   20.5220 C   0  0  0  0  0  2  0  0  0  0  0  0
  -28.3160  -24.4010   19.8920 C   0  0  0  0  0  2  0  0  0  0  0  0
  -28.2250  -25.5590   20.9060 C   0  0  0  0  0  2  0  0  0  0  0  0
  -28.2960  -26.8250   20.2430 O   0  0  0  0  0  0  0  0  0  0  0  0
  -24.5580  -32.0020   23.3440 C   0  0  0  0  0  0  0  0  0  0  0  0
  -27.1330  -27.5560   20.2450 C   0  0  0  0  0  0  0  0  0  0  0  0
  -23.3250  -30.6160   21.7080 C   0  0  0  0  0  3  0  0  0  0  0  0
  -24.7510  -29.0690   20.2680 C   0  0  0  0  0  0  0  0  0  0  0  0
  -25.8480  -30.9590   21.4880 C   0  0  0  0  0  2  0  0  0  0  0  0
  -25.9190  -29.5910   20.8420 C   0  0  0  0  0  0  0  0  0  0  0  0
  -27.1140  -28.8430   20.8220 C   0  0  0  0  0  3  0  0  0  0  0  0
  -25.9540  -27.0410   19.6660 C   0  0  0  0  0  3  0  0  0  0  0  0
  -24.7630  -27.7920   19.6770 C   0  0  0  0  0  3  0  0  0  0  0  0
  -23.5150  -29.9380   20.3240 C   0  0  0  0  0  2  0  0  0  0  0  0
  -24.5960  -31.2070   22.2380 N   0  0  0  0  0  0  0  0  0  0  0  0
  -23.4850  -32.2850   23.8950 O   0  0  0  0  0  0  0  0  0  0  0  0
  -22.6700  -29.5980   22.6690 C   0  0  0  0  0  0  0  0  0  0  0  0
  -21.3510  -29.4000   22.5210 N   0  0  0  0  0  0  0  0  0  0  0  0
  -23.3460  -28.9910   23.5040 O   0  0  0  0  0  0  0  0  0  0  0  0
  -20.8670  -29.9420   21.8200 H   0  0  0  0  0  0  0  0  0  0  0  0
  -17.9860  -28.1580   22.9520 C   0  0  0  0  0  0  0  0  0  0  0  0
  -20.5320  -28.4620   23.2870 C   0  0  0  0  0  3  0  0  0  0  0  0
  -20.6710  -27.0240   22.7390 C   0  0  0  0  0  2  0  0  0  0  0  0
  -19.6020  -26.6640   21.7030 C   0  0  0  0  0  2  0  0  0  0  0  0
  -18.2000  -26.7990   22.3080 C   0  0  0  0  0  2  0  0  0  0  0  0
  -19.0800  -28.9460   23.3970 C   0  0  0  0  0  0  0  0  0  0  0  0
  -18.8280  -30.2180   23.9550 C   0  0  0  0  0  3  0  0  0  0  0  0
  -17.5120  -30.7020   24.0780 C   0  0  0  0  0  3  0  0  0  0  0  0
  -16.4310  -29.9100   23.6520 C   0  0  0  0  0  3  0  0  0  0  0  0
  -16.6690  -28.6410   23.0960 C   0  0  0  0  0  3  0  0  0  0  0  0
  -25.8560  -32.6150   23.9570 C   0  0  0  0  0  3  0  0  0  0  0  0
  -25.5690  -34.0180   24.2840 N   0  0  0  0  0  0  0  0  0  0  0  0
  -25.9000  -35.0600   23.5110 C   0  0  0  0  0  0  0  0  0  0  0  0
  -26.5500  -34.9390   22.4680 O   0  0  0  0  0  0  0  0  0  0  0  0
  -24.9930  -34.1860   25.0950 H   0  0  0  0  0  0  0  0  0  0  0  0
  -24.1710  -36.8570   23.1880 C   0  0  0  0  0  1  0  0  0  0  0  0
  -25.4340  -36.4570   23.9640 C   0  0  0  0  0  3  0  0  0  0  0  0
  -27.5970  -37.3390   24.7190 C   0  0  0  0  0  1  0  0  0  0  0  0
  -26.4690  -37.5020   23.8070 N   0  0  0  0  0  0  0  0  0  0  0  0
  -26.0720  -38.4270   23.9540 H   0  0  0  0  0  0  0  0  0  0  0  0
  -26.3710  -31.8390   25.2320 C   0  0  1  0  0  0  0  0  0  0  0  0
  -25.2730  -31.5910   26.2930 C   0  0  0  0  0  1  0  0  0  0  0  0
  -26.9620  -30.4660   24.8330 C   0  0  0  0  0  1  0  0  0  0  0  0
  -27.5160  -32.6340   25.9030 C   0  0  0  0  0  1  0  0  0  0  0  0
  1  2  1  0
  1 49  1  0
  2  4  1  0
  3  1  2  0
  5  6  1  0
  7  5  2  0
  8  9  1  0
  9  2  1  0
  9  6  2  0
 10  8  2  0
 10  7  1  0
 11 19  1  0
 12 17  1  0
 13 14  1  0
 13 12  1  0
 15 14  1  0
 15 24  1  0
 15 16  1  0
 17 11  1  0
 17 16  1  0
 18 11  2  0
 19 10  1  0
 19 20  1  0
 21 22  2  0
 22 41  1  0
 23 22  1  0
 23 26  1  0
 24 25  1  0
 24 21  1  0
 25 23  2  0
 26 27  1  0
 27 28  2  0
 29 32  1  0
 29 28  1  0
 30 29  2  0
 31 30  1  0
 31 26  2  0
 32 33  1  0
 33 38  2  0
 33 34  1  0
 34 35  2  0
 35 36  1  0
 36 40  1  0
 37 36  2  0
 38 37  1  0
 39 38  1  0
 41 42  1  0
 42 45  1  0
 42 44  1  0
 43 41  2  0
 46 47  1  0
 46 21  1  0
 48 46  1  0
 50 49  1  0
 51 50  1  0
 51 52  1  0
 53 55  1  0
 53 52  1  0
 54 65  2  0
 55 60  1  0
 56 64  1  0
 56 66  1  0
 57 63  1  0
 57 59  1  0
 58 64  1  0
 59 58  1  0
 60 59  2  0
 61 62  1  0
 61 55  2  0
 62 57  2  0
 63 56  1  0
 64 54  1  0
 66 68  2  0
 67 66  1  0
 69 67  1  0
 70 79  2  0
 70 75  1  0
 71 67  1  0
 71 75  1  0
 72 71  1  0
 73 74  1  0
 73 72  1  0
 74 70  1  0
 75 76  2  0
 76 77  1  0
 78 77  2  0
 79 78  1  0
 80 54  1  0
 80 81  1  0
 80 90  1  0
 81 84  1  0
 82 86  1  0
 82 81  1  0
 83 82  2  0
 86 85  1  0
 88 89  1  0
 88 86  1  0
 88 87  1  0
 90 93  1  1
 90 91  1  0
 92 90  1  0
M  ISO  4  11 100  19 100  52 101  53 101
M  END
>  <TORSDO>  (56) 
F 21

>  <SCORE>  (56) 
-11.861

>  <name>  (56) 
55

>  <ligand_id>  (56) 
55

>  <original_smiles>  (56) 
[H]c1c([H])c(N([H])C(=O)N2C([H])([H])C([H])([H])C([H])([H])C([H])(n3nc(-c4c([H])c([H])c(Oc5c([H])c([H])c(F)c([H])c5F)c([H])c4[H])c(C(=O)N([H])[H])c3N([H])[H])C2([H])[H])c([H])c(N([H])C(=O)C([H])([H])C([H])([H])C([H])([H])C([H])([H])Oc2c([H])c([H])c3c(c2[H])C([H])([H])N(C(=O)C([H])(N([H])C(=O)C([H])(N([H])C([H])([H])[H])C([H])([H])[H])C(C([H])([H])[H])(C([H])([H])[H])C([H])([H])[H])C([H])(C(=O)N([H])C2([H])c4c([H])c([H])c([H])c([H])c4C([H])([H])C([H])([H])C2([H])[H])C3([H])[H])c1[H]

>  <smiles>  (56) 
[H]c1c([H])c(N([H])C(=O)N2C([H])([H])C([H])([H])C([H])([H])C([H])(n3nc(-c4c([H])c([H])c(Oc5c([H])c([H])c(F)c([H])c5F)c([H])c4[H])c(C(=O)N([H])[H])c3N([H])[H])C2([H])[H])c([H])c(N([H])C(=O)C([H])([H])C([H])([H])C([H])([H])C([H])([H])Oc2c([H])c([H])c3c(c2[H])C([H])([H])N(C(=O)C([H])(N([H])C(=O)C([H])(N([H])C([H])([H])[H])C([H])([H])[H])C(C([H])([H])[H])(C([H])([H])[H])C([H])([H])[H])C([H])(C(=O)N([H])C2([H])c4c([H])c([H])c([H])c([H])c4C([H])([H])C([H])([H])C2([H])[H])C3([H])[H])c1[H]

$$$$
56:0:0
     RDKit          3D

 92100  0  0  1  0  0  0  0  0999 V2000
  -28.7150  -22.8310   21.0850 C   0  0  0  0  0  0  0  0  0  0  0  0
  -31.0460  -22.0010   20.9700 C   0  0  0  0  0  1  0  0  0  0  0  0
  -29.6080  -21.8080   21.1880 N   0  0  0  0  0  0  0  0  0  0  0  0
  -27.5090  -22.6450   21.2860 O   0  0  0  0  0  0  0  0  0  0  0  0
  -29.2130  -20.4370   21.6010 C   0  0  0  0  0  2  0  0  0  0  0  0
  -30.1160  -18.4800   18.4010 C   0  0  0  0  0  3  0  0  0  0  0  0
  -29.7790  -19.5370   19.2650 C   0  0  0  0  0  3  0  0  0  0  0  0
  -30.2350  -17.1690   18.8970 C   0  0  0  0  0  3  0  0  0  0  0  0
  -29.6790  -17.9670   21.1290 C   0  0  0  0  0  3  0  0  0  0  0  0
  -29.5750  -19.2940   20.6410 C   0  0  0  0  0  0  0  0  0  0  0  0
  -30.0180  -16.8920   20.2690 C   0  0  0  0  0  0  0  0  0  0  0  0
  -30.7330  -14.5230   20.2220 C   0  0  0  0  0  0  0  0  0  0  0  0
  -30.3940  -12.3780   19.0710 C   0  0  0  0  0  2  0  0  0  0  0  0
  -29.4250  -12.6130   17.8910 C   0  0  0  0  0  2  0  0  0  0  0  0
  -27.9580  -12.4960   18.3500 C   0  0  0  0  0  2  0  0  0  0  0  0
  -27.6620  -13.2940   19.6480 C   0  0  0  0  0  3  0  0  0  0  0  0
  -28.7460  -13.0490   20.7240 C   0  0  0  0  0  2  0  0  0  0  0  0
  -30.0610  -13.3450   20.1270 N   0  0  0  0  0  0  0  0  0  0  0  0
  -31.8480  -14.7010   19.7230 O   0  0  0  0  0  0  0  0  0  0  0  0
  -30.0500  -15.5500   20.7700 N   0  0  0  0  0  0  0  0  0  0  0  0
  -29.2880  -15.2900   21.3770 H   0  0  0  0  0  0  0  0  0  0  0  0
  -25.2740  -13.8810   20.4110 C   0  0  0  0  0  0  0  0  0  0  0  0
  -24.2190  -13.1030   20.8070 C   0  0  0  0  0  0  0  0  0  0  0  0
  -24.6880  -11.7530   20.7600 C   0  0  0  0  0  0  0  0  0  0  0  0
  -26.3180  -13.0070   20.1550 N   0  0  0  0  0  0  0  0  0  0  0  0
  -25.9700  -11.7220   20.4200 N   0  0  0  0  0  0  0  0  0  0  0  0
  -23.9720  -10.4870   20.9650 C   0  0  0  0  0  0  0  0  0  0  0  0
  -24.4260   -9.5270   21.8960 C   0  0  0  0  0  3  0  0  0  0  0  0
  -23.7130   -8.3230   22.0870 C   0  0  0  0  0  3  0  0  0  0  0  0
  -22.5340   -8.0690   21.3460 C   0  0  0  0  0  0  0  0  0  0  0  0
  -22.1020   -9.0190   20.4050 C   0  0  0  0  0  3  0  0  0  0  0  0
  -22.8130  -10.2150   20.2110 C   0  0  0  0  0  3  0  0  0  0  0  0
  -21.7870   -6.9200   21.4490 O   0  0  0  0  0  0  0  0  0  0  0  0
  -21.7480   -6.1880   22.6090 C   0  0  0  0  0  0  0  0  0  0  0  0
  -21.3230   -6.7530   23.8310 C   0  0  0  0  0  3  0  0  0  0  0  0
  -21.2290   -5.9480   24.9840 C   0  0  0  0  0  3  0  0  0  0  0  0
  -21.5510   -4.5790   24.9170 C   0  0  0  0  0  0  0  0  0  0  0  0
  -21.9670   -4.0140   23.7000 C   0  0  0  0  0  3  0  0  0  0  0  0
  -22.0640   -4.8170   22.5490 C   0  0  0  0  0  0  0  0  0  0  0  0
  -22.4460   -4.2610   21.3740 F   0  0  0  0  0  0  0  0  0  0  0  0
  -21.4550   -3.8040   26.0230 F   0  0  0  0  0  0  0  0  0  0  0  0
  -22.8250  -13.5690   21.1140 C   0  0  0  0  0  0  0  0  0  0  0  0
  -22.1230  -12.8650   21.9950 N   0  0  0  0  0  0  0  0  0  0  0  0
  -22.3650  -14.5940   20.6090 O   0  0  0  0  0  0  0  0  0  0  0  0
  -22.5090  -12.0410   22.4320 H   0  0  0  0  0  0  0  0  0  0  0  0
  -21.1890  -13.1600   22.2420 H   0  0  0  0  0  0  0  0  0  0  0  0
  -25.4310  -15.2510   20.2290 N   0  0  0  0  0  0  0  0  0  0  0  0
  -24.6740  -15.9110   20.3590 H   0  0  0  0  0  0  0  0  0  0  0  0
  -26.2770  -15.6870   19.8820 H   0  0  0  0  0  0  0  0  0  0  0  0
  -29.1980  -24.2660   20.7260 C   0  0  0  0  0  2  0  0  0  0  0  0
  -28.0230  -25.2310   20.4160 C   0  0  0  0  0  2  0  0  0  0  0  0
  -28.3280  -26.6300   20.1880 O   0  0  0  0  0  0  0  0  0  0  0  0
  -24.5860  -31.8970   23.2160 C   0  0  0  0  0  0  0  0  0  0  0  0
  -27.2000  -27.4340   20.1240 C   0  0  0  0  0  0  0  0  0  0  0  0
  -23.3730  -30.5020   21.5790 C   0  0  0  0  0  3  0  0  0  0  0  0
  -24.8190  -28.9770   20.1390 C   0  0  0  0  0  0  0  0  0  0  0  0
  -25.9030  -30.8540   21.3730 C   0  0  0  0  0  2  0  0  0  0  0  0
  -25.9850  -29.4870   20.7230 C   0  0  0  0  0  0  0  0  0  0  0  0
  -27.1820  -28.7250   20.7120 C   0  0  0  0  0  3  0  0  0  0  0  0
  -26.0120  -26.9630   19.5110 C   0  0  0  0  0  3  0  0  0  0  0  0
  -24.8290  -27.7160   19.5280 C   0  0  0  0  0  3  0  0  0  0  0  0
  -23.5760  -29.8350   20.1950 C   0  0  0  0  0  2  0  0  0  0  0  0
  -24.6400  -31.0970   22.1140 N   0  0  0  0  0  0  0  0  0  0  0  0
  -23.5080  -32.1670   23.7620 O   0  0  0  0  0  0  0  0  0  0  0  0
  -22.7280  -29.4720   22.5360 C   0  0  0  0  0  0  0  0  0  0  0  0
  -21.4040  -29.2850   22.4160 N   0  0  0  0  0  0  0  0  0  0  0  0
  -23.4180  -28.8440   23.3440 O   0  0  0  0  0  0  0  0  0  0  0  0
  -20.9030  -29.8500   21.7430 H   0  0  0  0  0  0  0  0  0  0  0  0
  -18.0390  -28.0770   22.9280 C   0  0  0  0  0  0  0  0  0  0  0  0
  -20.5960  -28.3420   23.1890 C   0  0  0  0  0  3  0  0  0  0  0  0
  -20.6990  -26.9110   22.6130 C   0  0  0  0  0  2  0  0  0  0  0  0
  -19.5960  -26.5850   21.6020 C   0  0  0  0  0  2  0  0  0  0  0  0
  -18.2160  -26.7270   22.2520 C   0  0  0  0  0  2  0  0  0  0  0  0
  -19.1560  -28.8410   23.3550 C   0  0  0  0  0  0  0  0  0  0  0  0
  -18.9370  -30.1050   23.9450 C   0  0  0  0  0  3  0  0  0  0  0  0
  -17.6320  -30.6060   24.1100 C   0  0  0  0  0  3  0  0  0  0  0  0
  -16.5290  -29.8370   23.7010 C   0  0  0  0  0  3  0  0  0  0  0  0
  -16.7320  -28.5740   23.1170 C   0  0  0  0  0  3  0  0  0  0  0  0
  -25.8750  -32.5290   23.8280 C   0  0  0  0  0  3  0  0  0  0  0  0
  -26.4030  -31.7570   25.1000 C   0  0  1  0  0  0  0  0  0  0  0  0
  -25.3190  -31.5190   26.1770 C   0  0  0  0  0  1  0  0  0  0  0  0
  -26.9860  -30.3800   24.7020 C   0  0  0  0  0  1  0  0  0  0  0  0
  -27.5540  -32.5560   25.7570 C   0  0  0  0  0  1  0  0  0  0  0  0
  -25.5670  -33.9260   24.1590 N   0  0  0  0  0  0  0  0  0  0  0  0
  -25.8990  -34.9780   23.4000 C   0  0  0  0  0  0  0  0  0  0  0  0
  -26.5680  -34.8750   22.3670 O   0  0  0  0  0  0  0  0  0  0  0  0
  -24.9720  -34.0810   24.9590 H   0  0  0  0  0  0  0  0  0  0  0  0
  -24.1730  -36.7710   23.0410 C   0  0  0  0  0  1  0  0  0  0  0  0
  -25.4100  -36.3650   23.8590 C   0  0  0  0  0  3  0  0  0  0  0  0
  -27.5410  -37.2470   24.6990 C   0  0  0  0  0  1  0  0  0  0  0  0
  -26.4430  -37.4170   23.7510 N   0  0  0  0  0  0  0  0  0  0  0  0
  -26.0370  -38.3370   23.9000 H   0  0  0  0  0  0  0  0  0  0  0  0
  1  3  1  0
  1  4  2  0
  2  3  1  0
  3  5  1  0
  6  8  2  0
  6  7  1  0
  7 10  2  0
  8 11  1  0
 10  9  1  0
 10  5  1  0
 11 20  1  0
 11  9  2  0
 12 20  1  0
 13 18  1  0
 14 15  1  0
 14 13  1  0
 16 15  1  0
 16 25  1  0
 16 17  1  0
 18 12  1  0
 18 17  1  0
 19 12  2  0
 20 21  1  0
 22 23  2  0
 23 42  1  0
 24 23  1  0
 24 27  1  0
 25 22  1  0
 25 26  1  0
 26 24  2  0
 27 28  1  0
 28 29  2  0
 30 33  1  0
 30 29  1  0
 31 30  2  0
 32 31  1  0
 32 27  2  0
 33 34  1  0
 34 35  1  0
 35 36  2  0
 37 36  1  0
 37 41  1  0
 38 37  2  0
 39 34  2  0
 39 38  1  0
 40 39  1  0
 42 43  1  0
 43 46  1  0
 43 45  1  0
 44 42  2  0
 47 48  1  0
 47 22  1  0
 49 47  1  0
 50  1  1  0
 51 50  1  0
 52 51  1  0
 53 64  2  0
 54 52  1  0
 54 59  1  0
 55 63  1  0
 55 65  1  0
 56 62  1  0
 56 58  1  0
 57 63  1  0
 58 57  1  0
 59 58  2  0
 60 61  1  0
 60 54  2  0
 61 56  2  0
 62 55  1  0
 63 53  1  0
 65 67  2  0
 66 65  1  0
 68 66  1  0
 69 78  2  0
 69 74  1  0
 70 66  1  0
 70 74  1  0
 71 70  1  0
 72 73  1  0
 72 71  1  0
 73 69  1  0
 74 75  2  0
 75 76  1  0
 77 76  2  0
 78 77  1  0
 79 53  1  0
 79 84  1  0
 79 80  1  0
 80 83  1  1
 80 81  1  0
 82 80  1  0
 84 87  1  0
 85 89  1  0
 85 84  1  0
 86 85  2  0
 89 88  1  0
 91 89  1  0
 91 92  1  0
 91 90  1  0
M  ISO  4  12 100  20 100  51 101  52 101
M  END
>  <TORSDO>  (57) 
F 20

>  <SCORE>  (57) 
-13.731

>  <name>  (57) 
56

>  <ligand_id>  (57) 
56

>  <original_smiles>  (57) 
[H]c1c([H])c(N([H])C(=O)N2C([H])([H])C([H])([H])C([H])([H])C([H])(n3nc(-c4c([H])c([H])c(Oc5c([H])c([H])c(F)c([H])c5F)c([H])c4[H])c(C(=O)N([H])[H])c3N([H])[H])C2([H])[H])c([H])c(C([H])([H])N(C(=O)C([H])([H])C([H])([H])Oc2c([H])c([H])c3c(c2[H])C([H])([H])N(C(=O)C([H])(N([H])C(=O)C([H])(N([H])C([H])([H])[H])C([H])([H])[H])C(C([H])([H])[H])(C([H])([H])[H])C([H])([H])[H])C([H])(C(=O)N([H])C2([H])c4c([H])c([H])c([H])c([H])c4C([H])([H])C([H])([H])C2([H])[H])C3([H])[H])C([H])([H])[H])c1[H]

>  <smiles>  (57) 
[H]c1c([H])c(N([H])C(=O)N2C([H])([H])C([H])([H])C([H])([H])C([H])(n3nc(-c4c([H])c([H])c(Oc5c([H])c([H])c(F)c([H])c5F)c([H])c4[H])c(C(=O)N([H])[H])c3N([H])[H])C2([H])[H])c([H])c(C([H])([H])N(C(=O)C([H])([H])C([H])([H])Oc2c([H])c([H])c3c(c2[H])C([H])([H])N(C(=O)C([H])(N([H])C(=O)C([H])(N([H])C([H])([H])[H])C([H])([H])[H])C(C([H])([H])[H])(C([H])([H])[H])C([H])([H])[H])C([H])(C(=O)N([H])C2([H])c4c([H])c([H])c([H])c([H])c4C([H])([H])C([H])([H])C2([H])[H])C3([H])[H])C([H])([H])[H])c1[H]

$$$$
57:0:0
     RDKit          3D

 94102  0  0  1  0  0  0  0  0999 V2000
  -27.4110  -20.7900   21.8220 O   0  0  0  0  0  0  0  0  0  0  0  0
  -29.9270  -20.9730   22.0400 O   0  0  0  0  0  0  0  0  0  0  0  0
  -28.7390  -20.7870   21.1910 S   0  0  1  0  0  0  0  0  0  0  0  0
  -28.6560  -17.8630   18.2430 C   0  0  0  0  0  3  0  0  0  0  0  0
  -29.4120  -16.8290   18.8270 C   0  0  0  0  0  3  0  0  0  0  0  0
  -29.6590  -18.1630   20.8420 C   0  0  0  0  0  3  0  0  0  0  0  0
  -28.3970  -19.0580   18.9440 C   0  0  0  0  0  0  0  0  0  0  0  0
  -29.8880  -16.9420   20.1530 C   0  0  0  0  0  0  0  0  0  0  0  0
  -28.9460  -19.2350   20.2420 C   0  0  0  0  0  0  0  0  0  0  0  0
  -27.5080  -20.0950   18.2810 C   0  0  0  0  0  1  0  0  0  0  0  0
  -31.1900  -14.8240   20.2120 C   0  0  0  0  0  0  0  0  0  0  0  0
  -30.8660  -12.6270   19.1220 C   0  0  0  0  0  2  0  0  0  0  0  0
  -29.9130  -12.7360   17.9130 C   0  0  0  0  0  2  0  0  0  0  0  0
  -28.4450  -12.6100   18.3640 C   0  0  0  0  0  2  0  0  0  0  0  0
  -28.1070  -13.5180   19.5740 C   0  0  0  0  0  3  0  0  0  0  0  0
  -29.1690  -13.3830   20.6870 C   0  0  0  0  0  2  0  0  0  0  0  0
  -30.4830  -13.6660   20.0920 N   0  0  0  0  0  0  0  0  0  0  0  0
  -32.3180  -14.9660   19.7340 O   0  0  0  0  0  0  0  0  0  0  0  0
  -30.5790  -15.8670   20.8130 N   0  0  0  0  0  0  0  0  0  0  0  0
  -31.0940  -16.1780   21.6230 H   0  0  0  0  0  0  0  0  0  0  0  0
  -25.7350  -14.1910   20.2950 C   0  0  0  0  0  0  0  0  0  0  0  0
  -24.6500  -13.4450   20.6670 C   0  0  0  0  0  0  0  0  0  0  0  0
  -25.0800  -12.0830   20.6400 C   0  0  0  0  0  0  0  0  0  0  0  0
  -26.7560  -13.2810   20.0660 N   0  0  0  0  0  0  0  0  0  0  0  0
  -26.3680  -12.0090   20.3340 N   0  0  0  0  0  0  0  0  0  0  0  0
  -24.3290  -10.8380   20.8360 C   0  0  0  0  0  0  0  0  0  0  0  0
  -24.6820   -9.9130   21.8430 C   0  0  0  0  0  3  0  0  0  0  0  0
  -23.9350   -8.7290   22.0240 C   0  0  0  0  0  3  0  0  0  0  0  0
  -22.8190   -8.4620   21.1940 C   0  0  0  0  0  0  0  0  0  0  0  0
  -22.4860   -9.3740   20.1770 C   0  0  0  0  0  3  0  0  0  0  0  0
  -23.2340  -10.5490   19.9950 C   0  0  0  0  0  3  0  0  0  0  0  0
  -22.0500   -7.3270   21.2800 O   0  0  0  0  0  0  0  0  0  0  0  0
  -21.8300   -6.6970   22.4790 C   0  0  0  0  0  0  0  0  0  0  0  0
  -21.2120   -7.3540   23.5650 C   0  0  0  0  0  3  0  0  0  0  0  0
  -20.9410   -6.6480   24.7530 C   0  0  0  0  0  3  0  0  0  0  0  0
  -21.2790   -5.2850   24.8550 C   0  0  0  0  0  0  0  0  0  0  0  0
  -21.8890   -4.6270   23.7720 C   0  0  0  0  0  3  0  0  0  0  0  0
  -22.1620   -5.3320   22.5870 C   0  0  0  0  0  0  0  0  0  0  0  0
  -22.7300   -4.6880   21.5390 F   0  0  0  0  0  0  0  0  0  0  0  0
  -21.0110   -4.6030   25.9930 F   0  0  0  0  0  0  0  0  0  0  0  0
  -23.2640  -13.9540   20.9380 C   0  0  0  0  0  0  0  0  0  0  0  0
  -22.5240  -13.2850   21.8170 N   0  0  0  0  0  0  0  0  0  0  0  0
  -22.8440  -14.9800   20.4060 O   0  0  0  0  0  0  0  0  0  0  0  0
  -22.8760  -12.4550   22.2710 H   0  0  0  0  0  0  0  0  0  0  0  0
  -21.5940  -13.6090   22.0380 H   0  0  0  0  0  0  0  0  0  0  0  0
  -25.9310  -15.5570   20.1120 N   0  0  0  0  0  0  0  0  0  0  0  0
  -25.1810  -16.2310   20.2180 H   0  0  0  0  0  0  0  0  0  0  0  0
  -26.8040  -15.9760   19.8150 H   0  0  0  0  0  0  0  0  0  0  0  0
  -28.7500  -22.1240   20.0660 N   0  0  0  0  0  0  0  0  0  0  0  0
  -27.9330  -22.0630   19.4520 H   0  0  0  0  0  0  0  0  0  0  0  0
  -28.9930  -23.5020   20.5820 C   0  0  0  0  0  2  0  0  0  0  0  0
  -27.9790  -24.5920   20.0850 C   0  0  0  0  0  2  0  0  0  0  0  0
  -28.4800  -25.6500   19.0440 C   0  0  0  0  0  2  0  0  0  0  0  0
  -28.3930  -27.0210   19.4970 O   0  0  0  0  0  0  0  0  0  0  0  0
  -24.5230  -31.7840   23.1200 C   0  0  0  0  0  0  0  0  0  0  0  0
  -27.1760  -27.6830   19.5790 C   0  0  0  0  0  0  0  0  0  0  0  0
  -23.2880  -30.4730   21.4200 C   0  0  0  0  0  3  0  0  0  0  0  0
  -24.7290  -29.1010   19.8170 C   0  0  0  0  0  0  0  0  0  0  0  0
  -25.7890  -30.9310   21.1490 C   0  0  0  0  0  2  0  0  0  0  0  0
  -25.8900  -29.6170   20.4000 C   0  0  0  0  0  0  0  0  0  0  0  0
  -27.1140  -28.9140   20.2800 C   0  0  0  0  0  3  0  0  0  0  0  0
  -25.9910  -27.1840   18.9920 C   0  0  0  0  0  3  0  0  0  0  0  0
  -24.7780  -27.8900   19.1050 C   0  0  0  0  0  3  0  0  0  0  0  0
  -23.4580  -29.9040   19.9840 C   0  0  0  0  0  2  0  0  0  0  0  0
  -24.5520  -31.0780   21.9530 N   0  0  0  0  0  0  0  0  0  0  0  0
  -23.4620  -31.9740   23.7300 O   0  0  0  0  0  0  0  0  0  0  0  0
  -22.7090  -29.3640   22.3280 C   0  0  0  0  0  0  0  0  0  0  0  0
  -21.3930  -29.1140   22.2140 N   0  0  0  0  0  0  0  0  0  0  0  0
  -23.4400  -28.7300   23.0920 O   0  0  0  0  0  0  0  0  0  0  0  0
  -20.8610  -29.6810   21.5690 H   0  0  0  0  0  0  0  0  0  0  0  0
  -18.1170  -27.6500   22.6340 C   0  0  0  0  0  0  0  0  0  0  0  0
  -20.6480  -28.0800   22.9350 C   0  0  0  0  0  3  0  0  0  0  0  0
  -20.8550  -26.6920   22.2800 C   0  0  0  0  0  2  0  0  0  0  0  0
  -19.7830  -26.3510   21.2440 C   0  0  0  0  0  2  0  0  0  0  0  0
  -18.3930  -26.3560   21.8890 C   0  0  0  0  0  2  0  0  0  0  0  0
  -19.1760  -28.4690   23.1110 C   0  0  0  0  0  0  0  0  0  0  0  0
  -18.8670  -29.6790   23.7660 C   0  0  0  0  0  3  0  0  0  0  0  0
  -17.5310  -30.0790   23.9490 C   0  0  0  0  0  3  0  0  0  0  0  0
  -16.4850  -29.2590   23.4870 C   0  0  0  0  0  3  0  0  0  0  0  0
  -16.7790  -28.0460   22.8360 C   0  0  0  0  0  3  0  0  0  0  0  0
  -25.8160  -32.4070   23.7320 C   0  0  0  0  0  3  0  0  0  0  0  0
  -25.5010  -33.7870   24.1270 N   0  0  0  0  0  0  0  0  0  0  0  0
  -25.8050  -34.8740   23.4050 C   0  0  0  0  0  0  0  0  0  0  0  0
  -26.4530  -34.8210   22.3560 O   0  0  0  0  0  0  0  0  0  0  0  0
  -24.9220  -33.9010   24.9460 H   0  0  0  0  0  0  0  0  0  0  0  0
  -24.0450  -36.6560   23.1660 C   0  0  0  0  0  1  0  0  0  0  0  0
  -25.3120  -36.2360   23.9290 C   0  0  0  0  0  3  0  0  0  0  0  0
  -27.4530  -37.1210   24.7460 C   0  0  0  0  0  1  0  0  0  0  0  0
  -26.3280  -37.3080   23.8320 N   0  0  0  0  0  0  0  0  0  0  0  0
  -25.9130  -38.2160   24.0210 H   0  0  0  0  0  0  0  0  0  0  0  0
  -26.3810  -31.5930   24.9600 C   0  0  1  0  0  0  0  0  0  0  0  0
  -25.3210  -31.2920   26.0440 C   0  0  0  0  0  1  0  0  0  0  0  0
  -26.9760  -30.2420   24.4970 C   0  0  0  0  0  1  0  0  0  0  0  0
  -27.5370  -32.3780   25.6260 C   0  0  0  0  0  1  0  0  0  0  0  0
  3  1  2  0
  3  2  2  0
  4  5  2  0
  4  7  1  0
  5  8  1  0
  7  9  2  0
  8 19  1  0
  8  6  2  0
  9  6  1  0
  9  3  1  0
 10  7  1  0
 11 19  1  0
 12 17  1  0
 13 14  1  0
 13 12  1  0
 15 14  1  0
 15 24  1  0
 15 16  1  0
 17 11  1  0
 17 16  1  0
 18 11  2  0
 19 20  1  0
 21 22  2  0
 22 41  1  0
 23 22  1  0
 23 26  1  0
 24 21  1  0
 24 25  1  0
 25 23  2  0
 26 27  1  0
 27 28  2  0
 29 32  1  0
 29 28  1  0
 30 29  2  0
 31 30  1  0
 31 26  2  0
 32 33  1  0
 33 38  2  0
 33 34  1  0
 34 35  2  0
 35 36  1  0
 36 40  1  0
 37 36  2  0
 38 37  1  0
 39 38  1  0
 41 42  1  0
 42 45  1  0
 42 44  1  0
 43 41  2  0
 46 47  1  0
 46 21  1  0
 48 46  1  0
 49 51  1  0
  3 49  1  6
 50 49  1  0
 52 51  1  0
 53 54  1  0
 53 52  1  0
 54 56  1  0
 55 66  2  0
 56 61  1  0
 57 65  1  0
 57 67  1  0
 58 64  1  0
 58 60  1  0
 59 65  1  0
 60 59  1  0
 61 60  2  0
 62 63  1  0
 62 56  2  0
 63 58  2  0
 64 57  1  0
 65 55  1  0
 67 69  2  0
 68 67  1  0
 70 68  1  0
 71 80  2  0
 71 76  1  0
 72 68  1  0
 72 76  1  0
 73 72  1  0
 74 75  1  0
 74 73  1  0
 75 71  1  0
 76 77  2  0
 77 78  1  0
 79 78  2  0
 80 79  1  0
 81 55  1  0
 81 82  1  0
 81 91  1  0
 82 85  1  0
 83 87  1  0
 83 82  1  0
 84 83  2  0
 87 86  1  0
 89 87  1  0
 89 90  1  0
 89 88  1  0
 91 94  1  1
 91 92  1  0
 93 91  1  0
M  ISO  4  11 100  19 100  53 101  54 101
M  END
>  <TORSDO>  (58) 
F 21

>  <SCORE>  (58) 
-11.493

>  <name>  (58) 
57

>  <ligand_id>  (58) 
57

>  <original_smiles>  (58) 
[H]c1c([H])c([H])c2c(c1[H])C([H])([H])C([H])([H])C([H])([H])C2([H])N([H])C(=O)C1([H])N(C(=O)C([H])(N([H])C(=O)C([H])(N([H])C([H])([H])[H])C([H])([H])[H])C(C([H])([H])[H])(C([H])([H])[H])C([H])([H])[H])C([H])([H])c2c([H])c(OC([H])([H])C([H])([H])C([H])([H])N([H])S(=O)(=O)c3c([H])c(N([H])C(=O)N4C([H])([H])C([H])([H])C([H])([H])C([H])(n5nc(-c6c([H])c([H])c(Oc7c([H])c([H])c(F)c([H])c7F)c([H])c6[H])c(C(=O)N([H])[H])c5N([H])[H])C4([H])[H])c([H])c([H])c3C([H])([H])[H])c([H])c([H])c2C1([H])[H]

>  <smiles>  (58) 
[H]c1c([H])c([H])c2c(c1[H])C([H])([H])C([H])([H])C([H])([H])C2([H])N([H])C(=O)C1([H])N(C(=O)C([H])(N([H])C(=O)C([H])(N([H])C([H])([H])[H])C([H])([H])[H])C(C([H])([H])[H])(C([H])([H])[H])C([H])([H])[H])C([H])([H])c2c([H])c(OC([H])([H])C([H])([H])C([H])([H])N([H])S(=O)(=O)c3c([H])c(N([H])C(=O)N4C([H])([H])C([H])([H])C([H])([H])C([H])(n5nc(-c6c([H])c([H])c(Oc7c([H])c([H])c(F)c([H])c7F)c([H])c6[H])c(C(=O)N([H])[H])c5N([H])[H])C4([H])[H])c([H])c([H])c3C([H])([H])[H])c([H])c([H])c2C1([H])[H]

$$$$
58:0:0
     RDKit          3D

 94 99  0  0  1  0  0  0  0  0999 V2000
  -28.9890  -17.9960   20.0430 C   0  0  0  0  0  0  0  0  0  0  0  0
  -28.9490  -16.7640   19.3350 N   0  0  0  0  0  4  0  0  0  0  0  0
  -29.3850  -18.0010   21.2100 O   0  0  0  0  0  0  0  0  0  0  0  0
  -28.8020  -16.8660   18.3420 H   0  0  0  0  0  0  0  0  0  0  0  0
  -28.6930  -12.0440   19.8540 C   0  0  0  0  0  1  0  0  0  0  0  0
  -27.9840  -12.2740   21.3840 C   0  0  0  0  0  2  0  0  0  0  0  0
  -29.2460  -13.9610   19.1000 C   0  0  0  0  0  1  0  0  0  0  0  0
  -27.9810  -13.8460   21.9270 C   0  0  0  0  0  2  0  0  0  0  0  0
  -28.9540  -15.3160   19.8460 C   0  0  0  0  0  0  0  0  0  0  0  0
  -28.7670  -15.1370   21.2740 C   0  0  0  0  0  3  0  0  0  0  0  0
  -31.3750  -14.5680   20.4720 C   0  0  0  0  0  0  0  0  0  0  0  0
  -30.9420  -12.3620   18.5740 C   0  0  0  0  0  3  0  0  0  0  0  0
  -29.3970  -12.2870   17.3990 C   0  0  0  0  0  3  0  0  0  0  0  0
  -27.5790  -12.8320   17.7920 C   0  0  0  0  0  1  0  0  0  0  0  0
  -27.1620  -13.6350   19.5440 C   0  0  0  0  0  1  0  0  0  0  0  0
  -30.0730  -13.1520   21.0220 C   0  0  0  0  0  1  0  0  0  0  0  0
  -31.1750  -13.1910   20.1000 N   0  0  0  0  0  0  0  0  0  0  0  0
  -32.2310  -15.1290   19.8050 O   0  0  0  0  0  0  0  0  0  0  0  0
  -30.3630  -15.3700   21.2630 N   0  0  0  0  0  0  0  0  0  0  0  0
  -30.6210  -16.3420   21.3860 H   0  0  0  0  0  0  0  0  0  0  0  0
  -25.0030  -13.9560   20.4520 C   0  0  0  0  0  0  0  0  0  0  0  0
  -24.0450  -13.0980   20.8350 C   0  0  0  0  0  0  0  0  0  0  0  0
  -24.5530  -11.7670   20.6990 C   0  0  0  0  0  0  0  0  0  0  0  0
  -25.9440  -13.1270   19.9930 N   0  0  0  0  0  0  0  0  0  0  0  0
  -25.7150  -11.7950   20.1130 N   0  0  0  0  0  0  0  0  0  0  0  0
  -23.9400  -10.4760   20.9260 C   0  0  0  0  0  0  0  0  0  0  0  0
  -24.4360   -9.5390   21.8600 C   0  0  0  0  0  3  0  0  0  0  0  0
  -23.7540   -8.3170   22.0500 C   0  0  0  0  0  3  0  0  0  0  0  0
  -22.5840   -8.0400   21.3020 C   0  0  0  0  0  0  0  0  0  0  0  0
  -22.1320   -8.9650   20.3490 C   0  0  0  0  0  3  0  0  0  0  0  0
  -22.8090  -10.1720   20.1550 C   0  0  0  0  0  3  0  0  0  0  0  0
  -21.8560   -6.8830   21.3990 O   0  0  0  0  0  0  0  0  0  0  0  0
  -21.7660   -6.1890   22.5750 C   0  0  0  0  0  0  0  0  0  0  0  0
  -21.2850   -6.7840   23.7620 C   0  0  0  0  0  3  0  0  0  0  0  0
  -21.1470   -6.0060   24.9280 C   0  0  0  0  0  3  0  0  0  0  0  0
  -21.4730   -4.6370   24.9050 C   0  0  0  0  0  0  0  0  0  0  0  0
  -21.9440   -4.0440   23.7210 C   0  0  0  0  0  3  0  0  0  0  0  0
  -22.0880   -4.8180   22.5580 C   0  0  0  0  0  0  0  0  0  0  0  0
  -22.5230   -4.2400   21.4120 F   0  0  0  0  0  0  0  0  0  0  0  0
  -21.3310   -3.8870   26.0220 F   0  0  0  0  0  0  0  0  0  0  0  0
  -22.6830  -13.5360   21.1690 C   0  0  0  0  0  0  0  0  0  0  0  0
  -22.0280  -12.8220   22.0650 N   0  0  0  0  0  0  0  0  0  0  0  0
  -22.2250  -14.5550   20.6540 O   0  0  0  0  0  0  0  0  0  0  0  0
  -22.4400  -12.0050   22.4900 H   0  0  0  0  0  0  0  0  0  0  0  0
  -21.0990  -13.1060   22.3450 H   0  0  0  0  0  0  0  0  0  0  0  0
  -25.1470  -15.3470   20.4090 N   0  0  0  0  0  0  0  0  0  0  0  0
  -24.3810  -15.9640   20.6590 H   0  0  0  0  0  0  0  0  0  0  0  0
  -25.9630  -15.8440   20.0800 H   0  0  0  0  0  0  0  0  0  0  0  0
  -28.7290  -20.5940   20.0390 C   0  0  0  0  0  3  0  0  0  0  0  0
  -28.5870  -19.3350   19.4170 C   0  0  0  0  0  3  0  0  0  0  0  0
  -28.2730  -22.0030   19.6170 C   0  0  0  0  0  3  0  0  0  0  0  0
  -28.4360  -23.2590   20.2330 C   0  0  0  0  0  3  0  0  0  0  0  0
  -27.7690  -24.6700   19.8000 C   0  0  0  0  0  2  0  0  0  0  0  0
  -28.1440  -26.0900   20.2850 O   0  0  0  0  0  0  0  0  0  0  0  0
  -24.6110  -31.8360   23.2590 C   0  0  0  0  0  0  0  0  0  0  0  0
  -27.1400  -27.1150   20.2150 C   0  0  0  0  0  0  0  0  0  0  0  0
  -23.4050  -30.4470   21.6240 C   0  0  0  0  0  3  0  0  0  0  0  0
  -24.8410  -28.8780   20.1990 C   0  0  0  0  0  0  0  0  0  0  0  0
  -25.9650  -30.6890   21.4730 C   0  0  0  0  0  2  0  0  0  0  0  0
  -26.0240  -29.3030   20.8180 C   0  0  0  0  0  0  0  0  0  0  0  0
  -27.1780  -28.4320   20.8220 C   0  0  0  0  0  3  0  0  0  0  0  0
  -25.9390  -26.8130   19.5330 C   0  0  0  0  0  3  0  0  0  0  0  0
  -24.8090  -27.6430   19.5480 C   0  0  0  0  0  3  0  0  0  0  0  0
  -23.6240  -29.7820   20.2440 C   0  0  0  0  0  2  0  0  0  0  0  0
  -24.6800  -31.0100   22.1730 N   0  0  0  0  0  0  0  0  0  0  0  0
  -23.5240  -32.1310   23.7790 O   0  0  0  0  0  0  0  0  0  0  0  0
  -22.7220  -29.4370   22.5790 C   0  0  0  0  0  0  0  0  0  0  0  0
  -21.3950  -29.2640   22.4400 N   0  0  0  0  0  0  0  0  0  0  0  0
  -23.3850  -28.8160   23.4130 O   0  0  0  0  0  0  0  0  0  0  0  0
  -20.9150  -29.8170   21.7440 H   0  0  0  0  0  0  0  0  0  0  0  0
  -18.0120  -28.0600   22.9060 C   0  0  0  0  0  0  0  0  0  0  0  0
  -20.5650  -28.3350   23.2110 C   0  0  0  0  0  3  0  0  0  0  0  0
  -20.6810  -26.8940   22.6610 C   0  0  0  0  0  2  0  0  0  0  0  0
  -19.5960  -26.5510   21.6350 C   0  0  0  0  0  2  0  0  0  0  0  0
  -18.2030  -26.7020   22.2530 C   0  0  0  0  0  2  0  0  0  0  0  0
  -19.1200  -28.8330   23.3420 C   0  0  0  0  0  0  0  0  0  0  0  0
  -18.8870  -30.1020   23.9130 C   0  0  0  0  0  3  0  0  0  0  0  0
  -17.5780  -30.6000   24.0520 C   0  0  0  0  0  3  0  0  0  0  0  0
  -16.4830  -29.8260   23.6310 C   0  0  0  0  0  3  0  0  0  0  0  0
  -16.7000  -28.5570   23.0630 C   0  0  0  0  0  3  0  0  0  0  0  0
  -25.8920  -32.4650   23.8840 C   0  0  0  0  0  3  0  0  0  0  0  0
  -26.3880  -31.7010   25.1730 C   0  0  1  0  0  0  0  0  0  0  0  0
  -25.2810  -31.4840   26.2300 C   0  0  0  0  0  1  0  0  0  0  0  0
  -26.9670  -30.3140   24.8080 C   0  0  0  0  0  1  0  0  0  0  0  0
  -27.5390  -32.4910   25.8380 C   0  0  0  0  0  1  0  0  0  0  0  0
  -25.5870  -33.8670   24.2050 N   0  0  0  0  0  0  0  0  0  0  0  0
  -25.9150  -34.9150   23.4370 C   0  0  0  0  0  0  0  0  0  0  0  0
  -26.5750  -34.8030   22.4030 O   0  0  0  0  0  0  0  0  0  0  0  0
  -24.9970  -34.0280   25.0080 H   0  0  0  0  0  0  0  0  0  0  0  0
  -24.1820  -36.7080   23.0950 C   0  0  0  0  0  1  0  0  0  0  0  0
  -25.4350  -36.3080   23.8910 C   0  0  0  0  0  3  0  0  0  0  0  0
  -27.5830  -37.2000   24.6810 C   0  0  0  0  0  1  0  0  0  0  0  0
  -26.4670  -37.3600   23.7530 N   0  0  0  0  0  0  0  0  0  0  0  0
  -26.0630  -38.2810   23.8970 H   0  0  0  0  0  0  0  0  0  0  0  0
  1  3  2  0
  2  9  2  0
  2  1  1  0
  4  2  1  0
  5  6  1  0
  6  8  1  0
  7  9  1  0
  9 10  1  0
 10  8  1  0
 11 19  1  0
 12 17  1  0
 13 14  1  0
 13 12  2  0
 15 24  1  0
 17 11  1  0
 17 16  1  0
 18 11  2  0
 19 10  1  0
 19 20  1  0
 21 22  2  0
 22 41  1  0
 23 22  1  0
 23 26  1  0
 24 25  1  0
 24 21  1  0
 25 23  2  0
 26 27  1  0
 27 28  2  0
 29 32  1  0
 29 28  1  0
 30 29  2  0
 31 30  1  0
 31 26  2  0
 32 33  1  0
 33 34  1  0
 34 35  2  0
 36 35  1  0
 36 40  1  0
 37 36  2  0
 38 33  2  0
 38 37  1  0
 39 38  1  0
 41 42  1  0
 42 45  1  0
 42 44  1  0
 43 41  2  0
 46 21  1  0
 46 47  1  0
 48 46  1  0
 50 49  2  0
 50  1  1  0
 51 49  1  0
 51 52  2  0
 53 52  1  0
 53 54  1  0
 55 66  2  0
 56 54  1  0
 56 61  1  0
 57 65  1  0
 57 67  1  0
 58 64  1  0
 58 60  1  0
 59 65  1  0
 60 61  2  0
 60 59  1  0
 62 63  1  0
 62 56  2  0
 63 58  2  0
 64 57  1  0
 65 55  1  0
 67 69  2  0
 68 67  1  0
 70 68  1  0
 71 80  2  0
 71 76  1  0
 72 68  1  0
 72 76  1  0
 73 72  1  0
 74 75  1  0
 74 73  1  0
 75 71  1  0
 76 77  2  0
 77 78  1  0
 79 78  2  0
 80 79  1  0
 81 55  1  0
 81 86  1  0
 81 82  1  0
 82 85  1  1
 82 83  1  0
 84 82  1  0
 86 89  1  0
 87 91  1  0
 87 86  1  0
 88 87  2  0
 91 90  1  0
 93 91  1  0
 93 94  1  0
 93 92  1  0
M  ISO  4  11 100  19 100  53 101  54 101
M  END
>  <TORSDO>  (59) 
F 20

>  <SCORE>  (59) 
-13.254

>  <name>  (59) 
58

>  <ligand_id>  (59) 
58

>  <original_smiles>  (59) 
[H]C(C(=O)N([H])c1c([H])c([H])c([H])c([H])c1N([H])C(=O)N1C([H])([H])C([H])([H])C([H])([H])C([H])(n2nc(-c3c([H])c([H])c(Oc4c([H])c([H])c(F)c([H])c4F)c([H])c3[H])c(C(=O)N([H])[H])c2N([H])[H])C1([H])[H])=C([H])C([H])=C([H])C([H])([H])Oc1c([H])c([H])c2c(c1[H])C([H])([H])N(C(=O)C([H])(N([H])C(=O)C([H])(N([H])C([H])([H])[H])C([H])([H])[H])C(C([H])([H])[H])(C([H])([H])[H])C([H])([H])[H])C([H])(C(=O)N([H])C1([H])c3c([H])c([H])c([H])c([H])c3C([H])([H])C([H])([H])C1([H])[H])C2([H])[H]

>  <smiles>  (59) 
[H]C(C(=O)N([H])c1c([H])c([H])c([H])c([H])c1N([H])C(=O)N1C([H])([H])C([H])([H])C([H])([H])C([H])(n2nc(-c3c([H])c([H])c(Oc4c([H])c([H])c(F)c([H])c4F)c([H])c3[H])c(C(=O)N([H])[H])c2N([H])[H])C1([H])[H])=C([H])C([H])=C([H])C([H])([H])Oc1c([H])c([H])c2c(c1[H])C([H])([H])N(C(=O)C([H])(N([H])C(=O)C([H])(N([H])C([H])([H])[H])C([H])([H])[H])C(C([H])([H])[H])(C([H])([H])[H])C([H])([H])[H])C([H])(C(=O)N([H])C1([H])c3c([H])c([H])c([H])c([H])c3C([H])([H])C([H])([H])C1([H])[H])C2([H])[H]

$$$$
59:0:0
     RDKit          3D

 94102  0  0  1  0  0  0  0  0999 V2000
  -30.1180  -22.5400   20.7170 C   0  0  0  0  0  0  0  0  0  0  0  0
  -29.4530  -21.3760   20.6440 N   0  0  0  0  0  0  0  0  0  0  0  0
  -31.3260  -22.6470   20.4880 O   0  0  0  0  0  0  0  0  0  0  0  0
  -28.4970  -21.3730   20.9700 H   0  0  0  0  0  0  0  0  0  0  0  0
  -30.8920  -17.6440   19.2490 C   0  0  0  0  0  3  0  0  0  0  0  0
  -30.7530  -18.7110   18.3450 C   0  0  0  0  0  3  0  0  0  0  0  0
  -30.0890  -19.0630   21.0530 C   0  0  0  0  0  3  0  0  0  0  0  0
  -30.5520  -17.8040   20.6090 C   0  0  0  0  0  0  0  0  0  0  0  0
  -30.2760  -19.9610   18.7820 C   0  0  0  0  0  0  0  0  0  0  0  0
  -29.9650  -20.1470   20.1560 C   0  0  0  0  0  0  0  0  0  0  0  0
  -30.0900  -21.0610   17.7500 C   0  0  0  0  0  1  0  0  0  0  0  0
  -30.7270  -16.6600   21.6090 C   0  0  0  0  0  2  0  0  0  0  0  0
  -30.7540  -14.4180   20.4930 C   0  0  0  0  0  0  0  0  0  0  0  0
  -30.3890  -12.3180   19.2560 C   0  0  0  0  0  2  0  0  0  0  0  0
  -29.4540  -12.5570   18.0540 C   0  0  0  0  0  2  0  0  0  0  0  0
  -27.9790  -12.4280   18.4810 C   0  0  0  0  0  2  0  0  0  0  0  0
  -27.6490  -13.2600   19.7490 C   0  0  0  0  0  3  0  0  0  0  0  0
  -28.6940  -13.0060   20.8590 C   0  0  0  0  0  2  0  0  0  0  0  0
  -30.0280  -13.2860   20.3010 N   0  0  0  0  0  0  0  0  0  0  0  0
  -31.8660  -14.5970   19.9910 O   0  0  0  0  0  0  0  0  0  0  0  0
  -30.1480  -15.3770   21.2060 N   0  0  0  0  0  0  0  0  0  0  0  0
  -29.2220  -15.1690   21.5480 H   0  0  0  0  0  0  0  0  0  0  0  0
  -25.2470  -13.8880   20.4250 C   0  0  0  0  0  0  0  0  0  0  0  0
  -24.1730  -13.1260   20.7950 C   0  0  0  0  0  0  0  0  0  0  0  0
  -24.6290  -11.7720   20.7890 C   0  0  0  0  0  0  0  0  0  0  0  0
  -26.2910  -13.0000   20.2180 N   0  0  0  0  0  0  0  0  0  0  0  0
  -25.9220  -11.7230   20.4930 N   0  0  0  0  0  0  0  0  0  0  0  0
  -23.8960  -10.5160   20.9920 C   0  0  0  0  0  0  0  0  0  0  0  0
  -24.3270   -9.5550   21.9330 C   0  0  0  0  0  3  0  0  0  0  0  0
  -23.5950   -8.3620   22.1240 C   0  0  0  0  0  3  0  0  0  0  0  0
  -22.4200   -8.1220   21.3720 C   0  0  0  0  0  0  0  0  0  0  0  0
  -22.0100   -9.0720   20.4200 C   0  0  0  0  0  3  0  0  0  0  0  0
  -22.7410  -10.2560   20.2280 C   0  0  0  0  0  3  0  0  0  0  0  0
  -21.6610   -6.9820   21.4710 O   0  0  0  0  0  0  0  0  0  0  0  0
  -21.6200   -6.2410   22.6260 C   0  0  0  0  0  0  0  0  0  0  0  0
  -21.2180   -6.8050   23.8570 C   0  0  0  0  0  3  0  0  0  0  0  0
  -21.1230   -5.9920   25.0050 C   0  0  0  0  0  3  0  0  0  0  0  0
  -21.4210   -4.6180   24.9220 C   0  0  0  0  0  0  0  0  0  0  0  0
  -21.8160   -4.0560   23.6950 C   0  0  0  0  0  3  0  0  0  0  0  0
  -21.9130   -4.8650   22.5510 C   0  0  0  0  0  0  0  0  0  0  0  0
  -22.2740   -4.3140   21.3660 F   0  0  0  0  0  0  0  0  0  0  0  0
  -21.3220   -3.8360   26.0210 F   0  0  0  0  0  0  0  0  0  0  0  0
  -22.7740  -13.6110   21.0500 C   0  0  0  0  0  0  0  0  0  0  0  0
  -22.0400  -12.9290   21.9230 N   0  0  0  0  0  0  0  0  0  0  0  0
  -22.3430  -14.6300   20.5130 O   0  0  0  0  0  0  0  0  0  0  0  0
  -22.4040  -12.1060   22.3790 H   0  0  0  0  0  0  0  0  0  0  0  0
  -21.1020  -13.2360   22.1400 H   0  0  0  0  0  0  0  0  0  0  0  0
  -25.4190  -15.2570   20.2300 N   0  0  0  0  0  0  0  0  0  0  0  0
  -24.6540  -15.9160   20.3170 H   0  0  0  0  0  0  0  0  0  0  0  0
  -26.2820  -15.6880   19.9220 H   0  0  0  0  0  0  0  0  0  0  0  0
  -29.2370  -23.6330   21.0890 C   0  0  0  0  0  3  0  0  0  0  0  0
  -29.6420  -24.9140   20.9820 C   0  0  0  0  0  3  0  0  0  0  0  0
  -28.7790  -26.1170   21.2960 C   0  0  0  0  0  2  0  0  0  0  0  0
  -28.4360  -26.7760   20.0850 O   0  0  0  0  0  0  0  0  0  0  0  0
  -24.5940  -31.8900   23.2350 C   0  0  0  0  0  0  0  0  0  0  0  0
  -27.2740  -27.5000   20.1440 C   0  0  0  0  0  0  0  0  0  0  0  0
  -23.3990  -30.4880   21.5820 C   0  0  0  0  0  3  0  0  0  0  0  0
  -24.8670  -28.9610   20.1590 C   0  0  0  0  0  0  0  0  0  0  0  0
  -25.9190  -30.8660   21.3930 C   0  0  0  0  0  2  0  0  0  0  0  0
  -26.0150  -29.4960   20.7590 C   0  0  0  0  0  0  0  0  0  0  0  0
  -27.2250  -28.7670   20.7600 C   0  0  0  0  0  3  0  0  0  0  0  0
  -26.1180  -26.9710   19.5390 C   0  0  0  0  0  3  0  0  0  0  0  0
  -24.9090  -27.6940   19.5490 C   0  0  0  0  0  3  0  0  0  0  0  0
  -23.6150  -29.8090   20.2010 C   0  0  0  0  0  2  0  0  0  0  0  0
  -24.6550  -31.0960   22.1280 N   0  0  0  0  0  0  0  0  0  0  0  0
  -23.5110  -32.1570   23.7730 O   0  0  0  0  0  0  0  0  0  0  0  0
  -22.7480  -29.4630   22.5380 C   0  0  0  0  0  0  0  0  0  0  0  0
  -21.4260  -29.2710   22.3960 N   0  0  0  0  0  0  0  0  0  0  0  0
  -23.4280  -28.8410   23.3600 O   0  0  0  0  0  0  0  0  0  0  0  0
  -20.9410  -29.8240   21.7030 H   0  0  0  0  0  0  0  0  0  0  0  0
  -18.0560  -28.0490   22.8510 C   0  0  0  0  0  0  0  0  0  0  0  0
  -20.6080  -28.3280   23.1570 C   0  0  0  0  0  3  0  0  0  0  0  0
  -20.7300  -26.8980   22.5850 C   0  0  0  0  0  2  0  0  0  0  0  0
  -19.6440  -26.5630   21.5560 C   0  0  0  0  0  2  0  0  0  0  0  0
  -18.2520  -26.7000   22.1810 C   0  0  0  0  0  2  0  0  0  0  0  0
  -19.1630  -28.8220   23.2930 C   0  0  0  0  0  0  0  0  0  0  0  0
  -18.9270  -30.0850   23.8760 C   0  0  0  0  0  3  0  0  0  0  0  0
  -17.6170  -30.5770   24.0230 C   0  0  0  0  0  3  0  0  0  0  0  0
  -16.5230  -29.8020   23.5980 C   0  0  0  0  0  3  0  0  0  0  0  0
  -16.7440  -28.5400   23.0180 C   0  0  0  0  0  3  0  0  0  0  0  0
  -25.8770  -32.5190   23.8630 C   0  0  0  0  0  3  0  0  0  0  0  0
  -26.3870  -31.7480   25.1410 C   0  0  1  0  0  0  0  0  0  0  0  0
  -25.2890  -31.5100   26.2030 C   0  0  0  0  0  1  0  0  0  0  0  0
  -26.9740  -30.3720   24.7470 C   0  0  0  0  0  1  0  0  0  0  0  0
  -27.5330  -32.5440   25.8090 C   0  0  0  0  0  1  0  0  0  0  0  0
  -25.5690  -33.9180   24.1870 N   0  0  0  0  0  0  0  0  0  0  0  0
  -25.9100  -34.9670   23.4270 C   0  0  0  0  0  0  0  0  0  0  0  0
  -26.5890  -34.8590   22.4030 O   0  0  0  0  0  0  0  0  0  0  0  0
  -24.9670  -34.0750   24.9830 H   0  0  0  0  0  0  0  0  0  0  0  0
  -24.1870  -36.7590   23.0530 C   0  0  0  0  0  1  0  0  0  0  0  0
  -25.4190  -36.3570   23.8770 C   0  0  0  0  0  3  0  0  0  0  0  0
  -27.5490  -37.2390   24.7230 C   0  0  0  0  0  1  0  0  0  0  0  0
  -26.4550  -37.4080   23.7710 N   0  0  0  0  0  0  0  0  0  0  0  0
  -26.0470  -38.3290   23.9130 H   0  0  0  0  0  0  0  0  0  0  0  0
  1 51  1  0
  2  1  1  0
  2  4  1  0
  3  1  2  0
  5  8  1  0
  6  9  1  0
  6  5  2  0
  8  7  2  0
  8 12  1  0
  9 10  2  0
 10  2  1  0
 10  7  1  0
 11  9  1  0
 13 21  1  0
 14 19  1  0
 15 16  1  0
 15 14  1  0
 17 16  1  0
 17 26  1  0
 17 18  1  0
 19 13  1  0
 19 18  1  0
 20 13  2  0
 21 22  1  0
 21 12  1  0
 23 24  2  0
 24 43  1  0
 25 24  1  0
 25 28  1  0
 26 23  1  0
 26 27  1  0
 27 25  2  0
 28 29  1  0
 29 30  2  0
 31 34  1  0
 31 30  1  0
 32 31  2  0
 33 32  1  0
 33 28  2  0
 34 35  1  0
 35 36  1  0
 36 37  2  0
 38 37  1  0
 38 42  1  0
 39 38  2  0
 40 35  2  0
 40 39  1  0
 41 40  1  0
 43 44  1  0
 44 47  1  0
 44 46  1  0
 45 43  2  0
 48 49  1  0
 48 23  1  0
 50 48  1  0
 52 51  2  0
 52 53  1  0
 54 56  1  0
 54 53  1  0
 55 66  2  0
 56 61  1  0
 57 65  1  0
 57 67  1  0
 58 64  1  0
 58 60  1  0
 59 65  1  0
 60 61  2  0
 60 59  1  0
 62 63  1  0
 62 56  2  0
 63 58  2  0
 64 57  1  0
 65 55  1  0
 67 69  2  0
 68 67  1  0
 70 68  1  0
 71 80  2  0
 71 76  1  0
 72 68  1  0
 72 76  1  0
 73 72  1  0
 74 75  1  0
 74 73  1  0
 75 71  1  0
 76 77  2  0
 77 78  1  0
 79 78  2  0
 80 79  1  0
 81 55  1  0
 81 86  1  0
 81 82  1  0
 82 85  1  1
 82 83  1  0
 84 82  1  0
 86 89  1  0
 87 91  1  0
 87 86  1  0
 88 87  2  0
 91 90  1  0
 93 91  1  0
 93 94  1  0
 93 92  1  0
M  ISO  4  13 100  21 100  53 101  54 101
M  END
>  <TORSDO>  (60) 
F 20

>  <SCORE>  (60) 
-14.116

>  <name>  (60) 
59

>  <ligand_id>  (60) 
59

>  <original_smiles>  (60) 
[H]C(C(=O)N([H])c1c([H])c(C([H])([H])N([H])C(=O)N2C([H])([H])C([H])([H])C([H])([H])C([H])(n3nc(-c4c([H])c([H])c(Oc5c([H])c([H])c(F)c([H])c5F)c([H])c4[H])c(C(=O)N([H])[H])c3N([H])[H])C2([H])[H])c([H])c([H])c1C([H])([H])[H])=C([H])C([H])([H])Oc1c([H])c([H])c2c(c1[H])C([H])([H])N(C(=O)C([H])(N([H])C(=O)C([H])(N([H])C([H])([H])[H])C([H])([H])[H])C(C([H])([H])[H])(C([H])([H])[H])C([H])([H])[H])C([H])(C(=O)N([H])C1([H])c3c([H])c([H])c([H])c([H])c3C([H])([H])C([H])([H])C1([H])[H])C2([H])[H]

>  <smiles>  (60) 
[H]C(C(=O)N([H])c1c([H])c(C([H])([H])N([H])C(=O)N2C([H])([H])C([H])([H])C([H])([H])C([H])(n3nc(-c4c([H])c([H])c(Oc5c([H])c([H])c(F)c([H])c5F)c([H])c4[H])c(C(=O)N([H])[H])c3N([H])[H])C2([H])[H])c([H])c([H])c1C([H])([H])[H])=C([H])C([H])([H])Oc1c([H])c([H])c2c(c1[H])C([H])([H])N(C(=O)C([H])(N([H])C(=O)C([H])(N([H])C([H])([H])[H])C([H])([H])[H])C(C([H])([H])[H])(C([H])([H])[H])C([H])([H])[H])C([H])(C(=O)N([H])C1([H])c3c([H])c([H])c([H])c([H])c3C([H])([H])C([H])([H])C1([H])[H])C2([H])[H]

$$$$
60:0:0
     RDKit          3D

 97105  0  0  1  0  0  0  0  0999 V2000
  -31.1180  -18.8990   18.3700 C   0  0  0  0  0  3  0  0  0  0  0  0
  -30.8660  -17.6550   18.9690 C   0  0  0  0  0  3  0  0  0  0  0  0
  -29.2470  -18.7490   20.4000 C   0  0  0  0  0  3  0  0  0  0  0  0
  -30.4500  -20.0860   18.7360 C   0  0  0  0  0  0  0  0  0  0  0  0
  -29.9360  -17.4940   20.0180 C   0  0  0  0  0  0  0  0  0  0  0  0
  -29.5010  -20.0850   19.8040 C   0  0  0  0  0  0  0  0  0  0  0  0
  -30.5010  -14.9070   20.4060 C   0  0  0  0  0  0  0  0  0  0  0  0
  -30.3930  -12.5790   19.4860 C   0  0  0  0  0  2  0  0  0  0  0  0
  -29.4950  -12.5700   18.2290 C   0  0  0  0  0  2  0  0  0  0  0  0
  -28.0210  -12.3680   18.6310 C   0  0  0  0  0  2  0  0  0  0  0  0
  -27.5930  -13.2870   19.8080 C   0  0  0  0  0  3  0  0  0  0  0  0
  -28.6160  -13.2740   20.9580 C   0  0  0  0  0  2  0  0  0  0  0  0
  -29.9060  -13.6610   20.3780 N   0  0  0  0  0  0  0  0  0  0  0  0
  -31.7140  -14.9600   20.1670 O   0  0  0  0  0  0  0  0  0  0  0  0
  -29.7190  -16.0800   20.5310 N   0  0  0  0  0  0  0  0  0  0  0  0
  -28.7930  -15.9110   20.8990 H   0  0  0  0  0  0  0  0  0  0  0  0
  -25.2000  -13.8660   20.5130 C   0  0  0  0  0  0  0  0  0  0  0  0
  -24.1310  -13.0940   20.8760 C   0  0  0  0  0  0  0  0  0  0  0  0
  -24.5960  -11.7450   20.8610 C   0  0  0  0  0  0  0  0  0  0  0  0
  -26.2450  -12.9890   20.2840 N   0  0  0  0  0  0  0  0  0  0  0  0
  -25.8920  -11.7060   20.5630 N   0  0  0  0  0  0  0  0  0  0  0  0
  -23.8640  -10.4860   21.0500 C   0  0  0  0  0  0  0  0  0  0  0  0
  -24.2890   -9.5220   21.9880 C   0  0  0  0  0  3  0  0  0  0  0  0
  -23.5600   -8.3260   22.1650 C   0  0  0  0  0  3  0  0  0  0  0  0
  -22.3920   -8.0870   21.4030 C   0  0  0  0  0  0  0  0  0  0  0  0
  -21.9860   -9.0440   20.4560 C   0  0  0  0  0  3  0  0  0  0  0  0
  -22.7150  -10.2290   20.2780 C   0  0  0  0  0  3  0  0  0  0  0  0
  -21.6330   -6.9470   21.4890 O   0  0  0  0  0  0  0  0  0  0  0  0
  -21.5800   -6.2030   22.6400 C   0  0  0  0  0  0  0  0  0  0  0  0
  -21.1660   -6.7580   23.8710 C   0  0  0  0  0  3  0  0  0  0  0  0
  -21.0610   -5.9380   25.0120 C   0  0  0  0  0  3  0  0  0  0  0  0
  -21.3620   -4.5660   24.9260 C   0  0  0  0  0  0  0  0  0  0  0  0
  -21.7660   -4.0100   23.6990 C   0  0  0  0  0  3  0  0  0  0  0  0
  -21.8750   -4.8270   22.5600 C   0  0  0  0  0  0  0  0  0  0  0  0
  -22.2480   -4.2820   21.3770 F   0  0  0  0  0  0  0  0  0  0  0  0
  -21.2540   -3.7770   26.0210 F   0  0  0  0  0  0  0  0  0  0  0  0
  -22.7290  -13.5800   21.1160 C   0  0  0  0  0  0  0  0  0  0  0  0
  -21.9800  -12.8960   21.9730 N   0  0  0  0  0  0  0  0  0  0  0  0
  -22.3060  -14.6040   20.5790 O   0  0  0  0  0  0  0  0  0  0  0  0
  -22.3330  -12.0770   22.4440 H   0  0  0  0  0  0  0  0  0  0  0  0
  -21.0400  -13.2070   22.1670 H   0  0  0  0  0  0  0  0  0  0  0  0
  -25.3580  -15.2360   20.3340 N   0  0  0  0  0  0  0  0  0  0  0  0
  -24.5790  -15.8670   20.4900 H   0  0  0  0  0  0  0  0  0  0  0  0
  -26.1840  -15.6960   19.9700 H   0  0  0  0  0  0  0  0  0  0  0  0
  -29.0620  -22.6670   20.3520 C   0  0  0  0  0  0  0  0  0  0  0  0
  -28.7090  -21.3450   20.0430 N   0  0  0  0  0  0  0  0  0  0  0  0
  -29.8590  -22.9200   21.2580 O   0  0  0  0  0  0  0  0  0  0  0  0
  -27.8190  -21.3250   19.5650 H   0  0  0  0  0  0  0  0  0  0  0  0
  -28.4370  -23.7200   19.4680 C   0  0  0  0  0  3  0  0  0  0  0  0
  -28.1880  -25.1010   19.4240 C   0  0  0  0  0  3  0  0  0  0  0  0
  -28.2820  -26.2780   20.2380 O   0  0  0  0  0  0  0  0  0  0  0  0
  -24.6310  -31.8690   23.2610 C   0  0  0  0  0  0  0  0  0  0  0  0
  -27.2200  -27.2360   20.1880 C   0  0  0  0  0  0  0  0  0  0  0  0
  -23.4270  -30.4810   21.6220 C   0  0  0  0  0  3  0  0  0  0  0  0
  -24.8710  -28.9250   20.1950 C   0  0  0  0  0  0  0  0  0  0  0  0
  -25.9820  -30.7650   21.4500 C   0  0  0  0  0  2  0  0  0  0  0  0
  -26.0550  -29.3870   20.7860 C   0  0  0  0  0  0  0  0  0  0  0  0
  -27.2310  -28.5570   20.7730 C   0  0  0  0  0  3  0  0  0  0  0  0
  -25.9850  -26.8460   19.6120 C   0  0  0  0  0  3  0  0  0  0  0  0
  -24.8400  -27.6560   19.6090 C   0  0  0  0  0  3  0  0  0  0  0  0
  -23.6440  -29.8160   20.2420 C   0  0  0  0  0  2  0  0  0  0  0  0
  -24.7000  -31.0580   22.1640 N   0  0  0  0  0  0  0  0  0  0  0  0
  -23.5440  -32.1460   23.7920 O   0  0  0  0  0  0  0  0  0  0  0  0
  -22.7560  -29.4610   22.5740 C   0  0  0  0  0  0  0  0  0  0  0  0
  -21.4310  -29.2800   22.4450 N   0  0  0  0  0  0  0  0  0  0  0  0
  -23.4330  -28.8350   23.3950 O   0  0  0  0  0  0  0  0  0  0  0  0
  -20.9400  -29.8400   21.7610 H   0  0  0  0  0  0  0  0  0  0  0  0
  -18.0530  -28.0730   22.9260 C   0  0  0  0  0  0  0  0  0  0  0  0
  -20.6100  -28.3400   23.2130 C   0  0  0  0  0  3  0  0  0  0  0  0
  -20.7180  -26.9060   22.6420 C   0  0  0  0  0  2  0  0  0  0  0  0
  -19.6260  -26.5800   21.6190 C   0  0  0  0  0  2  0  0  0  0  0  0
  -18.2370  -26.7240   22.2510 C   0  0  0  0  0  2  0  0  0  0  0  0
  -19.1670  -28.8390   23.3630 C   0  0  0  0  0  0  0  0  0  0  0  0
  -18.9400  -30.1020   23.9530 C   0  0  0  0  0  3  0  0  0  0  0  0
  -17.6330  -30.6000   24.1090 C   0  0  0  0  0  3  0  0  0  0  0  0
  -16.5340  -29.8300   23.6880 C   0  0  0  0  0  3  0  0  0  0  0  0
  -16.7450  -28.5680   23.1020 C   0  0  0  0  0  3  0  0  0  0  0  0
  -25.9090  -32.5020   23.8900 C   0  0  0  0  0  3  0  0  0  0  0  0
  -26.4110  -31.7380   25.1750 C   0  0  1  0  0  0  0  0  0  0  0  0
  -25.3120  -31.5150   26.2430 C   0  0  0  0  0  1  0  0  0  0  0  0
  -26.9860  -30.3550   24.8020 C   0  0  0  0  0  1  0  0  0  0  0  0
  -27.5620  -32.5310   25.8360 C   0  0  0  0  0  1  0  0  0  0  0  0
  -25.5990  -33.9030   24.2120 N   0  0  0  0  0  0  0  0  0  0  0  0
  -25.9300  -34.9530   23.4520 C   0  0  0  0  0  0  0  0  0  0  0  0
  -26.5970  -34.8460   22.4180 O   0  0  0  0  0  0  0  0  0  0  0  0
  -25.0040  -34.0590   25.0130 H   0  0  0  0  0  0  0  0  0  0  0  0
  -24.2000  -36.7440   23.0970 C   0  0  0  0  0  1  0  0  0  0  0  0
  -25.4450  -36.3450   23.9050 C   0  0  0  0  0  3  0  0  0  0  0  0
  -27.5880  -37.2270   24.7190 C   0  0  0  0  0  1  0  0  0  0  0  0
  -26.4790  -37.3970   23.7840 N   0  0  0  0  0  0  0  0  0  0  0  0
  -26.0750  -38.3180   23.9270 H   0  0  0  0  0  0  0  0  0  0  0  0
  -30.7620  -21.3060   17.8540 C   0  0  0  0  0  2  0  0  0  0  0  0
  -29.7660  -21.4490   16.6870 C   0  0  0  0  0  0  0  0  0  0  0  0
  -30.2540  -21.6270   15.4640 N   0  0  0  0  0  0  0  0  0  0  0  0
  -28.5510  -21.4150   16.8730 O   0  0  0  0  0  0  0  0  0  0  0  0
  -31.2490  -21.6570   15.2950 H   0  0  0  0  0  0  0  0  0  0  0  0
  -29.6290  -21.7570   14.6810 H   0  0  0  0  0  0  0  0  0  0  0  0
  1  4  2  0
  1  2  1  0
  2  5  2  0
  4  6  1  0
  5  3  1  0
  5 15  1  0
  6 46  1  0
  6  3  2  0
  7 15  1  0
  8 13  1  0
  9 10  1  0
  9  8  1  0
 11 10  1  0
 11 20  1  0
 11 12  1  0
 13  7  1  0
 13 12  1  0
 14  7  2  0
 15 16  1  0
 17 18  2  0
 18 37  1  0
 19 18  1  0
 19 22  1  0
 20 17  1  0
 20 21  1  0
 21 19  2  0
 22 23  1  0
 23 24  2  0
 25 28  1  0
 25 24  1  0
 26 25  2  0
 27 26  1  0
 27 22  2  0
 28 29  1  0
 29 30  1  0
 30 31  2  0
 32 31  1  0
 32 36  1  0
 33 32  2  0
 34 29  2  0
 34 33  1  0
 35 34  1  0
 37 38  1  0
 38 41  1  0
 38 40  1  0
 39 37  2  0
 42 43  1  0
 42 17  1  0
 44 42  1  0
 45 47  2  0
 46 45  1  0
 48 46  1  0
 49 45  1  0
 50 49  2  0
 50 51  1  0
 52 63  2  0
 53 51  1  0
 53 58  1  0
 54 62  1  0
 54 64  1  0
 55 61  1  0
 55 57  1  0
 56 62  1  0
 57 56  1  0
 58 57  2  0
 59 53  2  0
 60 59  1  0
 60 55  2  0
 61 54  1  0
 62 52  1  0
 64 66  2  0
 65 64  1  0
 67 65  1  0
 68 77  2  0
 68 73  1  0
 69 65  1  0
 69 73  1  0
 70 69  1  0
 71 72  1  0
 71 70  1  0
 72 68  1  0
 73 74  2  0
 74 75  1  0
 76 75  2  0
 77 76  1  0
 78 52  1  0
 78 83  1  0
 78 79  1  0
 79 82  1  1
 79 80  1  0
 81 79  1  0
 83 86  1  0
 84 88  1  0
 84 83  1  0
 85 84  2  0
 88 87  1  0
 90 88  1  0
 90 91  1  0
 90 89  1  0
 92  4  1  0
 93 95  2  0
 93 92  1  0
 94 93  1  0
 96 94  1  0
 97 94  1  0
M  ISO  4   7 100  15 100  50 101  51 101
M  END
>  <TORSDO>  (61) 
F 20

>  <SCORE>  (61) 
-14.085

>  <name>  (61) 
60

>  <ligand_id>  (61) 
60

>  <original_smiles>  (61) 
[H]C(Oc1c([H])c([H])c2c(c1[H])C([H])([H])N(C(=O)C([H])(N([H])C(=O)C([H])(N([H])C([H])([H])[H])C([H])([H])[H])C(C([H])([H])[H])(C([H])([H])[H])C([H])([H])[H])C([H])(C(=O)N([H])C1([H])c3c([H])c([H])c([H])c([H])c3C([H])([H])C([H])([H])C1([H])[H])C2([H])[H])=C([H])C(=O)N([H])c1c([H])c(N([H])C(=O)N2C([H])([H])C([H])([H])C([H])([H])C([H])(n3nc(-c4c([H])c([H])c(Oc5c([H])c([H])c(F)c([H])c5F)c([H])c4[H])c(C(=O)N([H])[H])c3N([H])[H])C2([H])[H])c([H])c([H])c1C([H])([H])C(=O)N([H])[H]

>  <smiles>  (61) 
[H]C(Oc1c([H])c([H])c2c(c1[H])C([H])([H])N(C(=O)C([H])(N([H])C(=O)C([H])(N([H])C([H])([H])[H])C([H])([H])[H])C(C([H])([H])[H])(C([H])([H])[H])C([H])([H])[H])C([H])(C(=O)N([H])C1([H])c3c([H])c([H])c([H])c([H])c3C([H])([H])C([H])([H])C1([H])[H])C2([H])[H])=C([H])C(=O)N([H])c1c([H])c(N([H])C(=O)N2C([H])([H])C([H])([H])C([H])([H])C([H])(n3nc(-c4c([H])c([H])c(Oc5c([H])c([H])c(F)c([H])c5F)c([H])c4[H])c(C(=O)N([H])[H])c3N([H])[H])C2([H])[H])c([H])c([H])c1C([H])([H])C(=O)N([H])[H]

$$$$
61:0:0
     RDKit          3D

 93101  0  0  1  0  0  0  0  0999 V2000
  -30.5270  -21.9090   20.0210 C   0  0  0  0  0  0  0  0  0  0  0  0
  -29.5250  -22.7940   19.7130 N   0  0  0  0  0  0  0  0  0  0  0  0
  -31.6280  -22.3580   20.3470 O   0  0  0  0  0  0  0  0  0  0  0  0
  -28.6290  -22.4190   19.4320 H   0  0  0  0  0  0  0  0  0  0  0  0
  -29.1750  -18.2390   20.5230 C   0  0  0  0  0  3  0  0  0  0  0  0
  -31.4690  -18.1130   19.8390 C   0  0  0  0  0  3  0  0  0  0  0  0
  -30.3650  -20.3650   19.9900 C   0  0  0  0  0  0  0  0  0  0  0  0
  -29.1870  -19.6660   20.4050 C   0  0  0  0  0  0  0  0  0  0  0  0
  -30.3100  -17.4190   20.2720 C   0  0  0  0  0  0  0  0  0  0  0  0
  -31.4940  -19.5340   19.7010 C   0  0  0  0  0  0  0  0  0  0  0  0
  -27.9190  -20.4190   20.7800 C   0  0  0  0  0  1  0  0  0  0  0  0
  -32.6560  -20.0970   19.2870 F   0  0  0  0  0  0  0  0  0  0  0  0
  -30.9620  -14.9070   19.9980 C   0  0  0  0  0  0  0  0  0  0  0  0
  -30.6950  -12.6620   18.9590 C   0  0  0  0  0  2  0  0  0  0  0  0
  -29.7130  -12.7970   17.7730 C   0  0  0  0  0  2  0  0  0  0  0  0
  -28.2520  -12.6580   18.2500 C   0  0  0  0  0  2  0  0  0  0  0  0
  -27.9460  -13.5310   19.4960 C   0  0  0  0  0  3  0  0  0  0  0  0
  -29.0380  -13.3640   20.5780 C   0  0  0  0  0  2  0  0  0  0  0  0
  -30.3330  -13.6880   19.9580 N   0  0  0  0  0  0  0  0  0  0  0  0
  -32.1030  -15.0500   19.5500 O   0  0  0  0  0  0  0  0  0  0  0  0
  -30.1980  -15.9620   20.4280 N   0  0  0  0  0  0  0  0  0  0  0  0
  -29.3390  -15.6570   20.8600 H   0  0  0  0  0  0  0  0  0  0  0  0
  -25.5970  -14.1720   20.3160 C   0  0  0  0  0  0  0  0  0  0  0  0
  -24.5250  -13.4170   20.7090 C   0  0  0  0  0  0  0  0  0  0  0  0
  -24.9520  -12.0560   20.6310 C   0  0  0  0  0  0  0  0  0  0  0  0
  -26.6090  -13.2720   20.0230 N   0  0  0  0  0  0  0  0  0  0  0  0
  -26.2280  -11.9930   20.2720 N   0  0  0  0  0  0  0  0  0  0  0  0
  -24.2020  -10.8070   20.8200 C   0  0  0  0  0  0  0  0  0  0  0  0
  -24.6020   -9.8420   21.7700 C   0  0  0  0  0  3  0  0  0  0  0  0
  -23.8540   -8.6580   21.9470 C   0  0  0  0  0  3  0  0  0  0  0  0
  -22.6910   -8.4310   21.1730 C   0  0  0  0  0  0  0  0  0  0  0  0
  -22.3110   -9.3840   20.2130 C   0  0  0  0  0  3  0  0  0  0  0  0
  -23.0580  -10.5590   20.0340 C   0  0  0  0  0  3  0  0  0  0  0  0
  -21.9180   -7.2990   21.2580 O   0  0  0  0  0  0  0  0  0  0  0  0
  -21.7780   -6.6100   22.4360 C   0  0  0  0  0  0  0  0  0  0  0  0
  -21.2300   -7.2100   23.5900 C   0  0  0  0  0  3  0  0  0  0  0  0
  -21.0400   -6.4450   24.7580 C   0  0  0  0  0  3  0  0  0  0  0  0
  -21.3880   -5.0810   24.7730 C   0  0  0  0  0  0  0  0  0  0  0  0
  -21.9290   -4.4800   23.6220 C   0  0  0  0  0  3  0  0  0  0  0  0
  -22.1200   -5.2420   22.4560 C   0  0  0  0  0  0  0  0  0  0  0  0
  -22.6220   -4.6530   21.3440 F   0  0  0  0  0  0  0  0  0  0  0  0
  -21.1990   -4.3440   25.8920 F   0  0  0  0  0  0  0  0  0  0  0  0
  -23.1510  -13.9210   21.0450 C   0  0  0  0  0  0  0  0  0  0  0  0
  -22.4440  -13.2300   21.9330 N   0  0  0  0  0  0  0  0  0  0  0  0
  -22.7150  -14.9620   20.5550 O   0  0  0  0  0  0  0  0  0  0  0  0
  -22.8120  -12.3890   22.3510 H   0  0  0  0  0  0  0  0  0  0  0  0
  -21.5240  -13.5490   22.2000 H   0  0  0  0  0  0  0  0  0  0  0  0
  -25.7890  -15.5420   20.1630 N   0  0  0  0  0  0  0  0  0  0  0  0
  -25.0390  -16.2090   20.3070 H   0  0  0  0  0  0  0  0  0  0  0  0
  -26.6280  -15.9670   19.7890 H   0  0  0  0  0  0  0  0  0  0  0  0
  -29.6720  -24.3000   19.7990 C   0  0  0  0  0  3  0  0  0  0  0  0
  -28.4350  -25.2220   19.4260 C   0  0  0  0  0  3  0  0  0  0  0  0
  -28.5450  -26.6790   19.6810 O   0  0  0  0  0  0  0  0  0  0  0  0
  -24.5500  -31.6390   23.0750 C   0  0  0  0  0  0  0  0  0  0  0  0
  -27.3700  -27.4500   19.6970 C   0  0  0  0  0  0  0  0  0  0  0  0
  -23.4010  -30.2810   21.3630 C   0  0  0  0  0  3  0  0  0  0  0  0
  -24.9130  -28.9120   19.8220 C   0  0  0  0  0  0  0  0  0  0  0  0
  -25.9140  -30.7600   21.1660 C   0  0  0  0  0  2  0  0  0  0  0  0
  -26.0620  -29.4330   20.4320 C   0  0  0  0  0  0  0  0  0  0  0  0
  -27.2920  -28.7140   20.3590 C   0  0  0  0  0  3  0  0  0  0  0  0
  -26.1930  -26.9800   19.0700 C   0  0  0  0  0  3  0  0  0  0  0  0
  -24.9810  -27.6920   19.1330 C   0  0  0  0  0  3  0  0  0  0  0  0
  -23.6290  -29.7080   19.9390 C   0  0  0  0  0  2  0  0  0  0  0  0
  -24.6410  -30.9070   21.9260 N   0  0  0  0  0  0  0  0  0  0  0  0
  -23.4620  -31.8200   23.6400 O   0  0  0  0  0  0  0  0  0  0  0  0
  -22.8130  -29.1680   22.2640 C   0  0  0  0  0  0  0  0  0  0  0  0
  -21.5030  -28.9050   22.1220 N   0  0  0  0  0  0  0  0  0  0  0  0
  -23.5340  -28.5470   23.0490 O   0  0  0  0  0  0  0  0  0  0  0  0
  -20.9760  -29.4640   21.4660 H   0  0  0  0  0  0  0  0  0  0  0  0
  -18.2160  -27.4520   22.5410 C   0  0  0  0  0  0  0  0  0  0  0  0
  -20.7500  -27.8720   22.8380 C   0  0  0  0  0  3  0  0  0  0  0  0
  -20.9520  -26.4850   22.1850 C   0  0  0  0  0  2  0  0  0  0  0  0
  -19.8760  -26.1420   21.1500 C   0  0  0  0  0  2  0  0  0  0  0  0
  -18.4870  -26.1570   21.7950 C   0  0  0  0  0  2  0  0  0  0  0  0
  -19.2800  -28.2650   23.0170 C   0  0  0  0  0  0  0  0  0  0  0  0
  -18.9740  -29.4760   23.6750 C   0  0  0  0  0  3  0  0  0  0  0  0
  -17.6370  -29.8750   23.8620 C   0  0  0  0  0  3  0  0  0  0  0  0
  -16.5880  -29.0590   23.4030 C   0  0  0  0  0  3  0  0  0  0  0  0
  -16.8790  -27.8500   22.7470 C   0  0  0  0  0  3  0  0  0  0  0  0
  -25.8060  -32.3030   23.7200 C   0  0  0  0  0  3  0  0  0  0  0  0
  -26.3340  -31.5270   24.9890 C   0  0  1  0  0  0  0  0  0  0  0  0
  -25.2370  -31.2320   26.0400 C   0  0  0  0  0  1  0  0  0  0  0  0
  -26.9700  -30.1790   24.5810 C   0  0  0  0  0  1  0  0  0  0  0  0
  -27.4480  -32.3490   25.6790 C   0  0  0  0  0  1  0  0  0  0  0  0
  -25.4460  -33.6840   24.0700 N   0  0  0  0  0  0  0  0  0  0  0  0
  -25.7290  -34.7580   23.3220 C   0  0  0  0  0  0  0  0  0  0  0  0
  -26.3900  -34.6920   22.2820 O   0  0  0  0  0  0  0  0  0  0  0  0
  -24.8560  -33.8060   24.8810 H   0  0  0  0  0  0  0  0  0  0  0  0
  -23.9160  -36.4760   23.0280 C   0  0  0  0  0  1  0  0  0  0  0  0
  -25.1960  -36.1210   23.8030 C   0  0  0  0  0  3  0  0  0  0  0  0
  -27.3010  -37.1040   24.5980 C   0  0  0  0  0  1  0  0  0  0  0  0
  -26.1780  -37.2190   23.6700 N   0  0  0  0  0  0  0  0  0  0  0  0
  -25.7330  -38.1200   23.8190 H   0  0  0  0  0  0  0  0  0  0  0  0
  1  3  2  0
  2 51  1  0
  2  1  1  0
  4  2  1  0
  6  9  1  0
  7  1  1  0
  7  8  2  0
  8  5  1  0
  8 11  1  0
  9 21  1  0
  9  5  2  0
 10  6  2  0
 10  7  1  0
 12 10  1  0
 13 21  1  0
 14 19  1  0
 15 16  1  0
 15 14  1  0
 17 16  1  0
 17 26  1  0
 17 18  1  0
 19 13  1  0
 19 18  1  0
 20 13  2  0
 21 22  1  0
 23 24  2  0
 24 43  1  0
 25 24  1  0
 25 28  1  0
 26 27  1  0
 26 23  1  0
 27 25  2  0
 28 29  1  0
 29 30  2  0
 31 34  1  0
 31 30  1  0
 32 31  2  0
 33 32  1  0
 33 28  2  0
 34 35  1  0
 35 40  2  0
 35 36  1  0
 36 37  2  0
 37 38  1  0
 38 42  1  0
 39 38  2  0
 40 39  1  0
 41 40  1  0
 43 44  1  0
 44 47  1  0
 44 46  1  0
 45 43  2  0
 48 49  1  0
 48 23  1  0
 50 48  1  0
 52 53  1  0
 52 51  2  0
 53 55  1  0
 54 65  2  0
 55 60  1  0
 56 64  1  0
 56 66  1  0
 57 63  1  0
 57 59  1  0
 58 64  1  0
 59 58  1  0
 60 59  2  0
 61 62  1  0
 61 55  2  0
 62 57  2  0
 63 56  1  0
 64 54  1  0
 66 68  2  0
 67 66  1  0
 69 67  1  0
 70 79  2  0
 70 75  1  0
 71 67  1  0
 71 75  1  0
 72 71  1  0
 73 74  1  0
 73 72  1  0
 74 70  1  0
 75 76  2  0
 76 77  1  0
 78 77  2  0
 79 78  1  0
 80 54  1  0
 80 85  1  0
 80 81  1  0
 81 84  1  1
 81 82  1  0
 83 81  1  0
 85 88  1  0
 86 90  1  0
 86 85  1  0
 87 86  2  0
 90 89  1  0
 92 90  1  0
 92 93  1  0
 92 91  1  0
M  ISO  4  13 100  21 100  52 101  53 101
M  END
>  <TORSDO>  (62) 
F 19

>  <SCORE>  (62) 
-13.180

>  <name>  (62) 
61

>  <ligand_id>  (62) 
61

>  <original_smiles>  (62) 
[H]c1c([H])c([H])c2c(c1[H])C([H])([H])C([H])([H])C([H])([H])C2([H])N([H])C(=O)C1([H])N(C(=O)C([H])(N([H])C(=O)C([H])(N([H])C([H])([H])[H])C([H])([H])[H])C(C([H])([H])[H])(C([H])([H])[H])C([H])([H])[H])C([H])([H])c2c([H])c(OC([H])([H])C([H])([H])N([H])C(=O)c3c(F)c([H])c(N([H])C(=O)N4C([H])([H])C([H])([H])C([H])([H])C([H])(n5nc(-c6c([H])c([H])c(Oc7c([H])c([H])c(F)c([H])c7F)c([H])c6[H])c(C(=O)N([H])[H])c5N([H])[H])C4([H])[H])c([H])c3C([H])([H])[H])c([H])c([H])c2C1([H])[H]

>  <smiles>  (62) 
[H]c1c([H])c([H])c2c(c1[H])C([H])([H])C([H])([H])C([H])([H])C2([H])N([H])C(=O)C1([H])N(C(=O)C([H])(N([H])C(=O)C([H])(N([H])C([H])([H])[H])C([H])([H])[H])C(C([H])([H])[H])(C([H])([H])[H])C([H])([H])[H])C([H])([H])c2c([H])c(OC([H])([H])C([H])([H])N([H])C(=O)c3c(F)c([H])c(N([H])C(=O)N4C([H])([H])C([H])([H])C([H])([H])C([H])(n5nc(-c6c([H])c([H])c(Oc7c([H])c([H])c(F)c([H])c7F)c([H])c6[H])c(C(=O)N([H])[H])c5N([H])[H])C4([H])[H])c([H])c3C([H])([H])[H])c([H])c([H])c2C1([H])[H]

$$$$
62:0:0
     RDKit          3D

100108  0  0  1  0  0  0  0  0999 V2000
  -29.9540  -17.6620   22.1140 C   0  0  0  0  0  3  0  0  0  0  0  0
  -32.1100  -16.5760   22.3900 C   0  0  0  0  0  3  0  0  0  0  0  0
  -30.4740  -18.8660   22.6450 C   0  0  0  0  0  0  0  0  0  0  0  0
  -31.8230  -18.9050   23.0960 C   0  0  0  0  0  0  0  0  0  0  0  0
  -30.7620  -16.5150   21.9720 C   0  0  0  0  0  0  0  0  0  0  0  0
  -32.6440  -17.7590   22.9430 C   0  0  0  0  0  0  0  0  0  0  0  0
  -32.4200  -20.1620   23.7270 C   0  0  0  0  0  1  0  0  0  0  0  0
  -30.7540  -14.4070   20.6550 C   0  0  0  0  0  0  0  0  0  0  0  0
  -30.4130  -12.3040   19.4070 C   0  0  0  0  0  2  0  0  0  0  0  0
  -29.4880  -12.5360   18.1980 C   0  0  0  0  0  2  0  0  0  0  0  0
  -28.0110  -12.3900   18.6080 C   0  0  0  0  0  2  0  0  0  0  0  0
  -27.6630  -13.2100   19.8800 C   0  0  0  0  0  3  0  0  0  0  0  0
  -28.7020  -12.9710   20.9970 C   0  0  0  0  0  2  0  0  0  0  0  0
  -30.0390  -13.2680   20.4520 N   0  0  0  0  0  0  0  0  0  0  0  0
  -31.8240  -14.6340   20.0830 O   0  0  0  0  0  0  0  0  0  0  0  0
  -30.1810  -15.3150   21.4670 N   0  0  0  0  0  0  0  0  0  0  0  0
  -29.2240  -15.1270   21.7270 H   0  0  0  0  0  0  0  0  0  0  0  0
  -25.2600  -13.8160   20.5670 C   0  0  0  0  0  0  0  0  0  0  0  0
  -24.1840  -13.0430   20.9150 C   0  0  0  0  0  0  0  0  0  0  0  0
  -24.6400  -11.6900   20.8720 C   0  0  0  0  0  0  0  0  0  0  0  0
  -26.3030  -12.9340   20.3380 N   0  0  0  0  0  0  0  0  0  0  0  0
  -25.9330  -11.6490   20.5760 N   0  0  0  0  0  0  0  0  0  0  0  0
  -23.9060  -10.4290   21.0390 C   0  0  0  0  0  0  0  0  0  0  0  0
  -24.3610   -9.4220   21.9180 C   0  0  0  0  0  3  0  0  0  0  0  0
  -23.6290   -8.2260   22.0750 C   0  0  0  0  0  3  0  0  0  0  0  0
  -22.4280   -8.0280   21.3540 C   0  0  0  0  0  0  0  0  0  0  0  0
  -21.9910   -9.0250   20.4640 C   0  0  0  0  0  3  0  0  0  0  0  0
  -22.7230  -10.2130   20.3040 C   0  0  0  0  0  3  0  0  0  0  0  0
  -21.6640   -6.8880   21.4240 O   0  0  0  0  0  0  0  0  0  0  0  0
  -21.6860   -6.0740   22.5270 C   0  0  0  0  0  0  0  0  0  0  0  0
  -21.4010   -6.5650   23.8200 C   0  0  0  0  0  3  0  0  0  0  0  0
  -21.3660   -5.6800   24.9170 C   0  0  0  0  0  3  0  0  0  0  0  0
  -21.6040   -4.3060   24.7210 C   0  0  0  0  0  0  0  0  0  0  0  0
  -21.8820   -3.8150   23.4340 C   0  0  0  0  0  3  0  0  0  0  0  0
  -21.9200   -4.6970   22.3400 C   0  0  0  0  0  0  0  0  0  0  0  0
  -22.1670   -4.2160   21.0970 F   0  0  0  0  0  0  0  0  0  0  0  0
  -21.5620   -3.4550   25.7730 F   0  0  0  0  0  0  0  0  0  0  0  0
  -22.7870  -13.5240   21.1830 C   0  0  0  0  0  0  0  0  0  0  0  0
  -22.0510  -12.8220   22.0360 N   0  0  0  0  0  0  0  0  0  0  0  0
  -22.3560  -14.5560   20.6690 O   0  0  0  0  0  0  0  0  0  0  0  0
  -22.4110  -11.9850   22.4710 H   0  0  0  0  0  0  0  0  0  0  0  0
  -21.1120  -13.1230   22.2550 H   0  0  0  0  0  0  0  0  0  0  0  0
  -25.4330  -15.1880   20.4090 N   0  0  0  0  0  0  0  0  0  0  0  0
  -24.6660  -15.8450   20.4990 H   0  0  0  0  0  0  0  0  0  0  0  0
  -26.2920  -15.6240   20.0950 H   0  0  0  0  0  0  0  0  0  0  0  0
  -33.9770  -17.7940   23.3700 N   0  0  0  0  0  0  0  0  0  0  0  0
  -34.1630  -18.5110   24.0570 H   0  0  0  0  0  0  0  0  0  0  0  0
  -35.3820  -18.6500   21.1300 C   0  0  0  0  0  1  0  0  0  0  0  0
  -36.5200  -17.6850   23.3740 O   0  0  0  0  0  0  0  0  0  0  0  0
  -35.1900  -16.0730   21.9070 O   0  0  0  0  0  0  0  0  0  0  0  0
  -35.3930  -17.4170   22.4670 S   0  0  1  0  0  0  0  0  0  0  0  0
  -29.5410  -20.0770   22.7340 C   0  0  0  0  0  2  0  0  0  0  0  0
  -29.9300  -21.2610   21.8190 C   0  0  0  0  0  2  0  0  0  0  0  0
  -28.8640  -22.3820   21.8050 C   0  0  0  0  0  2  0  0  0  0  0  0
  -29.4290  -23.8160   21.7400 C   0  0  0  0  0  2  0  0  0  0  0  0
  -29.7960  -24.7550   19.5650 C   0  0  0  0  0  0  0  0  0  0  0  0
  -30.6890  -24.9680   18.3640 C   0  0  0  0  0  1  0  0  0  0  0  0
  -30.2150  -24.0340   20.5350 N   0  0  0  0  0  0  0  0  0  0  0  0
  -28.4340  -25.4440   19.4470 C   0  0  0  0  0  2  0  0  0  0  0  0
  -28.4180  -26.7320   20.0760 O   0  0  0  0  0  0  0  0  0  0  0  0
  -24.6160  -31.8640   23.2120 C   0  0  0  0  0  0  0  0  0  0  0  0
  -27.2310  -27.4400   20.0770 C   0  0  0  0  0  0  0  0  0  0  0  0
  -23.3990  -30.4930   21.5540 C   0  0  0  0  0  3  0  0  0  0  0  0
  -24.8400  -28.9610   20.1160 C   0  0  0  0  0  0  0  0  0  0  0  0
  -25.9240  -30.8370   21.3550 C   0  0  0  0  0  2  0  0  0  0  0  0
  -26.0010  -29.4680   20.7110 C   0  0  0  0  0  0  0  0  0  0  0  0
  -27.1950  -28.7110   20.6970 C   0  0  0  0  0  3  0  0  0  0  0  0
  -26.0430  -26.9490   19.4790 C   0  0  0  0  0  3  0  0  0  0  0  0
  -24.8540  -27.6990   19.5030 C   0  0  0  0  0  3  0  0  0  0  0  0
  -23.6020  -29.8260   20.1680 C   0  0  0  0  0  2  0  0  0  0  0  0
  -24.6660  -31.0760   22.1020 N   0  0  0  0  0  0  0  0  0  0  0  0
  -23.5370  -32.1380   23.7550 O   0  0  0  0  0  0  0  0  0  0  0  0
  -22.7380  -29.4650   22.5010 C   0  0  0  0  0  0  0  0  0  0  0  0
  -21.4110  -29.3020   22.3730 N   0  0  0  0  0  0  0  0  0  0  0  0
  -23.4150  -28.8180   23.3040 O   0  0  0  0  0  0  0  0  0  0  0  0
  -20.9240  -29.8740   21.6980 H   0  0  0  0  0  0  0  0  0  0  0  0
  -18.0260  -28.1360   22.8490 C   0  0  0  0  0  0  0  0  0  0  0  0
  -20.5850  -28.3640   23.1320 C   0  0  0  0  0  3  0  0  0  0  0  0
  -20.6760  -26.9380   22.5430 C   0  0  0  0  0  2  0  0  0  0  0  0
  -19.5760  -26.6390   21.5200 C   0  0  0  0  0  2  0  0  0  0  0  0
  -18.1910  -26.7930   22.1570 C   0  0  0  0  0  2  0  0  0  0  0  0
  -19.1510  -28.8820   23.2920 C   0  0  0  0  0  0  0  0  0  0  0  0
  -18.9430  -30.1420   23.8940 C   0  0  0  0  0  3  0  0  0  0  0  0
  -17.6440  -30.6570   24.0570 C   0  0  0  0  0  3  0  0  0  0  0  0
  -16.5330  -29.9070   23.6330 C   0  0  0  0  0  3  0  0  0  0  0  0
  -16.7240  -28.6480   23.0360 C   0  0  0  0  0  3  0  0  0  0  0  0
  -25.9080  -32.4780   23.8380 C   0  0  0  0  0  3  0  0  0  0  0  0
  -25.5970  -33.8580   24.2350 N   0  0  0  0  0  0  0  0  0  0  0  0
  -25.9020  -34.9440   23.5130 C   0  0  0  0  0  0  0  0  0  0  0  0
  -26.5530  -34.8910   22.4660 O   0  0  0  0  0  0  0  0  0  0  0  0
  -25.0300  -33.9720   25.0620 H   0  0  0  0  0  0  0  0  0  0  0  0
  -24.1480  -36.7280   23.2630 C   0  0  0  0  0  1  0  0  0  0  0  0
  -25.4080  -36.3060   24.0360 C   0  0  0  0  0  3  0  0  0  0  0  0
  -27.5560  -37.1770   24.8470 C   0  0  0  0  0  1  0  0  0  0  0  0
  -26.4250  -37.3770   23.9450 N   0  0  0  0  0  0  0  0  0  0  0  0
  -26.0110  -38.2820   24.1520 H   0  0  0  0  0  0  0  0  0  0  0  0
  -26.4560  -31.6520   25.0660 C   0  0  1  0  0  0  0  0  0  0  0  0
  -25.3860  -31.3570   26.1420 C   0  0  0  0  0  1  0  0  0  0  0  0
  -27.0380  -30.2970   24.5950 C   0  0  0  0  0  1  0  0  0  0  0  0
  -27.6160  -32.4210   25.7400 C   0  0  0  0  0  1  0  0  0  0  0  0
  1  3  1  0
  2  6  2  0
  3 52  1  0
  3  4  2  0
  4  7  1  0
  5  1  2  0
  5  2  1  0
  6  4  1  0
  6 46  1  0
  8 16  1  0
  9 14  1  0
 10 11  1  0
 10  9  1  0
 12 11  1  0
 12 21  1  0
 12 13  1  0
 14  8  1  0
 14 13  1  0
 15  8  2  0
 16 17  1  0
 16  5  1  0
 18 19  2  0
 19 38  1  0
 20 19  1  0
 20 23  1  0
 21 18  1  0
 21 22  1  0
 22 20  2  0
 23 24  1  0
 24 25  2  0
 26 29  1  0
 26 25  1  0
 27 26  2  0
 28 27  1  0
 28 23  2  0
 29 30  1  0
 30 31  1  0
 31 32  2  0
 33 32  1  0
 33 37  1  0
 34 33  2  0
 35 30  2  0
 35 34  1  0
 36 35  1  0
 38 39  1  0
 39 42  1  0
 39 41  1  0
 40 38  2  0
 43 44  1  0
 43 18  1  0
 45 43  1  0
 46 47  1  0
 51 48  1  6
 50 51  2  0
 51 46  1  0
 51 49  2  0
 53 52  1  0
 54 53  1  0
 55 54  1  0
 56 58  2  0
 57 56  1  0
 58 55  1  0
 59 56  1  0
 59 60  1  0
 60 62  1  0
 61 72  2  0
 62 67  1  0
 63 71  1  0
 63 73  1  0
 64 70  1  0
 64 66  1  0
 65 71  1  0
 66 65  1  0
 67 66  2  0
 68 69  1  0
 68 62  2  0
 69 64  2  0
 70 63  1  0
 71 61  1  0
 73 75  2  0
 74 73  1  0
 76 74  1  0
 77 86  2  0
 77 82  1  0
 78 74  1  0
 78 82  1  0
 79 78  1  0
 80 81  1  0
 80 79  1  0
 81 77  1  0
 82 83  2  0
 83 84  1  0
 85 84  2  0
 86 85  1  0
 87 61  1  0
 87 88  1  0
 87 97  1  0
 88 91  1  0
 89 93  1  0
 89 88  1  0
 90 89  2  0
 93 92  1  0
 95 93  1  0
 95 96  1  0
 95 94  1  0
 97100  1  1
 97 98  1  0
 99 97  1  0
M  ISO  4   8 100  16 100  59 101  60 101
M  END
>  <TORSDO>  (63) 
F 24

>  <SCORE>  (63) 
8.763

>  <name>  (63) 
62

>  <ligand_id>  (63) 
62

>  <original_smiles>  (63) 
[H]c1c([H])c([H])c2c(c1[H])C([H])([H])C([H])([H])C([H])([H])C2([H])N([H])C(=O)C1([H])N(C(=O)C([H])(N([H])C(=O)C([H])(N([H])C([H])([H])[H])C([H])([H])[H])C(C([H])([H])[H])(C([H])([H])[H])C([H])([H])[H])C([H])([H])c2c([H])c(OC([H])([H])C(=NC([H])([H])C([H])([H])C([H])([H])C([H])([H])c3c([H])c(N([H])C(=O)N4C([H])([H])C([H])([H])C([H])([H])C([H])(n5nc(-c6c([H])c([H])c(Oc7c([H])c([H])c(F)c([H])c7F)c([H])c6[H])c(C(=O)N([H])[H])c5N([H])[H])C4([H])[H])c([H])c(N([H])S(=O)(=O)C([H])([H])[H])c3C([H])([H])[H])C([H])([H])[H])c([H])c([H])c2C1([H])[H]

>  <smiles>  (63) 
[H]c1c([H])c([H])c2c(c1[H])C([H])([H])C([H])([H])C([H])([H])C2([H])N([H])C(=O)C1([H])N(C(=O)C([H])(N([H])C(=O)C([H])(N([H])C([H])([H])[H])C([H])([H])[H])C(C([H])([H])[H])(C([H])([H])[H])C([H])([H])[H])C([H])([H])c2c([H])c(OC([H])([H])C(=NC([H])([H])C([H])([H])C([H])([H])C([H])([H])c3c([H])c(N([H])C(=O)N4C([H])([H])C([H])([H])C([H])([H])C([H])(n5nc(-c6c([H])c([H])c(Oc7c([H])c([H])c(F)c([H])c7F)c([H])c6[H])c(C(=O)N([H])[H])c5N([H])[H])C4([H])[H])c([H])c(N([H])S(=O)(=O)C([H])([H])[H])c3C([H])([H])[H])C([H])([H])[H])c([H])c([H])c2C1([H])[H]

$$$$
63:0:0
     RDKit          3D

 93101  0  0  1  0  0  0  0  0999 V2000
  -28.8130  -22.3570   21.2100 C   0  0  0  0  0  0  0  0  0  0  0  0
  -28.5380  -21.1230   20.7660 N   0  0  0  0  0  0  0  0  0  0  0  0
  -29.2660  -22.5690   22.3370 O   0  0  0  0  0  0  0  0  0  0  0  0
  -28.1460  -21.0380   19.8390 H   0  0  0  0  0  0  0  0  0  0  0  0
  -28.5380  -23.3780   20.2130 C   0  0  0  0  0  3  0  0  0  0  0  0
  -29.0450  -24.6180   20.3610 C   0  0  0  0  0  3  0  0  0  0  0  0
  -28.8760  -25.7680   19.3870 C   0  0  0  0  0  2  0  0  0  0  0  0
  -28.6330  -26.9910   20.0840 O   0  0  0  0  0  0  0  0  0  0  0  0
  -24.6250  -31.9140   23.2360 C   0  0  0  0  0  0  0  0  0  0  0  0
  -27.3960  -27.6020   20.0890 C   0  0  0  0  0  0  0  0  0  0  0  0
  -23.4590  -30.5210   21.5560 C   0  0  0  0  0  3  0  0  0  0  0  0
  -24.9570  -29.0370   20.1220 C   0  0  0  0  0  0  0  0  0  0  0  0
  -25.9760  -30.9410   21.3820 C   0  0  0  0  0  2  0  0  0  0  0  0
  -26.0950  -29.5810   20.7260 C   0  0  0  0  0  0  0  0  0  0  0  0
  -27.3120  -28.8680   20.7090 C   0  0  0  0  0  3  0  0  0  0  0  0
  -26.2300  -27.0550   19.5040 C   0  0  0  0  0  3  0  0  0  0  0  0
  -25.0180  -27.7730   19.5110 C   0  0  0  0  0  3  0  0  0  0  0  0
  -23.6920  -29.8640   20.1690 C   0  0  0  0  0  2  0  0  0  0  0  0
  -24.7050  -31.1380   22.1180 N   0  0  0  0  0  0  0  0  0  0  0  0
  -23.5350  -32.1540   23.7720 O   0  0  0  0  0  0  0  0  0  0  0  0
  -22.8220  -29.4680   22.4930 C   0  0  0  0  0  0  0  0  0  0  0  0
  -21.5070  -29.2490   22.3340 N   0  0  0  0  0  0  0  0  0  0  0  0
  -23.5080  -28.8510   23.3120 O   0  0  0  0  0  0  0  0  0  0  0  0
  -21.0170  -29.8050   21.6460 H   0  0  0  0  0  0  0  0  0  0  0  0
  -18.1600  -27.9510   22.7340 C   0  0  0  0  0  0  0  0  0  0  0  0
  -20.7010  -28.2790   23.0720 C   0  0  0  0  0  3  0  0  0  0  0  0
  -20.8580  -26.8590   22.4830 C   0  0  0  0  0  2  0  0  0  0  0  0
  -19.7920  -26.5160   21.4370 C   0  0  0  0  0  2  0  0  0  0  0  0
  -18.3910  -26.6150   22.0500 C   0  0  0  0  0  2  0  0  0  0  0  0
  -19.2450  -28.7400   23.1990 C   0  0  0  0  0  0  0  0  0  0  0  0
  -18.9770  -29.9900   23.7970 C   0  0  0  0  0  3  0  0  0  0  0  0
  -17.6540  -30.4530   23.9350 C   0  0  0  0  0  3  0  0  0  0  0  0
  -16.5830  -29.6620   23.4860 C   0  0  0  0  0  3  0  0  0  0  0  0
  -16.8370  -28.4130   22.8910 C   0  0  0  0  0  3  0  0  0  0  0  0
  -25.8940  -32.5560   23.8820 C   0  0  0  0  0  3  0  0  0  0  0  0
  -26.3930  -31.7870   25.1650 C   0  0  1  0  0  0  0  0  0  0  0  0
  -25.2770  -31.5200   26.2020 C   0  0  0  0  0  1  0  0  0  0  0  0
  -27.0130  -30.4250   24.7740 C   0  0  0  0  0  1  0  0  0  0  0  0
  -27.5110  -32.5980   25.8610 C   0  0  0  0  0  1  0  0  0  0  0  0
  -25.5660  -33.9500   24.2090 N   0  0  0  0  0  0  0  0  0  0  0  0
  -25.8900  -35.0030   23.4490 C   0  0  0  0  0  0  0  0  0  0  0  0
  -26.5670  -34.9040   22.4210 O   0  0  0  0  0  0  0  0  0  0  0  0
  -24.9600  -34.1000   25.0020 H   0  0  0  0  0  0  0  0  0  0  0  0
  -24.1280  -36.7610   23.0880 C   0  0  0  0  0  1  0  0  0  0  0  0
  -25.3810  -36.3870   23.8970 C   0  0  0  0  0  3  0  0  0  0  0  0
  -27.5020  -37.3160   24.7130 C   0  0  0  0  0  1  0  0  0  0  0  0
  -26.3950  -37.4570   23.7700 N   0  0  0  0  0  0  0  0  0  0  0  0
  -25.9750  -38.3710   23.9080 H   0  0  0  0  0  0  0  0  0  0  0  0
  -28.7160  -19.8790   21.5210 C   0  0  0  0  0  2  0  0  0  0  0  0
  -32.0700  -18.6680   20.0780 C   0  0  0  0  0  3  0  0  0  0  0  0
  -31.0320  -19.5140   20.5100 C   0  0  0  0  0  3  0  0  0  0  0  0
  -31.9000  -17.2700   20.1010 C   0  0  0  0  0  3  0  0  0  0  0  0
  -29.6520  -17.5640   20.9950 C   0  0  0  0  0  3  0  0  0  0  0  0
  -29.8190  -18.9690   20.9830 C   0  0  0  0  0  0  0  0  0  0  0  0
  -30.6790  -16.7030   20.5370 C   0  0  0  0  0  0  0  0  0  0  0  0
  -30.9950  -14.3380   19.7950 C   0  0  0  0  0  0  0  0  0  0  0  0
  -30.5980  -12.1300   18.7590 C   0  0  0  0  0  2  0  0  0  0  0  0
  -29.5640  -12.2660   17.6230 C   0  0  0  0  0  2  0  0  0  0  0  0
  -28.1280  -12.1590   18.1700 C   0  0  0  0  0  2  0  0  0  0  0  0
  -27.8900  -13.0740   19.3990 C   0  0  0  0  0  3  0  0  0  0  0  0
  -29.0220  -12.8990   20.4380 C   0  0  0  0  0  2  0  0  0  0  0  0
  -30.3070  -13.1630   19.7660 N   0  0  0  0  0  0  0  0  0  0  0  0
  -32.0180  -14.5200   19.1270 O   0  0  0  0  0  0  0  0  0  0  0  0
  -30.4460  -15.2960   20.5670 N   0  0  0  0  0  0  0  0  0  0  0  0
  -29.6240  -14.9940   21.0660 H   0  0  0  0  0  0  0  0  0  0  0  0
  -25.5890  -13.7520   20.3360 C   0  0  0  0  0  0  0  0  0  0  0  0
  -24.5320  -13.0080   20.7860 C   0  0  0  0  0  0  0  0  0  0  0  0
  -24.9360  -11.6410   20.6790 C   0  0  0  0  0  0  0  0  0  0  0  0
  -26.5740  -12.8390   19.9900 N   0  0  0  0  0  0  0  0  0  0  0  0
  -26.1880  -11.5640   20.2510 N   0  0  0  0  0  0  0  0  0  0  0  0
  -24.1830  -10.4020   20.9080 C   0  0  0  0  0  0  0  0  0  0  0  0
  -24.5840   -9.4640   21.8850 C   0  0  0  0  0  3  0  0  0  0  0  0
  -23.8370   -8.2870   22.0990 C   0  0  0  0  0  3  0  0  0  0  0  0
  -22.6730   -8.0390   21.3340 C   0  0  0  0  0  0  0  0  0  0  0  0
  -22.2890   -8.9630   20.3470 C   0  0  0  0  0  3  0  0  0  0  0  0
  -23.0380  -10.1320   20.1320 C   0  0  0  0  0  3  0  0  0  0  0  0
  -21.8970   -6.9100   21.4540 O   0  0  0  0  0  0  0  0  0  0  0  0
  -21.7130   -6.2870   22.6630 C   0  0  0  0  0  0  0  0  0  0  0  0
  -21.1400   -6.9550   23.7660 C   0  0  0  0  0  3  0  0  0  0  0  0
  -20.9060   -6.2600   24.9680 C   0  0  0  0  0  3  0  0  0  0  0  0
  -21.2360   -4.8940   25.0680 C   0  0  0  0  0  0  0  0  0  0  0  0
  -21.8020   -4.2250   23.9690 C   0  0  0  0  0  3  0  0  0  0  0  0
  -22.0380   -4.9190   22.7680 C   0  0  0  0  0  0  0  0  0  0  0  0
  -22.5640   -4.2650   21.7050 F   0  0  0  0  0  0  0  0  0  0  0  0
  -21.0040   -4.2230   26.2200 F   0  0  0  0  0  0  0  0  0  0  0  0
  -23.1840  -13.5260   21.2020 C   0  0  0  0  0  0  0  0  0  0  0  0
  -22.5230  -12.8370   22.1260 N   0  0  0  0  0  0  0  0  0  0  0  0
  -22.7320  -14.5720   20.7420 O   0  0  0  0  0  0  0  0  0  0  0  0
  -22.9030  -11.9870   22.5130 H   0  0  0  0  0  0  0  0  0  0  0  0
  -21.6230  -13.1660   22.4500 H   0  0  0  0  0  0  0  0  0  0  0  0
  -25.7880  -15.1200   20.1750 N   0  0  0  0  0  0  0  0  0  0  0  0
  -25.0580  -15.8000   20.3630 H   0  0  0  0  0  0  0  0  0  0  0  0
  -26.6200  -15.5330   19.7730 H   0  0  0  0  0  0  0  0  0  0  0  0
  1  3  2  0
  2  1  1  0
  2 49  1  0
  4  2  1  0
  5  6  2  0
  5  1  1  0
  7  8  1  0
  7  6  1  0
  8 10  1  0
  9 20  2  0
 10 15  1  0
 11 19  1  0
 11 21  1  0
 12 18  1  0
 12 14  1  0
 13 19  1  0
 14 13  1  0
 15 14  2  0
 16 17  1  0
 16 10  2  0
 17 12  2  0
 18 11  1  0
 19  9  1  0
 21 23  2  0
 22 21  1  0
 24 22  1  0
 25 34  2  0
 25 30  1  0
 26 22  1  0
 26 30  1  0
 27 26  1  0
 28 29  1  0
 28 27  1  0
 29 25  1  0
 30 31  2  0
 31 32  1  0
 33 32  2  0
 34 33  1  0
 35  9  1  0
 35 40  1  0
 35 36  1  0
 36 39  1  1
 36 37  1  0
 38 36  1  0
 40 43  1  0
 41 45  1  0
 41 40  1  0
 42 41  2  0
 45 44  1  0
 47 45  1  0
 47 48  1  0
 47 46  1  0
 50 52  2  0
 50 51  1  0
 51 54  2  0
 52 55  1  0
 54 53  1  0
 54 49  1  0
 55 64  1  0
 55 53  2  0
 56 64  1  0
 57 62  1  0
 58 59  1  0
 58 57  1  0
 60 59  1  0
 60 69  1  0
 60 61  1  0
 62 56  1  0
 62 61  1  0
 63 56  2  0
 64 65  1  0
 66 67  2  0
 67 86  1  0
 68 67  1  0
 68 71  1  0
 69 70  1  0
 69 66  1  0
 70 68  2  0
 71 72  1  0
 72 73  2  0
 74 77  1  0
 74 73  1  0
 75 74  2  0
 76 75  1  0
 76 71  2  0
 77 78  1  0
 78 83  2  0
 78 79  1  0
 79 80  2  0
 80 81  1  0
 81 85  1  0
 82 81  2  0
 83 82  1  0
 84 83  1  0
 86 87  1  0
 87 90  1  0
 87 89  1  0
 88 86  2  0
 91 66  1  0
 91 92  1  0
 93 91  1  0
M  ISO  4   7 101   8 101  56 100  64 100
M  END
>  <TORSDO>  (64) 
F 20

>  <SCORE>  (64) 
-12.657

>  <name>  (64) 
63

>  <ligand_id>  (64) 
63

>  <original_smiles>  (64) 
[H]C(C(=O)N([H])C([H])([H])c1c([H])c([H])c([H])c(N([H])C(=O)N2C([H])([H])C([H])([H])C([H])([H])C([H])(n3nc(-c4c([H])c([H])c(Oc5c([H])c([H])c(F)c([H])c5F)c([H])c4[H])c(C(=O)N([H])[H])c3N([H])[H])C2([H])[H])c1[H])=C([H])C([H])([H])Oc1c([H])c([H])c2c(c1[H])C([H])([H])N(C(=O)C([H])(N([H])C(=O)C([H])(N([H])C([H])([H])[H])C([H])([H])[H])C(C([H])([H])[H])(C([H])([H])[H])C([H])([H])[H])C([H])(C(=O)N([H])C1([H])c3c([H])c([H])c([H])c([H])c3C([H])([H])C([H])([H])C1([H])[H])C2([H])[H]

>  <smiles>  (64) 
[H]C(C(=O)N([H])C([H])([H])c1c([H])c([H])c([H])c(N([H])C(=O)N2C([H])([H])C([H])([H])C([H])([H])C([H])(n3nc(-c4c([H])c([H])c(Oc5c([H])c([H])c(F)c([H])c5F)c([H])c4[H])c(C(=O)N([H])[H])c3N([H])[H])C2([H])[H])c1[H])=C([H])C([H])([H])Oc1c([H])c([H])c2c(c1[H])C([H])([H])N(C(=O)C([H])(N([H])C(=O)C([H])(N([H])C([H])([H])[H])C([H])([H])[H])C(C([H])([H])[H])(C([H])([H])[H])C([H])([H])[H])C([H])(C(=O)N([H])C1([H])c3c([H])c([H])c([H])c([H])c3C([H])([H])C([H])([H])C1([H])[H])C2([H])[H]

$$$$
64:0:0
     RDKit          3D

 95103  0  0  1  0  0  0  0  0999 V2000
  -30.0230  -21.6190   19.8100 C   0  0  0  0  0  0  0  0  0  0  0  0
  -29.3000  -24.1030   19.9620 C   0  0  0  0  0  0  0  0  0  0  0  0
  -29.2250  -22.6490   20.2820 N   0  0  0  0  0  0  0  0  0  0  0  0
  -31.0200  -21.9250   18.9730 N   0  0  0  0  0  4  0  0  0  0  0  0
  -30.1710  -24.5360   19.1940 O   0  0  0  0  0  0  0  0  0  0  0  0
  -28.5370  -22.3130   20.9370 H   0  0  0  0  0  0  0  0  0  0  0  0
  -31.5830  -21.2020   18.5550 H   0  0  0  0  0  0  0  0  0  0  0  0
  -31.1520  -22.8940   18.7050 H   0  0  0  0  0  0  0  0  0  0  0  0
  -31.0790  -19.3570   20.3690 C   0  0  0  0  0  3  0  0  0  0  0  0
  -31.0800  -17.9370   20.5380 C   0  0  0  0  0  3  0  0  0  0  0  0
  -28.6980  -17.9430   20.2720 C   0  0  0  0  0  3  0  0  0  0  0  0
  -29.8970  -20.1230   20.1200 C   0  0  0  0  0  0  0  0  0  0  0  0
  -28.6880  -19.3630   20.0690 C   0  0  0  0  0  0  0  0  0  0  0  0
  -29.8810  -17.1820   20.4880 C   0  0  0  0  0  0  0  0  0  0  0  0
  -27.3530  -20.0240   19.7550 C   0  0  0  0  0  1  0  0  0  0  0  0
  -30.6010  -14.6780   20.3760 C   0  0  0  0  0  0  0  0  0  0  0  0
  -30.4110  -12.4370   19.3110 C   0  0  0  0  0  2  0  0  0  0  0  0
  -29.4740  -12.5590   18.0880 C   0  0  0  0  0  2  0  0  0  0  0  0
  -28.0000  -12.3920   18.5050 C   0  0  0  0  0  2  0  0  0  0  0  0
  -27.6260  -13.2570   19.7380 C   0  0  0  0  0  3  0  0  0  0  0  0
  -28.6760  -13.1030   20.8640 C   0  0  0  0  0  2  0  0  0  0  0  0
  -29.9900  -13.4510   20.2990 N   0  0  0  0  0  0  0  0  0  0  0  0
  -31.7730  -14.8330   20.0190 O   0  0  0  0  0  0  0  0  0  0  0  0
  -29.7760  -15.7300   20.6850 N   0  0  0  0  0  0  0  0  0  0  0  0
  -28.8530  -15.4160   20.9390 H   0  0  0  0  0  0  0  0  0  0  0  0
  -25.2210  -13.8540   20.4180 C   0  0  0  0  0  0  0  0  0  0  0  0
  -24.1530  -13.0810   20.7870 C   0  0  0  0  0  0  0  0  0  0  0  0
  -24.6220  -11.7320   20.7780 C   0  0  0  0  0  0  0  0  0  0  0  0
  -26.2720  -12.9760   20.2090 N   0  0  0  0  0  0  0  0  0  0  0  0
  -25.9160  -11.6960   20.4870 N   0  0  0  0  0  0  0  0  0  0  0  0
  -23.8990  -10.4690   20.9740 C   0  0  0  0  0  0  0  0  0  0  0  0
  -24.3140   -9.5210   21.9340 C   0  0  0  0  0  3  0  0  0  0  0  0
  -23.5910   -8.3230   22.1160 C   0  0  0  0  0  3  0  0  0  0  0  0
  -22.4400   -8.0620   21.3350 C   0  0  0  0  0  0  0  0  0  0  0  0
  -22.0460   -8.9990   20.3620 C   0  0  0  0  0  3  0  0  0  0  0  0
  -22.7690  -10.1880   20.1790 C   0  0  0  0  0  3  0  0  0  0  0  0
  -21.6920   -6.9140   21.4240 O   0  0  0  0  0  0  0  0  0  0  0  0
  -21.6050   -6.1990   22.5920 C   0  0  0  0  0  0  0  0  0  0  0  0
  -21.1110   -6.7750   23.7820 C   0  0  0  0  0  3  0  0  0  0  0  0
  -20.9730   -5.9860   24.9420 C   0  0  0  0  0  3  0  0  0  0  0  0
  -21.3190   -4.6230   24.9120 C   0  0  0  0  0  0  0  0  0  0  0  0
  -21.8070   -4.0470   23.7260 C   0  0  0  0  0  3  0  0  0  0  0  0
  -21.9470   -4.8320   22.5690 C   0  0  0  0  0  0  0  0  0  0  0  0
  -22.3970   -4.2680   21.4220 F   0  0  0  0  0  0  0  0  0  0  0  0
  -21.1810   -3.8630   26.0230 F   0  0  0  0  0  0  0  0  0  0  0  0
  -22.7490  -13.5550   21.0320 C   0  0  0  0  0  0  0  0  0  0  0  0
  -22.0120  -12.8650   21.8950 N   0  0  0  0  0  0  0  0  0  0  0  0
  -22.3140  -14.5730   20.4940 O   0  0  0  0  0  0  0  0  0  0  0  0
  -22.3760  -12.0420   22.3520 H   0  0  0  0  0  0  0  0  0  0  0  0
  -21.0690  -13.1640   22.1000 H   0  0  0  0  0  0  0  0  0  0  0  0
  -25.3770  -15.2230   20.2160 N   0  0  0  0  0  0  0  0  0  0  0  0
  -24.5850  -15.8550   20.2660 H   0  0  0  0  0  0  0  0  0  0  0  0
  -26.1810  -15.6330   19.7620 H   0  0  0  0  0  0  0  0  0  0  0  0
  -28.2520  -25.0980   20.5990 C   0  0  0  0  0  2  0  0  0  0  0  0
  -28.4080  -26.5220   20.2020 O   0  0  0  0  0  0  0  0  0  0  0  0
  -24.6450  -31.8800   23.2540 C   0  0  0  0  0  0  0  0  0  0  0  0
  -27.2710  -27.3410   20.1950 C   0  0  0  0  0  0  0  0  0  0  0  0
  -23.4400  -30.4780   21.6160 C   0  0  0  0  0  3  0  0  0  0  0  0
  -24.8920  -28.9300   20.1910 C   0  0  0  0  0  0  0  0  0  0  0  0
  -25.9740  -30.8090   21.4220 C   0  0  0  0  0  2  0  0  0  0  0  0
  -26.0590  -29.4300   20.7820 C   0  0  0  0  0  0  0  0  0  0  0  0
  -27.2510  -28.6480   20.7720 C   0  0  0  0  0  3  0  0  0  0  0  0
  -26.0830  -26.8920   19.5770 C   0  0  0  0  0  3  0  0  0  0  0  0
  -24.9050  -27.6650   19.5800 C   0  0  0  0  0  3  0  0  0  0  0  0
  -23.6530  -29.7990   20.2370 C   0  0  0  0  0  2  0  0  0  0  0  0
  -24.7050  -31.0730   22.1550 N   0  0  0  0  0  0  0  0  0  0  0  0
  -23.5630  -32.1540   23.7920 O   0  0  0  0  0  0  0  0  0  0  0  0
  -22.7830  -29.4600   22.5790 C   0  0  0  0  0  0  0  0  0  0  0  0
  -21.4590  -29.2740   22.4490 N   0  0  0  0  0  0  0  0  0  0  0  0
  -23.4650  -28.8400   23.4000 O   0  0  0  0  0  0  0  0  0  0  0  0
  -20.9680  -29.8250   21.7590 H   0  0  0  0  0  0  0  0  0  0  0  0
  -18.0850  -28.0700   22.9510 C   0  0  0  0  0  0  0  0  0  0  0  0
  -20.6440  -28.3350   23.2220 C   0  0  0  0  0  3  0  0  0  0  0  0
  -20.7490  -26.9030   22.6470 C   0  0  0  0  0  2  0  0  0  0  0  0
  -19.6480  -26.5780   21.6330 C   0  0  0  0  0  2  0  0  0  0  0  0
  -18.2650  -26.7200   22.2770 C   0  0  0  0  0  2  0  0  0  0  0  0
  -19.2020  -28.8340   23.3810 C   0  0  0  0  0  0  0  0  0  0  0  0
  -18.9790  -30.0980   23.9710 C   0  0  0  0  0  3  0  0  0  0  0  0
  -17.6730  -30.5940   24.1370 C   0  0  0  0  0  3  0  0  0  0  0  0
  -16.5710  -29.8260   23.7230 C   0  0  0  0  0  3  0  0  0  0  0  0
  -16.7780  -28.5660   23.1350 C   0  0  0  0  0  3  0  0  0  0  0  0
  -25.9290  -32.5140   23.8720 C   0  0  0  0  0  3  0  0  0  0  0  0
  -25.6210  -33.9140   24.1970 N   0  0  0  0  0  0  0  0  0  0  0  0
  -25.9510  -34.9630   23.4330 C   0  0  0  0  0  0  0  0  0  0  0  0
  -26.6180  -34.8540   22.4000 O   0  0  0  0  0  0  0  0  0  0  0  0
  -25.0300  -34.0720   25.0010 H   0  0  0  0  0  0  0  0  0  0  0  0
  -24.2270  -36.7580   23.0740 C   0  0  0  0  0  1  0  0  0  0  0  0
  -25.4670  -36.3540   23.8870 C   0  0  0  0  0  3  0  0  0  0  0  0
  -27.5990  -37.2410   24.7230 C   0  0  0  0  0  1  0  0  0  0  0  0
  -26.5030  -37.4040   23.7690 N   0  0  0  0  0  0  0  0  0  0  0  0
  -26.0990  -38.3260   23.9030 H   0  0  0  0  0  0  0  0  0  0  0  0
  -26.4470  -31.7480   25.1510 C   0  0  1  0  0  0  0  0  0  0  0  0
  -25.3530  -31.5170   26.2210 C   0  0  0  0  0  1  0  0  0  0  0  0
  -27.0280  -30.3680   24.7650 C   0  0  0  0  0  1  0  0  0  0  0  0
  -27.5990  -32.5430   25.8090 C   0  0  0  0  0  1  0  0  0  0  0  0
  1 12  1  0
  1  3  1  0
  2  3  1  0
  2 54  1  0
  3  6  1  0
  4  1  2  0
  5  2  2  0
  7  4  1  0
  8  4  1  0
  9 10  1  0
 11 14  1  0
 12  9  2  0
 13 12  1  0
 13 11  2  0
 14 10  2  0
 14 24  1  0
 15 13  1  0
 16 24  1  0
 17 22  1  0
 18 19  1  0
 18 17  1  0
 20 19  1  0
 20 29  1  0
 20 21  1  0
 22 16  1  0
 22 21  1  0
 23 16  2  0
 24 25  1  0
 26 27  2  0
 27 46  1  0
 28 27  1  0
 28 31  1  0
 29 26  1  0
 29 30  1  0
 30 28  2  0
 31 32  1  0
 32 33  2  0
 34 37  1  0
 34 33  1  0
 35 34  2  0
 36 35  1  0
 36 31  2  0
 37 38  1  0
 38 39  1  0
 39 40  2  0
 41 40  1  0
 41 45  1  0
 42 41  2  0
 43 38  2  0
 43 42  1  0
 44 43  1  0
 46 47  1  0
 47 50  1  0
 47 49  1  0
 48 46  2  0
 51 52  1  0
 51 26  1  0
 53 51  1  0
 55 54  1  0
 56 67  2  0
 57 55  1  0
 57 62  1  0
 58 66  1  0
 58 68  1  0
 59 65  1  0
 59 61  1  0
 60 66  1  0
 61 60  1  0
 62 61  2  0
 63 64  1  0
 63 57  2  0
 64 59  2  0
 65 58  1  0
 66 56  1  0
 68 70  2  0
 69 68  1  0
 71 69  1  0
 72 81  2  0
 72 77  1  0
 73 69  1  0
 73 77  1  0
 74 73  1  0
 75 76  1  0
 75 74  1  0
 76 72  1  0
 77 78  2  0
 78 79  1  0
 80 79  2  0
 81 80  1  0
 82 56  1  0
 82 83  1  0
 82 92  1  0
 83 86  1  0
 84 88  1  0
 84 83  1  0
 85 84  2  0
 88 87  1  0
 90 88  1  0
 90 91  1  0
 90 89  1  0
 92 95  1  1
 92 93  1  0
 94 92  1  0
M  ISO  4  16 100  24 100  54 101  55 101
M  END
>  <TORSDO>  (65) 
F 18

>  <SCORE>  (65) 
-14.490

>  <name>  (65) 
64

>  <ligand_id>  (65) 
64

>  <original_smiles>  (65) 
[H]c1c([H])c([H])c2c(c1[H])C([H])([H])C([H])([H])C([H])([H])C2([H])N([H])C(=O)C1([H])N(C(=O)C([H])(N([H])C(=O)C([H])(N([H])C([H])([H])[H])C([H])([H])[H])C(C([H])([H])[H])(C([H])([H])[H])C([H])([H])[H])C([H])([H])c2c([H])c(OC([H])([H])C(=O)N([H])C(c3c([H])c([H])c(N([H])C(=O)N4C([H])([H])C([H])([H])C([H])([H])C([H])(n5nc(-c6c([H])c([H])c(Oc7c([H])c([H])c(F)c([H])c7F)c([H])c6[H])c(C(=O)N([H])[H])c5N([H])[H])C4([H])[H])c([H])c3C([H])([H])[H])=[N+]([H])[H])c([H])c([H])c2C1([H])[H]

>  <smiles>  (65) 
[H]c1c([H])c([H])c2c(c1[H])C([H])([H])C([H])([H])C([H])([H])C2([H])N([H])C(=O)C1([H])N(C(=O)C([H])(N([H])C(=O)C([H])(N([H])C([H])([H])[H])C([H])([H])[H])C(C([H])([H])[H])(C([H])([H])[H])C([H])([H])[H])C([H])([H])c2c([H])c(OC([H])([H])C(=O)N([H])C(c3c([H])c([H])c(N([H])C(=O)N4C([H])([H])C([H])([H])C([H])([H])C([H])(n5nc(-c6c([H])c([H])c(Oc7c([H])c([H])c(F)c([H])c7F)c([H])c6[H])c(C(=O)N([H])[H])c5N([H])[H])C4([H])[H])c([H])c3C([H])([H])[H])=[N+]([H])[H])c([H])c([H])c2C1([H])[H]

$$$$
65:0:0
     RDKit          3D

 92100  0  0  1  0  0  0  0  0999 V2000
  -29.8780  -21.9600   20.5100 C   0  0  0  0  0  0  0  0  0  0  0  0
  -29.4510  -20.6840   20.7210 N   0  0  0  0  0  0  0  0  0  0  0  0
  -31.0440  -22.2310   20.2080 O   0  0  0  0  0  0  0  0  0  0  0  0
  -28.4490  -20.5700   20.7900 H   0  0  0  0  0  0  0  0  0  0  0  0
  -32.3080  -18.4170   21.7080 C   0  0  0  0  0  3  0  0  0  0  0  0
  -31.5530  -19.5750   21.4530 C   0  0  0  0  0  3  0  0  0  0  0  0
  -31.7720  -17.1450   21.4500 C   0  0  0  0  0  3  0  0  0  0  0  0
  -29.6980  -18.1850   20.6940 C   0  0  0  0  0  3  0  0  0  0  0  0
  -30.2400  -19.4890   20.9310 C   0  0  0  0  0  0  0  0  0  0  0  0
  -30.4660  -17.0000   20.9250 C   0  0  0  0  0  0  0  0  0  0  0  0
  -30.5820  -14.6240   20.1220 C   0  0  0  0  0  0  0  0  0  0  0  0
  -30.2000  -12.4990   18.9190 C   0  0  0  0  0  2  0  0  0  0  0  0
  -29.1890  -12.7280   17.7780 C   0  0  0  0  0  2  0  0  0  0  0  0
  -27.7480  -12.5550   18.2930 C   0  0  0  0  0  2  0  0  0  0  0  0
  -27.4790  -13.3480   19.6000 C   0  0  0  0  0  3  0  0  0  0  0  0
  -28.6040  -13.1280   20.6370 C   0  0  0  0  0  2  0  0  0  0  0  0
  -29.8820  -13.4610   19.9900 N   0  0  0  0  0  0  0  0  0  0  0  0
  -31.6930  -14.7690   19.6060 O   0  0  0  0  0  0  0  0  0  0  0  0
  -29.9310  -15.6790   20.6800 N   0  0  0  0  0  0  0  0  0  0  0  0
  -28.9570  -15.5300   20.8990 H   0  0  0  0  0  0  0  0  0  0  0  0
  -25.1200  -13.8970   20.4630 C   0  0  0  0  0  0  0  0  0  0  0  0
  -24.0860  -13.1000   20.8720 C   0  0  0  0  0  0  0  0  0  0  0  0
  -24.5630  -11.7560   20.7830 C   0  0  0  0  0  0  0  0  0  0  0  0
  -26.1620  -13.0380   20.1510 N   0  0  0  0  0  0  0  0  0  0  0  0
  -25.8350  -11.7440   20.4020 N   0  0  0  0  0  0  0  0  0  0  0  0
  -23.8670  -10.4790   20.9800 C   0  0  0  0  0  0  0  0  0  0  0  0
  -24.3370   -9.5140   21.8980 C   0  0  0  0  0  3  0  0  0  0  0  0
  -23.6380   -8.3020   22.0840 C   0  0  0  0  0  3  0  0  0  0  0  0
  -22.4540   -8.0450   21.3530 C   0  0  0  0  0  0  0  0  0  0  0  0
  -22.0030   -8.9990   20.4230 C   0  0  0  0  0  3  0  0  0  0  0  0
  -22.7030  -10.2020   20.2350 C   0  0  0  0  0  3  0  0  0  0  0  0
  -21.7250   -6.8850   21.4500 O   0  0  0  0  0  0  0  0  0  0  0  0
  -21.6980   -6.1460   22.6050 C   0  0  0  0  0  0  0  0  0  0  0  0
  -21.2490   -6.6900   23.8280 C   0  0  0  0  0  3  0  0  0  0  0  0
  -21.1730   -5.8750   24.9760 C   0  0  0  0  0  3  0  0  0  0  0  0
  -21.5340   -4.5170   24.9010 C   0  0  0  0  0  0  0  0  0  0  0  0
  -21.9760   -3.9720   23.6820 C   0  0  0  0  0  3  0  0  0  0  0  0
  -22.0540   -4.7830   22.5370 C   0  0  0  0  0  0  0  0  0  0  0  0
  -22.4600   -4.2480   21.3600 F   0  0  0  0  0  0  0  0  0  0  0  0
  -21.4540   -3.7310   26.0000 F   0  0  0  0  0  0  0  0  0  0  0  0
  -22.7000  -13.5490   21.2340 C   0  0  0  0  0  0  0  0  0  0  0  0
  -22.0270  -12.8140   22.1130 N   0  0  0  0  0  0  0  0  0  0  0  0
  -22.2230  -14.5860   20.7730 O   0  0  0  0  0  0  0  0  0  0  0  0
  -22.4250  -11.9750   22.5070 H   0  0  0  0  0  0  0  0  0  0  0  0
  -21.0980  -13.0970   22.3960 H   0  0  0  0  0  0  0  0  0  0  0  0
  -25.2550  -15.2730   20.3080 N   0  0  0  0  0  0  0  0  0  0  0  0
  -24.4830  -15.9120   20.4670 H   0  0  0  0  0  0  0  0  0  0  0  0
  -26.0700  -15.7300   19.9200 H   0  0  0  0  0  0  0  0  0  0  0  0
  -28.8260  -22.9730   20.6490 C   0  0  0  0  0  3  0  0  0  0  0  0
  -29.0950  -24.3090   20.6450 C   0  0  0  0  0  3  0  0  0  0  0  0
  -28.0500  -25.4100   20.8770 C   0  0  0  0  0  2  0  0  0  0  0  0
  -28.2940  -26.6810   20.2160 O   0  0  0  0  0  0  0  0  0  0  0  0
  -24.5420  -31.9730   23.2390 C   0  0  0  0  0  0  0  0  0  0  0  0
  -27.1710  -27.4910   20.1730 C   0  0  0  0  0  0  0  0  0  0  0  0
  -23.3330  -30.5600   21.6110 C   0  0  0  0  0  3  0  0  0  0  0  0
  -24.7850  -29.0240   20.1780 C   0  0  0  0  0  0  0  0  0  0  0  0
  -25.8600  -30.9180   21.4020 C   0  0  0  0  0  2  0  0  0  0  0  0
  -25.9480  -29.5430   20.7610 C   0  0  0  0  0  0  0  0  0  0  0  0
  -27.1480  -28.7860   20.7530 C   0  0  0  0  0  3  0  0  0  0  0  0
  -25.9940  -27.0090   19.5600 C   0  0  0  0  0  3  0  0  0  0  0  0
  -24.8050  -27.7590   19.5700 C   0  0  0  0  0  3  0  0  0  0  0  0
  -23.5380  -29.8810   20.2310 C   0  0  0  0  0  2  0  0  0  0  0  0
  -24.5970  -31.1650   22.1410 N   0  0  0  0  0  0  0  0  0  0  0  0
  -23.4620  -32.2440   23.7830 O   0  0  0  0  0  0  0  0  0  0  0  0
  -22.6880  -29.5400   22.5780 C   0  0  0  0  0  0  0  0  0  0  0  0
  -21.3640  -29.3540   22.4600 N   0  0  0  0  0  0  0  0  0  0  0  0
  -23.3780  -28.9190   23.3910 O   0  0  0  0  0  0  0  0  0  0  0  0
  -20.8680  -29.9080   21.7740 H   0  0  0  0  0  0  0  0  0  0  0  0
  -17.9940  -28.1520   22.9810 C   0  0  0  0  0  0  0  0  0  0  0  0
  -20.5530  -28.4170   23.2370 C   0  0  0  0  0  3  0  0  0  0  0  0
  -20.6560  -26.9840   22.6660 C   0  0  0  0  0  2  0  0  0  0  0  0
  -19.5490  -26.6550   21.6590 C   0  0  0  0  0  2  0  0  0  0  0  0
  -18.1700  -26.8000   22.3110 C   0  0  0  0  0  2  0  0  0  0  0  0
  -19.1130  -28.9180   23.4030 C   0  0  0  0  0  0  0  0  0  0  0  0
  -18.8950  -30.1840   23.9890 C   0  0  0  0  0  3  0  0  0  0  0  0
  -17.5910  -30.6830   24.1600 C   0  0  0  0  0  3  0  0  0  0  0  0
  -16.4860  -29.9140   23.7570 C   0  0  0  0  0  3  0  0  0  0  0  0
  -16.6880  -28.6500   23.1730 C   0  0  0  0  0  3  0  0  0  0  0  0
  -25.8280  -32.6110   23.8490 C   0  0  0  0  0  3  0  0  0  0  0  0
  -26.3550  -31.8480   25.1260 C   0  0  1  0  0  0  0  0  0  0  0  0
  -25.2680  -31.6060   26.1980 C   0  0  0  0  0  1  0  0  0  0  0  0
  -26.9470  -30.4740   24.7340 C   0  0  0  0  0  1  0  0  0  0  0  0
  -27.5020  -32.6540   25.7800 C   0  0  0  0  0  1  0  0  0  0  0  0
  -25.5170  -34.0100   24.1720 N   0  0  0  0  0  0  0  0  0  0  0  0
  -25.8550  -35.0600   23.4100 C   0  0  0  0  0  0  0  0  0  0  0  0
  -26.5340  -34.9530   22.3850 O   0  0  0  0  0  0  0  0  0  0  0  0
  -24.9160  -34.1680   24.9680 H   0  0  0  0  0  0  0  0  0  0  0  0
  -24.1410  -36.8580   23.0220 C   0  0  0  0  0  1  0  0  0  0  0  0
  -25.3640  -36.4490   23.8580 C   0  0  0  0  0  3  0  0  0  0  0  0
  -27.4840  -37.3260   24.7330 C   0  0  0  0  0  1  0  0  0  0  0  0
  -26.4020  -37.4980   23.7670 N   0  0  0  0  0  0  0  0  0  0  0  0
  -25.9980  -38.4200   23.9060 H   0  0  0  0  0  0  0  0  0  0  0  0
  1 49  1  0
  1  2  1  0
  2  4  1  0
  2  9  1  0
  3  1  2  0
  6  5  1  0
  7  5  2  0
  8 10  2  0
  8  9  1  0
  9  6  2  0
 10  7  1  0
 11 19  1  0
 12 17  1  0
 13 14  1  0
 13 12  1  0
 15 14  1  0
 15 24  1  0
 15 16  1  0
 17 11  1  0
 17 16  1  0
 18 11  2  0
 19 20  1  0
 19 10  1  0
 21 22  2  0
 22 41  1  0
 23 22  1  0
 23 26  1  0
 24 25  1  0
 24 21  1  0
 25 23  2  0
 26 27  1  0
 27 28  2  0
 29 32  1  0
 29 28  1  0
 30 29  2  0
 31 30  1  0
 31 26  2  0
 32 33  1  0
 33 34  1  0
 34 35  2  0
 36 35  1  0
 36 40  1  0
 37 36  2  0
 38 33  2  0
 38 37  1  0
 39 38  1  0
 41 42  1  0
 42 45  1  0
 42 44  1  0
 43 41  2  0
 46 21  1  0
 46 47  1  0
 48 46  1  0
 50 49  2  0
 50 51  1  0
 52 51  1  0
 53 64  2  0
 54 52  1  0
 54 59  1  0
 55 63  1  0
 55 65  1  0
 56 62  1  0
 56 58  1  0
 57 63  1  0
 58 57  1  0
 59 58  2  0
 60 61  1  0
 60 54  2  0
 61 56  2  0
 62 55  1  0
 63 53  1  0
 65 67  2  0
 66 65  1  0
 68 66  1  0
 69 78  2  0
 69 74  1  0
 70 66  1  0
 70 74  1  0
 71 70  1  0
 72 73  1  0
 72 71  1  0
 73 69  1  0
 74 75  2  0
 75 76  1  0
 77 76  2  0
 78 77  1  0
 79 53  1  0
 79 84  1  0
 79 80  1  0
 80 83  1  1
 80 81  1  0
 82 80  1  0
 84 87  1  0
 85 89  1  0
 85 84  1  0
 86 85  2  0
 89 88  1  0
 91 89  1  0
 91 92  1  0
 91 90  1  0
M  ISO  4  11 100  19 100  51 101  52 101
M  END
>  <TORSDO>  (66) 
F 19

>  <SCORE>  (66) 
-13.779

>  <name>  (66) 
65

>  <ligand_id>  (66) 
65

>  <original_smiles>  (66) 
[H]C(C(=O)N([H])c1c([H])c([H])c([H])c(N([H])C(=O)N2C([H])([H])C([H])([H])C([H])([H])C([H])(n3nc(-c4c([H])c([H])c(Oc5c([H])c([H])c(F)c([H])c5F)c([H])c4[H])c(C(=O)N([H])[H])c3N([H])[H])C2([H])[H])c1[H])=C([H])C([H])([H])Oc1c([H])c([H])c2c(c1[H])C([H])([H])N(C(=O)C([H])(N([H])C(=O)C([H])(N([H])C([H])([H])[H])C([H])([H])[H])C(C([H])([H])[H])(C([H])([H])[H])C([H])([H])[H])C([H])(C(=O)N([H])C1([H])c3c([H])c([H])c([H])c([H])c3C([H])([H])C([H])([H])C1([H])[H])C2([H])[H]

>  <smiles>  (66) 
[H]C(C(=O)N([H])c1c([H])c([H])c([H])c(N([H])C(=O)N2C([H])([H])C([H])([H])C([H])([H])C([H])(n3nc(-c4c([H])c([H])c(Oc5c([H])c([H])c(F)c([H])c5F)c([H])c4[H])c(C(=O)N([H])[H])c3N([H])[H])C2([H])[H])c1[H])=C([H])C([H])([H])Oc1c([H])c([H])c2c(c1[H])C([H])([H])N(C(=O)C([H])(N([H])C(=O)C([H])(N([H])C([H])([H])[H])C([H])([H])[H])C(C([H])([H])[H])(C([H])([H])[H])C([H])([H])[H])C([H])(C(=O)N([H])C1([H])c3c([H])c([H])c([H])c([H])c3C([H])([H])C([H])([H])C1([H])[H])C2([H])[H]

$$$$
66:0:0
     RDKit          3D

 93101  0  0  1  0  0  0  0  0999 V2000
  -30.1920  -22.1930   20.6800 C   0  0  0  0  0  0  0  0  0  0  0  0
  -29.9490  -20.8940   20.3740 N   0  0  0  0  0  0  0  0  0  0  0  0
  -31.1830  -22.5880   21.3000 O   0  0  0  0  0  0  0  0  0  0  0  0
  -29.0870  -20.7530   19.8700 H   0  0  0  0  0  0  0  0  0  0  0  0
  -32.6050  -18.5000   21.6200 C   0  0  0  0  0  3  0  0  0  0  0  0
  -31.9410  -17.2700   21.5040 C   0  0  0  0  0  3  0  0  0  0  0  0
  -31.9650  -19.6920   21.2440 C   0  0  0  0  0  3  0  0  0  0  0  0
  -30.6390  -17.1870   20.9620 C   0  0  0  0  0  0  0  0  0  0  0  0
  -30.0160  -18.4060   20.5090 C   0  0  0  0  0  0  0  0  0  0  0  0
  -30.6550  -19.6750   20.7070 C   0  0  0  0  0  0  0  0  0  0  0  0
  -28.6560  -18.3730   19.8150 C   0  0  0  0  0  1  0  0  0  0  0  0
  -29.9420  -15.7910   21.0280 C   0  0  0  0  0  3  0  0  0  0  0  0
  -28.6230  -15.8900   20.8600 F   0  0  0  0  0  0  0  0  0  0  0  0
  -30.5340  -14.6410   20.1380 C   0  0  0  0  0  0  0  0  0  0  0  0
  -30.2130  -12.4850   18.9390 C   0  0  0  0  0  2  0  0  0  0  0  0
  -29.1950  -12.6710   17.7950 C   0  0  0  0  0  2  0  0  0  0  0  0
  -27.7490  -12.5030   18.3060 C   0  0  0  0  0  2  0  0  0  0  0  0
  -27.4760  -13.3170   19.5980 C   0  0  0  0  0  3  0  0  0  0  0  0
  -28.6010  -13.0830   20.6360 C   0  0  0  0  0  2  0  0  0  0  0  0
  -29.8790  -13.4460   20.0040 N   0  0  0  0  0  0  0  0  0  0  0  0
  -31.5920  -14.8470   19.5330 O   0  0  0  0  0  0  0  0  0  0  0  0
  -25.1200  -13.8970   20.4600 C   0  0  0  0  0  0  0  0  0  0  0  0
  -24.0760  -13.1100   20.8660 C   0  0  0  0  0  0  0  0  0  0  0  0
  -24.5400  -11.7610   20.7750 C   0  0  0  0  0  0  0  0  0  0  0  0
  -26.1530  -13.0260   20.1490 N   0  0  0  0  0  0  0  0  0  0  0  0
  -25.8100  -11.7360   20.3940 N   0  0  0  0  0  0  0  0  0  0  0  0
  -23.8310  -10.4910   20.9760 C   0  0  0  0  0  0  0  0  0  0  0  0
  -24.2920   -9.5250   21.8970 C   0  0  0  0  0  3  0  0  0  0  0  0
  -23.5840   -8.3190   22.0830 C   0  0  0  0  0  3  0  0  0  0  0  0
  -22.3990   -8.0710   21.3500 C   0  0  0  0  0  0  0  0  0  0  0  0
  -21.9570   -9.0250   20.4170 C   0  0  0  0  0  3  0  0  0  0  0  0
  -22.6670  -10.2230   20.2280 C   0  0  0  0  0  3  0  0  0  0  0  0
  -21.6590   -6.9170   21.4480 O   0  0  0  0  0  0  0  0  0  0  0  0
  -21.6120   -6.1890   22.6100 C   0  0  0  0  0  0  0  0  0  0  0  0
  -21.1540   -6.7490   23.8230 C   0  0  0  0  0  3  0  0  0  0  0  0
  -21.0560   -5.9470   24.9750 C   0  0  0  0  0  3  0  0  0  0  0  0
  -21.4050   -4.5850   24.9180 C   0  0  0  0  0  0  0  0  0  0  0  0
  -21.8550   -4.0230   23.7100 C   0  0  0  0  0  3  0  0  0  0  0  0
  -21.9560   -4.8240   22.5590 C   0  0  0  0  0  0  0  0  0  0  0  0
  -22.3710   -4.2730   21.3930 F   0  0  0  0  0  0  0  0  0  0  0  0
  -21.3030   -3.8110   26.0230 F   0  0  0  0  0  0  0  0  0  0  0  0
  -22.6940  -13.5720   21.2330 C   0  0  0  0  0  0  0  0  0  0  0  0
  -22.0200  -12.8460   22.1180 N   0  0  0  0  0  0  0  0  0  0  0  0
  -22.2230  -14.6120   20.7720 O   0  0  0  0  0  0  0  0  0  0  0  0
  -22.4130  -12.0020   22.5100 H   0  0  0  0  0  0  0  0  0  0  0  0
  -21.0970  -13.1370   22.4070 H   0  0  0  0  0  0  0  0  0  0  0  0
  -25.2730  -15.2720   20.3130 N   0  0  0  0  0  0  0  0  0  0  0  0
  -24.5320  -15.9310   20.5250 H   0  0  0  0  0  0  0  0  0  0  0  0
  -26.1500  -15.7180   20.0750 H   0  0  0  0  0  0  0  0  0  0  0  0
  -29.1360  -23.0850   20.1960 C   0  0  0  0  0  3  0  0  0  0  0  0
  -29.2260  -24.4400   20.2600 C   0  0  0  0  0  3  0  0  0  0  0  0
  -28.1190  -25.3790   19.7750 C   0  0  0  0  0  2  0  0  0  0  0  0
  -28.2210  -26.7510   20.2280 O   0  0  0  0  0  0  0  0  0  0  0  0
  -24.5120  -32.0300   23.3050 C   0  0  0  0  0  0  0  0  0  0  0  0
  -27.0670  -27.5310   20.1900 C   0  0  0  0  0  0  0  0  0  0  0  0
  -23.2720  -30.6420   21.6780 C   0  0  0  0  0  3  0  0  0  0  0  0
  -24.6920  -29.0960   20.2280 C   0  0  0  0  0  0  0  0  0  0  0  0
  -25.8050  -30.9630   21.4550 C   0  0  0  0  0  2  0  0  0  0  0  0
  -25.8660  -29.5920   20.8080 C   0  0  0  0  0  0  0  0  0  0  0  0
  -27.0540  -28.8180   20.7870 C   0  0  0  0  0  3  0  0  0  0  0  0
  -25.8720  -27.0730   19.5810 C   0  0  0  0  0  3  0  0  0  0  0  0
  -24.6930  -27.8360   19.6100 C   0  0  0  0  0  3  0  0  0  0  0  0
  -23.4600  -29.9680   20.2930 C   0  0  0  0  0  2  0  0  0  0  0  0
  -24.5480  -31.2280   22.2030 N   0  0  0  0  0  0  0  0  0  0  0  0
  -23.4400  -32.3130   23.8590 O   0  0  0  0  0  0  0  0  0  0  0  0
  -22.6250  -29.6240   22.6450 C   0  0  0  0  0  0  0  0  0  0  0  0
  -21.3040  -29.4180   22.5050 N   0  0  0  0  0  0  0  0  0  0  0  0
  -23.3070  -29.0240   23.4800 O   0  0  0  0  0  0  0  0  0  0  0  0
  -20.8160  -29.9570   21.8050 H   0  0  0  0  0  0  0  0  0  0  0  0
  -17.9490  -28.1480   22.9560 C   0  0  0  0  0  0  0  0  0  0  0  0
  -20.4930  -28.4810   23.2830 C   0  0  0  0  0  3  0  0  0  0  0  0
  -20.6460  -27.0370   22.7520 C   0  0  0  0  0  2  0  0  0  0  0  0
  -19.5800  -26.6590   21.7190 C   0  0  0  0  0  2  0  0  0  0  0  0
  -18.1780  -26.7860   22.3230 C   0  0  0  0  0  2  0  0  0  0  0  0
  -19.0370  -28.9510   23.3930 C   0  0  0  0  0  0  0  0  0  0  0  0
  -18.7700  -30.2250   23.9400 C   0  0  0  0  0  3  0  0  0  0  0  0
  -17.4490  -30.6970   24.0570 C   0  0  0  0  0  3  0  0  0  0  0  0
  -16.3760  -29.8930   23.6380 C   0  0  0  0  0  3  0  0  0  0  0  0
  -16.6270  -28.6200   23.0940 C   0  0  0  0  0  3  0  0  0  0  0  0
  -25.8110  -32.6500   23.9070 C   0  0  0  0  0  3  0  0  0  0  0  0
  -26.3190  -31.8970   25.1980 C   0  0  1  0  0  0  0  0  0  0  0  0
  -25.2250  -31.6970   26.2720 C   0  0  0  0  0  1  0  0  0  0  0  0
  -26.8830  -30.5050   24.8300 C   0  0  0  0  0  1  0  0  0  0  0  0
  -27.4820  -32.6890   25.8400 C   0  0  0  0  0  1  0  0  0  0  0  0
  -25.5350  -34.0600   24.2040 N   0  0  0  0  0  0  0  0  0  0  0  0
  -25.8630  -35.0840   23.4020 C   0  0  0  0  0  0  0  0  0  0  0  0
  -26.5020  -34.9380   22.3560 O   0  0  0  0  0  0  0  0  0  0  0  0
  -24.9730  -34.2500   25.0210 H   0  0  0  0  0  0  0  0  0  0  0  0
  -24.1380  -36.8760   23.0510 C   0  0  0  0  0  1  0  0  0  0  0  0
  -25.4070  -36.4910   23.8290 C   0  0  0  0  0  3  0  0  0  0  0  0
  -27.5780  -37.3840   24.5450 C   0  0  0  0  0  1  0  0  0  0  0  0
  -26.4430  -37.5290   23.6380 N   0  0  0  0  0  0  0  0  0  0  0  0
  -26.0500  -38.4590   23.7660 H   0  0  0  0  0  0  0  0  0  0  0  0
  1  3  2  0
  2  1  1  0
  2 10  1  0
  4  2  1  0
  6  5  1  0
  7  5  2  0
  8 12  1  0
  8  6  2  0
  9 10  2  0
  9  8  1  0
 10  7  1  0
 11  9  1  0
 12 13  1  0
 14 12  1  0
 15 20  1  0
 16 17  1  0
 16 15  1  0
 18 17  1  0
 18 25  1  0
 18 19  1  0
 20 14  1  0
 20 19  1  0
 21 14  2  0
 22 23  2  0
 23 42  1  0
 24 23  1  0
 24 27  1  0
 25 26  1  0
 25 22  1  0
 26 24  2  0
 27 28  1  0
 28 29  2  0
 30 33  1  0
 30 29  1  0
 31 30  2  0
 32 31  1  0
 32 27  2  0
 33 34  1  0
 34 35  1  0
 35 36  2  0
 37 36  1  0
 37 41  1  0
 38 37  2  0
 39 34  2  0
 39 38  1  0
 40 39  1  0
 42 43  1  0
 43 46  1  0
 43 45  1  0
 44 42  2  0
 47 22  1  0
 47 48  1  0
 49 47  1  0
 50 51  2  0
 50  1  1  0
 52 53  1  0
 52 51  1  0
 54 65  2  0
 55 53  1  0
 55 60  1  0
 56 64  1  0
 56 66  1  0
 57 63  1  0
 57 59  1  0
 58 64  1  0
 59 58  1  0
 60 59  2  0
 61 62  1  0
 61 55  2  0
 62 57  2  0
 63 56  1  0
 64 54  1  0
 66 68  2  0
 67 66  1  0
 69 67  1  0
 70 79  2  0
 70 75  1  0
 71 67  1  0
 71 75  1  0
 72 71  1  0
 73 74  1  0
 73 72  1  0
 74 70  1  0
 75 76  2  0
 76 77  1  0
 78 77  2  0
 79 78  1  0
 80 54  1  0
 80 85  1  0
 80 81  1  0
 81 84  1  1
 81 82  1  0
 83 81  1  0
 85 88  1  0
 86 90  1  0
 86 85  1  0
 87 86  2  0
 90 89  1  0
 92 93  1  0
 92 90  1  0
 92 91  1  0
M  ISO  4  12 100  14 100  52 101  53 101
M  END
>  <TORSDO>  (67) 
F 20

>  <SCORE>  (67) 
-13.355

>  <name>  (67) 
66

>  <ligand_id>  (67) 
66

>  <original_smiles>  (67) 
[H]C(C(=O)N([H])c1c([H])c([H])c([H])c(C([H])(F)C(=O)N2C([H])([H])C([H])([H])C([H])([H])C([H])(n3nc(-c4c([H])c([H])c(Oc5c([H])c([H])c(F)c([H])c5F)c([H])c4[H])c(C(=O)N([H])[H])c3N([H])[H])C2([H])[H])c1C([H])([H])[H])=C([H])C([H])([H])Oc1c([H])c([H])c2c(c1[H])C([H])([H])N(C(=O)C([H])(N([H])C(=O)C([H])(N([H])C([H])([H])[H])C([H])([H])[H])C(C([H])([H])[H])(C([H])([H])[H])C([H])([H])[H])C([H])(C(=O)N([H])C1([H])c3c([H])c([H])c([H])c([H])c3C([H])([H])C([H])([H])C1([H])[H])C2([H])[H]

>  <smiles>  (67) 
[H]C(C(=O)N([H])c1c([H])c([H])c([H])c(C([H])(F)C(=O)N2C([H])([H])C([H])([H])C([H])([H])C([H])(n3nc(-c4c([H])c([H])c(Oc5c([H])c([H])c(F)c([H])c5F)c([H])c4[H])c(C(=O)N([H])[H])c3N([H])[H])C2([H])[H])c1C([H])([H])[H])=C([H])C([H])([H])Oc1c([H])c([H])c2c(c1[H])C([H])([H])N(C(=O)C([H])(N([H])C(=O)C([H])(N([H])C([H])([H])[H])C([H])([H])[H])C(C([H])([H])[H])(C([H])([H])[H])C([H])([H])[H])C([H])(C(=O)N([H])C1([H])c3c([H])c([H])c([H])c([H])c3C([H])([H])C([H])([H])C1([H])[H])C2([H])[H]

$$$$
67:0:0
     RDKit          3D

100109  0  0  1  0  0  0  0  0999 V2000
  -28.1930  -23.3040   21.1360 C   0  0  0  0  0  3  0  0  0  0  0  0
  -28.3350  -23.7880   19.7950 C   0  0  0  0  0  0  0  0  0  0  0  0
  -28.6410  -21.9980   21.2240 C   0  0  0  0  0  0  0  0  0  0  0  0
  -28.8600  -22.6530   19.1460 C   0  0  0  0  0  0  0  0  0  0  0  0
  -29.1120  -21.5310   20.0010 N   0  0  0  0  0  0  0  0  0  0  0  0
  -31.6270  -18.0110   19.3340 C   0  0  0  0  0  3  0  0  0  0  0  0
  -29.4560  -18.8800   19.9600 C   0  0  0  0  0  3  0  0  0  0  0  0
  -32.0980  -19.3270   19.1480 C   0  0  0  0  0  0  0  0  0  0  0  0
  -31.2560  -20.4480   19.3800 C   0  0  0  0  0  0  0  0  0  0  0  0
  -29.8930  -20.2710   19.7610 C   0  0  0  0  0  0  0  0  0  0  0  0
  -30.3110  -17.7030   19.7490 C   0  0  0  0  0  0  0  0  0  0  0  0
  -31.8470  -21.8570   19.2490 C   0  0  0  0  0  1  0  0  0  0  0  0
  -30.7030  -15.0750   19.9430 C   0  0  0  0  0  0  0  0  0  0  0  0
  -30.5980  -12.6390   19.3500 C   0  0  0  0  0  2  0  0  0  0  0  0
  -29.6730  -12.4180   18.1340 C   0  0  0  0  0  2  0  0  0  0  0  0
  -28.2190  -12.2270   18.6000 C   0  0  0  0  0  2  0  0  0  0  0  0
  -27.7780  -13.3010   19.6300 C   0  0  0  0  0  3  0  0  0  0  0  0
  -28.8310  -13.5170   20.7400 C   0  0  0  0  0  2  0  0  0  0  0  0
  -30.1040  -13.8360   20.0800 N   0  0  0  0  0  0  0  0  0  0  0  0
  -31.8890  -15.0970   19.6060 O   0  0  0  0  0  0  0  0  0  0  0  0
  -29.9360  -16.2520   19.9630 N   0  0  0  0  0  0  0  0  0  0  0  0
  -28.9540  -16.0860   20.1320 H   0  0  0  0  0  0  0  0  0  0  0  0
  -25.4420  -13.9080   20.4920 C   0  0  0  0  0  0  0  0  0  0  0  0
  -24.3750  -13.1440   20.8770 C   0  0  0  0  0  0  0  0  0  0  0  0
  -24.8050  -11.7840   20.7740 C   0  0  0  0  0  0  0  0  0  0  0  0
  -26.4530  -13.0180   20.1740 N   0  0  0  0  0  0  0  0  0  0  0  0
  -26.0800  -11.7320   20.4080 N   0  0  0  0  0  0  0  0  0  0  0  0
  -24.0560  -10.5320   20.9460 C   0  0  0  0  0  0  0  0  0  0  0  0
  -24.4540   -9.5540   21.8840 C   0  0  0  0  0  3  0  0  0  0  0  0
  -23.7050   -8.3690   22.0440 C   0  0  0  0  0  3  0  0  0  0  0  0
  -22.5430   -8.1520   21.2660 C   0  0  0  0  0  0  0  0  0  0  0  0
  -22.1630   -9.1180   20.3180 C   0  0  0  0  0  3  0  0  0  0  0  0
  -22.9130  -10.2950   20.1550 C   0  0  0  0  0  3  0  0  0  0  0  0
  -21.7680   -7.0190   21.3350 O   0  0  0  0  0  0  0  0  0  0  0  0
  -21.6050   -6.3300   22.5110 C   0  0  0  0  0  0  0  0  0  0  0  0
  -21.0640   -6.9400   23.6630 C   0  0  0  0  0  3  0  0  0  0  0  0
  -20.8490   -6.1780   24.8280 C   0  0  0  0  0  3  0  0  0  0  0  0
  -21.1640   -4.8050   24.8410 C   0  0  0  0  0  0  0  0  0  0  0  0
  -21.6970   -4.1940   23.6910 C   0  0  0  0  0  3  0  0  0  0  0  0
  -21.9130   -4.9550   22.5290 C   0  0  0  0  0  0  0  0  0  0  0  0
  -22.4070   -4.3560   21.4180 F   0  0  0  0  0  0  0  0  0  0  0  0
  -20.9500   -4.0700   25.9570 F   0  0  0  0  0  0  0  0  0  0  0  0
  -23.0030  -13.6410   21.2260 C   0  0  0  0  0  0  0  0  0  0  0  0
  -22.3020  -12.9360   22.1080 N   0  0  0  0  0  0  0  0  0  0  0  0
  -22.5620  -14.6880   20.7530 O   0  0  0  0  0  0  0  0  0  0  0  0
  -22.6710  -12.0890   22.5110 H   0  0  0  0  0  0  0  0  0  0  0  0
  -21.3820  -13.2510   22.3850 H   0  0  0  0  0  0  0  0  0  0  0  0
  -25.6300  -15.2810   20.3590 N   0  0  0  0  0  0  0  0  0  0  0  0
  -24.8840  -15.9470   20.5280 H   0  0  0  0  0  0  0  0  0  0  0  0
  -26.4690  -15.7130   19.9930 H   0  0  0  0  0  0  0  0  0  0  0  0
  -33.8120  -19.7030   17.4350 C   0  0  0  0  0  2  0  0  0  0  0  0
  -33.5050  -19.4940   18.7250 C   0  0  0  0  0  0  0  0  0  0  0  0
  -35.3610  -18.1490   19.8590 C   0  0  0  0  0  1  0  0  0  0  0  0
  -34.5790  -19.4690   19.8020 C   0  0  0  0  0  2  0  0  0  0  0  0
  -28.7030  -21.2000   22.3280 O   0  0  0  0  0  0  0  0  0  0  0  0
  -28.2850  -21.6630   23.0490 H   0  0  0  0  0  0  0  0  0  0  0  0
  -29.1710  -22.5310   17.8240 O   0  0  0  0  0  0  0  0  0  0  0  0
  -29.0240  -23.3720   17.4030 H   0  0  0  0  0  0  0  0  0  0  0  0
  -27.8860  -25.2110   19.1760 C   0  0  0  0  0  2  0  0  0  0  0  0
  -27.9000  -26.5330   19.9130 O   0  0  0  0  0  0  0  0  0  0  0  0
  -24.5730  -32.0340   23.3090 C   0  0  0  0  0  0  0  0  0  0  0  0
  -26.8240  -27.4640   19.9160 C   0  0  0  0  0  0  0  0  0  0  0  0
  -23.2300  -30.7450   21.6900 C   0  0  0  0  0  3  0  0  0  0  0  0
  -24.5360  -29.2120   20.1100 C   0  0  0  0  0  0  0  0  0  0  0  0
  -25.7690  -30.9710   21.3690 C   0  0  0  0  0  2  0  0  0  0  0  0
  -25.7590  -29.6160   20.6580 C   0  0  0  0  0  0  0  0  0  0  0  0
  -26.9000  -28.7540   20.5520 C   0  0  0  0  0  3  0  0  0  0  0  0
  -25.5670  -27.1320   19.3560 C   0  0  0  0  0  3  0  0  0  0  0  0
  -24.4470  -27.9790   19.4500 C   0  0  0  0  0  3  0  0  0  0  0  0
  -23.3410  -30.1310   20.2700 C   0  0  0  0  0  2  0  0  0  0  0  0
  -24.5470  -31.2680   22.1770 N   0  0  0  0  0  0  0  0  0  0  0  0
  -23.5330  -32.3180   23.9200 O   0  0  0  0  0  0  0  0  0  0  0  0
  -22.5900  -29.7090   22.6480 C   0  0  0  0  0  0  0  0  0  0  0  0
  -21.2790  -29.4610   22.4920 N   0  0  0  0  0  0  0  0  0  0  0  0
  -23.2770  -29.1290   23.4920 O   0  0  0  0  0  0  0  0  0  0  0  0
  -20.7790  -29.9850   21.7870 H   0  0  0  0  0  0  0  0  0  0  0  0
  -17.9960  -27.9660   22.8060 C   0  0  0  0  0  0  0  0  0  0  0  0
  -20.4870  -28.4930   23.2560 C   0  0  0  0  0  3  0  0  0  0  0  0
  -20.7710  -27.0460   22.7890 C   0  0  0  0  0  2  0  0  0  0  0  0
  -19.7940  -26.5580   21.7140 C   0  0  0  0  0  2  0  0  0  0  0  0
  -18.3550  -26.6040   22.2350 C   0  0  0  0  0  2  0  0  0  0  0  0
  -18.9980  -28.8590   23.2700 C   0  0  0  0  0  0  0  0  0  0  0  0
  -18.6110  -30.1260   23.7590 C   0  0  0  0  0  3  0  0  0  0  0  0
  -17.2550  -30.5040   23.7890 C   0  0  0  0  0  3  0  0  0  0  0  0
  -16.2670  -29.6110   23.3410 C   0  0  0  0  0  3  0  0  0  0  0  0
  -16.6380  -28.3440   22.8560 C   0  0  0  0  0  3  0  0  0  0  0  0
  -25.9090  -32.6030   23.8750 C   0  0  0  0  0  3  0  0  0  0  0  0
  -25.6730  -34.0060   24.2480 N   0  0  0  0  0  0  0  0  0  0  0  0
  -25.9770  -35.0600   23.4810 C   0  0  0  0  0  0  0  0  0  0  0  0
  -26.5530  -34.9550   22.3940 O   0  0  0  0  0  0  0  0  0  0  0  0
  -25.1580  -34.1680   25.1020 H   0  0  0  0  0  0  0  0  0  0  0  0
  -24.2680  -36.9010   23.3260 C   0  0  0  0  0  1  0  0  0  0  0  0
  -25.5770  -36.4560   23.9980 C   0  0  0  0  0  3  0  0  0  0  0  0
  -27.8060  -37.2840   24.6110 C   0  0  0  0  0  1  0  0  0  0  0  0
  -26.6180  -37.4850   23.7860 N   0  0  0  0  0  0  0  0  0  0  0  0
  -26.2530  -38.4130   23.9800 H   0  0  0  0  0  0  0  0  0  0  0  0
  -26.4600  -31.7860   25.1080 C   0  0  1  0  0  0  0  0  0  0  0  0
  -25.4040  -31.5340   26.2080 C   0  0  0  0  0  1  0  0  0  0  0  0
  -27.0090  -30.4140   24.6560 C   0  0  0  0  0  1  0  0  0  0  0  0
  -27.6470  -32.5440   25.7490 C   0  0  0  0  0  1  0  0  0  0  0  0
  1  3  2  0
  2  1  1  0
  3 55  1  0
  4  2  2  0
  4  5  1  0
  5  3  1  0
  6 11  1  0
  8  6  2  0
  8  9  1  0
  9 10  2  0
 10  7  1  0
 10  5  1  0
 11  7  2  0
 11 21  1  0
 12  9  1  0
 13 21  1  0
 13 19  1  0
 14 19  1  0
 15 16  1  0
 15 14  1  0
 17 16  1  0
 17 26  1  0
 17 18  1  0
 19 18  1  0
 20 13  2  0
 21 22  1  0
 23 24  2  0
 24 43  1  0
 25 24  1  0
 25 28  1  0
 26 27  1  0
 26 23  1  0
 27 25  2  0
 28 29  1  0
 29 30  2  0
 31 34  1  0
 31 30  1  0
 32 31  2  0
 33 32  1  0
 33 28  2  0
 34 35  1  0
 35 40  2  0
 35 36  1  0
 36 37  2  0
 37 38  1  0
 38 42  1  0
 39 38  2  0
 40 39  1  0
 41 40  1  0
 43 44  1  0
 44 47  1  0
 44 46  1  0
 45 43  2  0
 48 23  1  0
 48 49  1  0
 50 48  1  0
 51 52  2  0
 52  8  1  0
 52 54  1  0
 54 53  1  0
 55 56  1  0
 57  4  1  0
 58 57  1  0
 59  2  1  0
 59 60  1  0
 60 62  1  0
 61 72  2  0
 62 67  1  0
 63 71  1  0
 63 73  1  0
 64 70  1  0
 64 66  1  0
 65 71  1  0
 66 65  1  0
 67 66  2  0
 68 69  1  0
 68 62  2  0
 69 64  2  0
 70 63  1  0
 71 61  1  0
 73 75  2  0
 74 73  1  0
 76 74  1  0
 77 86  2  0
 77 82  1  0
 78 74  1  0
 78 82  1  0
 79 78  1  0
 80 81  1  0
 80 79  1  0
 81 77  1  0
 82 83  2  0
 83 84  1  0
 85 84  2  0
 86 85  1  0
 87 61  1  0
 87 88  1  0
 87 97  1  0
 88 91  1  0
 89 93  1  0
 89 88  1  0
 90 89  2  0
 93 92  1  0
 95 96  1  0
 95 93  1  0
 95 94  1  0
 97100  1  1
 97 98  1  0
 99 97  1  0
M  ISO  4  13 100  21 100  59 101  60 101
M  END
>  <TORSDO>  (68) 
F 22

>  <SCORE>  (68) 
-13.210

>  <name>  (68) 
67

>  <ligand_id>  (68) 
67

>  <original_smiles>  (68) 
[H]Oc1c([H])c(C([H])([H])Oc2c([H])c([H])c3c(c2[H])C([H])([H])N(C(=O)C([H])(N([H])C(=O)C([H])(N([H])C([H])([H])[H])C([H])([H])[H])C(C([H])([H])[H])(C([H])([H])[H])C([H])([H])[H])C([H])(C(=O)N([H])C2([H])c4c([H])c([H])c([H])c([H])c4C([H])([H])C([H])([H])C2([H])[H])C3([H])[H])c(O[H])n1-c1c([H])c(N([H])C(=O)N2C([H])([H])C([H])([H])C([H])([H])C([H])(n3nc(-c4c([H])c([H])c(Oc5c([H])c([H])c(F)c([H])c5F)c([H])c4[H])c(C(=O)N([H])[H])c3N([H])[H])C2([H])[H])c([H])c(C(=C([H])[H])C([H])([H])C([H])([H])[H])c1C([H])([H])[H]

>  <smiles>  (68) 
[H]Oc1c([H])c(C([H])([H])Oc2c([H])c([H])c3c(c2[H])C([H])([H])N(C(=O)C([H])(N([H])C(=O)C([H])(N([H])C([H])([H])[H])C([H])([H])[H])C(C([H])([H])[H])(C([H])([H])[H])C([H])([H])[H])C([H])(C(=O)N([H])C2([H])c4c([H])c([H])c([H])c([H])c4C([H])([H])C([H])([H])C2([H])[H])C3([H])[H])c(O[H])n1-c1c([H])c(N([H])C(=O)N2C([H])([H])C([H])([H])C([H])([H])C([H])(n3nc(-c4c([H])c([H])c(Oc5c([H])c([H])c(F)c([H])c5F)c([H])c4[H])c(C(=O)N([H])[H])c3N([H])[H])C2([H])[H])c([H])c(C(=C([H])[H])C([H])([H])C([H])([H])[H])c1C([H])([H])[H]

$$$$
68:0:0
     RDKit          3D

 94103  0  0  1  0  0  0  0  0999 V2000
  -28.7410  -22.2810   19.0730 C   0  0  0  0  0  3  0  0  0  0  0  0
  -29.2340  -22.8690   20.1670 C   0  0  0  0  0  0  0  0  0  0  0  0
  -29.1700  -20.8920   19.0310 C   0  0  0  0  0  0  0  0  0  0  0  0
  -29.9830  -21.8470   20.9880 C   0  0  0  0  0  2  0  0  0  0  0  0
  -29.9280  -20.6460   20.1310 N   0  0  0  0  0  0  0  0  0  0  0  0
  -28.9290  -20.0840   18.1290 O   0  0  0  0  0  0  0  0  0  0  0  0
  -32.8070  -18.2870   20.8320 C   0  0  0  0  0  3  0  0  0  0  0  0
  -32.1480  -17.0520   20.9030 C   0  0  0  0  0  3  0  0  0  0  0  0
  -30.0310  -18.1570   20.4460 C   0  0  0  0  0  3  0  0  0  0  0  0
  -32.1010  -19.4690   20.5360 C   0  0  0  0  0  0  0  0  0  0  0  0
  -30.6820  -19.4330   20.3830 C   0  0  0  0  0  0  0  0  0  0  0  0
  -30.7600  -16.9460   20.6540 C   0  0  0  0  0  0  0  0  0  0  0  0
  -32.9390  -20.7230   20.3330 C   0  0  0  0  0  1  0  0  0  0  0  0
  -30.6730  -14.5390   20.0270 C   0  0  0  0  0  0  0  0  0  0  0  0
  -30.2150  -12.3850   18.9210 C   0  0  0  0  0  2  0  0  0  0  0  0
  -29.2030  -12.5810   17.7760 C   0  0  0  0  0  2  0  0  0  0  0  0
  -27.7690  -12.4320   18.3110 C   0  0  0  0  0  2  0  0  0  0  0  0
  -27.5130  -13.2910   19.5780 C   0  0  0  0  0  3  0  0  0  0  0  0
  -28.6430  -13.1270   20.6220 C   0  0  0  0  0  2  0  0  0  0  0  0
  -29.9240  -13.4000   19.9540 N   0  0  0  0  0  0  0  0  0  0  0  0
  -31.7570  -14.6210   19.4490 O   0  0  0  0  0  0  0  0  0  0  0  0
  -30.1340  -15.6410   20.6130 N   0  0  0  0  0  0  0  0  0  0  0  0
  -29.1840  -15.5600   20.9410 H   0  0  0  0  0  0  0  0  0  0  0  0
  -25.1740  -13.8880   20.4690 C   0  0  0  0  0  0  0  0  0  0  0  0
  -24.1260  -13.1080   20.8850 C   0  0  0  0  0  0  0  0  0  0  0  0
  -24.5770  -11.7580   20.7860 C   0  0  0  0  0  0  0  0  0  0  0  0
  -26.1940  -13.0080   20.1450 N   0  0  0  0  0  0  0  0  0  0  0  0
  -25.8440  -11.7200   20.3950 N   0  0  0  0  0  0  0  0  0  0  0  0
  -23.8570  -10.4920   20.9840 C   0  0  0  0  0  0  0  0  0  0  0  0
  -24.3060   -9.5200   21.9040 C   0  0  0  0  0  3  0  0  0  0  0  0
  -23.5850   -8.3210   22.0900 C   0  0  0  0  0  3  0  0  0  0  0  0
  -22.3970   -8.0860   21.3550 C   0  0  0  0  0  0  0  0  0  0  0  0
  -21.9690   -9.0460   20.4210 C   0  0  0  0  0  3  0  0  0  0  0  0
  -22.6920  -10.2360   20.2330 C   0  0  0  0  0  3  0  0  0  0  0  0
  -21.6450   -6.9400   21.4530 O   0  0  0  0  0  0  0  0  0  0  0  0
  -21.5930   -6.2080   22.6120 C   0  0  0  0  0  0  0  0  0  0  0  0
  -21.1270   -6.7630   23.8240 C   0  0  0  0  0  3  0  0  0  0  0  0
  -21.0270   -5.9560   24.9750 C   0  0  0  0  0  3  0  0  0  0  0  0
  -21.3830   -4.5950   24.9150 C   0  0  0  0  0  0  0  0  0  0  0  0
  -21.8440   -4.0410   23.7090 C   0  0  0  0  0  3  0  0  0  0  0  0
  -21.9470   -4.8450   22.5590 C   0  0  0  0  0  0  0  0  0  0  0  0
  -22.3700   -4.2990   21.3930 F   0  0  0  0  0  0  0  0  0  0  0  0
  -21.2810   -3.8170   26.0190 F   0  0  0  0  0  0  0  0  0  0  0  0
  -22.7530  -13.5860   21.2610 C   0  0  0  0  0  0  0  0  0  0  0  0
  -22.0730  -12.8630   22.1440 N   0  0  0  0  0  0  0  0  0  0  0  0
  -22.2940  -14.6320   20.8070 O   0  0  0  0  0  0  0  0  0  0  0  0
  -22.4550  -12.0130   22.5290 H   0  0  0  0  0  0  0  0  0  0  0  0
  -21.1550  -13.1630   22.4380 H   0  0  0  0  0  0  0  0  0  0  0  0
  -25.3440  -15.2600   20.3180 N   0  0  0  0  0  0  0  0  0  0  0  0
  -24.6060  -15.9320   20.4970 H   0  0  0  0  0  0  0  0  0  0  0  0
  -26.1830  -15.6880   19.9480 H   0  0  0  0  0  0  0  0  0  0  0  0
  -29.2050  -24.3560   20.5720 C   0  0  0  0  0  2  0  0  0  0  0  0
  -28.1480  -25.2590   19.8820 C   0  0  0  0  0  2  0  0  0  0  0  0
  -28.2370  -26.6540   20.2770 O   0  0  0  0  0  0  0  0  0  0  0  0
  -24.4970  -31.9380   23.3220 C   0  0  0  0  0  0  0  0  0  0  0  0
  -27.0840  -27.4290   20.2300 C   0  0  0  0  0  0  0  0  0  0  0  0
  -23.2790  -30.5450   21.6820 C   0  0  0  0  0  3  0  0  0  0  0  0
  -24.7180  -29.0030   20.2420 C   0  0  0  0  0  0  0  0  0  0  0  0
  -25.8140  -30.8640   21.4960 C   0  0  0  0  0  2  0  0  0  0  0  0
  -25.8830  -29.4960   20.8420 C   0  0  0  0  0  0  0  0  0  0  0  0
  -27.0670  -28.7130   20.8380 C   0  0  0  0  0  3  0  0  0  0  0  0
  -25.9000  -26.9780   19.6010 C   0  0  0  0  0  3  0  0  0  0  0  0
  -24.7240  -27.7470   19.6150 C   0  0  0  0  0  3  0  0  0  0  0  0
  -23.4860  -29.8750   20.2980 C   0  0  0  0  0  2  0  0  0  0  0  0
  -24.5480  -31.1330   22.2230 N   0  0  0  0  0  0  0  0  0  0  0  0
  -23.4190  -32.2230   23.8610 O   0  0  0  0  0  0  0  0  0  0  0  0
  -22.6200  -29.5280   22.6410 C   0  0  0  0  0  0  0  0  0  0  0  0
  -21.2980  -29.3350   22.4950 N   0  0  0  0  0  0  0  0  0  0  0  0
  -23.2940  -28.9180   23.4760 O   0  0  0  0  0  0  0  0  0  0  0  0
  -20.8200  -29.8780   21.7930 H   0  0  0  0  0  0  0  0  0  0  0  0
  -17.9280  -28.1120   22.9530 C   0  0  0  0  0  0  0  0  0  0  0  0
  -20.4770  -28.3990   23.2630 C   0  0  0  0  0  3  0  0  0  0  0  0
  -20.6050  -26.9610   22.7110 C   0  0  0  0  0  2  0  0  0  0  0  0
  -19.5240  -26.6130   21.6820 C   0  0  0  0  0  2  0  0  0  0  0  0
  -18.1290  -26.7540   22.3000 C   0  0  0  0  0  2  0  0  0  0  0  0
  -19.0310  -28.8910   23.3900 C   0  0  0  0  0  0  0  0  0  0  0  0
  -18.7950  -30.1600   23.9610 C   0  0  0  0  0  3  0  0  0  0  0  0
  -17.4840  -30.6520   24.1000 C   0  0  0  0  0  3  0  0  0  0  0  0
  -16.3930  -29.8710   23.6800 C   0  0  0  0  0  3  0  0  0  0  0  0
  -16.6150  -28.6040   23.1100 C   0  0  0  0  0  3  0  0  0  0  0  0
  -25.7890  -32.5610   23.9360 C   0  0  0  0  0  3  0  0  0  0  0  0
  -26.2940  -31.8020   25.2260 C   0  0  1  0  0  0  0  0  0  0  0  0
  -25.1930  -31.5860   26.2910 C   0  0  0  0  0  1  0  0  0  0  0  0
  -26.8750  -30.4160   24.8570 C   0  0  0  0  0  1  0  0  0  0  0  0
  -27.4450  -32.6000   25.8880 C   0  0  0  0  0  1  0  0  0  0  0  0
  -25.4990  -33.9680   24.2400 N   0  0  0  0  0  0  0  0  0  0  0  0
  -25.8200  -35.0000   23.4470 C   0  0  0  0  0  0  0  0  0  0  0  0
  -26.4640  -34.8690   22.4040 O   0  0  0  0  0  0  0  0  0  0  0  0
  -24.9270  -34.1400   25.0540 H   0  0  0  0  0  0  0  0  0  0  0  0
  -24.0830  -36.7850   23.1170 C   0  0  0  0  0  1  0  0  0  0  0  0
  -25.3560  -36.4030   23.8840 C   0  0  0  0  0  3  0  0  0  0  0  0
  -27.5200  -37.3090   24.6100 C   0  0  0  0  0  1  0  0  0  0  0  0
  -26.3860  -37.4460   23.6980 N   0  0  0  0  0  0  0  0  0  0  0  0
  -25.9880  -38.3700   23.8350 H   0  0  0  0  0  0  0  0  0  0  0  0
  1  2  2  0
  2 52  1  0
  2  4  1  0
  3  1  1  0
  3  5  1  0
  5 11  1  0
  5  4  1  0
  6  3  2  0
  7  8  1  0
  9 12  1  0
 10  7  2  0
 11  9  2  0
 11 10  1  0
 12  8  2  0
 13 10  1  0
 14 22  1  0
 15 20  1  0
 16 17  1  0
 16 15  1  0
 18 17  1  0
 18 27  1  0
 18 19  1  0
 20 14  1  0
 20 19  1  0
 21 14  2  0
 22 12  1  0
 22 23  1  0
 24 25  2  0
 25 44  1  0
 26 25  1  0
 26 29  1  0
 27 28  1  0
 27 24  1  0
 28 26  2  0
 29 30  1  0
 30 31  2  0
 32 35  1  0
 32 31  1  0
 33 32  2  0
 34 33  1  0
 34 29  2  0
 35 36  1  0
 36 37  1  0
 37 38  2  0
 39 38  1  0
 39 43  1  0
 40 39  2  0
 41 36  2  0
 41 40  1  0
 42 41  1  0
 44 45  1  0
 45 48  1  0
 45 47  1  0
 46 44  2  0
 49 24  1  0
 49 50  1  0
 51 49  1  0
 53 54  1  0
 53 52  1  0
 55 66  2  0
 56 54  1  0
 56 61  1  0
 57 65  1  0
 57 67  1  0
 58 64  1  0
 58 60  1  0
 59 65  1  0
 60 59  1  0
 61 60  2  0
 62 63  1  0
 62 56  2  0
 63 58  2  0
 64 57  1  0
 65 55  1  0
 67 69  2  0
 68 67  1  0
 70 68  1  0
 71 80  2  0
 71 76  1  0
 72 68  1  0
 72 76  1  0
 73 72  1  0
 74 75  1  0
 74 73  1  0
 75 71  1  0
 76 77  2  0
 77 78  1  0
 79 78  2  0
 80 79  1  0
 81 55  1  0
 81 86  1  0
 81 82  1  0
 82 85  1  1
 82 83  1  0
 84 82  1  0
 86 89  1  0
 87 91  1  0
 87 86  1  0
 88 87  2  0
 91 90  1  0
 93 94  1  0
 93 91  1  0
 93 92  1  0
M  ISO  4  14 100  22 100  53 101  54 101
M  END
>  <TORSDO>  (69) 
F 19

>  <SCORE>  (69) 
-14.063

>  <name>  (69) 
68

>  <ligand_id>  (69) 
68

>  <original_smiles>  (69) 
[H]C1=C(C([H])([H])C([H])([H])Oc2c([H])c([H])c3c(c2[H])C([H])([H])N(C(=O)C([H])(N([H])C(=O)C([H])(N([H])C([H])([H])[H])C([H])([H])[H])C(C([H])([H])[H])(C([H])([H])[H])C([H])([H])[H])C([H])(C(=O)N([H])C2([H])c4c([H])c([H])c([H])c([H])c4C([H])([H])C([H])([H])C2([H])[H])C3([H])[H])C([H])([H])N(c2c([H])c(N([H])C(=O)N3C([H])([H])C([H])([H])C([H])([H])C([H])(n4nc(-c5c([H])c([H])c(Oc6c([H])c([H])c(F)c([H])c6F)c([H])c5[H])c(C(=O)N([H])[H])c4N([H])[H])C3([H])[H])c([H])c([H])c2C([H])([H])[H])C1=O

>  <smiles>  (69) 
[H]C1=C(C([H])([H])C([H])([H])Oc2c([H])c([H])c3c(c2[H])C([H])([H])N(C(=O)C([H])(N([H])C(=O)C([H])(N([H])C([H])([H])[H])C([H])([H])[H])C(C([H])([H])[H])(C([H])([H])[H])C([H])([H])[H])C([H])(C(=O)N([H])C2([H])c4c([H])c([H])c([H])c([H])c4C([H])([H])C([H])([H])C2([H])[H])C3([H])[H])C([H])([H])N(c2c([H])c(N([H])C(=O)N3C([H])([H])C([H])([H])C([H])([H])C([H])(n4nc(-c5c([H])c([H])c(Oc6c([H])c([H])c(F)c([H])c6F)c([H])c5[H])c(C(=O)N([H])[H])c4N([H])[H])C3([H])[H])c([H])c([H])c2C([H])([H])[H])C1=O

$$$$
69:0:0
     RDKit          3D

 95103  0  0  1  0  0  0  0  0999 V2000
  -30.4170  -17.6450   21.7070 C   0  0  0  0  0  3  0  0  0  0  0  0
  -29.6230  -18.7220   19.6810 C   0  0  0  0  0  3  0  0  0  0  0  0
  -30.5640  -18.9120   22.3130 C   0  0  0  0  0  0  0  0  0  0  0  0
  -30.2760  -20.1080   21.5930 C   0  0  0  0  0  0  0  0  0  0  0  0
  -29.9630  -17.4930   20.3860 C   0  0  0  0  0  0  0  0  0  0  0  0
  -29.7560  -20.0550   20.2620 C   0  0  0  0  0  0  0  0  0  0  0  0
  -30.5730  -21.4550   22.2540 C   0  0  0  0  0  1  0  0  0  0  0  0
  -30.5690  -14.9890   19.9330 C   0  0  0  0  0  0  0  0  0  0  0  0
  -30.3910  -12.6530   19.0450 C   0  0  0  0  0  2  0  0  0  0  0  0
  -29.3930  -12.6120   17.8670 C   0  0  0  0  0  2  0  0  0  0  0  0
  -27.9490  -12.4340   18.3780 C   0  0  0  0  0  2  0  0  0  0  0  0
  -27.6000  -13.3940   19.5460 C   0  0  0  0  0  3  0  0  0  0  0  0
  -28.7110  -13.4080   20.6170 C   0  0  0  0  0  2  0  0  0  0  0  0
  -29.9640  -13.7550   19.9330 N   0  0  0  0  0  0  0  0  0  0  0  0
  -31.7640  -15.0930   19.6440 O   0  0  0  0  0  0  0  0  0  0  0  0
  -29.7410  -16.1040   19.9200 N   0  0  0  0  0  0  0  0  0  0  0  0
  -28.7750  -15.8750   19.7440 H   0  0  0  0  0  0  0  0  0  0  0  0
  -25.2730  -13.9920   20.4480 C   0  0  0  0  0  0  0  0  0  0  0  0
  -24.2230  -13.2180   20.8650 C   0  0  0  0  0  0  0  0  0  0  0  0
  -24.6700  -11.8650   20.7730 C   0  0  0  0  0  0  0  0  0  0  0  0
  -26.2880  -13.1080   20.1210 N   0  0  0  0  0  0  0  0  0  0  0  0
  -25.9380  -11.8220   20.3810 N   0  0  0  0  0  0  0  0  0  0  0  0
  -23.9440  -10.6050   20.9750 C   0  0  0  0  0  0  0  0  0  0  0  0
  -24.4090   -9.6220   21.8760 C   0  0  0  0  0  3  0  0  0  0  0  0
  -23.6850   -8.4260   22.0690 C   0  0  0  0  0  3  0  0  0  0  0  0
  -22.4790   -8.2050   21.3610 C   0  0  0  0  0  0  0  0  0  0  0  0
  -22.0310   -9.1770   20.4480 C   0  0  0  0  0  3  0  0  0  0  0  0
  -22.7570  -10.3650   20.2540 C   0  0  0  0  0  3  0  0  0  0  0  0
  -21.7200   -7.0640   21.4670 O   0  0  0  0  0  0  0  0  0  0  0  0
  -21.7060   -6.3130   22.6150 C   0  0  0  0  0  0  0  0  0  0  0  0
  -21.2440   -6.8380   23.8420 C   0  0  0  0  0  3  0  0  0  0  0  0
  -21.1800   -6.0100   24.9800 C   0  0  0  0  0  3  0  0  0  0  0  0
  -21.5660   -4.6590   24.8930 C   0  0  0  0  0  0  0  0  0  0  0  0
  -22.0210   -4.1340   23.6710 C   0  0  0  0  0  3  0  0  0  0  0  0
  -22.0870   -4.9590   22.5340 C   0  0  0  0  0  0  0  0  0  0  0  0
  -22.5050   -4.4430   21.3540 F   0  0  0  0  0  0  0  0  0  0  0  0
  -21.4970   -3.8620   25.9850 F   0  0  0  0  0  0  0  0  0  0  0  0
  -22.8500  -13.7010   21.2320 C   0  0  0  0  0  0  0  0  0  0  0  0
  -22.1700  -12.9940   22.1280 N   0  0  0  0  0  0  0  0  0  0  0  0
  -22.3910  -14.7380   20.7580 O   0  0  0  0  0  0  0  0  0  0  0  0
  -22.5550  -12.1540   22.5370 H   0  0  0  0  0  0  0  0  0  0  0  0
  -21.2490  -13.2970   22.4100 H   0  0  0  0  0  0  0  0  0  0  0  0
  -25.4360  -15.3660   20.2950 N   0  0  0  0  0  0  0  0  0  0  0  0
  -24.6850  -16.0210   20.4870 H   0  0  0  0  0  0  0  0  0  0  0  0
  -26.2600  -15.8170   19.9210 H   0  0  0  0  0  0  0  0  0  0  0  0
  -28.6770  -22.3950   19.7570 C   0  0  0  0  0  0  0  0  0  0  0  0
  -29.5370  -21.3290   19.5130 N   0  0  0  0  0  0  0  0  0  0  0  0
  -27.6420  -22.2160   20.4030 O   0  0  0  0  0  0  0  0  0  0  0  0
  -30.2370  -21.5230   18.8100 H   0  0  0  0  0  0  0  0  0  0  0  0
  -28.9720  -23.8840   19.2260 C   0  0  0  0  0  2  0  0  0  0  0  0
  -27.8110  -25.0200   19.2310 C   0  0  0  0  0  2  0  0  0  0  0  0
  -28.0760  -26.5120   19.2010 O   0  0  0  0  0  0  0  0  0  0  0  0
  -24.5180  -31.5860   23.0240 C   0  0  0  0  0  0  0  0  0  0  0  0
  -26.9790  -27.4060   19.3150 C   0  0  0  0  0  0  0  0  0  0  0  0
  -23.2460  -30.3990   21.2770 C   0  0  0  0  0  3  0  0  0  0  0  0
  -24.6310  -29.0470   19.6060 C   0  0  0  0  0  0  0  0  0  0  0  0
  -25.7810  -30.7370   21.0280 C   0  0  0  0  0  2  0  0  0  0  0  0
  -25.8310  -29.4490   20.2060 C   0  0  0  0  0  0  0  0  0  0  0  0
  -27.0080  -28.6440   20.0480 C   0  0  0  0  0  3  0  0  0  0  0  0
  -25.7500  -27.0860   18.6920 C   0  0  0  0  0  3  0  0  0  0  0  0
  -24.5970  -27.8770   18.8390 C   0  0  0  0  0  3  0  0  0  0  0  0
  -23.3990  -29.9070   19.8150 C   0  0  0  0  0  2  0  0  0  0  0  0
  -24.5370  -30.9180   21.8330 N   0  0  0  0  0  0  0  0  0  0  0  0
  -23.4590  -31.7880   23.6350 O   0  0  0  0  0  0  0  0  0  0  0  0
  -22.6230  -29.2660   22.1300 C   0  0  0  0  0  0  0  0  0  0  0  0
  -21.2930  -29.0950   22.0390 N   0  0  0  0  0  0  0  0  0  0  0  0
  -23.3370  -28.5470   22.8360 O   0  0  0  0  0  0  0  0  0  0  0  0
  -20.7740  -29.7290   21.4470 H   0  0  0  0  0  0  0  0  0  0  0  0
  -17.9350  -27.8490   22.5640 C   0  0  0  0  0  0  0  0  0  0  0  0
  -20.5090  -28.0650   22.7220 C   0  0  0  0  0  3  0  0  0  0  0  0
  -20.5640  -26.7220   21.9550 C   0  0  0  0  0  2  0  0  0  0  0  0
  -19.4030  -26.5420   20.9710 C   0  0  0  0  0  2  0  0  0  0  0  0
  -18.0600  -26.6030   21.7050 C   0  0  0  0  0  2  0  0  0  0  0  0
  -19.0840  -28.5440   23.0300 C   0  0  0  0  0  0  0  0  0  0  0  0
  -18.9090  -29.7160   23.7970 C   0  0  0  0  0  3  0  0  0  0  0  0
  -17.6190  -30.1920   24.1010 C   0  0  0  0  0  3  0  0  0  0  0  0
  -16.4870  -29.4910   23.6510 C   0  0  0  0  0  3  0  0  0  0  0  0
  -16.6470  -28.3210   22.8890 C   0  0  0  0  0  3  0  0  0  0  0  0
  -25.8260  -32.1450   23.6650 C   0  0  0  0  0  3  0  0  0  0  0  0
  -26.3550  -31.2630   24.8610 C   0  0  1  0  0  0  0  0  0  0  0  0
  -25.2830  -30.9570   25.9330 C   0  0  0  0  0  1  0  0  0  0  0  0
  -26.9000  -29.9120   24.3440 C   0  0  0  0  0  1  0  0  0  0  0  0
  -27.5370  -31.9790   25.5560 C   0  0  0  0  0  1  0  0  0  0  0  0
  -25.5480  -33.5160   24.1210 N   0  0  0  0  0  0  0  0  0  0  0  0
  -25.8660  -34.6230   23.4380 C   0  0  0  0  0  0  0  0  0  0  0  0
  -26.4930  -34.5970   22.3760 O   0  0  0  0  0  0  0  0  0  0  0  0
  -24.9930  -33.6110   24.9580 H   0  0  0  0  0  0  0  0  0  0  0  0
  -24.1500  -36.4540   23.3070 C   0  0  0  0  0  1  0  0  0  0  0  0
  -25.4200  -35.9750   24.0280 C   0  0  0  0  0  3  0  0  0  0  0  0
  -27.5910  -36.7770   24.8460 C   0  0  0  0  0  1  0  0  0  0  0  0
  -26.4610  -37.0230   23.9540 N   0  0  0  0  0  0  0  0  0  0  0  0
  -26.0720  -37.9340   24.1780 H   0  0  0  0  0  0  0  0  0  0  0  0
  -31.0540  -18.9580   23.7630 C   0  0  0  0  0  3  0  0  0  0  0  0
  -31.1750  -17.7440   24.3030 F   0  0  0  0  0  0  0  0  0  0  0  0
  -30.2210  -19.6650   24.5280 F   0  0  0  0  0  0  0  0  0  0  0  0
  1  3  1  0
  2  6  2  0
  2  5  1  0
  3 93  1  0
  4  7  1  0
  4  3  2  0
  5  1  2  0
  6  4  1  0
  9 14  1  0
 10 11  1  0
 10  9  1  0
 12 11  1  0
 12 21  1  0
 12 13  1  0
 14  8  1  0
 14 13  1  0
 15  8  2  0
 16  8  1  0
 16  5  1  0
 17 16  1  0
 18 19  2  0
 19 38  1  0
 20 19  1  0
 20 23  1  0
 21 22  1  0
 21 18  1  0
 22 20  2  0
 23 24  1  0
 24 25  2  0
 26 29  1  0
 26 25  1  0
 27 26  2  0
 28 27  1  0
 28 23  2  0
 29 30  1  0
 30 31  1  0
 31 32  2  0
 33 32  1  0
 33 37  1  0
 34 33  2  0
 35 30  2  0
 35 34  1  0
 36 35  1  0
 38 39  1  0
 39 42  1  0
 39 41  1  0
 40 38  2  0
 43 18  1  0
 43 44  1  0
 45 43  1  0
 46 48  2  0
 47 46  1  0
 47  6  1  0
 49 47  1  0
 50 51  1  0
 50 46  1  0
 52 51  1  0
 52 54  1  0
 53 64  2  0
 54 59  1  0
 55 63  1  0
 55 65  1  0
 56 62  1  0
 56 58  1  0
 57 63  1  0
 58 57  1  0
 59 58  2  0
 60 61  1  0
 60 54  2  0
 61 56  2  0
 62 55  1  0
 63 53  1  0
 65 67  2  0
 66 65  1  0
 68 66  1  0
 69 78  2  0
 69 74  1  0
 70 66  1  0
 70 74  1  0
 71 70  1  0
 72 73  1  0
 72 71  1  0
 73 69  1  0
 74 75  2  0
 75 76  1  0
 77 76  2  0
 78 77  1  0
 79 53  1  0
 79 84  1  0
 79 80  1  0
 80 83  1  1
 80 81  1  0
 82 80  1  0
 84 87  1  0
 85 89  1  0
 85 84  1  0
 86 85  2  0
 89 88  1  0
 91 89  1  0
 91 92  1  0
 91 90  1  0
 93 94  1  0
 93 95  1  0
M  ISO  4   8 100  16 100  51 101  52 101
M  END
>  <TORSDO>  (70) 
F 20

>  <SCORE>  (70) 
-12.261

>  <name>  (70) 
69

>  <ligand_id>  (70) 
69

>  <original_smiles>  (70) 
[H]c1c([H])c([H])c2c(c1[H])C([H])([H])C([H])([H])C([H])([H])C2([H])N([H])C(=O)C1([H])N(C(=O)C([H])(N([H])C(=O)C([H])(N([H])C([H])([H])[H])C([H])([H])[H])C(C([H])([H])[H])(C([H])([H])[H])C([H])([H])[H])C([H])([H])c2c([H])c(OC([H])([H])C([H])([H])C(=O)N([H])c3c([H])c(N([H])C(=O)N4C([H])([H])C([H])([H])C([H])([H])C([H])(n5nc(-c6c([H])c([H])c(Oc7c([H])c([H])c(F)c([H])c7F)c([H])c6[H])c(C(=O)N([H])[H])c5N([H])[H])C4([H])[H])c([H])c(C([H])(F)F)c3C([H])([H])[H])c([H])c([H])c2C1([H])[H]

>  <smiles>  (70) 
[H]c1c([H])c([H])c2c(c1[H])C([H])([H])C([H])([H])C([H])([H])C2([H])N([H])C(=O)C1([H])N(C(=O)C([H])(N([H])C(=O)C([H])(N([H])C([H])([H])[H])C([H])([H])[H])C(C([H])([H])[H])(C([H])([H])[H])C([H])([H])[H])C([H])([H])c2c([H])c(OC([H])([H])C([H])([H])C(=O)N([H])c3c([H])c(N([H])C(=O)N4C([H])([H])C([H])([H])C([H])([H])C([H])(n5nc(-c6c([H])c([H])c(Oc7c([H])c([H])c(F)c([H])c7F)c([H])c6[H])c(C(=O)N([H])[H])c5N([H])[H])C4([H])[H])c([H])c(C([H])(F)F)c3C([H])([H])[H])c([H])c([H])c2C1([H])[H]

$$$$
70:0:0
     RDKit          3D

 98107  0  0  1  0  0  0  0  0999 V2000
  -30.8510  -20.6970   21.2190 C   0  0  0  0  0  2  0  0  0  0  0  0
  -30.8080  -22.4500   19.4580 C   0  0  0  0  0  0  0  0  0  0  0  0
  -30.1470  -23.6870   18.8170 C   0  0  0  0  0  2  0  0  0  0  0  0
  -29.3970  -24.2650   21.1630 C   0  0  0  0  0  2  0  0  0  0  0  0
  -29.4530  -22.7600   21.5080 C   0  0  0  0  0  2  0  0  0  0  0  0
  -29.1050  -24.4600   19.6680 C   0  0  0  0  0  3  0  0  0  0  0  0
  -30.3690  -21.9840   20.6540 N   0  0  0  0  0  0  0  0  0  0  0  0
  -31.7100  -21.8930   18.8250 O   0  0  0  0  0  0  0  0  0  0  0  0
  -29.0580  -25.9480   19.2200 C   0  0  0  0  0  2  0  0  0  0  0  0
  -28.6490  -26.8590   20.2410 O   0  0  0  0  0  0  0  0  0  0  0  0
  -24.5940  -31.8760   23.1750 C   0  0  0  0  0  0  0  0  0  0  0  0
  -27.4360  -27.5090   20.1620 C   0  0  0  0  0  0  0  0  0  0  0  0
  -23.4640  -30.4400   21.5030 C   0  0  0  0  0  3  0  0  0  0  0  0
  -24.9930  -28.9370   20.1180 C   0  0  0  0  0  0  0  0  0  0  0  0
  -25.9810  -30.8640   21.3700 C   0  0  0  0  0  2  0  0  0  0  0  0
  -26.1160  -29.4940   20.7380 C   0  0  0  0  0  0  0  0  0  0  0  0
  -27.3330  -28.7810   20.7680 C   0  0  0  0  0  3  0  0  0  0  0  0
  -26.2930  -26.9550   19.5440 C   0  0  0  0  0  3  0  0  0  0  0  0
  -25.0740  -27.6640   19.5220 C   0  0  0  0  0  3  0  0  0  0  0  0
  -23.7260  -29.7630   20.1300 C   0  0  0  0  0  2  0  0  0  0  0  0
  -24.6960  -31.0760   22.0750 N   0  0  0  0  0  0  0  0  0  0  0  0
  -23.4940  -32.1200   23.6890 O   0  0  0  0  0  0  0  0  0  0  0  0
  -22.8170  -29.4050   22.4500 C   0  0  0  0  0  0  0  0  0  0  0  0
  -21.4940  -29.2150   22.3150 N   0  0  0  0  0  0  0  0  0  0  0  0
  -23.5010  -28.7740   23.2610 O   0  0  0  0  0  0  0  0  0  0  0  0
  -21.0030  -29.7760   21.6330 H   0  0  0  0  0  0  0  0  0  0  0  0
  -18.1140  -28.0560   22.8440 C   0  0  0  0  0  0  0  0  0  0  0  0
  -20.6800  -28.2640   23.0710 C   0  0  0  0  0  3  0  0  0  0  0  0
  -20.7470  -26.8530   22.4450 C   0  0  0  0  0  2  0  0  0  0  0  0
  -19.6200  -26.5820   21.4430 C   0  0  0  0  0  2  0  0  0  0  0  0
  -18.2540  -26.7280   22.1210 C   0  0  0  0  0  2  0  0  0  0  0  0
  -19.2530  -28.7860   23.2760 C   0  0  0  0  0  0  0  0  0  0  0  0
  -19.0680  -30.0310   23.9130 C   0  0  0  0  0  3  0  0  0  0  0  0
  -17.7760  -30.5490   24.1210 C   0  0  0  0  0  3  0  0  0  0  0  0
  -16.6510  -29.8160   23.7050 C   0  0  0  0  0  3  0  0  0  0  0  0
  -16.8210  -28.5710   23.0730 C   0  0  0  0  0  3  0  0  0  0  0  0
  -25.8490  -32.5390   23.8250 C   0  0  0  0  0  3  0  0  0  0  0  0
  -26.3620  -31.7770   25.1070 C   0  0  1  0  0  0  0  0  0  0  0  0
  -25.2490  -31.4670   26.1350 C   0  0  0  0  0  1  0  0  0  0  0  0
  -27.0290  -30.4380   24.7160 C   0  0  0  0  0  1  0  0  0  0  0  0
  -27.4480  -32.6200   25.8190 C   0  0  0  0  0  1  0  0  0  0  0  0
  -25.4960  -33.9270   24.1500 N   0  0  0  0  0  0  0  0  0  0  0  0
  -25.8410  -34.9910   23.4140 C   0  0  0  0  0  0  0  0  0  0  0  0
  -26.5600  -34.9110   22.4130 O   0  0  0  0  0  0  0  0  0  0  0  0
  -24.8620  -34.0640   24.9230 H   0  0  0  0  0  0  0  0  0  0  0  0
  -24.1060  -36.7580   22.9750 C   0  0  0  0  0  1  0  0  0  0  0  0
  -25.3020  -36.3640   23.8570 C   0  0  0  0  0  3  0  0  0  0  0  0
  -27.3630  -37.2770   24.8310 C   0  0  0  0  0  1  0  0  0  0  0  0
  -26.3210  -37.4370   23.8200 N   0  0  0  0  0  0  0  0  0  0  0  0
  -25.8900  -38.3470   23.9530 H   0  0  0  0  0  0  0  0  0  0  0  0
  -29.5960  -19.4190   19.3690 C   0  0  0  0  0  3  0  0  0  0  0  0
  -29.6010  -17.0030   19.2680 C   0  0  0  0  0  3  0  0  0  0  0  0
  -30.7010  -18.1350   21.1210 C   0  0  0  0  0  3  0  0  0  0  0  0
  -29.2110  -18.2340   18.7150 C   0  0  0  0  0  0  0  0  0  0  0  0
  -30.3690  -19.3940   20.5520 C   0  0  0  0  0  0  0  0  0  0  0  0
  -30.3110  -16.9270   20.4860 C   0  0  0  0  0  0  0  0  0  0  0  0
  -31.1920  -14.6360   20.5560 C   0  0  0  0  0  0  0  0  0  0  0  0
  -30.8930  -12.4620   19.4340 C   0  0  0  0  0  2  0  0  0  0  0  0
  -29.9860  -12.6860   18.2070 C   0  0  0  0  0  2  0  0  0  0  0  0
  -28.4970  -12.5760   18.5950 C   0  0  0  0  0  2  0  0  0  0  0  0
  -28.1440  -13.4080   19.8560 C   0  0  0  0  0  3  0  0  0  0  0  0
  -29.1720  -13.1790   20.9880 C   0  0  0  0  0  2  0  0  0  0  0  0
  -30.5180  -13.4560   20.4520 N   0  0  0  0  0  0  0  0  0  0  0  0
  -32.3250  -14.8080   20.0950 O   0  0  0  0  0  0  0  0  0  0  0  0
  -30.4970  -15.6510   21.1020 N   0  0  0  0  0  0  0  0  0  0  0  0
  -29.6760  -15.3160   21.5840 H   0  0  0  0  0  0  0  0  0  0  0  0
  -25.7610  -14.1010   20.5370 C   0  0  0  0  0  0  0  0  0  0  0  0
  -24.6540  -13.3630   20.8530 C   0  0  0  0  0  0  0  0  0  0  0  0
  -25.0580  -11.9950   20.7770 C   0  0  0  0  0  0  0  0  0  0  0  0
  -26.7720  -13.1810   20.2950 N   0  0  0  0  0  0  0  0  0  0  0  0
  -26.3500  -11.9090   20.4920 N   0  0  0  0  0  0  0  0  0  0  0  0
  -24.2780  -10.7590   20.9030 C   0  0  0  0  0  0  0  0  0  0  0  0
  -24.6140   -9.7690   21.8520 C   0  0  0  0  0  3  0  0  0  0  0  0
  -23.8400   -8.5960   21.9660 C   0  0  0  0  0  3  0  0  0  0  0  0
  -22.7120   -8.4070   21.1290 C   0  0  0  0  0  0  0  0  0  0  0  0
  -22.3970   -9.3850   20.1710 C   0  0  0  0  0  3  0  0  0  0  0  0
  -23.1730  -10.5490   20.0540 C   0  0  0  0  0  3  0  0  0  0  0  0
  -21.9170   -7.2870   21.1510 O   0  0  0  0  0  0  0  0  0  0  0  0
  -21.7220   -6.5660   22.3030 C   0  0  0  0  0  0  0  0  0  0  0  0
  -21.1640   -7.1500   23.4610 C   0  0  0  0  0  3  0  0  0  0  0  0
  -20.9160   -6.3550   24.5980 C   0  0  0  0  0  3  0  0  0  0  0  0
  -21.2160   -4.9810   24.5770 C   0  0  0  0  0  0  0  0  0  0  0  0
  -21.7680   -4.3980   23.4240 C   0  0  0  0  0  3  0  0  0  0  0  0
  -22.0180   -5.1880   22.2880 C   0  0  0  0  0  0  0  0  0  0  0  0
  -22.5300   -4.6190   21.1710 F   0  0  0  0  0  0  0  0  0  0  0  0
  -20.9720   -4.2160   25.6670 F   0  0  0  0  0  0  0  0  0  0  0  0
  -23.2730  -13.8900   21.1210 C   0  0  0  0  0  0  0  0  0  0  0  0
  -22.5140  -13.2150   21.9770 N   0  0  0  0  0  0  0  0  0  0  0  0
  -22.8780  -14.9350   20.6080 O   0  0  0  0  0  0  0  0  0  0  0  0
  -22.8470  -12.3690   22.4170 H   0  0  0  0  0  0  0  0  0  0  0  0
  -21.5860  -13.5490   22.1980 H   0  0  0  0  0  0  0  0  0  0  0  0
  -25.9860  -15.4710   20.4190 N   0  0  0  0  0  0  0  0  0  0  0  0
  -25.2430  -16.1490   20.5450 H   0  0  0  0  0  0  0  0  0  0  0  0
  -26.8600  -15.8950   20.1390 H   0  0  0  0  0  0  0  0  0  0  0  0
  -28.3780  -18.2330   17.4960 C   0  0  0  0  0  3  0  0  0  0  0  0
  -27.5450  -19.1950   17.0400 C   0  0  0  0  0  0  0  0  0  0  0  0
  -26.8130  -19.0400   15.7220 C   0  0  0  0  0  1  0  0  0  0  0  0
  -27.2450  -20.5020   17.7580 C   0  0  0  0  0  1  0  0  0  0  0  0
  2  7  1  0
  3  2  1  0
  3  6  1  0
  4  5  1  0
  6  9  1  0
  6  4  1  0
  7  1  1  0
  7  5  1  0
  8  2  2  0
  9 10  1  0
 11 22  2  0
 12 10  1  0
 12 17  1  0
 13 21  1  0
 13 23  1  0
 14 20  1  0
 14 16  1  0
 15 21  1  0
 16 17  2  0
 16 15  1  0
 18 12  2  0
 19 18  1  0
 19 14  2  0
 20 13  1  0
 21 11  1  0
 23 25  2  0
 24 23  1  0
 26 24  1  0
 27 36  2  0
 27 32  1  0
 28 24  1  0
 28 32  1  0
 29 28  1  0
 30 31  1  0
 30 29  1  0
 31 27  1  0
 32 33  2  0
 33 34  1  0
 35 34  2  0
 36 35  1  0
 37 11  1  0
 37 42  1  0
 37 38  1  0
 38 41  1  1
 38 39  1  0
 40 38  1  0
 42 45  1  0
 43 47  1  0
 43 42  1  0
 44 43  2  0
 47 46  1  0
 49 47  1  0
 49 50  1  0
 49 48  1  0
 51 55  1  0
 52 56  2  0
 54 52  1  0
 54 51  2  0
 55 53  2  0
 55  1  1  0
 56 65  1  0
 56 53  1  0
 57 65  1  0
 58 63  1  0
 59 60  1  0
 59 58  1  0
 61 60  1  0
 61 70  1  0
 61 62  1  0
 63 57  1  0
 63 62  1  0
 64 57  2  0
 65 66  1  0
 67 68  2  0
 68 87  1  0
 69 68  1  0
 69 72  1  0
 70 71  1  0
 70 67  1  0
 71 69  2  0
 72 73  1  0
 73 74  2  0
 75 78  1  0
 75 74  1  0
 76 75  2  0
 77 76  1  0
 77 72  2  0
 78 79  1  0
 79 80  1  0
 80 81  2  0
 82 81  1  0
 82 86  1  0
 83 82  2  0
 84 79  2  0
 84 83  1  0
 85 84  1  0
 87 88  1  0
 88 91  1  0
 88 90  1  0
 89 87  2  0
 92 67  1  0
 92 93  1  0
 94 92  1  0
 95 54  1  0
 96 95  2  0
 96 98  1  0
 97 96  1  0
M  ISO  4   9 101  10 101  57 100  65 100
M  END
>  <TORSDO>  (71) 
F 20

>  <SCORE>  (71) 
-13.421

>  <name>  (71) 
70

>  <ligand_id>  (71) 
70

>  <original_smiles>  (71) 
[H]C(=C(C([H])([H])[H])C([H])([H])[H])c1c([H])c(N([H])C(=O)N2C([H])([H])C([H])([H])C([H])([H])C([H])(n3nc(-c4c([H])c([H])c(Oc5c([H])c([H])c(F)c([H])c5F)c([H])c4[H])c(C(=O)N([H])[H])c3N([H])[H])C2([H])[H])c([H])c(C([H])([H])N2C(=O)C([H])([H])C([H])(C([H])([H])Oc3c([H])c([H])c4c(c3[H])C([H])([H])N(C(=O)C([H])(N([H])C(=O)C([H])(N([H])C([H])([H])[H])C([H])([H])[H])C(C([H])([H])[H])(C([H])([H])[H])C([H])([H])[H])C([H])(C(=O)N([H])C3([H])c5c([H])c([H])c([H])c([H])c5C([H])([H])C([H])([H])C3([H])[H])C4([H])[H])C([H])([H])C2([H])[H])c1[H]

>  <smiles>  (71) 
[H]C(=C(C([H])([H])[H])C([H])([H])[H])c1c([H])c(N([H])C(=O)N2C([H])([H])C([H])([H])C([H])([H])C([H])(n3nc(-c4c([H])c([H])c(Oc5c([H])c([H])c(F)c([H])c5F)c([H])c4[H])c(C(=O)N([H])[H])c3N([H])[H])C2([H])[H])c([H])c(C([H])([H])N2C(=O)C([H])([H])C([H])(C([H])([H])Oc3c([H])c([H])c4c(c3[H])C([H])([H])N(C(=O)C([H])(N([H])C(=O)C([H])(N([H])C([H])([H])[H])C([H])([H])[H])C(C([H])([H])[H])(C([H])([H])[H])C([H])([H])[H])C([H])(C(=O)N([H])C3([H])c5c([H])c([H])c([H])c([H])c5C([H])([H])C([H])([H])C3([H])[H])C4([H])[H])C([H])([H])C2([H])[H])c1[H]

$$$$
71:0:0
     RDKit          3D

 95103  0  0  1  0  0  0  0  0999 V2000
  -29.1650  -21.1140   20.0040 C   0  0  0  0  0  0  0  0  0  0  0  0
  -29.1860  -22.4280   20.4860 N   0  0  0  0  0  0  0  0  0  0  0  0
  -28.6120  -20.8570   18.9350 O   0  0  0  0  0  0  0  0  0  0  0  0
  -29.5750  -22.4890   21.4150 H   0  0  0  0  0  0  0  0  0  0  0  0
  -31.6260  -18.8650   22.0840 C   0  0  0  0  0  3  0  0  0  0  0  0
  -31.3060  -17.5590   21.6630 C   0  0  0  0  0  3  0  0  0  0  0  0
  -29.5000  -18.5020   20.3540 C   0  0  0  0  0  3  0  0  0  0  0  0
  -29.8380  -19.8800   20.7180 C   0  0  0  0  0  0  0  0  0  0  0  0
  -30.9080  -20.0100   21.6560 C   0  0  0  0  0  0  0  0  0  0  0  0
  -30.2110  -17.3150   20.8150 C   0  0  0  0  0  0  0  0  0  0  0  0
  -31.3360  -21.3390   22.2650 C   0  0  0  0  0  1  0  0  0  0  0  0
  -30.5820  -14.7540   20.3680 C   0  0  0  0  0  0  0  0  0  0  0  0
  -30.3380  -12.4850   19.3250 C   0  0  0  0  0  2  0  0  0  0  0  0
  -29.3840  -12.5620   18.1140 C   0  0  0  0  0  2  0  0  0  0  0  0
  -27.9230  -12.3800   18.5700 C   0  0  0  0  0  2  0  0  0  0  0  0
  -27.5630  -13.2750   19.7860 C   0  0  0  0  0  3  0  0  0  0  0  0
  -28.6390  -13.1930   20.8910 C   0  0  0  0  0  2  0  0  0  0  0  0
  -29.9270  -13.5440   20.2770 N   0  0  0  0  0  0  0  0  0  0  0  0
  -31.7750  -14.8260   20.0610 O   0  0  0  0  0  0  0  0  0  0  0  0
  -29.8220  -15.9050   20.5370 N   0  0  0  0  0  0  0  0  0  0  0  0
  -28.8280  -15.7370   20.5160 H   0  0  0  0  0  0  0  0  0  0  0  0
  -25.1820  -13.8610   20.5380 C   0  0  0  0  0  0  0  0  0  0  0  0
  -24.1220  -13.0860   20.9180 C   0  0  0  0  0  0  0  0  0  0  0  0
  -24.5870  -11.7350   20.8840 C   0  0  0  0  0  0  0  0  0  0  0  0
  -26.2260  -12.9850   20.2940 N   0  0  0  0  0  0  0  0  0  0  0  0
  -25.8740  -11.7010   20.5650 N   0  0  0  0  0  0  0  0  0  0  0  0
  -23.8640  -10.4710   21.0780 C   0  0  0  0  0  0  0  0  0  0  0  0
  -24.3130   -9.4950   21.9950 C   0  0  0  0  0  3  0  0  0  0  0  0
  -23.5880   -8.2990   22.1780 C   0  0  0  0  0  3  0  0  0  0  0  0
  -22.4010   -8.0680   21.4430 C   0  0  0  0  0  0  0  0  0  0  0  0
  -21.9710   -9.0330   20.5140 C   0  0  0  0  0  3  0  0  0  0  0  0
  -22.6970  -10.2210   20.3300 C   0  0  0  0  0  3  0  0  0  0  0  0
  -21.6450   -6.9240   21.5370 O   0  0  0  0  0  0  0  0  0  0  0  0
  -21.6270   -6.1630   22.6790 C   0  0  0  0  0  0  0  0  0  0  0  0
  -21.2490   -6.7040   23.9270 C   0  0  0  0  0  3  0  0  0  0  0  0
  -21.1780   -5.8720   25.0610 C   0  0  0  0  0  3  0  0  0  0  0  0
  -21.4750   -4.5000   24.9490 C   0  0  0  0  0  0  0  0  0  0  0  0
  -21.8490   -3.9600   23.7070 C   0  0  0  0  0  3  0  0  0  0  0  0
  -21.9220   -4.7900   22.5740 C   0  0  0  0  0  0  0  0  0  0  0  0
  -22.2610   -4.2590   21.3730 F   0  0  0  0  0  0  0  0  0  0  0  0
  -21.4010   -3.6990   26.0380 F   0  0  0  0  0  0  0  0  0  0  0  0
  -22.7260  -13.5600   21.2030 C   0  0  0  0  0  0  0  0  0  0  0  0
  -22.0050  -12.8640   22.0750 N   0  0  0  0  0  0  0  0  0  0  0  0
  -22.2830  -14.5880   20.6880 O   0  0  0  0  0  0  0  0  0  0  0  0
  -22.3720  -12.0280   22.5070 H   0  0  0  0  0  0  0  0  0  0  0  0
  -21.0750  -13.1730   22.3160 H   0  0  0  0  0  0  0  0  0  0  0  0
  -25.3370  -15.2330   20.3520 N   0  0  0  0  0  0  0  0  0  0  0  0
  -24.5540  -15.8720   20.4410 H   0  0  0  0  0  0  0  0  0  0  0  0
  -26.1630  -15.6740   19.9720 H   0  0  0  0  0  0  0  0  0  0  0  0
  -28.1850  -23.6880   18.4920 C   0  0  0  0  0  1  0  0  0  0  0  0
  -28.9760  -23.8160   19.8140 C   0  0  2  0  0  0  0  0  0  0  0  0
  -31.4000  -23.5260   18.8040 C   0  0  0  0  0  1  0  0  0  0  0  0
  -30.3740  -24.4260   19.5120 C   0  0  0  0  0  2  0  0  0  0  0  0
  -28.1950  -24.9780   20.6460 C   0  0  0  0  0  2  0  0  0  0  0  0
  -28.3370  -26.4240   20.2350 O   0  0  0  0  0  0  0  0  0  0  0  0
  -24.6190  -31.8950   23.2320 C   0  0  0  0  0  0  0  0  0  0  0  0
  -27.2200  -27.2860   20.2110 C   0  0  0  0  0  0  0  0  0  0  0  0
  -23.4160  -30.4940   21.5900 C   0  0  0  0  0  3  0  0  0  0  0  0
  -24.8660  -28.9320   20.1630 C   0  0  0  0  0  0  0  0  0  0  0  0
  -25.9540  -30.7990   21.4110 C   0  0  0  0  0  2  0  0  0  0  0  0
  -26.0330  -29.4130   20.7710 C   0  0  0  0  0  0  0  0  0  0  0  0
  -27.2140  -28.6050   20.7740 C   0  0  0  0  0  3  0  0  0  0  0  0
  -26.0380  -26.8720   19.5620 C   0  0  0  0  0  3  0  0  0  0  0  0
  -24.8770  -27.6740   19.5370 C   0  0  0  0  0  3  0  0  0  0  0  0
  -23.6350  -29.8200   20.2070 C   0  0  0  0  0  2  0  0  0  0  0  0
  -24.6810  -31.0830   22.1350 N   0  0  0  0  0  0  0  0  0  0  0  0
  -23.5350  -32.1760   23.7650 O   0  0  0  0  0  0  0  0  0  0  0  0
  -22.7510  -29.4810   22.5540 C   0  0  0  0  0  0  0  0  0  0  0  0
  -21.4230  -29.3100   22.4350 N   0  0  0  0  0  0  0  0  0  0  0  0
  -23.4290  -28.8520   23.3730 O   0  0  0  0  0  0  0  0  0  0  0  0
  -20.9320  -29.8710   21.7540 H   0  0  0  0  0  0  0  0  0  0  0  0
  -18.0470  -28.1100   22.9500 C   0  0  0  0  0  0  0  0  0  0  0  0
  -20.6070  -28.3750   23.2130 C   0  0  0  0  0  3  0  0  0  0  0  0
  -20.7100  -26.9400   22.6460 C   0  0  0  0  0  2  0  0  0  0  0  0
  -19.6060  -26.6110   21.6360 C   0  0  0  0  0  2  0  0  0  0  0  0
  -18.2250  -26.7580   22.2790 C   0  0  0  0  0  2  0  0  0  0  0  0
  -19.1670  -28.8740   23.3760 C   0  0  0  0  0  0  0  0  0  0  0  0
  -18.9460  -30.1380   23.9670 C   0  0  0  0  0  3  0  0  0  0  0  0
  -17.6420  -30.6380   24.1340 C   0  0  0  0  0  3  0  0  0  0  0  0
  -16.5380  -29.8740   23.7200 C   0  0  0  0  0  3  0  0  0  0  0  0
  -16.7410  -28.6120   23.1340 C   0  0  0  0  0  3  0  0  0  0  0  0
  -25.9020  -32.5310   23.8510 C   0  0  0  0  0  3  0  0  0  0  0  0
  -26.4220  -31.7610   25.1260 C   0  0  1  0  0  0  0  0  0  0  0  0
  -25.3310  -31.5260   26.1970 C   0  0  0  0  0  1  0  0  0  0  0  0
  -27.0030  -30.3840   24.7320 C   0  0  0  0  0  1  0  0  0  0  0  0
  -27.5760  -32.5560   25.7810 C   0  0  0  0  0  1  0  0  0  0  0  0
  -25.5920  -33.9290   24.1840 N   0  0  0  0  0  0  0  0  0  0  0  0
  -25.9170  -34.9820   23.4230 C   0  0  0  0  0  0  0  0  0  0  0  0
  -26.5770  -34.8800   22.3860 O   0  0  0  0  0  0  0  0  0  0  0  0
  -25.0180  -34.0840   25.0000 H   0  0  0  0  0  0  0  0  0  0  0  0
  -24.1860  -36.7730   23.0820 C   0  0  0  0  0  1  0  0  0  0  0  0
  -25.4330  -36.3690   23.8860 C   0  0  0  0  0  3  0  0  0  0  0  0
  -27.5750  -37.2530   24.7000 C   0  0  0  0  0  1  0  0  0  0  0  0
  -26.4640  -37.4230   23.7670 N   0  0  0  0  0  0  0  0  0  0  0  0
  -26.0590  -38.3430   23.9220 H   0  0  0  0  0  0  0  0  0  0  0  0
  1  2  1  0
  1  8  1  0
  2  4  1  0
  3  1  2  0
  6  5  1  0
  7  8  2  0
  7 10  1  0
  8  9  1  0
  9  5  2  0
  9 11  1  0
 10  6  2  0
 12 20  1  0
 13 18  1  0
 14 15  1  0
 14 13  1  0
 16 15  1  0
 16 25  1  0
 16 17  1  0
 18 12  1  0
 18 17  1  0
 19 12  2  0
 20 10  1  0
 21 20  1  0
 22 23  2  0
 23 42  1  0
 24 23  1  0
 24 27  1  0
 25 22  1  0
 25 26  1  0
 26 24  2  0
 27 28  1  0
 28 29  2  0
 30 33  1  0
 30 29  1  0
 31 30  2  0
 32 31  1  0
 32 27  2  0
 33 34  1  0
 34 35  1  0
 35 36  2  0
 37 36  1  0
 37 41  1  0
 38 37  2  0
 39 34  2  0
 39 38  1  0
 40 39  1  0
 42 43  1  0
 43 46  1  0
 43 45  1  0
 44 42  2  0
 47 48  1  0
 47 22  1  0
 49 47  1  0
 51 50  1  6
 51  2  1  0
 51 54  1  0
 52 53  1  0
 53 51  1  0
 55 54  1  0
 56 67  2  0
 57 55  1  0
 57 62  1  0
 58 66  1  0
 58 68  1  0
 59 65  1  0
 59 61  1  0
 60 66  1  0
 61 62  2  0
 61 60  1  0
 63 57  2  0
 64 63  1  0
 64 59  2  0
 65 58  1  0
 66 56  1  0
 68 70  2  0
 69 68  1  0
 71 69  1  0
 72 81  2  0
 72 77  1  0
 73 69  1  0
 73 77  1  0
 74 73  1  0
 75 76  1  0
 75 74  1  0
 76 72  1  0
 77 78  2  0
 78 79  1  0
 80 79  2  0
 81 80  1  0
 82 56  1  0
 82 87  1  0
 82 83  1  0
 83 86  1  1
 83 84  1  0
 85 83  1  0
 87 90  1  0
 88 92  1  0
 88 87  1  0
 89 88  2  0
 92 91  1  0
 94 92  1  0
 94 95  1  0
 94 93  1  0
M  ISO  4  12 100  20 100  54 101  55 101
M  END
>  <TORSDO>  (72) 
F 20

>  <SCORE>  (72) 
-14.183

>  <name>  (72) 
71

>  <ligand_id>  (72) 
71

>  <original_smiles>  (72) 
[H]c1c([H])c([H])c2c(c1[H])C([H])([H])C([H])([H])C([H])([H])C2([H])N([H])C(=O)C1([H])N(C(=O)C([H])(N([H])C(=O)C([H])(N([H])C([H])([H])[H])C([H])([H])[H])C(C([H])([H])[H])(C([H])([H])[H])C([H])([H])[H])C([H])([H])c2c([H])c(OC([H])([H])C(N([H])C(=O)c3c([H])c(N([H])C(=O)N4C([H])([H])C([H])([H])C([H])([H])C([H])(n5nc(-c6c([H])c([H])c(Oc7c([H])c([H])c(F)c([H])c7F)c([H])c6[H])c(C(=O)N([H])[H])c5N([H])[H])C4([H])[H])c([H])c([H])c3C([H])([H])[H])(C([H])([H])[H])C([H])([H])C([H])([H])[H])c([H])c([H])c2C1([H])[H]

>  <smiles>  (72) 
[H]c1c([H])c([H])c2c(c1[H])C([H])([H])C([H])([H])C([H])([H])C2([H])N([H])C(=O)C1([H])N(C(=O)C([H])(N([H])C(=O)C([H])(N([H])C([H])([H])[H])C([H])([H])[H])C(C([H])([H])[H])(C([H])([H])[H])C([H])([H])[H])C([H])([H])c2c([H])c(OC([H])([H])C(N([H])C(=O)c3c([H])c(N([H])C(=O)N4C([H])([H])C([H])([H])C([H])([H])C([H])(n5nc(-c6c([H])c([H])c(Oc7c([H])c([H])c(F)c([H])c7F)c([H])c6[H])c(C(=O)N([H])[H])c5N([H])[H])C4([H])[H])c([H])c([H])c3C([H])([H])[H])(C([H])([H])[H])C([H])([H])C([H])([H])[H])c([H])c([H])c2C1([H])[H]

$$$$
72:0:0
     RDKit          3D

 93102  0  0  1  0  0  0  0  0999 V2000
  -28.0320  -21.8630   20.1950 C   0  0  0  0  0  0  0  0  0  0  0  0
  -27.8280  -23.4020   20.0640 C   0  0  0  0  0  2  0  0  0  0  0  0
  -30.2700  -23.6940   19.9030 C   0  0  0  0  0  2  0  0  0  0  0  0
  -30.4500  -22.1510   19.7700 C   0  0  0  0  0  2  0  0  0  0  0  0
  -28.9360  -24.1250   19.2810 C   0  0  0  0  0  3  0  0  0  0  0  0
  -29.2870  -21.3020   20.1360 N   0  0  0  0  0  0  0  0  0  0  0  0
  -27.0090  -21.1920   20.3630 O   0  0  0  0  0  0  0  0  0  0  0  0
  -28.8240  -19.0380   21.1810 C   0  0  0  0  0  3  0  0  0  0  0  0
  -30.4910  -19.1880   19.4490 C   0  0  0  0  0  3  0  0  0  0  0  0
  -29.0450  -17.6410   21.2670 C   0  0  0  0  0  3  0  0  0  0  0  0
  -30.7190  -17.7850   19.5360 C   0  0  0  0  0  3  0  0  0  0  0  0
  -29.5210  -19.8550   20.2510 C   0  0  0  0  0  0  0  0  0  0  0  0
  -29.9860  -16.9790   20.4410 C   0  0  0  0  0  0  0  0  0  0  0  0
  -30.7660  -14.6070   19.8370 C   0  0  0  0  0  0  0  0  0  0  0  0
  -30.4290  -12.4520   18.6520 C   0  0  0  0  0  2  0  0  0  0  0  0
  -29.3710  -12.6690   17.5490 C   0  0  0  0  0  2  0  0  0  0  0  0
  -27.9410  -12.5120   18.1090 C   0  0  0  0  0  2  0  0  0  0  0  0
  -27.7260  -13.3060   19.4240 C   0  0  0  0  0  3  0  0  0  0  0  0
  -28.8770  -13.0370   20.4170 C   0  0  0  0  0  2  0  0  0  0  0  0
  -30.1410  -13.3950   19.7490 N   0  0  0  0  0  0  0  0  0  0  0  0
  -31.8270  -14.8430   19.2500 O   0  0  0  0  0  0  0  0  0  0  0  0
  -30.0890  -15.5410   20.5580 N   0  0  0  0  0  0  0  0  0  0  0  0
  -29.3640  -15.1240   21.1220 H   0  0  0  0  0  0  0  0  0  0  0  0
  -25.4140  -13.9110   20.3800 C   0  0  0  0  0  0  0  0  0  0  0  0
  -24.3760  -13.1360   20.8240 C   0  0  0  0  0  0  0  0  0  0  0  0
  -24.8130  -11.7820   20.6970 C   0  0  0  0  0  0  0  0  0  0  0  0
  -26.4190  -13.0290   20.0170 N   0  0  0  0  0  0  0  0  0  0  0  0
  -26.0660  -11.7410   20.2620 N   0  0  0  0  0  0  0  0  0  0  0  0
  -24.0910  -10.5210   20.9110 C   0  0  0  0  0  0  0  0  0  0  0  0
  -24.5470   -9.5580   21.8390 C   0  0  0  0  0  3  0  0  0  0  0  0
  -23.8260   -8.3610   22.0390 C   0  0  0  0  0  3  0  0  0  0  0  0
  -22.6360   -8.1180   21.3110 C   0  0  0  0  0  0  0  0  0  0  0  0
  -22.2020   -9.0690   20.3720 C   0  0  0  0  0  3  0  0  0  0  0  0
  -22.9230  -10.2580   20.1690 C   0  0  0  0  0  3  0  0  0  0  0  0
  -21.8860   -6.9730   21.4200 O   0  0  0  0  0  0  0  0  0  0  0  0
  -21.7800   -6.2920   22.6070 C   0  0  0  0  0  0  0  0  0  0  0  0
  -21.2730   -6.9050   23.7750 C   0  0  0  0  0  3  0  0  0  0  0  0
  -21.1160   -6.1500   24.9530 C   0  0  0  0  0  3  0  0  0  0  0  0
  -21.4540   -4.7820   24.9650 C   0  0  0  0  0  0  0  0  0  0  0  0
  -21.9510   -4.1700   23.8010 C   0  0  0  0  0  3  0  0  0  0  0  0
  -22.1100   -4.9240   22.6260 C   0  0  0  0  0  0  0  0  0  0  0  0
  -22.5710   -4.3230   21.5010 F   0  0  0  0  0  0  0  0  0  0  0  0
  -21.2950   -4.0530   26.0950 F   0  0  0  0  0  0  0  0  0  0  0  0
  -23.0190  -13.6180   21.2510 C   0  0  0  0  0  0  0  0  0  0  0  0
  -22.3730  -12.9030   22.1660 N   0  0  0  0  0  0  0  0  0  0  0  0
  -22.5420  -14.6610   20.8070 O   0  0  0  0  0  0  0  0  0  0  0  0
  -22.7700  -12.0580   22.5480 H   0  0  0  0  0  0  0  0  0  0  0  0
  -21.4660  -13.2110   22.4920 H   0  0  0  0  0  0  0  0  0  0  0  0
  -25.5780  -15.2860   20.2360 N   0  0  0  0  0  0  0  0  0  0  0  0
  -24.8290  -15.9410   20.4290 H   0  0  0  0  0  0  0  0  0  0  0  0
  -26.3900  -15.7260   19.8210 H   0  0  0  0  0  0  0  0  0  0  0  0
  -28.7540  -25.6610   18.9570 C   0  0  0  0  0  2  0  0  0  0  0  0
  -28.4740  -26.6460   19.9910 O   0  0  0  0  0  0  0  0  0  0  0  0
  -24.5200  -31.7410   23.1310 C   0  0  0  0  0  0  0  0  0  0  0  0
  -27.2880  -27.3810   19.9650 C   0  0  0  0  0  0  0  0  0  0  0  0
  -23.3580  -30.3340   21.4670 C   0  0  0  0  0  3  0  0  0  0  0  0
  -24.8540  -28.8630   20.0090 C   0  0  0  0  0  0  0  0  0  0  0  0
  -25.8780  -30.7520   21.2820 C   0  0  0  0  0  2  0  0  0  0  0  0
  -26.0010  -29.3920   20.6130 C   0  0  0  0  0  0  0  0  0  0  0  0
  -27.2150  -28.6560   20.5930 C   0  0  0  0  0  3  0  0  0  0  0  0
  -26.1070  -26.8740   19.3720 C   0  0  0  0  0  3  0  0  0  0  0  0
  -24.9050  -27.6070   19.3860 C   0  0  0  0  0  3  0  0  0  0  0  0
  -23.5870  -29.6900   20.0740 C   0  0  0  0  0  2  0  0  0  0  0  0
  -24.6030  -30.9600   22.0160 N   0  0  0  0  0  0  0  0  0  0  0  0
  -23.4300  -31.9710   23.6740 O   0  0  0  0  0  0  0  0  0  0  0  0
  -22.7360  -29.2760   22.4090 C   0  0  0  0  0  0  0  0  0  0  0  0
  -21.4200  -29.0490   22.2710 N   0  0  0  0  0  0  0  0  0  0  0  0
  -23.4370  -28.6640   23.2190 O   0  0  0  0  0  0  0  0  0  0  0  0
  -20.9140  -29.5970   21.5890 H   0  0  0  0  0  0  0  0  0  0  0  0
  -18.0880  -27.7140   22.7200 C   0  0  0  0  0  0  0  0  0  0  0  0
  -20.6310  -28.0720   23.0240 C   0  0  0  0  0  3  0  0  0  0  0  0
  -20.7950  -26.6500   22.4380 C   0  0  0  0  0  2  0  0  0  0  0  0
  -19.7200  -26.2950   21.4060 C   0  0  0  0  0  2  0  0  0  0  0  0
  -18.3260  -26.3790   22.0340 C   0  0  0  0  0  2  0  0  0  0  0  0
  -19.1710  -28.5150   23.1710 C   0  0  0  0  0  0  0  0  0  0  0  0
  -18.8950  -29.7620   23.7720 C   0  0  0  0  0  3  0  0  0  0  0  0
  -17.5700  -30.2090   23.9290 C   0  0  0  0  0  3  0  0  0  0  0  0
  -16.5010  -29.4040   23.4960 C   0  0  0  0  0  3  0  0  0  0  0  0
  -16.7620  -28.1590   22.8970 C   0  0  0  0  0  3  0  0  0  0  0  0
  -25.7850  -32.4020   23.7630 C   0  0  0  0  0  3  0  0  0  0  0  0
  -25.4290  -33.7820   24.1210 N   0  0  0  0  0  0  0  0  0  0  0  0
  -25.7160  -34.8590   23.3770 C   0  0  0  0  0  0  0  0  0  0  0  0
  -26.3780  -34.7980   22.3380 O   0  0  0  0  0  0  0  0  0  0  0  0
  -24.8370  -33.9000   24.9290 H   0  0  0  0  0  0  0  0  0  0  0  0
  -23.9180  -36.5920   23.0780 C   0  0  0  0  0  1  0  0  0  0  0  0
  -25.1850  -36.2210   23.8660 C   0  0  0  0  0  3  0  0  0  0  0  0
  -27.2980  -37.1670   24.6800 C   0  0  0  0  0  1  0  0  0  0  0  0
  -26.1740  -37.3160   23.7600 N   0  0  0  0  0  0  0  0  0  0  0  0
  -25.7330  -38.2140   23.9400 H   0  0  0  0  0  0  0  0  0  0  0  0
  -26.3280  -31.6230   25.0230 C   0  0  1  0  0  0  0  0  0  0  0  0
  -25.2460  -31.3310   26.0890 C   0  0  0  0  0  1  0  0  0  0  0  0
  -26.9520  -30.2720   24.6030 C   0  0  0  0  0  1  0  0  0  0  0  0
  -27.4560  -32.4390   25.6970 C   0  0  0  0  0  1  0  0  0  0  0  0
  1  7  2  0
  2  1  1  0
  4  3  1  0
  4  6  1  0
  5 52  1  0
  5  3  1  0
  5  2  1  0
  6  1  1  0
  6 12  1  0
  8 10  1  0
  9 11  2  0
  9 12  1  0
 11 13  1  0
 12  8  2  0
 13 22  1  0
 13 10  2  0
 14 22  1  0
 15 20  1  0
 16 17  1  0
 16 15  1  0
 18 17  1  0
 18 27  1  0
 18 19  1  0
 20 14  1  0
 20 19  1  0
 21 14  2  0
 22 23  1  0
 24 25  2  0
 25 44  1  0
 26 25  1  0
 26 29  1  0
 27 28  1  0
 27 24  1  0
 28 26  2  0
 29 30  1  0
 30 31  2  0
 32 35  1  0
 32 31  1  0
 33 32  2  0
 34 33  1  0
 34 29  2  0
 35 36  1  0
 36 41  2  0
 36 37  1  0
 37 38  2  0
 38 39  1  0
 39 43  1  0
 40 39  2  0
 41 40  1  0
 42 41  1  0
 44 45  1  0
 45 48  1  0
 45 47  1  0
 46 44  2  0
 49 24  1  0
 49 50  1  0
 51 49  1  0
 52 53  1  0
 54 65  2  0
 55 53  1  0
 55 60  1  0
 56 64  1  0
 56 66  1  0
 57 63  1  0
 57 59  1  0
 58 64  1  0
 59 58  1  0
 60 59  2  0
 61 62  1  0
 61 55  2  0
 62 57  2  0
 63 56  1  0
 64 54  1  0
 66 68  2  0
 67 66  1  0
 69 67  1  0
 70 79  2  0
 70 75  1  0
 71 67  1  0
 71 75  1  0
 72 71  1  0
 73 74  1  0
 73 72  1  0
 74 70  1  0
 75 76  2  0
 76 77  1  0
 78 77  2  0
 79 78  1  0
 80 54  1  0
 80 81  1  0
 80 90  1  0
 81 84  1  0
 82 86  1  0
 82 81  1  0
 83 82  2  0
 86 85  1  0
 88 86  1  0
 88 89  1  0
 88 87  1  0
 90 93  1  1
 90 91  1  0
 92 90  1  0
M  ISO  4  14 100  22 100  52 101  53 101
M  END
>  <TORSDO>  (73) 
F 18

>  <SCORE>  (73) 
-12.915

>  <name>  (73) 
72

>  <ligand_id>  (73) 
72

>  <original_smiles>  (73) 
[H]c1c([H])c([H])c2c(c1[H])C([H])([H])C([H])([H])C([H])([H])C2([H])N([H])C(=O)C1([H])N(C(=O)C([H])(N([H])C(=O)C([H])(N([H])C([H])([H])[H])C([H])([H])[H])C(C([H])([H])[H])(C([H])([H])[H])C([H])([H])[H])C([H])([H])c2c([H])c(OC([H])([H])C3([H])C([H])([H])C(=O)N(c4c([H])c([H])c(N([H])C(=O)N5C([H])([H])C([H])([H])C([H])([H])C([H])(n6nc(-c7c([H])c([H])c(Oc8c([H])c([H])c(F)c([H])c8F)c([H])c7[H])c(C(=O)N([H])[H])c6N([H])[H])C5([H])[H])c([H])c4[H])C([H])([H])C3([H])[H])c([H])c([H])c2C1([H])[H]

>  <smiles>  (73) 
[H]c1c([H])c([H])c2c(c1[H])C([H])([H])C([H])([H])C([H])([H])C2([H])N([H])C(=O)C1([H])N(C(=O)C([H])(N([H])C(=O)C([H])(N([H])C([H])([H])[H])C([H])([H])[H])C(C([H])([H])[H])(C([H])([H])[H])C([H])([H])[H])C([H])([H])c2c([H])c(OC([H])([H])C3([H])C([H])([H])C(=O)N(c4c([H])c([H])c(N([H])C(=O)N5C([H])([H])C([H])([H])C([H])([H])C([H])(n6nc(-c7c([H])c([H])c(Oc8c([H])c([H])c(F)c([H])c8F)c([H])c7[H])c(C(=O)N([H])[H])c6N([H])[H])C5([H])[H])c([H])c4[H])C([H])([H])C3([H])[H])c([H])c([H])c2C1([H])[H]

$$$$
73:0:0
     RDKit          3D

 98107  0  0  1  0  0  0  0  0999 V2000
  -30.4400  -22.0700   20.7840 C   0  0  0  0  0  2  0  0  0  0  0  0
  -30.8200  -20.8390   21.2730 C   0  0  0  0  0  0  0  0  0  0  0  0
  -28.4620  -21.2470   19.7310 C   0  0  0  0  0  0  0  0  0  0  0  0
  -28.8240  -19.8410   20.3930 C   0  0  0  0  0  0  0  0  0  0  0  0
  -29.3260  -22.2800   19.9500 N   0  0  0  0  0  0  0  0  0  0  0  0
  -30.0340  -19.6790   21.0060 N   0  0  0  0  0  0  0  0  0  0  0  0
  -31.7990  -20.5380   21.9860 O   0  0  0  0  0  0  0  0  0  0  0  0
  -27.4300  -21.3360   19.0530 O   0  0  0  0  0  0  0  0  0  0  0  0
  -28.0010  -18.9170   20.3060 O   0  0  0  0  0  0  0  0  0  0  0  0
  -30.2050  -25.7460   18.6880 C   0  0  0  0  0  3  0  0  0  0  0  0
  -28.1340  -23.8770   18.4090 C   0  0  0  0  0  3  0  0  0  0  0  0
  -30.3140  -24.4970   19.3300 C   0  0  0  0  0  0  0  0  0  0  0  0
  -29.1070  -26.0580   17.8680 C   0  0  0  0  0  0  0  0  0  0  0  0
  -29.2480  -23.5480   19.2450 C   0  0  0  0  0  0  0  0  0  0  0  0
  -28.0780  -25.1060   17.6930 C   0  0  0  0  0  0  0  0  0  0  0  0
  -31.6420  -24.2120   20.0220 C   0  0  0  0  0  1  0  0  0  0  0  0
  -29.1200  -27.3840   17.1200 C   0  0  0  0  0  1  0  0  0  0  0  0
  -25.9180  -25.7110   16.5410 C   0  0  0  0  0  0  0  0  0  0  0  0
  -24.2720  -26.1480   14.7470 C   0  0  0  0  0  2  0  0  0  0  0  0
  -24.3410  -24.9890   13.7290 C   0  0  0  0  0  2  0  0  0  0  0  0
  -25.4480  -25.2330   12.6800 C   0  0  0  0  0  2  0  0  0  0  0  0
  -26.8020  -25.6410   13.3170 C   0  0  0  0  0  3  0  0  0  0  0  0
  -26.5900  -26.7650   14.3560 C   0  0  0  0  0  2  0  0  0  0  0  0
  -25.6070  -26.2810   15.3450 N   0  0  0  0  0  0  0  0  0  0  0  0
  -25.0740  -25.4010   17.3910 O   0  0  0  0  0  0  0  0  0  0  0  0
  -27.1930  -25.2800   16.5900 N   0  0  0  0  0  0  0  0  0  0  0  0
  -27.6730  -25.4900   15.7290 H   0  0  0  0  0  0  0  0  0  0  0  0
  -29.0300  -25.4480   12.0380 C   0  0  0  0  0  0  0  0  0  0  0  0
  -29.5190  -26.1170   10.9480 C   0  0  0  0  0  0  0  0  0  0  0  0
  -28.5200  -27.0750   10.5940 C   0  0  0  0  0  0  0  0  0  0  0  0
  -27.7900  -26.0110   12.3050 N   0  0  0  0  0  0  0  0  0  0  0  0
  -27.5130  -27.0330   11.4560 N   0  0  0  0  0  0  0  0  0  0  0  0
  -28.4360  -27.9930    9.4510 C   0  0  0  0  0  0  0  0  0  0  0  0
  -28.8660  -29.3340    9.5460 C   0  0  0  0  0  3  0  0  0  0  0  0
  -28.7930  -30.1890    8.4260 C   0  0  0  0  0  3  0  0  0  0  0  0
  -28.2920  -29.7070    7.1940 C   0  0  0  0  0  0  0  0  0  0  0  0
  -27.8440  -28.3770    7.1120 C   0  0  0  0  0  3  0  0  0  0  0  0
  -27.9110  -27.5280    8.2290 C   0  0  0  0  0  3  0  0  0  0  0  0
  -28.1580  -30.4750    6.0630 O   0  0  0  0  0  0  0  0  0  0  0  0
  -28.8490  -31.6490    5.9040 C   0  0  0  0  0  0  0  0  0  0  0  0
  -30.2440  -31.6690    5.6870 C   0  0  0  0  0  3  0  0  0  0  0  0
  -30.9040  -32.8940    5.4600 C   0  0  0  0  0  3  0  0  0  0  0  0
  -30.1710  -34.0950    5.4400 C   0  0  0  0  0  0  0  0  0  0  0  0
  -28.7820  -34.0760    5.6500 C   0  0  0  0  0  3  0  0  0  0  0  0
  -28.1230  -32.8560    5.8790 C   0  0  0  0  0  0  0  0  0  0  0  0
  -26.7810  -32.8400    6.0600 F   0  0  0  0  0  0  0  0  0  0  0  0
  -30.8030  -35.2720    5.2150 F   0  0  0  0  0  0  0  0  0  0  0  0
  -30.7930  -25.8180   10.2120 C   0  0  0  0  0  0  0  0  0  0  0  0
  -31.6430  -26.8210   10.0240 N   0  0  0  0  0  0  0  0  0  0  0  0
  -31.0670  -24.6770    9.8410 O   0  0  0  0  0  0  0  0  0  0  0  0
  -31.4300  -27.7530   10.3500 H   0  0  0  0  0  0  0  0  0  0  0  0
  -32.5190  -26.6580    9.5490 H   0  0  0  0  0  0  0  0  0  0  0  0
  -29.5260  -24.3990   12.8060 N   0  0  0  0  0  0  0  0  0  0  0  0
  -30.4130  -23.9570   12.5910 H   0  0  0  0  0  0  0  0  0  0  0  0
  -29.0300  -23.9400   13.5580 H   0  0  0  0  0  0  0  0  0  0  0  0
  -30.4470  -18.2840   21.4150 C   0  0  0  0  0  2  0  0  0  0  0  0
  -31.0520  -17.4240   20.2660 C   0  0  0  0  0  2  0  0  0  0  0  0
  -31.2600  -16.0610   20.6950 O   0  0  0  0  0  0  0  0  0  0  0  0
  -35.4260  -10.2460   20.7560 C   0  0  0  0  0  0  0  0  0  0  0  0
  -32.1000  -15.2270   19.9700 C   0  0  0  0  0  0  0  0  0  0  0  0
  -35.5170  -11.6140   18.7000 C   0  0  0  0  0  3  0  0  0  0  0  0
  -33.7370  -13.4300   18.4940 C   0  0  0  0  0  0  0  0  0  0  0  0
  -33.4120  -11.5930   20.1650 C   0  0  0  0  0  2  0  0  0  0  0  0
  -33.1410  -13.0090   19.6880 C   0  0  0  0  0  0  0  0  0  0  0  0
  -32.3080  -13.8960   20.4120 C   0  0  0  0  0  3  0  0  0  0  0  0
  -32.7210  -15.6300   18.7670 C   0  0  0  0  0  3  0  0  0  0  0  0
  -33.5250  -14.7390   18.0250 C   0  0  0  0  0  3  0  0  0  0  0  0
  -34.5870  -12.4220   17.7540 C   0  0  0  0  0  2  0  0  0  0  0  0
  -34.8050  -11.1310   19.9270 N   0  0  0  0  0  0  0  0  0  0  0  0
  -36.5520   -9.8030   20.4940 O   0  0  0  0  0  0  0  0  0  0  0  0
  -36.7700  -12.4670   19.0160 C   0  0  0  0  0  0  0  0  0  0  0  0
  -37.8410  -12.2720   18.2310 N   0  0  0  0  0  0  0  0  0  0  0  0
  -36.7560  -13.2940   19.9320 O   0  0  0  0  0  0  0  0  0  0  0  0
  -37.7660  -11.5780   17.4990 H   0  0  0  0  0  0  0  0  0  0  0  0
  -41.3800  -12.0400   17.5150 C   0  0  0  0  0  0  0  0  0  0  0  0
  -39.1130  -12.9890   18.3220 C   0  0  0  0  0  3  0  0  0  0  0  0
  -39.2550  -14.0160   17.1750 C   0  0  0  0  0  2  0  0  0  0  0  0
  -39.9890  -13.4540   15.9520 C   0  0  0  0  0  2  0  0  0  0  0  0
  -41.3970  -12.9910   16.3320 C   0  0  0  0  0  2  0  0  0  0  0  0
  -40.3020  -12.0270   18.4400 C   0  0  0  0  0  0  0  0  0  0  0  0
  -40.3240  -11.0950   19.5010 C   0  0  0  0  0  3  0  0  0  0  0  0
  -41.3960  -10.1930   19.6440 C   0  0  0  0  0  3  0  0  0  0  0  0
  -42.4620  -10.2170   18.7290 C   0  0  0  0  0  3  0  0  0  0  0  0
  -42.4550  -11.1430   17.6710 C   0  0  0  0  0  3  0  0  0  0  0  0
  -34.7410   -9.7310   22.0620 C   0  0  0  0  0  3  0  0  0  0  0  0
  -35.3210  -10.3930   23.3720 C   0  0  1  0  0  0  0  0  0  0  0  0
  -36.6630   -9.7810   23.8370 C   0  0  0  0  0  1  0  0  0  0  0  0
  -35.5380  -11.9110   23.1740 C   0  0  0  0  0  1  0  0  0  0  0  0
  -34.2970  -10.2440   24.5210 C   0  0  0  0  0  1  0  0  0  0  0  0
  -34.9110   -8.2730   22.1020 N   0  0  0  0  0  0  0  0  0  0  0  0
  -33.9630   -7.3870   21.7740 C   0  0  0  0  0  0  0  0  0  0  0  0
  -32.8140   -7.7210   21.4710 O   0  0  0  0  0  0  0  0  0  0  0  0
  -35.8440   -7.9340   22.2860 H   0  0  0  0  0  0  0  0  0  0  0  0
  -34.2790   -5.3400   20.3490 C   0  0  0  0  0  1  0  0  0  0  0  0
  -34.3460   -5.8930   21.7820 C   0  0  0  0  0  3  0  0  0  0  0  0
  -33.6030   -5.4600   24.0810 C   0  0  0  0  0  1  0  0  0  0  0  0
  -33.4980   -5.0730   22.6770 N   0  0  0  0  0  0  0  0  0  0  0  0
  -33.7330   -4.0880   22.5960 H   0  0  0  0  0  0  0  0  0  0  0  0
  1  2  1  0
  2  7  2  0
  3  5  1  0
  3  4  1  0
  4  6  1  0
  5  1  1  0
  6  2  1  0
  6 56  1  0
  8  3  2  0
  9  4  2  0
 10 12  1  0
 11 14  1  0
 12 16  1  0
 13 10  2  0
 14 12  2  0
 14  5  1  0
 15 13  1  0
 15 11  2  0
 17 13  1  0
 18 26  1  0
 18 25  2  0
 19 24  1  0
 20 19  1  0
 21 22  1  0
 21 20  1  0
 22 31  1  0
 22 23  1  0
 23 24  1  0
 24 18  1  0
 26 15  1  0
 27 26  1  0
 28 31  1  0
 28 53  1  0
 29 28  2  0
 30 29  1  0
 30 32  2  0
 32 31  1  0
 33 34  1  0
 33 30  1  0
 35 34  2  0
 36 35  1  0
 37 36  2  0
 37 38  1  0
 38 33  2  0
 39 36  1  0
 40 39  1  0
 41 40  2  0
 42 41  1  0
 43 42  2  0
 43 44  1  0
 44 45  2  0
 45 40  1  0
 45 46  1  0
 47 43  1  0
 48 29  1  0
 49 48  1  0
 49 51  1  0
 50 48  2  0
 52 49  1  0
 53 55  1  0
 54 53  1  0
 57 58  1  0
 57 56  1  0
 60 65  1  0
 60 58  1  0
 61 71  1  0
 61 69  1  0
 62 64  1  0
 64 63  1  0
 64 65  2  0
 66 60  2  0
 67 62  2  0
 67 66  1  0
 68 62  1  0
 68 61  1  0
 69 63  1  0
 69 59  1  0
 70 59  2  0
 71 73  2  0
 72 71  1  0
 74 72  1  0
 75 84  2  0
 75 80  1  0
 76 72  1  0
 76 80  1  0
 77 76  1  0
 78 79  1  0
 78 77  1  0
 79 75  1  0
 80 81  2  0
 81 82  1  0
 83 82  2  0
 84 83  1  0
 85 59  1  0
 85 90  1  0
 85 86  1  0
 86 87  1  1
 86 89  1  0
 88 86  1  0
 90 93  1  0
 91 95  1  0
 91 90  1  0
 92 91  2  0
 95 94  1  0
 95 97  1  0
 97 96  1  0
 98 97  1  0
M  ISO  4  18 100  26 100  57 101  58 101
M  END
>  <TORSDO>  (74) 
F 19

>  <SCORE>  (74) 
-5.991

>  <name>  (74) 
73

>  <ligand_id>  (74) 
73

>  <original_smiles>  (74) 
[H]c1c([H])c([H])c2c(c1[H])C([H])([H])C([H])([H])C([H])([H])C2([H])N([H])C(=O)C1([H])N(C(=O)C([H])(N([H])C(=O)C([H])(N([H])C([H])([H])[H])C([H])([H])[H])C(C([H])([H])[H])(C([H])([H])[H])C([H])([H])[H])C([H])([H])c2c([H])c(OC([H])([H])C([H])([H])n3c([O-])c([H])n(-c4c([H])c(N([H])C(=O)N5C([H])([H])C([H])([H])C([H])([H])C([H])(n6nc(-c7c([H])c([H])c(Oc8c([H])c([H])c(F)c([H])c8F)c([H])c7[H])c(C(=O)N([H])[H])c6N([H])[H])C5([H])[H])c(C([H])([H])[H])c([H])c4C([H])([H])[H])c(=O)c3=O)c([H])c([H])c2C1([H])[H]

>  <smiles>  (74) 
[H]c1c([H])c([H])c2c(c1[H])C([H])([H])C([H])([H])C([H])([H])C2([H])N([H])C(=O)C1([H])N(C(=O)C([H])(N([H])C(=O)C([H])(N([H])C([H])([H])[H])C([H])([H])[H])C(C([H])([H])[H])(C([H])([H])[H])C([H])([H])[H])C([H])([H])c2c([H])c(OC([H])([H])C([H])([H])n3c([O-])c([H])n(-c4c([H])c(N([H])C(=O)N5C([H])([H])C([H])([H])C([H])([H])C([H])(n6nc(-c7c([H])c([H])c(Oc8c([H])c([H])c(F)c([H])c8F)c([H])c7[H])c(C(=O)N([H])[H])c6N([H])[H])C5([H])[H])c(C([H])([H])[H])c([H])c4C([H])([H])[H])c(=O)c3=O)c([H])c([H])c2C1([H])[H]

$$$$
74:0:0
     RDKit          3D

 95104  0  0  1  0  0  0  0  0999 V2000
  -28.5200  -21.7340   19.0470 C   0  0  0  0  0  0  0  0  0  0  0  0
  -28.5740  -23.2240   18.6670 C   0  0  0  0  0  2  0  0  0  0  0  0
  -29.1320  -23.7970   21.0140 C   0  0  0  0  0  2  0  0  0  0  0  0
  -28.8340  -22.3420   21.4420 C   0  0  0  0  0  2  0  0  0  0  0  0
  -28.2720  -24.2090   19.8120 C   0  0  0  0  0  3  0  0  0  0  0  0
  -28.7010  -21.3610   20.3410 N   0  0  0  0  0  0  0  0  0  0  0  0
  -28.3010  -20.9220   18.1430 O   0  0  0  0  0  0  0  0  0  0  0  0
  -28.4000  -19.9690   20.7560 C   0  0  0  0  0  2  0  0  0  0  0  0
  -30.8230  -19.3060   21.3180 C   0  0  0  0  0  3  0  0  0  0  0  0
  -31.7810  -18.3120   21.5920 C   0  0  0  0  0  3  0  0  0  0  0  0
  -29.2800  -17.5720   20.5880 C   0  0  0  0  0  3  0  0  0  0  0  0
  -29.5430  -18.9420   20.8490 C   0  0  0  0  0  0  0  0  0  0  0  0
  -31.5060  -16.9440   21.3660 C   0  0  0  0  0  0  0  0  0  0  0  0
  -30.2580  -16.5660   20.8010 C   0  0  0  0  0  0  0  0  0  0  0  0
  -32.5470  -15.9280   21.8030 C   0  0  0  0  0  1  0  0  0  0  0  0
  -30.4390  -14.3220   19.6830 C   0  0  0  0  0  0  0  0  0  0  0  0
  -29.9740  -12.2430   18.4130 C   0  0  0  0  0  2  0  0  0  0  0  0
  -28.8680  -12.4880   17.3650 C   0  0  0  0  0  2  0  0  0  0  0  0
  -27.4710  -12.3070   17.9910 C   0  0  0  0  0  2  0  0  0  0  0  0
  -27.3140  -13.0840   19.3250 C   0  0  0  0  0  3  0  0  0  0  0  0
  -28.5080  -12.8000   20.2600 C   0  0  0  0  0  2  0  0  0  0  0  0
  -29.7460  -13.1560   19.5430 N   0  0  0  0  0  0  0  0  0  0  0  0
  -31.4420  -14.5810   19.0080 O   0  0  0  0  0  0  0  0  0  0  0  0
  -29.8980  -15.2020   20.5560 N   0  0  0  0  0  0  0  0  0  0  0  0
  -29.0170  -14.9020   20.9430 H   0  0  0  0  0  0  0  0  0  0  0  0
  -25.0350  -13.6420   20.3860 C   0  0  0  0  0  0  0  0  0  0  0  0
  -24.0310  -12.8460   20.8670 C   0  0  0  0  0  0  0  0  0  0  0  0
  -24.4890  -11.4990   20.7150 C   0  0  0  0  0  0  0  0  0  0  0  0
  -26.0400  -12.7800   19.9750 N   0  0  0  0  0  0  0  0  0  0  0  0
  -25.7220  -11.4850   20.2320 N   0  0  0  0  0  0  0  0  0  0  0  0
  -23.8030  -10.2240   20.9510 C   0  0  0  0  0  0  0  0  0  0  0  0
  -24.2800   -9.2920   21.9010 C   0  0  0  0  0  3  0  0  0  0  0  0
  -23.5910   -8.0810   22.1210 C   0  0  0  0  0  3  0  0  0  0  0  0
  -22.4120   -7.7910   21.3940 C   0  0  0  0  0  0  0  0  0  0  0  0
  -21.9550   -8.7110   20.4350 C   0  0  0  0  0  3  0  0  0  0  0  0
  -22.6440   -9.9150   20.2110 C   0  0  0  0  0  3  0  0  0  0  0  0
  -21.6930   -6.6270   21.5250 O   0  0  0  0  0  0  0  0  0  0  0  0
  -21.6160   -5.9580   22.7190 C   0  0  0  0  0  0  0  0  0  0  0  0
  -21.0720   -6.5610   23.8740 C   0  0  0  0  0  3  0  0  0  0  0  0
  -20.9530   -5.8180   25.0670 C   0  0  0  0  0  3  0  0  0  0  0  0
  -21.3560   -4.4690   25.1000 C   0  0  0  0  0  0  0  0  0  0  0  0
  -21.8870   -3.8650   23.9480 C   0  0  0  0  0  3  0  0  0  0  0  0
  -22.0140   -4.6080   22.7600 C   0  0  0  0  0  0  0  0  0  0  0  0
  -22.5080   -4.0140   21.6470 F   0  0  0  0  0  0  0  0  0  0  0  0
  -21.2300   -3.7530   26.2420 F   0  0  0  0  0  0  0  0  0  0  0  0
  -22.6840  -13.2970   21.3530 C   0  0  0  0  0  0  0  0  0  0  0  0
  -22.1030  -12.5730   22.3020 N   0  0  0  0  0  0  0  0  0  0  0  0
  -22.1630  -14.3250   20.9270 O   0  0  0  0  0  0  0  0  0  0  0  0
  -22.5370  -11.7390   22.6670 H   0  0  0  0  0  0  0  0  0  0  0  0
  -21.2080  -12.8600   22.6730 H   0  0  0  0  0  0  0  0  0  0  0  0
  -25.1780  -15.0210   20.2470 N   0  0  0  0  0  0  0  0  0  0  0  0
  -24.4600  -15.6830   20.5210 H   0  0  0  0  0  0  0  0  0  0  0  0
  -26.0010  -15.4660   19.8630 H   0  0  0  0  0  0  0  0  0  0  0  0
  -28.5350  -25.6610   19.3350 C   0  0  0  0  0  2  0  0  0  0  0  0
  -28.2090  -26.6750   20.2840 O   0  0  0  0  0  0  0  0  0  0  0  0
  -24.3870  -31.8470   23.2210 C   0  0  0  0  0  0  0  0  0  0  0  0
  -27.0130  -27.3600   20.2150 C   0  0  0  0  0  0  0  0  0  0  0  0
  -23.1740  -30.4470   21.5800 C   0  0  0  0  0  3  0  0  0  0  0  0
  -24.6190  -28.8750   20.1810 C   0  0  0  0  0  0  0  0  0  0  0  0
  -25.7010  -30.7790   21.3950 C   0  0  0  0  0  2  0  0  0  0  0  0
  -25.7730  -29.3990   20.7770 C   0  0  0  0  0  0  0  0  0  0  0  0
  -26.9640  -28.6450   20.7980 C   0  0  0  0  0  3  0  0  0  0  0  0
  -25.8390  -26.8430   19.6140 C   0  0  0  0  0  3  0  0  0  0  0  0
  -24.6470  -27.5960   19.5960 C   0  0  0  0  0  3  0  0  0  0  0  0
  -23.3810  -29.7410   20.2090 C   0  0  0  0  0  2  0  0  0  0  0  0
  -24.4390  -31.0420   22.1230 N   0  0  0  0  0  0  0  0  0  0  0  0
  -23.3070  -32.1340   23.7550 O   0  0  0  0  0  0  0  0  0  0  0  0
  -22.5050  -29.4480   22.5480 C   0  0  0  0  0  0  0  0  0  0  0  0
  -21.1830  -29.2580   22.3950 N   0  0  0  0  0  0  0  0  0  0  0  0
  -23.1720  -28.8410   23.3890 O   0  0  0  0  0  0  0  0  0  0  0  0
  -20.7080  -29.7840   21.6750 H   0  0  0  0  0  0  0  0  0  0  0  0
  -17.8060  -28.0640   22.8430 C   0  0  0  0  0  0  0  0  0  0  0  0
  -20.3540  -28.3380   23.1720 C   0  0  0  0  0  3  0  0  0  0  0  0
  -20.4740  -26.8930   22.6350 C   0  0  0  0  0  2  0  0  0  0  0  0
  -19.4010  -26.5410   21.6060 C   0  0  0  0  0  2  0  0  0  0  0  0
  -18.0020  -26.6970   22.2080 C   0  0  0  0  0  2  0  0  0  0  0  0
  -18.9120  -28.8410   23.2840 C   0  0  0  0  0  0  0  0  0  0  0  0
  -18.6750  -30.1200   23.8350 C   0  0  0  0  0  3  0  0  0  0  0  0
  -17.3650  -30.6190   23.9580 C   0  0  0  0  0  3  0  0  0  0  0  0
  -16.2730  -29.8410   23.5360 C   0  0  0  0  0  3  0  0  0  0  0  0
  -16.4940  -28.5650   22.9820 C   0  0  0  0  0  3  0  0  0  0  0  0
  -25.6780  -32.4690   23.8430 C   0  0  0  0  0  3  0  0  0  0  0  0
  -26.1730  -31.7140   25.1380 C   0  0  1  0  0  0  0  0  0  0  0  0
  -25.0670  -31.5050   26.1970 C   0  0  0  0  0  1  0  0  0  0  0  0
  -26.7430  -30.3240   24.7710 C   0  0  0  0  0  1  0  0  0  0  0  0
  -27.3260  -32.5040   25.8010 C   0  0  0  0  0  1  0  0  0  0  0  0
  -25.3880  -33.8780   24.1410 N   0  0  0  0  0  0  0  0  0  0  0  0
  -25.7460  -34.9110   23.3640 C   0  0  0  0  0  0  0  0  0  0  0  0
  -26.4250  -34.7760   22.3410 O   0  0  0  0  0  0  0  0  0  0  0  0
  -24.7860  -34.0600   24.9310 H   0  0  0  0  0  0  0  0  0  0  0  0
  -24.0470  -36.7220   22.9630 C   0  0  0  0  0  1  0  0  0  0  0  0
  -25.2770  -36.3130   23.7890 C   0  0  0  0  0  3  0  0  0  0  0  0
  -27.4140  -37.1880   24.6230 C   0  0  0  0  0  1  0  0  0  0  0  0
  -26.3270  -37.3470   23.6620 N   0  0  0  0  0  0  0  0  0  0  0  0
  -25.9310  -38.2750   23.7790 H   0  0  0  0  0  0  0  0  0  0  0  0
  1  6  1  0
  2  1  1  0
  2  5  1  0
  3  4  1  0
  5 54  1  0
  5  3  1  0
  6  8  1  0
  6  4  1  0
  7  1  2  0
  8 12  1  0
  9 10  1  0
 11 14  2  0
 11 12  1  0
 12  9  2  0
 13 10  2  0
 13 15  1  0
 14 13  1  0
 16 24  1  0
 17 22  1  0
 18 19  1  0
 18 17  1  0
 20 19  1  0
 20 29  1  0
 20 21  1  0
 22 16  1  0
 22 21  1  0
 23 16  2  0
 24 14  1  0
 24 25  1  0
 26 27  2  0
 27 46  1  0
 28 27  1  0
 28 31  1  0
 29 30  1  0
 29 26  1  0
 30 28  2  0
 31 32  1  0
 32 33  2  0
 34 37  1  0
 34 33  1  0
 35 34  2  0
 36 35  1  0
 36 31  2  0
 37 38  1  0
 38 43  2  0
 38 39  1  0
 39 40  2  0
 40 41  1  0
 41 45  1  0
 42 41  2  0
 43 42  1  0
 44 43  1  0
 46 47  1  0
 47 49  1  0
 47 50  1  0
 48 46  2  0
 51 26  1  0
 51 52  1  0
 53 51  1  0
 54 55  1  0
 56 67  2  0
 57 55  1  0
 57 62  1  0
 58 66  1  0
 58 68  1  0
 59 65  1  0
 59 61  1  0
 60 66  1  0
 61 62  2  0
 61 60  1  0
 63 57  2  0
 64 63  1  0
 64 59  2  0
 65 58  1  0
 66 56  1  0
 68 70  2  0
 69 68  1  0
 71 69  1  0
 72 81  2  0
 72 77  1  0
 73 69  1  0
 73 77  1  0
 74 73  1  0
 75 76  1  0
 75 74  1  0
 76 72  1  0
 77 78  2  0
 78 79  1  0
 80 79  2  0
 81 80  1  0
 82 56  1  0
 82 87  1  0
 82 83  1  0
 83 86  1  1
 83 84  1  0
 85 83  1  0
 87 90  1  0
 88 92  1  0
 88 87  1  0
 89 88  2  0
 92 91  1  0
 94 95  1  0
 94 92  1  0
 94 93  1  0
M  ISO  4  16 100  24 100  54 101  55 101
M  END
>  <TORSDO>  (75) 
F 19

>  <SCORE>  (75) 
-10.963

>  <name>  (75) 
74

>  <ligand_id>  (75) 
74

>  <original_smiles>  (75) 
[H]c1c([H])c([H])c2c(c1[H])C([H])([H])C([H])([H])C([H])([H])C2([H])N([H])C(=O)C1([H])N(C(=O)C([H])(N([H])C(=O)C([H])(N([H])C([H])([H])[H])C([H])([H])[H])C(C([H])([H])[H])(C([H])([H])[H])C([H])([H])[H])C([H])([H])c2c([H])c(OC([H])([H])C3([H])C([H])([H])C(=O)N(C([H])([H])c4c([H])c([H])c(C([H])([H])[H])c(N([H])C(=O)N5C([H])([H])C([H])([H])C([H])([H])C([H])(n6nc(-c7c([H])c([H])c(Oc8c([H])c([H])c(F)c([H])c8F)c([H])c7[H])c(C(=O)N([H])[H])c6N([H])[H])C5([H])[H])c4[H])C([H])([H])C3([H])[H])c([H])c([H])c2C1([H])[H]

>  <smiles>  (75) 
[H]c1c([H])c([H])c2c(c1[H])C([H])([H])C([H])([H])C([H])([H])C2([H])N([H])C(=O)C1([H])N(C(=O)C([H])(N([H])C(=O)C([H])(N([H])C([H])([H])[H])C([H])([H])[H])C(C([H])([H])[H])(C([H])([H])[H])C([H])([H])[H])C([H])([H])c2c([H])c(OC([H])([H])C3([H])C([H])([H])C(=O)N(C([H])([H])c4c([H])c([H])c(C([H])([H])[H])c(N([H])C(=O)N5C([H])([H])C([H])([H])C([H])([H])C([H])(n6nc(-c7c([H])c([H])c(Oc8c([H])c([H])c(F)c([H])c8F)c([H])c7[H])c(C(=O)N([H])[H])c6N([H])[H])C5([H])[H])c4[H])C([H])([H])C3([H])[H])c([H])c([H])c2C1([H])[H]

$$$$
75:0:0
     RDKit          3D

 92 95  0  0  1  0  0  0  0  0999 V2000
  -25.6550  -16.8070   19.2960 C   0  0  0  0  0  2  0  0  0  0  0  0
  -25.8710  -15.2100   18.7990 N   0  0  0  0  0  4  0  0  0  0  0  0
  -24.7920  -16.8680   20.1680 O   0  0  0  0  0  1  0  0  0  0  0  0
  -26.5250  -15.3310   18.0400 H   0  0  0  0  0  0  0  0  0  0  0  0
  -24.3720  -11.1750   21.3170 C   0  0  0  0  0  2  0  0  0  0  0  0
  -26.0350  -10.3850   21.7280 C   0  0  0  0  0  2  0  0  0  0  0  0
  -24.3410  -12.4170   19.8210 C   0  0  0  0  0  2  0  0  0  0  0  0
  -27.4760  -10.9280   20.4710 C   0  0  0  0  0 15  0  0  0  0  0  0
  -25.7390  -13.3270   19.0720 C   0  0  0  0  0  0  0  0  0  0  0  0
  -27.3110  -12.4860   19.2490 C   0  0  0  0  0  2  0  0  0  0  0  0
  -30.0600  -14.4310   19.3830 C   0  0  0  0  0  0  0  0  0  0  0  0
  -31.8580  -12.9150   19.4160 C   0  0  0  0  0  2  0  0  0  0  0  0
  -30.9130  -12.0780   18.6070 C   0  0  0  0  0  2  0  0  0  0  0  0
  -29.8290  -11.6720   19.6730 C   0  0  0  0  0  2  0  0  0  0  0  0
  -29.2710  -12.6930   21.1210 C   0  0  0  0  0  3  0  0  0  0  0  0
  -30.5410  -13.2770   21.4890 C   0  0  0  0  0  2  0  0  0  0  0  0
  -30.9490  -13.7610   20.1850 N   0  0  0  0  0  0  0  0  0  0  0  0
  -30.7980  -15.4270   19.1220 O   0  0  0  0  0  0  0  0  0  0  0  0
  -28.5970  -13.7960   18.9370 N   0  0  0  0  0  0  0  0  0  0  0  0
  -28.2280  -14.4570   18.2720 H   0  0  0  0  0  0  0  0  0  0  0  0
  -26.7800  -14.1820   21.5020 C   0  0  2  0  0  0  0  0  0  0  0  0
  -25.6060  -13.5640   21.9440 C   0  0  0  0  0  3  0  0  0  0  0  0
  -26.2010  -12.4460   21.4390 C   0  0  0  0  0  3  0  0  0  0  0  0
  -27.8670  -13.2250   21.5900 N   0  0  0  0  0  0  0  0  0  0  0  0
  -27.2120  -12.5210   22.3510 N   0  0  0  0  0  2  0  0  0  0  0  0
  -25.5290  -10.1280   19.8870 C   0  0  0  0  0  3  0  0  0  0  0  0
  -25.4770   -8.6810   20.5660 C   0  0  0  0  0  2  0  0  0  0  0  0
  -24.4480   -8.0430   21.4480 C   0  0  0  0  0  2  0  0  0  0  0  0
  -23.1040   -8.1810   21.0940 C   0  0  0  0  0  0  0  0  0  0  0  0
  -23.0330   -9.0340   19.9510 C   0  0  0  0  0  3  0  0  0  0  0  0
  -24.1660   -9.7590   19.3280 C   0  0  0  0  0  2  0  0  0  0  0  0
  -22.0490   -7.2810   21.3930 O   0  0  0  0  0  0  0  0  0  0  0  0
  -21.6760   -6.6710   22.6030 C   0  0  0  0  0  0  0  0  0  0  0  0
  -20.9170   -7.3670   23.5750 C   0  0  0  0  0  3  0  0  0  0  0  0
  -20.3610   -6.7010   24.6980 C   0  0  0  0  0  3  0  0  0  0  0  0
  -20.5460   -5.3170   24.8740 C   0  0  0  0  0  0  0  0  0  0  0  0
  -21.2790   -4.6000   23.9140 C   0  0  0  0  0  3  0  0  0  0  0  0
  -21.8250   -5.2630   22.7890 C   0  0  0  0  0  0  0  0  0  0  0  0
  -22.4680   -4.5130   21.8630 F   0  0  0  0  0  0  0  0  0  0  0  0
  -20.0210   -4.6800   25.9530 F   0  0  0  0  0  0  0  0  0  0  0  0
  -24.0860  -13.8380   22.1040 C   0  0  0  0  0  0  0  0  0  0  0  0
  -23.4150  -13.0320   22.9410 N   0  0  0  0  0  0  0  0  0  0  0  0
  -23.4100  -14.4470   21.2800 O   0  0  0  0  0  0  0  0  0  0  0  0
  -23.9220  -12.4100   23.5530 H   0  0  0  0  0  0  0  0  0  0  0  0
  -22.4080  -13.0730   22.9910 H   0  0  0  0  0  0  0  0  0  0  0  0
  -27.0460  -15.4400   21.1130 N   0  0  0  0  0  0  0  0  0  0  0  0
  -26.3220  -16.1490   21.1470 H   0  0  0  0  0  0  0  0  0  0  0  0
  -27.9770  -15.8160   20.9890 H   0  0  0  0  0  0  0  0  0  0  0  0
  -26.2310  -18.7520   19.0420 C   0  0  0  0  0 15  0  0  0  0  0  0
  -26.4110  -20.7400   19.8600 C   0  0  0  0  0 15  0  0  0  0  0  0
  -26.6990  -22.8630   19.6150 C   0  0  0  0  0 15  0  0  0  0  0  0
  -27.2740  -24.6160   20.2250 O   0  0  0  0  0  1  0  0  0  0  0  0
  -24.6040  -31.6710   23.0270 C   0  0  0  0  0  0  0  0  0  0  0  0
  -26.7840  -26.1550   20.1680 C   0  0  0  0  0  0  0  0  0  0  0  0
  -23.4790  -30.2330   21.4170 C   0  0  0  0  0  3  0  0  0  0  0  0
  -24.8960  -28.5450   20.0350 C   0  0  0  0  0  0  0  0  0  0  0  0
  -26.0690  -30.2150   21.4240 C   0  0  0  0  0  2  0  0  0  0  0  0
  -26.0700  -28.7480   20.7610 C   0  0  0  0  0  0  0  0  0  0  0  0
  -27.0240  -27.5610   20.8120 C   0  0  0  0  0  3  0  0  0  0  0  0
  -25.6970  -26.3030   19.3190 C   0  0  0  0  0  3  0  0  0  0  0  0
  -24.7800  -27.3730   19.2880 C   0  0  0  0  0  3  0  0  0  0  0  0
  -23.7530  -29.5600   20.0490 C   0  0  0  0  0  2  0  0  0  0  0  0
  -24.7520  -30.7540   22.0010 N   0  0  0  0  0  0  0  0  0  0  0  0
  -23.4850  -31.9900   23.4720 O   0  0  0  0  0  0  0  0  0  0  0  0
  -22.7460  -29.2560   22.3770 C   0  0  0  0  0  0  0  0  0  0  0  0
  -21.4060  -29.1570   22.2820 N   0  0  0  0  0  0  0  0  0  0  0  0
  -23.3930  -28.5990   23.1950 O   0  0  0  0  0  0  0  0  0  0  0  0
  -20.9310  -29.7380   21.6060 H   0  0  0  0  0  0  0  0  0  0  0  0
  -17.9780  -28.1700   22.9750 C   0  0  0  0  0  0  0  0  0  0  0  0
  -20.5640  -28.2460   23.0680 C   0  0  0  0  0  3  0  0  0  0  0  0
  -20.5200  -26.8390   22.4260 C   0  0  0  0  0  2  0  0  0  0  0  0
  -19.3340  -26.6470   21.4770 C   0  0  0  0  0  2  0  0  0  0  0  0
  -18.0110  -26.8510   22.2210 C   0  0  0  0  0  2  0  0  0  0  0  0
  -19.1750  -28.8320   23.3590 C   0  0  0  0  0  0  0  0  0  0  0  0
  -19.0840  -30.0690   24.0340 C   0  0  0  0  0  3  0  0  0  0  0  0
  -17.8330  -30.6420   24.3240 C   0  0  0  0  0  3  0  0  0  0  0  0
  -16.6510  -29.9770   23.9510 C   0  0  0  0  0  3  0  0  0  0  0  0
  -16.7260  -28.7420   23.2830 C   0  0  0  0  0  3  0  0  0  0  0  0
  -25.8200  -32.3810   23.6900 C   0  0  0  0  0  3  0  0  0  0  0  0
  -26.3210  -31.6490   24.9970 C   0  0  1  0  0  0  0  0  0  0  0  0
  -25.2020  -31.3700   26.0290 C   0  0  0  0  0  1  0  0  0  0  0  0
  -26.9820  -30.2950   24.6610 C   0  0  0  0  0  1  0  0  0  0  0  0
  -27.4090  -32.5030   25.6900 C   0  0  0  0  0  1  0  0  0  0  0  0
  -25.4190  -33.7660   24.0330 N   0  0  0  0  0  0  0  0  0  0  0  0
  -25.7490  -34.8690   23.3470 C   0  0  0  0  0  0  0  0  0  0  0  0
  -26.4790  -34.8340   22.3560 O   0  0  0  0  0  0  0  0  0  0  0  0
  -24.7690  -33.8620   24.7990 H   0  0  0  0  0  0  0  0  0  0  0  0
  -23.9990  -36.6470   22.9580 C   0  0  0  0  0  1  0  0  0  0  0  0
  -25.1890  -36.2240   23.8360 C   0  0  0  0  0  3  0  0  0  0  0  0
  -27.2110  -37.1460   24.8870 C   0  0  0  0  0  1  0  0  0  0  0  0
  -26.1930  -37.3120   23.8530 N   0  0  0  0  0  0  0  0  0  0  0  0
  -25.7450  -38.2130   23.9920 H   0  0  0  0  0  0  0  0  0  0  0  0
  1  3  1  0
  2  9  2  0
  2  1  1  0
  4  2  1  0
  5  6  1  0
  7  5  1  0
  9 10  1  0
  9  7  1  0
 11 17  1  0
 12 17  1  0
 13 12  1  0
 13 14  1  0
 15 14  1  0
 15 16  1  0
 15 24  1  0
 17 16  1  0
 18 11  2  0
 19 10  1  0
 19 11  1  0
 20 19  1  0
 21 46  1  6
 21 24  1  0
 21 22  1  0
 22 41  1  0
 23 21  1  0
 23 22  1  0
 23 25  1  0
 24 25  1  0
 26 27  1  0
 26  6  1  0
 27 28  1  0
 29 32  1  0
 29 28  1  0
 30 29  2  0
 31 26  1  0
 31 30  1  0
 32 33  1  0
 33 38  2  0
 33 34  1  0
 34 35  2  0
 35 36  1  0
 36 40  1  0
 37 36  2  0
 38 37  1  0
 39 38  1  0
 41 42  1  0
 42 45  1  0
 42 44  1  0
 43 41  2  0
 46 47  1  0
 48 46  1  0
 53 64  2  0
 54 52  1  0
 54 59  1  0
 55 63  1  0
 55 65  1  0
 56 62  1  0
 56 58  1  0
 57 63  1  0
 58 59  2  0
 58 57  1  0
 60 54  2  0
 61 60  1  0
 61 56  2  0
 62 55  1  0
 63 53  1  0
 65 67  2  0
 66 65  1  0
 68 66  1  0
 69 78  2  0
 69 74  1  0
 70 66  1  0
 70 74  1  0
 71 70  1  0
 72 73  1  0
 72 71  1  0
 73 69  1  0
 74 75  2  0
 75 76  1  0
 77 76  2  0
 78 77  1  0
 79 53  1  0
 79 84  1  0
 79 80  1  0
 80 83  1  1
 80 81  1  0
 82 80  1  0
 84 87  1  0
 85 89  1  0
 85 84  1  0
 86 85  2  0
 89 88  1  0
 89 91  1  0
 91 92  1  0
 91 90  1  0
M  ISO  4  11 100  19 100  51 101  52 101
M  END
>  <TORSDO>  (76) 
F 20

>  <SCORE>  (76) 
-3.773

>  <name>  (76) 
75

>  <ligand_id>  (76) 
75

>  <original_smiles>  (76) 
[H]c1c([H])c([H])c(N([H])C(=O)C([H])([H])C([H])([H])C([H])([H])Oc2c([H])c([H])c3c(c2[H])C([H])([H])N(C(=O)C([H])(N([H])C(=O)C([H])(N([H])C([H])([H])[H])C([H])([H])[H])C(C([H])([H])[H])(C([H])([H])[H])C([H])([H])[H])C([H])(C(=O)N([H])C2([H])c4c([H])c([H])c([H])c([H])c4C([H])([H])C([H])([H])C2([H])[H])C3([H])[H])c(N([H])C(=O)N2C([H])([H])C([H])([H])C([H])([H])C([H])(n3nc(-c4c([H])c([H])c(Oc5c([H])c([H])c(F)c([H])c5F)c([H])c4[H])c(C(=O)N([H])[H])c3N([H])[H])C2([H])[H])c1[H]

>  <smiles>  (76) 
[H]c1c([H])c([H])c(N([H])C(=O)C([H])([H])C([H])([H])C([H])([H])Oc2c([H])c([H])c3c(c2[H])C([H])([H])N(C(=O)C([H])(N([H])C(=O)C([H])(N([H])C([H])([H])[H])C([H])([H])[H])C(C([H])([H])[H])(C([H])([H])[H])C([H])([H])[H])C([H])(C(=O)N([H])C2([H])c4c([H])c([H])c([H])c([H])c4C([H])([H])C([H])([H])C2([H])[H])C3([H])[H])c(N([H])C(=O)N2C([H])([H])C([H])([H])C([H])([H])C([H])(n3nc(-c4c([H])c([H])c(Oc5c([H])c([H])c(F)c([H])c5F)c([H])c4[H])c(C(=O)N([H])[H])c3N([H])[H])C2([H])[H])c1[H]

$$$$
76:0:0
     RDKit          3D

 94102  0  0  1  0  0  0  0  0999 V2000
  -29.7110  -21.5620   17.4490 N   0  0  0  0  0  2  0  0  0  0  0  0
  -31.7080  -21.5770   19.1210 O   0  0  0  0  0  1  0  0  0  0  0  0
  -30.3650  -21.0720   18.7880 S   0  0  2  0  0  0  0  0  0  0  0  0
  -28.8070  -21.1040   17.2900 H   0  0  0  0  0  0  0  0  0  0  0  0
  -31.3250  -17.2930   17.4590 C   0  0  0  0  0  3  0  0  0  0  0  0
  -30.9520  -16.4380   18.4950 C   0  0  0  0  0  3  0  0  0  0  0  0
  -30.1190  -18.3350   19.7910 C   0  0  0  0  0  3  0  0  0  0  0  0
  -31.1450  -18.6770   17.5780 C   0  0  0  0  0  0  0  0  0  0  0  0
  -30.3890  -16.9250   19.6970 C   0  0  0  0  0  0  0  0  0  0  0  0
  -30.4860  -19.2230   18.7240 C   0  0  0  0  0  0  0  0  0  0  0  0
  -31.7470  -19.5140   16.4550 C   0  0  0  0  0  1  0  0  0  0  0  0
  -30.8670  -14.8290   20.9160 C   0  0  0  0  0  0  0  0  0  0  0  0
  -30.7060  -12.5480   20.0260 C   0  0  0  0  0  2  0  0  0  0  0  0
  -29.8850  -12.5830   18.7190 C   0  0  0  0  0  2  0  0  0  0  0  0
  -28.3820  -12.4520   19.0200 C   0  0  0  0  0  2  0  0  0  0  0  0
  -27.9000  -13.3980   20.1530 C   0  0  0  0  0  3  0  0  0  0  0  0
  -28.8510  -13.3670   21.3700 C   0  0  0  0  0  2  0  0  0  0  0  0
  -30.2110  -13.6360   20.8870 N   0  0  0  0  0  0  0  0  0  0  0  0
  -32.0890  -14.9050   20.7860 O   0  0  0  0  0  0  0  0  0  0  0  0
  -30.1120  -15.9500   20.7360 N   0  0  0  0  0  0  0  0  0  0  0  0
  -29.1560  -15.9000   21.0530 H   0  0  0  0  0  0  0  0  0  0  0  0
  -25.4490  -13.9840   20.6540 C   0  0  0  0  0  0  0  0  0  0  0  0
  -24.3630  -13.2040   20.9480 C   0  0  0  0  0  0  0  0  0  0  0  0
  -24.8420  -11.8590   20.9910 C   0  0  0  0  0  0  0  0  0  0  0  0
  -26.5200  -13.1130   20.5330 N   0  0  0  0  0  0  0  0  0  0  0  0
  -26.1550  -11.8310   20.7990 N   0  0  0  0  0  0  0  0  0  0  0  0
  -24.1180  -10.5910   21.1460 C   0  0  0  0  0  0  0  0  0  0  0  0
  -24.4910   -9.6410   22.1220 C   0  0  0  0  0  3  0  0  0  0  0  0
  -23.7670   -8.4380   22.2640 C   0  0  0  0  0  3  0  0  0  0  0  0
  -22.6560   -8.1750   21.4280 C   0  0  0  0  0  0  0  0  0  0  0  0
  -22.3030   -9.1130   20.4420 C   0  0  0  0  0  3  0  0  0  0  0  0
  -23.0280  -10.3080   20.2980 C   0  0  0  0  0  3  0  0  0  0  0  0
  -21.9080   -7.0230   21.4780 O   0  0  0  0  0  0  0  0  0  0  0  0
  -21.7910   -6.2910   22.6320 C   0  0  0  0  0  0  0  0  0  0  0  0
  -21.2850   -6.8540   23.8250 C   0  0  0  0  0  3  0  0  0  0  0  0
  -21.1160   -6.0480   24.9680 C   0  0  0  0  0  3  0  0  0  0  0  0
  -21.4420   -4.6800   24.9200 C   0  0  0  0  0  0  0  0  0  0  0  0
  -21.9420   -4.1160   23.7320 C   0  0  0  0  0  3  0  0  0  0  0  0
  -22.1130   -4.9200   22.5920 C   0  0  0  0  0  0  0  0  0  0  0  0
  -22.5750   -4.3670   21.4430 F   0  0  0  0  0  0  0  0  0  0  0  0
  -21.2720   -3.9020   26.0140 F   0  0  0  0  0  0  0  0  0  0  0  0
  -22.9420  -13.6680   21.0830 C   0  0  0  0  0  0  0  0  0  0  0  0
  -22.1500  -12.9860   21.9020 N   0  0  0  0  0  0  0  0  0  0  0  0
  -22.5400  -14.6710   20.4960 O   0  0  0  0  0  0  0  0  0  0  0  0
  -22.4870  -12.1760   22.4010 H   0  0  0  0  0  0  0  0  0  0  0  0
  -21.1920  -13.2800   22.0330 H   0  0  0  0  0  0  0  0  0  0  0  0
  -25.6120  -15.3520   20.4560 N   0  0  0  0  0  0  0  0  0  0  0  0
  -24.8250  -15.9920   20.4750 H   0  0  0  0  0  0  0  0  0  0  0  0
  -26.4740  -15.7940   20.1650 H   0  0  0  0  0  0  0  0  0  0  0  0
  -29.1920  -21.8340   20.0200 C   0  0  0  0  0  2  0  0  0  0  0  0
  -28.3050  -24.2960   19.6730 C   0  0  0  0  0  3  0  0  0  0  0  0
  -29.2850  -23.3590   19.7640 C   0  0  0  0  0  3  0  0  0  0  0  0
  -28.5490  -25.7320   19.1630 C   0  0  0  0  0  2  0  0  0  0  0  0
  -28.3290  -26.8090   20.0930 O   0  0  0  0  0  0  0  0  0  0  0  0
  -24.5470  -31.9690   23.2270 C   0  0  0  0  0  0  0  0  0  0  0  0
  -27.1500  -27.5370   20.0660 C   0  0  0  0  0  0  0  0  0  0  0  0
  -23.3170  -30.5730   21.5990 C   0  0  0  0  0  3  0  0  0  0  0  0
  -24.7480  -29.0510   20.1310 C   0  0  0  0  0  0  0  0  0  0  0  0
  -25.8380  -30.9390   21.3550 C   0  0  0  0  0  2  0  0  0  0  0  0
  -25.9150  -29.5690   20.7050 C   0  0  0  0  0  0  0  0  0  0  0  0
  -27.1130  -28.8160   20.6760 C   0  0  0  0  0  3  0  0  0  0  0  0
  -25.9600  -27.0360   19.4910 C   0  0  0  0  0  3  0  0  0  0  0  0
  -24.7670  -27.7840   19.5220 C   0  0  0  0  0  3  0  0  0  0  0  0
  -23.5020  -29.9060   20.2100 C   0  0  0  0  0  2  0  0  0  0  0  0
  -24.5870  -31.1760   22.1180 N   0  0  0  0  0  0  0  0  0  0  0  0
  -23.4760  -32.2320   23.7900 O   0  0  0  0  0  0  0  0  0  0  0  0
  -22.6890  -29.5420   22.5650 C   0  0  0  0  0  0  0  0  0  0  0  0
  -21.3650  -29.3450   22.4540 N   0  0  0  0  0  0  0  0  0  0  0  0
  -23.3890  -28.9230   23.3710 O   0  0  0  0  0  0  0  0  0  0  0  0
  -20.8600  -29.8980   21.7760 H   0  0  0  0  0  0  0  0  0  0  0  0
  -18.0150  -28.0900   22.9700 C   0  0  0  0  0  0  0  0  0  0  0  0
  -20.5690  -28.3950   23.2320 C   0  0  0  0  0  3  0  0  0  0  0  0
  -20.6950  -26.9640   22.6600 C   0  0  0  0  0  2  0  0  0  0  0  0
  -19.5960  -26.6170   21.6510 C   0  0  0  0  0  2  0  0  0  0  0  0
  -18.2140  -26.7400   22.3010 C   0  0  0  0  0  2  0  0  0  0  0  0
  -19.1210  -28.8730   23.3940 C   0  0  0  0  0  0  0  0  0  0  0  0
  -18.8820  -30.1350   23.9800 C   0  0  0  0  0  3  0  0  0  0  0  0
  -17.5690  -30.6150   24.1470 C   0  0  0  0  0  3  0  0  0  0  0  0
  -16.4780  -29.8280   23.7410 C   0  0  0  0  0  3  0  0  0  0  0  0
  -16.7010  -28.5670   23.1590 C   0  0  0  0  0  3  0  0  0  0  0  0
  -25.8410  -32.6030   23.8270 C   0  0  0  0  0  3  0  0  0  0  0  0
  -26.3870  -31.8270   25.0880 C   0  0  1  0  0  0  0  0  0  0  0  0
  -25.3170  -31.5810   26.1780 C   0  0  0  0  0  1  0  0  0  0  0  0
  -26.9660  -30.4540   24.6750 C   0  0  0  0  0  1  0  0  0  0  0  0
  -27.5490  -32.6220   25.7290 C   0  0  0  0  0  1  0  0  0  0  0  0
  -25.5340  -33.9980   24.1680 N   0  0  0  0  0  0  0  0  0  0  0  0
  -25.8600  -35.0560   23.4130 C   0  0  0  0  0  0  0  0  0  0  0  0
  -26.5210  -34.9590   22.3760 O   0  0  0  0  0  0  0  0  0  0  0  0
  -24.9450  -34.1470   24.9750 H   0  0  0  0  0  0  0  0  0  0  0  0
  -24.1310  -36.8510   23.0770 C   0  0  0  0  0  1  0  0  0  0  0  0
  -25.3740  -36.4410   23.8830 C   0  0  0  0  0  3  0  0  0  0  0  0
  -27.5120  -37.3140   24.7140 C   0  0  0  0  0  1  0  0  0  0  0  0
  -26.4070  -37.4930   23.7770 N   0  0  0  0  0  0  0  0  0  0  0  0
  -26.0020  -38.4120   23.9350 H   0  0  0  0  0  0  0  0  0  0  0  0
  1  3  1  0
  3  2  1  1
  3 50  1  0
  4  1  1  0
  5  8  2  0
  5  6  1  0
  6  9  2  0
  8 10  1  0
  9  7  1  0
  9 20  1  0
 10  3  1  0
 10  7  2  0
 11  8  1  0
 13 18  1  0
 14 15  1  0
 14 13  1  0
 16 15  1  0
 16 25  1  0
 16 17  1  0
 18 12  1  0
 18 17  1  0
 19 12  2  0
 20 12  1  0
 20 21  1  0
 22 23  2  0
 23 24  1  0
 23 42  1  0
 24 27  1  0
 25 22  1  0
 25 26  1  0
 26 24  2  0
 27 28  1  0
 28 29  2  0
 30 33  1  0
 30 29  1  0
 31 30  2  0
 32 31  1  0
 32 27  2  0
 33 34  1  0
 34 35  1  0
 35 36  2  0
 37 36  1  0
 37 41  1  0
 38 37  2  0
 39 34  2  0
 39 38  1  0
 40 39  1  0
 42 43  1  0
 43 46  1  0
 43 45  1  0
 44 42  2  0
 47 48  1  0
 47 22  1  0
 49 47  1  0
 51 52  2  0
 52 50  1  0
 53 51  1  0
 53 54  1  0
 55 66  2  0
 56 54  1  0
 56 61  1  0
 57 65  1  0
 57 67  1  0
 58 64  1  0
 58 60  1  0
 59 65  1  0
 60 59  1  0
 61 60  2  0
 62 63  1  0
 62 56  2  0
 63 58  2  0
 64 57  1  0
 65 55  1  0
 67 69  2  0
 68 67  1  0
 70 68  1  0
 71 80  2  0
 71 76  1  0
 72 68  1  0
 72 76  1  0
 73 72  1  0
 74 75  1  0
 74 73  1  0
 75 71  1  0
 76 77  2  0
 77 78  1  0
 79 78  2  0
 80 79  1  0
 81 55  1  0
 81 86  1  0
 81 82  1  0
 82 85  1  1
 82 83  1  0
 84 82  1  0
 86 89  1  0
 87 91  1  0
 87 86  1  0
 88 87  2  0
 91 90  1  0
 93 91  1  0
 93 94  1  0
 93 92  1  0
M  ISO  4  12 100  20 100  53 101  54 101
M  END
>  <TORSDO>  (77) 
F 20

>  <SCORE>  (77) 
-13.447

>  <name>  (77) 
76

>  <ligand_id>  (77) 
76

>  <original_smiles>  (77) 
[H]N=S(=O)(c1c([H])c(N([H])C(=O)N2C([H])([H])C([H])([H])C([H])([H])C([H])(n3nc(-c4c([H])c([H])c(Oc5c([H])c([H])c(F)c([H])c5F)c([H])c4[H])c(C(=O)N([H])[H])c3N([H])[H])C2([H])[H])c([H])c([H])c1C([H])([H])[H])C([H])([H])C([H])=C([H])C([H])([H])Oc1c([H])c([H])c2c(c1[H])C([H])([H])N(C(=O)C([H])(N([H])C(=O)C([H])(N([H])C([H])([H])[H])C([H])([H])[H])C(C([H])([H])[H])(C([H])([H])[H])C([H])([H])[H])C([H])(C(=O)N([H])C1([H])c3c([H])c([H])c([H])c([H])c3C([H])([H])C([H])([H])C1([H])[H])C2([H])[H]

>  <smiles>  (77) 
[H]N=S(=O)(c1c([H])c(N([H])C(=O)N2C([H])([H])C([H])([H])C([H])([H])C([H])(n3nc(-c4c([H])c([H])c(Oc5c([H])c([H])c(F)c([H])c5F)c([H])c4[H])c(C(=O)N([H])[H])c3N([H])[H])C2([H])[H])c([H])c([H])c1C([H])([H])[H])C([H])([H])C([H])=C([H])C([H])([H])Oc1c([H])c([H])c2c(c1[H])C([H])([H])N(C(=O)C([H])(N([H])C(=O)C([H])(N([H])C([H])([H])[H])C([H])([H])[H])C(C([H])([H])[H])(C([H])([H])[H])C([H])([H])[H])C([H])(C(=O)N([H])C1([H])c3c([H])c([H])c([H])c([H])c3C([H])([H])C([H])([H])C1([H])[H])C2([H])[H]

$$$$
77:0:0
     RDKit          3D

 94102  0  0  1  0  0  0  0  0999 V2000
  -28.4770  -21.4880   20.0170 C   0  0  0  0  0  0  0  0  0  0  0  0
  -29.1650  -22.6360   20.2990 N   0  0  0  0  0  0  0  0  0  0  0  0
  -27.2690  -21.5640   19.7800 O   0  0  0  0  0  0  0  0  0  0  0  0
  -30.1620  -22.5300   20.4370 H   0  0  0  0  0  0  0  0  0  0  0  0
  -29.1960  -17.7200   19.1110 C   0  0  0  0  0  3  0  0  0  0  0  0
  -30.1980  -18.1740   21.2390 C   0  0  0  0  0  3  0  0  0  0  0  0
  -29.1250  -20.0690   20.0060 C   0  0  0  0  0  0  0  0  0  0  0  0
  -28.8330  -19.1010   18.9840 C   0  0  0  0  0  0  0  0  0  0  0  0
  -29.8560  -17.2050   20.2550 C   0  0  0  0  0  0  0  0  0  0  0  0
  -29.8590  -19.5610   21.1180 C   0  0  0  0  0  0  0  0  0  0  0  0
  -28.0700  -19.5020   17.7300 C   0  0  0  0  0  1  0  0  0  0  0  0
  -30.1830  -20.3920   22.1390 F   0  0  0  0  0  0  0  0  0  0  0  0
  -30.6840  -14.7490   19.9610 C   0  0  0  0  0  0  0  0  0  0  0  0
  -30.4500  -12.5060   18.9000 C   0  0  0  0  0  2  0  0  0  0  0  0
  -29.4260  -12.6260   17.7470 C   0  0  0  0  0  2  0  0  0  0  0  0
  -27.9860  -12.4510   18.2680 C   0  0  0  0  0  2  0  0  0  0  0  0
  -27.7020  -13.3010   19.5360 C   0  0  0  0  0  3  0  0  0  0  0  0
  -28.8290  -13.1380   20.5790 C   0  0  0  0  0  2  0  0  0  0  0  0
  -30.0960  -13.5080   19.9280 N   0  0  0  0  0  0  0  0  0  0  0  0
  -31.7870  -14.9450   19.4390 O   0  0  0  0  0  0  0  0  0  0  0  0
  -29.9470  -15.7610   20.5260 N   0  0  0  0  0  0  0  0  0  0  0  0
  -29.1710  -15.4050   21.0640 H   0  0  0  0  0  0  0  0  0  0  0  0
  -25.3670  -13.8870   20.4380 C   0  0  0  0  0  0  0  0  0  0  0  0
  -24.3230  -13.1060   20.8560 C   0  0  0  0  0  0  0  0  0  0  0  0
  -24.7730  -11.7540   20.7480 C   0  0  0  0  0  0  0  0  0  0  0  0
  -26.3860  -13.0090   20.1020 N   0  0  0  0  0  0  0  0  0  0  0  0
  -26.0380  -11.7200   20.3470 N   0  0  0  0  0  0  0  0  0  0  0  0
  -24.0540  -10.4890   20.9490 C   0  0  0  0  0  0  0  0  0  0  0  0
  -24.5060   -9.5200   21.8710 C   0  0  0  0  0  3  0  0  0  0  0  0
  -23.7860   -8.3200   22.0600 C   0  0  0  0  0  3  0  0  0  0  0  0
  -22.6000   -8.0810   21.3250 C   0  0  0  0  0  0  0  0  0  0  0  0
  -22.1670   -9.0390   20.3920 C   0  0  0  0  0  3  0  0  0  0  0  0
  -22.8860  -10.2300   20.2020 C   0  0  0  0  0  3  0  0  0  0  0  0
  -21.8500   -6.9340   21.4240 O   0  0  0  0  0  0  0  0  0  0  0  0
  -21.7760   -6.2220   22.5940 C   0  0  0  0  0  0  0  0  0  0  0  0
  -21.2710   -6.7920   23.7820 C   0  0  0  0  0  3  0  0  0  0  0  0
  -21.1460   -6.0030   24.9430 C   0  0  0  0  0  3  0  0  0  0  0  0
  -21.5150   -4.6450   24.9170 C   0  0  0  0  0  0  0  0  0  0  0  0
  -22.0110   -4.0730   23.7320 C   0  0  0  0  0  3  0  0  0  0  0  0
  -22.1380   -4.8590   22.5730 C   0  0  0  0  0  0  0  0  0  0  0  0
  -22.5970   -4.2990   21.4280 F   0  0  0  0  0  0  0  0  0  0  0  0
  -21.3870   -3.8850   26.0300 F   0  0  0  0  0  0  0  0  0  0  0  0
  -22.9520  -13.5800   21.2420 C   0  0  0  0  0  0  0  0  0  0  0  0
  -22.2820  -12.8600   22.1340 N   0  0  0  0  0  0  0  0  0  0  0  0
  -22.4850  -14.6240   20.7870 O   0  0  0  0  0  0  0  0  0  0  0  0
  -22.6750  -12.0170   22.5260 H   0  0  0  0  0  0  0  0  0  0  0  0
  -21.3640  -13.1580   22.4330 H   0  0  0  0  0  0  0  0  0  0  0  0
  -25.5270  -15.2610   20.2950 N   0  0  0  0  0  0  0  0  0  0  0  0
  -24.7750  -15.9140   20.4850 H   0  0  0  0  0  0  0  0  0  0  0  0
  -26.3550  -15.7100   19.9240 H   0  0  0  0  0  0  0  0  0  0  0  0
  -28.5890  -23.9920   20.6850 C   0  0  0  0  0  2  0  0  0  0  0  0
  -30.0520  -25.2890   19.0200 C   0  0  0  0  0  1  0  0  0  0  0  0
  -28.6700  -25.2380   19.6840 C   0  0  0  0  0  3  0  0  0  0  0  0
  -28.4960  -26.6050   20.2520 O   0  0  0  0  0  0  0  0  0  0  0  0
  -24.6310  -31.9010   23.2410 C   0  0  0  0  0  0  0  0  0  0  0  0
  -27.3250  -27.3800   20.1840 C   0  0  0  0  0  0  0  0  0  0  0  0
  -23.4520  -30.4910   21.5910 C   0  0  0  0  0  3  0  0  0  0  0  0
  -24.9270  -28.9540   20.1710 C   0  0  0  0  0  0  0  0  0  0  0  0
  -25.9860  -30.8400   21.4210 C   0  0  0  0  0  2  0  0  0  0  0  0
  -26.0840  -29.4630   20.7720 C   0  0  0  0  0  0  0  0  0  0  0  0
  -27.2800  -28.6850   20.7690 C   0  0  0  0  0  3  0  0  0  0  0  0
  -26.1380  -26.9150   19.5730 C   0  0  0  0  0  3  0  0  0  0  0  0
  -24.9570  -27.6870   19.5640 C   0  0  0  0  0  3  0  0  0  0  0  0
  -23.6800  -29.8140   20.2130 C   0  0  0  0  0  2  0  0  0  0  0  0
  -24.7080  -31.0960   22.1410 N   0  0  0  0  0  0  0  0  0  0  0  0
  -23.5430  -32.1650   23.7710 O   0  0  0  0  0  0  0  0  0  0  0  0
  -22.7950  -29.4680   22.5480 C   0  0  0  0  0  0  0  0  0  0  0  0
  -21.4700  -29.2880   22.4250 N   0  0  0  0  0  0  0  0  0  0  0  0
  -23.4790  -28.8390   23.3610 O   0  0  0  0  0  0  0  0  0  0  0  0
  -20.9770  -29.8470   21.7420 H   0  0  0  0  0  0  0  0  0  0  0  0
  -18.0950  -28.0900   22.9340 C   0  0  0  0  0  0  0  0  0  0  0  0
  -20.6560  -28.3420   23.1900 C   0  0  0  0  0  3  0  0  0  0  0  0
  -20.7530  -26.9180   22.5970 C   0  0  0  0  0  2  0  0  0  0  0  0
  -19.6440  -26.6080   21.5870 C   0  0  0  0  0  2  0  0  0  0  0  0
  -18.2670  -26.7480   22.2420 C   0  0  0  0  0  2  0  0  0  0  0  0
  -19.2180  -28.8450   23.3660 C   0  0  0  0  0  0  0  0  0  0  0  0
  -19.0040  -30.1010   23.9730 C   0  0  0  0  0  3  0  0  0  0  0  0
  -17.7010  -30.6020   24.1540 C   0  0  0  0  0  3  0  0  0  0  0  0
  -16.5930  -29.8420   23.7400 C   0  0  0  0  0  3  0  0  0  0  0  0
  -16.7910  -28.5880   23.1360 C   0  0  0  0  0  3  0  0  0  0  0  0
  -25.9040  -32.5470   23.8720 C   0  0  0  0  0  3  0  0  0  0  0  0
  -26.4180  -31.7840   25.1550 C   0  0  1  0  0  0  0  0  0  0  0  0
  -25.3170  -31.5360   26.2130 C   0  0  0  0  0  1  0  0  0  0  0  0
  -27.0200  -30.4120   24.7720 C   0  0  0  0  0  1  0  0  0  0  0  0
  -27.5520  -32.5920   25.8270 C   0  0  0  0  0  1  0  0  0  0  0  0
  -25.5790  -33.9420   24.1990 N   0  0  0  0  0  0  0  0  0  0  0  0
  -25.8930  -34.9980   23.4340 C   0  0  0  0  0  0  0  0  0  0  0  0
  -26.5550  -34.8990   22.3980 O   0  0  0  0  0  0  0  0  0  0  0  0
  -24.9880  -34.0930   25.0030 H   0  0  0  0  0  0  0  0  0  0  0  0
  -24.1440  -36.7730   23.0850 C   0  0  0  0  0  1  0  0  0  0  0  0
  -25.3930  -36.3820   23.8910 C   0  0  0  0  0  3  0  0  0  0  0  0
  -27.5180  -37.2960   24.7150 C   0  0  0  0  0  1  0  0  0  0  0  0
  -26.4140  -37.4460   23.7710 N   0  0  0  0  0  0  0  0  0  0  0  0
  -25.9970  -38.3620   23.9140 H   0  0  0  0  0  0  0  0  0  0  0  0
  1  2  1  0
  2  4  1  0
  2 51  1  0
  3  1  2  0
  5  9  1  0
  7  1  1  0
  7 10  2  0
  8  5  2  0
  8  7  1  0
  9 21  1  0
  9  6  2  0
 10  6  1  0
 10 12  1  0
 11  8  1  0
 13 21  1  0
 14 19  1  0
 15 16  1  0
 15 14  1  0
 17 16  1  0
 17 26  1  0
 17 18  1  0
 19 13  1  0
 19 18  1  0
 20 13  2  0
 21 22  1  0
 23 24  2  0
 24 43  1  0
 25 24  1  0
 25 28  1  0
 26 27  1  0
 26 23  1  0
 27 25  2  0
 28 29  1  0
 29 30  2  0
 31 34  1  0
 31 30  1  0
 32 31  2  0
 33 32  1  0
 33 28  2  0
 34 35  1  0
 35 36  1  0
 36 37  2  0
 38 37  1  0
 38 42  1  0
 39 38  2  0
 40 35  2  0
 40 39  1  0
 41 40  1  0
 43 44  1  0
 44 47  1  0
 44 46  1  0
 45 43  2  0
 48 23  1  0
 48 49  1  0
 50 48  1  0
 53 52  1  0
 53 54  1  0
 53 51  1  0
 55 66  2  0
 56 54  1  0
 56 61  1  0
 57 65  1  0
 57 67  1  0
 58 64  1  0
 58 60  1  0
 59 65  1  0
 60 59  1  0
 61 60  2  0
 62 56  2  0
 63 62  1  0
 63 58  2  0
 64 57  1  0
 65 55  1  0
 67 69  2  0
 68 67  1  0
 70 68  1  0
 71 80  2  0
 71 76  1  0
 72 68  1  0
 72 76  1  0
 73 72  1  0
 74 75  1  0
 74 73  1  0
 75 71  1  0
 76 77  2  0
 77 78  1  0
 79 78  2  0
 80 79  1  0
 81 55  1  0
 81 86  1  0
 81 82  1  0
 82 85  1  1
 82 83  1  0
 84 82  1  0
 86 89  1  0
 87 91  1  0
 87 86  1  0
 88 87  2  0
 91 90  1  0
 93 91  1  0
 93 94  1  0
 93 92  1  0
M  ISO  4  13 100  21 100  53 101  54 101
M  END
>  <TORSDO>  (78) 
F 19

>  <SCORE>  (78) 
-14.239

>  <name>  (78) 
77

>  <ligand_id>  (78) 
77

>  <original_smiles>  (78) 
[H]c1c([H])c([H])c2c(c1[H])C([H])([H])C([H])([H])C([H])([H])C2([H])N([H])C(=O)C1([H])N(C(=O)C([H])(N([H])C(=O)C([H])(N([H])C([H])([H])[H])C([H])([H])[H])C(C([H])([H])[H])(C([H])([H])[H])C([H])([H])[H])C([H])([H])c2c([H])c(OC([H])(C([H])([H])[H])C([H])([H])N([H])C(=O)c3c(F)c([H])c(N([H])C(=O)N4C([H])([H])C([H])([H])C([H])([H])C([H])(n5nc(-c6c([H])c([H])c(Oc7c([H])c([H])c(F)c([H])c7F)c([H])c6[H])c(C(=O)N([H])[H])c5N([H])[H])C4([H])[H])c([H])c3C([H])([H])[H])c([H])c([H])c2C1([H])[H]

>  <smiles>  (78) 
[H]c1c([H])c([H])c2c(c1[H])C([H])([H])C([H])([H])C([H])([H])C2([H])N([H])C(=O)C1([H])N(C(=O)C([H])(N([H])C(=O)C([H])(N([H])C([H])([H])[H])C([H])([H])[H])C(C([H])([H])[H])(C([H])([H])[H])C([H])([H])[H])C([H])([H])c2c([H])c(OC([H])(C([H])([H])[H])C([H])([H])N([H])C(=O)c3c(F)c([H])c(N([H])C(=O)N4C([H])([H])C([H])([H])C([H])([H])C([H])(n5nc(-c6c([H])c([H])c(Oc7c([H])c([H])c(F)c([H])c7F)c([H])c6[H])c(C(=O)N([H])[H])c5N([H])[H])C4([H])[H])c([H])c3C([H])([H])[H])c([H])c([H])c2C1([H])[H]

$$$$
78:0:0
     RDKit          3D

 98107  0  0  1  0  0  0  0  0999 V2000
  -28.1370  -21.6770   21.5770 C   0  0  0  0  0  0  0  0  0  0  0  0
  -29.3380  -23.3310   19.2000 C   0  0  0  0  0  0  0  0  0  0  0  0
  -27.3510  -22.9900   21.5210 C   0  0  0  0  0  2  0  0  0  0  0  0
  -28.5330  -22.0100   19.1900 C   0  0  0  0  0  2  0  0  0  0  0  0
  -28.2070  -24.2530   21.2900 C   0  0  0  0  0  2  0  0  0  0  0  0
  -28.6360  -21.1860   20.4170 N   0  0  0  0  0  0  0  0  0  0  0  0
  -29.1360  -24.3010   20.1310 N   0  0  0  0  0  0  0  0  0  0  0  0
  -28.2600  -21.1150   22.6720 O   0  0  0  0  0  0  0  0  0  0  0  0
  -30.1860  -23.4660   18.3110 O   0  0  0  0  0  0  0  0  0  0  0  0
  -30.2440  -19.3760   21.0380 C   0  0  0  0  0  3  0  0  0  0  0  0
  -30.7770  -18.0840   20.8250 C   0  0  0  0  0  3  0  0  0  0  0  0
  -28.5190  -18.9310   19.3930 C   0  0  0  0  0  3  0  0  0  0  0  0
  -29.0430  -17.6390   19.1730 C   0  0  0  0  0  0  0  0  0  0  0  0
  -29.1280  -19.8340   20.2970 C   0  0  0  0  0  0  0  0  0  0  0  0
  -30.2210  -17.2150   19.8550 C   0  0  0  0  0  0  0  0  0  0  0  0
  -28.3190  -16.7630   18.1530 C   0  0  0  0  0  1  0  0  0  0  0  0
  -31.4760  -15.1050   20.2490 C   0  0  0  0  0  0  0  0  0  0  0  0
  -31.1590  -12.8540   19.3770 C   0  0  0  0  0  2  0  0  0  0  0  0
  -30.2470  -12.9650   18.1380 C   0  0  0  0  0  2  0  0  0  0  0  0
  -28.7620  -12.9070   18.5430 C   0  0  0  0  0  2  0  0  0  0  0  0
  -28.4020  -13.8170   19.7520 C   0  0  0  0  0  3  0  0  0  0  0  0
  -29.4500  -13.7290   20.8790 C   0  0  0  0  0  2  0  0  0  0  0  0
  -30.7710  -13.9430   20.2780 N   0  0  0  0  0  0  0  0  0  0  0  0
  -32.7010  -15.1220   20.3660 O   0  0  0  0  0  0  0  0  0  0  0  0
  -31.7380  -16.3140   18.1970 C   0  0  0  0  0  1  0  0  0  0  0  0
  -30.9410  -16.0460   19.4200 N   0  0  0  0  0  0  0  0  0  0  0  0
  -26.0260  -14.4670   20.4960 C   0  0  0  0  0  0  0  0  0  0  0  0
  -24.9290  -13.7160   20.8180 C   0  0  0  0  0  0  0  0  0  0  0  0
  -25.3460  -12.3530   20.7300 C   0  0  0  0  0  0  0  0  0  0  0  0
  -27.0420  -13.5630   20.2280 N   0  0  0  0  0  0  0  0  0  0  0  0
  -26.6380  -12.2840   20.4320 N   0  0  0  0  0  0  0  0  0  0  0  0
  -24.5740  -11.1080   20.8570 C   0  0  0  0  0  0  0  0  0  0  0  0
  -24.9260  -10.1120   21.7940 C   0  0  0  0  0  3  0  0  0  0  0  0
  -24.1580   -8.9330   21.9090 C   0  0  0  0  0  3  0  0  0  0  0  0
  -23.0210   -8.7430   21.0890 C   0  0  0  0  0  0  0  0  0  0  0  0
  -22.6890   -9.7290   20.1420 C   0  0  0  0  0  3  0  0  0  0  0  0
  -23.4580  -10.8990   20.0240 C   0  0  0  0  0  3  0  0  0  0  0  0
  -22.2310   -7.6200   21.1120 O   0  0  0  0  0  0  0  0  0  0  0  0
  -21.9930   -6.9310   22.2740 C   0  0  0  0  0  0  0  0  0  0  0  0
  -21.3910   -7.5460   23.3930 C   0  0  0  0  0  3  0  0  0  0  0  0
  -21.0990   -6.7840   24.5410 C   0  0  0  0  0  3  0  0  0  0  0  0
  -21.4010   -5.4100   24.5750 C   0  0  0  0  0  0  0  0  0  0  0  0
  -21.9980   -4.7960   23.4600 C   0  0  0  0  0  3  0  0  0  0  0  0
  -22.2910   -5.5540   22.3130 C   0  0  0  0  0  0  0  0  0  0  0  0
  -22.8460   -4.9520   21.2330 F   0  0  0  0  0  0  0  0  0  0  0  0
  -21.1190   -4.6770   25.6780 F   0  0  0  0  0  0  0  0  0  0  0  0
  -23.5440  -14.2280   21.1000 C   0  0  0  0  0  0  0  0  0  0  0  0
  -22.7920  -13.5300   21.9460 N   0  0  0  0  0  0  0  0  0  0  0  0
  -23.1350  -15.2770   20.6070 O   0  0  0  0  0  0  0  0  0  0  0  0
  -23.1370  -12.6830   22.3720 H   0  0  0  0  0  0  0  0  0  0  0  0
  -21.8640  -13.8520   22.1790 H   0  0  0  0  0  0  0  0  0  0  0  0
  -26.2430  -15.8380   20.3840 N   0  0  0  0  0  0  0  0  0  0  0  0
  -25.5130  -16.5220   20.5530 H   0  0  0  0  0  0  0  0  0  0  0  0
  -27.1280  -16.2550   20.1260 H   0  0  0  0  0  0  0  0  0  0  0  0
  -29.9760  -25.5300   20.0850 C   0  0  0  0  0  2  0  0  0  0  0  0
  -29.1870  -26.8340   20.2770 C   0  0  0  0  0  0  0  0  0  0  0  0
  -29.1930  -27.4030   21.3750 O   0  0  0  0  0  0  0  0  0  0  0  0
  -28.4630  -27.2080   19.1890 O   0  0  0  0  0  0  0  0  0  0  0  0
  -24.4690  -31.6570   23.0840 C   0  0  0  0  0  0  0  0  0  0  0  0
  -27.2720  -27.8790   19.3590 C   0  0  0  0  0  0  0  0  0  0  0  0
  -23.2710  -30.3290   21.3720 C   0  0  0  0  0  3  0  0  0  0  0  0
  -24.7470  -29.1120   19.6870 C   0  0  0  0  0  0  0  0  0  0  0  0
  -25.7230  -30.9710   21.0470 C   0  0  0  0  0  2  0  0  0  0  0  0
  -25.8900  -29.6940   20.2540 C   0  0  0  0  0  0  0  0  0  0  0  0
  -27.1550  -29.0880   20.0860 C   0  0  0  0  0  3  0  0  0  0  0  0
  -26.1170  -27.3160   18.7810 C   0  0  0  0  0  3  0  0  0  0  0  0
  -24.8560  -27.9220   18.9450 C   0  0  0  0  0  3  0  0  0  0  0  0
  -23.4350  -29.8250   19.9130 C   0  0  0  0  0  2  0  0  0  0  0  0
  -24.5090  -30.9950   21.8930 N   0  0  0  0  0  0  0  0  0  0  0  0
  -23.4140  -31.7590   23.7240 O   0  0  0  0  0  0  0  0  0  0  0  0
  -22.7950  -29.1500   22.2520 C   0  0  0  0  0  0  0  0  0  0  0  0
  -21.5020  -28.8070   22.1430 N   0  0  0  0  0  0  0  0  0  0  0  0
  -23.5860  -28.5490   22.9850 O   0  0  0  0  0  0  0  0  0  0  0  0
  -20.9170  -29.3530   21.5270 H   0  0  0  0  0  0  0  0  0  0  0  0
  -18.3620  -27.0630   22.5210 C   0  0  0  0  0  0  0  0  0  0  0  0
  -20.8440  -27.7030   22.8450 C   0  0  0  0  0  3  0  0  0  0  0  0
  -21.1750  -26.3470   22.1800 C   0  0  0  0  0  2  0  0  0  0  0  0
  -20.1410  -25.9190   21.1340 C   0  0  0  0  0  2  0  0  0  0  0  0
  -18.7520  -25.8030   21.7680 C   0  0  0  0  0  2  0  0  0  0  0  0
  -19.3440  -27.9630   23.0140 C   0  0  0  0  0  0  0  0  0  0  0  0
  -18.9250  -29.1350   23.6790 C   0  0  0  0  0  3  0  0  0  0  0  0
  -17.5580  -29.4130   23.8580 C   0  0  0  0  0  3  0  0  0  0  0  0
  -16.5900  -28.5110   23.3800 C   0  0  0  0  0  3  0  0  0  0  0  0
  -16.9940  -27.3380   22.7180 C   0  0  0  0  0  3  0  0  0  0  0  0
  -25.7380  -32.3410   23.6830 C   0  0  0  0  0  3  0  0  0  0  0  0
  -26.3390  -31.5650   24.9190 C   0  0  1  0  0  0  0  0  0  0  0  0
  -25.3020  -31.2490   26.0200 C   0  0  0  0  0  1  0  0  0  0  0  0
  -26.9690  -30.2260   24.4660 C   0  0  0  0  0  1  0  0  0  0  0  0
  -27.4750  -32.3980   25.5580 C   0  0  0  0  0  1  0  0  0  0  0  0
  -25.3640  -33.7100   24.0610 N   0  0  0  0  0  0  0  0  0  0  0  0
  -25.6460  -34.8030   23.3390 C   0  0  0  0  0  0  0  0  0  0  0  0
  -26.3230  -34.7660   22.3070 O   0  0  0  0  0  0  0  0  0  0  0  0
  -24.7650  -33.8100   24.8680 H   0  0  0  0  0  0  0  0  0  0  0  0
  -23.8490  -36.5300   23.0220 C   0  0  0  0  0  1  0  0  0  0  0  0
  -25.0920  -36.1480   23.8420 C   0  0  0  0  0  3  0  0  0  0  0  0
  -27.1680  -37.0940   24.7490 C   0  0  0  0  0  1  0  0  0  0  0  0
  -26.0800  -37.2490   23.7880 N   0  0  0  0  0  0  0  0  0  0  0  0
  -25.6300  -38.1440   23.9600 H   0  0  0  0  0  0  0  0  0  0  0  0
  1  8  2  0
  2  7  1  0
  3  1  1  0
  4  2  1  0
  4  6  1  0
  5  3  1  0
  6  1  1  0
  7  5  1  0
  9  2  2  0
 11 10  1  0
 12 14  1  0
 13 12  2  0
 13 15  1  0
 14  6  1  0
 14 10  2  0
 15 11  2  0
 16 13  1  0
 17 23  1  0
 17 24  2  0
 18 23  1  0
 19 20  1  0
 19 18  1  0
 21 20  1  0
 21 30  1  0
 21 22  1  0
 23 22  1  0
 25 26  1  0
 26 15  1  0
 26 17  1  0
 27 28  2  0
 28 47  1  0
 29 28  1  0
 29 32  1  0
 30 31  1  0
 30 27  1  0
 31 29  2  0
 32 33  1  0
 33 34  2  0
 35 38  1  0
 35 34  1  0
 36 35  2  0
 37 36  1  0
 37 32  2  0
 38 39  1  0
 39 44  2  0
 39 40  1  0
 40 41  2  0
 41 42  1  0
 42 46  1  0
 43 42  2  0
 44 43  1  0
 45 44  1  0
 47 48  1  0
 48 51  1  0
 48 50  1  0
 49 47  2  0
 52 27  1  0
 52 53  1  0
 54 52  1  0
 55  7  1  0
 55 56  1  0
 56 57  2  0
 58 60  1  0
 58 56  1  0
 59 70  2  0
 60 65  1  0
 61 69  1  0
 61 71  1  0
 62 68  1  0
 62 64  1  0
 63 69  1  0
 64 63  1  0
 65 64  2  0
 66 67  1  0
 66 60  2  0
 67 62  2  0
 68 61  1  0
 69 59  1  0
 71 73  2  0
 72 71  1  0
 74 72  1  0
 75 84  2  0
 75 80  1  0
 76 72  1  0
 76 80  1  0
 77 76  1  0
 78 79  1  0
 78 77  1  0
 79 75  1  0
 80 81  2  0
 81 82  1  0
 83 82  2  0
 84 83  1  0
 85 59  1  0
 85 90  1  0
 85 86  1  0
 86 89  1  1
 86 87  1  0
 88 86  1  0
 90 93  1  0
 91 95  1  0
 91 90  1  0
 92 91  2  0
 95 94  1  0
 97 95  1  0
 97 98  1  0
 97 96  1  0
M  ISO  4  17 100  26 100  56 101  58 101
M  END
>  <TORSDO>  (79) 
F 19

>  <SCORE>  (79) 
-10.897

>  <name>  (79) 
78

>  <ligand_id>  (79) 
78

>  <original_smiles>  (79) 
[H]c1c([H])c([H])c2c(c1[H])C([H])([H])C([H])([H])C([H])([H])C2([H])N([H])C(=O)C1([H])N(C(=O)C([H])(N([H])C(=O)C([H])(N([H])C([H])([H])[H])C([H])([H])[H])C(C([H])([H])[H])(C([H])([H])[H])C([H])([H])[H])C([H])([H])c2c([H])c(OC(=O)C([H])([H])N3C(=O)C([H])([H])N(c4c([H])c([H])c(N(C(=O)N5C([H])([H])C([H])([H])C([H])([H])C([H])(n6nc(-c7c([H])c([H])c(Oc8c([H])c([H])c(F)c([H])c8F)c([H])c7[H])c(C(=O)N([H])[H])c6N([H])[H])C5([H])[H])C([H])([H])[H])c(C([H])([H])[H])c4[H])C(=O)C([H])([H])C3([H])[H])c([H])c([H])c2C1([H])[H]

>  <smiles>  (79) 
[H]c1c([H])c([H])c2c(c1[H])C([H])([H])C([H])([H])C([H])([H])C2([H])N([H])C(=O)C1([H])N(C(=O)C([H])(N([H])C(=O)C([H])(N([H])C([H])([H])[H])C([H])([H])[H])C(C([H])([H])[H])(C([H])([H])[H])C([H])([H])[H])C([H])([H])c2c([H])c(OC(=O)C([H])([H])N3C(=O)C([H])([H])N(c4c([H])c([H])c(N(C(=O)N5C([H])([H])C([H])([H])C([H])([H])C([H])(n6nc(-c7c([H])c([H])c(Oc8c([H])c([H])c(F)c([H])c8F)c([H])c7[H])c(C(=O)N([H])[H])c6N([H])[H])C5([H])[H])C([H])([H])[H])c(C([H])([H])[H])c4[H])C(=O)C([H])([H])C3([H])[H])c([H])c([H])c2C1([H])[H]

$$$$
79:0:0
     RDKit          3D

 95103  0  0  1  0  0  0  0  0999 V2000
  -28.6650  -17.9040   20.7530 C   0  0  0  0  0  3  0  0  0  0  0  0
  -28.6490  -19.3250   20.6800 C   0  0  0  0  0  3  0  0  0  0  0  0
  -31.0500  -17.8950   20.4690 C   0  0  0  0  0  3  0  0  0  0  0  0
  -31.0520  -19.3280   20.4080 C   0  0  0  0  0  0  0  0  0  0  0  0
  -29.8590  -17.1470   20.6530 C   0  0  0  0  0  0  0  0  0  0  0  0
  -29.8380  -20.0820   20.5130 C   0  0  0  0  0  0  0  0  0  0  0  0
  -30.5900  -14.6580   20.4060 C   0  0  0  0  0  0  0  0  0  0  0  0
  -30.3760  -12.4330   19.3210 C   0  0  0  0  0  2  0  0  0  0  0  0
  -29.4280  -12.5840   18.1100 C   0  0  0  0  0  2  0  0  0  0  0  0
  -27.9530  -12.4340   18.5390 C   0  0  0  0  0  2  0  0  0  0  0  0
  -27.6050  -13.2820   19.7900 C   0  0  0  0  0  3  0  0  0  0  0  0
  -28.6640  -13.0950   20.8990 C   0  0  0  0  0  2  0  0  0  0  0  0
  -29.9760  -13.4360   20.3270 N   0  0  0  0  0  0  0  0  0  0  0  0
  -31.7470  -14.8260   20.0120 O   0  0  0  0  0  0  0  0  0  0  0  0
  -29.7740  -15.6910   20.7800 N   0  0  0  0  0  0  0  0  0  0  0  0
  -28.8740  -15.3570   21.0860 H   0  0  0  0  0  0  0  0  0  0  0  0
  -25.2110  -13.8940   20.5070 C   0  0  0  0  0  0  0  0  0  0  0  0
  -24.1420  -13.1250   20.8780 C   0  0  0  0  0  0  0  0  0  0  0  0
  -24.5970  -11.7730   20.8440 C   0  0  0  0  0  0  0  0  0  0  0  0
  -26.2520  -13.0080   20.2720 N   0  0  0  0  0  0  0  0  0  0  0  0
  -25.8880  -11.7270   20.5340 N   0  0  0  0  0  0  0  0  0  0  0  0
  -23.8650  -10.5130   21.0310 C   0  0  0  0  0  0  0  0  0  0  0  0
  -24.2900   -9.5450   21.9680 C   0  0  0  0  0  3  0  0  0  0  0  0
  -23.5590   -8.3490   22.1430 C   0  0  0  0  0  3  0  0  0  0  0  0
  -22.3890   -8.1140   21.3810 C   0  0  0  0  0  0  0  0  0  0  0  0
  -21.9850   -9.0710   20.4320 C   0  0  0  0  0  3  0  0  0  0  0  0
  -22.7170  -10.2570   20.2560 C   0  0  0  0  0  3  0  0  0  0  0  0
  -21.6310   -6.9720   21.4650 O   0  0  0  0  0  0  0  0  0  0  0  0
  -21.5580   -6.2390   22.6230 C   0  0  0  0  0  0  0  0  0  0  0  0
  -21.0970   -6.8010   23.8330 C   0  0  0  0  0  3  0  0  0  0  0  0
  -20.9740   -5.9940   24.9820 C   0  0  0  0  0  3  0  0  0  0  0  0
  -21.3030   -4.6260   24.9210 C   0  0  0  0  0  0  0  0  0  0  0  0
  -21.7570   -4.0650   23.7150 C   0  0  0  0  0  3  0  0  0  0  0  0
  -21.8820   -4.8680   22.5690 C   0  0  0  0  0  0  0  0  0  0  0  0
  -22.3010   -4.3160   21.4040 F   0  0  0  0  0  0  0  0  0  0  0  0
  -21.1760   -3.8500   26.0220 F   0  0  0  0  0  0  0  0  0  0  0  0
  -22.7460  -13.6080   21.1510 C   0  0  0  0  0  0  0  0  0  0  0  0
  -22.0170  -12.9180   22.0200 N   0  0  0  0  0  0  0  0  0  0  0  0
  -22.3110  -14.6330   20.6260 O   0  0  0  0  0  0  0  0  0  0  0  0
  -22.3820  -12.0890   22.4660 H   0  0  0  0  0  0  0  0  0  0  0  0
  -21.0810  -13.2230   22.2440 H   0  0  0  0  0  0  0  0  0  0  0  0
  -25.3810  -15.2640   20.3290 N   0  0  0  0  0  0  0  0  0  0  0  0
  -24.6050  -15.9100   20.4220 H   0  0  0  0  0  0  0  0  0  0  0  0
  -26.2040  -15.6890   19.9240 H   0  0  0  0  0  0  0  0  0  0  0  0
  -32.3860  -20.0480   20.2230 C   0  0  1  0  0  0  0  0  0  0  0  0
  -33.4260  -19.2120   20.2330 F   0  0  0  0  0  0  0  0  0  0  0  0
  -32.3900  -20.6950   19.0580 F   0  0  0  0  0  0  0  0  0  0  0  0
  -32.5650  -20.9380   21.2020 F   0  0  0  0  0  0  0  0  0  0  0  0
  -28.9280  -22.4910   20.1860 C   0  0  0  0  0  0  0  0  0  0  0  0
  -29.8610  -21.5510   20.5330 N   0  0  0  0  0  0  0  0  0  0  0  0
  -27.8350  -22.1740   19.7120 O   0  0  0  0  0  0  0  0  0  0  0  0
  -30.7440  -21.9460   20.8330 H   0  0  0  0  0  0  0  0  0  0  0  0
  -29.2680  -24.0260   20.3710 C   0  0  0  0  0  3  0  0  0  0  0  0
  -28.1530  -25.0820   19.9680 C   0  0  0  0  0  3  0  0  0  0  0  0
  -28.3660  -26.5250   20.2260 O   0  0  0  0  0  0  0  0  0  0  0  0
  -24.6210  -31.8840   23.2700 C   0  0  0  0  0  0  0  0  0  0  0  0
  -27.2440  -27.3680   20.1740 C   0  0  0  0  0  0  0  0  0  0  0  0
  -23.4240  -30.5070   21.6080 C   0  0  0  0  0  3  0  0  0  0  0  0
  -24.8780  -28.9750   20.1720 C   0  0  0  0  0  0  0  0  0  0  0  0
  -25.9640  -30.8270   21.4400 C   0  0  0  0  0  2  0  0  0  0  0  0
  -26.0450  -29.4580   20.7780 C   0  0  0  0  0  0  0  0  0  0  0  0
  -27.2310  -28.6660   20.7710 C   0  0  0  0  0  3  0  0  0  0  0  0
  -26.0500  -26.9390   19.5440 C   0  0  0  0  0  3  0  0  0  0  0  0
  -24.8820  -27.7210   19.5470 C   0  0  0  0  0  3  0  0  0  0  0  0
  -23.6440  -29.8500   20.2210 C   0  0  0  0  0  2  0  0  0  0  0  0
  -24.6890  -31.0890   22.1630 N   0  0  0  0  0  0  0  0  0  0  0  0
  -23.5350  -32.1570   23.8030 O   0  0  0  0  0  0  0  0  0  0  0  0
  -22.7560  -29.4790   22.5530 C   0  0  0  0  0  0  0  0  0  0  0  0
  -21.4310  -29.3040   22.4170 N   0  0  0  0  0  0  0  0  0  0  0  0
  -23.4310  -28.8420   23.3660 O   0  0  0  0  0  0  0  0  0  0  0  0
  -20.9460  -29.8710   21.7360 H   0  0  0  0  0  0  0  0  0  0  0  0
  -18.0450  -28.1240   22.8980 C   0  0  0  0  0  0  0  0  0  0  0  0
  -20.6050  -28.3620   23.1750 C   0  0  0  0  0  3  0  0  0  0  0  0
  -20.6980  -26.9370   22.5800 C   0  0  0  0  0  2  0  0  0  0  0  0
  -19.5940  -26.6370   21.5590 C   0  0  0  0  0  2  0  0  0  0  0  0
  -18.2130  -26.7840   22.2030 C   0  0  0  0  0  2  0  0  0  0  0  0
  -19.1690  -28.8720   23.3410 C   0  0  0  0  0  0  0  0  0  0  0  0
  -18.9580  -30.1280   23.9490 C   0  0  0  0  0  3  0  0  0  0  0  0
  -17.6570  -30.6360   24.1200 C   0  0  0  0  0  3  0  0  0  0  0  0
  -16.5470  -29.8850   23.6950 C   0  0  0  0  0  3  0  0  0  0  0  0
  -16.7420  -28.6310   23.0890 C   0  0  0  0  0  3  0  0  0  0  0  0
  -25.9020  -32.5070   23.9060 C   0  0  0  0  0  3  0  0  0  0  0  0
  -26.3980  -31.7320   25.1870 C   0  0  1  0  0  0  0  0  0  0  0  0
  -25.2910  -31.5030   26.2430 C   0  0  0  0  0  1  0  0  0  0  0  0
  -26.9760  -30.3510   24.8010 C   0  0  0  0  0  1  0  0  0  0  0  0
  -27.5490  -32.5150   25.8610 C   0  0  0  0  0  1  0  0  0  0  0  0
  -25.5990  -33.9080   24.2330 N   0  0  0  0  0  0  0  0  0  0  0  0
  -25.9220  -34.9560   23.4640 C   0  0  0  0  0  0  0  0  0  0  0  0
  -26.5770  -34.8460   22.4240 O   0  0  0  0  0  0  0  0  0  0  0  0
  -25.0170  -34.0670   25.0430 H   0  0  0  0  0  0  0  0  0  0  0  0
  -24.1810  -36.7400   23.1330 C   0  0  0  0  0  1  0  0  0  0  0  0
  -25.4420  -36.3470   23.9190 C   0  0  0  0  0  3  0  0  0  0  0  0
  -27.5930  -37.2460   24.6920 C   0  0  0  0  0  1  0  0  0  0  0  0
  -26.4700  -37.4010   23.7710 N   0  0  0  0  0  0  0  0  0  0  0  0
  -26.0640  -38.3210   23.9180 H   0  0  0  0  0  0  0  0  0  0  0  0
  2  1  1  0
  3  5  1  0
  4  3  2  0
  4  6  1  0
  5  1  2  0
  5 15  1  0
  6 50  1  0
  6  2  2  0
  7 15  1  0
  8 13  1  0
  9 10  1  0
  9  8  1  0
 11 10  1  0
 11 20  1  0
 11 12  1  0
 13  7  1  0
 13 12  1  0
 14  7  2  0
 15 16  1  0
 17 18  2  0
 18 37  1  0
 19 18  1  0
 19 22  1  0
 20 17  1  0
 20 21  1  0
 21 19  2  0
 22 23  1  0
 23 24  2  0
 25 28  1  0
 25 24  1  0
 26 25  2  0
 27 26  1  0
 27 22  2  0
 28 29  1  0
 29 30  1  0
 30 31  2  0
 32 31  1  0
 32 36  1  0
 33 32  2  0
 34 29  2  0
 34 33  1  0
 35 34  1  0
 37 38  1  0
 38 41  1  0
 38 40  1  0
 39 37  2  0
 42 43  1  0
 42 17  1  0
 44 42  1  0
 45 46  1  6
 45  4  1  0
 45 48  1  0
 47 45  1  0
 49 53  1  0
 49 50  1  0
 50 52  1  0
 51 49  2  0
 54 55  1  0
 54 53  2  0
 56 67  2  0
 57 55  1  0
 57 62  1  0
 58 66  1  0
 58 68  1  0
 59 65  1  0
 59 61  1  0
 60 66  1  0
 61 60  1  0
 62 61  2  0
 63 64  1  0
 63 57  2  0
 64 59  2  0
 65 58  1  0
 66 56  1  0
 68 70  2  0
 69 68  1  0
 71 69  1  0
 72 81  2  0
 72 77  1  0
 73 69  1  0
 73 77  1  0
 74 73  1  0
 75 76  1  0
 75 74  1  0
 76 72  1  0
 77 78  2  0
 78 79  1  0
 80 79  2  0
 81 80  1  0
 82 56  1  0
 82 87  1  0
 82 83  1  0
 83 86  1  1
 83 84  1  0
 85 83  1  0
 87 90  1  0
 88 92  1  0
 88 87  1  0
 89 88  2  0
 92 91  1  0
 94 95  1  0
 94 92  1  0
 94 93  1  0
M  ISO  4   7 100  15 100  54 101  55 101
M  END
>  <TORSDO>  (80) 
F 20

>  <SCORE>  (80) 
-14.040

>  <name>  (80) 
79

>  <ligand_id>  (80) 
79

>  <original_smiles>  (80) 
[H]c1c([H])c([H])c2c(c1[H])C([H])([H])C([H])([H])C([H])([H])C2([H])N([H])C(=O)C1([H])N(C(=O)C([H])(N([H])C(=O)C([H])(N([H])C([H])([H])[H])C([H])([H])[H])C(C([H])([H])[H])(C([H])([H])[H])C([H])([H])[H])C([H])([H])c2c([H])c(OC([H])([H])C([H])([H])C(=O)N([H])c3c([H])c([H])c(N([H])C(=O)N4C([H])([H])C([H])([H])C([H])([H])C([H])(n5nc(-c6c([H])c([H])c(Oc7c([H])c([H])c(F)c([H])c7F)c([H])c6[H])c(C(=O)N([H])[H])c5N([H])[H])C4([H])[H])c([H])c3C(F)(F)F)c([H])c([H])c2C1([H])[H]

>  <smiles>  (80) 
[H]c1c([H])c([H])c2c(c1[H])C([H])([H])C([H])([H])C([H])([H])C2([H])N([H])C(=O)C1([H])N(C(=O)C([H])(N([H])C(=O)C([H])(N([H])C([H])([H])[H])C([H])([H])[H])C(C([H])([H])[H])(C([H])([H])[H])C([H])([H])[H])C([H])([H])c2c([H])c(OC([H])([H])C([H])([H])C(=O)N([H])c3c([H])c([H])c(N([H])C(=O)N4C([H])([H])C([H])([H])C([H])([H])C([H])(n5nc(-c6c([H])c([H])c(Oc7c([H])c([H])c(F)c([H])c7F)c([H])c6[H])c(C(=O)N([H])[H])c5N([H])[H])C4([H])[H])c([H])c3C(F)(F)F)c([H])c([H])c2C1([H])[H]

$$$$
80:0:0
     RDKit          3D

 93101  0  0  1  0  0  0  0  0999 V2000
  -28.7470  -23.3610   20.3470 C   0  0  0  0  0  0  0  0  0  0  0  0
  -28.9630  -22.1050   20.8350 N   0  0  0  0  0  0  0  0  0  0  0  0
  -28.5810  -23.5730   19.1430 O   0  0  0  0  0  0  0  0  0  0  0  0
  -29.0830  -22.0270   21.8360 H   0  0  0  0  0  0  0  0  0  0  0  0
  -28.7040  -24.3950   21.3960 C   0  0  0  0  0  3  0  0  0  0  0  0
  -28.5370  -25.7540   21.3040 C   0  0  0  0  0  3  0  0  0  0  0  0
  -28.3980  -26.5860   20.2000 O   0  0  0  0  0  0  0  0  0  0  0  0
  -24.5960  -31.9040   23.2440 C   0  0  0  0  0  0  0  0  0  0  0  0
  -27.2950  -27.4290   20.2000 C   0  0  0  0  0  0  0  0  0  0  0  0
  -23.4230  -30.4990   21.5830 C   0  0  0  0  0  3  0  0  0  0  0  0
  -24.9090  -28.9710   20.1710 C   0  0  0  0  0  0  0  0  0  0  0  0
  -25.9550  -30.8580   21.4250 C   0  0  0  0  0  2  0  0  0  0  0  0
  -26.0590  -29.4830   20.7830 C   0  0  0  0  0  0  0  0  0  0  0  0
  -27.2600  -28.7210   20.7970 C   0  0  0  0  0  3  0  0  0  0  0  0
  -26.1290  -26.9520   19.5700 C   0  0  0  0  0  3  0  0  0  0  0  0
  -24.9400  -27.7060   19.5600 C   0  0  0  0  0  3  0  0  0  0  0  0
  -23.6610  -29.8290   20.2030 C   0  0  0  0  0  2  0  0  0  0  0  0
  -24.6750  -31.1040   22.1420 N   0  0  0  0  0  0  0  0  0  0  0  0
  -23.5050  -32.1690   23.7690 O   0  0  0  0  0  0  0  0  0  0  0  0
  -22.7630  -29.4720   22.5330 C   0  0  0  0  0  0  0  0  0  0  0  0
  -21.4400  -29.2890   22.3950 N   0  0  0  0  0  0  0  0  0  0  0  0
  -23.4400  -28.8440   23.3500 O   0  0  0  0  0  0  0  0  0  0  0  0
  -20.9540  -29.8480   21.7080 H   0  0  0  0  0  0  0  0  0  0  0  0
  -18.0600  -28.0950   22.8800 C   0  0  0  0  0  0  0  0  0  0  0  0
  -20.6180  -28.3430   23.1550 C   0  0  0  0  0  3  0  0  0  0  0  0
  -20.7150  -26.9190   22.5610 C   0  0  0  0  0  2  0  0  0  0  0  0
  -19.6140  -26.6120   21.5410 C   0  0  0  0  0  2  0  0  0  0  0  0
  -18.2330  -26.7530   22.1890 C   0  0  0  0  0  2  0  0  0  0  0  0
  -19.1810  -28.8490   23.3190 C   0  0  0  0  0  0  0  0  0  0  0  0
  -18.9660  -30.1050   23.9270 C   0  0  0  0  0  3  0  0  0  0  0  0
  -17.6620  -30.6060   24.1010 C   0  0  0  0  0  3  0  0  0  0  0  0
  -16.5560  -29.8510   23.6760 C   0  0  0  0  0  3  0  0  0  0  0  0
  -16.7560  -28.5960   23.0720 C   0  0  0  0  0  3  0  0  0  0  0  0
  -25.8680  -32.5440   23.8820 C   0  0  0  0  0  3  0  0  0  0  0  0
  -26.3660  -31.7810   25.1700 C   0  0  1  0  0  0  0  0  0  0  0  0
  -25.2600  -31.5450   26.2240 C   0  0  0  0  0  1  0  0  0  0  0  0
  -26.9580  -30.4030   24.7940 C   0  0  0  0  0  1  0  0  0  0  0  0
  -27.5030  -32.5830   25.8470 C   0  0  0  0  0  1  0  0  0  0  0  0
  -25.5490  -33.9430   24.1990 N   0  0  0  0  0  0  0  0  0  0  0  0
  -25.8870  -34.9910   23.4370 C   0  0  0  0  0  0  0  0  0  0  0  0
  -26.5710  -34.8830   22.4150 O   0  0  0  0  0  0  0  0  0  0  0  0
  -24.9420  -34.1010   24.9900 H   0  0  0  0  0  0  0  0  0  0  0  0
  -24.1590  -36.7750   23.0410 C   0  0  0  0  0  1  0  0  0  0  0  0
  -25.3880  -36.3810   23.8750 C   0  0  0  0  0  3  0  0  0  0  0  0
  -27.5040  -37.2810   24.7380 C   0  0  0  0  0  1  0  0  0  0  0  0
  -26.4190  -37.4360   23.7720 N   0  0  0  0  0  0  0  0  0  0  0  0
  -26.0070  -38.3570   23.9030 H   0  0  0  0  0  0  0  0  0  0  0  0
  -28.9530  -20.8030   20.0950 C   0  0  0  0  0  2  0  0  0  0  0  0
  -32.0600  -18.7560   21.3000 C   0  0  0  0  0  3  0  0  0  0  0  0
  -31.6220  -17.4270   21.1500 C   0  0  0  0  0  3  0  0  0  0  0  0
  -29.4730  -18.2610   20.3950 C   0  0  0  0  0  3  0  0  0  0  0  0
  -31.2300  -19.8530   20.9820 C   0  0  0  0  0  0  0  0  0  0  0  0
  -29.8980  -19.6290   20.5330 C   0  0  0  0  0  0  0  0  0  0  0  0
  -30.3270  -17.1390   20.6710 C   0  0  0  0  0  0  0  0  0  0  0  0
  -31.8330  -21.2450   21.1020 C   0  0  0  0  0  1  0  0  0  0  0  0
  -30.6100  -14.6620   20.1220 C   0  0  0  0  0  0  0  0  0  0  0  0
  -30.2980  -12.4640   19.0080 C   0  0  0  0  0  2  0  0  0  0  0  0
  -29.3020  -12.6070   17.8380 C   0  0  0  0  0  2  0  0  0  0  0  0
  -27.8530  -12.4420   18.3360 C   0  0  0  0  0  2  0  0  0  0  0  0
  -27.5510  -13.2960   19.5970 C   0  0  0  0  0  3  0  0  0  0  0  0
  -28.6590  -13.1400   20.6620 C   0  0  0  0  0  2  0  0  0  0  0  0
  -29.9400  -13.4730   20.0230 N   0  0  0  0  0  0  0  0  0  0  0  0
  -31.7560  -14.7830   19.6790 O   0  0  0  0  0  0  0  0  0  0  0  0
  -29.8880  -15.7560   20.5190 N   0  0  0  0  0  0  0  0  0  0  0  0
  -28.9070  -15.5810   20.6780 H   0  0  0  0  0  0  0  0  0  0  0  0
  -25.1870  -13.8740   20.4270 C   0  0  0  0  0  0  0  0  0  0  0  0
  -24.1440  -13.0890   20.8370 C   0  0  0  0  0  0  0  0  0  0  0  0
  -24.6150  -11.7420   20.7740 C   0  0  0  0  0  0  0  0  0  0  0  0
  -26.2280  -13.0040   20.1390 N   0  0  0  0  0  0  0  0  0  0  0  0
  -25.8900  -11.7160   20.4100 N   0  0  0  0  0  0  0  0  0  0  0  0
  -23.9060  -10.4720   20.9820 C   0  0  0  0  0  0  0  0  0  0  0  0
  -24.3630   -9.5120   21.9120 C   0  0  0  0  0  3  0  0  0  0  0  0
  -23.6520   -8.3090   22.1080 C   0  0  0  0  0  3  0  0  0  0  0  0
  -22.4700   -8.0550   21.3740 C   0  0  0  0  0  0  0  0  0  0  0  0
  -22.0310   -9.0030   20.4320 C   0  0  0  0  0  3  0  0  0  0  0  0
  -22.7430  -10.1980   20.2340 C   0  0  0  0  0  3  0  0  0  0  0  0
  -21.7290   -6.9030   21.4800 O   0  0  0  0  0  0  0  0  0  0  0  0
  -21.6900   -6.1770   22.6440 C   0  0  0  0  0  0  0  0  0  0  0  0
  -21.2350   -6.7380   23.8560 C   0  0  0  0  0  3  0  0  0  0  0  0
  -21.1440   -5.9370   25.0120 C   0  0  0  0  0  3  0  0  0  0  0  0
  -21.5000   -4.5760   24.9560 C   0  0  0  0  0  0  0  0  0  0  0  0
  -21.9480   -4.0150   23.7470 C   0  0  0  0  0  3  0  0  0  0  0  0
  -22.0400   -4.8120   22.5940 C   0  0  0  0  0  0  0  0  0  0  0  0
  -22.4520   -4.2620   21.4270 F   0  0  0  0  0  0  0  0  0  0  0  0
  -21.4050   -3.8040   26.0640 F   0  0  0  0  0  0  0  0  0  0  0  0
  -22.7560  -13.5540   21.1750 C   0  0  0  0  0  0  0  0  0  0  0  0
  -22.0710  -12.8430   22.0640 N   0  0  0  0  0  0  0  0  0  0  0  0
  -22.2900  -14.5810   20.6840 O   0  0  0  0  0  0  0  0  0  0  0  0
  -22.4630  -12.0130   22.4830 H   0  0  0  0  0  0  0  0  0  0  0  0
  -21.1420  -13.1370   22.3340 H   0  0  0  0  0  0  0  0  0  0  0  0
  -25.3310  -15.2470   20.2530 N   0  0  0  0  0  0  0  0  0  0  0  0
  -24.5570  -15.8870   20.3910 H   0  0  0  0  0  0  0  0  0  0  0  0
  -26.1500  -15.6990   19.8680 H   0  0  0  0  0  0  0  0  0  0  0  0
  1  2  1  0
  1  5  1  0
  2  4  1  0
  3  1  2  0
  6  5  2  0
  7  6  1  0
  8 19  2  0
  9  7  1  0
  9 14  1  0
 10 18  1  0
 10 20  1  0
 11 17  1  0
 11 13  1  0
 12 18  1  0
 13 14  2  0
 13 12  1  0
 15  9  2  0
 16 15  1  0
 16 11  2  0
 17 10  1  0
 18  8  1  0
 20 22  2  0
 21 20  1  0
 23 21  1  0
 24 33  2  0
 24 29  1  0
 25 21  1  0
 25 29  1  0
 26 25  1  0
 27 28  1  0
 27 26  1  0
 28 24  1  0
 29 30  2  0
 30 31  1  0
 32 31  2  0
 33 32  1  0
 34  8  1  0
 34 39  1  0
 34 35  1  0
 35 38  1  1
 35 36  1  0
 37 35  1  0
 39 42  1  0
 40 44  1  0
 40 39  1  0
 41 40  2  0
 44 43  1  0
 46 44  1  0
 46 47  1  0
 46 45  1  0
 48 53  1  0
 48  2  1  0
 50 49  1  0
 51 53  2  0
 51 54  1  0
 52 55  1  0
 52 49  2  0
 53 52  1  0
 54 50  2  0
 56 64  1  0
 57 62  1  0
 58 59  1  0
 58 57  1  0
 60 59  1  0
 60 69  1  0
 60 61  1  0
 62 56  1  0
 62 61  1  0
 63 56  2  0
 64 54  1  0
 64 65  1  0
 66 67  2  0
 67 86  1  0
 68 67  1  0
 68 71  1  0
 69 70  1  0
 69 66  1  0
 70 68  2  0
 71 72  1  0
 72 73  2  0
 74 77  1  0
 74 73  1  0
 75 74  2  0
 76 75  1  0
 76 71  2  0
 77 78  1  0
 78 79  1  0
 79 80  2  0
 81 80  1  0
 81 85  1  0
 82 81  2  0
 83 78  2  0
 83 82  1  0
 84 83  1  0
 86 87  1  0
 87 90  1  0
 87 89  1  0
 88 86  2  0
 91 92  1  0
 91 66  1  0
 93 91  1  0
M  ISO  4   6 101   7 101  56 100  64 100
M  END
>  <TORSDO>  (81) 
F 19

>  <SCORE>  (81) 
-14.542

>  <name>  (81) 
80

>  <ligand_id>  (81) 
80

>  <original_smiles>  (81) 
[H]C(Oc1c([H])c([H])c2c(c1[H])C([H])([H])N(C(=O)C([H])(N([H])C(=O)C([H])(N([H])C([H])([H])[H])C([H])([H])[H])C(C([H])([H])[H])(C([H])([H])[H])C([H])([H])[H])C([H])(C(=O)N([H])C1([H])c3c([H])c([H])c([H])c([H])c3C([H])([H])C([H])([H])C1([H])[H])C2([H])[H])=C([H])C(=O)N([H])C([H])([H])c1c([H])c(N([H])C(=O)N2C([H])([H])C([H])([H])C([H])([H])C([H])(n3nc(-c4c([H])c([H])c(Oc5c([H])c([H])c(F)c([H])c5F)c([H])c4[H])c(C(=O)N([H])[H])c3N([H])[H])C2([H])[H])c([H])c([H])c1C([H])([H])[H]

>  <smiles>  (81) 
[H]C(Oc1c([H])c([H])c2c(c1[H])C([H])([H])N(C(=O)C([H])(N([H])C(=O)C([H])(N([H])C([H])([H])[H])C([H])([H])[H])C(C([H])([H])[H])(C([H])([H])[H])C([H])([H])[H])C([H])(C(=O)N([H])C1([H])c3c([H])c([H])c([H])c([H])c3C([H])([H])C([H])([H])C1([H])[H])C2([H])[H])=C([H])C(=O)N([H])C([H])([H])c1c([H])c(N([H])C(=O)N2C([H])([H])C([H])([H])C([H])([H])C([H])(n3nc(-c4c([H])c([H])c(Oc5c([H])c([H])c(F)c([H])c5F)c([H])c4[H])c(C(=O)N([H])[H])c3N([H])[H])C2([H])[H])c([H])c([H])c1C([H])([H])[H]

$$$$
81:0:0
     RDKit          3D

 92100  0  0  1  0  0  0  0  0999 V2000
  -28.8340  -22.4890   19.5740 C   0  0  0  0  0  0  0  0  0  0  0  0
  -29.0830  -21.2980   20.2770 N   0  0  0  0  0  0  0  0  0  0  0  0
  -28.7250  -22.4520   18.3470 O   0  0  0  0  0  0  0  0  0  0  0  0
  -28.9380  -21.3660   21.2750 H   0  0  0  0  0  0  0  0  0  0  0  0
  -29.4230  -18.6430   20.4390 C   0  0  0  0  0  3  0  0  0  0  0  0
  -30.3820  -19.9390   18.6190 C   0  0  0  0  0  3  0  0  0  0  0  0
  -30.7630  -17.5120   18.7530 C   0  0  0  0  0  3  0  0  0  0  0  0
  -29.5890  -19.9580   19.7910 C   0  0  0  0  0  0  0  0  0  0  0  0
  -30.0110  -17.3840   19.9440 C   0  0  0  0  0  0  0  0  0  0  0  0
  -30.9430  -18.7520   18.1100 C   0  0  0  0  0  0  0  0  0  0  0  0
  -31.6720  -18.8010   16.9700 F   0  0  0  0  0  0  0  0  0  0  0  0
  -30.5760  -14.8260   20.3200 C   0  0  0  0  0  0  0  0  0  0  0  0
  -30.3730  -12.5250   19.3670 C   0  0  0  0  0  2  0  0  0  0  0  0
  -29.4410  -12.5830   18.1370 C   0  0  0  0  0  2  0  0  0  0  0  0
  -27.9710  -12.4130   18.5620 C   0  0  0  0  0  2  0  0  0  0  0  0
  -27.5940  -13.3090   19.7710 C   0  0  0  0  0  3  0  0  0  0  0  0
  -28.6500  -13.2430   20.8940 C   0  0  0  0  0  2  0  0  0  0  0  0
  -29.9450  -13.5970   20.3010 N   0  0  0  0  0  0  0  0  0  0  0  0
  -31.7700  -14.8810   20.0130 O   0  0  0  0  0  0  0  0  0  0  0  0
  -29.8270  -15.9990   20.5110 N   0  0  0  0  0  0  0  0  0  0  0  0
  -28.9390  -15.8430   20.9630 H   0  0  0  0  0  0  0  0  0  0  0  0
  -25.2080  -13.9010   20.4910 C   0  0  0  0  0  0  0  0  0  0  0  0
  -24.1410  -13.1280   20.8580 C   0  0  0  0  0  0  0  0  0  0  0  0
  -24.6040  -11.7770   20.8330 C   0  0  0  0  0  0  0  0  0  0  0  0
  -26.2510  -13.0200   20.2630 N   0  0  0  0  0  0  0  0  0  0  0  0
  -25.8960  -11.7380   20.5340 N   0  0  0  0  0  0  0  0  0  0  0  0
  -23.8730  -10.5150   21.0230 C   0  0  0  0  0  0  0  0  0  0  0  0
  -24.2990   -9.5500   21.9620 C   0  0  0  0  0  3  0  0  0  0  0  0
  -23.5680   -8.3560   22.1440 C   0  0  0  0  0  3  0  0  0  0  0  0
  -22.3970   -8.1170   21.3860 C   0  0  0  0  0  0  0  0  0  0  0  0
  -21.9880   -9.0720   20.4370 C   0  0  0  0  0  3  0  0  0  0  0  0
  -22.7200  -10.2580   20.2550 C   0  0  0  0  0  3  0  0  0  0  0  0
  -21.6410   -6.9740   21.4760 O   0  0  0  0  0  0  0  0  0  0  0  0
  -21.5870   -6.2340   22.6300 C   0  0  0  0  0  0  0  0  0  0  0  0
  -21.1620   -6.7930   23.8540 C   0  0  0  0  0  3  0  0  0  0  0  0
  -21.0560   -5.9800   25.0000 C   0  0  0  0  0  3  0  0  0  0  0  0
  -21.3630   -4.6090   24.9220 C   0  0  0  0  0  0  0  0  0  0  0  0
  -21.7830   -4.0490   23.7010 C   0  0  0  0  0  3  0  0  0  0  0  0
  -21.8900   -4.8600   22.5580 C   0  0  0  0  0  0  0  0  0  0  0  0
  -22.2720   -4.3120   21.3780 F   0  0  0  0  0  0  0  0  0  0  0  0
  -21.2560   -3.8250   26.0180 F   0  0  0  0  0  0  0  0  0  0  0  0
  -22.7430  -13.6070   21.1190 C   0  0  0  0  0  0  0  0  0  0  0  0
  -22.0080  -12.9170   21.9840 N   0  0  0  0  0  0  0  0  0  0  0  0
  -22.3090  -14.6290   20.5890 O   0  0  0  0  0  0  0  0  0  0  0  0
  -22.3690  -12.0870   22.4320 H   0  0  0  0  0  0  0  0  0  0  0  0
  -21.0700  -13.2210   22.2010 H   0  0  0  0  0  0  0  0  0  0  0  0
  -25.3690  -15.2710   20.3070 N   0  0  0  0  0  0  0  0  0  0  0  0
  -24.5990  -15.9210   20.4160 H   0  0  0  0  0  0  0  0  0  0  0  0
  -26.2130  -15.7130   19.9650 H   0  0  0  0  0  0  0  0  0  0  0  0
  -28.6990  -23.8140   20.3070 C   0  0  0  0  0  3  0  0  0  0  0  0
  -28.2890  -25.0150   19.7130 C   0  0  0  0  0  3  0  0  0  0  0  0
  -28.2810  -26.3500   20.2480 O   0  0  0  0  0  0  0  0  0  0  0  0
  -24.6130  -31.8730   23.2320 C   0  0  0  0  0  0  0  0  0  0  0  0
  -27.1900  -27.2550   20.1480 C   0  0  0  0  0  0  0  0  0  0  0  0
  -23.3970  -30.4770   21.5990 C   0  0  0  0  0  3  0  0  0  0  0  0
  -24.8360  -28.9230   20.1500 C   0  0  0  0  0  0  0  0  0  0  0  0
  -25.9390  -30.7710   21.4050 C   0  0  0  0  0  2  0  0  0  0  0  0
  -26.0110  -29.3900   20.7500 C   0  0  0  0  0  0  0  0  0  0  0  0
  -27.1840  -28.5680   20.7410 C   0  0  0  0  0  3  0  0  0  0  0  0
  -25.9900  -26.8600   19.5150 C   0  0  0  0  0  3  0  0  0  0  0  0
  -24.8310  -27.6680   19.5210 C   0  0  0  0  0  3  0  0  0  0  0  0
  -23.6000  -29.8020   20.2160 C   0  0  0  0  0  2  0  0  0  0  0  0
  -24.6680  -31.0620   22.1340 N   0  0  0  0  0  0  0  0  0  0  0  0
  -23.5330  -32.1530   23.7740 O   0  0  0  0  0  0  0  0  0  0  0  0
  -22.7350  -29.4640   22.5630 C   0  0  0  0  0  0  0  0  0  0  0  0
  -21.4090  -29.2830   22.4370 N   0  0  0  0  0  0  0  0  0  0  0  0
  -23.4140  -28.8440   23.3840 O   0  0  0  0  0  0  0  0  0  0  0  0
  -20.9180  -29.8340   21.7460 H   0  0  0  0  0  0  0  0  0  0  0  0
  -18.0380  -28.0610   22.9320 C   0  0  0  0  0  0  0  0  0  0  0  0
  -20.5940  -28.3420   23.2100 C   0  0  0  0  0  3  0  0  0  0  0  0
  -20.7090  -26.9080   22.6450 C   0  0  0  0  0  2  0  0  0  0  0  0
  -19.6140  -26.5720   21.6270 C   0  0  0  0  0  2  0  0  0  0  0  0
  -18.2280  -26.7100   22.2630 C   0  0  0  0  0  2  0  0  0  0  0  0
  -19.1500  -28.8350   23.3610 C   0  0  0  0  0  0  0  0  0  0  0  0
  -18.9180  -30.1000   23.9440 C   0  0  0  0  0  3  0  0  0  0  0  0
  -17.6090  -30.5910   24.1020 C   0  0  0  0  0  3  0  0  0  0  0  0
  -16.5120  -29.8140   23.6900 C   0  0  0  0  0  3  0  0  0  0  0  0
  -16.7280  -28.5500   23.1110 C   0  0  0  0  0  3  0  0  0  0  0  0
  -25.8980  -32.5050   23.8480 C   0  0  0  0  0  3  0  0  0  0  0  0
  -26.4210  -31.7330   25.1210 C   0  0  1  0  0  0  0  0  0  0  0  0
  -25.3350  -31.4950   26.1960 C   0  0  0  0  0  1  0  0  0  0  0  0
  -26.9990  -30.3540   24.7260 C   0  0  0  0  0  1  0  0  0  0  0  0
  -27.5770  -32.5230   25.7760 C   0  0  0  0  0  1  0  0  0  0  0  0
  -25.5930  -33.9030   24.1870 N   0  0  0  0  0  0  0  0  0  0  0  0
  -25.9160  -34.9600   23.4280 C   0  0  0  0  0  0  0  0  0  0  0  0
  -26.5720  -34.8600   22.3890 O   0  0  0  0  0  0  0  0  0  0  0  0
  -25.0130  -34.0580   24.9980 H   0  0  0  0  0  0  0  0  0  0  0  0
  -24.1800  -36.7520   23.1070 C   0  0  0  0  0  1  0  0  0  0  0  0
  -25.4350  -36.3470   23.8980 C   0  0  0  0  0  3  0  0  0  0  0  0
  -27.5800  -37.2300   24.7010 C   0  0  0  0  0  1  0  0  0  0  0  0
  -26.4640  -37.4010   23.7740 N   0  0  0  0  0  0  0  0  0  0  0  0
  -26.0600  -38.3200   23.9310 H   0  0  0  0  0  0  0  0  0  0  0  0
  1  2  1  0
  1 50  1  0
  2  4  1  0
  3  1  2  0
  6  8  1  0
  7  9  2  0
  8  2  1  0
  8  5  2  0
  9  5  1  0
  9 20  1  0
 10  6  2  0
 10  7  1  0
 11 10  1  0
 12 20  1  0
 13 18  1  0
 14 15  1  0
 14 13  1  0
 16 15  1  0
 16 25  1  0
 16 17  1  0
 18 12  1  0
 18 17  1  0
 19 12  2  0
 20 21  1  0
 22 23  2  0
 23 42  1  0
 24 23  1  0
 24 27  1  0
 25 22  1  0
 25 26  1  0
 26 24  2  0
 27 28  1  0
 28 29  2  0
 30 33  1  0
 30 29  1  0
 31 30  2  0
 32 31  1  0
 32 27  2  0
 33 34  1  0
 34 35  1  0
 35 36  2  0
 37 36  1  0
 37 41  1  0
 38 37  2  0
 39 34  2  0
 39 38  1  0
 40 39  1  0
 42 43  1  0
 43 46  1  0
 43 45  1  0
 44 42  2  0
 47 48  1  0
 47 22  1  0
 49 47  1  0
 51 52  1  0
 51 50  2  0
 53 64  2  0
 54 52  1  0
 54 59  1  0
 55 63  1  0
 55 65  1  0
 56 62  1  0
 56 58  1  0
 57 63  1  0
 58 57  1  0
 59 58  2  0
 60 61  1  0
 60 54  2  0
 61 56  2  0
 62 55  1  0
 63 53  1  0
 65 67  2  0
 66 65  1  0
 68 66  1  0
 69 78  2  0
 69 74  1  0
 70 66  1  0
 70 74  1  0
 71 70  1  0
 72 73  1  0
 72 71  1  0
 73 69  1  0
 74 75  2  0
 75 76  1  0
 77 76  2  0
 78 77  1  0
 79 53  1  0
 79 84  1  0
 79 80  1  0
 80 83  1  1
 80 81  1  0
 82 80  1  0
 84 87  1  0
 85 89  1  0
 85 84  1  0
 86 85  2  0
 89 88  1  0
 91 89  1  0
 91 92  1  0
 91 90  1  0
M  ISO  4  12 100  20 100  51 101  52 101
M  END
>  <TORSDO>  (82) 
F 18

>  <SCORE>  (82) 
-14.632

>  <name>  (82) 
81

>  <ligand_id>  (82) 
81

>  <original_smiles>  (82) 
[H]C(Oc1c([H])c([H])c2c(c1[H])C([H])([H])N(C(=O)C([H])(N([H])C(=O)C([H])(N([H])C([H])([H])[H])C([H])([H])[H])C(C([H])([H])[H])(C([H])([H])[H])C([H])([H])[H])C([H])(C(=O)N([H])C1([H])c3c([H])c([H])c([H])c([H])c3C([H])([H])C([H])([H])C1([H])[H])C2([H])[H])=C([H])C(=O)N([H])c1c([H])c(F)c([H])c(N([H])C(=O)N2C([H])([H])C([H])([H])C([H])([H])C([H])(n3nc(-c4c([H])c([H])c(Oc5c([H])c([H])c(F)c([H])c5F)c([H])c4[H])c(C(=O)N([H])[H])c3N([H])[H])C2([H])[H])c1[H]

>  <smiles>  (82) 
[H]C(Oc1c([H])c([H])c2c(c1[H])C([H])([H])N(C(=O)C([H])(N([H])C(=O)C([H])(N([H])C([H])([H])[H])C([H])([H])[H])C(C([H])([H])[H])(C([H])([H])[H])C([H])([H])[H])C([H])(C(=O)N([H])C1([H])c3c([H])c([H])c([H])c([H])c3C([H])([H])C([H])([H])C1([H])[H])C2([H])[H])=C([H])C(=O)N([H])c1c([H])c(F)c([H])c(N([H])C(=O)N2C([H])([H])C([H])([H])C([H])([H])C([H])(n3nc(-c4c([H])c([H])c(Oc5c([H])c([H])c(F)c([H])c5F)c([H])c4[H])c(C(=O)N([H])[H])c3N([H])[H])C2([H])[H])c1[H]

$$$$
82:0:0
     RDKit          3D

 95104  0  0  1  0  0  0  0  0999 V2000
  -30.0450  -23.1760   22.8630 C   0  0  0  0  0  3  0  0  0  0  0  0
  -30.1540  -24.4030   22.3310 C   0  0  0  0  0  3  0  0  0  0  0  0
  -29.4950  -22.0400   22.1350 C   0  0  0  0  0  0  0  0  0  0  0  0
  -29.5320  -23.4790   20.0620 C   0  0  0  0  0  2  0  0  0  0  0  0
  -29.7360  -24.7620   20.9250 C   0  0  0  0  0  3  0  0  0  0  0  0
  -29.3600  -22.1960   20.7910 N   0  0  0  0  0  0  0  0  0  0  0  0
  -29.1780  -21.0010   22.7180 O   0  0  0  0  0  0  0  0  0  0  0  0
  -28.8360  -21.1000   19.9450 C   0  0  0  0  0  2  0  0  0  0  0  0
  -28.6290  -18.7020   20.7790 C   0  0  0  0  0  3  0  0  0  0  0  0
  -29.1150  -17.3900   20.9330 C   0  0  0  0  0  3  0  0  0  0  0  0
  -30.6940  -19.3300   19.6870 C   0  0  0  0  0  3  0  0  0  0  0  0
  -29.4120  -19.6900   20.1540 C   0  0  0  0  0  0  0  0  0  0  0  0
  -31.1940  -18.0060   19.8290 C   0  0  0  0  0  0  0  0  0  0  0  0
  -30.3950  -17.0050   20.4690 C   0  0  0  0  0  0  0  0  0  0  0  0
  -32.5860  -17.7520   19.2840 C   0  0  0  0  0  1  0  0  0  0  0  0
  -31.3110  -14.6460   20.0400 C   0  0  0  0  0  0  0  0  0  0  0  0
  -30.9370  -12.4370   18.9940 C   0  0  0  0  0  2  0  0  0  0  0  0
  -29.9750  -12.6120   17.8000 C   0  0  0  0  0  2  0  0  0  0  0  0
  -28.5040  -12.5580   18.2630 C   0  0  0  0  0  2  0  0  0  0  0  0
  -28.2260  -13.4640   19.4920 C   0  0  0  0  0  3  0  0  0  0  0  0
  -29.2920  -13.2350   20.5870 C   0  0  0  0  0  2  0  0  0  0  0  0
  -30.6190  -13.4730   19.9890 N   0  0  0  0  0  0  0  0  0  0  0  0
  -32.4100  -14.7830   19.4980 O   0  0  0  0  0  0  0  0  0  0  0  0
  -30.6970  -15.6230   20.7400 N   0  0  0  0  0  0  0  0  0  0  0  0
  -30.0180  -15.2080   21.3570 H   0  0  0  0  0  0  0  0  0  0  0  0
  -25.8940  -14.2150   20.2870 C   0  0  0  0  0  0  0  0  0  0  0  0
  -24.7870  -13.5070   20.6760 C   0  0  0  0  0  0  0  0  0  0  0  0
  -25.1570  -12.1290   20.6040 C   0  0  0  0  0  0  0  0  0  0  0  0
  -26.8700  -13.2700   20.0060 N   0  0  0  0  0  0  0  0  0  0  0  0
  -26.4300  -12.0100   20.2550 N   0  0  0  0  0  0  0  0  0  0  0  0
  -24.3550  -10.9120   20.7940 C   0  0  0  0  0  0  0  0  0  0  0  0
  -24.7280   -9.9220   21.7300 C   0  0  0  0  0  3  0  0  0  0  0  0
  -23.9330   -8.7680   21.9040 C   0  0  0  0  0  3  0  0  0  0  0  0
  -22.7510   -8.5980   21.1440 C   0  0  0  0  0  0  0  0  0  0  0  0
  -22.3980   -9.5770   20.1960 C   0  0  0  0  0  3  0  0  0  0  0  0
  -23.1930  -10.7210   20.0200 C   0  0  0  0  0  3  0  0  0  0  0  0
  -21.9320   -7.4980   21.2280 O   0  0  0  0  0  0  0  0  0  0  0  0
  -21.7880   -6.7960   22.3980 C   0  0  0  0  0  0  0  0  0  0  0  0
  -21.3630   -7.4170   23.5920 C   0  0  0  0  0  3  0  0  0  0  0  0
  -21.1610   -6.6460   24.7550 C   0  0  0  0  0  3  0  0  0  0  0  0
  -21.3750   -5.2560   24.7220 C   0  0  0  0  0  0  0  0  0  0  0  0
  -21.7940   -4.6330   23.5340 C   0  0  0  0  0  3  0  0  0  0  0  0
  -21.9970   -5.4020   22.3740 C   0  0  0  0  0  0  0  0  0  0  0  0
  -22.3800   -4.7950   21.2250 F   0  0  0  0  0  0  0  0  0  0  0  0
  -21.1740   -4.5120   25.8370 F   0  0  0  0  0  0  0  0  0  0  0  0
  -23.4350  -14.0680   21.0070 C   0  0  0  0  0  0  0  0  0  0  0  0
  -22.6950  -13.4070   21.8920 N   0  0  0  0  0  0  0  0  0  0  0  0
  -23.0420  -15.1240   20.5140 O   0  0  0  0  0  0  0  0  0  0  0  0
  -23.0230  -12.5500   22.3120 H   0  0  0  0  0  0  0  0  0  0  0  0
  -21.7890  -13.7680   22.1570 H   0  0  0  0  0  0  0  0  0  0  0  0
  -26.1460  -15.5750   20.1350 N   0  0  0  0  0  0  0  0  0  0  0  0
  -25.4430  -16.2860   20.3040 H   0  0  0  0  0  0  0  0  0  0  0  0
  -27.0210  -15.9600   19.7990 H   0  0  0  0  0  0  0  0  0  0  0  0
  -28.5110  -25.7160   20.9590 C   0  0  0  0  0  2  0  0  0  0  0  0
  -28.6310  -26.8410   20.0760 O   0  0  0  0  0  0  0  0  0  0  0  0
  -24.6810  -31.8740   23.1860 C   0  0  0  0  0  0  0  0  0  0  0  0
  -27.4760  -27.5850   20.0460 C   0  0  0  0  0  0  0  0  0  0  0  0
  -23.5310  -30.4770   21.4990 C   0  0  0  0  0  3  0  0  0  0  0  0
  -25.0450  -29.0180   20.0530 C   0  0  0  0  0  0  0  0  0  0  0  0
  -26.0470  -30.9160   21.3380 C   0  0  0  0  0  2  0  0  0  0  0  0
  -26.1810  -29.5640   20.6650 C   0  0  0  0  0  0  0  0  0  0  0  0
  -27.4040  -28.8530   20.6600 C   0  0  0  0  0  3  0  0  0  0  0  0
  -26.3290  -27.0510   19.4230 C   0  0  0  0  0  3  0  0  0  0  0  0
  -25.1140  -27.7590   19.4290 C   0  0  0  0  0  3  0  0  0  0  0  0
  -23.7740  -29.8350   20.1060 C   0  0  0  0  0  2  0  0  0  0  0  0
  -24.7690  -31.1020   22.0670 N   0  0  0  0  0  0  0  0  0  0  0  0
  -23.5860  -32.1040   23.7200 O   0  0  0  0  0  0  0  0  0  0  0  0
  -22.8990  -29.4160   22.4300 C   0  0  0  0  0  0  0  0  0  0  0  0
  -21.5750  -29.2250   22.3110 N   0  0  0  0  0  0  0  0  0  0  0  0
  -23.5990  -28.7660   23.2130 O   0  0  0  0  0  0  0  0  0  0  0  0
  -21.0720  -29.7990   21.6490 H   0  0  0  0  0  0  0  0  0  0  0  0
  -18.2110  -28.0110   22.8350 C   0  0  0  0  0  0  0  0  0  0  0  0
  -20.7740  -28.2500   23.0550 C   0  0  0  0  0  3  0  0  0  0  0  0
  -20.8600  -26.8480   22.4070 C   0  0  0  0  0  2  0  0  0  0  0  0
  -19.7270  -26.5670   21.4140 C   0  0  0  0  0  2  0  0  0  0  0  0
  -18.3630  -26.6910   22.0980 C   0  0  0  0  0  2  0  0  0  0  0  0
  -19.3430  -28.7480   23.2720 C   0  0  0  0  0  0  0  0  0  0  0  0
  -19.1460  -29.9810   23.9280 C   0  0  0  0  0  3  0  0  0  0  0  0
  -17.8480  -30.4780   24.1550 C   0  0  0  0  0  3  0  0  0  0  0  0
  -16.7310  -29.7390   23.7300 C   0  0  0  0  0  3  0  0  0  0  0  0
  -16.9130  -28.5090   23.0750 C   0  0  0  0  0  3  0  0  0  0  0  0
  -25.9430  -32.5260   23.8320 C   0  0  0  0  0  3  0  0  0  0  0  0
  -26.4530  -31.7560   25.1130 C   0  0  1  0  0  0  0  0  0  0  0  0
  -25.3470  -31.4900   26.1610 C   0  0  0  0  0  1  0  0  0  0  0  0
  -27.0690  -30.3940   24.7200 C   0  0  0  0  0  1  0  0  0  0  0  0
  -27.5770  -32.5670   25.8010 C   0  0  0  0  0  1  0  0  0  0  0  0
  -25.6030  -33.9160   24.1630 N   0  0  0  0  0  0  0  0  0  0  0  0
  -25.9300  -34.9770   23.4120 C   0  0  0  0  0  0  0  0  0  0  0  0
  -26.6230  -34.8900   22.3950 O   0  0  0  0  0  0  0  0  0  0  0  0
  -25.0020  -34.0580   24.9610 H   0  0  0  0  0  0  0  0  0  0  0  0
  -24.1760  -36.7340   23.0180 C   0  0  0  0  0  1  0  0  0  0  0  0
  -25.4060  -36.3540   23.8600 C   0  0  0  0  0  3  0  0  0  0  0  0
  -27.5040  -37.2750   24.7410 C   0  0  0  0  0  1  0  0  0  0  0  0
  -26.4200  -37.4280   23.7730 N   0  0  0  0  0  0  0  0  0  0  0  0
  -25.9950  -38.3400   23.9170 H   0  0  0  0  0  0  0  0  0  0  0  0
  2  1  2  0
  3  7  2  0
  3  1  1  0
  4  6  1  0
  4  5  1  0
  5 54  1  0
  5  2  1  0
  6  3  1  0
  8 12  1  0
  8  6  1  0
  9 10  1  0
 11 13  2  0
 11 12  1  0
 12  9  2  0
 13 14  1  0
 14 24  1  0
 14 10  2  0
 15 13  1  0
 16 24  1  0
 17 22  1  0
 18 19  1  0
 18 17  1  0
 20 19  1  0
 20 29  1  0
 20 21  1  0
 22 16  1  0
 22 21  1  0
 23 16  2  0
 24 25  1  0
 26 27  2  0
 27 46  1  0
 28 27  1  0
 28 31  1  0
 29 30  1  0
 29 26  1  0
 30 28  2  0
 31 32  1  0
 32 33  2  0
 34 37  1  0
 34 33  1  0
 35 34  2  0
 36 35  1  0
 36 31  2  0
 37 38  1  0
 38 39  1  0
 39 40  2  0
 41 40  1  0
 41 45  1  0
 42 41  2  0
 43 38  2  0
 43 42  1  0
 44 43  1  0
 46 47  1  0
 47 50  1  0
 47 49  1  0
 48 46  2  0
 51 26  1  0
 51 52  1  0
 53 51  1  0
 55 54  1  0
 56 67  2  0
 57 55  1  0
 57 62  1  0
 58 66  1  0
 58 68  1  0
 59 65  1  0
 59 61  1  0
 60 66  1  0
 61 60  1  0
 62 61  2  0
 63 64  1  0
 63 57  2  0
 64 59  2  0
 65 58  1  0
 66 56  1  0
 68 70  2  0
 69 68  1  0
 71 69  1  0
 72 81  2  0
 72 77  1  0
 73 69  1  0
 73 77  1  0
 74 73  1  0
 75 76  1  0
 75 74  1  0
 76 72  1  0
 77 78  2  0
 78 79  1  0
 80 79  2  0
 81 80  1  0
 82 56  1  0
 82 87  1  0
 82 83  1  0
 83 86  1  1
 83 84  1  0
 85 83  1  0
 87 90  1  0
 88 92  1  0
 88 87  1  0
 89 88  2  0
 92 91  1  0
 94 92  1  0
 94 95  1  0
 94 93  1  0
M  ISO  4  16 100  24 100  54 101  55 101
M  END
>  <TORSDO>  (83) 
F 19

>  <SCORE>  (83) 
-13.436

>  <name>  (83) 
82

>  <ligand_id>  (83) 
82

>  <original_smiles>  (83) 
[H]C1=C([H])C([H])(C([H])([H])Oc2c([H])c([H])c3c(c2[H])C([H])([H])N(C(=O)C([H])(N([H])C(=O)C([H])(N([H])C([H])([H])[H])C([H])([H])[H])C(C([H])([H])[H])(C([H])([H])[H])C([H])([H])[H])C([H])(C(=O)N([H])C2([H])c4c([H])c([H])c([H])c([H])c4C([H])([H])C([H])([H])C2([H])[H])C3([H])[H])C([H])([H])N(C([H])([H])c2c([H])c([H])c(N([H])C(=O)N3C([H])([H])C([H])([H])C([H])([H])C([H])(n4nc(-c5c([H])c([H])c(Oc6c([H])c([H])c(F)c([H])c6F)c([H])c5[H])c(C(=O)N([H])[H])c4N([H])[H])C3([H])[H])c(C([H])([H])[H])c2[H])C1=O

>  <smiles>  (83) 
[H]C1=C([H])C([H])(C([H])([H])Oc2c([H])c([H])c3c(c2[H])C([H])([H])N(C(=O)C([H])(N([H])C(=O)C([H])(N([H])C([H])([H])[H])C([H])([H])[H])C(C([H])([H])[H])(C([H])([H])[H])C([H])([H])[H])C([H])(C(=O)N([H])C2([H])c4c([H])c([H])c([H])c([H])c4C([H])([H])C([H])([H])C2([H])[H])C3([H])[H])C([H])([H])N(C([H])([H])c2c([H])c([H])c(N([H])C(=O)N3C([H])([H])C([H])([H])C([H])([H])C([H])(n4nc(-c5c([H])c([H])c(Oc6c([H])c([H])c(F)c([H])c6F)c([H])c5[H])c(C(=O)N([H])[H])c4N([H])[H])C3([H])[H])c(C([H])([H])[H])c2[H])C1=O

$$$$
83:0:0
     RDKit          3D

 95103  0  0  1  0  0  0  0  0999 V2000
  -30.6420  -22.4900   20.0240 C   0  0  0  0  0  0  0  0  0  0  0  0
  -30.4650  -21.2340   20.4580 N   0  0  0  0  0  0  0  0  0  0  0  0
  -31.5560  -22.8060   19.2610 O   0  0  0  0  0  0  0  0  0  0  0  0
  -29.6760  -21.0570   21.0620 H   0  0  0  0  0  0  0  0  0  0  0  0
  -29.6440  -23.3960   20.5720 C   0  0  0  0  0  3  0  0  0  0  0  0
  -29.4110  -24.6190   20.0490 C   0  0  0  0  0  3  0  0  0  0  0  0
  -28.3480  -25.5600   20.5910 C   0  0  0  0  0  2  0  0  0  0  0  0
  -28.4580  -26.9020   20.0910 O   0  0  0  0  0  0  0  0  0  0  0  0
  -24.6000  -32.0030   23.2450 C   0  0  0  0  0  0  0  0  0  0  0  0
  -27.2810  -27.6240   20.1090 C   0  0  0  0  0  0  0  0  0  0  0  0
  -23.4000  -30.6070   21.5920 C   0  0  0  0  0  3  0  0  0  0  0  0
  -24.8660  -29.0980   20.1490 C   0  0  0  0  0  0  0  0  0  0  0  0
  -25.9210  -30.9940   21.3880 C   0  0  0  0  0  2  0  0  0  0  0  0
  -26.0210  -29.6300   20.7360 C   0  0  0  0  0  0  0  0  0  0  0  0
  -27.2330  -28.9010   20.7120 C   0  0  0  0  0  3  0  0  0  0  0  0
  -26.1100  -27.1120   19.5060 C   0  0  0  0  0  3  0  0  0  0  0  0
  -24.9050  -27.8350   19.5340 C   0  0  0  0  0  3  0  0  0  0  0  0
  -23.6120  -29.9410   20.2050 C   0  0  0  0  0  2  0  0  0  0  0  0
  -24.6590  -31.2160   22.1330 N   0  0  0  0  0  0  0  0  0  0  0  0
  -23.5180  -32.2590   23.7920 O   0  0  0  0  0  0  0  0  0  0  0  0
  -22.7640  -29.5710   22.5450 C   0  0  0  0  0  0  0  0  0  0  0  0
  -21.4490  -29.3450   22.3900 N   0  0  0  0  0  0  0  0  0  0  0  0
  -23.4510  -28.9700   23.3750 O   0  0  0  0  0  0  0  0  0  0  0  0
  -20.9550  -29.8830   21.6920 H   0  0  0  0  0  0  0  0  0  0  0  0
  -18.1120  -28.0250   22.8010 C   0  0  0  0  0  0  0  0  0  0  0  0
  -20.6470  -28.3860   23.1490 C   0  0  0  0  0  3  0  0  0  0  0  0
  -20.8220  -26.9520   22.5950 C   0  0  0  0  0  2  0  0  0  0  0  0
  -19.7650  -26.5750   21.5510 C   0  0  0  0  0  2  0  0  0  0  0  0
  -18.3600  -26.6750   22.1500 C   0  0  0  0  0  2  0  0  0  0  0  0
  -19.1850  -28.8350   23.2540 C   0  0  0  0  0  0  0  0  0  0  0  0
  -18.9010  -30.0970   23.8210 C   0  0  0  0  0  3  0  0  0  0  0  0
  -17.5740  -30.5510   23.9380 C   0  0  0  0  0  3  0  0  0  0  0  0
  -16.5130  -29.7380   23.5000 C   0  0  0  0  0  3  0  0  0  0  0  0
  -16.7820  -28.4780   22.9380 C   0  0  0  0  0  3  0  0  0  0  0  0
  -25.8830  -32.6390   23.8650 C   0  0  0  0  0  3  0  0  0  0  0  0
  -26.4120  -31.8610   25.1330 C   0  0  1  0  0  0  0  0  0  0  0  0
  -25.3250  -31.5980   26.2020 C   0  0  0  0  0  1  0  0  0  0  0  0
  -27.0080  -30.4940   24.7220 C   0  0  0  0  0  1  0  0  0  0  0  0
  -27.5520  -32.6630   25.8020 C   0  0  0  0  0  1  0  0  0  0  0  0
  -25.5650  -34.0310   24.2050 N   0  0  0  0  0  0  0  0  0  0  0  0
  -25.8860  -35.0900   23.4490 C   0  0  0  0  0  0  0  0  0  0  0  0
  -26.5520  -34.9960   22.4140 O   0  0  0  0  0  0  0  0  0  0  0  0
  -24.9760  -34.1750   25.0110 H   0  0  0  0  0  0  0  0  0  0  0  0
  -24.1420  -36.8670   23.1070 C   0  0  0  0  0  1  0  0  0  0  0  0
  -25.3890  -36.4720   23.9130 C   0  0  0  0  0  3  0  0  0  0  0  0
  -27.5170  -37.3710   24.7450 C   0  0  0  0  0  1  0  0  0  0  0  0
  -26.4120  -37.5350   23.8030 N   0  0  0  0  0  0  0  0  0  0  0  0
  -25.9990  -38.4500   23.9550 H   0  0  0  0  0  0  0  0  0  0  0  0
  -31.3350  -20.0900   20.1810 C   0  0  0  0  0  2  0  0  0  0  0  0
  -30.8930  -17.6360   20.7180 C   0  0  0  0  0  3  0  0  0  0  0  0
  -30.7440  -16.8230   23.0110 C   0  0  0  0  0  3  0  0  0  0  0  0
  -31.1620  -18.9470   21.1890 C   0  0  0  0  0  0  0  0  0  0  0  0
  -31.2620  -19.1760   22.5900 C   0  0  0  0  0  0  0  0  0  0  0  0
  -30.6890  -16.5640   21.6270 C   0  0  0  0  0  0  0  0  0  0  0  0
  -31.0370  -18.1110   23.4870 C   0  0  0  0  0  0  0  0  0  0  0  0
  -31.6150  -20.5440   23.1550 C   0  0  0  0  0  1  0  0  0  0  0  0
  -31.0950  -18.3210   24.8250 F   0  0  0  0  0  0  0  0  0  0  0  0
  -30.7130  -14.5410   20.1490 C   0  0  0  0  0  0  0  0  0  0  0  0
  -30.3200  -12.4760   18.8410 C   0  0  0  0  0  2  0  0  0  0  0  0
  -29.2890  -12.7160   17.7210 C   0  0  0  0  0  2  0  0  0  0  0  0
  -27.8540  -12.5310   18.2460 C   0  0  0  0  0  2  0  0  0  0  0  0
  -27.5960  -13.3160   19.5580 C   0  0  0  0  0  3  0  0  0  0  0  0
  -28.7210  -13.0530   20.5830 C   0  0  0  0  0  2  0  0  0  0  0  0
  -30.0170  -13.3870   19.9570 N   0  0  0  0  0  0  0  0  0  0  0  0
  -31.6660  -14.8830   19.4380 O   0  0  0  0  0  0  0  0  0  0  0  0
  -30.3300  -15.2460   21.2250 N   0  0  0  0  0  0  0  0  0  0  0  0
  -29.6950  -14.7530   21.8360 H   0  0  0  0  0  0  0  0  0  0  0  0
  -25.2310  -13.8660   20.4210 C   0  0  0  0  0  0  0  0  0  0  0  0
  -24.2030  -13.0690   20.8450 C   0  0  0  0  0  0  0  0  0  0  0  0
  -24.6850  -11.7260   20.7610 C   0  0  0  0  0  0  0  0  0  0  0  0
  -26.2770  -13.0100   20.1120 N   0  0  0  0  0  0  0  0  0  0  0  0
  -25.9530  -11.7160   20.3700 N   0  0  0  0  0  0  0  0  0  0  0  0
  -23.9970  -10.4470   20.9770 C   0  0  0  0  0  0  0  0  0  0  0  0
  -24.4350   -9.5260   21.9530 C   0  0  0  0  0  3  0  0  0  0  0  0
  -23.7450   -8.3100   22.1530 C   0  0  0  0  0  3  0  0  0  0  0  0
  -22.6020   -8.0080   21.3750 C   0  0  0  0  0  0  0  0  0  0  0  0
  -22.1820   -8.9180   20.3900 C   0  0  0  0  0  3  0  0  0  0  0  0
  -22.8740  -10.1240   20.1890 C   0  0  0  0  0  3  0  0  0  0  0  0
  -21.8850   -6.8410   21.4820 O   0  0  0  0  0  0  0  0  0  0  0  0
  -21.7500   -6.1850   22.6800 C   0  0  0  0  0  0  0  0  0  0  0  0
  -21.1780   -6.8080   23.8110 C   0  0  0  0  0  3  0  0  0  0  0  0
  -20.9940   -6.0760   25.0000 C   0  0  0  0  0  3  0  0  0  0  0  0
  -21.3740   -4.7210   25.0600 C   0  0  0  0  0  0  0  0  0  0  0  0
  -21.9400   -4.0980   23.9340 C   0  0  0  0  0  3  0  0  0  0  0  0
  -22.1240   -4.8280   22.7470 C   0  0  0  0  0  0  0  0  0  0  0  0
  -22.6500   -4.2170   21.6590 F   0  0  0  0  0  0  0  0  0  0  0  0
  -21.1900   -4.0160   26.2020 F   0  0  0  0  0  0  0  0  0  0  0  0
  -22.8170  -13.5130   21.2160 C   0  0  0  0  0  0  0  0  0  0  0  0
  -22.1560  -12.7830   22.1090 N   0  0  0  0  0  0  0  0  0  0  0  0
  -22.3290  -14.5420   20.7500 O   0  0  0  0  0  0  0  0  0  0  0  0
  -22.5610  -11.9480   22.5050 H   0  0  0  0  0  0  0  0  0  0  0  0
  -21.2310  -13.0650   22.4020 H   0  0  0  0  0  0  0  0  0  0  0  0
  -25.3610  -15.2430   20.2580 N   0  0  0  0  0  0  0  0  0  0  0  0
  -24.5980  -15.8890   20.4350 H   0  0  0  0  0  0  0  0  0  0  0  0
  -26.1940  -15.6990   19.9080 H   0  0  0  0  0  0  0  0  0  0  0  0
  1  2  1  0
  1  5  1  0
  2  4  1  0
  3  1  2  0
  6  5  2  0
  6  7  1  0
  8 10  1  0
  8  7  1  0
  9 20  2  0
 10 15  1  0
 11 19  1  0
 11 21  1  0
 12 18  1  0
 12 14  1  0
 13 19  1  0
 14 13  1  0
 15 14  2  0
 16 17  1  0
 16 10  2  0
 17 12  2  0
 18 11  1  0
 19  9  1  0
 21 23  2  0
 22 21  1  0
 24 22  1  0
 25 34  2  0
 25 30  1  0
 26 22  1  0
 26 30  1  0
 27 26  1  0
 28 29  1  0
 28 27  1  0
 29 25  1  0
 30 31  2  0
 31 32  1  0
 33 32  2  0
 34 33  1  0
 35  9  1  0
 35 40  1  0
 35 36  1  0
 36 39  1  1
 36 37  1  0
 38 36  1  0
 40 43  1  0
 41 45  1  0
 41 40  1  0
 42 41  2  0
 45 44  1  0
 47 45  1  0
 47 48  1  0
 47 46  1  0
 49  2  1  0
 49 52  1  0
 50 52  2  0
 50 54  1  0
 51 55  1  0
 52 53  1  0
 53 56  1  0
 53 55  2  0
 54 51  2  0
 55 57  1  0
 58 66  1  0
 59 64  1  0
 60 61  1  0
 60 59  1  0
 62 61  1  0
 62 71  1  0
 62 63  1  0
 64 58  1  0
 64 63  1  0
 65 58  2  0
 66 54  1  0
 66 67  1  0
 68 69  2  0
 69 88  1  0
 70 69  1  0
 70 73  1  0
 71 72  1  0
 71 68  1  0
 72 70  2  0
 73 74  1  0
 74 75  2  0
 76 79  1  0
 76 75  1  0
 77 76  2  0
 78 77  1  0
 78 73  2  0
 79 80  1  0
 80 85  2  0
 80 81  1  0
 81 82  2  0
 82 83  1  0
 83 87  1  0
 84 83  2  0
 85 84  1  0
 86 85  1  0
 88 89  1  0
 89 92  1  0
 89 91  1  0
 90 88  2  0
 93 68  1  0
 93 94  1  0
 95 93  1  0
M  ISO  4   7 101   8 101  58 100  66 100
M  END
>  <TORSDO>  (84) 
F 20

>  <SCORE>  (84) 
-12.651

>  <name>  (84) 
83

>  <ligand_id>  (84) 
83

>  <original_smiles>  (84) 
[H]C(C(=O)N([H])C([H])([H])c1c([H])c(N([H])C(=O)N2C([H])([H])C([H])([H])C([H])([H])C([H])(n3nc(-c4c([H])c([H])c(Oc5c([H])c([H])c(F)c([H])c5F)c([H])c4[H])c(C(=O)N([H])[H])c3N([H])[H])C2([H])[H])c([H])c(F)c1C([H])([H])[H])=C([H])C([H])([H])Oc1c([H])c([H])c2c(c1[H])C([H])([H])N(C(=O)C([H])(N([H])C(=O)C([H])(N([H])C([H])([H])[H])C([H])([H])[H])C(C([H])([H])[H])(C([H])([H])[H])C([H])([H])[H])C([H])(C(=O)N([H])C1([H])c3c([H])c([H])c([H])c([H])c3C([H])([H])C([H])([H])C1([H])[H])C2([H])[H]

>  <smiles>  (84) 
[H]C(C(=O)N([H])C([H])([H])c1c([H])c(N([H])C(=O)N2C([H])([H])C([H])([H])C([H])([H])C([H])(n3nc(-c4c([H])c([H])c(Oc5c([H])c([H])c(F)c([H])c5F)c([H])c4[H])c(C(=O)N([H])[H])c3N([H])[H])C2([H])[H])c([H])c(F)c1C([H])([H])[H])=C([H])C([H])([H])Oc1c([H])c([H])c2c(c1[H])C([H])([H])N(C(=O)C([H])(N([H])C(=O)C([H])(N([H])C([H])([H])[H])C([H])([H])[H])C(C([H])([H])[H])(C([H])([H])[H])C([H])([H])[H])C([H])(C(=O)N([H])C1([H])c3c([H])c([H])c([H])c([H])c3C([H])([H])C([H])([H])C1([H])[H])C2([H])[H]

$$$$
84:0:0
     RDKit          3D

 95103  0  0  1  0  0  0  0  0999 V2000
  -27.8990  -20.4310   19.6000 C   0  0  0  0  0  0  0  0  0  0  0  0
  -29.1060  -20.4450   20.1860 N   0  0  0  0  0  0  0  0  0  0  0  0
  -27.2480  -19.4180   19.3250 O   0  0  0  0  0  0  0  0  0  0  0  0
  -29.4580  -21.3880   20.3070 H   0  0  0  0  0  0  0  0  0  0  0  0
  -31.6020  -18.6800   22.3120 C   0  0  0  0  0  3  0  0  0  0  0  0
  -30.8690  -19.6970   21.6720 C   0  0  0  0  0  3  0  0  0  0  0  0
  -31.3160  -17.3260   22.0550 C   0  0  0  0  0  3  0  0  0  0  0  0
  -29.5430  -18.0040   20.5270 C   0  0  0  0  0  3  0  0  0  0  0  0
  -29.8260  -19.3710   20.7810 C   0  0  0  0  0  0  0  0  0  0  0  0
  -30.2850  -16.9860   21.1610 C   0  0  0  0  0  0  0  0  0  0  0  0
  -30.6190  -14.7490   20.2040 C   0  0  0  0  0  0  0  0  0  0  0  0
  -30.3140  -12.6710   18.9150 C   0  0  0  0  0  2  0  0  0  0  0  0
  -29.2860  -12.9060   17.7890 C   0  0  0  0  0  2  0  0  0  0  0  0
  -27.8410  -12.7250   18.3010 C   0  0  0  0  0  2  0  0  0  0  0  0
  -27.5680  -13.4860   19.6250 C   0  0  0  0  0  3  0  0  0  0  0  0
  -28.6900  -13.1920   20.6450 C   0  0  0  0  0  2  0  0  0  0  0  0
  -29.9730  -13.5700   20.0240 N   0  0  0  0  0  0  0  0  0  0  0  0
  -31.6870  -15.0320   19.6520 O   0  0  0  0  0  0  0  0  0  0  0  0
  -29.9340  -15.6370   20.9390 N   0  0  0  0  0  0  0  0  0  0  0  0
  -29.0030  -15.3540   21.1990 H   0  0  0  0  0  0  0  0  0  0  0  0
  -25.1900  -14.0120   20.4680 C   0  0  0  0  0  0  0  0  0  0  0  0
  -24.1610  -13.1960   20.8630 C   0  0  0  0  0  0  0  0  0  0  0  0
  -24.6560  -11.8610   20.7610 C   0  0  0  0  0  0  0  0  0  0  0  0
  -26.2460  -13.1660   20.1600 N   0  0  0  0  0  0  0  0  0  0  0  0
  -25.9290  -11.8670   20.3910 N   0  0  0  0  0  0  0  0  0  0  0  0
  -23.9780  -10.5710   20.9460 C   0  0  0  0  0  0  0  0  0  0  0  0
  -24.4010   -9.6460   21.9270 C   0  0  0  0  0  3  0  0  0  0  0  0
  -23.7200   -8.4200   22.0960 C   0  0  0  0  0  3  0  0  0  0  0  0
  -22.6040   -8.1110   21.2820 C   0  0  0  0  0  0  0  0  0  0  0  0
  -22.2040   -9.0240   20.2900 C   0  0  0  0  0  3  0  0  0  0  0  0
  -22.8860  -10.2410   20.1200 C   0  0  0  0  0  3  0  0  0  0  0  0
  -21.9000   -6.9340   21.3560 O   0  0  0  0  0  0  0  0  0  0  0  0
  -21.7450   -6.2620   22.5420 C   0  0  0  0  0  0  0  0  0  0  0  0
  -21.0300   -6.8180   23.6260 C   0  0  0  0  0  3  0  0  0  0  0  0
  -20.8370   -6.0650   24.8020 C   0  0  0  0  0  3  0  0  0  0  0  0
  -21.3480   -4.7570   24.8920 C   0  0  0  0  0  0  0  0  0  0  0  0
  -22.0540   -4.1990   23.8110 C   0  0  0  0  0  3  0  0  0  0  0  0
  -22.2490   -4.9500   22.6390 C   0  0  0  0  0  0  0  0  0  0  0  0
  -22.9130   -4.4010   21.5920 F   0  0  0  0  0  0  0  0  0  0  0  0
  -21.1550   -4.0300   26.0170 F   0  0  0  0  0  0  0  0  0  0  0  0
  -22.7680  -13.6230   21.2200 C   0  0  0  0  0  0  0  0  0  0  0  0
  -22.0950  -12.8580   22.0740 N   0  0  0  0  0  0  0  0  0  0  0  0
  -22.2850  -14.6670   20.7850 O   0  0  0  0  0  0  0  0  0  0  0  0
  -22.4990  -12.0140   22.4480 H   0  0  0  0  0  0  0  0  0  0  0  0
  -21.1620  -13.1230   22.3540 H   0  0  0  0  0  0  0  0  0  0  0  0
  -25.3080  -15.3910   20.3300 N   0  0  0  0  0  0  0  0  0  0  0  0
  -24.5350  -16.0230   20.5150 H   0  0  0  0  0  0  0  0  0  0  0  0
  -26.1370  -15.8720   20.0000 H   0  0  0  0  0  0  0  0  0  0  0  0
  -27.3950  -21.8340   19.3000 C   0  0  0  0  0  0  0  0  0  0  0  0
  -26.0170  -21.8810   18.6450 C   0  0  0  0  0  1  0  0  0  0  0  0
  -28.0750  -22.8880   19.5950 N   0  0  0  0  0  0  0  0  0  0  0  0
  -27.5590  -24.2180   19.3040 C   0  0  0  0  0  2  0  0  0  0  0  0
  -28.6190  -25.0840   18.6490 C   0  0  0  0  0  3  0  0  0  0  0  0
  -28.9750  -26.3130   19.0620 C   0  0  0  0  0  3  0  0  0  0  0  0
  -28.4620  -26.9300   20.1660 O   0  0  0  0  0  0  0  0  0  0  0  0
  -24.5980  -31.9700   23.2700 C   0  0  0  0  0  0  0  0  0  0  0  0
  -27.2950  -27.6560   20.0810 C   0  0  0  0  0  0  0  0  0  0  0  0
  -23.4080  -30.6050   21.5790 C   0  0  0  0  0  3  0  0  0  0  0  0
  -24.8850  -29.1350   20.1040 C   0  0  0  0  0  0  0  0  0  0  0  0
  -25.9300  -30.9940   21.4080 C   0  0  0  0  0  2  0  0  0  0  0  0
  -26.0280  -29.6450   20.7310 C   0  0  0  0  0  0  0  0  0  0  0  0
  -27.2310  -28.9090   20.7260 C   0  0  0  0  0  3  0  0  0  0  0  0
  -26.1390  -27.1610   19.4370 C   0  0  0  0  0  3  0  0  0  0  0  0
  -24.9360  -27.8910   19.4510 C   0  0  0  0  0  3  0  0  0  0  0  0
  -23.6330  -29.9810   20.1760 C   0  0  0  0  0  2  0  0  0  0  0  0
  -24.6620  -31.2040   22.1440 N   0  0  0  0  0  0  0  0  0  0  0  0
  -23.5120  -32.2190   23.8130 O   0  0  0  0  0  0  0  0  0  0  0  0
  -22.7590  -29.5450   22.4990 C   0  0  0  0  0  0  0  0  0  0  0  0
  -21.4400  -29.3480   22.3440 N   0  0  0  0  0  0  0  0  0  0  0  0
  -23.4380  -28.9090   23.3070 O   0  0  0  0  0  0  0  0  0  0  0  0
  -20.9530  -29.9240   21.6730 H   0  0  0  0  0  0  0  0  0  0  0  0
  -18.0530  -28.1620   22.8070 C   0  0  0  0  0  0  0  0  0  0  0  0
  -20.6170  -28.3810   23.0750 C   0  0  0  0  0  3  0  0  0  0  0  0
  -20.6950  -26.9730   22.4380 C   0  0  0  0  0  2  0  0  0  0  0  0
  -19.5800  -26.6960   21.4280 C   0  0  0  0  0  2  0  0  0  0  0  0
  -18.2100  -26.8280   22.0970 C   0  0  0  0  0  2  0  0  0  0  0  0
  -19.1830  -28.8950   23.2570 C   0  0  0  0  0  0  0  0  0  0  0  0
  -18.9800  -30.1390   23.8940 C   0  0  0  0  0  3  0  0  0  0  0  0
  -17.6790  -30.6390   24.0990 C   0  0  0  0  0  3  0  0  0  0  0  0
  -16.5650  -29.9010   23.6650 C   0  0  0  0  0  3  0  0  0  0  0  0
  -16.7540  -28.6680   23.0180 C   0  0  0  0  0  3  0  0  0  0  0  0
  -25.8790  -32.5850   23.9190 C   0  0  0  0  0  3  0  0  0  0  0  0
  -26.3520  -31.8170   25.2140 C   0  0  1  0  0  0  0  0  0  0  0  0
  -25.2210  -31.5700   26.2390 C   0  0  0  0  0  1  0  0  0  0  0  0
  -26.9610  -30.4480   24.8360 C   0  0  0  0  0  1  0  0  0  0  0  0
  -27.4730  -32.6170   25.9180 C   0  0  0  0  0  1  0  0  0  0  0  0
  -25.5870  -33.9910   24.2250 N   0  0  0  0  0  0  0  0  0  0  0  0
  -25.9560  -35.0250   23.4570 C   0  0  0  0  0  0  0  0  0  0  0  0
  -26.6480  -34.8980   22.4440 O   0  0  0  0  0  0  0  0  0  0  0  0
  -24.9790  -34.1690   25.0120 H   0  0  0  0  0  0  0  0  0  0  0  0
  -24.2820  -36.8500   23.0180 C   0  0  0  0  0  1  0  0  0  0  0  0
  -25.4790  -36.4280   23.8850 C   0  0  0  0  0  3  0  0  0  0  0  0
  -27.5810  -37.2870   24.8170 C   0  0  0  0  0  1  0  0  0  0  0  0
  -26.5390  -37.4580   23.8080 N   0  0  0  0  0  0  0  0  0  0  0  0
  -26.1430  -38.3880   23.9150 H   0  0  0  0  0  0  0  0  0  0  0  0
  1  2  1  0
  2  4  1  0
  2  9  1  0
  3  1  2  0
  6  5  2  0
  7  5  1  0
  8  9  2  0
  8 10  1  0
  9  6  1  0
 10  7  2  0
 11 19  1  0
 12 17  1  0
 13 14  1  0
 13 12  1  0
 15 14  1  0
 15 24  1  0
 15 16  1  0
 17 11  1  0
 17 16  1  0
 18 11  2  0
 19 10  1  0
 19 20  1  0
 21 22  2  0
 22 41  1  0
 23 22  1  0
 23 26  1  0
 24 25  1  0
 24 21  1  0
 25 23  2  0
 26 27  1  0
 27 28  2  0
 29 32  1  0
 29 28  1  0
 30 29  2  0
 31 30  1  0
 31 26  2  0
 32 33  1  0
 33 38  2  0
 33 34  1  0
 34 35  2  0
 35 36  1  0
 36 40  1  0
 37 36  2  0
 38 37  1  0
 39 38  1  0
 41 42  1  0
 42 45  1  0
 42 44  1  0
 43 41  2  0
 46 21  1  0
 46 47  1  0
 48 46  1  0
 49 51  2  0
 49  1  1  0
 50 49  1  0
 52 51  1  0
 53 54  2  0
 53 52  1  0
 54 55  1  0
 56 67  2  0
 57 55  1  0
 57 62  1  0
 58 66  1  0
 58 68  1  0
 59 65  1  0
 59 61  1  0
 60 66  1  0
 61 60  1  0
 62 61  2  0
 63 64  1  0
 63 57  2  0
 64 59  2  0
 65 58  1  0
 66 56  1  0
 68 70  2  0
 69 68  1  0
 71 69  1  0
 72 81  2  0
 72 77  1  0
 73 69  1  0
 73 77  1  0
 74 73  1  0
 75 76  1  0
 75 74  1  0
 76 72  1  0
 77 78  2  0
 78 79  1  0
 80 79  2  0
 81 80  1  0
 82 56  1  0
 82 87  1  0
 82 83  1  0
 83 86  1  1
 83 84  1  0
 85 83  1  0
 87 90  1  0
 88 92  1  0
 88 87  1  0
 89 88  2  0
 92 91  1  0
 94 92  1  0
 94 95  1  0
 94 93  1  0
M  ISO  4  11 100  19 100  54 101  55 101
M  END
>  <TORSDO>  (85) 
F 20

>  <SCORE>  (85) 
-13.700

>  <name>  (85) 
84

>  <ligand_id>  (85) 
84

>  <original_smiles>  (85) 
[H]C(Oc1c([H])c([H])c2c(c1[H])C([H])([H])N(C(=O)C([H])(N([H])C(=O)C([H])(N([H])C([H])([H])[H])C([H])([H])[H])C(C([H])([H])[H])(C([H])([H])[H])C([H])([H])[H])C([H])(C(=O)N([H])C1([H])c3c([H])c([H])c([H])c([H])c3C([H])([H])C([H])([H])C1([H])[H])C2([H])[H])=C([H])C([H])([H])N=C(C(=O)N([H])c1c([H])c([H])c([H])c(N([H])C(=O)N2C([H])([H])C([H])([H])C([H])([H])C([H])(n3nc(-c4c([H])c([H])c(Oc5c([H])c([H])c(F)c([H])c5F)c([H])c4[H])c(C(=O)N([H])[H])c3N([H])[H])C2([H])[H])c1[H])C([H])([H])[H]

>  <smiles>  (85) 
[H]C(Oc1c([H])c([H])c2c(c1[H])C([H])([H])N(C(=O)C([H])(N([H])C(=O)C([H])(N([H])C([H])([H])[H])C([H])([H])[H])C(C([H])([H])[H])(C([H])([H])[H])C([H])([H])[H])C([H])(C(=O)N([H])C1([H])c3c([H])c([H])c([H])c([H])c3C([H])([H])C([H])([H])C1([H])[H])C2([H])[H])=C([H])C([H])([H])N=C(C(=O)N([H])c1c([H])c([H])c([H])c(N([H])C(=O)N2C([H])([H])C([H])([H])C([H])([H])C([H])(n3nc(-c4c([H])c([H])c(Oc5c([H])c([H])c(F)c([H])c5F)c([H])c4[H])c(C(=O)N([H])[H])c3N([H])[H])C2([H])[H])c1[H])C([H])([H])[H]

$$$$
85:0:0
     RDKit          3D

 99108  0  0  1  0  0  0  0  0999 V2000
  -31.4130  -20.8150   18.1660 C   0  0  0  0  0  0  0  0  0  0  0  0
  -30.5400  -22.2580   19.9400 C   0  0  0  0  0  0  0  0  0  0  0  0
  -30.8680  -21.6320   16.9860 C   0  0  0  0  0  2  0  0  0  0  0  0
  -31.4690  -23.0390   16.8340 C   0  0  0  0  0  2  0  0  0  0  0  0
  -31.5680  -23.8150   18.1480 C   0  0  0  0  0  2  0  0  0  0  0  0
  -30.3590  -23.5520   19.0740 C   0  0  0  0  0  3  0  0  0  0  0  0
  -31.0650  -21.0770   19.4620 N   0  0  0  0  0  0  0  0  0  0  0  0
  -32.1330  -19.8550   17.8620 O   0  0  0  0  0  0  0  0  0  0  0  0
  -30.1940  -22.3420   21.1250 O   0  0  0  0  0  0  0  0  0  0  0  0
  -31.3360  -19.9670   20.4300 C   0  0  0  0  0  2  0  0  0  0  0  0
  -29.0190  -18.9920   20.0310 C   0  0  0  0  0  3  0  0  0  0  0  0
  -28.5200  -16.6490   20.4070 C   0  0  0  0  0  3  0  0  0  0  0  0
  -30.8050  -17.4580   20.6840 C   0  0  0  0  0  3  0  0  0  0  0  0
  -28.0810  -17.9380   20.0550 C   0  0  0  0  0  0  0  0  0  0  0  0
  -30.3750  -18.7710   20.3560 C   0  0  0  0  0  0  0  0  0  0  0  0
  -29.8690  -16.3900   20.7170 C   0  0  0  0  0  0  0  0  0  0  0  0
  -30.7710  -14.0920   20.3890 C   0  0  0  0  0  0  0  0  0  0  0  0
  -30.5850  -11.7410   19.6430 C   0  0  0  0  0  2  0  0  0  0  0  0
  -29.6870  -11.6760   18.3910 C   0  0  0  0  0  2  0  0  0  0  0  0
  -28.1960  -11.5840   18.7770 C   0  0  0  0  0  2  0  0  0  0  0  0
  -27.7900  -12.6400   19.8420 C   0  0  0  0  0  3  0  0  0  0  0  0
  -28.7990  -12.6440   21.0110 C   0  0  0  0  0  2  0  0  0  0  0  0
  -30.1500  -12.8830   20.4610 N   0  0  0  0  0  0  0  0  0  0  0  0
  -31.8210  -14.2820   19.7640 O   0  0  0  0  0  0  0  0  0  0  0  0
  -30.1660  -15.0540   21.1040 N   0  0  0  0  0  0  0  0  0  0  0  0
  -29.4800  -14.6510   21.7230 H   0  0  0  0  0  0  0  0  0  0  0  0
  -25.4150  -13.3630   20.5340 C   0  0  0  0  0  0  0  0  0  0  0  0
  -24.3070  -12.6430   20.8980 C   0  0  0  0  0  0  0  0  0  0  0  0
  -24.7020  -11.2700   20.8640 C   0  0  0  0  0  0  0  0  0  0  0  0
  -26.4200  -12.4310   20.3100 N   0  0  0  0  0  0  0  0  0  0  0  0
  -25.9900  -11.1690   20.5630 N   0  0  0  0  0  0  0  0  0  0  0  0
  -23.9140  -10.0440   21.0520 C   0  0  0  0  0  0  0  0  0  0  0  0
  -24.3430   -9.0180   21.9230 C   0  0  0  0  0  3  0  0  0  0  0  0
  -23.5620   -7.8550   22.1000 C   0  0  0  0  0  3  0  0  0  0  0  0
  -22.3360   -7.7130   21.4070 C   0  0  0  0  0  0  0  0  0  0  0  0
  -21.9260   -8.7270   20.5230 C   0  0  0  0  0  3  0  0  0  0  0  0
  -22.7070   -9.8800   20.3440 C   0  0  0  0  0  3  0  0  0  0  0  0
  -21.5220   -6.6100   21.5000 O   0  0  0  0  0  0  0  0  0  0  0  0
  -21.5320   -5.7950   22.6040 C   0  0  0  0  0  0  0  0  0  0  0  0
  -21.1450   -6.2640   23.8790 C   0  0  0  0  0  3  0  0  0  0  0  0
  -21.1050   -5.3760   24.9720 C   0  0  0  0  0  3  0  0  0  0  0  0
  -21.4400   -4.0210   24.7920 C   0  0  0  0  0  0  0  0  0  0  0  0
  -21.8190   -3.5530   23.5210 C   0  0  0  0  0  3  0  0  0  0  0  0
  -21.8610   -4.4360   22.4310 C   0  0  0  0  0  0  0  0  0  0  0  0
  -22.2080   -3.9730   21.2040 F   0  0  0  0  0  0  0  0  0  0  0  0
  -21.3920   -3.1670   25.8400 F   0  0  0  0  0  0  0  0  0  0  0  0
  -22.9340  -13.1860   21.1700 C   0  0  0  0  0  0  0  0  0  0  0  0
  -22.1690  -12.5250   22.0340 N   0  0  0  0  0  0  0  0  0  0  0  0
  -22.5480  -14.2330   20.6530 O   0  0  0  0  0  0  0  0  0  0  0  0
  -22.4900  -11.6790   22.4800 H   0  0  0  0  0  0  0  0  0  0  0  0
  -21.2470  -12.8750   22.2540 H   0  0  0  0  0  0  0  0  0  0  0  0
  -25.6430  -14.7250   20.3620 N   0  0  0  0  0  0  0  0  0  0  0  0
  -24.9080  -15.4140   20.4790 H   0  0  0  0  0  0  0  0  0  0  0  0
  -26.5200  -15.1300   20.0570 H   0  0  0  0  0  0  0  0  0  0  0  0
  -26.1170  -19.2130   19.1320 C   0  0  0  0  0  2  0  0  0  0  0  0
  -26.6600  -18.1370   19.7260 C   0  0  0  0  0  3  0  0  0  0  0  0
  -30.0140  -24.8590   19.8740 C   0  0  0  0  0  2  0  0  0  0  0  0
  -28.6910  -25.5210   19.4360 C   0  0  0  0  0  2  0  0  0  0  0  0
  -28.5510  -26.7730   20.1100 O   0  0  0  0  0  0  0  0  0  0  0  0
  -24.6130  -31.8290   23.1710 C   0  0  0  0  0  0  0  0  0  0  0  0
  -27.3420  -27.4410   20.0780 C   0  0  0  0  0  0  0  0  0  0  0  0
  -23.4410  -30.4380   21.4930 C   0  0  0  0  0  3  0  0  0  0  0  0
  -24.9270  -28.9190   20.0790 C   0  0  0  0  0  0  0  0  0  0  0  0
  -25.9670  -30.8090   21.3450 C   0  0  0  0  0  2  0  0  0  0  0  0
  -26.0680  -29.4460   20.6930 C   0  0  0  0  0  0  0  0  0  0  0  0
  -27.2730  -28.7100   20.6940 C   0  0  0  0  0  3  0  0  0  0  0  0
  -26.1780  -26.9230   19.4610 C   0  0  0  0  0  3  0  0  0  0  0  0
  -24.9750  -27.6560   19.4650 C   0  0  0  0  0  3  0  0  0  0  0  0
  -23.6760  -29.7690   20.1130 C   0  0  0  0  0  2  0  0  0  0  0  0
  -24.6900  -31.0410   22.0610 N   0  0  0  0  0  0  0  0  0  0  0  0
  -23.5220  -32.0920   23.6960 O   0  0  0  0  0  0  0  0  0  0  0  0
  -22.7790  -29.4050   22.4330 C   0  0  0  0  0  0  0  0  0  0  0  0
  -21.4540  -29.2330   22.2920 N   0  0  0  0  0  0  0  0  0  0  0  0
  -23.4530  -28.7610   23.2410 O   0  0  0  0  0  0  0  0  0  0  0  0
  -20.9730  -29.8050   21.6130 H   0  0  0  0  0  0  0  0  0  0  0  0
  -18.0660  -28.0680   22.7570 C   0  0  0  0  0  0  0  0  0  0  0  0
  -20.6260  -28.2880   23.0400 C   0  0  0  0  0  3  0  0  0  0  0  0
  -20.7130  -26.8700   22.4300 C   0  0  0  0  0  2  0  0  0  0  0  0
  -19.6100  -26.5840   21.4070 C   0  0  0  0  0  2  0  0  0  0  0  0
  -18.2290  -26.7310   22.0520 C   0  0  0  0  0  2  0  0  0  0  0  0
  -19.1930  -28.8050   23.2070 C   0  0  0  0  0  0  0  0  0  0  0  0
  -18.9890  -30.0590   23.8230 C   0  0  0  0  0  3  0  0  0  0  0  0
  -17.6900  -30.5730   23.9970 C   0  0  0  0  0  3  0  0  0  0  0  0
  -16.5770  -29.8310   23.5640 C   0  0  0  0  0  3  0  0  0  0  0  0
  -16.7670  -28.5810   22.9500 C   0  0  0  0  0  3  0  0  0  0  0  0
  -25.8860  -32.4560   23.8210 C   0  0  0  0  0  3  0  0  0  0  0  0
  -25.5680  -33.8500   24.1580 N   0  0  0  0  0  0  0  0  0  0  0  0
  -25.8890  -34.9090   23.4040 C   0  0  0  0  0  0  0  0  0  0  0  0
  -26.5570  -34.8160   22.3700 O   0  0  0  0  0  0  0  0  0  0  0  0
  -24.9750  -33.9950   24.9620 H   0  0  0  0  0  0  0  0  0  0  0  0
  -24.1470  -36.6890   23.0570 C   0  0  0  0  0  1  0  0  0  0  0  0
  -25.3890  -36.2900   23.8690 C   0  0  0  0  0  3  0  0  0  0  0  0
  -27.5090  -37.1920   24.7190 C   0  0  0  0  0  1  0  0  0  0  0  0
  -26.4130  -37.3520   23.7650 N   0  0  0  0  0  0  0  0  0  0  0  0
  -25.9980  -38.2680   23.9100 H   0  0  0  0  0  0  0  0  0  0  0  0
  -26.3870  -31.6730   25.0960 C   0  0  1  0  0  0  0  0  0  0  0  0
  -25.2790  -31.4250   26.1460 C   0  0  0  0  0  1  0  0  0  0  0  0
  -26.9750  -30.3000   24.6970 C   0  0  0  0  0  1  0  0  0  0  0  0
  -27.5270  -32.4620   25.7810 C   0  0  0  0  0  1  0  0  0  0  0  0
  1  7  1  0
  2  9  2  0
  3  1  1  0
  4  3  1  0
  4  5  1  0
  5  6  1  0
  6 57  1  0
  6  2  1  0
  7  2  1  0
  7 10  1  0
  8  1  2  0
 11 14  2  0
 11 15  1  0
 12 16  2  0
 13 16  1  0
 14 12  1  0
 15 10  1  0
 15 13  2  0
 16 25  1  0
 17 23  1  0
 17 25  1  0
 18 23  1  0
 19 20  1  0
 19 18  1  0
 21 20  1  0
 21 30  1  0
 21 22  1  0
 23 22  1  0
 24 17  2  0
 25 26  1  0
 27 28  2  0
 28 47  1  0
 29 28  1  0
 29 32  1  0
 30 27  1  0
 30 31  1  0
 31 29  2  0
 32 33  1  0
 33 34  2  0
 35 38  1  0
 35 34  1  0
 36 35  2  0
 37 36  1  0
 37 32  2  0
 38 39  1  0
 39 40  1  0
 40 41  2  0
 42 41  1  0
 42 46  1  0
 43 42  2  0
 44 39  2  0
 44 43  1  0
 45 44  1  0
 47 48  1  0
 48 51  1  0
 48 50  1  0
 49 47  2  0
 52 53  1  0
 52 27  1  0
 54 52  1  0
 55 56  2  0
 56 14  1  0
 58 57  1  0
 58 59  1  0
 60 71  2  0
 61 59  1  0
 61 66  1  0
 62 70  1  0
 62 72  1  0
 63 69  1  0
 63 65  1  0
 64 70  1  0
 65 66  2  0
 65 64  1  0
 67 68  1  0
 67 61  2  0
 68 63  2  0
 69 62  1  0
 70 60  1  0
 72 74  2  0
 73 72  1  0
 75 73  1  0
 76 85  2  0
 76 81  1  0
 77 73  1  0
 77 81  1  0
 78 77  1  0
 79 80  1  0
 79 78  1  0
 80 76  1  0
 81 82  2  0
 82 83  1  0
 84 83  2  0
 85 84  1  0
 86 60  1  0
 86 87  1  0
 86 96  1  0
 87 90  1  0
 88 92  1  0
 88 87  1  0
 89 88  2  0
 92 91  1  0
 94 92  1  0
 94 95  1  0
 94 93  1  0
 96 99  1  1
 96 97  1  0
 98 96  1  0
M  ISO  4  17 100  25 100  58 101  59 101
M  END
>  <TORSDO>  (86) 
F 21

>  <SCORE>  (86) 
-12.839

>  <name>  (86) 
85

>  <ligand_id>  (86) 
85

>  <original_smiles>  (86) 
[H]C([H])=C([H])c1c([H])c(N([H])C(=O)N2C([H])([H])C([H])([H])C([H])([H])C([H])(n3nc(-c4c([H])c([H])c(Oc5c([H])c([H])c(F)c([H])c5F)c([H])c4[H])c(C(=O)N([H])[H])c3N([H])[H])C2([H])[H])c([H])c(C([H])([H])N2C(=O)C([H])([H])C([H])([H])C([H])([H])C([H])(C([H])([H])C([H])([H])Oc3c([H])c([H])c4c(c3[H])C([H])([H])N(C(=O)C([H])(N([H])C(=O)C([H])(N([H])C([H])([H])[H])C([H])([H])[H])C(C([H])([H])[H])(C([H])([H])[H])C([H])([H])[H])C([H])(C(=O)N([H])C3([H])c5c([H])c([H])c([H])c([H])c5C([H])([H])C([H])([H])C3([H])[H])C4([H])[H])C2=O)c1[H]

>  <smiles>  (86) 
[H]C([H])=C([H])c1c([H])c(N([H])C(=O)N2C([H])([H])C([H])([H])C([H])([H])C([H])(n3nc(-c4c([H])c([H])c(Oc5c([H])c([H])c(F)c([H])c5F)c([H])c4[H])c(C(=O)N([H])[H])c3N([H])[H])C2([H])[H])c([H])c(C([H])([H])N2C(=O)C([H])([H])C([H])([H])C([H])([H])C([H])(C([H])([H])C([H])([H])Oc3c([H])c([H])c4c(c3[H])C([H])([H])N(C(=O)C([H])(N([H])C(=O)C([H])(N([H])C([H])([H])[H])C([H])([H])[H])C(C([H])([H])[H])(C([H])([H])[H])C([H])([H])[H])C([H])(C(=O)N([H])C3([H])c5c([H])c([H])c([H])c([H])c5C([H])([H])C([H])([H])C3([H])[H])C4([H])[H])C2=O)c1[H]

$$$$
86:0:0
     RDKit          3D

 92100  0  0  1  0  0  0  0  0999 V2000
  -28.7530  -21.9240   20.3130 C   0  0  0  0  0  0  0  0  0  0  0  0
  -29.1480  -20.8800   19.5590 N   0  0  0  0  0  0  0  0  0  0  0  0
  -29.0310  -22.0540   21.5080 O   0  0  0  0  0  0  0  0  0  0  0  0
  -29.0290  -21.0050   18.5610 H   0  0  0  0  0  0  0  0  0  0  0  0
  -30.2000  -18.7460   19.0170 C   0  0  0  0  0  3  0  0  0  0  0  0
  -29.2150  -19.0210   21.2210 C   0  0  0  0  0  3  0  0  0  0  0  0
  -30.4590  -17.3860   19.2990 C   0  0  0  0  0  3  0  0  0  0  0  0
  -29.4610  -17.6590   21.4960 C   0  0  0  0  0  3  0  0  0  0  0  0
  -29.5520  -19.5710   19.9630 C   0  0  0  0  0  0  0  0  0  0  0  0
  -30.0580  -16.8160   20.5330 C   0  0  0  0  0  0  0  0  0  0  0  0
  -30.7540  -14.4550   20.1110 C   0  0  0  0  0  0  0  0  0  0  0  0
  -30.3810  -12.3310   18.9220 C   0  0  0  0  0  2  0  0  0  0  0  0
  -29.3830  -12.5910   17.7730 C   0  0  0  0  0  2  0  0  0  0  0  0
  -27.9290  -12.4580   18.2690 C   0  0  0  0  0  2  0  0  0  0  0  0
  -27.6660  -13.2520   19.5770 C   0  0  0  0  0  3  0  0  0  0  0  0
  -28.7730  -12.9770   20.6220 C   0  0  0  0  0  2  0  0  0  0  0  0
  -30.0750  -13.2800   20.0030 N   0  0  0  0  0  0  0  0  0  0  0  0
  -31.8340  -14.6600   19.5520 O   0  0  0  0  0  0  0  0  0  0  0  0
  -30.1290  -15.4160   20.8180 N   0  0  0  0  0  0  0  0  0  0  0  0
  -29.4090  -15.0700   21.4340 H   0  0  0  0  0  0  0  0  0  0  0  0
  -25.3040  -13.8510   20.4100 C   0  0  0  0  0  0  0  0  0  0  0  0
  -24.2530  -13.0730   20.8150 C   0  0  0  0  0  0  0  0  0  0  0  0
  -24.7080  -11.7210   20.7380 C   0  0  0  0  0  0  0  0  0  0  0  0
  -26.3360  -12.9710   20.1140 N   0  0  0  0  0  0  0  0  0  0  0  0
  -25.9820  -11.6850   20.3650 N   0  0  0  0  0  0  0  0  0  0  0  0
  -23.9900  -10.4560   20.9410 C   0  0  0  0  0  0  0  0  0  0  0  0
  -24.4410   -9.4900   21.8680 C   0  0  0  0  0  3  0  0  0  0  0  0
  -23.7230   -8.2910   22.0600 C   0  0  0  0  0  3  0  0  0  0  0  0
  -22.5390   -8.0470   21.3250 C   0  0  0  0  0  0  0  0  0  0  0  0
  -22.1050   -9.0010   20.3870 C   0  0  0  0  0  3  0  0  0  0  0  0
  -22.8240  -10.1920   20.1930 C   0  0  0  0  0  3  0  0  0  0  0  0
  -21.7910   -6.8990   21.4250 O   0  0  0  0  0  0  0  0  0  0  0  0
  -21.7260   -6.1800   22.5900 C   0  0  0  0  0  0  0  0  0  0  0  0
  -21.2840   -6.7610   23.7990 C   0  0  0  0  0  3  0  0  0  0  0  0
  -21.1660   -5.9690   24.9600 C   0  0  0  0  0  3  0  0  0  0  0  0
  -21.4810   -4.5970   24.9120 C   0  0  0  0  0  0  0  0  0  0  0  0
  -21.9180   -4.0170   23.7080 C   0  0  0  0  0  3  0  0  0  0  0  0
  -22.0370   -4.8060   22.5500 C   0  0  0  0  0  0  0  0  0  0  0  0
  -22.4370   -4.2370   21.3880 F   0  0  0  0  0  0  0  0  0  0  0  0
  -21.3640   -3.8350   26.0240 F   0  0  0  0  0  0  0  0  0  0  0  0
  -22.8700  -13.5450   21.1670 C   0  0  0  0  0  0  0  0  0  0  0  0
  -22.1870  -12.8350   22.0590 N   0  0  0  0  0  0  0  0  0  0  0  0
  -22.4070  -14.5800   20.6880 O   0  0  0  0  0  0  0  0  0  0  0  0
  -22.5720  -11.9950   22.4670 H   0  0  0  0  0  0  0  0  0  0  0  0
  -21.2640  -13.1340   22.3400 H   0  0  0  0  0  0  0  0  0  0  0  0
  -25.4650  -15.2230   20.2490 N   0  0  0  0  0  0  0  0  0  0  0  0
  -24.7140  -15.8830   20.4190 H   0  0  0  0  0  0  0  0  0  0  0  0
  -26.3110  -15.6650   19.9110 H   0  0  0  0  0  0  0  0  0  0  0  0
  -27.9190  -23.0010   19.6030 C   0  0  0  0  0  2  0  0  0  0  0  0
  -28.5690  -24.4000   19.4630 C   0  0  0  0  0  2  0  0  0  0  0  0
  -28.3120  -25.3620   20.6400 C   0  0  0  0  0  2  0  0  0  0  0  0
  -28.4300  -26.7310   20.2230 O   0  0  0  0  0  0  0  0  0  0  0  0
  -24.6020  -31.8940   23.2360 C   0  0  0  0  0  0  0  0  0  0  0  0
  -27.2550  -27.4510   20.1850 C   0  0  0  0  0  0  0  0  0  0  0  0
  -23.3980  -30.4820   21.5990 C   0  0  0  0  0  3  0  0  0  0  0  0
  -24.8530  -28.9430   20.1800 C   0  0  0  0  0  0  0  0  0  0  0  0
  -25.9210  -30.8520   21.3960 C   0  0  0  0  0  2  0  0  0  0  0  0
  -26.0100  -29.4810   20.7590 C   0  0  0  0  0  0  0  0  0  0  0  0
  -27.2150  -28.7440   20.7530 C   0  0  0  0  0  3  0  0  0  0  0  0
  -26.0840  -26.9260   19.5940 C   0  0  0  0  0  3  0  0  0  0  0  0
  -24.8860  -27.6660   19.5920 C   0  0  0  0  0  3  0  0  0  0  0  0
  -23.6030  -29.7920   20.2240 C   0  0  0  0  0  2  0  0  0  0  0  0
  -24.6580  -31.0910   22.1340 N   0  0  0  0  0  0  0  0  0  0  0  0
  -23.5210  -32.1630   23.7780 O   0  0  0  0  0  0  0  0  0  0  0  0
  -22.7480  -29.4660   22.5670 C   0  0  0  0  0  0  0  0  0  0  0  0
  -21.4230  -29.2850   22.4440 N   0  0  0  0  0  0  0  0  0  0  0  0
  -23.4350  -28.8410   23.3800 O   0  0  0  0  0  0  0  0  0  0  0  0
  -20.9300  -29.8460   21.7630 H   0  0  0  0  0  0  0  0  0  0  0  0
  -18.0530  -28.0840   22.9360 C   0  0  0  0  0  0  0  0  0  0  0  0
  -20.6100  -28.3470   23.2160 C   0  0  0  0  0  3  0  0  0  0  0  0
  -20.7180  -26.9180   22.6370 C   0  0  0  0  0  2  0  0  0  0  0  0
  -19.6200  -26.5990   21.6180 C   0  0  0  0  0  2  0  0  0  0  0  0
  -18.2350  -26.7350   22.2580 C   0  0  0  0  0  2  0  0  0  0  0  0
  -19.1700  -28.8500   23.3670 C   0  0  0  0  0  0  0  0  0  0  0  0
  -18.9470  -30.1150   23.9530 C   0  0  0  0  0  3  0  0  0  0  0  0
  -17.6410  -30.6180   24.1070 C   0  0  0  0  0  3  0  0  0  0  0  0
  -16.5400  -29.8480   23.6920 C   0  0  0  0  0  3  0  0  0  0  0  0
  -16.7480  -28.5820   23.1170 C   0  0  0  0  0  3  0  0  0  0  0  0
  -25.8890  -32.5280   23.8520 C   0  0  0  0  0  3  0  0  0  0  0  0
  -26.4190  -31.7530   25.1210 C   0  0  1  0  0  0  0  0  0  0  0  0
  -25.3340  -31.5020   26.1950 C   0  0  0  0  0  1  0  0  0  0  0  0
  -27.0070  -30.3810   24.7160 C   0  0  0  0  0  1  0  0  0  0  0  0
  -27.5700  -32.5490   25.7810 C   0  0  0  0  0  1  0  0  0  0  0  0
  -25.5750  -33.9220   24.1910 N   0  0  0  0  0  0  0  0  0  0  0  0
  -25.8950  -34.9790   23.4320 C   0  0  0  0  0  0  0  0  0  0  0  0
  -26.5570  -34.8830   22.3950 O   0  0  0  0  0  0  0  0  0  0  0  0
  -24.9850  -34.0700   24.9960 H   0  0  0  0  0  0  0  0  0  0  0  0
  -24.1500  -36.7580   23.0990 C   0  0  0  0  0  1  0  0  0  0  0  0
  -25.4020  -36.3610   23.8970 C   0  0  0  0  0  3  0  0  0  0  0  0
  -27.5390  -37.2600   24.7060 C   0  0  0  0  0  1  0  0  0  0  0  0
  -26.4240  -37.4230   23.7770 N   0  0  0  0  0  0  0  0  0  0  0  0
  -26.0140  -38.3390   23.9280 H   0  0  0  0  0  0  0  0  0  0  0  0
  1  3  2  0
  2  9  1  0
  2  1  1  0
  4  2  1  0
  5  7  2  0
  5  9  1  0
  6  8  1  0
  7 10  1  0
  9  6  2  0
 10 19  1  0
 10  8  2  0
 11 19  1  0
 12 17  1  0
 13 14  1  0
 13 12  1  0
 15 14  1  0
 15 24  1  0
 15 16  1  0
 17 11  1  0
 17 16  1  0
 18 11  2  0
 19 20  1  0
 21 22  2  0
 22 41  1  0
 23 22  1  0
 23 26  1  0
 24 25  1  0
 24 21  1  0
 25 23  2  0
 26 27  1  0
 27 28  2  0
 29 32  1  0
 29 28  1  0
 30 29  2  0
 31 30  1  0
 31 26  2  0
 32 33  1  0
 33 34  1  0
 34 35  2  0
 36 35  1  0
 36 40  1  0
 37 36  2  0
 38 33  2  0
 38 37  1  0
 39 38  1  0
 41 42  1  0
 42 45  1  0
 42 44  1  0
 43 41  2  0
 46 21  1  0
 46 47  1  0
 48 46  1  0
 49  1  1  0
 50 49  1  0
 50 51  1  0
 52 51  1  0
 53 64  2  0
 54 52  1  0
 54 59  1  0
 55 63  1  0
 55 65  1  0
 56 62  1  0
 56 58  1  0
 57 63  1  0
 58 57  1  0
 59 58  2  0
 60 54  2  0
 61 60  1  0
 61 56  2  0
 62 55  1  0
 63 53  1  0
 65 67  2  0
 66 65  1  0
 68 66  1  0
 69 78  2  0
 69 74  1  0
 70 66  1  0
 70 74  1  0
 71 70  1  0
 72 73  1  0
 72 71  1  0
 73 69  1  0
 74 75  2  0
 75 76  1  0
 77 76  2  0
 78 77  1  0
 79 53  1  0
 79 84  1  0
 79 80  1  0
 80 83  1  1
 80 81  1  0
 82 80  1  0
 84 87  1  0
 85 89  1  0
 85 84  1  0
 86 85  2  0
 89 88  1  0
 91 89  1  0
 91 92  1  0
 91 90  1  0
M  ISO  4  11 100  19 100  51 101  52 101
M  END
>  <TORSDO>  (87) 
F 20

>  <SCORE>  (87) 
-13.224

>  <name>  (87) 
86

>  <ligand_id>  (87) 
86

>  <original_smiles>  (87) 
[H]c1c([H])c([H])c2c(c1[H])C([H])([H])C([H])([H])C([H])([H])C2([H])N([H])C(=O)C1([H])N(C(=O)C([H])(N([H])C(=O)C([H])(N([H])C([H])([H])[H])C([H])([H])[H])C(C([H])([H])[H])(C([H])([H])[H])C([H])([H])[H])C([H])([H])c2c([H])c(OC([H])([H])C([H])([H])C([H])([H])C(=O)N([H])c3c([H])c([H])c(N([H])C(=O)N4C([H])([H])C([H])([H])C([H])([H])C([H])(n5nc(-c6c([H])c([H])c(Oc7c([H])c([H])c(F)c([H])c7F)c([H])c6[H])c(C(=O)N([H])[H])c5N([H])[H])C4([H])[H])c([H])c3[H])c([H])c([H])c2C1([H])[H]

>  <smiles>  (87) 
[H]c1c([H])c([H])c2c(c1[H])C([H])([H])C([H])([H])C([H])([H])C2([H])N([H])C(=O)C1([H])N(C(=O)C([H])(N([H])C(=O)C([H])(N([H])C([H])([H])[H])C([H])([H])[H])C(C([H])([H])[H])(C([H])([H])[H])C([H])([H])[H])C([H])([H])c2c([H])c(OC([H])([H])C([H])([H])C([H])([H])C(=O)N([H])c3c([H])c([H])c(N([H])C(=O)N4C([H])([H])C([H])([H])C([H])([H])C([H])(n5nc(-c6c([H])c([H])c(Oc7c([H])c([H])c(F)c([H])c7F)c([H])c6[H])c(C(=O)N([H])[H])c5N([H])[H])C4([H])[H])c([H])c3[H])c([H])c([H])c2C1([H])[H]

$$$$
87:0:0
     RDKit          3D

 92100  0  0  1  0  0  0  0  0999 V2000
  -29.8780  -21.9600   20.5100 C   0  0  0  0  0  0  0  0  0  0  0  0
  -29.4510  -20.6840   20.7210 N   0  0  0  0  0  0  0  0  0  0  0  0
  -31.0440  -22.2310   20.2080 O   0  0  0  0  0  0  0  0  0  0  0  0
  -28.4490  -20.5700   20.7900 H   0  0  0  0  0  0  0  0  0  0  0  0
  -32.3080  -18.4170   21.7080 C   0  0  0  0  0  3  0  0  0  0  0  0
  -31.5530  -19.5750   21.4530 C   0  0  0  0  0  3  0  0  0  0  0  0
  -31.7720  -17.1450   21.4500 C   0  0  0  0  0  3  0  0  0  0  0  0
  -29.6980  -18.1850   20.6940 C   0  0  0  0  0  3  0  0  0  0  0  0
  -30.2400  -19.4890   20.9310 C   0  0  0  0  0  0  0  0  0  0  0  0
  -30.4660  -17.0000   20.9250 C   0  0  0  0  0  0  0  0  0  0  0  0
  -30.5820  -14.6240   20.1220 C   0  0  0  0  0  0  0  0  0  0  0  0
  -30.2000  -12.4990   18.9190 C   0  0  0  0  0  2  0  0  0  0  0  0
  -29.1890  -12.7280   17.7780 C   0  0  0  0  0  2  0  0  0  0  0  0
  -27.7480  -12.5550   18.2930 C   0  0  0  0  0  2  0  0  0  0  0  0
  -27.4790  -13.3480   19.6000 C   0  0  0  0  0  3  0  0  0  0  0  0
  -28.6040  -13.1280   20.6370 C   0  0  0  0  0  2  0  0  0  0  0  0
  -29.8820  -13.4610   19.9900 N   0  0  0  0  0  0  0  0  0  0  0  0
  -31.6930  -14.7690   19.6060 O   0  0  0  0  0  0  0  0  0  0  0  0
  -29.9310  -15.6790   20.6800 N   0  0  0  0  0  0  0  0  0  0  0  0
  -28.9570  -15.5300   20.8990 H   0  0  0  0  0  0  0  0  0  0  0  0
  -25.1200  -13.8970   20.4630 C   0  0  0  0  0  0  0  0  0  0  0  0
  -24.0860  -13.1000   20.8720 C   0  0  0  0  0  0  0  0  0  0  0  0
  -24.5630  -11.7560   20.7830 C   0  0  0  0  0  0  0  0  0  0  0  0
  -26.1620  -13.0380   20.1510 N   0  0  0  0  0  0  0  0  0  0  0  0
  -25.8350  -11.7440   20.4020 N   0  0  0  0  0  0  0  0  0  0  0  0
  -23.8670  -10.4790   20.9800 C   0  0  0  0  0  0  0  0  0  0  0  0
  -24.3370   -9.5140   21.8980 C   0  0  0  0  0  3  0  0  0  0  0  0
  -23.6380   -8.3020   22.0840 C   0  0  0  0  0  3  0  0  0  0  0  0
  -22.4540   -8.0450   21.3530 C   0  0  0  0  0  0  0  0  0  0  0  0
  -22.0030   -8.9990   20.4230 C   0  0  0  0  0  3  0  0  0  0  0  0
  -22.7030  -10.2020   20.2350 C   0  0  0  0  0  3  0  0  0  0  0  0
  -21.7250   -6.8850   21.4500 O   0  0  0  0  0  0  0  0  0  0  0  0
  -21.6980   -6.1460   22.6050 C   0  0  0  0  0  0  0  0  0  0  0  0
  -21.2490   -6.6900   23.8280 C   0  0  0  0  0  3  0  0  0  0  0  0
  -21.1730   -5.8750   24.9760 C   0  0  0  0  0  3  0  0  0  0  0  0
  -21.5340   -4.5170   24.9010 C   0  0  0  0  0  0  0  0  0  0  0  0
  -21.9760   -3.9720   23.6820 C   0  0  0  0  0  3  0  0  0  0  0  0
  -22.0540   -4.7830   22.5370 C   0  0  0  0  0  0  0  0  0  0  0  0
  -22.4600   -4.2480   21.3600 F   0  0  0  0  0  0  0  0  0  0  0  0
  -21.4540   -3.7310   26.0000 F   0  0  0  0  0  0  0  0  0  0  0  0
  -22.7000  -13.5490   21.2340 C   0  0  0  0  0  0  0  0  0  0  0  0
  -22.0270  -12.8140   22.1130 N   0  0  0  0  0  0  0  0  0  0  0  0
  -22.2230  -14.5860   20.7730 O   0  0  0  0  0  0  0  0  0  0  0  0
  -22.4250  -11.9750   22.5070 H   0  0  0  0  0  0  0  0  0  0  0  0
  -21.0980  -13.0970   22.3960 H   0  0  0  0  0  0  0  0  0  0  0  0
  -25.2550  -15.2730   20.3080 N   0  0  0  0  0  0  0  0  0  0  0  0
  -24.4830  -15.9120   20.4670 H   0  0  0  0  0  0  0  0  0  0  0  0
  -26.0700  -15.7300   19.9200 H   0  0  0  0  0  0  0  0  0  0  0  0
  -28.8260  -22.9730   20.6490 C   0  0  0  0  0  3  0  0  0  0  0  0
  -29.0950  -24.3090   20.6450 C   0  0  0  0  0  3  0  0  0  0  0  0
  -28.0500  -25.4100   20.8770 C   0  0  0  0  0  2  0  0  0  0  0  0
  -28.2940  -26.6810   20.2160 O   0  0  0  0  0  0  0  0  0  0  0  0
  -24.5420  -31.9730   23.2390 C   0  0  0  0  0  0  0  0  0  0  0  0
  -27.1710  -27.4910   20.1730 C   0  0  0  0  0  0  0  0  0  0  0  0
  -23.3330  -30.5600   21.6110 C   0  0  0  0  0  3  0  0  0  0  0  0
  -24.7850  -29.0240   20.1780 C   0  0  0  0  0  0  0  0  0  0  0  0
  -25.8600  -30.9180   21.4020 C   0  0  0  0  0  2  0  0  0  0  0  0
  -25.9480  -29.5430   20.7610 C   0  0  0  0  0  0  0  0  0  0  0  0
  -27.1480  -28.7860   20.7530 C   0  0  0  0  0  3  0  0  0  0  0  0
  -25.9940  -27.0090   19.5600 C   0  0  0  0  0  3  0  0  0  0  0  0
  -24.8050  -27.7590   19.5700 C   0  0  0  0  0  3  0  0  0  0  0  0
  -23.5380  -29.8810   20.2310 C   0  0  0  0  0  2  0  0  0  0  0  0
  -24.5970  -31.1650   22.1410 N   0  0  0  0  0  0  0  0  0  0  0  0
  -23.4620  -32.2440   23.7830 O   0  0  0  0  0  0  0  0  0  0  0  0
  -22.6880  -29.5400   22.5780 C   0  0  0  0  0  0  0  0  0  0  0  0
  -21.3640  -29.3540   22.4600 N   0  0  0  0  0  0  0  0  0  0  0  0
  -23.3780  -28.9190   23.3910 O   0  0  0  0  0  0  0  0  0  0  0  0
  -20.8680  -29.9080   21.7740 H   0  0  0  0  0  0  0  0  0  0  0  0
  -17.9940  -28.1520   22.9810 C   0  0  0  0  0  0  0  0  0  0  0  0
  -20.5530  -28.4170   23.2370 C   0  0  0  0  0  3  0  0  0  0  0  0
  -20.6560  -26.9840   22.6660 C   0  0  0  0  0  2  0  0  0  0  0  0
  -19.5490  -26.6550   21.6590 C   0  0  0  0  0  2  0  0  0  0  0  0
  -18.1700  -26.8000   22.3110 C   0  0  0  0  0  2  0  0  0  0  0  0
  -19.1130  -28.9180   23.4030 C   0  0  0  0  0  0  0  0  0  0  0  0
  -18.8950  -30.1840   23.9890 C   0  0  0  0  0  3  0  0  0  0  0  0
  -17.5910  -30.6830   24.1600 C   0  0  0  0  0  3  0  0  0  0  0  0
  -16.4860  -29.9140   23.7570 C   0  0  0  0  0  3  0  0  0  0  0  0
  -16.6880  -28.6500   23.1730 C   0  0  0  0  0  3  0  0  0  0  0  0
  -25.8280  -32.6110   23.8490 C   0  0  0  0  0  3  0  0  0  0  0  0
  -26.3550  -31.8480   25.1260 C   0  0  1  0  0  0  0  0  0  0  0  0
  -25.2680  -31.6060   26.1980 C   0  0  0  0  0  1  0  0  0  0  0  0
  -26.9470  -30.4740   24.7340 C   0  0  0  0  0  1  0  0  0  0  0  0
  -27.5020  -32.6540   25.7800 C   0  0  0  0  0  1  0  0  0  0  0  0
  -25.5170  -34.0100   24.1720 N   0  0  0  0  0  0  0  0  0  0  0  0
  -25.8550  -35.0600   23.4100 C   0  0  0  0  0  0  0  0  0  0  0  0
  -26.5340  -34.9530   22.3850 O   0  0  0  0  0  0  0  0  0  0  0  0
  -24.9160  -34.1680   24.9680 H   0  0  0  0  0  0  0  0  0  0  0  0
  -24.1410  -36.8580   23.0220 C   0  0  0  0  0  1  0  0  0  0  0  0
  -25.3640  -36.4490   23.8580 C   0  0  0  0  0  3  0  0  0  0  0  0
  -27.4840  -37.3260   24.7330 C   0  0  0  0  0  1  0  0  0  0  0  0
  -26.4020  -37.4980   23.7670 N   0  0  0  0  0  0  0  0  0  0  0  0
  -25.9980  -38.4200   23.9060 H   0  0  0  0  0  0  0  0  0  0  0  0
  1 49  1  0
  1  2  1  0
  2  4  1  0
  2  9  1  0
  3  1  2  0
  6  5  1  0
  7  5  2  0
  8 10  2  0
  8  9  1  0
  9  6  2  0
 10  7  1  0
 11 19  1  0
 12 17  1  0
 13 14  1  0
 13 12  1  0
 15 14  1  0
 15 24  1  0
 15 16  1  0
 17 11  1  0
 17 16  1  0
 18 11  2  0
 19 20  1  0
 19 10  1  0
 21 22  2  0
 22 41  1  0
 23 22  1  0
 23 26  1  0
 24 25  1  0
 24 21  1  0
 25 23  2  0
 26 27  1  0
 27 28  2  0
 29 32  1  0
 29 28  1  0
 30 29  2  0
 31 30  1  0
 31 26  2  0
 32 33  1  0
 33 34  1  0
 34 35  2  0
 36 35  1  0
 36 40  1  0
 37 36  2  0
 38 33  2  0
 38 37  1  0
 39 38  1  0
 41 42  1  0
 42 45  1  0
 42 44  1  0
 43 41  2  0
 46 21  1  0
 46 47  1  0
 48 46  1  0
 50 49  2  0
 50 51  1  0
 52 51  1  0
 53 64  2  0
 54 52  1  0
 54 59  1  0
 55 63  1  0
 55 65  1  0
 56 62  1  0
 56 58  1  0
 57 63  1  0
 58 57  1  0
 59 58  2  0
 60 61  1  0
 60 54  2  0
 61 56  2  0
 62 55  1  0
 63 53  1  0
 65 67  2  0
 66 65  1  0
 68 66  1  0
 69 78  2  0
 69 74  1  0
 70 66  1  0
 70 74  1  0
 71 70  1  0
 72 73  1  0
 72 71  1  0
 73 69  1  0
 74 75  2  0
 75 76  1  0
 77 76  2  0
 78 77  1  0
 79 53  1  0
 79 84  1  0
 79 80  1  0
 80 83  1  1
 80 81  1  0
 82 80  1  0
 84 87  1  0
 85 89  1  0
 85 84  1  0
 86 85  2  0
 89 88  1  0
 91 89  1  0
 91 92  1  0
 91 90  1  0
M  ISO  4  11 100  19 100  51 101  52 101
M  END
>  <TORSDO>  (88) 
F 19

>  <SCORE>  (88) 
-13.779

>  <name>  (88) 
87

>  <ligand_id>  (88) 
87

>  <original_smiles>  (88) 
[H]C(C(=O)N([H])c1c([H])c([H])c([H])c(N([H])C(=O)N2C([H])([H])C([H])([H])C([H])([H])C([H])(n3nc(-c4c([H])c([H])c(Oc5c([H])c([H])c(F)c([H])c5F)c([H])c4[H])c(C(=O)N([H])[H])c3N([H])[H])C2([H])[H])c1[H])=C([H])C([H])([H])Oc1c([H])c([H])c2c(c1[H])C([H])([H])N(C(=O)C([H])(N([H])C(=O)C([H])(N([H])C([H])([H])[H])C([H])([H])[H])C(C([H])([H])[H])(C([H])([H])[H])C([H])([H])[H])C([H])(C(=O)N([H])C1([H])c3c([H])c([H])c([H])c([H])c3C([H])([H])C([H])([H])C1([H])[H])C2([H])[H]

>  <smiles>  (88) 
[H]C(C(=O)N([H])c1c([H])c([H])c([H])c(N([H])C(=O)N2C([H])([H])C([H])([H])C([H])([H])C([H])(n3nc(-c4c([H])c([H])c(Oc5c([H])c([H])c(F)c([H])c5F)c([H])c4[H])c(C(=O)N([H])[H])c3N([H])[H])C2([H])[H])c1[H])=C([H])C([H])([H])Oc1c([H])c([H])c2c(c1[H])C([H])([H])N(C(=O)C([H])(N([H])C(=O)C([H])(N([H])C([H])([H])[H])C([H])([H])[H])C(C([H])([H])[H])(C([H])([H])[H])C([H])([H])[H])C([H])(C(=O)N([H])C1([H])c3c([H])c([H])c([H])c([H])c3C([H])([H])C([H])([H])C1([H])[H])C2([H])[H]

$$$$
88:0:0
     RDKit          3D

 94 92  0  0  1  0  0  0  0  0999 V2000
  -20.9460  -28.2840   20.5410 C   0  0  0  0  0  2  0  0  0  0  0  0
  -21.3450  -29.2030   21.8750 N   0  0  0  0  0  2  0  0  0  0  0  0
  -20.4280  -29.0630   19.7090 O   0  0  0  0  0  1  0  0  0  0  0  0
  -20.8780  -30.0960   21.8620 H   0  0  0  0  0  0  0  0  0  0  0  0
  -22.3920  -22.8370   18.8250 C   0  0  0  0  0  3  0  0  0  0  0  0
  -21.7130  -24.1690   19.2060 C   0  0  0  0  0  3  0  0  0  0  0  0
  -23.6330  -21.9860   19.1890 C   0  0  0  0  0  2  0  0  0  0  0  0
  -22.0550  -25.2470   20.1800 C   0  0  0  0  0  3  0  0  0  0  0  0
  -23.7290  -23.8920   20.5020 C   0  0  0  0  0  1  0  0  0  0  0  0
  -24.8200  -22.0630   20.1200 C   0  0  0  0  0  1  0  0  0  0  0  0
  -24.6470  -24.5750   21.5030 C   0  0  0  0  0  1  0  0  0  0  0  0
  -28.2390  -18.6870   20.0630 C   0  0  0  0  0  2  0  0  0  0  0  0
  -30.2510  -16.1030   19.4530 C   0  0  0  0  0  2  0  0  0  0  0  0
  -30.3170  -14.6710   18.5880 C   0  0  0  0  0  2  0  0  0  0  0  0
  -29.2990  -13.6300   19.0280 C   0  0  0  0  0  2  0  0  0  0  0  0
  -28.2570  -14.5370   19.6550 C   0  0  0  0  0  3  0  0  0  0  0  0
  -28.6500  -15.6370   20.7220 C   0  0  0  0  0  2  0  0  0  0  0  0
  -28.8400  -16.9980   19.9860 N   0  0  0  0  0  0  0  0  0  0  0  0
  -29.5900  -18.7580   20.0180 O   0  0  0  0  0  1  0  0  0  0  0  0
  -26.5640  -20.1310   20.0890 N   0  0  0  0  0  1  0  0  0  0  0  0
  -25.9100  -19.3580   20.1620 H   0  0  0  0  0  0  0  0  0  0  0  0
  -25.9260  -14.7960   20.1640 C   0  0  0  0  0  0  0  0  0  0  0  0
  -24.9550  -13.9530   20.5540 C   0  0  0  0  0  0  0  0  0  0  0  0
  -25.5440  -12.6490   20.5960 C   0  0  0  0  0  0  0  0  0  0  0  0
  -27.0320  -13.9980   20.0290 N   0  0  0  0  0  0  0  0  0  0  0  0
  -26.8460  -12.6980   20.3330 N   0  0  0  0  0  0  0  0  0  0  0  0
  -24.9070  -11.3560   20.7930 C   0  0  0  0  0  0  0  0  0  0  0  0
  -25.1650  -10.5660   21.9330 C   0  0  0  0  0  3  0  0  0  0  0  0
  -24.4930   -9.3380   22.1050 C   0  0  0  0  0  3  0  0  0  0  0  0
  -23.5610   -8.8990   21.1340 C   0  0  0  0  0  0  0  0  0  0  0  0
  -23.3370   -9.6780   19.9870 C   0  0  0  0  0  3  0  0  0  0  0  0
  -24.0080  -10.8950   19.8140 C   0  0  0  0  0  3  0  0  0  0  0  0
  -22.8770   -7.7130   21.2060 O   0  0  0  0  0  0  0  0  0  0  0  0
  -22.3460   -7.2660   22.3860 C   0  0  0  0  0  0  0  0  0  0  0  0
  -21.4140   -8.0300   23.1240 C   0  0  0  0  0  3  0  0  0  0  0  0
  -20.8420   -7.4990   24.2960 C   0  0  0  0  0  3  0  0  0  0  0  0
  -21.1920   -6.2050   24.7270 C   0  0  0  0  0  0  0  0  0  0  0  0
  -22.1160   -5.4430   23.9930 C   0  0  0  0  0  3  0  0  0  0  0  0
  -22.6900   -5.9710   22.8240 C   0  0  0  0  0  0  0  0  0  0  0  0
  -23.5650   -5.2270   22.1060 F   0  0  0  0  0  0  0  0  0  0  0  0
  -20.6340   -5.6900   25.8490 F   0  0  0  0  0  0  0  0  0  0  0  0
  -23.5390  -14.3610   20.7470 C   0  0  0  0  0  0  0  0  0  0  0  0
  -22.8400  -13.7010   21.6550 N   0  0  0  0  0  0  0  0  0  0  0  0
  -23.0700  -15.3180   20.1300 O   0  0  0  0  0  0  0  0  0  0  0  0
  -23.2500  -12.9380   22.1750 H   0  0  0  0  0  0  0  0  0  0  0  0
  -21.8830  -13.9610   21.8430 H   0  0  0  0  0  0  0  0  0  0  0  0
  -25.9540  -16.1660   19.8950 N   0  0  0  0  0  0  0  0  0  0  0  0
  -25.0490  -16.6030   19.7400 H   0  0  0  0  0  0  0  0  0  0  0  0
  -26.6580  -16.4880   19.2420 H   0  0  0  0  0  0  0  0  0  0  0  0
  -22.1790  -30.2970   24.0400 C   0  0  0  0  0  1  0  0  0  0  0  0
  -22.1560  -28.0330   24.5470 C   0  0  0  0  0  1  0  0  0  0  0  0
  -22.5940  -28.9990   23.3390 C   0  0  0  0  0  2  0  0  0  0  0  0
  -24.6680  -28.3430   23.2560 C   0  0  0  0  0 15  0  0  0  0  0  0
  -25.9670  -27.4230   22.2130 O   0  0  0  0  0  1  0  0  0  0  0  0
  -24.3630  -31.5500   22.7690 C   0  0  0  0  0  0  0  0  0  0  0  0
  -26.8460  -27.6080   21.0160 C   0  0  0  0  0  3  0  0  0  0  0  0
  -23.6350  -29.8340   20.7620 C   0  0  0  0  0  3  0  0  0  0  0  0
  -25.6150  -29.2210   19.3260 C   0  0  0  0  0  3  0  0  0  0  0  0
  -25.9640  -30.8760   21.1520 C   0  0  0  0  0  2  0  0  0  0  0  0
  -26.4100  -29.6850   20.3870 C   0  0  0  0  0  3  0  0  0  0  0  0
  -27.3650  -28.8710   20.9780 C   0  0  0  0  0  2  0  0  0  0  0  0
  -26.6370  -27.0600   19.6890 C   0  0  0  0  0  2  0  0  0  0  0  0
  -25.9350  -27.9310   18.7870 C   0  0  0  0  0  2  0  0  0  0  0  0
  -24.2190  -29.8670   19.3120 C   0  0  0  0  0  2  0  0  0  0  0  0
  -24.6090  -30.6950   21.6900 N   0  0  0  0  0  0  0  0  0  0  0  0
  -23.2560  -32.0530   22.9460 O   0  0  0  0  0  0  0  0  0  0  0  0
  -23.5440  -28.1490   20.7480 C   0  0  0  0  0  0  0  0  0  0  0  0
  -22.9980  -26.9780   21.4080 N   0  0  0  0  0  2  0  0  0  0  0  0
  -24.2990  -27.3630   20.6960 O   0  0  0  0  0  0  0  0  0  0  0  0
  -23.7350  -26.3130   21.2160 H   0  0  0  0  0  0  0  0  0  0  0  0
  -18.4240  -27.2430   21.3920 C   0  0  0  0  0  0  0  0  0  0  0  0
  -21.6320  -26.1670   21.8520 C   0  0  0  0  0  1  0  0  0  0  0  0
  -22.1070  -26.5090   19.2380 C   0  0  0  0  0  1  0  0  0  0  0  0
  -20.1540  -26.2350   18.7520 C   0  0  0  0  0  1  0  0  0  0  0  0
  -18.6380  -26.4600   19.8750 C   0  0  0  0  0  2  0  0  0  0  0  0
  -19.5520  -26.9880   22.4670 C   0  0  0  0  0  3  0  0  0  0  0  0
  -19.1800  -28.2040   23.3910 C   0  0  0  0  0  3  0  0  0  0  0  0
  -18.1920  -29.3160   23.3570 C   0  0  0  0  0  3  0  0  0  0  0  0
  -17.2170  -29.3730   22.3570 C   0  0  0  0  0  3  0  0  0  0  0  0
  -17.3480  -28.3010   21.4230 C   0  0  0  0  0  3  0  0  0  0  0  0
  -25.4720  -32.0980   23.7920 C   0  0  0  0  0  3  0  0  0  0  0  0
  -25.6650  -31.3050   25.1550 C   0  0  1  0  0  0  0  0  0  0  0  0
  -24.3610  -30.9720   25.9230 C   0  0  0  0  0  1  0  0  0  0  0  0
  -26.5170  -30.0330   24.9320 C   0  0  0  0  0  1  0  0  0  0  0  0
  -26.5180  -32.1310   26.1500 C   0  0  0  0  0  1  0  0  0  0  0  0
  -25.1380  -33.4990   24.1030 N   0  0  0  0  0  0  0  0  0  0  0  0
  -25.6520  -34.5660   23.4730 C   0  0  0  0  0  0  0  0  0  0  0  0
  -26.5120  -34.4710   22.5930 O   0  0  0  0  0  0  0  0  0  0  0  0
  -24.3930  -33.6430   24.7670 H   0  0  0  0  0  0  0  0  0  0  0  0
  -24.0270  -36.3860   22.8680 C   0  0  0  0  0  1  0  0  0  0  0  0
  -25.1190  -35.9580   23.8640 C   0  0  0  0  0  3  0  0  0  0  0  0
  -27.1320  -36.7840   25.0010 C   0  0  0  0  0  1  0  0  0  0  0  0
  -26.1750  -36.9940   23.9180 N   0  0  0  0  0  0  0  0  0  0  0  0
  -25.7670  -37.9190   24.0280 H   0  0  0  0  0  0  0  0  0  0  0  0
  1  2  1  0
  3  1  1  0
  4  2  1  0
  5  7  1  0
  5  6  2  0
  6  8  1  0
  7 10  1  0
  8 72  1  0
  9 11  1  0
 13 18  1  0
 14 15  1  0
 14 13  1  0
 16 15  1  0
 16 25  1  0
 16 17  1  0
 18 12  1  0
 18 17  1  0
 19 12  1  0
 20 21  1  0
 22 23  2  0
 23 24  1  0
 23 42  1  0
 24 27  1  0
 25 22  1  0
 25 26  1  0
 26 24  2  0
 27 28  1  0
 28 29  2  0
 30 33  1  0
 30 29  1  0
 31 30  2  0
 32 31  1  0
 32 27  2  0
 33 34  1  0
 34 39  2  0
 34 35  1  0
 35 36  2  0
 36 37  1  0
 37 41  1  0
 38 37  2  0
 39 38  1  0
 40 39  1  0
 42 43  1  0
 43 46  1  0
 43 45  1  0
 44 42  2  0
 47 22  1  0
 48 47  1  0
 49 47  1  0
 52 50  1  0
 52 51  1  0
 55 66  2  0
 56 54  1  0
 57 67  1  0
 57 65  1  0
 58 63  1  0
 58 60  1  0
 59 65  1  0
 60 61  1  0
 60 59  1  0
 61 56  1  0
 62 56  1  0
 63 62  1  0
 64 58  1  0
 64 57  1  0
 65 55  1  0
 67 68  1  0
 69 67  2  0
 70 68  1  0
 71 80  2  0
 71 76  1  0
 73  8  1  0
 74 75  1  0
 75 71  1  0
 76 77  2  0
 78 77  1  0
 79 78  2  0
 80 79  1  0
 81 55  1  0
 81 86  1  0
 81 82  1  0
 82 83  1  1
 82 85  1  0
 84 82  1  0
 86 89  1  0
 87 91  1  0
 87 86  1  0
 88 87  2  0
 91 90  1  0
 91 93  1  0
 93 94  1  0
 93 92  1  0
M  ISO  4  12 100  20 100  53 101  54 101
M  END
>  <TORSDO>  (89) 
F 19

>  <SCORE>  (89) 
-6.629

>  <name>  (89) 
88

>  <ligand_id>  (89) 
88

>  <original_smiles>  (89) 
[H]c1c([H])c(C(=O)N([H])C(C([H])([H])[H])(C([H])([H])[H])C([H])([H])Oc2c([H])c([H])c3c(c2[H])C([H])([H])N(C(=O)C([H])(N([H])C(=O)C([H])(N([H])C([H])([H])[H])C([H])([H])[H])C(C([H])([H])[H])(C([H])([H])[H])C([H])([H])[H])C([H])(C(=O)N([H])C2([H])c4c([H])c([H])c([H])c([H])c4C([H])([H])C([H])([H])C2([H])[H])C3([H])[H])c(C([H])([H])[H])c(N([H])C(=O)N2C([H])([H])C([H])([H])C([H])([H])C([H])(n3nc(-c4c([H])c([H])c(Oc5c([H])c([H])c(F)c([H])c5F)c([H])c4[H])c(C(=O)N([H])[H])c3N([H])[H])C2([H])[H])c1[H]

>  <smiles>  (89) 
[H]c1c([H])c(C(=O)N([H])C(C([H])([H])[H])(C([H])([H])[H])C([H])([H])Oc2c([H])c([H])c3c(c2[H])C([H])([H])N(C(=O)C([H])(N([H])C(=O)C([H])(N([H])C([H])([H])[H])C([H])([H])[H])C(C([H])([H])[H])(C([H])([H])[H])C([H])([H])[H])C([H])(C(=O)N([H])C2([H])c4c([H])c([H])c([H])c([H])c4C([H])([H])C([H])([H])C2([H])[H])C3([H])[H])c(C([H])([H])[H])c(N([H])C(=O)N2C([H])([H])C([H])([H])C([H])([H])C([H])(n3nc(-c4c([H])c([H])c(Oc5c([H])c([H])c(F)c([H])c5F)c([H])c4[H])c(C(=O)N([H])[H])c3N([H])[H])C2([H])[H])c1[H]

$$$$
89:0:0
     RDKit          3D

 99107  0  0  1  0  0  0  0  0999 V2000
  -30.5450  -21.5910   21.3690 C   0  0  0  0  0  0  0  0  0  0  0  0
  -31.2150  -21.8560   22.4890 N   0  0  0  0  0  4  0  0  0  0  0  0
  -29.6440  -22.4730   20.9100 N   0  0  0  0  0  0  0  0  0  0  0  0
  -31.8870  -21.1840   22.8280 H   0  0  0  0  0  0  0  0  0  0  0  0
  -31.1660  -22.7480   22.9520 H   0  0  0  0  0  0  0  0  0  0  0  0
  -29.1510  -22.1890   20.0750 H   0  0  0  0  0  0  0  0  0  0  0  0
  -30.9810  -17.7580   19.4620 C   0  0  0  0  0  3  0  0  0  0  0  0
  -31.0770  -18.9270   18.6820 C   0  0  0  0  0  3  0  0  0  0  0  0
  -30.6790  -19.1240   21.4460 C   0  0  0  0  0  3  0  0  0  0  0  0
  -30.7470  -20.3090   20.6730 C   0  0  0  0  0  0  0  0  0  0  0  0
  -30.8040  -17.8430   20.8590 C   0  0  0  0  0  0  0  0  0  0  0  0
  -30.9820  -20.2070   19.2730 C   0  0  0  0  0  0  0  0  0  0  0  0
  -31.1750  -21.4240   18.3760 C   0  0  0  0  0  1  0  0  0  0  0  0
  -30.8100  -16.6050   21.7630 C   0  0  0  0  0  2  0  0  0  0  0  0
  -30.7600  -14.4270   20.5350 C   0  0  0  0  0  0  0  0  0  0  0  0
  -30.3980  -12.3180   19.3100 C   0  0  0  0  0  2  0  0  0  0  0  0
  -29.4670  -12.5450   18.1040 C   0  0  0  0  0  2  0  0  0  0  0  0
  -27.9890  -12.4280   18.5250 C   0  0  0  0  0  2  0  0  0  0  0  0
  -27.6560  -13.2620   19.7910 C   0  0  0  0  0  3  0  0  0  0  0  0
  -28.6990  -13.0130   20.9030 C   0  0  0  0  0  2  0  0  0  0  0  0
  -30.0340  -13.2960   20.3460 N   0  0  0  0  0  0  0  0  0  0  0  0
  -31.8710  -14.6080   20.0300 O   0  0  0  0  0  0  0  0  0  0  0  0
  -30.1660  -15.3890   21.2530 N   0  0  0  0  0  0  0  0  0  0  0  0
  -29.2370  -15.1880   21.5900 H   0  0  0  0  0  0  0  0  0  0  0  0
  -25.2500  -13.8940   20.4600 C   0  0  0  0  0  0  0  0  0  0  0  0
  -24.1740  -13.1330   20.8230 C   0  0  0  0  0  0  0  0  0  0  0  0
  -24.6270  -11.7770   20.8180 C   0  0  0  0  0  0  0  0  0  0  0  0
  -26.2940  -13.0030   20.2560 N   0  0  0  0  0  0  0  0  0  0  0  0
  -25.9210  -11.7270   20.5270 N   0  0  0  0  0  0  0  0  0  0  0  0
  -23.8910  -10.5210   21.0130 C   0  0  0  0  0  0  0  0  0  0  0  0
  -24.3130   -9.5570   21.9550 C   0  0  0  0  0  3  0  0  0  0  0  0
  -23.5770   -8.3670   22.1390 C   0  0  0  0  0  3  0  0  0  0  0  0
  -22.4070   -8.1320   21.3800 C   0  0  0  0  0  0  0  0  0  0  0  0
  -22.0040   -9.0850   20.4270 C   0  0  0  0  0  3  0  0  0  0  0  0
  -22.7400  -10.2670   20.2420 C   0  0  0  0  0  3  0  0  0  0  0  0
  -21.6430   -6.9930   21.4720 O   0  0  0  0  0  0  0  0  0  0  0  0
  -21.5910   -6.2520   22.6260 C   0  0  0  0  0  0  0  0  0  0  0  0
  -21.1820   -6.8160   23.8540 C   0  0  0  0  0  3  0  0  0  0  0  0
  -21.0760   -6.0040   25.0010 C   0  0  0  0  0  3  0  0  0  0  0  0
  -21.3700   -4.6290   24.9190 C   0  0  0  0  0  0  0  0  0  0  0  0
  -21.7710   -4.0660   23.6960 C   0  0  0  0  0  3  0  0  0  0  0  0
  -21.8790   -4.8750   22.5520 C   0  0  0  0  0  0  0  0  0  0  0  0
  -22.2460   -4.3230   21.3700 F   0  0  0  0  0  0  0  0  0  0  0  0
  -21.2610   -3.8460   26.0180 F   0  0  0  0  0  0  0  0  0  0  0  0
  -22.7750  -13.6220   21.0710 C   0  0  0  0  0  0  0  0  0  0  0  0
  -22.0300  -12.9390   21.9330 N   0  0  0  0  0  0  0  0  0  0  0  0
  -22.3520  -14.6430   20.5330 O   0  0  0  0  0  0  0  0  0  0  0  0
  -22.3860  -12.1120   22.3900 H   0  0  0  0  0  0  0  0  0  0  0  0
  -21.0930  -13.2480   22.1410 H   0  0  0  0  0  0  0  0  0  0  0  0
  -25.4270  -15.2600   20.2660 N   0  0  0  0  0  0  0  0  0  0  0  0
  -24.6650  -15.9220   20.3600 H   0  0  0  0  0  0  0  0  0  0  0  0
  -26.2870  -15.6890   19.9490 H   0  0  0  0  0  0  0  0  0  0  0  0
  -29.0590  -23.6270   21.6250 C   0  0  0  0  0  2  0  0  0  0  0  0
  -27.0390  -23.1920   20.1330 C   0  0  0  0  0  1  0  0  0  0  0  0
  -27.8600  -24.2830   20.8720 C   0  0  1  0  0  0  0  0  0  0  0  0
  -25.7130  -24.6660   22.2650 C   0  0  0  0  0  2  0  0  0  0  0  0
  -26.9960  -24.9400   21.9550 C   0  0  0  0  0  3  0  0  0  0  0  0
  -28.3630  -25.3280   19.8100 C   0  0  0  0  0  2  0  0  0  0  0  0
  -28.3460  -26.7160   20.1920 O   0  0  0  0  0  0  0  0  0  0  0  0
  -24.5540  -31.8920   23.2300 C   0  0  0  0  0  0  0  0  0  0  0  0
  -27.1670  -27.4400   20.1360 C   0  0  0  0  0  0  0  0  0  0  0  0
  -23.3380  -30.5040   21.5860 C   0  0  0  0  0  3  0  0  0  0  0  0
  -24.7800  -28.9650   20.1550 C   0  0  0  0  0  0  0  0  0  0  0  0
  -25.8680  -30.8430   21.3920 C   0  0  0  0  0  2  0  0  0  0  0  0
  -25.9420  -29.4760   20.7460 C   0  0  0  0  0  0  0  0  0  0  0  0
  -27.1360  -28.7220   20.7330 C   0  0  0  0  0  3  0  0  0  0  0  0
  -25.9820  -26.9460   19.5370 C   0  0  0  0  0  3  0  0  0  0  0  0
  -24.7950  -27.6970   19.5530 C   0  0  0  0  0  3  0  0  0  0  0  0
  -23.5400  -29.8300   20.2040 C   0  0  0  0  0  2  0  0  0  0  0  0
  -24.6060  -31.0930   22.1270 N   0  0  0  0  0  0  0  0  0  0  0  0
  -23.4760  -32.1750   23.7690 O   0  0  0  0  0  0  0  0  0  0  0  0
  -22.6780  -29.4840   22.5400 C   0  0  0  0  0  0  0  0  0  0  0  0
  -21.3490  -29.3250   22.4180 N   0  0  0  0  0  0  0  0  0  0  0  0
  -23.3540  -28.8410   23.3460 O   0  0  0  0  0  0  0  0  0  0  0  0
  -20.8620  -29.9000   21.7430 H   0  0  0  0  0  0  0  0  0  0  0  0
  -17.9580  -28.1970   22.9360 C   0  0  0  0  0  0  0  0  0  0  0  0
  -20.5210  -28.3970   23.1870 C   0  0  0  0  0  3  0  0  0  0  0  0
  -20.5890  -26.9690   22.5950 C   0  0  0  0  0  2  0  0  0  0  0  0
  -19.4720  -26.6820   21.5860 C   0  0  0  0  0  2  0  0  0  0  0  0
  -18.0990  -26.8510   22.2450 C   0  0  0  0  0  2  0  0  0  0  0  0
  -19.0950  -28.9300   23.3630 C   0  0  0  0  0  0  0  0  0  0  0  0
  -18.9090  -30.1930   23.9660 C   0  0  0  0  0  3  0  0  0  0  0  0
  -17.6180  -30.7210   24.1480 C   0  0  0  0  0  3  0  0  0  0  0  0
  -16.4930  -29.9810   23.7410 C   0  0  0  0  0  3  0  0  0  0  0  0
  -16.6650  -28.7220   23.1380 C   0  0  0  0  0  3  0  0  0  0  0  0
  -25.8460  -32.5080   23.8530 C   0  0  0  0  0  3  0  0  0  0  0  0
  -25.5500  -33.9070   24.1920 N   0  0  0  0  0  0  0  0  0  0  0  0
  -25.8920  -34.9600   23.4360 C   0  0  0  0  0  0  0  0  0  0  0  0
  -26.5640  -34.8540   22.4060 O   0  0  0  0  0  0  0  0  0  0  0  0
  -24.9550  -34.0650   24.9920 H   0  0  0  0  0  0  0  0  0  0  0  0
  -24.1830  -36.7720   23.0840 C   0  0  0  0  0  1  0  0  0  0  0  0
  -25.4170  -36.3490   23.8970 C   0  0  0  0  0  3  0  0  0  0  0  0
  -27.5580  -37.2110   24.7380 C   0  0  0  0  0  1  0  0  0  0  0  0
  -26.4610  -37.3930   23.7920 N   0  0  0  0  0  0  0  0  0  0  0  0
  -26.0620  -38.3150   23.9450 H   0  0  0  0  0  0  0  0  0  0  0  0
  -26.3630  -31.7220   25.1210 C   0  0  1  0  0  0  0  0  0  0  0  0
  -25.2720  -31.4780   26.1890 C   0  0  0  0  0  1  0  0  0  0  0  0
  -26.9370  -30.3460   24.7120 C   0  0  0  0  0  1  0  0  0  0  0  0
  -27.5220  -32.5030   25.7820 C   0  0  0  0  0  1  0  0  0  0  0  0
  1  2  2  0
  2  4  1  0
  2  5  1  0
  3  1  1  0
  3 53  1  0
  6  3  1  0
  7 11  1  0
  8 12  1  0
  8  7  2  0
 10  1  1  0
 10  9  1  0
 11  9  2  0
 11 14  1  0
 12 10  2  0
 13 12  1  0
 15 23  1  0
 16 21  1  0
 17 18  1  0
 17 16  1  0
 19 18  1  0
 19 28  1  0
 19 20  1  0
 21 15  1  0
 21 20  1  0
 22 15  2  0
 23 24  1  0
 23 14  1  0
 25 26  2  0
 26 45  1  0
 27 26  1  0
 27 30  1  0
 28 25  1  0
 28 29  1  0
 29 27  2  0
 30 31  1  0
 31 32  2  0
 33 36  1  0
 33 32  1  0
 34 33  2  0
 35 34  1  0
 35 30  2  0
 36 37  1  0
 37 38  1  0
 38 39  2  0
 40 39  1  0
 40 44  1  0
 41 40  2  0
 42 37  2  0
 42 41  1  0
 43 42  1  0
 45 46  1  0
 46 49  1  0
 46 48  1  0
 47 45  2  0
 50 51  1  0
 50 25  1  0
 52 50  1  0
 55 54  1  6
 55 53  1  0
 55 57  1  0
 57 56  2  0
 58 59  1  0
 58 55  1  0
 60 71  2  0
 61 59  1  0
 61 66  1  0
 62 70  1  0
 62 72  1  0
 63 69  1  0
 63 65  1  0
 64 70  1  0
 65 64  1  0
 66 65  2  0
 67 68  1  0
 67 61  2  0
 68 63  2  0
 69 62  1  0
 70 60  1  0
 72 74  2  0
 73 72  1  0
 75 73  1  0
 76 85  2  0
 76 81  1  0
 77 73  1  0
 77 81  1  0
 78 77  1  0
 79 80  1  0
 79 78  1  0
 80 76  1  0
 81 82  2  0
 82 83  1  0
 84 83  2  0
 85 84  1  0
 86 60  1  0
 86 87  1  0
 86 96  1  0
 87 90  1  0
 88 92  1  0
 88 87  1  0
 89 88  2  0
 92 91  1  0
 94 92  1  0
 94 95  1  0
 94 93  1  0
 96 99  1  1
 96 97  1  0
 98 96  1  0
M  ISO  4  15 100  23 100  58 101  59 101
M  END
>  <TORSDO>  (90) 
F 22

>  <SCORE>  (90) 
-13.771

>  <name>  (90) 
89

>  <ligand_id>  (90) 
89

>  <original_smiles>  (90) 
[H]C([H])=C([H])C(C([H])([H])[H])(C([H])([H])Oc1c([H])c([H])c2c(c1[H])C([H])([H])N(C(=O)C([H])(N([H])C(=O)C([H])(N([H])C([H])([H])[H])C([H])([H])[H])C(C([H])([H])[H])(C([H])([H])[H])C([H])([H])[H])C([H])(C(=O)N([H])C1([H])c3c([H])c([H])c([H])c([H])c3C([H])([H])C([H])([H])C1([H])[H])C2([H])[H])C([H])([H])[N+]([H])=C(c1c([H])c(C([H])([H])N([H])C(=O)N2C([H])([H])C([H])([H])C([H])([H])C([H])(n3nc(-c4c([H])c([H])c(Oc5c([H])c([H])c(F)c([H])c5F)c([H])c4[H])c(C(=O)N([H])[H])c3N([H])[H])C2([H])[H])c([H])c([H])c1C([H])([H])[H])N([H])[H]

>  <smiles>  (90) 
[H]C([H])=C([H])C(C([H])([H])[H])(C([H])([H])Oc1c([H])c([H])c2c(c1[H])C([H])([H])N(C(=O)C([H])(N([H])C(=O)C([H])(N([H])C([H])([H])[H])C([H])([H])[H])C(C([H])([H])[H])(C([H])([H])[H])C([H])([H])[H])C([H])(C(=O)N([H])C1([H])c3c([H])c([H])c([H])c([H])c3C([H])([H])C([H])([H])C1([H])[H])C2([H])[H])C([H])([H])[N+]([H])=C(c1c([H])c(C([H])([H])N([H])C(=O)N2C([H])([H])C([H])([H])C([H])([H])C([H])(n3nc(-c4c([H])c([H])c(Oc5c([H])c([H])c(F)c([H])c5F)c([H])c4[H])c(C(=O)N([H])[H])c3N([H])[H])C2([H])[H])c([H])c([H])c1C([H])([H])[H])N([H])[H]

$$$$
90:0:0
     RDKit          3D

 95104  0  0  1  0  0  0  0  0999 V2000
  -27.2770  -23.6730   19.9810 C   0  0  0  0  0  3  0  0  0  0  0  0
  -28.4790  -24.1980   20.3010 C   0  0  0  0  0  0  0  0  0  0  0  0
  -29.6350  -23.2800   20.4810 C   0  0  0  0  0  0  0  0  0  0  0  0
  -27.0080  -22.2270   19.6430 C   0  0  0  0  0  2  0  0  0  0  0  0
  -28.3050  -21.4510   19.4350 C   0  0  0  0  0  2  0  0  0  0  0  0
  -29.4000  -21.9430   20.2820 N   0  0  0  0  0  0  0  0  0  0  0  0
  -30.7290  -23.6660   20.9000 O   0  0  0  0  0  0  0  0  0  0  0  0
  -30.2000  -20.8630   20.9220 C   0  0  0  0  0  2  0  0  0  0  0  0
  -31.3030  -18.7020   17.9510 C   0  0  0  0  0  3  0  0  0  0  0  0
  -31.0340  -19.7970   18.7840 C   0  0  0  0  0  3  0  0  0  0  0  0
  -31.0490  -17.3950   18.3990 C   0  0  0  0  0  3  0  0  0  0  0  0
  -30.4950  -19.6040   20.0730 C   0  0  0  0  0  0  0  0  0  0  0  0
  -30.2740  -18.2670   20.5460 C   0  0  0  0  0  0  0  0  0  0  0  0
  -30.5600  -17.1420   19.7060 C   0  0  0  0  0  0  0  0  0  0  0  0
  -29.7360  -18.0440   21.9550 C   0  0  0  0  0  1  0  0  0  0  0  0
  -31.0070  -14.6720   19.8480 C   0  0  0  0  0  0  0  0  0  0  0  0
  -30.6580  -12.4060   18.9560 C   0  0  0  0  0  2  0  0  0  0  0  0
  -29.6660  -12.4960   17.7780 C   0  0  0  0  0  2  0  0  0  0  0  0
  -28.2160  -12.3910   18.2870 C   0  0  0  0  0  2  0  0  0  0  0  0
  -27.9260  -13.3440   19.4790 C   0  0  0  0  0  3  0  0  0  0  0  0
  -29.0340  -13.2550   20.5530 C   0  0  0  0  0  2  0  0  0  0  0  0
  -30.3280  -13.4930   19.8940 N   0  0  0  0  0  0  0  0  0  0  0  0
  -32.1570  -14.7400   19.4070 O   0  0  0  0  0  0  0  0  0  0  0  0
  -30.2980  -15.7890   20.1420 N   0  0  0  0  0  0  0  0  0  0  0  0
  -29.4220  -15.6350   20.6160 H   0  0  0  0  0  0  0  0  0  0  0  0
  -25.6250  -14.0150   20.4100 C   0  0  0  0  0  0  0  0  0  0  0  0
  -24.5450  -13.2730   20.8080 C   0  0  0  0  0  0  0  0  0  0  0  0
  -24.9280  -11.9060   20.6530 C   0  0  0  0  0  0  0  0  0  0  0  0
  -26.6010  -13.1020   20.0440 N   0  0  0  0  0  0  0  0  0  0  0  0
  -26.1890  -11.8240   20.2470 N   0  0  0  0  0  0  0  0  0  0  0  0
  -24.1480  -10.6710   20.8130 C   0  0  0  0  0  0  0  0  0  0  0  0
  -24.5200   -9.6800   21.7470 C   0  0  0  0  0  3  0  0  0  0  0  0
  -23.7430   -8.5110   21.8960 C   0  0  0  0  0  3  0  0  0  0  0  0
  -22.5820   -8.3250   21.1090 C   0  0  0  0  0  0  0  0  0  0  0  0
  -22.2310   -9.3040   20.1640 C   0  0  0  0  0  3  0  0  0  0  0  0
  -23.0060  -10.4650   20.0120 C   0  0  0  0  0  3  0  0  0  0  0  0
  -21.7820   -7.2090   21.1660 O   0  0  0  0  0  0  0  0  0  0  0  0
  -21.5920   -6.5180   22.3360 C   0  0  0  0  0  0  0  0  0  0  0  0
  -21.0350   -7.1320   23.4810 C   0  0  0  0  0  3  0  0  0  0  0  0
  -20.7930   -6.3680   24.6400 C   0  0  0  0  0  3  0  0  0  0  0  0
  -21.0960   -4.9930   24.6550 C   0  0  0  0  0  0  0  0  0  0  0  0
  -21.6460   -4.3810   23.5150 C   0  0  0  0  0  3  0  0  0  0  0  0
  -21.8890   -5.1410   22.3590 C   0  0  0  0  0  0  0  0  0  0  0  0
  -22.3990   -4.5420   21.2560 F   0  0  0  0  0  0  0  0  0  0  0  0
  -20.8570   -4.2590   25.7670 F   0  0  0  0  0  0  0  0  0  0  0  0
  -23.1990  -13.8010   21.2140 C   0  0  0  0  0  0  0  0  0  0  0  0
  -22.5120  -13.0990   22.1080 N   0  0  0  0  0  0  0  0  0  0  0  0
  -22.7690  -14.8680   20.7750 O   0  0  0  0  0  0  0  0  0  0  0  0
  -22.8730  -12.2340   22.4840 H   0  0  0  0  0  0  0  0  0  0  0  0
  -21.6120  -13.4310   22.4230 H   0  0  0  0  0  0  0  0  0  0  0  0
  -25.8530  -15.3840   20.3100 N   0  0  0  0  0  0  0  0  0  0  0  0
  -25.1350  -16.0700   20.5190 H   0  0  0  0  0  0  0  0  0  0  0  0
  -26.6980  -15.8000   19.9360 H   0  0  0  0  0  0  0  0  0  0  0  0
  -28.5890  -25.6900   20.7220 C   0  0  0  0  0  2  0  0  0  0  0  0
  -28.4350  -26.6790   19.6690 O   0  0  0  0  0  0  0  0  0  0  0  0
  -24.6260  -31.7160   23.0720 C   0  0  0  0  0  0  0  0  0  0  0  0
  -27.2900  -27.4510   19.7390 C   0  0  0  0  0  0  0  0  0  0  0  0
  -23.4160  -30.3510   21.4040 C   0  0  0  0  0  3  0  0  0  0  0  0
  -24.8720  -28.9230   19.8710 C   0  0  0  0  0  0  0  0  0  0  0  0
  -25.9310  -30.7740   21.1680 C   0  0  0  0  0  2  0  0  0  0  0  0
  -26.0330  -29.4320   20.4690 C   0  0  0  0  0  0  0  0  0  0  0  0
  -27.2440  -28.6970   20.4150 C   0  0  0  0  0  3  0  0  0  0  0  0
  -26.1280  -27.0000   19.0850 C   0  0  0  0  0  3  0  0  0  0  0  0
  -24.9160  -27.7040   19.1760 C   0  0  0  0  0  3  0  0  0  0  0  0
  -23.6070  -29.7450   19.9900 C   0  0  0  0  0  2  0  0  0  0  0  0
  -24.6770  -30.9610   21.9380 N   0  0  0  0  0  0  0  0  0  0  0  0
  -23.5520  -31.9350   23.6490 O   0  0  0  0  0  0  0  0  0  0  0  0
  -22.8180  -29.2690   22.3330 C   0  0  0  0  0  0  0  0  0  0  0  0
  -21.4970  -29.0500   22.2290 N   0  0  0  0  0  0  0  0  0  0  0  0
  -23.5390  -28.6310   23.1060 O   0  0  0  0  0  0  0  0  0  0  0  0
  -20.9750  -29.6220   21.5790 H   0  0  0  0  0  0  0  0  0  0  0  0
  -18.1680  -27.7420   22.7550 C   0  0  0  0  0  0  0  0  0  0  0  0
  -20.7250  -28.0590   22.9770 C   0  0  0  0  0  3  0  0  0  0  0  0
  -20.8520  -26.6560   22.3370 C   0  0  0  0  0  2  0  0  0  0  0  0
  -19.7340  -26.3470   21.3370 C   0  0  0  0  0  2  0  0  0  0  0  0
  -18.3640  -26.4260   22.0190 C   0  0  0  0  0  2  0  0  0  0  0  0
  -19.2770  -28.5150   23.1900 C   0  0  0  0  0  0  0  0  0  0  0  0
  -19.0390  -29.7460   23.8380 C   0  0  0  0  0  3  0  0  0  0  0  0
  -17.7270  -30.2050   24.0550 C   0  0  0  0  0  3  0  0  0  0  0  0
  -16.6330  -29.4260   23.6380 C   0  0  0  0  0  3  0  0  0  0  0  0
  -16.8550  -28.1960   22.9930 C   0  0  0  0  0  3  0  0  0  0  0  0
  -25.9110  -32.3540   23.6840 C   0  0  0  0  0  3  0  0  0  0  0  0
  -26.4740  -31.5560   24.9230 C   0  0  1  0  0  0  0  0  0  0  0  0
  -25.4110  -31.2610   26.0090 C   0  0  0  0  0  1  0  0  0  0  0  0
  -27.0790  -30.2040   24.4740 C   0  0  0  0  0  1  0  0  0  0  0  0
  -27.6250  -32.3550   25.5810 C   0  0  0  0  0  1  0  0  0  0  0  0
  -25.5810  -33.7330   24.0610 N   0  0  0  0  0  0  0  0  0  0  0  0
  -25.8850  -34.8160   23.3320 C   0  0  0  0  0  0  0  0  0  0  0  0
  -26.5430  -34.7580   22.2900 O   0  0  0  0  0  0  0  0  0  0  0  0
  -24.9950  -33.8530   24.8750 H   0  0  0  0  0  0  0  0  0  0  0  0
  -24.1250  -36.5890   23.0410 C   0  0  0  0  0  1  0  0  0  0  0  0
  -25.3730  -36.1780   23.8380 C   0  0  0  0  0  3  0  0  0  0  0  0
  -27.4880  -37.0730   24.7050 C   0  0  0  0  0  1  0  0  0  0  0  0
  -26.3880  -37.2520   23.7620 N   0  0  0  0  0  0  0  0  0  0  0  0
  -25.9650  -38.1590   23.9340 H   0  0  0  0  0  0  0  0  0  0  0  0
  1  2  2  0
  2  3  1  0
  2 54  1  0
  3  7  2  0
  4  1  1  0
  5  4  1  0
  5  6  1  0
  6  3  1  0
  6  8  1  0
  9 11  2  0
  9 10  1  0
 10 12  2  0
 11 14  1  0
 12 13  1  0
 12  8  1  0
 13 15  1  0
 14 24  1  0
 14 13  2  0
 16 22  1  0
 16 24  1  0
 17 22  1  0
 18 19  1  0
 18 17  1  0
 20 19  1  0
 20 29  1  0
 20 21  1  0
 22 21  1  0
 23 16  2  0
 24 25  1  0
 26 27  2  0
 27 46  1  0
 28 27  1  0
 28 31  1  0
 29 30  1  0
 29 26  1  0
 30 28  2  0
 31 32  1  0
 32 33  2  0
 34 37  1  0
 34 33  1  0
 35 34  2  0
 36 35  1  0
 36 31  2  0
 37 38  1  0
 38 43  2  0
 38 39  1  0
 39 40  2  0
 40 41  1  0
 41 45  1  0
 42 41  2  0
 43 42  1  0
 44 43  1  0
 46 47  1  0
 47 50  1  0
 47 49  1  0
 48 46  2  0
 51 26  1  0
 51 52  1  0
 53 51  1  0
 55 57  1  0
 55 54  1  0
 56 67  2  0
 57 62  1  0
 58 66  1  0
 58 68  1  0
 59 65  1  0
 59 61  1  0
 60 66  1  0
 61 60  1  0
 62 61  2  0
 63 64  1  0
 63 57  2  0
 64 59  2  0
 65 58  1  0
 66 56  1  0
 68 70  2  0
 69 68  1  0
 71 69  1  0
 72 81  2  0
 72 77  1  0
 73 69  1  0
 73 77  1  0
 74 73  1  0
 75 76  1  0
 75 74  1  0
 76 72  1  0
 77 78  2  0
 78 79  1  0
 80 79  2  0
 81 80  1  0
 82 56  1  0
 82 87  1  0
 82 83  1  0
 83 86  1  1
 83 84  1  0
 85 83  1  0
 87 90  1  0
 88 92  1  0
 88 87  1  0
 89 88  2  0
 92 91  1  0
 94 92  1  0
 94 95  1  0
 94 93  1  0
M  ISO  4  16 100  24 100  54 101  55 101
M  END
>  <TORSDO>  (91) 
F 19

>  <SCORE>  (91) 
-13.191

>  <name>  (91) 
90

>  <ligand_id>  (91) 
90

>  <original_smiles>  (91) 
[H]C1=C(C([H])([H])Oc2c([H])c([H])c3c(c2[H])C([H])([H])N(C(=O)C([H])(N([H])C(=O)C([H])(N([H])C([H])([H])[H])C([H])([H])[H])C(C([H])([H])[H])(C([H])([H])[H])C([H])([H])[H])C([H])(C(=O)N([H])C2([H])c4c([H])c([H])c([H])c([H])c4C([H])([H])C([H])([H])C2([H])[H])C3([H])[H])C(=O)N(C([H])([H])c2c([H])c([H])c([H])c(N([H])C(=O)N3C([H])([H])C([H])([H])C([H])([H])C([H])(n4nc(-c5c([H])c([H])c(Oc6c([H])c([H])c(F)c([H])c6F)c([H])c5[H])c(C(=O)N([H])[H])c4N([H])[H])C3([H])[H])c2C([H])([H])[H])C([H])([H])C1([H])[H]

>  <smiles>  (91) 
[H]C1=C(C([H])([H])Oc2c([H])c([H])c3c(c2[H])C([H])([H])N(C(=O)C([H])(N([H])C(=O)C([H])(N([H])C([H])([H])[H])C([H])([H])[H])C(C([H])([H])[H])(C([H])([H])[H])C([H])([H])[H])C([H])(C(=O)N([H])C2([H])c4c([H])c([H])c([H])c([H])c4C([H])([H])C([H])([H])C2([H])[H])C3([H])[H])C(=O)N(C([H])([H])c2c([H])c([H])c([H])c(N([H])C(=O)N3C([H])([H])C([H])([H])C([H])([H])C([H])(n4nc(-c5c([H])c([H])c(Oc6c([H])c([H])c(F)c([H])c6F)c([H])c5[H])c(C(=O)N([H])[H])c4N([H])[H])C3([H])[H])c2C([H])([H])[H])C([H])([H])C1([H])[H]

$$$$
91:0:0
     RDKit          3D

 97106  0  0  1  0  0  0  0  0999 V2000
  -29.1450  -21.6890   21.3990 C   0  0  0  0  0  0  0  0  0  0  0  0
  -28.7230  -23.1950   21.3900 C   0  0  0  0  0  2  0  0  0  0  0  0
  -29.2100  -23.2770   18.9410 C   0  0  0  0  0  2  0  0  0  0  0  0
  -29.3510  -21.7170   18.9300 C   0  0  0  0  0  2  0  0  0  0  0  0
  -28.2200  -23.7180   20.0290 C   0  0  0  0  0  3  0  0  0  0  0  0
  -29.5300  -21.0530   20.2500 N   0  0  0  0  0  0  0  0  0  0  0  0
  -29.1350  -21.1080   22.4900 O   0  0  0  0  0  0  0  0  0  0  0  0
  -31.9840  -17.5190   20.4020 C   0  0  0  0  0  3  0  0  0  0  0  0
  -29.7650  -18.4980   20.3110 C   0  0  0  0  0  3  0  0  0  0  0  0
  -32.5630  -18.8020   20.3760 C   0  0  0  0  0  0  0  0  0  0  0  0
  -31.7470  -19.9570   20.3050 C   0  0  0  0  0  0  0  0  0  0  0  0
  -30.3270  -19.8280   20.2960 C   0  0  0  0  0  0  0  0  0  0  0  0
  -30.5870  -17.3150   20.3400 C   0  0  0  0  0  0  0  0  0  0  0  0
  -32.4330  -21.3230   20.2490 C   0  0  0  0  0  1  0  0  0  0  0  0
  -30.7470  -14.7800   20.0880 C   0  0  0  0  0  0  0  0  0  0  0  0
  -30.4680  -12.4500   19.2770 C   0  0  0  0  0  2  0  0  0  0  0  0
  -29.5280  -12.4420   18.0570 C   0  0  0  0  0  2  0  0  0  0  0  0
  -28.0630  -12.3150   18.5140 C   0  0  0  0  0  2  0  0  0  0  0  0
  -27.7030  -13.3110   19.6500 C   0  0  0  0  0  3  0  0  0  0  0  0
  -28.7710  -13.3260   20.7660 C   0  0  0  0  0  2  0  0  0  0  0  0
  -30.0700  -13.5890   20.1330 N   0  0  0  0  0  0  0  0  0  0  0  0
  -31.8960  -14.8160   19.6410 O   0  0  0  0  0  0  0  0  0  0  0  0
  -30.0620  -15.9440   20.3420 N   0  0  0  0  0  0  0  0  0  0  0  0
  -29.0750  -15.8360   20.5170 H   0  0  0  0  0  0  0  0  0  0  0  0
  -25.3590  -13.9670   20.4690 C   0  0  0  0  0  0  0  0  0  0  0  0
  -24.2820  -13.2200   20.8600 C   0  0  0  0  0  0  0  0  0  0  0  0
  -24.6960  -11.8560   20.7790 C   0  0  0  0  0  0  0  0  0  0  0  0
  -26.3650  -13.0600   20.1780 N   0  0  0  0  0  0  0  0  0  0  0  0
  -25.9740  -11.7820   20.4250 N   0  0  0  0  0  0  0  0  0  0  0  0
  -23.9350  -10.6130   20.9630 C   0  0  0  0  0  0  0  0  0  0  0  0
  -24.3250   -9.6390   21.9090 C   0  0  0  0  0  3  0  0  0  0  0  0
  -23.5640   -8.4630   22.0820 C   0  0  0  0  0  3  0  0  0  0  0  0
  -22.3990   -8.2510   21.3090 C   0  0  0  0  0  0  0  0  0  0  0  0
  -22.0280   -9.2120   20.3510 C   0  0  0  0  0  3  0  0  0  0  0  0
  -22.7890  -10.3800   20.1760 C   0  0  0  0  0  3  0  0  0  0  0  0
  -21.6130   -7.1270   21.3900 O   0  0  0  0  0  0  0  0  0  0  0  0
  -21.4670   -6.4330   22.5640 C   0  0  0  0  0  0  0  0  0  0  0  0
  -20.9700   -7.0470   23.7350 C   0  0  0  0  0  3  0  0  0  0  0  0
  -20.7720   -6.2800   24.9000 C   0  0  0  0  0  3  0  0  0  0  0  0
  -21.0590   -4.9020   24.8960 C   0  0  0  0  0  0  0  0  0  0  0  0
  -21.5490   -4.2880   23.7300 C   0  0  0  0  0  3  0  0  0  0  0  0
  -21.7500   -5.0520   22.5670 C   0  0  0  0  0  0  0  0  0  0  0  0
  -22.2020   -4.4520   21.4390 F   0  0  0  0  0  0  0  0  0  0  0  0
  -20.8620   -4.1640   26.0140 F   0  0  0  0  0  0  0  0  0  0  0  0
  -22.9120  -13.7360   21.1940 C   0  0  0  0  0  0  0  0  0  0  0  0
  -22.1970  -13.0500   22.0790 N   0  0  0  0  0  0  0  0  0  0  0  0
  -22.4870  -14.7820   20.7040 O   0  0  0  0  0  0  0  0  0  0  0  0
  -22.5550  -12.2050   22.4990 H   0  0  0  0  0  0  0  0  0  0  0  0
  -21.2790  -13.3780   22.3410 H   0  0  0  0  0  0  0  0  0  0  0  0
  -25.5630  -15.3360   20.3140 N   0  0  0  0  0  0  0  0  0  0  0  0
  -24.8210  -16.0120   20.4630 H   0  0  0  0  0  0  0  0  0  0  0  0
  -26.4070  -15.7530   19.9460 H   0  0  0  0  0  0  0  0  0  0  0  0
  -34.0840  -18.9250   20.4070 C   0  0  0  0  0  3  0  0  0  0  0  0
  -34.5380  -19.2920   19.2080 F   0  0  0  0  0  0  0  0  0  0  0  0
  -34.6800  -17.7860   20.7620 F   0  0  0  0  0  0  0  0  0  0  0  0
  -27.4650  -25.1170   19.9280 C   0  0  0  0  0  2  0  0  0  0  0  0
  -27.8940  -26.5230   20.1630 O   0  0  0  0  0  0  0  0  0  0  0  0
  -24.4780  -32.0530   23.3660 C   0  0  0  0  0  0  0  0  0  0  0  0
  -26.8340  -27.4610   20.1430 C   0  0  0  0  0  0  0  0  0  0  0  0
  -23.1670  -30.6780   21.7990 C   0  0  0  0  0  3  0  0  0  0  0  0
  -24.5130  -29.1370   20.2790 C   0  0  0  0  0  0  0  0  0  0  0  0
  -25.7030  -30.9570   21.4780 C   0  0  0  0  0  2  0  0  0  0  0  0
  -25.7240  -29.5850   20.8200 C   0  0  0  0  0  0  0  0  0  0  0  0
  -26.8880  -28.7550   20.7550 C   0  0  0  0  0  3  0  0  0  0  0  0
  -25.5980  -27.1110   19.5390 C   0  0  0  0  0  3  0  0  0  0  0  0
  -24.4520  -27.9050   19.6290 C   0  0  0  0  0  3  0  0  0  0  0  0
  -23.2950  -30.0230   20.4040 C   0  0  0  0  0  2  0  0  0  0  0  0
  -24.4720  -31.2440   22.2690 N   0  0  0  0  0  0  0  0  0  0  0  0
  -23.4290  -32.3420   23.9590 O   0  0  0  0  0  0  0  0  0  0  0  0
  -22.5530  -29.6540   22.7840 C   0  0  0  0  0  0  0  0  0  0  0  0
  -21.2520  -29.3570   22.6160 N   0  0  0  0  0  0  0  0  0  0  0  0
  -23.2440  -29.1330   23.6640 O   0  0  0  0  0  0  0  0  0  0  0  0
  -20.7500  -29.8350   21.8800 H   0  0  0  0  0  0  0  0  0  0  0  0
  -18.0050  -27.7960   22.9490 C   0  0  0  0  0  0  0  0  0  0  0  0
  -20.4750  -28.4020   23.4090 C   0  0  0  0  0  3  0  0  0  0  0  0
  -20.8010  -26.9460   23.0030 C   0  0  0  0  0  2  0  0  0  0  0  0
  -19.8480  -26.3910   21.9400 C   0  0  0  0  0  2  0  0  0  0  0  0
  -18.4030  -26.4210   22.4420 C   0  0  0  0  0  2  0  0  0  0  0  0
  -18.9780  -28.7320   23.3880 C   0  0  0  0  0  0  0  0  0  0  0  0
  -18.5550  -30.0100   23.8150 C   0  0  0  0  0  3  0  0  0  0  0  0
  -17.1910  -30.3540   23.8140 C   0  0  0  0  0  3  0  0  0  0  0  0
  -16.2290  -29.4200   23.3900 C   0  0  0  0  0  3  0  0  0  0  0  0
  -16.6370  -28.1440   22.9620 C   0  0  0  0  0  3  0  0  0  0  0  0
  -25.8020  -32.6690   23.9150 C   0  0  0  0  0  3  0  0  0  0  0  0
  -26.3650  -31.9020   25.1720 C   0  0  1  0  0  0  0  0  0  0  0  0
  -25.3150  -31.6660   26.2820 C   0  0  0  0  0  1  0  0  0  0  0  0
  -26.9370  -30.5230   24.7630 C   0  0  0  0  0  1  0  0  0  0  0  0
  -27.5400  -32.6990   25.7860 C   0  0  0  0  0  1  0  0  0  0  0  0
  -25.5300  -34.0750   24.2440 N   0  0  0  0  0  0  0  0  0  0  0  0
  -25.8500  -35.1150   23.4620 C   0  0  0  0  0  0  0  0  0  0  0  0
  -26.4780  -34.9910   22.4070 O   0  0  0  0  0  0  0  0  0  0  0  0
  -24.9770  -34.2490   25.0690 H   0  0  0  0  0  0  0  0  0  0  0  0
  -24.1470  -36.9390   23.1510 C   0  0  0  0  0  1  0  0  0  0  0  0
  -25.4050  -36.5160   23.9270 C   0  0  0  0  0  3  0  0  0  0  0  0
  -27.5810  -37.3590   24.6870 C   0  0  0  0  0  1  0  0  0  0  0  0
  -26.4550  -37.5470   23.7750 N   0  0  0  0  0  0  0  0  0  0  0  0
  -26.0720  -38.4760   23.9270 H   0  0  0  0  0  0  0  0  0  0  0  0
  1  7  2  0
  2  1  1  0
  3  5  1  0
  4  3  1  0
  4  6  1  0
  5 56  1  0
  5  2  1  0
  6 12  1  0
  6  1  1  0
  9 13  1  0
 10  8  1  0
 10 53  1  0
 11 10  2  0
 12 11  1  0
 12  9  2  0
 13 23  1  0
 13  8  2  0
 14 11  1  0
 15 21  1  0
 15 23  1  0
 16 21  1  0
 17 18  1  0
 17 16  1  0
 19 18  1  0
 19 28  1  0
 19 20  1  0
 21 20  1  0
 22 15  2  0
 23 24  1  0
 25 26  2  0
 26 45  1  0
 27 26  1  0
 27 30  1  0
 28 29  1  0
 28 25  1  0
 29 27  2  0
 30 31  1  0
 31 32  2  0
 33 36  1  0
 33 32  1  0
 34 33  2  0
 35 34  1  0
 35 30  2  0
 36 37  1  0
 37 42  2  0
 37 38  1  0
 38 39  2  0
 40 39  1  0
 40 44  1  0
 41 40  2  0
 42 41  1  0
 43 42  1  0
 45 46  1  0
 46 49  1  0
 46 48  1  0
 47 45  2  0
 50 51  1  0
 50 25  1  0
 52 50  1  0
 53 55  1  0
 54 53  1  0
 56 57  1  0
 58 69  2  0
 59 57  1  0
 59 64  1  0
 60 68  1  0
 60 70  1  0
 61 67  1  0
 61 63  1  0
 62 68  1  0
 63 62  1  0
 64 63  2  0
 65 66  1  0
 65 59  2  0
 66 61  2  0
 67 60  1  0
 68 58  1  0
 70 72  2  0
 71 70  1  0
 73 71  1  0
 74 83  2  0
 74 79  1  0
 75 71  1  0
 76 75  1  0
 77 78  1  0
 77 76  1  0
 78 74  1  0
 79 75  1  0
 79 80  2  0
 81 80  1  0
 82 81  2  0
 83 82  1  0
 84 58  1  0
 84 89  1  0
 84 85  1  0
 85 88  1  1
 85 86  1  0
 87 85  1  0
 89 92  1  0
 90 94  1  0
 90 89  1  0
 91 90  2  0
 94 93  1  0
 96 97  1  0
 96 94  1  0
 96 95  1  0
M  ISO  4  15 100  23 100  56 101  57 101
M  END
>  <TORSDO>  (92) 
F 19

>  <SCORE>  (92) 
-13.425

>  <name>  (92) 
91

>  <ligand_id>  (92) 
91

>  <original_smiles>  (92) 
[H]c1c([H])c([H])c2c(c1[H])C([H])([H])C([H])([H])C([H])([H])C2([H])N([H])C(=O)C1([H])N(C(=O)C([H])(N([H])C(=O)C([H])(N([H])C([H])([H])[H])C([H])([H])[H])C(C([H])([H])[H])(C([H])([H])[H])C([H])([H])[H])C([H])([H])c2c([H])c(OC([H])([H])C3([H])C([H])([H])C(=O)N(c4c([H])c(N([H])C(=O)N5C([H])([H])C([H])([H])C([H])([H])C([H])(n6nc(-c7c([H])c([H])c(Oc8c([H])c([H])c(F)c([H])c8F)c([H])c7[H])c(C(=O)N([H])[H])c6N([H])[H])C5([H])[H])c([H])c(C([H])(F)F)c4C([H])([H])[H])C([H])([H])C3([H])[H])c([H])c([H])c2C1([H])[H]

>  <smiles>  (92) 
[H]c1c([H])c([H])c2c(c1[H])C([H])([H])C([H])([H])C([H])([H])C2([H])N([H])C(=O)C1([H])N(C(=O)C([H])(N([H])C(=O)C([H])(N([H])C([H])([H])[H])C([H])([H])[H])C(C([H])([H])[H])(C([H])([H])[H])C([H])([H])[H])C([H])([H])c2c([H])c(OC([H])([H])C3([H])C([H])([H])C(=O)N(c4c([H])c(N([H])C(=O)N5C([H])([H])C([H])([H])C([H])([H])C([H])(n6nc(-c7c([H])c([H])c(Oc8c([H])c([H])c(F)c([H])c8F)c([H])c7[H])c(C(=O)N([H])[H])c6N([H])[H])C5([H])[H])c([H])c(C([H])(F)F)c4C([H])([H])[H])C([H])([H])C3([H])[H])c([H])c([H])c2C1([H])[H]

$$$$
92:0:0
     RDKit          3D

 94102  0  0  1  0  0  0  0  0999 V2000
  -28.8310  -22.0030   20.0980 C   0  0  0  0  0  0  0  0  0  0  0  0
  -29.8630  -21.1910   19.7470 N   0  0  0  0  0  0  0  0  0  0  0  0
  -27.8420  -21.6010   20.7160 O   0  0  0  0  0  0  0  0  0  0  0  0
  -30.5750  -21.6670   19.2050 H   0  0  0  0  0  0  0  0  0  0  0  0
  -29.7420  -18.6580   20.0870 C   0  0  0  0  0  3  0  0  0  0  0  0
  -31.5300  -17.5740   21.3460 C   0  0  0  0  0  3  0  0  0  0  0  0
  -31.5120  -20.0130   21.1170 C   0  0  0  0  0  0  0  0  0  0  0  0
  -30.3690  -17.4500   20.5530 C   0  0  0  0  0  0  0  0  0  0  0  0
  -30.3180  -19.9490   20.3420 C   0  0  0  0  0  0  0  0  0  0  0  0
  -32.0920  -18.8310   21.6280 C   0  0  0  0  0  0  0  0  0  0  0  0
  -32.2180  -21.3400   21.3930 C   0  0  0  0  0  1  0  0  0  0  0  0
  -33.2170  -18.8910   22.3820 F   0  0  0  0  0  0  0  0  0  0  0  0
  -30.6180  -15.0290   19.9300 C   0  0  0  0  0  0  0  0  0  0  0  0
  -30.3960  -12.7660   18.9410 C   0  0  0  0  0  2  0  0  0  0  0  0
  -29.3700  -12.7810   17.7900 C   0  0  0  0  0  2  0  0  0  0  0  0
  -27.9430  -12.5700   18.3310 C   0  0  0  0  0  2  0  0  0  0  0  0
  -27.6180  -13.4830   19.5430 C   0  0  0  0  0  3  0  0  0  0  0  0
  -28.7510  -13.4560   20.5920 C   0  0  0  0  0  2  0  0  0  0  0  0
  -30.0000  -13.8120   19.9020 N   0  0  0  0  0  0  0  0  0  0  0  0
  -31.7490  -15.1830   19.4620 O   0  0  0  0  0  0  0  0  0  0  0  0
  -29.8710  -16.1140   20.2820 N   0  0  0  0  0  0  0  0  0  0  0  0
  -28.8820  -15.9560   20.4130 H   0  0  0  0  0  0  0  0  0  0  0  0
  -25.3020  -13.9950   20.5290 C   0  0  0  0  0  0  0  0  0  0  0  0
  -24.2800  -13.1810   20.9400 C   0  0  0  0  0  0  0  0  0  0  0  0
  -24.7480  -11.8420   20.7680 C   0  0  0  0  0  0  0  0  0  0  0  0
  -26.3250  -13.1490   20.1310 N   0  0  0  0  0  0  0  0  0  0  0  0
  -26.0040  -11.8450   20.3370 N   0  0  0  0  0  0  0  0  0  0  0  0
  -24.0550  -10.5580   20.9290 C   0  0  0  0  0  0  0  0  0  0  0  0
  -24.4500   -9.6230   21.9110 C   0  0  0  0  0  3  0  0  0  0  0  0
  -23.7550   -8.4040   22.0600 C   0  0  0  0  0  3  0  0  0  0  0  0
  -22.6500   -8.1110   21.2230 C   0  0  0  0  0  0  0  0  0  0  0  0
  -22.2750   -9.0350   20.2320 C   0  0  0  0  0  3  0  0  0  0  0  0
  -22.9710  -10.2470   20.0830 C   0  0  0  0  0  3  0  0  0  0  0  0
  -21.9300   -6.9400   21.2790 O   0  0  0  0  0  0  0  0  0  0  0  0
  -21.6800   -6.3040   22.4700 C   0  0  0  0  0  0  0  0  0  0  0  0
  -20.9090   -6.9050   23.4880 C   0  0  0  0  0  3  0  0  0  0  0  0
  -20.6190   -6.1900   24.6660 C   0  0  0  0  0  3  0  0  0  0  0  0
  -21.0890   -4.8710   24.8230 C   0  0  0  0  0  0  0  0  0  0  0  0
  -21.8510   -4.2700   23.8070 C   0  0  0  0  0  3  0  0  0  0  0  0
  -22.1440   -4.9840   22.6310 C   0  0  0  0  0  0  0  0  0  0  0  0
  -22.8610   -4.3900   21.6470 F   0  0  0  0  0  0  0  0  0  0  0  0
  -20.8030   -4.1810   25.9510 F   0  0  0  0  0  0  0  0  0  0  0  0
  -22.9080  -13.6160   21.3710 C   0  0  0  0  0  0  0  0  0  0  0  0
  -22.2570  -12.8330   22.2240 N   0  0  0  0  0  0  0  0  0  0  0  0
  -22.4280  -14.6810   20.9910 O   0  0  0  0  0  0  0  0  0  0  0  0
  -22.6590  -11.9670   22.5520 H   0  0  0  0  0  0  0  0  0  0  0  0
  -21.3430  -13.1050   22.5540 H   0  0  0  0  0  0  0  0  0  0  0  0
  -25.4370  -15.3760   20.4350 N   0  0  0  0  0  0  0  0  0  0  0  0
  -24.6800  -16.0110   20.6640 H   0  0  0  0  0  0  0  0  0  0  0  0
  -26.2330  -15.8470   20.0240 H   0  0  0  0  0  0  0  0  0  0  0  0
  -28.9370  -23.5070   19.6620 C   0  0  0  0  0  3  0  0  0  0  0  0
  -27.6130  -24.3370   19.4430 C   0  0  0  0  0  3  0  0  0  0  0  0
  -27.7790  -25.7430   18.7450 C   0  0  0  0  0  2  0  0  0  0  0  0
  -27.8300  -26.9640   19.5440 O   0  0  0  0  0  0  0  0  0  0  0  0
  -24.5960  -31.9980   23.5200 C   0  0  0  0  0  0  0  0  0  0  0  0
  -26.7070  -27.7700   19.7110 C   0  0  0  0  0  0  0  0  0  0  0  0
  -23.1790  -30.8360   21.8610 C   0  0  0  0  0  3  0  0  0  0  0  0
  -24.4140  -29.4080   20.1400 C   0  0  0  0  0  0  0  0  0  0  0  0
  -25.6970  -31.0970   21.4610 C   0  0  0  0  0  2  0  0  0  0  0  0
  -25.6520  -29.8010   20.6640 C   0  0  0  0  0  0  0  0  0  0  0  0
  -26.7960  -28.9860   20.4500 C   0  0  0  0  0  3  0  0  0  0  0  0
  -25.4390  -27.4060   19.2040 C   0  0  0  0  0  3  0  0  0  0  0  0
  -24.3040  -28.2150   19.4120 C   0  0  0  0  0  3  0  0  0  0  0  0
  -23.2310  -30.3150   20.4010 C   0  0  0  0  0  2  0  0  0  0  0  0
  -24.5140  -31.3200   22.3360 N   0  0  0  0  0  0  0  0  0  0  0  0
  -23.5820  -32.2470   24.1880 O   0  0  0  0  0  0  0  0  0  0  0  0
  -22.5710  -29.7360   22.7630 C   0  0  0  0  0  0  0  0  0  0  0  0
  -21.2580  -29.4870   22.6110 N   0  0  0  0  0  0  0  0  0  0  0  0
  -23.2790  -29.1130   23.5570 O   0  0  0  0  0  0  0  0  0  0  0  0
  -20.7450  -30.0500   21.9460 H   0  0  0  0  0  0  0  0  0  0  0  0
  -17.9910  -27.9620   22.8800 C   0  0  0  0  0  0  0  0  0  0  0  0
  -20.4880  -28.4700   23.3250 C   0  0  0  0  0  3  0  0  0  0  0  0
  -20.7690  -27.0560   22.7590 C   0  0  0  0  0  2  0  0  0  0  0  0
  -19.7730  -26.6310   21.6720 C   0  0  0  0  0  2  0  0  0  0  0  0
  -18.3430  -26.6380   22.2240 C   0  0  0  0  0  2  0  0  0  0  0  0
  -18.9980  -28.8270   23.3860 C   0  0  0  0  0  0  0  0  0  0  0  0
  -18.6180  -30.0590   23.9590 C   0  0  0  0  0  3  0  0  0  0  0  0
  -17.2630  -30.4330   24.0290 C   0  0  0  0  0  3  0  0  0  0  0  0
  -16.2690  -29.5660   23.5440 C   0  0  0  0  0  3  0  0  0  0  0  0
  -16.6340  -28.3320   22.9750 C   0  0  0  0  0  3  0  0  0  0  0  0
  -25.9630  -32.5110   24.0740 C   0  0  0  0  0  3  0  0  0  0  0  0
  -26.5170  -31.6370   25.2640 C   0  0  1  0  0  0  0  0  0  0  0  0
  -25.4740  -31.3620   26.3730 C   0  0  0  0  0  1  0  0  0  0  0  0
  -27.0220  -30.2680   24.7480 C   0  0  0  0  0  1  0  0  0  0  0  0
  -27.7340  -32.3400   25.9090 C   0  0  0  0  0  1  0  0  0  0  0  0
  -25.7680  -33.9050   24.4990 N   0  0  0  0  0  0  0  0  0  0  0  0
  -26.1290  -34.9750   23.7780 C   0  0  0  0  0  0  0  0  0  0  0  0
  -26.7240  -34.8860   22.7010 O   0  0  0  0  0  0  0  0  0  0  0  0
  -25.2290  -34.0490   25.3410 H   0  0  0  0  0  0  0  0  0  0  0  0
  -24.5210  -36.9040   23.6200 C   0  0  0  0  0  1  0  0  0  0  0  0
  -25.7680  -36.3630   24.3380 C   0  0  0  0  0  3  0  0  0  0  0  0
  -27.9970  -37.0550   25.1140 C   0  0  0  0  0  1  0  0  0  0  0  0
  -26.8710  -37.3450   24.2280 N   0  0  0  0  0  0  0  0  0  0  0  0
  -26.5380  -38.2810   24.4360 H   0  0  0  0  0  0  0  0  0  0  0  0
  1  3  2  0
  2  1  1  0
  2  9  1  0
  4  2  1  0
  5  9  2  0
  5  8  1  0
  6 10  1  0
  7 11  1  0
  7 10  2  0
  8  6  2  0
  9  7  1  0
 10 12  1  0
 13 21  1  0
 14 19  1  0
 15 16  1  0
 15 14  1  0
 17 16  1  0
 17 26  1  0
 17 18  1  0
 19 13  1  0
 19 18  1  0
 20 13  2  0
 21 22  1  0
 21  8  1  0
 23 24  2  0
 24 43  1  0
 25 28  1  0
 25 24  1  0
 26 27  1  0
 26 23  1  0
 27 25  2  0
 28 29  1  0
 29 30  2  0
 31 34  1  0
 31 30  1  0
 32 31  2  0
 33 32  1  0
 33 28  2  0
 34 35  1  0
 35 40  2  0
 35 36  1  0
 36 37  2  0
 37 38  1  0
 38 42  1  0
 39 38  2  0
 40 39  1  0
 41 40  1  0
 43 44  1  0
 44 46  1  0
 44 47  1  0
 45 43  2  0
 48 23  1  0
 48 49  1  0
 50 48  1  0
 51  1  1  0
 52 51  2  0
 53 52  1  0
 53 54  1  0
 54 56  1  0
 55 66  2  0
 56 61  1  0
 57 65  1  0
 57 67  1  0
 58 64  1  0
 58 60  1  0
 59 65  1  0
 60 59  1  0
 61 60  2  0
 62 63  1  0
 62 56  2  0
 63 58  2  0
 64 57  1  0
 65 55  1  0
 67 69  2  0
 68 67  1  0
 70 68  1  0
 71 80  2  0
 71 76  1  0
 72 68  1  0
 72 76  1  0
 73 72  1  0
 74 75  1  0
 74 73  1  0
 75 71  1  0
 76 77  2  0
 77 78  1  0
 79 78  2  0
 80 79  1  0
 81 55  1  0
 81 86  1  0
 81 82  1  0
 82 85  1  1
 82 83  1  0
 84 82  1  0
 86 89  1  0
 87 91  1  0
 87 86  1  0
 88 87  2  0
 91 90  1  0
 93 91  1  0
 93 94  1  0
 93 92  1  0
M  ISO  4  13 100  21 100  53 101  54 101
M  END
>  <TORSDO>  (93) 
F 20

>  <SCORE>  (93) 
-12.755

>  <name>  (93) 
92

>  <ligand_id>  (93) 
92

>  <original_smiles>  (93) 
[H]c1c([H])c([H])c2c(c1[H])C([H])([H])C([H])([H])C([H])([H])C2([H])N([H])C(=O)C1([H])N(C(=O)C([H])(N([H])C(=O)C([H])(N([H])C([H])([H])[H])C([H])([H])[H])C(C([H])([H])[H])(C([H])([H])[H])C([H])([H])[H])C([H])([H])c2c([H])c(OC([H])([H])C([H])([H])C([H])([H])C(=O)N([H])c3c([H])c(N([H])C(=O)N4C([H])([H])C([H])([H])C([H])([H])C([H])(n5nc(-c6c([H])c([H])c(Oc7c([H])c([H])c(F)c([H])c7F)c([H])c6[H])c(C(=O)N([H])[H])c5N([H])[H])C4([H])[H])c([H])c(F)c3C([H])([H])[H])c([H])c([H])c2C1([H])[H]

>  <smiles>  (93) 
[H]c1c([H])c([H])c2c(c1[H])C([H])([H])C([H])([H])C([H])([H])C2([H])N([H])C(=O)C1([H])N(C(=O)C([H])(N([H])C(=O)C([H])(N([H])C([H])([H])[H])C([H])([H])[H])C(C([H])([H])[H])(C([H])([H])[H])C([H])([H])[H])C([H])([H])c2c([H])c(OC([H])([H])C([H])([H])C([H])([H])C(=O)N([H])c3c([H])c(N([H])C(=O)N4C([H])([H])C([H])([H])C([H])([H])C([H])(n5nc(-c6c([H])c([H])c(Oc7c([H])c([H])c(F)c([H])c7F)c([H])c6[H])c(C(=O)N([H])[H])c5N([H])[H])C4([H])[H])c([H])c(F)c3C([H])([H])[H])c([H])c([H])c2C1([H])[H]

$$$$
