0:0:0
     RDKit          3D

 94102  0  0  1  0  0  0  0  0999 V2000
  -28.8630  -19.7990   18.7400 C   0  0  0  0  0  3  0  0  0  0  0  0
  -29.3120  -17.3810   18.7810 C   0  0  0  0  0  3  0  0  0  0  0  0
  -29.7470  -18.7510   20.7470 C   0  0  0  0  0  3  0  0  0  0  0  0
  -28.8530  -18.5330   18.0980 C   0  0  0  0  0  0  0  0  0  0  0  0
  -29.3040  -19.9800   20.0720 C   0  0  0  0  0  0  0  0  0  0  0  0
  -29.7590  -17.4230   20.1170 C   0  0  0  0  0  0  0  0  0  0  0  0
  -30.7260  -14.9850   20.2990 C   0  0  0  0  0  0  0  0  0  0  0  0
  -30.5130  -12.7270   19.2370 C   0  0  0  0  0  2  0  0  0  0  0  0
  -29.5650  -12.8560   18.0240 C   0  0  0  0  0  2  0  0  0  0  0  0
  -28.0990  -12.6680   18.4590 C   0  0  0  0  0  2  0  0  0  0  0  0
  -27.7470  -13.4990   19.7190 C   0  0  0  0  0  3  0  0  0  0  0  0
  -28.8210  -13.3720   20.8250 C   0  0  0  0  0  2  0  0  0  0  0  0
  -30.1120  -13.7470   20.2380 N   0  0  0  0  0  0  0  0  0  0  0  0
  -31.8730  -15.1080   19.8610 O   0  0  0  0  0  0  0  0  0  0  0  0
  -30.0170  -16.0960   20.7610 N   0  0  0  0  0  0  0  0  0  0  0  0
  -29.2800  -15.8260   21.3980 H   0  0  0  0  0  0  0  0  0  0  0  0
  -25.3580  -14.0580   20.4560 C   0  0  0  0  0  0  0  0  0  0  0  0
  -24.3030  -13.2720   20.8320 C   0  0  0  0  0  0  0  0  0  0  0  0
  -24.7810  -11.9260   20.7980 C   0  0  0  0  0  0  0  0  0  0  0  0
  -26.4100  -13.1910   20.2160 N   0  0  0  0  0  0  0  0  0  0  0  0
  -26.0710  -11.9030   20.4840 N   0  0  0  0  0  0  0  0  0  0  0  0
  -24.0660  -10.6570   20.9920 C   0  0  0  0  0  0  0  0  0  0  0  0
  -24.4990   -9.7060   21.9420 C   0  0  0  0  0  3  0  0  0  0  0  0
  -23.7860   -8.5020   22.1260 C   0  0  0  0  0  3  0  0  0  0  0  0
  -22.6250   -8.2390   21.3590 C   0  0  0  0  0  0  0  0  0  0  0  0
  -22.2120   -9.1790   20.3990 C   0  0  0  0  0  3  0  0  0  0  0  0
  -22.9250  -10.3760   20.2130 C   0  0  0  0  0  3  0  0  0  0  0  0
  -21.8860   -7.0850   21.4520 O   0  0  0  0  0  0  0  0  0  0  0  0
  -21.8170   -6.3630   22.6150 C   0  0  0  0  0  0  0  0  0  0  0  0
  -21.3460   -6.9320   23.8180 C   0  0  0  0  0  3  0  0  0  0  0  0
  -21.2240   -6.1350   24.9740 C   0  0  0  0  0  3  0  0  0  0  0  0
  -21.5640   -4.7700   24.9280 C   0  0  0  0  0  0  0  0  0  0  0  0
  -22.0280   -4.2000   23.7290 C   0  0  0  0  0  3  0  0  0  0  0  0
  -22.1520   -4.9940   22.5760 C   0  0  0  0  0  0  0  0  0  0  0  0
  -22.5760   -4.4360   21.4170 F   0  0  0  0  0  0  0  0  0  0  0  0
  -21.4410   -4.0020   26.0350 F   0  0  0  0  0  0  0  0  0  0  0  0
  -22.9040  -13.7340   21.1130 C   0  0  0  0  0  0  0  0  0  0  0  0
  -22.1940  -13.0370   21.9920 N   0  0  0  0  0  0  0  0  0  0  0  0
  -22.4500  -14.7510   20.5890 O   0  0  0  0  0  0  0  0  0  0  0  0
  -22.5730  -12.2120   22.4340 H   0  0  0  0  0  0  0  0  0  0  0  0
  -21.2570  -13.3310   22.2270 H   0  0  0  0  0  0  0  0  0  0  0  0
  -25.5070  -15.4310   20.2790 N   0  0  0  0  0  0  0  0  0  0  0  0
  -24.7390  -16.0810   20.4020 H   0  0  0  0  0  0  0  0  0  0  0  0
  -26.3560  -15.8780   19.9550 H   0  0  0  0  0  0  0  0  0  0  0  0
  -28.5030  -22.4790   20.3240 C   0  0  0  0  0  0  0  0  0  0  0  0
  -29.3470  -21.3940   20.6000 N   0  0  0  0  0  0  0  0  0  0  0  0
  -27.3890  -22.2510   19.8450 O   0  0  0  0  0  0  0  0  0  0  0  0
  -30.1440  -21.6110   21.1830 H   0  0  0  0  0  0  0  0  0  0  0  0
  -28.9380  -23.9140   20.6020 C   0  0  0  0  0  3  0  0  0  0  0  0
  -28.0840  -25.0210   20.5140 C   0  0  0  0  0  3  0  0  0  0  0  0
  -28.3390  -26.4440   20.6220 O   0  0  0  0  0  0  0  0  0  0  0  0
  -24.6620  -32.1020   23.4620 C   0  0  0  0  0  0  0  0  0  0  0  0
  -27.2800  -27.3990   20.5260 C   0  0  0  0  0  0  0  0  0  0  0  0
  -23.4890  -30.7030   21.8050 C   0  0  0  0  0  3  0  0  0  0  0  0
  -24.9590  -29.1170   20.4280 C   0  0  0  0  0  0  0  0  0  0  0  0
  -26.0450  -30.9590   21.7030 C   0  0  0  0  0  2  0  0  0  0  0  0
  -26.1220  -29.5680   21.0650 C   0  0  0  0  0  0  0  0  0  0  0  0
  -27.2830  -28.7210   21.1080 C   0  0  0  0  0  3  0  0  0  0  0  0
  -26.1040  -27.0520   19.8230 C   0  0  0  0  0  3  0  0  0  0  0  0
  -24.9560  -27.8670   19.7970 C   0  0  0  0  0  3  0  0  0  0  0  0
  -23.7340  -30.0150   20.4380 C   0  0  0  0  0  2  0  0  0  0  0  0
  -24.7500  -31.2750   22.3780 N   0  0  0  0  0  0  0  0  0  0  0  0
  -23.5670  -32.3990   23.9610 O   0  0  0  0  0  0  0  0  0  0  0  0
  -22.7810  -29.7070   22.7570 C   0  0  0  0  0  0  0  0  0  0  0  0
  -21.4630  -29.5170   22.5740 N   0  0  0  0  0  0  0  0  0  0  0  0
  -23.4230  -29.1050   23.6220 O   0  0  0  0  0  0  0  0  0  0  0  0
  -21.0030  -30.0480   21.8480 H   0  0  0  0  0  0  0  0  0  0  0  0
  -18.0760  -28.2950   22.9510 C   0  0  0  0  0  0  0  0  0  0  0  0
  -20.6170  -28.5910   23.3300 C   0  0  0  0  0  3  0  0  0  0  0  0
  -20.7620  -27.1460   22.8000 C   0  0  0  0  0  2  0  0  0  0  0  0
  -19.7100  -26.7830   21.7460 C   0  0  0  0  0  2  0  0  0  0  0  0
  -18.2970  -26.9310   22.3180 C   0  0  0  0  0  2  0  0  0  0  0  0
  -19.1650  -29.0810   23.4110 C   0  0  0  0  0  0  0  0  0  0  0  0
  -18.9040  -30.3550   23.9590 C   0  0  0  0  0  3  0  0  0  0  0  0
  -17.5880  -30.8440   24.0530 C   0  0  0  0  0  3  0  0  0  0  0  0
  -16.5130  -30.0560   23.6090 C   0  0  0  0  0  3  0  0  0  0  0  0
  -16.7580  -28.7830   23.0630 C   0  0  0  0  0  3  0  0  0  0  0  0
  -25.9330  -32.7320   24.1120 C   0  0  0  0  0  3  0  0  0  0  0  0
  -26.3880  -31.9880   25.4260 C   0  0  1  0  0  0  0  0  0  0  0  0
  -25.2460  -31.7710   26.4460 C   0  0  0  0  0  1  0  0  0  0  0  0
  -26.9940  -30.6050   25.0960 C   0  0  0  0  0  1  0  0  0  0  0  0
  -27.5050  -32.8010   26.1230 C   0  0  0  0  0  1  0  0  0  0  0  0
  -25.6330  -34.1430   24.3980 N   0  0  0  0  0  0  0  0  0  0  0  0
  -25.9910  -35.1730   23.6200 C   0  0  0  0  0  0  0  0  0  0  0  0
  -26.6740  -35.0350   22.6030 O   0  0  0  0  0  0  0  0  0  0  0  0
  -25.0370  -34.3250   25.1920 H   0  0  0  0  0  0  0  0  0  0  0  0
  -24.2820  -36.9740   23.2080 C   0  0  0  0  0  1  0  0  0  0  0  0
  -25.5150  -36.5800   24.0370 C   0  0  0  0  0  3  0  0  0  0  0  0
  -27.6520  -37.4670   24.8570 C   0  0  0  0  0  1  0  0  0  0  0  0
  -26.5590  -37.6190   23.9010 N   0  0  0  0  0  0  0  0  0  0  0  0
  -26.1610  -38.5460   24.0180 H   0  0  0  0  0  0  0  0  0  0  0  0
  -28.3590  -18.3770   16.6960 C   0  0  0  0  0  0  0  0  0  0  0  0
  -27.6720  -19.5660   16.0320 C   0  0  0  0  0  1  0  0  0  0  0  0
  -28.4720  -17.3300   16.0510 O   0  0  0  0  0  0  0  0  0  0  0  0
  1  5  1  0
  2  6  2  0
  4  1  2  0
  4  2  1  0
  5 46  1  0
  5  3  2  0
  6  3  1  0
  6 15  1  0
  7 15  1  0
  8 13  1  0
  9 10  1  0
  9  8  1  0
 11 10  1  0
 11 20  1  0
 11 12  1  0
 13  7  1  0
 13 12  1  0
 14  7  2  0
 15 16  1  0
 17 18  2  0
 18 37  1  0
 19 18  1  0
 19 22  1  0
 20 17  1  0
 20 21  1  0
 21 19  2  0
 22 23  1  0
 23 24  2  0
 25 28  1  0
 25 24  1  0
 26 25  2  0
 27 26  1  0
 27 22  2  0
 28 29  1  0
 29 30  1  0
 30 31  2  0
 32 31  1  0
 32 36  1  0
 33 32  2  0
 34 29  2  0
 34 33  1  0
 35 34  1  0
 37 38  1  0
 38 41  1  0
 38 40  1  0
 39 37  2  0
 42 43  1  0
 42 17  1  0
 44 42  1  0
 45 46  1  0
 45 49  1  0
 46 48  1  0
 47 45  2  0
 50 49  2  0
 50 51  1  0
 52 63  2  0
 53 51  1  0
 53 58  1  0
 54 62  1  0
 54 64  1  0
 55 61  1  0
 55 57  1  0
 56 62  1  0
 57 58  2  0
 57 56  1  0
 59 53  2  0
 60 59  1  0
 60 55  2  0
 61 54  1  0
 62 52  1  0
 64 66  2  0
 65 64  1  0
 67 65  1  0
 68 77  2  0
 68 73  1  0
 69 65  1  0
 69 73  1  0
 70 69  1  0
 71 72  1  0
 71 70  1  0
 72 68  1  0
 73 74  2  0
 74 75  1  0
 76 75  2  0
 77 76  1  0
 78 52  1  0
 78 83  1  0
 78 79  1  0
 79 82  1  1
 79 80  1  0
 81 79  1  0
 83 86  1  0
 84 88  1  0
 84 83  1  0
 85 84  2  0
 88 87  1  0
 90 91  1  0
 90 88  1  0
 90 89  1  0
 92  4  1  0
 93 92  1  0
 94 92  2  0
M  ISO  4   7 100  15 100  50 101  51 101
M  END
>  <TORSDO>  (1) 
F 19

>  <SCORE>  (1) 
-11.896

>  <name>  (1) 
0

>  <ligand_id>  (1) 
0

>  <original_smiles>  (1) 
[H]C(Oc1c([H])c([H])c2c(c1[H])C([H])([H])N(C(=O)C([H])(N([H])C(=O)C([H])(N([H])C([H])([H])[H])C([H])([H])[H])C(C([H])([H])[H])(C([H])([H])[H])C([H])([H])[H])C([H])(C(=O)N([H])C1([H])c3c([H])c([H])c([H])c([H])c3C([H])([H])C([H])([H])C1([H])[H])C2([H])[H])=C([H])C(=O)N([H])c1c([H])c(C(=O)C([H])([H])[H])c([H])c(N([H])C(=O)N2C([H])([H])C([H])([H])C([H])([H])C([H])(n3nc(-c4c([H])c([H])c(Oc5c([H])c([H])c(F)c([H])c5F)c([H])c4[H])c(C(=O)N([H])[H])c3N([H])[H])C2([H])[H])c1[H]

>  <smiles>  (1) 
[H]C(Oc1c([H])c([H])c2c(c1[H])C([H])([H])N(C(=O)C([H])(N([H])C(=O)C([H])(N([H])C([H])([H])[H])C([H])([H])[H])C(C([H])([H])[H])(C([H])([H])[H])C([H])([H])[H])C([H])(C(=O)N([H])C1([H])c3c([H])c([H])c([H])c([H])c3C([H])([H])C([H])([H])C1([H])[H])C2([H])[H])=C([H])C(=O)N([H])c1c([H])c(C(=O)C([H])([H])[H])c([H])c(N([H])C(=O)N2C([H])([H])C([H])([H])C([H])([H])C([H])(n3nc(-c4c([H])c([H])c(Oc5c([H])c([H])c(F)c([H])c5F)c([H])c4[H])c(C(=O)N([H])[H])c3N([H])[H])C2([H])[H])c1[H]

$$$$
1:0:0
     RDKit          3D

 95103  0  0  1  0  0  0  0  0999 V2000
  -28.2580  -18.1910   20.4700 C   0  0  0  0  0  3  0  0  0  0  0  0
  -27.9630  -19.6000   20.3970 C   0  0  0  0  0  3  0  0  0  0  0  0
  -30.5650  -18.6540   20.3530 C   0  0  0  0  0  3  0  0  0  0  0  0
  -29.5650  -17.6120   20.4410 C   0  0  0  0  0  0  0  0  0  0  0  0
  -28.9320  -20.6490   20.2950 C   0  0  0  0  0  0  0  0  0  0  0  0
  -30.2690  -20.1020   20.2730 C   0  0  0  0  0  0  0  0  0  0  0  0
  -30.5280  -15.0040   20.2450 C   0  0  0  0  0  0  0  0  0  0  0  0
  -30.4210  -12.6660   19.2640 C   0  0  0  0  0  2  0  0  0  0  0  0
  -29.4620  -12.6800   18.0500 C   0  0  0  0  0  2  0  0  0  0  0  0
  -28.0000  -12.4740   18.4950 C   0  0  0  0  0  2  0  0  0  0  0  0
  -27.6250  -13.3590   19.7110 C   0  0  0  0  0  3  0  0  0  0  0  0
  -28.7010  -13.3040   20.8180 C   0  0  0  0  0  2  0  0  0  0  0  0
  -29.9750  -13.7260   20.2110 N   0  0  0  0  0  0  0  0  0  0  0  0
  -31.6970  -15.1420   19.8680 O   0  0  0  0  0  0  0  0  0  0  0  0
  -29.6750  -16.0850   20.5690 N   0  0  0  0  0  0  0  0  0  0  0  0
  -28.8070  -15.6860   20.8930 H   0  0  0  0  0  0  0  0  0  0  0  0
  -25.2580  -13.9420   20.4950 C   0  0  0  0  0  0  0  0  0  0  0  0
  -24.1960  -13.1700   20.8780 C   0  0  0  0  0  0  0  0  0  0  0  0
  -24.6520  -11.8170   20.8190 C   0  0  0  0  0  0  0  0  0  0  0  0
  -26.2920  -13.0620   20.2230 N   0  0  0  0  0  0  0  0  0  0  0  0
  -25.9370  -11.7770   20.4790 N   0  0  0  0  0  0  0  0  0  0  0  0
  -23.9210  -10.5570   21.0060 C   0  0  0  0  0  0  0  0  0  0  0  0
  -24.3490   -9.5880   21.9420 C   0  0  0  0  0  3  0  0  0  0  0  0
  -23.6190   -8.3930   22.1190 C   0  0  0  0  0  3  0  0  0  0  0  0
  -22.4460   -8.1580   21.3640 C   0  0  0  0  0  0  0  0  0  0  0  0
  -22.0370   -9.1160   20.4190 C   0  0  0  0  0  3  0  0  0  0  0  0
  -22.7670  -10.3030   20.2390 C   0  0  0  0  0  3  0  0  0  0  0  0
  -21.6880   -7.0160   21.4500 O   0  0  0  0  0  0  0  0  0  0  0  0
  -21.6060   -6.2920   22.6120 C   0  0  0  0  0  0  0  0  0  0  0  0
  -21.0750   -6.8440   23.7990 C   0  0  0  0  0  3  0  0  0  0  0  0
  -20.9480   -6.0440   24.9510 C   0  0  0  0  0  3  0  0  0  0  0  0
  -21.3400   -4.6920   24.9170 C   0  0  0  0  0  0  0  0  0  0  0  0
  -21.8630   -4.1400   23.7350 C   0  0  0  0  0  3  0  0  0  0  0  0
  -21.9950   -4.9370   22.5860 C   0  0  0  0  0  0  0  0  0  0  0  0
  -22.4800   -4.3960   21.4430 F   0  0  0  0  0  0  0  0  0  0  0  0
  -21.2100   -3.9190   26.0220 F   0  0  0  0  0  0  0  0  0  0  0  0
  -22.8090  -13.6520   21.1840 C   0  0  0  0  0  0  0  0  0  0  0  0
  -22.0950  -12.9520   22.0590 N   0  0  0  0  0  0  0  0  0  0  0  0
  -22.3680  -14.6860   20.6830 O   0  0  0  0  0  0  0  0  0  0  0  0
  -22.4650  -12.1150   22.4870 H   0  0  0  0  0  0  0  0  0  0  0  0
  -21.1650  -13.2590   22.3050 H   0  0  0  0  0  0  0  0  0  0  0  0
  -25.4210  -15.3150   20.3280 N   0  0  0  0  0  0  0  0  0  0  0  0
  -24.6370  -15.9510   20.4230 H   0  0  0  0  0  0  0  0  0  0  0  0
  -26.2250  -15.7400   19.8880 H   0  0  0  0  0  0  0  0  0  0  0  0
  -32.5530  -21.0260   19.7860 C   0  0  0  0  0  0  0  0  0  0  0  0
  -33.3110  -22.3480   19.7820 C   0  0  0  0  0  1  0  0  0  0  0  0
  -31.2770  -21.0980   20.1870 N   0  0  0  0  0  0  0  0  0  0  0  0
  -33.1230  -19.9930   19.4280 O   0  0  0  0  0  0  0  0  0  0  0  0
  -30.9410  -22.0410   20.3790 H   0  0  0  0  0  0  0  0  0  0  0  0
  -28.9020  -23.4360   20.3220 C   0  0  0  0  0  0  0  0  0  0  0  0
  -28.4470  -22.1030   20.1530 N   0  0  0  0  0  0  0  0  0  0  0  0
  -30.0480  -23.6470   20.7270 O   0  0  0  0  0  0  0  0  0  0  0  0
  -27.4790  -22.1370   19.8680 H   0  0  0  0  0  0  0  0  0  0  0  0
  -27.9280  -24.7340   19.9790 C   0  0  0  0  0  2  0  0  0  0  0  0
  -28.2720  -26.2300   20.2510 O   0  0  0  0  0  0  0  0  0  0  0  0
  -24.6030  -31.8780   23.2470 C   0  0  0  0  0  0  0  0  0  0  0  0
  -27.2290  -27.2270   20.1730 C   0  0  0  0  0  0  0  0  0  0  0  0
  -23.4270  -30.5050   21.5740 C   0  0  0  0  0  3  0  0  0  0  0  0
  -24.8960  -28.9640   20.1390 C   0  0  0  0  0  0  0  0  0  0  0  0
  -25.9810  -30.7860   21.4390 C   0  0  0  0  0  2  0  0  0  0  0  0
  -26.0690  -29.4040   20.7660 C   0  0  0  0  0  0  0  0  0  0  0  0
  -27.2380  -28.5530   20.7630 C   0  0  0  0  0  3  0  0  0  0  0  0
  -26.0270  -26.8910   19.5090 C   0  0  0  0  0  3  0  0  0  0  0  0
  -24.8870  -27.7190   19.4960 C   0  0  0  0  0  3  0  0  0  0  0  0
  -23.6660  -29.8570   20.1860 C   0  0  0  0  0  2  0  0  0  0  0  0
  -24.6900  -31.0770   22.1420 N   0  0  0  0  0  0  0  0  0  0  0  0
  -23.5110  -32.1480   23.7690 O   0  0  0  0  0  0  0  0  0  0  0  0
  -22.7440  -29.4760   22.5110 C   0  0  0  0  0  0  0  0  0  0  0  0
  -21.4190  -29.3010   22.3650 N   0  0  0  0  0  0  0  0  0  0  0  0
  -23.4090  -28.8400   23.3320 O   0  0  0  0  0  0  0  0  0  0  0  0
  -20.9380  -29.8670   21.6790 H   0  0  0  0  0  0  0  0  0  0  0  0
  -18.0300  -28.1060   22.8440 C   0  0  0  0  0  0  0  0  0  0  0  0
  -20.5910  -28.3490   23.1130 C   0  0  0  0  0  3  0  0  0  0  0  0
  -20.6830  -26.9310   22.5030 C   0  0  0  0  0  2  0  0  0  0  0  0
  -19.5790  -26.6390   21.4830 C   0  0  0  0  0  2  0  0  0  0  0  0
  -18.1980  -26.7750   22.1310 C   0  0  0  0  0  2  0  0  0  0  0  0
  -19.1540  -28.8530   23.2910 C   0  0  0  0  0  0  0  0  0  0  0  0
  -18.9410  -30.0990   23.9200 C   0  0  0  0  0  3  0  0  0  0  0  0
  -17.6380  -30.5990   24.1050 C   0  0  0  0  0  3  0  0  0  0  0  0
  -16.5300  -29.8520   23.6720 C   0  0  0  0  0  3  0  0  0  0  0  0
  -16.7270  -28.6070   23.0480 C   0  0  0  0  0  3  0  0  0  0  0  0
  -25.8720  -32.5090   23.8980 C   0  0  0  0  0  3  0  0  0  0  0  0
  -26.3620  -31.7310   25.1820 C   0  0  1  0  0  0  0  0  0  0  0  0
  -25.2440  -31.4850   26.2230 C   0  0  0  0  0  1  0  0  0  0  0  0
  -26.9560  -30.3560   24.7990 C   0  0  0  0  0  1  0  0  0  0  0  0
  -27.5010  -32.5210   25.8710 C   0  0  0  0  0  1  0  0  0  0  0  0
  -25.5570  -33.9070   24.2360 N   0  0  0  0  0  0  0  0  0  0  0  0
  -25.8530  -34.9630   23.4670 C   0  0  0  0  0  0  0  0  0  0  0  0
  -26.4910  -34.8650   22.4160 O   0  0  0  0  0  0  0  0  0  0  0  0
  -24.9960  -34.0590   25.0600 H   0  0  0  0  0  0  0  0  0  0  0  0
  -24.0840  -36.7290   23.1870 C   0  0  0  0  0  1  0  0  0  0  0  0
  -25.3670  -36.3470   23.9410 C   0  0  0  0  0  3  0  0  0  0  0  0
  -27.5160  -37.2790   24.6800 C   0  0  0  0  0  1  0  0  0  0  0  0
  -26.3780  -37.4150   23.7740 N   0  0  0  0  0  0  0  0  0  0  0  0
  -25.9630  -38.3310   23.9230 H   0  0  0  0  0  0  0  0  0  0  0  0
  2  1  2  0
  3  4  2  0
  4  1  1  0
  4 15  1  0
  5  2  1  0
  6  5  2  0
  6  3  1  0
  7 15  1  0
  8 13  1  0
  9 10  1  0
  9  8  1  0
 11 10  1  0
 11 20  1  0
 11 12  1  0
 13  7  1  0
 13 12  1  0
 14  7  2  0
 15 16  1  0
 17 18  2  0
 18 37  1  0
 19 18  1  0
 19 22  1  0
 20 21  1  0
 20 17  1  0
 21 19  2  0
 22 23  1  0
 23 24  2  0
 25 28  1  0
 25 24  1  0
 26 25  2  0
 27 26  1  0
 27 22  2  0
 28 29  1  0
 29 30  1  0
 30 31  2  0
 32 31  1  0
 32 36  1  0
 33 32  2  0
 34 29  2  0
 34 33  1  0
 35 34  1  0
 37 38  1  0
 38 41  1  0
 38 40  1  0
 39 37  2  0
 42 43  1  0
 42 17  1  0
 44 42  1  0
 45 47  1  0
 46 45  1  0
 47  6  1  0
 47 49  1  0
 48 45  2  0
 50 52  2  0
 51  5  1  0
 51 50  1  0
 53 51  1  0
 54 55  1  0
 54 50  1  0
 56 67  2  0
 57 55  1  0
 57 62  1  0
 58 66  1  0
 58 68  1  0
 59 65  1  0
 59 61  1  0
 60 66  1  0
 61 60  1  0
 62 61  2  0
 63 57  2  0
 64 63  1  0
 64 59  2  0
 65 58  1  0
 66 56  1  0
 68 70  2  0
 69 68  1  0
 71 69  1  0
 72 81  2  0
 72 77  1  0
 73 69  1  0
 73 77  1  0
 74 73  1  0
 75 76  1  0
 75 74  1  0
 76 72  1  0
 77 78  2  0
 78 79  1  0
 80 79  2  0
 81 80  1  0
 82 56  1  0
 82 87  1  0
 82 83  1  0
 83 86  1  1
 83 84  1  0
 85 83  1  0
 87 90  1  0
 88 92  1  0
 88 87  1  0
 89 88  2  0
 92 91  1  0
 94 95  1  0
 94 92  1  0
 94 93  1  0
M  ISO  4   7 100  15 100  54 101  55 101
M  END
>  <TORSDO>  (2) 
F 19

>  <SCORE>  (2) 
-14.452

>  <name>  (2) 
1

>  <ligand_id>  (2) 
1

>  <original_smiles>  (2) 
[H]c1c([H])c([H])c2c(c1[H])C([H])([H])C([H])([H])C([H])([H])C2([H])N([H])C(=O)C1([H])N(C(=O)C([H])(N([H])C(=O)C([H])(N([H])C([H])([H])[H])C([H])([H])[H])C(C([H])([H])[H])(C([H])([H])[H])C([H])([H])[H])C([H])([H])c2c([H])c(OC([H])([H])C(=O)N([H])c3c([H])c([H])c(N([H])C(=O)N4C([H])([H])C([H])([H])C([H])([H])C([H])(n5nc(-c6c([H])c([H])c(Oc7c([H])c([H])c(F)c([H])c7F)c([H])c6[H])c(C(=O)N([H])[H])c5N([H])[H])C4([H])[H])c([H])c3N([H])C(=O)C([H])([H])[H])c([H])c([H])c2C1([H])[H]

>  <smiles>  (2) 
[H]c1c([H])c([H])c2c(c1[H])C([H])([H])C([H])([H])C([H])([H])C2([H])N([H])C(=O)C1([H])N(C(=O)C([H])(N([H])C(=O)C([H])(N([H])C([H])([H])[H])C([H])([H])[H])C(C([H])([H])[H])(C([H])([H])[H])C([H])([H])[H])C([H])([H])c2c([H])c(OC([H])([H])C(=O)N([H])c3c([H])c([H])c(N([H])C(=O)N4C([H])([H])C([H])([H])C([H])([H])C([H])(n5nc(-c6c([H])c([H])c(Oc7c([H])c([H])c(F)c([H])c7F)c([H])c6[H])c(C(=O)N([H])[H])c5N([H])[H])C4([H])[H])c([H])c3N([H])C(=O)C([H])([H])[H])c([H])c([H])c2C1([H])[H]

$$$$
2:0:0
     RDKit          3D

 94103  0  0  1  0  0  0  0  0999 V2000
  -30.1660  -23.0690   21.0860 C   0  0  0  0  0  0  0  0  0  0  0  0
  -28.3300  -23.3660   19.7740 C   0  0  0  0  0  2  0  0  0  0  0  0
  -28.4260  -24.8200   20.5460 C   0  0  0  0  0  3  0  0  0  0  0  0
  -29.8430  -24.5990   21.1590 C   0  0  1  0  0  0  0  0  0  0  0  0
  -29.8910  -25.0770   22.6240 C   0  0  0  0  0  1  0  0  0  0  0  0
  -30.9260  -25.3590   20.3560 C   0  0  0  0  0  1  0  0  0  0  0  0
  -29.3240  -22.3220   20.3350 N   0  0  0  0  0  0  0  0  0  0  0  0
  -31.1430  -22.6150   21.6910 O   0  0  0  0  0  0  0  0  0  0  0  0
  -30.6690  -20.0280   20.2560 C   0  0  0  0  0  3  0  0  0  0  0  0
  -30.7910  -18.5720   20.2590 C   0  0  0  0  0  3  0  0  0  0  0  0
  -28.3310  -19.8720   20.2000 C   0  0  0  0  0  3  0  0  0  0  0  0
  -28.4400  -18.4200   20.2500 C   0  0  0  0  0  0  0  0  0  0  0  0
  -29.4330  -20.7810   20.2260 C   0  0  0  0  0  0  0  0  0  0  0  0
  -29.6790  -17.6630   20.2620 C   0  0  0  0  0  0  0  0  0  0  0  0
  -27.1150  -17.6910   20.3330 C   0  0  0  0  0  1  0  0  0  0  0  0
  -30.5250  -15.0050   19.9890 C   0  0  0  0  0  0  0  0  0  0  0  0
  -30.3770  -12.6830   18.9670 C   0  0  0  0  0  2  0  0  0  0  0  0
  -29.3650  -12.6870   17.7950 C   0  0  0  0  0  2  0  0  0  0  0  0
  -27.9290  -12.4560   18.3050 C   0  0  0  0  0  2  0  0  0  0  0  0
  -27.5970  -13.3260   19.5460 C   0  0  0  0  0  3  0  0  0  0  0  0
  -28.7230  -13.2820   20.6020 C   0  0  0  0  0  2  0  0  0  0  0  0
  -29.9580  -13.7300   19.9410 N   0  0  0  0  0  0  0  0  0  0  0  0
  -31.6960  -15.1220   19.6090 O   0  0  0  0  0  0  0  0  0  0  0  0
  -29.6880  -16.1180   20.2920 N   0  0  0  0  0  0  0  0  0  0  0  0
  -28.7870  -15.7590   20.5630 H   0  0  0  0  0  0  0  0  0  0  0  0
  -25.2500  -13.8620   20.4190 C   0  0  0  0  0  0  0  0  0  0  0  0
  -24.2200  -13.0770   20.8470 C   0  0  0  0  0  0  0  0  0  0  0  0
  -24.6930  -11.7330   20.7600 C   0  0  0  0  0  0  0  0  0  0  0  0
  -26.2910  -13.0040   20.1100 N   0  0  0  0  0  0  0  0  0  0  0  0
  -25.9650  -11.7120   20.3770 N   0  0  0  0  0  0  0  0  0  0  0  0
  -23.9840  -10.4650   20.9630 C   0  0  0  0  0  0  0  0  0  0  0  0
  -24.4440   -9.5010   21.8870 C   0  0  0  0  0  3  0  0  0  0  0  0
  -23.7300   -8.2980   22.0780 C   0  0  0  0  0  3  0  0  0  0  0  0
  -22.5440   -8.0520   21.3460 C   0  0  0  0  0  0  0  0  0  0  0  0
  -22.1050   -9.0050   20.4100 C   0  0  0  0  0  3  0  0  0  0  0  0
  -22.8190  -10.2000   20.2180 C   0  0  0  0  0  3  0  0  0  0  0  0
  -21.8010   -6.9000   21.4480 O   0  0  0  0  0  0  0  0  0  0  0  0
  -21.7420   -6.1860   22.6170 C   0  0  0  0  0  0  0  0  0  0  0  0
  -21.2780   -6.7630   23.8210 C   0  0  0  0  0  3  0  0  0  0  0  0
  -21.1650   -5.9730   24.9820 C   0  0  0  0  0  3  0  0  0  0  0  0
  -21.5070   -4.6080   24.9410 C   0  0  0  0  0  0  0  0  0  0  0  0
  -21.9630   -4.0310   23.7430 C   0  0  0  0  0  3  0  0  0  0  0  0
  -22.0770   -4.8180   22.5840 C   0  0  0  0  0  0  0  0  0  0  0  0
  -22.4970   -4.2520   21.4260 F   0  0  0  0  0  0  0  0  0  0  0  0
  -21.3900   -3.8470   26.0540 F   0  0  0  0  0  0  0  0  0  0  0  0
  -22.8400  -13.5440   21.2070 C   0  0  0  0  0  0  0  0  0  0  0  0
  -22.1700  -12.8350   22.1090 N   0  0  0  0  0  0  0  0  0  0  0  0
  -22.3670  -14.5730   20.7250 O   0  0  0  0  0  0  0  0  0  0  0  0
  -22.5660  -12.0030   22.5190 H   0  0  0  0  0  0  0  0  0  0  0  0
  -21.2470  -13.1310   22.3920 H   0  0  0  0  0  0  0  0  0  0  0  0
  -25.3690  -15.2320   20.2360 N   0  0  0  0  0  0  0  0  0  0  0  0
  -24.5830  -15.8520   20.3880 H   0  0  0  0  0  0  0  0  0  0  0  0
  -26.1440  -15.6780   19.7690 H   0  0  0  0  0  0  0  0  0  0  0  0
  -28.3340  -26.2900   20.0390 O   0  0  0  0  0  0  0  0  0  0  0  0
  -24.6140  -31.8300   23.2150 C   0  0  0  0  0  0  0  0  0  0  0  0
  -27.2130  -27.1850   20.1220 C   0  0  0  0  0  0  0  0  0  0  0  0
  -23.4200  -30.4720   21.5360 C   0  0  0  0  0  3  0  0  0  0  0  0
  -24.8730  -28.9070   20.1060 C   0  0  0  0  0  0  0  0  0  0  0  0
  -25.9720  -30.7390   21.3900 C   0  0  0  0  0  2  0  0  0  0  0  0
  -26.0470  -29.3550   20.7230 C   0  0  0  0  0  0  0  0  0  0  0  0
  -27.2190  -28.5120   20.7050 C   0  0  0  0  0  3  0  0  0  0  0  0
  -26.0090  -26.8170   19.4900 C   0  0  0  0  0  3  0  0  0  0  0  0
  -24.8640  -27.6480   19.4770 C   0  0  0  0  0  3  0  0  0  0  0  0
  -23.6480  -29.8080   20.1500 C   0  0  0  0  0  2  0  0  0  0  0  0
  -24.6890  -31.0330   22.1030 N   0  0  0  0  0  0  0  0  0  0  0  0
  -23.5260  -32.1080   23.7400 O   0  0  0  0  0  0  0  0  0  0  0  0
  -22.7300  -29.4530   22.4760 C   0  0  0  0  0  0  0  0  0  0  0  0
  -21.4000  -29.3010   22.3420 N   0  0  0  0  0  0  0  0  0  0  0  0
  -23.3920  -28.8010   23.2880 O   0  0  0  0  0  0  0  0  0  0  0  0
  -20.9250  -29.8780   21.6630 H   0  0  0  0  0  0  0  0  0  0  0  0
  -17.9980  -28.1620   22.8370 C   0  0  0  0  0  0  0  0  0  0  0  0
  -20.5670  -28.3540   23.0860 C   0  0  0  0  0  3  0  0  0  0  0  0
  -20.6290  -26.9440   22.4530 C   0  0  0  0  0  2  0  0  0  0  0  0
  -19.5080  -26.6860   21.4420 C   0  0  0  0  0  2  0  0  0  0  0  0
  -18.1370  -26.8370   22.1070 C   0  0  0  0  0  2  0  0  0  0  0  0
  -19.1400  -28.8820   23.2830 C   0  0  0  0  0  0  0  0  0  0  0  0
  -18.9570  -30.1240   23.9270 C   0  0  0  0  0  3  0  0  0  0  0  0
  -17.6660  -30.6460   24.1330 C   0  0  0  0  0  3  0  0  0  0  0  0
  -16.5400  -29.9230   23.7040 C   0  0  0  0  0  3  0  0  0  0  0  0
  -16.7070  -28.6840   23.0600 C   0  0  0  0  0  3  0  0  0  0  0  0
  -25.8910  -32.4440   23.8660 C   0  0  0  0  0  3  0  0  0  0  0  0
  -25.5780  -33.8310   24.2450 N   0  0  0  0  0  0  0  0  0  0  0  0
  -25.9020  -34.9110   23.5240 C   0  0  0  0  0  0  0  0  0  0  0  0
  -26.5630  -34.8470   22.4840 O   0  0  0  0  0  0  0  0  0  0  0  0
  -24.9910  -33.9570   25.0570 H   0  0  0  0  0  0  0  0  0  0  0  0
  -24.1640  -36.7130   23.2580 C   0  0  0  0  0  1  0  0  0  0  0  0
  -25.4180  -36.2820   24.0370 C   0  0  0  0  0  3  0  0  0  0  0  0
  -27.5580  -37.1530   24.8670 C   0  0  0  0  0  1  0  0  0  0  0  0
  -26.4440  -37.3430   23.9430 N   0  0  0  0  0  0  0  0  0  0  0  0
  -26.0350  -38.2560   24.1250 H   0  0  0  0  0  0  0  0  0  0  0  0
  -26.3980  -31.6320   25.1220 C   0  0  1  0  0  0  0  0  0  0  0  0
  -25.2970  -31.3620   26.1740 C   0  0  0  0  0  1  0  0  0  0  0  0
  -26.9880  -30.2700   24.6930 C   0  0  0  0  0  1  0  0  0  0  0  0
  -27.5430  -32.4080   25.8180 C   0  0  0  0  0  1  0  0  0  0  0  0
  1  4  1  0
  1  8  2  0
  2  7  1  0
  2  3  1  0
  3 54  1  0
  3  4  1  0
  4  5  1  1
  6  4  1  0
  7  1  1  0
  9 10  1  0
 10 14  2  0
 11 13  1  0
 11 12  2  0
 12 14  1  0
 12 15  1  0
 13  9  2  0
 13  7  1  0
 14 24  1  0
 16 24  1  0
 17 22  1  0
 18 19  1  0
 18 17  1  0
 20 19  1  0
 20 29  1  0
 20 21  1  0
 22 16  1  0
 22 21  1  0
 23 16  2  0
 24 25  1  0
 26 27  2  0
 27 46  1  0
 28 27  1  0
 28 31  1  0
 29 30  1  0
 29 26  1  0
 30 28  2  0
 31 32  1  0
 32 33  2  0
 34 37  1  0
 34 33  1  0
 35 34  2  0
 36 35  1  0
 36 31  2  0
 37 38  1  0
 38 39  1  0
 39 40  2  0
 41 40  1  0
 41 45  1  0
 42 41  2  0
 43 38  2  0
 43 42  1  0
 44 43  1  0
 46 47  1  0
 47 50  1  0
 47 49  1  0
 48 46  2  0
 51 52  1  0
 51 26  1  0
 53 51  1  0
 54 56  1  0
 55 66  2  0
 56 61  1  0
 57 65  1  0
 57 67  1  0
 58 64  1  0
 58 60  1  0
 59 65  1  0
 60 59  1  0
 61 60  2  0
 62 56  2  0
 63 62  1  0
 63 58  2  0
 64 57  1  0
 65 55  1  0
 67 69  2  0
 68 67  1  0
 70 68  1  0
 71 80  2  0
 71 76  1  0
 72 68  1  0
 72 76  1  0
 73 72  1  0
 74 75  1  0
 74 73  1  0
 75 71  1  0
 76 77  2  0
 77 78  1  0
 79 78  2  0
 80 79  1  0
 81 55  1  0
 81 82  1  0
 81 91  1  0
 82 85  1  0
 83 87  1  0
 83 82  1  0
 84 83  2  0
 87 86  1  0
 89 87  1  0
 89 90  1  0
 89 88  1  0
 91 94  1  1
 91 92  1  0
 93 91  1  0
M  ISO  4   3 101  16 100  24 100  54 101
M  END
>  <TORSDO>  (3) 
F 17

>  <SCORE>  (3) 
-15.262

>  <name>  (3) 
2

>  <ligand_id>  (3) 
2

>  <original_smiles>  (3) 
[H]c1c([H])c([H])c2c(c1[H])C([H])([H])C([H])([H])C([H])([H])C2([H])N([H])C(=O)C1([H])N(C(=O)C([H])(N([H])C(=O)C([H])(N([H])C([H])([H])[H])C([H])([H])[H])C(C([H])([H])[H])(C([H])([H])[H])C([H])([H])[H])C([H])([H])c2c([H])c(OC3([H])C([H])([H])N(c4c([H])c([H])c(N([H])C(=O)N5C([H])([H])C([H])([H])C([H])([H])C([H])(n6nc(-c7c([H])c([H])c(Oc8c([H])c([H])c(F)c([H])c8F)c([H])c7[H])c(C(=O)N([H])[H])c6N([H])[H])C5([H])[H])c(C([H])([H])[H])c4[H])C(=O)C3(C([H])([H])[H])C([H])([H])[H])c([H])c([H])c2C1([H])[H]

>  <smiles>  (3) 
[H]c1c([H])c([H])c2c(c1[H])C([H])([H])C([H])([H])C([H])([H])C2([H])N([H])C(=O)C1([H])N(C(=O)C([H])(N([H])C(=O)C([H])(N([H])C([H])([H])[H])C([H])([H])[H])C(C([H])([H])[H])(C([H])([H])[H])C([H])([H])[H])C([H])([H])c2c([H])c(OC3([H])C([H])([H])N(c4c([H])c([H])c(N([H])C(=O)N5C([H])([H])C([H])([H])C([H])([H])C([H])(n6nc(-c7c([H])c([H])c(Oc8c([H])c([H])c(F)c([H])c8F)c([H])c7[H])c(C(=O)N([H])[H])c6N([H])[H])C5([H])[H])c(C([H])([H])[H])c4[H])C(=O)C3(C([H])([H])[H])C([H])([H])[H])c([H])c([H])c2C1([H])[H]

$$$$
3:0:0
     RDKit          3D

 91 99  0  0  1  0  0  0  0  0999 V2000
  -28.9600  -23.7540   20.4320 C   0  0  0  0  0  0  0  0  0  0  0  0
  -28.9190  -22.5180   19.8100 N   0  0  0  0  0  0  0  0  0  0  0  0
  -29.6710  -23.9660   21.4180 O   0  0  0  0  0  0  0  0  0  0  0  0
  -28.4110  -22.5420   18.9350 H   0  0  0  0  0  0  0  0  0  0  0  0
  -29.8810  -20.7340   21.3340 C   0  0  0  0  0  3  0  0  0  0  0  0
  -30.2440  -19.3230   21.3330 C   0  0  0  0  0  0  0  0  0  0  0  0
  -30.0890  -18.6870   20.1160 C   0  0  0  0  0  0  0  0  0  0  0  0
  -29.4110  -21.2510   20.1410 C   0  0  0  0  0  0  0  0  0  0  0  0
  -30.7910  -18.6280   22.5420 C   0  0  0  0  0  1  0  0  0  0  0  0
  -29.4080  -19.8910   18.9920 S   0  0  0  0  0  0  0  0  0  0  0  0
  -30.5850  -17.2830   19.6080 C   0  0  0  0  0  2  0  0  0  0  0  0
  -30.8200  -14.7560   19.9230 C   0  0  0  0  0  0  0  0  0  0  0  0
  -30.5010  -12.4910   18.9460 C   0  0  0  0  0  2  0  0  0  0  0  0
  -29.5110  -12.5860   17.7650 C   0  0  0  0  0  2  0  0  0  0  0  0
  -28.0630  -12.4360   18.2670 C   0  0  0  0  0  2  0  0  0  0  0  0
  -27.7610  -13.3350   19.4970 C   0  0  0  0  0  3  0  0  0  0  0  0
  -28.8720  -13.2480   20.5680 C   0  0  0  0  0  2  0  0  0  0  0  0
  -30.1450  -13.5590   19.9080 N   0  0  0  0  0  0  0  0  0  0  0  0
  -31.9840  -14.8050   19.5190 O   0  0  0  0  0  0  0  0  0  0  0  0
  -30.1250  -15.9320   20.1340 N   0  0  0  0  0  0  0  0  0  0  0  0
  -29.1660  -15.8550   20.4370 H   0  0  0  0  0  0  0  0  0  0  0  0
  -25.4260  -13.9490   20.3620 C   0  0  0  0  0  0  0  0  0  0  0  0
  -24.3690  -13.1860   20.7750 C   0  0  0  0  0  0  0  0  0  0  0  0
  -24.8060  -11.8290   20.6940 C   0  0  0  0  0  0  0  0  0  0  0  0
  -26.4410  -13.0590   20.0540 N   0  0  0  0  0  0  0  0  0  0  0  0
  -26.0780  -11.7760   20.3170 N   0  0  0  0  0  0  0  0  0  0  0  0
  -24.0680  -10.5740   20.8980 C   0  0  0  0  0  0  0  0  0  0  0  0
  -24.4930   -9.6110   21.8400 C   0  0  0  0  0  3  0  0  0  0  0  0
  -23.7550   -8.4240   22.0320 C   0  0  0  0  0  3  0  0  0  0  0  0
  -22.5790   -8.1890   21.2830 C   0  0  0  0  0  0  0  0  0  0  0  0
  -22.1730   -9.1410   20.3300 C   0  0  0  0  0  3  0  0  0  0  0  0
  -22.9100  -10.3200   20.1360 C   0  0  0  0  0  3  0  0  0  0  0  0
  -21.8130   -7.0530   21.3830 O   0  0  0  0  0  0  0  0  0  0  0  0
  -21.7020   -6.3620   22.5630 C   0  0  0  0  0  0  0  0  0  0  0  0
  -21.2210   -6.9730   23.7410 C   0  0  0  0  0  3  0  0  0  0  0  0
  -21.0580   -6.2080   24.9140 C   0  0  0  0  0  3  0  0  0  0  0  0
  -21.3650   -4.8350   24.9080 C   0  0  0  0  0  0  0  0  0  0  0  0
  -21.8390   -4.2240   23.7340 C   0  0  0  0  0  3  0  0  0  0  0  0
  -22.0030   -4.9850   22.5640 C   0  0  0  0  0  0  0  0  0  0  0  0
  -22.4400   -4.3870   21.4300 F   0  0  0  0  0  0  0  0  0  0  0  0
  -21.2010   -4.0980   26.0320 F   0  0  0  0  0  0  0  0  0  0  0  0
  -22.9960  -13.6800   21.1270 C   0  0  0  0  0  0  0  0  0  0  0  0
  -22.3070  -12.9870   22.0270 N   0  0  0  0  0  0  0  0  0  0  0  0
  -22.5460  -14.7170   20.6410 O   0  0  0  0  0  0  0  0  0  0  0  0
  -22.6860  -12.1480   22.4400 H   0  0  0  0  0  0  0  0  0  0  0  0
  -21.3890  -13.3010   22.3060 H   0  0  0  0  0  0  0  0  0  0  0  0
  -25.6030  -15.3210   20.2000 N   0  0  0  0  0  0  0  0  0  0  0  0
  -24.8520  -15.9820   20.3590 H   0  0  0  0  0  0  0  0  0  0  0  0
  -26.4340  -15.7520   19.8160 H   0  0  0  0  0  0  0  0  0  0  0  0
  -28.0300  -24.9190   19.8610 C   0  0  0  0  0  2  0  0  0  0  0  0
  -28.2630  -26.3550   20.2470 O   0  0  0  0  0  0  0  0  0  0  0  0
  -24.5440  -31.8430   23.1910 C   0  0  0  0  0  0  0  0  0  0  0  0
  -27.1750  -27.2580   20.1490 C   0  0  0  0  0  0  0  0  0  0  0  0
  -23.3520  -30.4330   21.5570 C   0  0  0  0  0  3  0  0  0  0  0  0
  -24.8130  -28.8970   20.1270 C   0  0  0  0  0  0  0  0  0  0  0  0
  -25.8950  -30.7550   21.3820 C   0  0  0  0  0  2  0  0  0  0  0  0
  -25.9810  -29.3740   20.7360 C   0  0  0  0  0  0  0  0  0  0  0  0
  -27.1610  -28.5630   20.7450 C   0  0  0  0  0  3  0  0  0  0  0  0
  -25.9900  -26.8710   19.4760 C   0  0  0  0  0  3  0  0  0  0  0  0
  -24.8230  -27.6530   19.4870 C   0  0  0  0  0  3  0  0  0  0  0  0
  -23.5710  -29.7650   20.1760 C   0  0  0  0  0  2  0  0  0  0  0  0
  -24.6160  -31.0300   22.1000 N   0  0  0  0  0  0  0  0  0  0  0  0
  -23.4580  -32.1150   23.7240 O   0  0  0  0  0  0  0  0  0  0  0  0
  -22.6970  -29.4130   22.5180 C   0  0  0  0  0  0  0  0  0  0  0  0
  -21.3760  -29.2070   22.3760 N   0  0  0  0  0  0  0  0  0  0  0  0
  -23.3760  -28.8080   23.3520 O   0  0  0  0  0  0  0  0  0  0  0  0
  -20.8850  -29.7470   21.6770 H   0  0  0  0  0  0  0  0  0  0  0  0
  -18.0210  -27.9250   22.8240 C   0  0  0  0  0  0  0  0  0  0  0  0
  -20.5650  -28.2620   23.1480 C   0  0  0  0  0  3  0  0  0  0  0  0
  -20.7200  -26.8220   22.6060 C   0  0  0  0  0  2  0  0  0  0  0  0
  -19.6520  -26.4470   21.5740 C   0  0  0  0  0  2  0  0  0  0  0  0
  -18.2520  -26.5670   22.1820 C   0  0  0  0  0  2  0  0  0  0  0  0
  -19.1080  -28.7280   23.2630 C   0  0  0  0  0  0  0  0  0  0  0  0
  -18.8390  -29.9960   23.8220 C   0  0  0  0  0  3  0  0  0  0  0  0
  -17.5170  -30.4630   23.9470 C   0  0  0  0  0  3  0  0  0  0  0  0
  -16.4450  -29.6570   23.5250 C   0  0  0  0  0  3  0  0  0  0  0  0
  -16.6980  -28.3900   22.9690 C   0  0  0  0  0  3  0  0  0  0  0  0
  -25.8220  -32.4890   23.8120 C   0  0  0  0  0  3  0  0  0  0  0  0
  -26.3490  -31.7210   25.0860 C   0  0  1  0  0  0  0  0  0  0  0  0
  -25.2590  -31.4700   26.1550 C   0  0  0  0  0  1  0  0  0  0  0  0
  -26.9470  -30.3510   24.6940 C   0  0  0  0  0  1  0  0  0  0  0  0
  -27.4910  -32.5290   25.7470 C   0  0  0  0  0  1  0  0  0  0  0  0
  -25.4970  -33.8830   24.1450 N   0  0  0  0  0  0  0  0  0  0  0  0
  -25.8150  -34.9420   23.3890 C   0  0  0  0  0  0  0  0  0  0  0  0
  -26.4830  -34.8480   22.3540 O   0  0  0  0  0  0  0  0  0  0  0  0
  -24.9050  -34.0290   24.9490 H   0  0  0  0  0  0  0  0  0  0  0  0
  -24.0680  -36.7180   23.0460 C   0  0  0  0  0  1  0  0  0  0  0  0
  -25.3160  -36.3240   23.8520 C   0  0  0  0  0  3  0  0  0  0  0  0
  -27.4420  -37.2300   24.6800 C   0  0  0  0  0  1  0  0  0  0  0  0
  -26.3370  -37.3880   23.7380 N   0  0  0  0  0  0  0  0  0  0  0  0
  -25.9220  -38.3040   23.8880 H   0  0  0  0  0  0  0  0  0  0  0  0
  1  3  2  0
  2  8  1  0
  2  1  1  0
  4  2  1  0
  6  5  1  0
  6  9  1  0
  7  6  2  0
  8  5  2  0
 10  7  1  0
 10  8  1  0
 11  7  1  0
 11 20  1  0
 12 20  1  0
 13 18  1  0
 14 15  1  0
 14 13  1  0
 16 15  1  0
 16 25  1  0
 16 17  1  0
 18 12  1  0
 18 17  1  0
 19 12  2  0
 20 21  1  0
 22 23  2  0
 23 42  1  0
 24 23  1  0
 24 27  1  0
 25 26  1  0
 25 22  1  0
 26 24  2  0
 27 28  1  0
 28 29  2  0
 30 33  1  0
 30 29  1  0
 31 30  2  0
 32 31  1  0
 32 27  2  0
 33 34  1  0
 34 39  2  0
 34 35  1  0
 35 36  2  0
 37 36  1  0
 37 41  1  0
 38 37  2  0
 39 38  1  0
 40 39  1  0
 42 43  1  0
 43 46  1  0
 43 45  1  0
 44 42  2  0
 47 48  1  0
 47 22  1  0
 49 47  1  0
 50 51  1  0
 50  1  1  0
 52 63  2  0
 53 51  1  0
 53 58  1  0
 54 62  1  0
 54 64  1  0
 55 61  1  0
 55 57  1  0
 56 62  1  0
 57 58  2  0
 57 56  1  0
 59 60  1  0
 59 53  2  0
 60 55  2  0
 61 54  1  0
 62 52  1  0
 64 66  2  0
 65 64  1  0
 67 65  1  0
 68 77  2  0
 68 73  1  0
 69 65  1  0
 69 73  1  0
 70 69  1  0
 71 72  1  0
 71 70  1  0
 72 68  1  0
 73 74  2  0
 74 75  1  0
 76 75  2  0
 77 76  1  0
 78 52  1  0
 78 83  1  0
 78 79  1  0
 79 82  1  1
 79 80  1  0
 81 79  1  0
 83 86  1  0
 84 88  1  0
 84 83  1  0
 85 84  2  0
 88 87  1  0
 90 88  1  0
 90 91  1  0
 90 89  1  0
M  ISO  4  12 100  20 100  50 101  51 101
M  END
>  <TORSDO>  (4) 
F 19

>  <SCORE>  (4) 
-13.795

>  <name>  (4) 
3

>  <ligand_id>  (4) 
3

>  <original_smiles>  (4) 
[H]c1c([H])c([H])c2c(c1[H])C([H])([H])C([H])([H])C([H])([H])C2([H])N([H])C(=O)C1([H])N(C(=O)C([H])(N([H])C(=O)C([H])(N([H])C([H])([H])[H])C([H])([H])[H])C(C([H])([H])[H])(C([H])([H])[H])C([H])([H])[H])C([H])([H])c2c([H])c(OC([H])([H])C(=O)N([H])c3sc(C([H])([H])N([H])C(=O)N4C([H])([H])C([H])([H])C([H])([H])C([H])(n5nc(-c6c([H])c([H])c(Oc7c([H])c([H])c(F)c([H])c7F)c([H])c6[H])c(C(=O)N([H])[H])c5N([H])[H])C4([H])[H])c(C([H])([H])[H])c3[H])c([H])c([H])c2C1([H])[H]

>  <smiles>  (4) 
[H]c1c([H])c([H])c2c(c1[H])C([H])([H])C([H])([H])C([H])([H])C2([H])N([H])C(=O)C1([H])N(C(=O)C([H])(N([H])C(=O)C([H])(N([H])C([H])([H])[H])C([H])([H])[H])C(C([H])([H])[H])(C([H])([H])[H])C([H])([H])[H])C([H])([H])c2c([H])c(OC([H])([H])C(=O)N([H])c3sc(C([H])([H])N([H])C(=O)N4C([H])([H])C([H])([H])C([H])([H])C([H])(n5nc(-c6c([H])c([H])c(Oc7c([H])c([H])c(F)c([H])c7F)c([H])c6[H])c(C(=O)N([H])[H])c5N([H])[H])C4([H])[H])c(C([H])([H])[H])c3[H])c([H])c([H])c2C1([H])[H]

$$$$
4:0:0
     RDKit          3D

 96105  0  0  1  0  0  0  0  0999 V2000
  -30.4320  -21.9140   20.6870 C   0  0  0  0  0  0  0  0  0  0  0  0
  -28.2420  -22.2020   20.1600 C   0  0  0  0  0  2  0  0  0  0  0  0
  -30.2150  -23.4550   20.6120 C   0  0  0  0  0  3  0  0  0  0  0  0
  -28.6890  -23.6580   20.6400 C   0  0  0  0  0  3  0  0  0  0  0  0
  -30.9640  -24.2270   21.7130 C   0  0  0  0  0  1  0  0  0  0  0  0
  -29.3140  -21.1890   20.4580 N   0  0  0  0  0  0  0  0  0  0  0  0
  -31.5420  -21.4320   20.9410 O   0  0  0  0  0  0  0  0  0  0  0  0
  -29.1240  -19.5980   18.5870 C   0  0  0  0  0  3  0  0  0  0  0  0
  -29.6210  -18.5610   20.7360 C   0  0  0  0  0  3  0  0  0  0  0  0
  -29.4960  -17.1770   18.7300 C   0  0  0  0  0  3  0  0  0  0  0  0
  -29.3460  -19.7770   19.9700 C   0  0  0  0  0  0  0  0  0  0  0  0
  -29.2070  -18.3320   17.9750 C   0  0  0  0  0  0  0  0  0  0  0  0
  -29.7000  -17.2340   20.1280 C   0  0  0  0  0  0  0  0  0  0  0  0
  -30.5610  -14.8090   20.4300 C   0  0  0  0  0  0  0  0  0  0  0  0
  -30.3800  -12.5300   19.4240 C   0  0  0  0  0  2  0  0  0  0  0  0
  -29.4700  -12.6050   18.1760 C   0  0  0  0  0  2  0  0  0  0  0  0
  -27.9900  -12.4370   18.5720 C   0  0  0  0  0  2  0  0  0  0  0  0
  -27.5920  -13.3210   19.7840 C   0  0  0  0  0  3  0  0  0  0  0  0
  -28.6270  -13.2290   20.9300 C   0  0  0  0  0  2  0  0  0  0  0  0
  -29.9430  -13.5790   20.3780 N   0  0  0  0  0  0  0  0  0  0  0  0
  -31.7200  -14.9270   20.0200 O   0  0  0  0  0  0  0  0  0  0  0  0
  -29.8430  -15.9280   20.8250 N   0  0  0  0  0  0  0  0  0  0  0  0
  -29.0680  -15.7080   21.4330 H   0  0  0  0  0  0  0  0  0  0  0  0
  -25.1810  -13.9000   20.4450 C   0  0  0  0  0  0  0  0  0  0  0  0
  -24.1120  -13.1240   20.8040 C   0  0  0  0  0  0  0  0  0  0  0  0
  -24.5840  -11.7760   20.8030 C   0  0  0  0  0  0  0  0  0  0  0  0
  -26.2370  -13.0280   20.2460 N   0  0  0  0  0  0  0  0  0  0  0  0
  -25.8840  -11.7450   20.5220 N   0  0  0  0  0  0  0  0  0  0  0  0
  -23.8630  -10.5100   21.0000 C   0  0  0  0  0  0  0  0  0  0  0  0
  -24.2870   -9.5580   21.9530 C   0  0  0  0  0  3  0  0  0  0  0  0
  -23.5660   -8.3570   22.1370 C   0  0  0  0  0  3  0  0  0  0  0  0
  -22.4060   -8.1010   21.3670 C   0  0  0  0  0  0  0  0  0  0  0  0
  -21.9990   -9.0440   20.4070 C   0  0  0  0  0  3  0  0  0  0  0  0
  -22.7210  -10.2360   20.2210 C   0  0  0  0  0  3  0  0  0  0  0  0
  -21.6580   -6.9510   21.4590 O   0  0  0  0  0  0  0  0  0  0  0  0
  -21.6030   -6.2200   22.6180 C   0  0  0  0  0  0  0  0  0  0  0  0
  -21.1600   -6.7840   23.8340 C   0  0  0  0  0  3  0  0  0  0  0  0
  -21.0520   -5.9770   24.9840 C   0  0  0  0  0  3  0  0  0  0  0  0
  -21.3770   -4.6090   24.9190 C   0  0  0  0  0  0  0  0  0  0  0  0
  -21.8120   -4.0440   23.7080 C   0  0  0  0  0  3  0  0  0  0  0  0
  -21.9220   -4.8470   22.5590 C   0  0  0  0  0  0  0  0  0  0  0  0
  -22.3220   -4.2950   21.3890 F   0  0  0  0  0  0  0  0  0  0  0  0
  -21.2660   -3.8330   26.0230 F   0  0  0  0  0  0  0  0  0  0  0  0
  -22.7040  -13.5940   21.0380 C   0  0  0  0  0  0  0  0  0  0  0  0
  -21.9630  -12.9070   21.8990 N   0  0  0  0  0  0  0  0  0  0  0  0
  -22.2710  -14.6080   20.4920 O   0  0  0  0  0  0  0  0  0  0  0  0
  -22.3250  -12.0890   22.3650 H   0  0  0  0  0  0  0  0  0  0  0  0
  -21.0170  -13.2070   22.0950 H   0  0  0  0  0  0  0  0  0  0  0  0
  -25.3430  -15.2680   20.2500 N   0  0  0  0  0  0  0  0  0  0  0  0
  -24.5810  -15.9270   20.3630 H   0  0  0  0  0  0  0  0  0  0  0  0
  -26.2010  -15.7030   19.9360 H   0  0  0  0  0  0  0  0  0  0  0  0
  -28.9910  -18.2140   16.6040 N   0  0  0  0  0  0  0  0  0  0  0  0
  -28.9960  -19.0320   16.0030 H   0  0  0  0  0  0  0  0  0  0  0  0
  -29.1960  -17.3440   16.1200 H   0  0  0  0  0  0  0  0  0  0  0  0
  -28.0220  -24.9450   19.9050 C   0  0  0  0  0  2  0  0  0  0  0  0
  -28.2090  -26.4010   20.2700 O   0  0  0  0  0  0  0  0  0  0  0  0
  -24.5650  -31.9390   23.2450 C   0  0  0  0  0  0  0  0  0  0  0  0
  -27.1250  -27.3140   20.1760 C   0  0  0  0  0  0  0  0  0  0  0  0
  -23.3490  -30.5450   21.6160 C   0  0  0  0  0  3  0  0  0  0  0  0
  -24.7810  -28.9930   20.1700 C   0  0  0  0  0  0  0  0  0  0  0  0
  -25.8940  -30.8340   21.4260 C   0  0  0  0  0  2  0  0  0  0  0  0
  -25.9600  -29.4530   20.7720 C   0  0  0  0  0  0  0  0  0  0  0  0
  -27.1290  -28.6240   20.7700 C   0  0  0  0  0  3  0  0  0  0  0  0
  -25.9270  -26.9450   19.5130 C   0  0  0  0  0  3  0  0  0  0  0  0
  -24.7730  -27.7470   19.5280 C   0  0  0  0  0  3  0  0  0  0  0  0
  -23.5500  -29.8760   20.2320 C   0  0  0  0  0  2  0  0  0  0  0  0
  -24.6230  -31.1240   22.1500 N   0  0  0  0  0  0  0  0  0  0  0  0
  -23.4850  -32.2230   23.7820 O   0  0  0  0  0  0  0  0  0  0  0  0
  -22.6870  -29.5290   22.5790 C   0  0  0  0  0  0  0  0  0  0  0  0
  -21.3630  -29.3410   22.4470 N   0  0  0  0  0  0  0  0  0  0  0  0
  -23.3650  -28.9150   23.4060 O   0  0  0  0  0  0  0  0  0  0  0  0
  -20.8750  -29.8870   21.7510 H   0  0  0  0  0  0  0  0  0  0  0  0
  -17.9940  -28.1050   22.9280 C   0  0  0  0  0  0  0  0  0  0  0  0
  -20.5460  -28.4050   23.2230 C   0  0  0  0  0  3  0  0  0  0  0  0
  -20.6740  -26.9660   22.6710 C   0  0  0  0  0  2  0  0  0  0  0  0
  -19.5870  -26.6130   21.6490 C   0  0  0  0  0  2  0  0  0  0  0  0
  -18.1960  -26.7490   22.2750 C   0  0  0  0  0  2  0  0  0  0  0  0
  -19.0970  -28.8900   23.3580 C   0  0  0  0  0  0  0  0  0  0  0  0
  -18.8550  -30.1570   23.9300 C   0  0  0  0  0  3  0  0  0  0  0  0
  -17.5400  -30.6420   24.0770 C   0  0  0  0  0  3  0  0  0  0  0  0
  -16.4510  -29.8560   23.6610 C   0  0  0  0  0  3  0  0  0  0  0  0
  -16.6800  -28.5900   23.0920 C   0  0  0  0  0  3  0  0  0  0  0  0
  -25.8520  -32.5700   23.8590 C   0  0  0  0  0  3  0  0  0  0  0  0
  -26.3580  -31.8120   25.1480 C   0  0  1  0  0  0  0  0  0  0  0  0
  -25.2610  -31.6070   26.2190 C   0  0  0  0  0  1  0  0  0  0  0  0
  -26.9290  -30.4230   24.7830 C   0  0  0  0  0  1  0  0  0  0  0  0
  -27.5160  -32.6080   25.7980 C   0  0  0  0  0  1  0  0  0  0  0  0
  -25.5530  -33.9750   24.1710 N   0  0  0  0  0  0  0  0  0  0  0  0
  -25.8930  -35.0160   23.4020 C   0  0  0  0  0  0  0  0  0  0  0  0
  -26.5640  -34.8950   22.3720 O   0  0  0  0  0  0  0  0  0  0  0  0
  -24.9570  -34.1440   24.9690 H   0  0  0  0  0  0  0  0  0  0  0  0
  -24.1820  -36.8230   23.0260 C   0  0  0  0  0  1  0  0  0  0  0  0
  -25.4180  -36.4140   23.8440 C   0  0  0  0  0  3  0  0  0  0  0  0
  -27.5600  -37.2860   24.6680 C   0  0  0  0  0  1  0  0  0  0  0  0
  -26.4610  -37.4560   23.7230 N   0  0  0  0  0  0  0  0  0  0  0  0
  -26.0640  -38.3820   23.8600 H   0  0  0  0  0  0  0  0  0  0  0  0
  1  7  2  0
  2  6  1  0
  2  4  1  0
  3  4  1  0
  3  1  1  0
  3  5  1  0
  4 55  1  0
  6  1  1  0
  8 11  1  0
 10 13  2  0
 11  6  1  0
 11  9  2  0
 12  8  2  0
 12 10  1  0
 13  9  1  0
 13 22  1  0
 14 22  1  0
 15 20  1  0
 16 17  1  0
 16 15  1  0
 18 17  1  0
 18 27  1  0
 18 19  1  0
 20 14  1  0
 20 19  1  0
 21 14  2  0
 22 23  1  0
 24 25  2  0
 25 44  1  0
 26 25  1  0
 26 29  1  0
 27 24  1  0
 27 28  1  0
 28 26  2  0
 29 30  1  0
 30 31  2  0
 32 35  1  0
 32 31  1  0
 33 32  2  0
 34 33  1  0
 34 29  2  0
 35 36  1  0
 36 37  1  0
 37 38  2  0
 39 38  1  0
 39 43  1  0
 40 39  2  0
 41 36  2  0
 41 40  1  0
 42 41  1  0
 44 45  1  0
 45 48  1  0
 45 47  1  0
 46 44  2  0
 49 50  1  0
 49 24  1  0
 51 49  1  0
 52 12  1  0
 53 52  1  0
 54 52  1  0
 55 56  1  0
 57 68  2  0
 58 56  1  0
 58 63  1  0
 59 67  1  0
 59 69  1  0
 60 66  1  0
 60 62  1  0
 61 67  1  0
 62 61  1  0
 63 62  2  0
 64 65  1  0
 64 58  2  0
 65 60  2  0
 66 59  1  0
 67 57  1  0
 69 71  2  0
 70 69  1  0
 72 70  1  0
 73 82  2  0
 73 78  1  0
 74 70  1  0
 74 78  1  0
 75 74  1  0
 76 77  1  0
 76 75  1  0
 77 73  1  0
 78 79  2  0
 79 80  1  0
 81 80  2  0
 82 81  1  0
 83 57  1  0
 83 88  1  0
 83 84  1  0
 84 87  1  1
 84 85  1  0
 86 84  1  0
 88 91  1  0
 89 93  1  0
 89 88  1  0
 90 89  2  0
 93 92  1  0
 95 93  1  0
 95 96  1  0
 95 94  1  0
M  ISO  4  14 100  22 100  55 101  56 101
M  END
>  <TORSDO>  (5) 
F 19

>  <SCORE>  (5) 
-14.363

>  <name>  (5) 
4

>  <ligand_id>  (5) 
4

>  <original_smiles>  (5) 
[H]c1c([H])c([H])c2c(c1[H])C([H])([H])C([H])([H])C([H])([H])C2([H])N([H])C(=O)C1([H])N(C(=O)C([H])(N([H])C(=O)C([H])(N([H])C([H])([H])[H])C([H])([H])[H])C(C([H])([H])[H])(C([H])([H])[H])C([H])([H])[H])C([H])([H])c2c([H])c(OC([H])([H])C3([H])C([H])([H])N(c4c([H])c(N([H])[H])c([H])c(N([H])C(=O)N5C([H])([H])C([H])([H])C([H])([H])C([H])(n6nc(-c7c([H])c([H])c(Oc8c([H])c([H])c(F)c([H])c8F)c([H])c7[H])c(C(=O)N([H])[H])c6N([H])[H])C5([H])[H])c4[H])C(=O)C3([H])C([H])([H])[H])c([H])c([H])c2C1([H])[H]

>  <smiles>  (5) 
[H]c1c([H])c([H])c2c(c1[H])C([H])([H])C([H])([H])C([H])([H])C2([H])N([H])C(=O)C1([H])N(C(=O)C([H])(N([H])C(=O)C([H])(N([H])C([H])([H])[H])C([H])([H])[H])C(C([H])([H])[H])(C([H])([H])[H])C([H])([H])[H])C([H])([H])c2c([H])c(OC([H])([H])C3([H])C([H])([H])N(c4c([H])c(N([H])[H])c([H])c(N([H])C(=O)N5C([H])([H])C([H])([H])C([H])([H])C([H])(n6nc(-c7c([H])c([H])c(Oc8c([H])c([H])c(F)c([H])c8F)c([H])c7[H])c(C(=O)N([H])[H])c6N([H])[H])C5([H])[H])c4[H])C(=O)C3([H])C([H])([H])[H])c([H])c([H])c2C1([H])[H]

$$$$
5:0:0
     RDKit          3D

 99107  0  0  1  0  0  0  0  0999 V2000
  -29.5340  -18.2890   18.1050 C   0  0  0  0  0  3  0  0  0  0  0  0
  -29.7810  -18.7010   20.8400 C   0  0  0  0  0  3  0  0  0  0  0  0
  -29.5140  -19.6190   18.5810 C   0  0  0  0  0  0  0  0  0  0  0  0
  -29.6040  -19.8870   19.9930 C   0  0  0  0  0  0  0  0  0  0  0  0
  -29.8360  -17.3270   20.3380 C   0  0  0  0  0  0  0  0  0  0  0  0
  -29.6750  -17.1790   18.9440 C   0  0  0  0  0  0  0  0  0  0  0  0
  -29.6140  -15.9500   18.3780 F   0  0  0  0  0  0  0  0  0  0  0  0
  -30.7050  -14.9590   20.8850 C   0  0  0  0  0  0  0  0  0  0  0  0
  -30.6440  -12.6320   19.9860 C   0  0  0  0  0  2  0  0  0  0  0  0
  -29.8180  -12.6270   18.6790 C   0  0  0  0  0  2  0  0  0  0  0  0
  -28.3180  -12.4470   18.9850 C   0  0  0  0  0  2  0  0  0  0  0  0
  -27.8220  -13.3760   20.1270 C   0  0  0  0  0  3  0  0  0  0  0  0
  -28.7800  -13.3510   21.3400 C   0  0  0  0  0  2  0  0  0  0  0  0
  -30.1200  -13.7110   20.8570 N   0  0  0  0  0  0  0  0  0  0  0  0
  -31.8940  -15.0830   20.5760 O   0  0  0  0  0  0  0  0  0  0  0  0
  -29.9230  -16.0760   21.1360 N   0  0  0  0  0  0  0  0  0  0  0  0
  -29.0930  -15.8830   21.6740 H   0  0  0  0  0  0  0  0  0  0  0  0
  -25.3760  -13.9400   20.6540 C   0  0  0  0  0  0  0  0  0  0  0  0
  -24.2940  -13.1570   20.9540 C   0  0  0  0  0  0  0  0  0  0  0  0
  -24.7770  -11.8120   20.9780 C   0  0  0  0  0  0  0  0  0  0  0  0
  -26.4470  -13.0740   20.5110 N   0  0  0  0  0  0  0  0  0  0  0  0
  -26.0890  -11.7900   20.7720 N   0  0  0  0  0  0  0  0  0  0  0  0
  -24.0550  -10.5420   21.1320 C   0  0  0  0  0  0  0  0  0  0  0  0
  -24.4260   -9.5950   22.1110 C   0  0  0  0  0  3  0  0  0  0  0  0
  -23.7060   -8.3900   22.2500 C   0  0  0  0  0  3  0  0  0  0  0  0
  -22.6000   -8.1230   21.4090 C   0  0  0  0  0  0  0  0  0  0  0  0
  -22.2480   -9.0590   20.4210 C   0  0  0  0  0  3  0  0  0  0  0  0
  -22.9700  -10.2560   20.2800 C   0  0  0  0  0  3  0  0  0  0  0  0
  -21.8530   -6.9710   21.4580 O   0  0  0  0  0  0  0  0  0  0  0  0
  -21.7180   -6.2470   22.6150 C   0  0  0  0  0  0  0  0  0  0  0  0
  -21.1370   -6.8020   23.7770 C   0  0  0  0  0  3  0  0  0  0  0  0
  -20.9520   -6.0010   24.9220 C   0  0  0  0  0  3  0  0  0  0  0  0
  -21.3400   -4.6480   24.9060 C   0  0  0  0  0  0  0  0  0  0  0  0
  -21.9140   -4.0940   23.7490 C   0  0  0  0  0  3  0  0  0  0  0  0
  -22.0990   -4.8900   22.6060 C   0  0  0  0  0  0  0  0  0  0  0  0
  -22.6320   -4.3450   21.4860 F   0  0  0  0  0  0  0  0  0  0  0  0
  -21.1560   -3.8780   26.0040 F   0  0  0  0  0  0  0  0  0  0  0  0
  -22.8740  -13.6170   21.1090 C   0  0  0  0  0  0  0  0  0  0  0  0
  -22.0840  -12.9140   21.9130 N   0  0  0  0  0  0  0  0  0  0  0  0
  -22.4680  -14.6360   20.5530 O   0  0  0  0  0  0  0  0  0  0  0  0
  -22.4230  -12.0940   22.3940 H   0  0  0  0  0  0  0  0  0  0  0  0
  -21.1260  -13.2050   22.0540 H   0  0  0  0  0  0  0  0  0  0  0  0
  -25.5330  -15.3120   20.4700 N   0  0  0  0  0  0  0  0  0  0  0  0
  -24.7500  -15.9550   20.5130 H   0  0  0  0  0  0  0  0  0  0  0  0
  -26.3930  -15.7540   20.1730 H   0  0  0  0  0  0  0  0  0  0  0  0
  -29.4520  -20.6120   17.4900 C   0  0  0  0  0  0  0  0  0  0  0  0
  -30.4170  -20.6460   16.5710 N   0  0  0  0  0  4  0  0  0  0  0  0
  -28.4200  -21.4360   17.3360 N   0  0  0  0  0  0  0  0  0  0  0  0
  -31.2160  -20.0390   16.6760 H   0  0  0  0  0  0  0  0  0  0  0  0
  -30.4240  -21.2960   15.8020 H   0  0  0  0  0  0  0  0  0  0  0  0
  -27.7720  -21.5340   18.1170 H   0  0  0  0  0  0  0  0  0  0  0  0
  -28.3170  -22.0520   16.5440 H   0  0  0  0  0  0  0  0  0  0  0  0
  -28.7900  -22.3470   20.4260 C   0  0  0  0  0  0  0  0  0  0  0  0
  -29.6880  -21.2900   20.5100 N   0  0  0  0  0  0  0  0  0  0  0  0
  -27.5970  -22.1030   20.2260 O   0  0  0  0  0  0  0  0  0  0  0  0
  -30.5830  -21.5430   20.9100 H   0  0  0  0  0  0  0  0  0  0  0  0
  -29.2160  -23.8880   20.5770 C   0  0  0  0  0  3  0  0  0  0  0  0
  -28.1330  -25.0430   20.2230 C   0  0  0  0  0  3  0  0  0  0  0  0
  -28.3920  -26.5240   20.3380 O   0  0  0  0  0  0  0  0  0  0  0  0
  -24.6060  -31.9810   23.2630 C   0  0  0  0  0  0  0  0  0  0  0  0
  -27.2910  -27.4120   20.2480 C   0  0  0  0  0  0  0  0  0  0  0  0
  -23.4340  -30.5640   21.6180 C   0  0  0  0  0  3  0  0  0  0  0  0
  -24.9150  -29.0310   20.2020 C   0  0  0  0  0  0  0  0  0  0  0  0
  -25.9720  -30.9060   21.4550 C   0  0  0  0  0  2  0  0  0  0  0  0
  -26.0760  -29.5230   20.8130 C   0  0  0  0  0  0  0  0  0  0  0  0
  -27.2660  -28.7260   20.8250 C   0  0  0  0  0  3  0  0  0  0  0  0
  -26.1080  -26.9960   19.5920 C   0  0  0  0  0  3  0  0  0  0  0  0
  -24.9360  -27.7750   19.5800 C   0  0  0  0  0  3  0  0  0  0  0  0
  -23.6690  -29.8940   20.2390 C   0  0  0  0  0  2  0  0  0  0  0  0
  -24.6890  -31.1690   22.1680 N   0  0  0  0  0  0  0  0  0  0  0  0
  -23.5140  -32.2450   23.7870 O   0  0  0  0  0  0  0  0  0  0  0  0
  -22.7790  -29.5390   22.5750 C   0  0  0  0  0  0  0  0  0  0  0  0
  -21.4650  -29.3100   22.4110 N   0  0  0  0  0  0  0  0  0  0  0  0
  -23.4520  -28.9530   23.4260 O   0  0  0  0  0  0  0  0  0  0  0  0
  -20.9770  -29.8420   21.7040 H   0  0  0  0  0  0  0  0  0  0  0  0
  -18.1320  -27.9490   22.7930 C   0  0  0  0  0  0  0  0  0  0  0  0
  -20.6570  -28.3560   23.1730 C   0  0  0  0  0  3  0  0  0  0  0  0
  -20.8600  -26.9120   22.6570 C   0  0  0  0  0  2  0  0  0  0  0  0
  -19.8280  -26.4960   21.6030 C   0  0  0  0  0  2  0  0  0  0  0  0
  -18.4120  -26.5880   22.1750 C   0  0  0  0  0  2  0  0  0  0  0  0
  -19.1870  -28.7830   23.2470 C   0  0  0  0  0  0  0  0  0  0  0  0
  -18.8740  -30.0500   23.7860 C   0  0  0  0  0  3  0  0  0  0  0  0
  -17.5390  -30.4860   23.8720 C   0  0  0  0  0  3  0  0  0  0  0  0
  -16.4970  -29.6520   23.4310 C   0  0  0  0  0  3  0  0  0  0  0  0
  -16.7940  -28.3840   22.8990 C   0  0  0  0  0  3  0  0  0  0  0  0
  -25.8730  -32.6360   23.8920 C   0  0  0  0  0  3  0  0  0  0  0  0
  -26.3790  -31.8870   25.1860 C   0  0  1  0  0  0  0  0  0  0  0  0
  -25.2720  -31.6410   26.2390 C   0  0  0  0  0  1  0  0  0  0  0  0
  -26.9950  -30.5170   24.8200 C   0  0  0  0  0  1  0  0  0  0  0  0
  -27.5050  -32.7080   25.8600 C   0  0  0  0  0  1  0  0  0  0  0  0
  -25.5450  -34.0350   24.2010 N   0  0  0  0  0  0  0  0  0  0  0  0
  -25.8720  -35.0830   23.4320 C   0  0  0  0  0  0  0  0  0  0  0  0
  -26.5550  -34.9730   22.4100 O   0  0  0  0  0  0  0  0  0  0  0  0
  -24.9420  -34.1930   24.9960 H   0  0  0  0  0  0  0  0  0  0  0  0
  -24.1440  -36.8650   23.0210 C   0  0  0  0  0  1  0  0  0  0  0  0
  -25.3670  -36.4730   23.8670 C   0  0  0  0  0  3  0  0  0  0  0  0
  -27.4690  -37.3840   24.7500 C   0  0  0  0  0  1  0  0  0  0  0  0
  -26.3950  -37.5310   23.7700 N   0  0  0  0  0  0  0  0  0  0  0  0
  -25.9800  -38.4510   23.8880 H   0  0  0  0  0  0  0  0  0  0  0  0
  1  3  2  0
  1  6  1  0
  3  4  1  0
  4 54  1  0
  4  2  2  0
  5  2  1  0
  5 16  1  0
  6  5  2  0
  7  6  1  0
  8 16  1  0
  9 14  1  0
 10 11  1  0
 10  9  1  0
 12 11  1  0
 12 21  1  0
 12 13  1  0
 14  8  1  0
 14 13  1  0
 15  8  2  0
 16 17  1  0
 18 19  2  0
 19 20  1  0
 19 38  1  0
 20 23  1  0
 21 18  1  0
 21 22  1  0
 22 20  2  0
 23 24  1  0
 24 25  2  0
 26 29  1  0
 26 25  1  0
 27 26  2  0
 28 27  1  0
 28 23  2  0
 29 30  1  0
 30 31  1  0
 31 32  2  0
 33 32  1  0
 33 37  1  0
 34 33  2  0
 35 30  2  0
 35 34  1  0
 36 35  1  0
 38 39  1  0
 39 42  1  0
 39 41  1  0
 40 38  2  0
 43 44  1  0
 43 18  1  0
 45 43  1  0
 46  3  1  0
 47 49  1  0
 47 46  2  0
 48 46  1  0
 48 51  1  0
 50 47  1  0
 52 48  1  0
 53 54  1  0
 53 57  1  0
 54 56  1  0
 55 53  2  0
 58 59  1  0
 58 57  2  0
 60 71  2  0
 61 59  1  0
 61 66  1  0
 62 70  1  0
 62 72  1  0
 63 69  1  0
 63 65  1  0
 64 70  1  0
 65 66  2  0
 65 64  1  0
 67 61  2  0
 68 67  1  0
 68 63  2  0
 69 62  1  0
 70 60  1  0
 72 74  2  0
 73 72  1  0
 75 73  1  0
 76 85  2  0
 76 81  1  0
 77 73  1  0
 77 81  1  0
 78 77  1  0
 79 80  1  0
 79 78  1  0
 80 76  1  0
 81 82  2  0
 82 83  1  0
 84 83  2  0
 85 84  1  0
 86 60  1  0
 86 91  1  0
 86 87  1  0
 87 90  1  1
 87 88  1  0
 89 87  1  0
 91 94  1  0
 92 96  1  0
 92 91  1  0
 93 92  2  0
 96 95  1  0
 98 96  1  0
 98 99  1  0
 98 97  1  0
M  ISO  4   8 100  16 100  58 101  59 101
M  END
>  <TORSDO>  (6) 
F 20

>  <SCORE>  (6) 
-13.640

>  <name>  (6) 
5

>  <ligand_id>  (6) 
5

>  <original_smiles>  (6) 
[H]c1c([H])c([H])c2c(c1[H])C([H])([H])C([H])([H])C([H])([H])C2([H])N([H])C(=O)C1([H])N(C(=O)C([H])(N([H])C(=O)C([H])(N([H])C([H])([H])[H])C([H])([H])[H])C(C([H])([H])[H])(C([H])([H])[H])C([H])([H])[H])C([H])([H])c2c([H])c(OC([H])([H])C([H])([H])C(=O)N([H])c3c([H])c(N([H])C(=O)N4C([H])([H])C([H])([H])C([H])([H])C([H])(n5nc(-c6c([H])c([H])c(Oc7c([H])c([H])c(F)c([H])c7F)c([H])c6[H])c(C(=O)N([H])[H])c5N([H])[H])C4([H])[H])c(F)c([H])c3C(N([H])[H])=[N+]([H])[H])c([H])c([H])c2C1([H])[H]

>  <smiles>  (6) 
[H]c1c([H])c([H])c2c(c1[H])C([H])([H])C([H])([H])C([H])([H])C2([H])N([H])C(=O)C1([H])N(C(=O)C([H])(N([H])C(=O)C([H])(N([H])C([H])([H])[H])C([H])([H])[H])C(C([H])([H])[H])(C([H])([H])[H])C([H])([H])[H])C([H])([H])c2c([H])c(OC([H])([H])C([H])([H])C(=O)N([H])c3c([H])c(N([H])C(=O)N4C([H])([H])C([H])([H])C([H])([H])C([H])(n5nc(-c6c([H])c([H])c(Oc7c([H])c([H])c(F)c([H])c7F)c([H])c6[H])c(C(=O)N([H])[H])c5N([H])[H])C4([H])[H])c(F)c([H])c3C(N([H])[H])=[N+]([H])[H])c([H])c([H])c2C1([H])[H]

$$$$
6:0:0
     RDKit          3D

 92100  0  0  1  0  0  0  0  0999 V2000
  -29.2530  -22.6520   20.2660 C   0  0  0  0  0  0  0  0  0  0  0  0
  -28.9710  -21.2850   20.1880 N   0  0  0  0  0  0  0  0  0  0  0  0
  -30.4180  -23.0460   20.3710 O   0  0  0  0  0  0  0  0  0  0  0  0
  -28.0110  -21.0890   19.9320 H   0  0  0  0  0  0  0  0  0  0  0  0
  -30.9450  -20.2010   21.3150 C   0  0  0  0  0  3  0  0  0  0  0  0
  -31.4350  -17.7910   21.2080 C   0  0  0  0  0  3  0  0  0  0  0  0
  -29.4780  -18.7040   20.0850 C   0  0  0  0  0  3  0  0  0  0  0  0
  -31.7350  -19.0880   21.6750 C   0  0  0  0  0  0  0  0  0  0  0  0
  -29.8030  -20.0750   20.4860 C   0  0  0  0  0  0  0  0  0  0  0  0
  -30.2780  -17.5300   20.4430 C   0  0  0  0  0  0  0  0  0  0  0  0
  -32.8890  -19.2780   22.6400 C   0  0  0  0  0  1  0  0  0  0  0  0
  -30.7010  -14.9430   20.1360 C   0  0  0  0  0  0  0  0  0  0  0  0
  -30.4820  -12.6330   19.1870 C   0  0  0  0  0  2  0  0  0  0  0  0
  -29.5060  -12.6400   17.9900 C   0  0  0  0  0  2  0  0  0  0  0  0
  -28.0540  -12.4540   18.4810 C   0  0  0  0  0  2  0  0  0  0  0  0
  -27.6950  -13.3880   19.6640 C   0  0  0  0  0  3  0  0  0  0  0  0
  -28.7910  -13.3760   20.7530 C   0  0  0  0  0  2  0  0  0  0  0  0
  -30.0620  -13.7230   20.0980 N   0  0  0  0  0  0  0  0  0  0  0  0
  -31.9010  -15.0040   19.8640 O   0  0  0  0  0  0  0  0  0  0  0  0
  -29.9270  -16.1060   20.1610 N   0  0  0  0  0  0  0  0  0  0  0  0
  -28.9430  -15.9350   20.0220 H   0  0  0  0  0  0  0  0  0  0  0  0
  -25.3450  -13.9670   20.5200 C   0  0  0  0  0  0  0  0  0  0  0  0
  -24.2930  -13.1870   20.9150 C   0  0  0  0  0  0  0  0  0  0  0  0
  -24.7510  -11.8340   20.8290 C   0  0  0  0  0  0  0  0  0  0  0  0
  -26.3760  -13.0920   20.2140 N   0  0  0  0  0  0  0  0  0  0  0  0
  -26.0290  -11.8040   20.4700 N   0  0  0  0  0  0  0  0  0  0  0  0
  -24.0250  -10.5720   21.0150 C   0  0  0  0  0  0  0  0  0  0  0  0
  -24.4550   -9.6030   21.9510 C   0  0  0  0  0  3  0  0  0  0  0  0
  -23.7320   -8.4040   22.1230 C   0  0  0  0  0  3  0  0  0  0  0  0
  -22.5630   -8.1650   21.3620 C   0  0  0  0  0  0  0  0  0  0  0  0
  -22.1540   -9.1190   20.4140 C   0  0  0  0  0  3  0  0  0  0  0  0
  -22.8790  -10.3100   20.2390 C   0  0  0  0  0  3  0  0  0  0  0  0
  -21.8110   -7.0170   21.4450 O   0  0  0  0  0  0  0  0  0  0  0  0
  -21.7210   -6.2950   22.6090 C   0  0  0  0  0  0  0  0  0  0  0  0
  -21.2060   -6.8600   23.7960 C   0  0  0  0  0  3  0  0  0  0  0  0
  -21.0670   -6.0650   24.9510 C   0  0  0  0  0  3  0  0  0  0  0  0
  -21.4350   -4.7080   24.9190 C   0  0  0  0  0  0  0  0  0  0  0  0
  -21.9420   -4.1410   23.7370 C   0  0  0  0  0  3  0  0  0  0  0  0
  -22.0840   -4.9320   22.5840 C   0  0  0  0  0  0  0  0  0  0  0  0
  -22.5540   -4.3790   21.4410 F   0  0  0  0  0  0  0  0  0  0  0  0
  -21.2940   -3.9410   26.0260 F   0  0  0  0  0  0  0  0  0  0  0  0
  -22.9090  -13.6600   21.2500 C   0  0  0  0  0  0  0  0  0  0  0  0
  -22.2050  -12.9380   22.1160 N   0  0  0  0  0  0  0  0  0  0  0  0
  -22.4590  -14.7030   20.7750 O   0  0  0  0  0  0  0  0  0  0  0  0
  -22.5810  -12.0970   22.5250 H   0  0  0  0  0  0  0  0  0  0  0  0
  -21.2760  -13.2340   22.3750 H   0  0  0  0  0  0  0  0  0  0  0  0
  -25.5050  -15.3410   20.3660 N   0  0  0  0  0  0  0  0  0  0  0  0
  -24.7360  -15.9900   20.5050 H   0  0  0  0  0  0  0  0  0  0  0  0
  -26.3300  -15.7910   19.9890 H   0  0  0  0  0  0  0  0  0  0  0  0
  -28.1080  -23.7840   20.2340 C   0  0  0  0  0  2  0  0  0  0  0  0
  -28.2940  -25.2220   19.4910 C   0  0  0  0  0  2  0  0  0  0  0  0
  -28.1790  -26.5670   20.1540 O   0  0  0  0  0  0  0  0  0  0  0  0
  -24.5030  -31.9930   23.2290 C   0  0  0  0  0  0  0  0  0  0  0  0
  -27.0440  -27.4080   20.1020 C   0  0  0  0  0  0  0  0  0  0  0  0
  -23.2640  -30.6070   21.6020 C   0  0  0  0  0  3  0  0  0  0  0  0
  -24.6840  -29.0520   20.1400 C   0  0  0  0  0  0  0  0  0  0  0  0
  -25.8030  -30.9110   21.3720 C   0  0  0  0  0  2  0  0  0  0  0  0
  -25.8640  -29.5300   20.7210 C   0  0  0  0  0  0  0  0  0  0  0  0
  -27.0420  -28.7180   20.6930 C   0  0  0  0  0  3  0  0  0  0  0  0
  -25.8330  -26.9840   19.5130 C   0  0  0  0  0  3  0  0  0  0  0  0
  -24.6730  -27.7880   19.5240 C   0  0  0  0  0  3  0  0  0  0  0  0
  -23.4540  -29.9390   20.2110 C   0  0  0  0  0  2  0  0  0  0  0  0
  -24.5440  -31.1880   22.1260 N   0  0  0  0  0  0  0  0  0  0  0  0
  -23.4290  -32.2690   23.7850 O   0  0  0  0  0  0  0  0  0  0  0  0
  -22.6120  -29.5890   22.5680 C   0  0  0  0  0  0  0  0  0  0  0  0
  -21.2870  -29.4050   22.4550 N   0  0  0  0  0  0  0  0  0  0  0  0
  -23.3010  -28.9710   23.3840 O   0  0  0  0  0  0  0  0  0  0  0  0
  -20.7910  -29.9620   21.7740 H   0  0  0  0  0  0  0  0  0  0  0  0
  -17.9250  -28.1680   22.9730 C   0  0  0  0  0  0  0  0  0  0  0  0
  -20.4810  -28.4640   23.2350 C   0  0  0  0  0  3  0  0  0  0  0  0
  -20.6010  -27.0280   22.6760 C   0  0  0  0  0  2  0  0  0  0  0  0
  -19.5010  -26.6800   21.6670 C   0  0  0  0  0  2  0  0  0  0  0  0
  -18.1170  -26.8150   22.3090 C   0  0  0  0  0  2  0  0  0  0  0  0
  -19.0350  -28.9470   23.3950 C   0  0  0  0  0  0  0  0  0  0  0  0
  -18.7980  -30.2120   23.9780 C   0  0  0  0  0  3  0  0  0  0  0  0
  -17.4860  -30.6960   24.1430 C   0  0  0  0  0  3  0  0  0  0  0  0
  -16.3920  -29.9120   23.7330 C   0  0  0  0  0  3  0  0  0  0  0  0
  -16.6120  -28.6520   23.1540 C   0  0  0  0  0  3  0  0  0  0  0  0
  -25.8000  -32.6180   23.8320 C   0  0  0  0  0  3  0  0  0  0  0  0
  -26.3290  -31.8510   25.1050 C   0  0  1  0  0  0  0  0  0  0  0  0
  -25.2450  -31.6170   26.1830 C   0  0  0  0  0  1  0  0  0  0  0  0
  -26.9100  -30.4750   24.7090 C   0  0  0  0  0  1  0  0  0  0  0  0
  -27.4800  -32.6520   25.7590 C   0  0  0  0  0  1  0  0  0  0  0  0
  -25.5010  -34.0200   24.1600 N   0  0  0  0  0  0  0  0  0  0  0  0
  -25.8330  -35.0700   23.3960 C   0  0  0  0  0  0  0  0  0  0  0  0
  -26.4830  -34.9600   22.3530 O   0  0  0  0  0  0  0  0  0  0  0  0
  -24.9320  -34.1820   24.9760 H   0  0  0  0  0  0  0  0  0  0  0  0
  -24.1290  -36.8900   23.0480 C   0  0  0  0  0  1  0  0  0  0  0  0
  -25.3640  -36.4630   23.8590 C   0  0  0  0  0  3  0  0  0  0  0  0
  -27.5050  -37.3170   24.7000 C   0  0  0  0  0  1  0  0  0  0  0  0
  -26.4080  -37.5040   23.7540 N   0  0  0  0  0  0  0  0  0  0  0  0
  -26.0100  -38.4280   23.9050 H   0  0  0  0  0  0  0  0  0  0  0  0
  1  3  2  0
  2  1  1  0
  2  9  1  0
  4  2  1  0
  5  8  1  0
  6  8  2  0
  7 10  2  0
  7  9  1  0
  8 11  1  0
  9  5  2  0
 10  6  1  0
 12 20  1  0
 13 18  1  0
 14 15  1  0
 14 13  1  0
 16 15  1  0
 16 25  1  0
 16 17  1  0
 18 12  1  0
 18 17  1  0
 19 12  2  0
 20 10  1  0
 21 20  1  0
 22 23  2  0
 23 42  1  0
 24 23  1  0
 24 27  1  0
 25 26  1  0
 25 22  1  0
 26 24  2  0
 27 28  1  0
 28 29  2  0
 30 33  1  0
 30 29  1  0
 31 30  2  0
 32 31  1  0
 32 27  2  0
 33 34  1  0
 34 35  1  0
 35 36  2  0
 37 36  1  0
 37 41  1  0
 38 37  2  0
 39 34  2  0
 39 38  1  0
 40 39  1  0
 42 43  1  0
 43 46  1  0
 43 45  1  0
 44 42  2  0
 47 48  1  0
 47 22  1  0
 49 47  1  0
 50  1  1  0
 51 52  1  0
 51 50  1  0
 53 64  2  0
 54 52  1  0
 54 59  1  0
 55 63  1  0
 55 65  1  0
 56 62  1  0
 56 58  1  0
 57 63  1  0
 58 57  1  0
 59 58  2  0
 60 61  1  0
 60 54  2  0
 61 56  2  0
 62 55  1  0
 63 53  1  0
 65 67  2  0
 66 65  1  0
 68 66  1  0
 69 78  2  0
 69 74  1  0
 70 66  1  0
 70 74  1  0
 71 70  1  0
 72 73  1  0
 72 71  1  0
 73 69  1  0
 74 75  2  0
 75 76  1  0
 77 76  2  0
 78 77  1  0
 79 53  1  0
 79 84  1  0
 79 80  1  0
 80 83  1  1
 80 81  1  0
 82 80  1  0
 84 87  1  0
 85 89  1  0
 85 84  1  0
 86 85  2  0
 89 88  1  0
 91 89  1  0
 91 92  1  0
 91 90  1  0
M  ISO  4  12 100  20 100  51 101  52 101
M  END
>  <TORSDO>  (7) 
F 19

>  <SCORE>  (7) 
-13.943

>  <name>  (7) 
6

>  <ligand_id>  (7) 
6

>  <original_smiles>  (7) 
[H]c1c([H])c([H])c2c(c1[H])C([H])([H])C([H])([H])C([H])([H])C2([H])N([H])C(=O)C1([H])N(C(=O)C([H])(N([H])C(=O)C([H])(N([H])C([H])([H])[H])C([H])([H])[H])C(C([H])([H])[H])(C([H])([H])[H])C([H])([H])[H])C([H])([H])c2c([H])c(OC([H])([H])C([H])([H])C(=O)N([H])c3c([H])c(N([H])C(=O)N4C([H])([H])C([H])([H])C([H])([H])C([H])(n5nc(-c6c([H])c([H])c(Oc7c([H])c([H])c(F)c([H])c7F)c([H])c6[H])c(C(=O)N([H])[H])c5N([H])[H])C4([H])[H])c([H])c(C([H])([H])[H])c3[H])c([H])c([H])c2C1([H])[H]

>  <smiles>  (7) 
[H]c1c([H])c([H])c2c(c1[H])C([H])([H])C([H])([H])C([H])([H])C2([H])N([H])C(=O)C1([H])N(C(=O)C([H])(N([H])C(=O)C([H])(N([H])C([H])([H])[H])C([H])([H])[H])C(C([H])([H])[H])(C([H])([H])[H])C([H])([H])[H])C([H])([H])c2c([H])c(OC([H])([H])C([H])([H])C(=O)N([H])c3c([H])c(N([H])C(=O)N4C([H])([H])C([H])([H])C([H])([H])C([H])(n5nc(-c6c([H])c([H])c(Oc7c([H])c([H])c(F)c([H])c7F)c([H])c6[H])c(C(=O)N([H])[H])c5N([H])[H])C4([H])[H])c([H])c(C([H])([H])[H])c3[H])c([H])c([H])c2C1([H])[H]

$$$$
7:0:0
     RDKit          3D

 92100  0  0  1  0  0  0  0  0999 V2000
  -28.9810  -23.2530   20.2700 C   0  0  0  0  0  0  0  0  0  0  0  0
  -28.7060  -21.8260   20.2950 N   0  0  0  0  0  0  0  0  0  0  0  0
  -30.1510  -23.6360   20.2480 O   0  0  0  0  0  0  0  0  0  0  0  0
  -27.7100  -21.6520   20.3000 H   0  0  0  0  0  0  0  0  0  0  0  0
  -31.8550  -19.5580   20.3360 C   0  0  0  0  0  3  0  0  0  0  0  0
  -30.9680  -20.6550   20.3120 C   0  0  0  0  0  3  0  0  0  0  0  0
  -31.4290  -18.2130   20.3730 C   0  0  0  0  0  3  0  0  0  0  0  0
  -29.1480  -19.0500   20.3690 C   0  0  0  0  0  0  0  0  0  0  0  0
  -29.5610  -20.5090   20.3260 C   0  0  0  0  0  0  0  0  0  0  0  0
  -30.0660  -17.8440   20.3880 C   0  0  0  0  0  0  0  0  0  0  0  0
  -27.6610  -18.7540   20.3900 C   0  0  0  0  0  1  0  0  0  0  0  0
  -30.5150  -15.0880   20.3070 C   0  0  0  0  0  0  0  0  0  0  0  0
  -30.4150  -12.7120   19.3770 C   0  0  0  0  0  2  0  0  0  0  0  0
  -29.4820  -12.6220   18.1470 C   0  0  0  0  0  2  0  0  0  0  0  0
  -28.0250  -12.3860   18.5870 C   0  0  0  0  0  2  0  0  0  0  0  0
  -27.6060  -13.3140   19.7570 C   0  0  0  0  0  3  0  0  0  0  0  0
  -28.6660  -13.3730   20.8770 C   0  0  0  0  0  2  0  0  0  0  0  0
  -29.9190  -13.8200   20.2540 N   0  0  0  0  0  0  0  0  0  0  0  0
  -31.7230  -15.1050   20.0470 O   0  0  0  0  0  0  0  0  0  0  0  0
  -29.7480  -16.3100   20.4360 N   0  0  0  0  0  0  0  0  0  0  0  0
  -28.7680  -16.1100   20.5670 H   0  0  0  0  0  0  0  0  0  0  0  0
  -25.2300  -13.8610   20.5220 C   0  0  0  0  0  0  0  0  0  0  0  0
  -24.1740  -13.0750   20.8890 C   0  0  0  0  0  0  0  0  0  0  0  0
  -24.6500  -11.7270   20.8430 C   0  0  0  0  0  0  0  0  0  0  0  0
  -26.2770  -12.9940   20.2650 N   0  0  0  0  0  0  0  0  0  0  0  0
  -25.9390  -11.7040   20.5250 N   0  0  0  0  0  0  0  0  0  0  0  0
  -23.9300  -10.4580   21.0210 C   0  0  0  0  0  0  0  0  0  0  0  0
  -24.3500   -9.4990   21.9690 C   0  0  0  0  0  3  0  0  0  0  0  0
  -23.6290   -8.2960   22.1380 C   0  0  0  0  0  3  0  0  0  0  0  0
  -22.4750   -8.0450   21.3580 C   0  0  0  0  0  0  0  0  0  0  0  0
  -22.0760   -8.9930   20.4000 C   0  0  0  0  0  3  0  0  0  0  0  0
  -22.7970  -10.1870   20.2290 C   0  0  0  0  0  3  0  0  0  0  0  0
  -21.7290   -6.8950   21.4350 O   0  0  0  0  0  0  0  0  0  0  0  0
  -21.6300   -6.1760   22.6010 C   0  0  0  0  0  0  0  0  0  0  0  0
  -21.1300   -6.7520   23.7890 C   0  0  0  0  0  3  0  0  0  0  0  0
  -20.9800   -5.9600   24.9450 C   0  0  0  0  0  3  0  0  0  0  0  0
  -21.3190   -4.5930   24.9120 C   0  0  0  0  0  0  0  0  0  0  0  0
  -21.8120   -4.0180   23.7280 C   0  0  0  0  0  3  0  0  0  0  0  0
  -21.9630   -4.8080   22.5750 C   0  0  0  0  0  0  0  0  0  0  0  0
  -22.4180   -4.2440   21.4300 F   0  0  0  0  0  0  0  0  0  0  0  0
  -21.1680   -3.8310   26.0210 F   0  0  0  0  0  0  0  0  0  0  0  0
  -22.7750  -13.5410   21.1670 C   0  0  0  0  0  0  0  0  0  0  0  0
  -22.0560  -12.8350   22.0330 N   0  0  0  0  0  0  0  0  0  0  0  0
  -22.3290  -14.5650   20.6530 O   0  0  0  0  0  0  0  0  0  0  0  0
  -22.4310  -12.0070   22.4710 H   0  0  0  0  0  0  0  0  0  0  0  0
  -21.1170  -13.1290   22.2630 H   0  0  0  0  0  0  0  0  0  0  0  0
  -25.3830  -15.2350   20.3540 N   0  0  0  0  0  0  0  0  0  0  0  0
  -24.6040  -15.8750   20.4630 H   0  0  0  0  0  0  0  0  0  0  0  0
  -26.2050  -15.6750   19.9660 H   0  0  0  0  0  0  0  0  0  0  0  0
  -26.9390  -24.3010   21.4900 C   0  0  0  0  0  1  0  0  0  0  0  0
  -27.8460  -24.5060   20.2620 C   0  0  0  0  0  3  0  0  0  0  0  0
  -28.2030  -26.0610   20.2260 O   0  0  0  0  0  0  0  0  0  0  0  0
  -24.6390  -31.8630   23.2190 C   0  0  0  0  0  0  0  0  0  0  0  0
  -27.1840  -27.1070   20.1610 C   0  0  0  0  0  0  0  0  0  0  0  0
  -23.4360  -30.4870   21.5680 C   0  0  0  0  0  3  0  0  0  0  0  0
  -24.8780  -28.9130   20.1310 C   0  0  0  0  0  0  0  0  0  0  0  0
  -25.9960  -30.7240   21.4150 C   0  0  0  0  0  2  0  0  0  0  0  0
  -26.0630  -29.3320   20.7500 C   0  0  0  0  0  0  0  0  0  0  0  0
  -27.2160  -28.4470   20.7470 C   0  0  0  0  0  3  0  0  0  0  0  0
  -25.9770  -26.8170   19.4870 C   0  0  0  0  0  3  0  0  0  0  0  0
  -24.8540  -27.6710   19.4810 C   0  0  0  0  0  3  0  0  0  0  0  0
  -23.6570  -29.8210   20.1850 C   0  0  0  0  0  2  0  0  0  0  0  0
  -24.7110  -31.0480   22.1220 N   0  0  0  0  0  0  0  0  0  0  0  0
  -23.5520  -32.1500   23.7460 O   0  0  0  0  0  0  0  0  0  0  0  0
  -22.7460  -29.4770   22.5220 C   0  0  0  0  0  0  0  0  0  0  0  0
  -21.4160  -29.3230   22.3990 N   0  0  0  0  0  0  0  0  0  0  0  0
  -23.4130  -28.8350   23.3380 O   0  0  0  0  0  0  0  0  0  0  0  0
  -20.9330  -29.8910   21.7170 H   0  0  0  0  0  0  0  0  0  0  0  0
  -18.0230  -28.1540   22.9130 C   0  0  0  0  0  0  0  0  0  0  0  0
  -20.5880  -28.3840   23.1630 C   0  0  0  0  0  3  0  0  0  0  0  0
  -20.6670  -26.9590   22.5690 C   0  0  0  0  0  2  0  0  0  0  0  0
  -19.5540  -26.6630   21.5590 C   0  0  0  0  0  2  0  0  0  0  0  0
  -18.1800  -26.8140   22.2160 C   0  0  0  0  0  2  0  0  0  0  0  0
  -19.1530  -28.8990   23.3440 C   0  0  0  0  0  0  0  0  0  0  0  0
  -18.9520  -30.1530   23.9600 C   0  0  0  0  0  3  0  0  0  0  0  0
  -17.6530  -30.6640   24.1460 C   0  0  0  0  0  3  0  0  0  0  0  0
  -16.5370  -29.9170   23.7300 C   0  0  0  0  0  3  0  0  0  0  0  0
  -16.7230  -28.6640   23.1190 C   0  0  0  0  0  3  0  0  0  0  0  0
  -25.9160  -32.4910   23.8540 C   0  0  0  0  0  3  0  0  0  0  0  0
  -25.6070  -33.8880   24.2000 N   0  0  0  0  0  0  0  0  0  0  0  0
  -25.9180  -34.9510   23.4460 C   0  0  0  0  0  0  0  0  0  0  0  0
  -26.5620  -34.8580   22.3970 O   0  0  0  0  0  0  0  0  0  0  0  0
  -25.0350  -34.0340   25.0180 H   0  0  0  0  0  0  0  0  0  0  0  0
  -24.1660  -36.7370   23.1750 C   0  0  0  0  0  1  0  0  0  0  0  0
  -25.4420  -36.3350   23.9310 C   0  0  0  0  0  3  0  0  0  0  0  0
  -27.6040  -37.2320   24.6750 C   0  0  0  0  0  1  0  0  0  0  0  0
  -26.4620  -37.3970   23.7800 N   0  0  0  0  0  0  0  0  0  0  0  0
  -26.0550  -38.3130   23.9520 H   0  0  0  0  0  0  0  0  0  0  0  0
  -26.4200  -31.7100   25.1300 C   0  0  1  0  0  0  0  0  0  0  0  0
  -25.3190  -31.4750   26.1920 C   0  0  0  0  0  1  0  0  0  0  0  0
  -26.9970  -30.3300   24.7410 C   0  0  0  0  0  1  0  0  0  0  0  0
  -27.5720  -32.4940   25.8020 C   0  0  0  0  0  1  0  0  0  0  0  0
  1  2  1  0
  2  4  1  0
  2  9  1  0
  3  1  2  0
  5  7  1  0
  6  9  1  0
  6  5  2  0
  7 10  2  0
  8 10  1  0
  8 11  1  0
  9  8  2  0
 10 20  1  0
 12 20  1  0
 13 18  1  0
 14 15  1  0
 14 13  1  0
 16 15  1  0
 16 25  1  0
 16 17  1  0
 18 12  1  0
 18 17  1  0
 19 12  2  0
 20 21  1  0
 22 23  2  0
 23 42  1  0
 24 23  1  0
 24 27  1  0
 25 22  1  0
 25 26  1  0
 26 24  2  0
 27 28  1  0
 28 29  2  0
 30 33  1  0
 30 29  1  0
 31 30  2  0
 32 31  1  0
 32 27  2  0
 33 34  1  0
 34 35  1  0
 35 36  2  0
 37 36  1  0
 37 41  1  0
 38 37  2  0
 39 34  2  0
 39 38  1  0
 40 39  1  0
 42 43  1  0
 43 46  1  0
 43 45  1  0
 44 42  2  0
 47 48  1  0
 47 22  1  0
 49 47  1  0
 51  1  1  0
 51 50  1  0
 52 51  1  0
 53 64  2  0
 54 52  1  0
 54 59  1  0
 55 63  1  0
 55 65  1  0
 56 62  1  0
 56 58  1  0
 57 63  1  0
 58 57  1  0
 59 58  2  0
 60 54  2  0
 61 60  1  0
 61 56  2  0
 62 55  1  0
 63 53  1  0
 65 67  2  0
 66 65  1  0
 68 66  1  0
 69 78  2  0
 69 74  1  0
 70 66  1  0
 70 74  1  0
 71 70  1  0
 72 73  1  0
 72 71  1  0
 73 69  1  0
 74 75  2  0
 75 76  1  0
 77 76  2  0
 78 77  1  0
 79 53  1  0
 79 80  1  0
 79 89  1  0
 80 83  1  0
 81 85  1  0
 81 80  1  0
 82 81  2  0
 85 84  1  0
 87 85  1  0
 87 88  1  0
 87 86  1  0
 89 92  1  1
 89 90  1  0
 91 89  1  0
M  ISO  4  12 100  20 100  51 101  52 101
M  END
>  <TORSDO>  (8) 
F 18

>  <SCORE>  (8) 
-14.715

>  <name>  (8) 
7

>  <ligand_id>  (8) 
7

>  <original_smiles>  (8) 
[H]c1c([H])c(N([H])C(=O)N2C([H])([H])C([H])([H])C([H])([H])C([H])(n3nc(-c4c([H])c([H])c(Oc5c([H])c([H])c(F)c([H])c5F)c([H])c4[H])c(C(=O)N([H])[H])c3N([H])[H])C2([H])[H])c(C([H])([H])[H])c(N([H])C(=O)C([H])(Oc2c([H])c([H])c3c(c2[H])C([H])([H])N(C(=O)C([H])(N([H])C(=O)C([H])(N([H])C([H])([H])[H])C([H])([H])[H])C(C([H])([H])[H])(C([H])([H])[H])C([H])([H])[H])C([H])(C(=O)N([H])C2([H])c4c([H])c([H])c([H])c([H])c4C([H])([H])C([H])([H])C2([H])[H])C3([H])[H])C([H])([H])[H])c1[H]

>  <smiles>  (8) 
[H]c1c([H])c(N([H])C(=O)N2C([H])([H])C([H])([H])C([H])([H])C([H])(n3nc(-c4c([H])c([H])c(Oc5c([H])c([H])c(F)c([H])c5F)c([H])c4[H])c(C(=O)N([H])[H])c3N([H])[H])C2([H])[H])c(C([H])([H])[H])c(N([H])C(=O)C([H])(Oc2c([H])c([H])c3c(c2[H])C([H])([H])N(C(=O)C([H])(N([H])C(=O)C([H])(N([H])C([H])([H])[H])C([H])([H])[H])C(C([H])([H])[H])(C([H])([H])[H])C([H])([H])[H])C([H])(C(=O)N([H])C2([H])c4c([H])c([H])c([H])c([H])c4C([H])([H])C([H])([H])C2([H])[H])C3([H])[H])C([H])([H])[H])c1[H]

$$$$
8:0:0
     RDKit          3D

 91 99  0  0  1  0  0  0  0  0999 V2000
  -28.8600  -22.5150   20.9250 C   0  0  0  0  0  0  0  0  0  0  0  0
  -29.0800  -21.3190   20.2280 N   0  0  0  0  0  0  0  0  0  0  0  0
  -28.7500  -22.4660   22.1510 O   0  0  0  0  0  0  0  0  0  0  0  0
  -28.9010  -21.3740   19.2350 H   0  0  0  0  0  0  0  0  0  0  0  0
  -31.6940  -19.0470   21.7930 C   0  0  0  0  0  3  0  0  0  0  0  0
  -30.9240  -20.1660   21.4190 C   0  0  0  0  0  3  0  0  0  0  0  0
  -31.3090  -17.7310   21.4660 C   0  0  0  0  0  3  0  0  0  0  0  0
  -29.3430  -18.6490   20.3650 C   0  0  0  0  0  3  0  0  0  0  0  0
  -29.7220  -20.0350   20.6880 C   0  0  0  0  0  0  0  0  0  0  0  0
  -30.1270  -17.4580   20.7410 C   0  0  0  0  0  0  0  0  0  0  0  0
  -30.5530  -14.8610   20.3460 C   0  0  0  0  0  0  0  0  0  0  0  0
  -30.3770  -12.5680   19.3210 C   0  0  0  0  0  2  0  0  0  0  0  0
  -29.4260  -12.5990   18.1040 C   0  0  0  0  0  2  0  0  0  0  0  0
  -27.9660  -12.3950   18.5520 C   0  0  0  0  0  2  0  0  0  0  0  0
  -27.5860  -13.2890   19.7630 C   0  0  0  0  0  3  0  0  0  0  0  0
  -28.6550  -13.2440   20.8750 C   0  0  0  0  0  2  0  0  0  0  0  0
  -29.9310  -13.6290   20.2600 N   0  0  0  0  0  0  0  0  0  0  0  0
  -31.7510  -14.9370   20.0520 O   0  0  0  0  0  0  0  0  0  0  0  0
  -29.7690  -16.0160   20.5000 N   0  0  0  0  0  0  0  0  0  0  0  0
  -28.7780  -15.8280   20.4810 H   0  0  0  0  0  0  0  0  0  0  0  0
  -25.2070  -13.8610   20.5240 C   0  0  0  0  0  0  0  0  0  0  0  0
  -24.1500  -13.0800   20.9030 C   0  0  0  0  0  0  0  0  0  0  0  0
  -24.6210  -11.7320   20.8610 C   0  0  0  0  0  0  0  0  0  0  0  0
  -26.2520  -12.9880   20.2690 N   0  0  0  0  0  0  0  0  0  0  0  0
  -25.9070  -11.7030   20.5370 N   0  0  0  0  0  0  0  0  0  0  0  0
  -23.9030  -10.4650   21.0500 C   0  0  0  0  0  0  0  0  0  0  0  0
  -24.3400   -9.4980   21.9810 C   0  0  0  0  0  3  0  0  0  0  0  0
  -23.6210   -8.2970   22.1590 C   0  0  0  0  0  3  0  0  0  0  0  0
  -22.4500   -8.0530   21.4040 C   0  0  0  0  0  0  0  0  0  0  0  0
  -22.0300   -9.0080   20.4620 C   0  0  0  0  0  3  0  0  0  0  0  0
  -22.7490  -10.2010   20.2810 C   0  0  0  0  0  3  0  0  0  0  0  0
  -21.7020   -6.9040   21.4910 O   0  0  0  0  0  0  0  0  0  0  0  0
  -21.6520   -6.1620   22.6440 C   0  0  0  0  0  0  0  0  0  0  0  0
  -21.2060   -6.7120   23.8650 C   0  0  0  0  0  3  0  0  0  0  0  0
  -21.1050   -5.8960   25.0100 C   0  0  0  0  0  3  0  0  0  0  0  0
  -21.4420   -4.5320   24.9340 C   0  0  0  0  0  0  0  0  0  0  0  0
  -21.8830   -3.9820   23.7180 C   0  0  0  0  0  3  0  0  0  0  0  0
  -21.9850   -4.7950   22.5750 C   0  0  0  0  0  0  0  0  0  0  0  0
  -22.3900   -4.2550   21.4000 F   0  0  0  0  0  0  0  0  0  0  0  0
  -21.3400   -3.7450   26.0300 F   0  0  0  0  0  0  0  0  0  0  0  0
  -22.7530  -13.5490   21.1880 C   0  0  0  0  0  0  0  0  0  0  0  0
  -22.0350  -12.8420   22.0550 N   0  0  0  0  0  0  0  0  0  0  0  0
  -22.3070  -14.5770   20.6790 O   0  0  0  0  0  0  0  0  0  0  0  0
  -22.4090  -12.0110   22.4880 H   0  0  0  0  0  0  0  0  0  0  0  0
  -21.0980  -13.1390   22.2880 H   0  0  0  0  0  0  0  0  0  0  0  0
  -25.3590  -15.2340   20.3490 N   0  0  0  0  0  0  0  0  0  0  0  0
  -24.5770  -15.8720   20.4490 H   0  0  0  0  0  0  0  0  0  0  0  0
  -26.1830  -15.6790   19.9690 H   0  0  0  0  0  0  0  0  0  0  0  0
  -28.7780  -23.8460   20.1870 C   0  0  0  0  0  3  0  0  0  0  0  0
  -28.2330  -25.0330   20.6990 C   0  0  0  0  0  3  0  0  0  0  0  0
  -28.3060  -26.3720   20.1780 O   0  0  0  0  0  0  0  0  0  0  0  0
  -24.6050  -31.9080   23.2360 C   0  0  0  0  0  0  0  0  0  0  0  0
  -27.2070  -27.2680   20.2210 C   0  0  0  0  0  0  0  0  0  0  0  0
  -23.4040  -30.5020   21.6020 C   0  0  0  0  0  3  0  0  0  0  0  0
  -24.8540  -28.9300   20.1890 C   0  0  0  0  0  0  0  0  0  0  0  0
  -25.9490  -30.7990   21.4230 C   0  0  0  0  0  2  0  0  0  0  0  0
  -26.0270  -29.4080   20.7880 C   0  0  0  0  0  0  0  0  0  0  0  0
  -27.2080  -28.5910   20.7900 C   0  0  0  0  0  3  0  0  0  0  0  0
  -26.0100  -26.8570   19.6020 C   0  0  0  0  0  3  0  0  0  0  0  0
  -24.8510  -27.6620   19.5850 C   0  0  0  0  0  3  0  0  0  0  0  0
  -23.6240  -29.8180   20.2260 C   0  0  0  0  0  2  0  0  0  0  0  0
  -24.6730  -31.0890   22.1440 N   0  0  0  0  0  0  0  0  0  0  0  0
  -23.5200  -32.1890   23.7670 O   0  0  0  0  0  0  0  0  0  0  0  0
  -22.7330  -29.4930   22.5670 C   0  0  0  0  0  0  0  0  0  0  0  0
  -21.4060  -29.3170   22.4390 N   0  0  0  0  0  0  0  0  0  0  0  0
  -23.4080  -28.8710   23.3920 O   0  0  0  0  0  0  0  0  0  0  0  0
  -20.9180  -29.8730   21.7510 H   0  0  0  0  0  0  0  0  0  0  0  0
  -18.0270  -28.1190   22.9380 C   0  0  0  0  0  0  0  0  0  0  0  0
  -20.5860  -28.3820   23.2120 C   0  0  0  0  0  3  0  0  0  0  0  0
  -20.6900  -26.9480   22.6430 C   0  0  0  0  0  2  0  0  0  0  0  0
  -19.5910  -26.6200   21.6290 C   0  0  0  0  0  2  0  0  0  0  0  0
  -18.2070  -26.7650   22.2700 C   0  0  0  0  0  2  0  0  0  0  0  0
  -19.1450  -28.8840   23.3670 C   0  0  0  0  0  0  0  0  0  0  0  0
  -18.9210  -30.1490   23.9520 C   0  0  0  0  0  3  0  0  0  0  0  0
  -17.6150  -30.6490   24.1140 C   0  0  0  0  0  3  0  0  0  0  0  0
  -16.5140  -29.8790   23.7020 C   0  0  0  0  0  3  0  0  0  0  0  0
  -16.7200  -28.6160   23.1190 C   0  0  0  0  0  3  0  0  0  0  0  0
  -25.8850  -32.5450   23.8590 C   0  0  0  0  0  3  0  0  0  0  0  0
  -26.3950  -31.7820   25.1430 C   0  0  1  0  0  0  0  0  0  0  0  0
  -25.2970  -31.5570   26.2090 C   0  0  0  0  0  1  0  0  0  0  0  0
  -26.9760  -30.4010   24.7640 C   0  0  0  0  0  1  0  0  0  0  0  0
  -27.5450  -32.5780   25.8020 C   0  0  0  0  0  1  0  0  0  0  0  0
  -25.5750  -33.9450   24.1810 N   0  0  0  0  0  0  0  0  0  0  0  0
  -25.9110  -34.9960   23.4210 C   0  0  0  0  0  0  0  0  0  0  0  0
  -26.5830  -34.8890   22.3920 O   0  0  0  0  0  0  0  0  0  0  0  0
  -24.9800  -34.1020   24.9810 H   0  0  0  0  0  0  0  0  0  0  0  0
  -24.1920  -36.7960   23.0520 C   0  0  0  0  0  1  0  0  0  0  0  0
  -25.4260  -36.3880   23.8730 C   0  0  0  0  0  3  0  0  0  0  0  0
  -27.5550  -37.2680   24.7230 C   0  0  0  0  0  1  0  0  0  0  0  0
  -26.4640  -37.4360   23.7660 N   0  0  0  0  0  0  0  0  0  0  0  0
  -26.0590  -38.3580   23.9060 H   0  0  0  0  0  0  0  0  0  0  0  0
  1  3  2  0
  2  9  1  0
  2  1  1  0
  4  2  1  0
  6  5  2  0
  7  5  1  0
  8  9  2  0
  8 10  1  0
  9  6  1  0
 10  7  2  0
 11 19  1  0
 12 17  1  0
 13 14  1  0
 13 12  1  0
 15 14  1  0
 15 24  1  0
 15 16  1  0
 17 11  1  0
 17 16  1  0
 18 11  2  0
 19 10  1  0
 20 19  1  0
 21 22  2  0
 22 41  1  0
 23 22  1  0
 23 26  1  0
 24 21  1  0
 24 25  1  0
 25 23  2  0
 26 27  1  0
 27 28  2  0
 29 32  1  0
 29 28  1  0
 30 29  2  0
 31 30  1  0
 31 26  2  0
 32 33  1  0
 33 34  1  0
 34 35  2  0
 36 35  1  0
 36 40  1  0
 37 36  2  0
 38 33  2  0
 38 37  1  0
 39 38  1  0
 41 42  1  0
 42 45  1  0
 42 44  1  0
 43 41  2  0
 46 47  1  0
 46 21  1  0
 48 46  1  0
 49 50  2  0
 49  1  1  0
 51 53  1  0
 51 50  1  0
 52 63  2  0
 53 58  1  0
 54 62  1  0
 54 64  1  0
 55 61  1  0
 55 57  1  0
 56 62  1  0
 57 58  2  0
 57 56  1  0
 59 53  2  0
 60 59  1  0
 60 55  2  0
 61 54  1  0
 62 52  1  0
 64 66  2  0
 65 64  1  0
 67 65  1  0
 68 77  2  0
 68 73  1  0
 69 65  1  0
 69 73  1  0
 70 69  1  0
 71 72  1  0
 71 70  1  0
 72 68  1  0
 73 74  2  0
 74 75  1  0
 76 75  2  0
 77 76  1  0
 78 52  1  0
 78 83  1  0
 78 79  1  0
 79 82  1  1
 79 80  1  0
 81 79  1  0
 83 86  1  0
 84 88  1  0
 84 83  1  0
 85 84  2  0
 88 87  1  0
 90 88  1  0
 90 91  1  0
 90 89  1  0
M  ISO  4  11 100  19 100  50 101  51 101
M  END
>  <TORSDO>  (9) 
F 18

>  <SCORE>  (9) 
-14.949

>  <name>  (9) 
8

>  <ligand_id>  (9) 
8

>  <original_smiles>  (9) 
[H]C(Oc1c([H])c([H])c2c(c1[H])C([H])([H])N(C(=O)C([H])(N([H])C(=O)C([H])(N([H])C([H])([H])[H])C([H])([H])[H])C(C([H])([H])[H])(C([H])([H])[H])C([H])([H])[H])C([H])(C(=O)N([H])C1([H])c3c([H])c([H])c([H])c([H])c3C([H])([H])C([H])([H])C1([H])[H])C2([H])[H])=C([H])C(=O)N([H])c1c([H])c([H])c([H])c(N([H])C(=O)N2C([H])([H])C([H])([H])C([H])([H])C([H])(n3nc(-c4c([H])c([H])c(Oc5c([H])c([H])c(F)c([H])c5F)c([H])c4[H])c(C(=O)N([H])[H])c3N([H])[H])C2([H])[H])c1[H]

>  <smiles>  (9) 
[H]C(Oc1c([H])c([H])c2c(c1[H])C([H])([H])N(C(=O)C([H])(N([H])C(=O)C([H])(N([H])C([H])([H])[H])C([H])([H])[H])C(C([H])([H])[H])(C([H])([H])[H])C([H])([H])[H])C([H])(C(=O)N([H])C1([H])c3c([H])c([H])c([H])c([H])c3C([H])([H])C([H])([H])C1([H])[H])C2([H])[H])=C([H])C(=O)N([H])c1c([H])c([H])c([H])c(N([H])C(=O)N2C([H])([H])C([H])([H])C([H])([H])C([H])(n3nc(-c4c([H])c([H])c(Oc5c([H])c([H])c(F)c([H])c5F)c([H])c4[H])c(C(=O)N([H])[H])c3N([H])[H])C2([H])[H])c1[H]

$$$$
9:0:0
     RDKit          3D

101111  0  0  1  0  0  0  0  0999 V2000
  -29.6900  -19.6690   21.7460 C   0  0  0  0  0  3  0  0  0  0  0  0
  -29.9170  -18.2660   21.8840 C   0  0  0  0  0  3  0  0  0  0  0  0
  -30.6380  -19.5970   19.5400 C   0  0  0  0  0  3  0  0  0  0  0  0
  -30.0260  -20.3810   20.5620 C   0  0  0  0  0  0  0  0  0  0  0  0
  -30.8570  -18.1750   19.6650 C   0  0  0  0  0  0  0  0  0  0  0  0
  -30.4910  -17.4770   20.8540 C   0  0  0  0  0  0  0  0  0  0  0  0
  -31.2400  -15.0090   20.4730 C   0  0  0  0  0  0  0  0  0  0  0  0
  -31.0370  -12.8540   19.2340 C   0  0  0  0  0  2  0  0  0  0  0  0
  -30.1170  -13.0720   18.0130 C   0  0  0  0  0  2  0  0  0  0  0  0
  -28.6200  -12.9930   18.3960 C   0  0  0  0  0  2  0  0  0  0  0  0
  -28.2690  -13.7180   19.7210 C   0  0  0  0  0  3  0  0  0  0  0  0
  -29.3070  -13.4190   20.8270 C   0  0  0  0  0  2  0  0  0  0  0  0
  -30.6270  -13.7930   20.2980 N   0  0  0  0  0  0  0  0  0  0  0  0
  -32.4160  -15.1850   20.1350 O   0  0  0  0  0  0  0  0  0  0  0  0
  -30.4350  -16.0120   20.9480 N   0  0  0  0  0  0  0  0  0  0  0  0
  -29.5290  -15.6680   21.2300 H   0  0  0  0  0  0  0  0  0  0  0  0
  -25.8550  -14.3080   20.3750 C   0  0  0  0  0  0  0  0  0  0  0  0
  -24.7730  -13.5370   20.6990 C   0  0  0  0  0  0  0  0  0  0  0  0
  -25.2290  -12.1850   20.6750 C   0  0  0  0  0  0  0  0  0  0  0  0
  -26.9040  -13.4290   20.1580 N   0  0  0  0  0  0  0  0  0  0  0  0
  -26.5290  -12.1470   20.4030 N   0  0  0  0  0  0  0  0  0  0  0  0
  -24.4970  -10.9230   20.8450 C   0  0  0  0  0  0  0  0  0  0  0  0
  -24.8980   -9.9610   21.8010 C   0  0  0  0  0  3  0  0  0  0  0  0
  -24.1690   -8.7630   21.9550 C   0  0  0  0  0  3  0  0  0  0  0  0
  -23.0290   -8.5170   21.1530 C   0  0  0  0  0  0  0  0  0  0  0  0
  -22.6530   -9.4660   20.1890 C   0  0  0  0  0  3  0  0  0  0  0  0
  -23.3780  -10.6570   20.0300 C   0  0  0  0  0  3  0  0  0  0  0  0
  -22.2850   -7.3640   21.2060 O   0  0  0  0  0  0  0  0  0  0  0  0
  -22.1330   -6.6590   22.3740 C   0  0  0  0  0  0  0  0  0  0  0  0
  -21.6470   -7.2650   23.5520 C   0  0  0  0  0  3  0  0  0  0  0  0
  -21.4390   -6.4900   24.7090 C   0  0  0  0  0  3  0  0  0  0  0  0
  -21.7070   -5.1090   24.6910 C   0  0  0  0  0  0  0  0  0  0  0  0
  -22.1940   -4.5020   23.5190 C   0  0  0  0  0  3  0  0  0  0  0  0
  -22.4040   -5.2750   22.3620 C   0  0  0  0  0  0  0  0  0  0  0  0
  -22.8460   -4.6800   21.2290 F   0  0  0  0  0  0  0  0  0  0  0  0
  -21.5040   -4.3640   25.8050 F   0  0  0  0  0  0  0  0  0  0  0  0
  -23.3640  -14.0210   20.9220 C   0  0  0  0  0  0  0  0  0  0  0  0
  -22.6120  -13.3430   21.7830 N   0  0  0  0  0  0  0  0  0  0  0  0
  -22.9400  -15.0330   20.3730 O   0  0  0  0  0  0  0  0  0  0  0  0
  -22.9670  -12.5320   22.2670 H   0  0  0  0  0  0  0  0  0  0  0  0
  -21.6610  -13.6450   21.9560 H   0  0  0  0  0  0  0  0  0  0  0  0
  -26.0370  -15.6790   20.2120 N   0  0  0  0  0  0  0  0  0  0  0  0
  -25.2920  -16.3500   20.3260 H   0  0  0  0  0  0  0  0  0  0  0  0
  -26.9000  -16.0990   19.8980 H   0  0  0  0  0  0  0  0  0  0  0  0
  -28.0820  -23.4410   19.4890 C   0  0  0  0  0  0  0  0  0  0  0  0
  -30.2390  -22.9450   20.2210 C   0  0  0  0  0  0  0  0  0  0  0  0
  -28.1500  -21.9700   19.9100 C   0  0  0  0  0  2  0  0  0  0  0  0
  -29.4850  -24.0640   19.3910 C   0  0  1  0  0  0  0  0  0  0  0  0
  -30.0410  -23.8350   17.9410 C   0  0  0  0  0  1  0  0  0  0  0  0
  -29.5460  -21.7570   20.3120 N   0  0  0  0  0  0  0  0  0  0  0  0
  -27.0180  -24.0020   19.1970 O   0  0  0  0  0  0  0  0  0  0  0  0
  -31.3820  -23.1190   20.6700 O   0  0  0  0  0  0  0  0  0  0  0  0
  -29.6650  -25.6990   19.5410 C   0  0  0  0  0  2  0  0  0  0  0  0
  -29.2300  -26.7000   20.5550 O   0  0  0  0  0  0  0  0  0  0  0  0
  -24.8550  -31.8150   23.2280 C   0  0  0  0  0  0  0  0  0  0  0  0
  -28.0770  -27.4940   20.3760 C   0  0  0  0  0  0  0  0  0  0  0  0
  -23.9160  -30.3460   21.4830 C   0  0  0  0  0  3  0  0  0  0  0  0
  -25.6080  -28.9430   20.1680 C   0  0  0  0  0  0  0  0  0  0  0  0
  -26.4320  -30.8570   21.5350 C   0  0  0  0  0  2  0  0  0  0  0  0
  -26.6730  -29.4930   20.8920 C   0  0  0  0  0  0  0  0  0  0  0  0
  -27.8990  -28.7670   21.0110 C   0  0  0  0  0  3  0  0  0  0  0  0
  -26.9920  -27.0130   19.6100 C   0  0  0  0  0  3  0  0  0  0  0  0
  -25.7730  -27.7120   19.5170 C   0  0  0  0  0  3  0  0  0  0  0  0
  -24.3080  -29.7200   20.1150 C   0  0  0  0  0  2  0  0  0  0  0  0
  -25.0790  -31.0270   22.1380 N   0  0  0  0  0  0  0  0  0  0  0  0
  -23.7120  -32.0000   23.6690 O   0  0  0  0  0  0  0  0  0  0  0  0
  -23.2660  -29.2610   22.3760 C   0  0  0  0  0  0  0  0  0  0  0  0
  -21.9590  -29.0120   22.1800 N   0  0  0  0  0  0  0  0  0  0  0  0
  -23.9380  -28.6480   23.2100 O   0  0  0  0  0  0  0  0  0  0  0  0
  -21.4720  -29.5670   21.4920 H   0  0  0  0  0  0  0  0  0  0  0  0
  -18.6210  -27.6590   22.5190 C   0  0  0  0  0  0  0  0  0  0  0  0
  -21.1580  -28.0090   22.8860 C   0  0  0  0  0  3  0  0  0  0  0  0
  -21.3370  -26.6080   22.2540 C   0  0  0  0  0  2  0  0  0  0  0  0
  -20.2820  -26.2850   21.1900 C   0  0  0  0  0  2  0  0  0  0  0  0
  -18.8740  -26.3490   21.7900 C   0  0  0  0  0  2  0  0  0  0  0  0
  -19.6920  -28.4450   23.0200 C   0  0  0  0  0  0  0  0  0  0  0  0
  -19.4020  -29.6690   23.6600 C   0  0  0  0  0  3  0  0  0  0  0  0
  -18.0720  -30.1080   23.8020 C   0  0  0  0  0  3  0  0  0  0  0  0
  -17.0150  -29.3190   23.3180 C   0  0  0  0  0  3  0  0  0  0  0  0
  -17.2890  -28.0940   22.6830 C   0  0  0  0  0  3  0  0  0  0  0  0
  -26.0240  -32.5480   23.9570 C   0  0  0  0  0  3  0  0  0  0  0  0
  -26.4790  -31.8250   25.2840 C   0  0  1  0  0  0  0  0  0  0  0  0
  -25.3100  -31.4900   26.2410 C   0  0  0  0  0  1  0  0  0  0  0  0
  -27.2200  -30.5080   24.9600 C   0  0  0  0  0  1  0  0  0  0  0  0
  -27.4830  -32.7200   26.0490 C   0  0  0  0  0  1  0  0  0  0  0  0
  -25.5790  -33.9190   24.2440 N   0  0  0  0  0  0  0  0  0  0  0  0
  -25.8890  -34.9930   23.5060 C   0  0  0  0  0  0  0  0  0  0  0  0
  -26.6480  -34.9390   22.5350 O   0  0  0  0  0  0  0  0  0  0  0  0
  -24.9040  -34.0250   24.9880 H   0  0  0  0  0  0  0  0  0  0  0  0
  -24.0560  -36.6400   23.0040 C   0  0  0  0  0  1  0  0  0  0  0  0
  -25.2590  -36.3390   23.9110 C   0  0  0  0  0  3  0  0  0  0  0  0
  -27.2540  -37.3870   24.8820 C   0  0  0  0  0  1  0  0  0  0  0  0
  -26.2090  -37.4700   23.8680 N   0  0  0  0  0  0  0  0  0  0  0  0
  -25.7220  -38.3530   23.9880 H   0  0  0  0  0  0  0  0  0  0  0  0
  -31.3050  -16.7930   16.2140 C   0  0  0  0  0  2  0  0  0  0  0  0
  -32.8340  -16.9350   16.1090 C   0  0  0  0  0  2  0  0  0  0  0  0
  -30.7390  -17.7170   17.3030 C   0  0  0  0  0  2  0  0  0  0  0  0
  -32.8440  -17.5630   18.5720 C   0  0  0  0  0  2  0  0  0  0  0  0
  -33.4990  -16.6980   17.4800 C   0  0  0  0  0  3  0  0  0  0  0  0
  -35.0050  -16.9970   17.4600 C   0  0  0  0  0  1  0  0  0  0  0  0
  -31.3920  -17.4500   18.5870 N   0  0  0  0  0  0  0  0  0  0  0  0
  1  2  1  0
  3  5  2  0
  3  4  1  0
  4  1  2  0
  5  6  1  0
  6 15  1  0
  6  2  2  0
  7 15  1  0
  8 13  1  0
  9 10  1  0
  9  8  1  0
 11 10  1  0
 11 20  1  0
 11 12  1  0
 13  7  1  0
 13 12  1  0
 14  7  2  0
 15 16  1  0
 17 18  2  0
 18 37  1  0
 19 18  1  0
 19 22  1  0
 20 17  1  0
 20 21  1  0
 21 19  2  0
 22 23  1  0
 23 24  2  0
 25 28  1  0
 25 24  1  0
 26 25  2  0
 27 26  1  0
 27 22  2  0
 28 29  1  0
 29 30  1  0
 30 31  2  0
 32 31  1  0
 32 36  1  0
 33 32  2  0
 34 29  2  0
 34 33  1  0
 35 34  1  0
 37 38  1  0
 38 41  1  0
 38 40  1  0
 39 37  2  0
 42 43  1  0
 42 17  1  0
 44 42  1  0
 45 47  1  0
 46 50  1  0
 46 52  2  0
 47 50  1  0
 48 49  1  6
 48 45  1  0
 48 53  1  0
 48 46  1  0
 50  4  1  0
 51 45  2  0
 53 54  1  0
 55 66  2  0
 56 54  1  0
 56 61  1  0
 57 65  1  0
 57 67  1  0
 58 60  1  0
 59 65  1  0
 60 61  2  0
 60 59  1  0
 62 56  2  0
 63 62  1  0
 63 58  2  0
 64 58  1  0
 64 57  1  0
 65 55  1  0
 67 69  2  0
 68 67  1  0
 70 68  1  0
 71 80  2  0
 71 76  1  0
 72 68  1  0
 72 76  1  0
 73 72  1  0
 74 75  1  0
 74 73  1  0
 75 71  1  0
 76 77  2  0
 77 78  1  0
 79 78  2  0
 80 79  1  0
 81 55  1  0
 81 86  1  0
 81 82  1  0
 82 85  1  1
 82 83  1  0
 84 82  1  0
 86 89  1  0
 87 91  1  0
 87 86  1  0
 88 87  2  0
 91 90  1  0
 93 91  1  0
 93 94  1  0
 93 92  1  0
 95 97  1  0
 96 95  1  0
 96 99  1  0
 97101  1  0
 98101  1  0
 99100  1  0
 99 98  1  0
101  5  1  0
M  ISO  4   7 100  15 100  53 101  54 101
M  END
>  <TORSDO>  (10) 
F 19

>  <SCORE>  (10) 
-11.966

>  <name>  (10) 
9

>  <ligand_id>  (10) 
9

>  <original_smiles>  (10) 
[H]c1c([H])c([H])c2c(c1[H])C([H])([H])C([H])([H])C([H])([H])C2([H])N([H])C(=O)C1([H])N(C(=O)C([H])(N([H])C(=O)C([H])(N([H])C([H])([H])[H])C([H])([H])[H])C(C([H])([H])[H])(C([H])([H])[H])C([H])([H])[H])C([H])([H])c2c([H])c(OC([H])([H])C3(C([H])([H])[H])C(=O)N(c4c([H])c([H])c(N([H])C(=O)N5C([H])([H])C([H])([H])C([H])([H])C([H])(n6nc(-c7c([H])c([H])c(Oc8c([H])c([H])c(F)c([H])c8F)c([H])c7[H])c(C(=O)N([H])[H])c6N([H])[H])C5([H])[H])c(N5C([H])([H])C([H])([H])C([H])([H])C([H])(C([H])([H])[H])C5([H])[H])c4[H])C([H])([H])C3=O)c([H])c([H])c2C1([H])[H]

>  <smiles>  (10) 
[H]c1c([H])c([H])c2c(c1[H])C([H])([H])C([H])([H])C([H])([H])C2([H])N([H])C(=O)C1([H])N(C(=O)C([H])(N([H])C(=O)C([H])(N([H])C([H])([H])[H])C([H])([H])[H])C(C([H])([H])[H])(C([H])([H])[H])C([H])([H])[H])C([H])([H])c2c([H])c(OC([H])([H])C3(C([H])([H])[H])C(=O)N(c4c([H])c([H])c(N([H])C(=O)N5C([H])([H])C([H])([H])C([H])([H])C([H])(n6nc(-c7c([H])c([H])c(Oc8c([H])c([H])c(F)c([H])c8F)c([H])c7[H])c(C(=O)N([H])[H])c6N([H])[H])C5([H])[H])c(N5C([H])([H])C([H])([H])C([H])([H])C([H])(C([H])([H])[H])C5([H])[H])c4[H])C([H])([H])C3=O)c([H])c([H])c2C1([H])[H]

$$$$
10:0:0
     RDKit          3D

 97106  0  0  1  0  0  0  0  0999 V2000
  -31.6080  -17.9050   20.9200 C   0  0  0  0  0  3  0  0  0  0  0  0
  -29.4080  -18.7090   20.2830 C   0  0  0  0  0  3  0  0  0  0  0  0
  -32.0490  -19.2400   21.0210 C   0  0  0  0  0  0  0  0  0  0  0  0
  -29.8160  -20.1170   20.3710 C   0  0  0  0  0  0  0  0  0  0  0  0
  -30.2900  -17.5730   20.5470 C   0  0  0  0  0  0  0  0  0  0  0  0
  -31.1700  -20.3150   20.7630 C   0  0  0  0  0  0  0  0  0  0  0  0
  -31.6750  -21.5610   20.9080 F   0  0  0  0  0  0  0  0  0  0  0  0
  -30.6900  -14.9810   20.4390 C   0  0  0  0  0  0  0  0  0  0  0  0
  -30.5750  -12.6410   19.5720 C   0  0  0  0  0  2  0  0  0  0  0  0
  -29.6850  -12.6020   18.3130 C   0  0  0  0  0  2  0  0  0  0  0  0
  -28.2070  -12.4060   18.7030 C   0  0  0  0  0  2  0  0  0  0  0  0
  -27.7580  -13.3580   19.8430 C   0  0  0  0  0  3  0  0  0  0  0  0
  -28.7780  -13.3950   21.0030 C   0  0  0  0  0  2  0  0  0  0  0  0
  -30.0810  -13.7470   20.4240 N   0  0  0  0  0  0  0  0  0  0  0  0
  -31.8890  -15.0550   20.1610 O   0  0  0  0  0  0  0  0  0  0  0  0
  -29.9030  -16.1310   20.5090 N   0  0  0  0  0  0  0  0  0  0  0  0
  -28.9120  -15.9470   20.5350 H   0  0  0  0  0  0  0  0  0  0  0  0
  -25.3460  -13.9140   20.5120 C   0  0  0  0  0  0  0  0  0  0  0  0
  -24.2840  -13.1250   20.8620 C   0  0  0  0  0  0  0  0  0  0  0  0
  -24.7700  -11.7820   20.8560 C   0  0  0  0  0  0  0  0  0  0  0  0
  -26.4100  -13.0510   20.3070 N   0  0  0  0  0  0  0  0  0  0  0  0
  -26.0690  -11.7650   20.5800 N   0  0  0  0  0  0  0  0  0  0  0  0
  -24.0590  -10.5080   21.0390 C   0  0  0  0  0  0  0  0  0  0  0  0
  -24.4750   -9.5630   22.0020 C   0  0  0  0  0  3  0  0  0  0  0  0
  -23.7650   -8.3550   22.1720 C   0  0  0  0  0  3  0  0  0  0  0  0
  -22.6260   -8.0840   21.3780 C   0  0  0  0  0  0  0  0  0  0  0  0
  -22.2300   -9.0180   20.4050 C   0  0  0  0  0  3  0  0  0  0  0  0
  -22.9410  -10.2180   20.2320 C   0  0  0  0  0  3  0  0  0  0  0  0
  -21.8890   -6.9270   21.4560 O   0  0  0  0  0  0  0  0  0  0  0  0
  -21.7910   -6.2130   22.6230 C   0  0  0  0  0  0  0  0  0  0  0  0
  -21.2590   -6.7810   23.8010 C   0  0  0  0  0  3  0  0  0  0  0  0
  -21.1120   -5.9920   24.9600 C   0  0  0  0  0  3  0  0  0  0  0  0
  -21.4860   -4.6350   24.9390 C   0  0  0  0  0  0  0  0  0  0  0  0
  -22.0090   -4.0660   23.7650 C   0  0  0  0  0  3  0  0  0  0  0  0
  -22.1580   -4.8530   22.6100 C   0  0  0  0  0  0  0  0  0  0  0  0
  -22.6440   -4.2940   21.4740 F   0  0  0  0  0  0  0  0  0  0  0  0
  -21.3370   -3.8740   26.0480 F   0  0  0  0  0  0  0  0  0  0  0  0
  -22.8720  -13.5810   21.0910 C   0  0  0  0  0  0  0  0  0  0  0  0
  -22.1320  -12.8810   21.9440 N   0  0  0  0  0  0  0  0  0  0  0  0
  -22.4320  -14.5920   20.5470 O   0  0  0  0  0  0  0  0  0  0  0  0
  -22.5020  -12.0640   22.4080 H   0  0  0  0  0  0  0  0  0  0  0  0
  -21.1840  -13.1690   22.1420 H   0  0  0  0  0  0  0  0  0  0  0  0
  -25.4890  -15.2860   20.3240 N   0  0  0  0  0  0  0  0  0  0  0  0
  -24.7030  -15.9220   20.4040 H   0  0  0  0  0  0  0  0  0  0  0  0
  -26.3270  -15.7370   19.9810 H   0  0  0  0  0  0  0  0  0  0  0  0
  -27.7700  -21.3780   19.4700 C   0  0  0  0  0  0  0  0  0  0  0  0
  -27.1690  -22.7990   19.3710 C   0  0  0  0  0  2  0  0  0  0  0  0
  -29.2870  -22.7770   20.4410 C   0  0  0  0  0  2  0  0  0  0  0  0
  -28.2890  -23.7950   19.7330 C   0  0  0  0  0  3  0  0  0  0  0  0
  -28.9670  -21.3360   20.0920 N   0  0  0  0  0  0  0  0  0  0  0  0
  -27.1660  -20.4080   19.0010 O   0  0  0  0  0  0  0  0  0  0  0  0
  -27.8260  -25.1610   20.4880 C   0  0  0  0  0  2  0  0  0  0  0  0
  -27.9920  -26.5420   19.9280 O   0  0  0  0  0  0  0  0  0  0  0  0
  -24.4770  -32.0100   23.1890 C   0  0  0  0  0  0  0  0  0  0  0  0
  -26.9010  -27.4300   19.9830 C   0  0  0  0  0  0  0  0  0  0  0  0
  -23.1910  -30.6440   21.5830 C   0  0  0  0  0  3  0  0  0  0  0  0
  -24.5630  -29.0850   20.0850 C   0  0  0  0  0  0  0  0  0  0  0  0
  -25.7270  -30.9300   21.2970 C   0  0  0  0  0  2  0  0  0  0  0  0
  -25.7640  -29.5540   20.6340 C   0  0  0  0  0  0  0  0  0  0  0  0
  -26.9390  -28.7410   20.5670 C   0  0  0  0  0  3  0  0  0  0  0  0
  -25.6770  -27.0210   19.4150 C   0  0  0  0  0  3  0  0  0  0  0  0
  -24.5230  -27.8270   19.4630 C   0  0  0  0  0  3  0  0  0  0  0  0
  -23.3410  -29.9770   20.1890 C   0  0  0  0  0  2  0  0  0  0  0  0
  -24.4870  -31.2130   22.0790 N   0  0  0  0  0  0  0  0  0  0  0  0
  -23.4190  -32.2910   23.7710 O   0  0  0  0  0  0  0  0  0  0  0  0
  -22.5550  -29.6240   22.5610 C   0  0  0  0  0  0  0  0  0  0  0  0
  -21.2300  -29.4290   22.4560 N   0  0  0  0  0  0  0  0  0  0  0  0
  -23.2550  -29.0130   23.3720 O   0  0  0  0  0  0  0  0  0  0  0  0
  -20.7230  -29.9740   21.7730 H   0  0  0  0  0  0  0  0  0  0  0  0
  -17.8850  -28.1550   22.9810 C   0  0  0  0  0  0  0  0  0  0  0  0
  -20.4350  -28.4850   23.2460 C   0  0  0  0  0  3  0  0  0  0  0  0
  -20.5730  -27.0460   22.6960 C   0  0  0  0  0  2  0  0  0  0  0  0
  -19.4790  -26.6770   21.6890 C   0  0  0  0  0  2  0  0  0  0  0  0
  -18.0940  -26.7980   22.3310 C   0  0  0  0  0  2  0  0  0  0  0  0
  -18.9830  -28.9530   23.3970 C   0  0  0  0  0  0  0  0  0  0  0  0
  -18.7310  -30.2210   23.9650 C   0  0  0  0  0  3  0  0  0  0  0  0
  -17.4130  -30.6890   24.1240 C   0  0  0  0  0  3  0  0  0  0  0  0
  -16.3290  -29.8890   23.7260 C   0  0  0  0  0  3  0  0  0  0  0  0
  -16.5660  -28.6230   23.1580 C   0  0  0  0  0  3  0  0  0  0  0  0
  -25.7900  -32.6230   23.7640 C   0  0  0  0  0  3  0  0  0  0  0  0
  -26.3340  -31.8460   25.0260 C   0  0  1  0  0  0  0  0  0  0  0  0
  -25.2710  -31.6180   26.1260 C   0  0  0  0  0  1  0  0  0  0  0  0
  -26.8920  -30.4630   24.6210 C   0  0  0  0  0  1  0  0  0  0  0  0
  -27.5130  -32.6280   25.6540 C   0  0  0  0  0  1  0  0  0  0  0  0
  -25.5150  -34.0270   24.1040 N   0  0  0  0  0  0  0  0  0  0  0  0
  -25.8420  -35.0750   23.3350 C   0  0  0  0  0  0  0  0  0  0  0  0
  -26.4770  -34.9590   22.2830 O   0  0  0  0  0  0  0  0  0  0  0  0
  -24.9510  -34.1910   24.9240 H   0  0  0  0  0  0  0  0  0  0  0  0
  -24.1490  -36.9080   23.0190 C   0  0  0  0  0  1  0  0  0  0  0  0
  -25.3940  -36.4720   23.8060 C   0  0  0  0  0  3  0  0  0  0  0  0
  -27.5620  -37.3080   24.6030 C   0  0  0  0  0  1  0  0  0  0  0  0
  -26.4480  -37.5030   23.6780 N   0  0  0  0  0  0  0  0  0  0  0  0
  -26.0640  -38.4320   23.8350 H   0  0  0  0  0  0  0  0  0  0  0  0
  -33.4920  -19.5360   21.4180 C   0  0  1  0  0  0  0  0  0  0  0  0
  -34.2320  -18.4290   21.5080 F   0  0  0  0  0  0  0  0  0  0  0  0
  -34.0600  -20.3310   20.5100 F   0  0  0  0  0  0  0  0  0  0  0  0
  -33.5250  -20.1460   22.6030 F   0  0  0  0  0  0  0  0  0  0  0  0
  1  3  1  0
  2  4  2  0
  2  5  1  0
  3 94  1  0
  4  6  1  0
  5  1  2  0
  6  7  1  0
  6  3  2  0
  8 16  1  0
  9 14  1  0
 10 11  1  0
 10  9  1  0
 12 11  1  0
 12 21  1  0
 12 13  1  0
 14  8  1  0
 14 13  1  0
 15  8  2  0
 16 17  1  0
 16  5  1  0
 18 19  2  0
 19 38  1  0
 20 19  1  0
 20 23  1  0
 21 18  1  0
 21 22  1  0
 22 20  2  0
 23 24  1  0
 24 25  2  0
 26 29  1  0
 26 25  1  0
 27 26  2  0
 28 27  1  0
 28 23  2  0
 29 30  1  0
 30 31  1  0
 31 32  2  0
 33 32  1  0
 33 37  1  0
 34 33  2  0
 35 30  2  0
 35 34  1  0
 36 35  1  0
 38 39  1  0
 39 42  1  0
 39 41  1  0
 40 38  2  0
 43 44  1  0
 43 18  1  0
 45 43  1  0
 46 50  1  0
 47 46  1  0
 47 49  1  0
 49 48  1  0
 49 52  1  0
 50  4  1  0
 50 48  1  0
 51 46  2  0
 53 55  1  0
 53 52  1  0
 54 65  2  0
 55 60  1  0
 56 64  1  0
 56 66  1  0
 57 63  1  0
 57 59  1  0
 58 64  1  0
 59 58  1  0
 60 59  2  0
 61 62  1  0
 61 55  2  0
 62 57  2  0
 63 56  1  0
 64 54  1  0
 66 68  2  0
 67 66  1  0
 69 67  1  0
 70 79  2  0
 70 75  1  0
 71 67  1  0
 71 75  1  0
 72 71  1  0
 73 74  1  0
 73 72  1  0
 74 70  1  0
 75 76  2  0
 76 77  1  0
 78 77  2  0
 79 78  1  0
 80 54  1  0
 80 85  1  0
 80 81  1  0
 81 84  1  1
 81 82  1  0
 83 81  1  0
 85 88  1  0
 86 90  1  0
 86 85  1  0
 87 86  2  0
 90 89  1  0
 92 90  1  0
 92 93  1  0
 92 91  1  0
 94 95  1  1
 94 97  1  0
 96 94  1  0
M  ISO  4   8 100  16 100  52 101  53 101
M  END
>  <TORSDO>  (11) 
F 19

>  <SCORE>  (11) 
-14.275

>  <name>  (11) 
10

>  <ligand_id>  (11) 
10

>  <original_smiles>  (11) 
[H]c1c([H])c([H])c2c(c1[H])C([H])([H])C([H])([H])C([H])([H])C2([H])N([H])C(=O)C1([H])N(C(=O)C([H])(N([H])C(=O)C([H])(N([H])C([H])([H])[H])C([H])([H])[H])C(C([H])([H])[H])(C([H])([H])[H])C([H])([H])[H])C([H])([H])c2c([H])c(OC([H])([H])C3([H])C([H])([H])C(=O)N(c4c([H])c(N([H])C(=O)N5C([H])([H])C([H])([H])C([H])([H])C([H])(n6nc(-c7c([H])c([H])c(Oc8c([H])c([H])c(F)c([H])c8F)c([H])c7[H])c(C(=O)N([H])[H])c6N([H])[H])C5([H])[H])c([H])c(C(F)(F)F)c4F)C3([H])[H])c([H])c([H])c2C1([H])[H]

>  <smiles>  (11) 
[H]c1c([H])c([H])c2c(c1[H])C([H])([H])C([H])([H])C([H])([H])C2([H])N([H])C(=O)C1([H])N(C(=O)C([H])(N([H])C(=O)C([H])(N([H])C([H])([H])[H])C([H])([H])[H])C(C([H])([H])[H])(C([H])([H])[H])C([H])([H])[H])C([H])([H])c2c([H])c(OC([H])([H])C3([H])C([H])([H])C(=O)N(c4c([H])c(N([H])C(=O)N5C([H])([H])C([H])([H])C([H])([H])C([H])(n6nc(-c7c([H])c([H])c(Oc8c([H])c([H])c(F)c([H])c8F)c([H])c7[H])c(C(=O)N([H])[H])c6N([H])[H])C5([H])[H])c([H])c(C(F)(F)F)c4F)C3([H])[H])c([H])c([H])c2C1([H])[H]

$$$$
11:0:0
     RDKit          3D

 93101  0  0  1  0  0  0  0  0999 V2000
  -29.1510  -22.4370   20.0410 C   0  0  0  0  0  0  0  0  0  0  0  0
  -28.7780  -21.1000   20.1880 N   0  0  0  0  0  0  0  0  0  0  0  0
  -30.3430  -22.7300   19.9410 O   0  0  0  0  0  0  0  0  0  0  0  0
  -27.8220  -20.9640   20.4930 H   0  0  0  0  0  0  0  0  0  0  0  0
  -30.3000  -19.8960   18.6370 C   0  0  0  0  0  3  0  0  0  0  0  0
  -29.3430  -18.5260   20.4050 C   0  0  0  0  0  3  0  0  0  0  0  0
  -30.8660  -18.7320   18.0770 C   0  0  0  0  0  0  0  0  0  0  0  0
  -29.4930  -19.8480   19.7960 C   0  0  0  0  0  0  0  0  0  0  0  0
  -29.9710  -17.3070   19.8880 C   0  0  0  0  0  0  0  0  0  0  0  0
  -30.6910  -17.4660   18.6750 C   0  0  0  0  0  0  0  0  0  0  0  0
  -31.6310  -18.8340   16.7680 C   0  0  0  0  0  1  0  0  0  0  0  0
  -31.1750  -16.3910   18.0090 F   0  0  0  0  0  0  0  0  0  0  0  0
  -30.6010  -14.7980   20.3350 C   0  0  0  0  0  0  0  0  0  0  0  0
  -30.4350  -12.4980   19.3900 C   0  0  0  0  0  2  0  0  0  0  0  0
  -29.5100  -12.5630   18.1550 C   0  0  0  0  0  2  0  0  0  0  0  0
  -28.0380  -12.3790   18.5740 C   0  0  0  0  0  2  0  0  0  0  0  0
  -27.6460  -13.2710   19.7830 C   0  0  0  0  0  3  0  0  0  0  0  0
  -28.6970  -13.2090   20.9120 C   0  0  0  0  0  2  0  0  0  0  0  0
  -29.9930  -13.5620   20.3220 N   0  0  0  0  0  0  0  0  0  0  0  0
  -31.8060  -14.8750   20.0860 O   0  0  0  0  0  0  0  0  0  0  0  0
  -29.8080  -15.9360   20.4690 N   0  0  0  0  0  0  0  0  0  0  0  0
  -28.9100  -15.7590   20.8910 H   0  0  0  0  0  0  0  0  0  0  0  0
  -25.2510  -13.8450   20.4960 C   0  0  0  0  0  0  0  0  0  0  0  0
  -24.1890  -13.0640   20.8640 C   0  0  0  0  0  0  0  0  0  0  0  0
  -24.6640  -11.7160   20.8430 C   0  0  0  0  0  0  0  0  0  0  0  0
  -26.3030  -12.9730   20.2690 N   0  0  0  0  0  0  0  0  0  0  0  0
  -25.9570  -11.6880   20.5440 N   0  0  0  0  0  0  0  0  0  0  0  0
  -23.9470  -10.4490   21.0350 C   0  0  0  0  0  0  0  0  0  0  0  0
  -24.3860   -9.4860   21.9690 C   0  0  0  0  0  3  0  0  0  0  0  0
  -23.6680   -8.2840   22.1480 C   0  0  0  0  0  3  0  0  0  0  0  0
  -22.4970   -8.0370   21.3950 C   0  0  0  0  0  0  0  0  0  0  0  0
  -22.0770   -8.9890   20.4500 C   0  0  0  0  0  3  0  0  0  0  0  0
  -22.7950  -10.1820   20.2680 C   0  0  0  0  0  3  0  0  0  0  0  0
  -21.7500   -6.8870   21.4840 O   0  0  0  0  0  0  0  0  0  0  0  0
  -21.7110   -6.1410   22.6340 C   0  0  0  0  0  0  0  0  0  0  0  0
  -21.2870   -6.6880   23.8640 C   0  0  0  0  0  3  0  0  0  0  0  0
  -21.1960   -5.8690   25.0070 C   0  0  0  0  0  3  0  0  0  0  0  0
  -21.5190   -4.5010   24.9200 C   0  0  0  0  0  0  0  0  0  0  0  0
  -21.9370   -3.9520   23.6960 C   0  0  0  0  0  3  0  0  0  0  0  0
  -22.0280   -4.7700   22.5560 C   0  0  0  0  0  0  0  0  0  0  0  0
  -22.4110   -4.2310   21.3720 F   0  0  0  0  0  0  0  0  0  0  0  0
  -21.4250   -3.7110   26.0160 F   0  0  0  0  0  0  0  0  0  0  0  0
  -22.7860  -13.5300   21.1190 C   0  0  0  0  0  0  0  0  0  0  0  0
  -22.0560  -12.8340   21.9830 N   0  0  0  0  0  0  0  0  0  0  0  0
  -22.3460  -14.5500   20.5890 O   0  0  0  0  0  0  0  0  0  0  0  0
  -22.4230  -12.0110   22.4380 H   0  0  0  0  0  0  0  0  0  0  0  0
  -21.1120  -13.1300   22.1920 H   0  0  0  0  0  0  0  0  0  0  0  0
  -25.4050  -15.2150   20.3120 N   0  0  0  0  0  0  0  0  0  0  0  0
  -24.6310  -15.8630   20.4170 H   0  0  0  0  0  0  0  0  0  0  0  0
  -26.2440  -15.6620   19.9650 H   0  0  0  0  0  0  0  0  0  0  0  0
  -28.0990  -23.6540   19.9820 C   0  0  0  0  0  2  0  0  0  0  0  0
  -28.3290  -25.0650   20.7610 C   0  0  0  0  0  2  0  0  0  0  0  0
  -28.3500  -26.4450   20.1580 O   0  0  0  0  0  0  0  0  0  0  0  0
  -24.5990  -31.8780   23.2490 C   0  0  0  0  0  0  0  0  0  0  0  0
  -27.2230  -27.2900   20.2060 C   0  0  0  0  0  0  0  0  0  0  0  0
  -23.4030  -30.4750   21.6060 C   0  0  0  0  0  3  0  0  0  0  0  0
  -24.8590  -28.9150   20.1900 C   0  0  0  0  0  0  0  0  0  0  0  0
  -25.9430  -30.7950   21.4250 C   0  0  0  0  0  2  0  0  0  0  0  0
  -26.0290  -29.4090   20.7830 C   0  0  0  0  0  0  0  0  0  0  0  0
  -27.2180  -28.6110   20.7690 C   0  0  0  0  0  3  0  0  0  0  0  0
  -26.0270  -26.8480   19.6080 C   0  0  0  0  0  3  0  0  0  0  0  0
  -24.8620  -27.6420   19.5930 C   0  0  0  0  0  3  0  0  0  0  0  0
  -23.6220  -29.7930   20.2290 C   0  0  0  0  0  2  0  0  0  0  0  0
  -24.6690  -31.0680   22.1500 N   0  0  0  0  0  0  0  0  0  0  0  0
  -23.5120  -32.1530   23.7800 O   0  0  0  0  0  0  0  0  0  0  0  0
  -22.7380  -29.4620   22.5700 C   0  0  0  0  0  0  0  0  0  0  0  0
  -21.4110  -29.2840   22.4410 N   0  0  0  0  0  0  0  0  0  0  0  0
  -23.4160  -28.8360   23.3890 O   0  0  0  0  0  0  0  0  0  0  0  0
  -20.9250  -29.8420   21.7540 H   0  0  0  0  0  0  0  0  0  0  0  0
  -18.0350  -28.0780   22.9300 C   0  0  0  0  0  0  0  0  0  0  0  0
  -20.5920  -28.3440   23.2080 C   0  0  0  0  0  3  0  0  0  0  0  0
  -20.6980  -26.9130   22.6320 C   0  0  0  0  0  2  0  0  0  0  0  0
  -19.6010  -26.5880   21.6140 C   0  0  0  0  0  2  0  0  0  0  0  0
  -18.2170  -26.7280   22.2540 C   0  0  0  0  0  2  0  0  0  0  0  0
  -19.1500  -28.8430   23.3640 C   0  0  0  0  0  0  0  0  0  0  0  0
  -18.9250  -30.1050   23.9550 C   0  0  0  0  0  3  0  0  0  0  0  0
  -17.6180  -30.6000   24.1200 C   0  0  0  0  0  3  0  0  0  0  0  0
  -16.5180  -29.8330   23.7020 C   0  0  0  0  0  3  0  0  0  0  0  0
  -16.7260  -28.5730   23.1120 C   0  0  0  0  0  3  0  0  0  0  0  0
  -25.8770  -32.5150   23.8770 C   0  0  0  0  0  3  0  0  0  0  0  0
  -26.3830  -31.7500   25.1620 C   0  0  1  0  0  0  0  0  0  0  0  0
  -25.2820  -31.5240   26.2240 C   0  0  0  0  0  1  0  0  0  0  0  0
  -26.9640  -30.3680   24.7830 C   0  0  0  0  0  1  0  0  0  0  0  0
  -27.5310  -32.5460   25.8260 C   0  0  0  0  0  1  0  0  0  0  0  0
  -25.5650  -33.9150   24.1990 N   0  0  0  0  0  0  0  0  0  0  0  0
  -25.9020  -34.9660   23.4400 C   0  0  0  0  0  0  0  0  0  0  0  0
  -26.5770  -34.8600   22.4130 O   0  0  0  0  0  0  0  0  0  0  0  0
  -24.9630  -34.0720   24.9940 H   0  0  0  0  0  0  0  0  0  0  0  0
  -24.1770  -36.7630   23.0780 C   0  0  0  0  0  1  0  0  0  0  0  0
  -25.4160  -36.3580   23.8930 C   0  0  0  0  0  3  0  0  0  0  0  0
  -27.5490  -37.2430   24.7270 C   0  0  0  0  0  1  0  0  0  0  0  0
  -26.4500  -37.4090   23.7800 N   0  0  0  0  0  0  0  0  0  0  0  0
  -26.0440  -38.3300   23.9220 H   0  0  0  0  0  0  0  0  0  0  0  0
  1  2  1  0
  2  4  1  0
  3  1  2  0
  5  8  1  0
  7  5  2  0
  7 10  1  0
  8  2  1  0
  8  6  2  0
  9  6  1  0
  9 21  1  0
 10  9  2  0
 11  7  1  0
 12 10  1  0
 13 21  1  0
 14 19  1  0
 15 16  1  0
 15 14  1  0
 17 16  1  0
 17 26  1  0
 17 18  1  0
 19 13  1  0
 19 18  1  0
 20 13  2  0
 21 22  1  0
 23 24  2  0
 24 43  1  0
 25 24  1  0
 25 28  1  0
 26 23  1  0
 26 27  1  0
 27 25  2  0
 28 29  1  0
 29 30  2  0
 31 34  1  0
 31 30  1  0
 32 31  2  0
 33 32  1  0
 33 28  2  0
 34 35  1  0
 35 36  1  0
 36 37  2  0
 38 37  1  0
 38 42  1  0
 39 38  2  0
 40 35  2  0
 40 39  1  0
 41 40  1  0
 43 44  1  0
 44 47  1  0
 44 46  1  0
 45 43  2  0
 48 49  1  0
 48 23  1  0
 50 48  1  0
 51  1  1  0
 51 52  1  0
 53 55  1  0
 53 52  1  0
 54 65  2  0
 55 60  1  0
 56 64  1  0
 56 66  1  0
 57 63  1  0
 57 59  1  0
 58 64  1  0
 59 58  1  0
 60 59  2  0
 61 55  2  0
 62 61  1  0
 62 57  2  0
 63 56  1  0
 64 54  1  0
 66 68  2  0
 67 66  1  0
 69 67  1  0
 70 79  2  0
 70 75  1  0
 71 67  1  0
 71 75  1  0
 72 71  1  0
 73 74  1  0
 73 72  1  0
 74 70  1  0
 75 76  2  0
 76 77  1  0
 78 77  2  0
 79 78  1  0
 80 54  1  0
 80 85  1  0
 80 81  1  0
 81 84  1  1
 81 82  1  0
 83 81  1  0
 85 88  1  0
 86 90  1  0
 86 85  1  0
 87 86  2  0
 90 89  1  0
 92 90  1  0
 92 93  1  0
 92 91  1  0
M  ISO  4  13 100  21 100  52 101  53 101
M  END
>  <TORSDO>  (12) 
F 19

>  <SCORE>  (12) 
-14.288

>  <name>  (12) 
11

>  <ligand_id>  (12) 
11

>  <original_smiles>  (12) 
[H]c1c([H])c([H])c2c(c1[H])C([H])([H])C([H])([H])C([H])([H])C2([H])N([H])C(=O)C1([H])N(C(=O)C([H])(N([H])C(=O)C([H])(N([H])C([H])([H])[H])C([H])([H])[H])C(C([H])([H])[H])(C([H])([H])[H])C([H])([H])[H])C([H])([H])c2c([H])c(OC([H])([H])C([H])([H])C(=O)N([H])c3c([H])c(N([H])C(=O)N4C([H])([H])C([H])([H])C([H])([H])C([H])(n5nc(-c6c([H])c([H])c(Oc7c([H])c([H])c(F)c([H])c7F)c([H])c6[H])c(C(=O)N([H])[H])c5N([H])[H])C4([H])[H])c(F)c(C([H])([H])[H])c3[H])c([H])c([H])c2C1([H])[H]

>  <smiles>  (12) 
[H]c1c([H])c([H])c2c(c1[H])C([H])([H])C([H])([H])C([H])([H])C2([H])N([H])C(=O)C1([H])N(C(=O)C([H])(N([H])C(=O)C([H])(N([H])C([H])([H])[H])C([H])([H])[H])C(C([H])([H])[H])(C([H])([H])[H])C([H])([H])[H])C([H])([H])c2c([H])c(OC([H])([H])C([H])([H])C(=O)N([H])c3c([H])c(N([H])C(=O)N4C([H])([H])C([H])([H])C([H])([H])C([H])(n5nc(-c6c([H])c([H])c(Oc7c([H])c([H])c(F)c([H])c7F)c([H])c6[H])c(C(=O)N([H])[H])c5N([H])[H])C4([H])[H])c(F)c(C([H])([H])[H])c3[H])c([H])c([H])c2C1([H])[H]

$$$$
12:0:0
     RDKit          3D

 93101  0  0  1  0  0  0  0  0999 V2000
  -29.3720  -22.4630   19.6270 C   0  0  0  0  0  0  0  0  0  0  0  0
  -29.1340  -21.1290   19.9670 N   0  0  0  0  0  0  0  0  0  0  0  0
  -30.3050  -22.7550   18.8750 O   0  0  0  0  0  0  0  0  0  0  0  0
  -28.2260  -20.9730   20.3830 H   0  0  0  0  0  0  0  0  0  0  0  0
  -31.4220  -20.1270   19.9290 C   0  0  0  0  0  3  0  0  0  0  0  0
  -32.3180  -19.0610   20.1160 C   0  0  0  0  0  3  0  0  0  0  0  0
  -29.5810  -18.5380   20.0760 C   0  0  0  0  0  0  0  0  0  0  0  0
  -30.0240  -19.9300   19.9500 C   0  0  0  0  0  0  0  0  0  0  0  0
  -30.4960  -17.3950   20.2510 C   0  0  0  0  0  0  0  0  0  0  0  0
  -31.8730  -17.7440   20.3250 C   0  0  0  0  0  0  0  0  0  0  0  0
  -28.0850  -18.2960   20.0400 C   0  0  0  0  0  1  0  0  0  0  0  0
  -32.8090  -16.8450   20.7060 F   0  0  0  0  0  0  0  0  0  0  0  0
  -30.6700  -14.7840   20.0440 C   0  0  0  0  0  0  0  0  0  0  0  0
  -30.3480  -12.5540   18.9290 C   0  0  0  0  0  2  0  0  0  0  0  0
  -29.3280  -12.6710   17.7720 C   0  0  0  0  0  2  0  0  0  0  0  0
  -27.8890  -12.4810   18.2820 C   0  0  0  0  0  2  0  0  0  0  0  0
  -27.6100  -13.2970   19.5710 C   0  0  0  0  0  3  0  0  0  0  0  0
  -28.7420  -13.1040   20.5990 C   0  0  0  0  0  2  0  0  0  0  0  0
  -29.9920  -13.5660   19.9640 N   0  0  0  0  0  0  0  0  0  0  0  0
  -31.7610  -14.8330   19.4710 O   0  0  0  0  0  0  0  0  0  0  0  0
  -29.2980  -15.8960   21.7890 C   0  0  0  0  0  1  0  0  0  0  0  0
  -30.0860  -15.9730   20.5530 N   0  0  0  0  0  0  0  0  0  0  0  0
  -25.2670  -13.8660   20.4550 C   0  0  0  0  0  0  0  0  0  0  0  0
  -24.2270  -13.0780   20.8690 C   0  0  0  0  0  0  0  0  0  0  0  0
  -24.6860  -11.7310   20.7710 C   0  0  0  0  0  0  0  0  0  0  0  0
  -26.2960  -12.9940   20.1320 N   0  0  0  0  0  0  0  0  0  0  0  0
  -25.9550  -11.7030   20.3800 N   0  0  0  0  0  0  0  0  0  0  0  0
  -23.9720  -10.4630   20.9690 C   0  0  0  0  0  0  0  0  0  0  0  0
  -24.4280   -9.4960   21.8910 C   0  0  0  0  0  3  0  0  0  0  0  0
  -23.7130   -8.2940   22.0790 C   0  0  0  0  0  3  0  0  0  0  0  0
  -22.5280   -8.0500   21.3440 C   0  0  0  0  0  0  0  0  0  0  0  0
  -22.0920   -9.0060   20.4100 C   0  0  0  0  0  3  0  0  0  0  0  0
  -22.8070  -10.2000   20.2200 C   0  0  0  0  0  3  0  0  0  0  0  0
  -21.7820   -6.9000   21.4420 O   0  0  0  0  0  0  0  0  0  0  0  0
  -21.7160   -6.1830   22.6070 C   0  0  0  0  0  0  0  0  0  0  0  0
  -21.2680   -6.7610   23.8160 C   0  0  0  0  0  3  0  0  0  0  0  0
  -21.1510   -5.9680   24.9750 C   0  0  0  0  0  3  0  0  0  0  0  0
  -21.4720   -4.5990   24.9270 C   0  0  0  0  0  0  0  0  0  0  0  0
  -21.9120   -4.0200   23.7240 C   0  0  0  0  0  3  0  0  0  0  0  0
  -22.0310   -4.8100   22.5680 C   0  0  0  0  0  0  0  0  0  0  0  0
  -22.4380   -4.2420   21.4070 F   0  0  0  0  0  0  0  0  0  0  0  0
  -21.3520   -3.8350   26.0390 F   0  0  0  0  0  0  0  0  0  0  0  0
  -22.8510  -13.5470   21.2400 C   0  0  0  0  0  0  0  0  0  0  0  0
  -22.1790  -12.8280   22.1340 N   0  0  0  0  0  0  0  0  0  0  0  0
  -22.3800  -14.5840   20.7730 O   0  0  0  0  0  0  0  0  0  0  0  0
  -22.5760  -11.9870   22.5260 H   0  0  0  0  0  0  0  0  0  0  0  0
  -21.2550  -13.1170   22.4250 H   0  0  0  0  0  0  0  0  0  0  0  0
  -25.4210  -15.2400   20.3080 N   0  0  0  0  0  0  0  0  0  0  0  0
  -24.6530  -15.8860   20.4580 H   0  0  0  0  0  0  0  0  0  0  0  0
  -26.2460  -15.6880   19.9330 H   0  0  0  0  0  0  0  0  0  0  0  0
  -28.4440  -23.6680   20.1450 C   0  0  0  0  0  2  0  0  0  0  0  0
  -28.5150  -25.1530   19.4750 C   0  0  0  0  0  2  0  0  0  0  0  0
  -28.3380  -26.4420   20.2310 O   0  0  0  0  0  0  0  0  0  0  0  0
  -24.5960  -31.8890   23.2360 C   0  0  0  0  0  0  0  0  0  0  0  0
  -27.2010  -27.2820   20.1730 C   0  0  0  0  0  0  0  0  0  0  0  0
  -23.3890  -30.4860   21.6020 C   0  0  0  0  0  3  0  0  0  0  0  0
  -24.8330  -28.9170   20.1800 C   0  0  0  0  0  0  0  0  0  0  0  0
  -25.9320  -30.7890   21.4140 C   0  0  0  0  0  2  0  0  0  0  0  0
  -26.0060  -29.4020   20.7710 C   0  0  0  0  0  0  0  0  0  0  0  0
  -27.1870  -28.5950   20.7560 C   0  0  0  0  0  3  0  0  0  0  0  0
  -25.9930  -26.8450   19.5860 C   0  0  0  0  0  3  0  0  0  0  0  0
  -24.8300  -27.6440   19.5860 C   0  0  0  0  0  3  0  0  0  0  0  0
  -23.6010  -29.8020   20.2250 C   0  0  0  0  0  2  0  0  0  0  0  0
  -24.6580  -31.0760   22.1400 N   0  0  0  0  0  0  0  0  0  0  0  0
  -23.5120  -32.1710   23.7690 O   0  0  0  0  0  0  0  0  0  0  0  0
  -22.7200  -29.4790   22.5680 C   0  0  0  0  0  0  0  0  0  0  0  0
  -21.3930  -29.3130   22.4480 N   0  0  0  0  0  0  0  0  0  0  0  0
  -23.3980  -28.8500   23.3860 O   0  0  0  0  0  0  0  0  0  0  0  0
  -20.9050  -29.8760   21.7640 H   0  0  0  0  0  0  0  0  0  0  0  0
  -18.0080  -28.1380   22.9620 C   0  0  0  0  0  0  0  0  0  0  0  0
  -20.5690  -28.3810   23.2220 C   0  0  0  0  0  3  0  0  0  0  0  0
  -20.6600  -26.9480   22.6460 C   0  0  0  0  0  2  0  0  0  0  0  0
  -19.5510  -26.6330   21.6370 C   0  0  0  0  0  2  0  0  0  0  0  0
  -18.1740  -26.7870   22.2870 C   0  0  0  0  0  2  0  0  0  0  0  0
  -19.1340  -28.8930   23.3870 C   0  0  0  0  0  0  0  0  0  0  0  0
  -18.9270  -30.1580   23.9790 C   0  0  0  0  0  3  0  0  0  0  0  0
  -17.6250  -30.6680   24.1490 C   0  0  0  0  0  3  0  0  0  0  0  0
  -16.5150  -29.9090   23.7410 C   0  0  0  0  0  3  0  0  0  0  0  0
  -16.7070  -28.6460   23.1520 C   0  0  0  0  0  3  0  0  0  0  0  0
  -25.8780  -32.5230   23.8580 C   0  0  0  0  0  3  0  0  0  0  0  0
  -26.3930  -31.7530   25.1360 C   0  0  1  0  0  0  0  0  0  0  0  0
  -25.3010  -31.5200   26.2050 C   0  0  0  0  0  1  0  0  0  0  0  0
  -26.9760  -30.3740   24.7490 C   0  0  0  0  0  1  0  0  0  0  0  0
  -27.5440  -32.5480   25.7930 C   0  0  0  0  0  1  0  0  0  0  0  0
  -25.5690  -33.9230   24.1870 N   0  0  0  0  0  0  0  0  0  0  0  0
  -25.9050  -34.9750   23.4290 C   0  0  0  0  0  0  0  0  0  0  0  0
  -26.5750  -34.8700   22.3980 O   0  0  0  0  0  0  0  0  0  0  0  0
  -24.9710  -34.0810   24.9850 H   0  0  0  0  0  0  0  0  0  0  0  0
  -24.1830  -36.7750   23.0750 C   0  0  0  0  0  1  0  0  0  0  0  0
  -25.4210  -36.3650   23.8860 C   0  0  0  0  0  3  0  0  0  0  0  0
  -27.5570  -37.2440   24.7180 C   0  0  0  0  0  1  0  0  0  0  0  0
  -26.4570  -37.4150   23.7730 N   0  0  0  0  0  0  0  0  0  0  0  0
  -26.0540  -38.3380   23.9180 H   0  0  0  0  0  0  0  0  0  0  0  0
  1  2  1  0
  1 51  1  0
  2  4  1  0
  3  1  2  0
  5  8  2  0
  5  6  1  0
  6 10  2  0
  7  9  2  0
  8  2  1  0
  8  7  1  0
  9 10  1  0
  9 22  1  0
 10 12  1  0
 11  7  1  0
 13 22  1  0
 14 19  1  0
 15 16  1  0
 15 14  1  0
 17 16  1  0
 17 26  1  0
 17 18  1  0
 19 13  1  0
 19 18  1  0
 20 13  2  0
 22 21  1  0
 23 24  2  0
 24 43  1  0
 25 24  1  0
 25 28  1  0
 26 27  1  0
 26 23  1  0
 27 25  2  0
 28 29  1  0
 29 30  2  0
 31 34  1  0
 31 30  1  0
 32 31  2  0
 33 32  1  0
 33 28  2  0
 34 35  1  0
 35 36  1  0
 36 37  2  0
 38 37  1  0
 38 42  1  0
 39 38  2  0
 40 35  2  0
 40 39  1  0
 41 40  1  0
 43 44  1  0
 44 47  1  0
 44 46  1  0
 45 43  2  0
 48 23  1  0
 48 49  1  0
 50 48  1  0
 52 51  1  0
 52 53  1  0
 54 65  2  0
 55 53  1  0
 55 60  1  0
 56 64  1  0
 56 66  1  0
 57 63  1  0
 57 59  1  0
 58 64  1  0
 59 58  1  0
 60 59  2  0
 61 55  2  0
 62 61  1  0
 62 57  2  0
 63 56  1  0
 64 54  1  0
 66 68  2  0
 67 66  1  0
 69 67  1  0
 70 79  2  0
 70 75  1  0
 71 67  1  0
 71 75  1  0
 72 71  1  0
 73 74  1  0
 73 72  1  0
 74 70  1  0
 75 76  2  0
 76 77  1  0
 78 77  2  0
 79 78  1  0
 80 54  1  0
 80 85  1  0
 80 81  1  0
 81 84  1  1
 81 82  1  0
 83 81  1  0
 85 88  1  0
 86 90  1  0
 86 85  1  0
 87 86  2  0
 90 89  1  0
 92 90  1  0
 92 93  1  0
 92 91  1  0
M  ISO  4  13 100  22 100  52 101  53 101
M  END
>  <TORSDO>  (13) 
F 19

>  <SCORE>  (13) 
-13.669

>  <name>  (13) 
12

>  <ligand_id>  (13) 
12

>  <original_smiles>  (13) 
[H]c1c([H])c([H])c2c(c1[H])C([H])([H])C([H])([H])C([H])([H])C2([H])N([H])C(=O)C1([H])N(C(=O)C([H])(N([H])C(=O)C([H])(N([H])C([H])([H])[H])C([H])([H])[H])C(C([H])([H])[H])(C([H])([H])[H])C([H])([H])[H])C([H])([H])c2c([H])c(OC([H])([H])C([H])([H])C(=O)N([H])c3c([H])c([H])c(F)c(N(C(=O)N4C([H])([H])C([H])([H])C([H])([H])C([H])(n5nc(-c6c([H])c([H])c(Oc7c([H])c([H])c(F)c([H])c7F)c([H])c6[H])c(C(=O)N([H])[H])c5N([H])[H])C4([H])[H])C([H])([H])[H])c3C([H])([H])[H])c([H])c([H])c2C1([H])[H]

>  <smiles>  (13) 
[H]c1c([H])c([H])c2c(c1[H])C([H])([H])C([H])([H])C([H])([H])C2([H])N([H])C(=O)C1([H])N(C(=O)C([H])(N([H])C(=O)C([H])(N([H])C([H])([H])[H])C([H])([H])[H])C(C([H])([H])[H])(C([H])([H])[H])C([H])([H])[H])C([H])([H])c2c([H])c(OC([H])([H])C([H])([H])C(=O)N([H])c3c([H])c([H])c(F)c(N(C(=O)N4C([H])([H])C([H])([H])C([H])([H])C([H])(n5nc(-c6c([H])c([H])c(Oc7c([H])c([H])c(F)c([H])c7F)c([H])c6[H])c(C(=O)N([H])[H])c5N([H])[H])C4([H])[H])C([H])([H])[H])c3C([H])([H])[H])c([H])c([H])c2C1([H])[H]

$$$$
13:0:0
     RDKit          3D

 96105  0  0  1  0  0  0  0  0999 V2000
  -29.8820  -22.8590   22.6070 C   0  0  0  0  0  3  0  0  0  0  0  0
  -30.2670  -21.4810   22.0650 C   0  0  0  0  0  0  0  0  0  0  0  0
  -29.1070  -22.2920   20.0470 C   0  0  0  0  0  2  0  0  0  0  0  0
  -29.3710  -23.8140   20.5090 C   0  0  0  0  0  3  0  0  0  0  0  0
  -29.4210  -23.8730   21.9630 N   0  0  0  0  0  0  0  0  0  0  0  0
  -29.8340  -21.1800   20.8060 N   0  0  0  0  0  0  0  0  0  0  0  0
  -30.9390  -20.7230   22.7750 O   0  0  0  0  0  0  0  0  0  0  0  0
  -30.2950  -19.7330   18.8320 C   0  0  0  0  0  3  0  0  0  0  0  0
  -30.5190  -18.5050   18.1880 C   0  0  0  0  0  3  0  0  0  0  0  0
  -30.0980  -18.5370   20.9350 C   0  0  0  0  0  3  0  0  0  0  0  0
  -30.0660  -19.8170   20.2230 C   0  0  0  0  0  0  0  0  0  0  0  0
  -30.5540  -17.2880   18.8930 C   0  0  0  0  0  0  0  0  0  0  0  0
  -30.3640  -17.2520   20.3010 C   0  0  0  0  0  0  0  0  0  0  0  0
  -31.0420  -14.7950   20.7930 C   0  0  0  0  0  0  0  0  0  0  0  0
  -30.8630  -12.4950   19.8490 C   0  0  0  0  0  2  0  0  0  0  0  0
  -30.0280  -12.5520   18.5500 C   0  0  0  0  0  2  0  0  0  0  0  0
  -28.5220  -12.4510   18.8610 C   0  0  0  0  0  2  0  0  0  0  0  0
  -28.0810  -13.3830   20.0230 C   0  0  0  0  0  3  0  0  0  0  0  0
  -29.0420  -13.2870   21.2280 C   0  0  0  0  0  2  0  0  0  0  0  0
  -30.3960  -13.5810   20.7420 N   0  0  0  0  0  0  0  0  0  0  0  0
  -32.2410  -14.8670   20.5090 O   0  0  0  0  0  0  0  0  0  0  0  0
  -30.2890  -15.9370   20.9890 N   0  0  0  0  0  0  0  0  0  0  0  0
  -29.3900  -15.7480   21.4050 H   0  0  0  0  0  0  0  0  0  0  0  0
  -25.6570  -14.0450   20.5500 C   0  0  0  0  0  0  0  0  0  0  0  0
  -24.5480  -13.3020   20.8540 C   0  0  0  0  0  0  0  0  0  0  0  0
  -24.9840  -11.9410   20.9030 C   0  0  0  0  0  0  0  0  0  0  0  0
  -26.6960  -13.1380   20.4160 N   0  0  0  0  0  0  0  0  0  0  0  0
  -26.2940  -11.8710   20.6980 N   0  0  0  0  0  0  0  0  0  0  0  0
  -24.2230  -10.6980   21.0760 C   0  0  0  0  0  0  0  0  0  0  0  0
  -24.5760   -9.7440   22.0550 C   0  0  0  0  0  3  0  0  0  0  0  0
  -23.8160   -8.5650   22.2130 C   0  0  0  0  0  3  0  0  0  0  0  0
  -22.6880   -8.3320   21.3910 C   0  0  0  0  0  0  0  0  0  0  0  0
  -22.3540   -9.2740   20.4000 C   0  0  0  0  0  3  0  0  0  0  0  0
  -23.1160  -10.4430   20.2420 C   0  0  0  0  0  3  0  0  0  0  0  0
  -21.9050   -7.2050   21.4570 O   0  0  0  0  0  0  0  0  0  0  0  0
  -21.7790   -6.4800   22.6150 C   0  0  0  0  0  0  0  0  0  0  0  0
  -21.2800   -7.0570   23.8030 C   0  0  0  0  0  3  0  0  0  0  0  0
  -21.1000   -6.2600   24.9520 C   0  0  0  0  0  3  0  0  0  0  0  0
  -21.4090   -4.8880   24.9130 C   0  0  0  0  0  0  0  0  0  0  0  0
  -21.9000   -4.3100   23.7300 C   0  0  0  0  0  3  0  0  0  0  0  0
  -22.0820   -5.1050   22.5830 C   0  0  0  0  0  0  0  0  0  0  0  0
  -22.5350   -4.5380   21.4380 F   0  0  0  0  0  0  0  0  0  0  0  0
  -21.2280   -4.1200   26.0140 F   0  0  0  0  0  0  0  0  0  0  0  0
  -23.1440  -13.8140   20.9960 C   0  0  0  0  0  0  0  0  0  0  0  0
  -22.3390  -13.1700   21.8330 N   0  0  0  0  0  0  0  0  0  0  0  0
  -22.7670  -14.8200   20.3970 O   0  0  0  0  0  0  0  0  0  0  0  0
  -22.6540  -12.3540   22.3340 H   0  0  0  0  0  0  0  0  0  0  0  0
  -21.3930  -13.5000   21.9730 H   0  0  0  0  0  0  0  0  0  0  0  0
  -25.8700  -15.4070   20.3570 N   0  0  0  0  0  0  0  0  0  0  0  0
  -25.1280  -16.0950   20.4200 H   0  0  0  0  0  0  0  0  0  0  0  0
  -26.7610  -15.8110   20.0930 H   0  0  0  0  0  0  0  0  0  0  0  0
  -30.7410  -16.1320   18.1400 N   0  0  0  0  0  0  0  0  0  0  0  0
  -30.9950  -16.2630   17.1680 H   0  0  0  0  0  0  0  0  0  0  0  0
  -31.3080  -15.4130   18.5720 H   0  0  0  0  0  0  0  0  0  0  0  0
  -28.3600  -24.9430   19.9410 C   0  0  0  0  0  2  0  0  0  0  0  0
  -28.5470  -26.4220   20.1160 O   0  0  0  0  0  0  0  0  0  0  0  0
  -24.5800  -31.7280   23.0580 C   0  0  0  0  0  0  0  0  0  0  0  0
  -27.4120  -27.2630   20.0250 C   0  0  0  0  0  0  0  0  0  0  0  0
  -23.4590  -30.2950   21.3930 C   0  0  0  0  0  3  0  0  0  0  0  0
  -24.9900  -28.8120   19.9770 C   0  0  0  0  0  0  0  0  0  0  0  0
  -25.9890  -30.7050   21.2540 C   0  0  0  0  0  2  0  0  0  0  0  0
  -26.1330  -29.3330   20.5980 C   0  0  0  0  0  0  0  0  0  0  0  0
  -27.3450  -28.5730   20.6080 C   0  0  0  0  0  3  0  0  0  0  0  0
  -26.2410  -26.8100   19.3700 C   0  0  0  0  0  3  0  0  0  0  0  0
  -25.0500  -27.5590   19.3510 C   0  0  0  0  0  3  0  0  0  0  0  0
  -23.7200  -29.6400   20.0110 C   0  0  0  0  0  2  0  0  0  0  0  0
  -24.6940  -30.9280   21.9580 N   0  0  0  0  0  0  0  0  0  0  0  0
  -23.4770  -31.9620   23.5750 O   0  0  0  0  0  0  0  0  0  0  0  0
  -22.8190  -29.2480   22.3370 C   0  0  0  0  0  0  0  0  0  0  0  0
  -21.4940  -29.0500   22.2160 N   0  0  0  0  0  0  0  0  0  0  0  0
  -23.5130  -28.6160   23.1370 O   0  0  0  0  0  0  0  0  0  0  0  0
  -20.9920  -29.6150   21.5440 H   0  0  0  0  0  0  0  0  0  0  0  0
  -18.1340  -27.8190   22.7480 C   0  0  0  0  0  0  0  0  0  0  0  0
  -20.6960  -28.0850   22.9720 C   0  0  0  0  0  3  0  0  0  0  0  0
  -20.7930  -26.6720   22.3490 C   0  0  0  0  0  2  0  0  0  0  0  0
  -19.6720  -26.3750   21.3490 C   0  0  0  0  0  2  0  0  0  0  0  0
  -18.3030  -26.4930   22.0250 C   0  0  0  0  0  2  0  0  0  0  0  0
  -19.2570  -28.5740   23.1780 C   0  0  0  0  0  0  0  0  0  0  0  0
  -19.0450  -29.8150   23.8150 C   0  0  0  0  0  3  0  0  0  0  0  0
  -17.7420  -30.3020   24.0260 C   0  0  0  0  0  3  0  0  0  0  0  0
  -16.6320  -29.5440   23.6110 C   0  0  0  0  0  3  0  0  0  0  0  0
  -16.8300  -28.3040   22.9780 C   0  0  0  0  0  3  0  0  0  0  0  0
  -25.8250  -32.4080   23.7060 C   0  0  0  0  0  3  0  0  0  0  0  0
  -26.3690  -31.6320   24.9680 C   0  0  1  0  0  0  0  0  0  0  0  0
  -25.2840  -31.3170   26.0230 C   0  0  0  0  0  1  0  0  0  0  0  0
  -27.0200  -30.2940   24.5490 C   0  0  0  0  0  1  0  0  0  0  0  0
  -27.4770  -32.4650   25.6570 C   0  0  0  0  0  1  0  0  0  0  0  0
  -25.4450  -33.7810   24.0690 N   0  0  0  0  0  0  0  0  0  0  0  0
  -25.7540  -34.8720   23.3570 C   0  0  0  0  0  0  0  0  0  0  0  0
  -26.4580  -34.8320   22.3440 O   0  0  0  0  0  0  0  0  0  0  0  0
  -24.8190  -33.8820   24.8540 H   0  0  0  0  0  0  0  0  0  0  0  0
  -23.9770  -36.6130   22.9920 C   0  0  0  0  0  1  0  0  0  0  0  0
  -25.1940  -36.2230   23.8440 C   0  0  0  0  0  3  0  0  0  0  0  0
  -27.2520  -37.1540   24.8090 C   0  0  0  0  0  1  0  0  0  0  0  0
  -26.1900  -37.3160   23.8190 N   0  0  0  0  0  0  0  0  0  0  0  0
  -25.7430  -38.2160   23.9780 H   0  0  0  0  0  0  0  0  0  0  0  0
  2  1  1  0
  2  7  2  0
  3  4  1  0
  3  6  1  0
  4 55  1  0
  4  5  1  0
  5  1  2  0
  6  2  1  0
  8 11  1  0
  9  8  2  0
  9 12  1  0
 11  6  1  0
 11 10  2  0
 12 13  2  0
 13 10  1  0
 13 22  1  0
 14 22  1  0
 15 20  1  0
 16 17  1  0
 16 15  1  0
 18 17  1  0
 18 27  1  0
 18 19  1  0
 20 14  1  0
 20 19  1  0
 21 14  2  0
 22 23  1  0
 24 25  2  0
 25 26  1  0
 25 44  1  0
 26 29  1  0
 27 24  1  0
 27 28  1  0
 28 26  2  0
 29 30  1  0
 30 31  2  0
 32 35  1  0
 32 31  1  0
 33 32  2  0
 34 33  1  0
 34 29  2  0
 35 36  1  0
 36 37  1  0
 37 38  2  0
 39 38  1  0
 39 43  1  0
 40 39  2  0
 41 36  2  0
 41 40  1  0
 42 41  1  0
 44 45  1  0
 45 48  1  0
 45 47  1  0
 46 44  2  0
 49 50  1  0
 49 24  1  0
 51 49  1  0
 52 54  1  0
 52 12  1  0
 53 52  1  0
 55 56  1  0
 57 68  2  0
 58 56  1  0
 58 63  1  0
 59 67  1  0
 59 69  1  0
 60 66  1  0
 60 62  1  0
 61 67  1  0
 62 63  2  0
 62 61  1  0
 64 58  2  0
 65 64  1  0
 65 60  2  0
 66 59  1  0
 67 57  1  0
 69 71  2  0
 70 69  1  0
 72 70  1  0
 73 82  2  0
 73 78  1  0
 74 70  1  0
 74 78  1  0
 75 74  1  0
 76 77  1  0
 76 75  1  0
 77 73  1  0
 78 79  2  0
 79 80  1  0
 81 80  2  0
 82 81  1  0
 83 57  1  0
 83 88  1  0
 83 84  1  0
 84 87  1  1
 84 85  1  0
 86 84  1  0
 88 91  1  0
 89 93  1  0
 89 88  1  0
 90 89  2  0
 93 92  1  0
 95 93  1  0
 95 96  1  0
 95 94  1  0
M  ISO  4  14 100  22 100  55 101  56 101
M  END
>  <TORSDO>  (14) 
F 19

>  <SCORE>  (14) 
-14.438

>  <name>  (14) 
13

>  <ligand_id>  (14) 
13

>  <original_smiles>  (14) 
[H]C1=NC([H])(C([H])([H])Oc2c([H])c([H])c3c(c2[H])C([H])([H])N(C(=O)C([H])(N([H])C(=O)C([H])(N([H])C([H])([H])[H])C([H])([H])[H])C(C([H])([H])[H])(C([H])([H])[H])C([H])([H])[H])C([H])(C(=O)N([H])C2([H])c4c([H])c([H])c([H])c([H])c4C([H])([H])C([H])([H])C2([H])[H])C3([H])[H])C([H])([H])N(c2c([H])c([H])c(N([H])[H])c(N([H])C(=O)N3C([H])([H])C([H])([H])C([H])([H])C([H])(n4nc(-c5c([H])c([H])c(Oc6c([H])c([H])c(F)c([H])c6F)c([H])c5[H])c(C(=O)N([H])[H])c4N([H])[H])C3([H])[H])c2[H])C1=O

>  <smiles>  (14) 
[H]C1=NC([H])(C([H])([H])Oc2c([H])c([H])c3c(c2[H])C([H])([H])N(C(=O)C([H])(N([H])C(=O)C([H])(N([H])C([H])([H])[H])C([H])([H])[H])C(C([H])([H])[H])(C([H])([H])[H])C([H])([H])[H])C([H])(C(=O)N([H])C2([H])c4c([H])c([H])c([H])c([H])c4C([H])([H])C([H])([H])C2([H])[H])C3([H])[H])C([H])([H])N(c2c([H])c([H])c(N([H])[H])c(N([H])C(=O)N3C([H])([H])C([H])([H])C([H])([H])C([H])(n4nc(-c5c([H])c([H])c(Oc6c([H])c([H])c(F)c([H])c6F)c([H])c5[H])c(C(=O)N([H])[H])c4N([H])[H])C3([H])[H])c2[H])C1=O

$$$$
14:0:0
     RDKit          3D

 93101  0  0  1  0  0  0  0  0999 V2000
  -29.3890  -22.7080   21.1690 C   0  0  0  0  0  0  0  0  0  0  0  0
  -28.8180  -21.5730   20.7490 N   0  0  0  0  0  0  0  0  0  0  0  0
  -29.4340  -23.0560   22.3500 O   0  0  0  0  0  0  0  0  0  0  0  0
  -28.7710  -21.4580   19.7450 H   0  0  0  0  0  0  0  0  0  0  0  0
  -28.7700  -20.3130   21.4900 C   0  0  0  0  0  2  0  0  0  0  0  0
  -31.6950  -18.7980   19.5180 C   0  0  0  0  0  3  0  0  0  0  0  0
  -30.8290  -19.7230   20.1070 C   0  0  0  0  0  3  0  0  0  0  0  0
  -31.5080  -17.4270   19.7350 C   0  0  0  0  0  3  0  0  0  0  0  0
  -29.5550  -17.8980   21.1120 C   0  0  0  0  0  3  0  0  0  0  0  0
  -29.7450  -19.2870   20.9030 C   0  0  0  0  0  0  0  0  0  0  0  0
  -30.4320  -16.9410   20.5310 C   0  0  0  0  0  0  0  0  0  0  0  0
  -30.7770  -14.4820   20.1470 C   0  0  0  0  0  0  0  0  0  0  0  0
  -30.3710  -12.3400   19.0090 C   0  0  0  0  0  2  0  0  0  0  0  0
  -29.4010  -12.5900   17.8390 C   0  0  0  0  0  2  0  0  0  0  0  0
  -27.9430  -12.4600   18.3160 C   0  0  0  0  0  2  0  0  0  0  0  0
  -27.6590  -13.2730   19.6070 C   0  0  0  0  0  3  0  0  0  0  0  0
  -28.7540  -13.0600   20.6770 C   0  0  0  0  0  2  0  0  0  0  0  0
  -30.0600  -13.3290   20.0570 N   0  0  0  0  0  0  0  0  0  0  0  0
  -31.8930  -14.5790   19.6320 O   0  0  0  0  0  0  0  0  0  0  0  0
  -30.1700  -15.5360   20.7330 N   0  0  0  0  0  0  0  0  0  0  0  0
  -29.3190  -15.3100   21.2270 H   0  0  0  0  0  0  0  0  0  0  0  0
  -25.2880  -13.8550   20.4070 C   0  0  0  0  0  0  0  0  0  0  0  0
  -24.2340  -13.0750   20.8070 C   0  0  0  0  0  0  0  0  0  0  0  0
  -24.7000  -11.7260   20.7540 C   0  0  0  0  0  0  0  0  0  0  0  0
  -26.3260  -12.9830   20.1340 N   0  0  0  0  0  0  0  0  0  0  0  0
  -25.9790  -11.6960   20.3950 N   0  0  0  0  0  0  0  0  0  0  0  0
  -23.9840  -10.4610   20.9640 C   0  0  0  0  0  0  0  0  0  0  0  0
  -24.4300   -9.5070   21.9050 C   0  0  0  0  0  3  0  0  0  0  0  0
  -23.7160   -8.3070   22.1020 C   0  0  0  0  0  3  0  0  0  0  0  0
  -22.5410   -8.0490   21.3590 C   0  0  0  0  0  0  0  0  0  0  0  0
  -22.1120   -8.9910   20.4080 C   0  0  0  0  0  3  0  0  0  0  0  0
  -22.8250  -10.1850   20.2100 C   0  0  0  0  0  3  0  0  0  0  0  0
  -21.7990   -6.8990   21.4660 O   0  0  0  0  0  0  0  0  0  0  0  0
  -21.7370   -6.1880   22.6380 C   0  0  0  0  0  0  0  0  0  0  0  0
  -21.2790   -6.7720   23.8380 C   0  0  0  0  0  3  0  0  0  0  0  0
  -21.1670   -5.9890   25.0030 C   0  0  0  0  0  3  0  0  0  0  0  0
  -21.4970   -4.6210   24.9680 C   0  0  0  0  0  0  0  0  0  0  0  0
  -21.9450   -4.0340   23.7720 C   0  0  0  0  0  3  0  0  0  0  0  0
  -22.0600   -4.8150   22.6080 C   0  0  0  0  0  0  0  0  0  0  0  0
  -22.4740   -4.2410   21.4530 F   0  0  0  0  0  0  0  0  0  0  0  0
  -21.3780   -3.8660   26.0850 F   0  0  0  0  0  0  0  0  0  0  0  0
  -22.8480  -13.5460   21.1370 C   0  0  0  0  0  0  0  0  0  0  0  0
  -22.1540  -12.8440   22.0270 N   0  0  0  0  0  0  0  0  0  0  0  0
  -22.3880  -14.5760   20.6420 O   0  0  0  0  0  0  0  0  0  0  0  0
  -22.5390  -12.0100   22.4450 H   0  0  0  0  0  0  0  0  0  0  0  0
  -21.2260  -13.1460   22.2920 H   0  0  0  0  0  0  0  0  0  0  0  0
  -25.4470  -15.2250   20.2350 N   0  0  0  0  0  0  0  0  0  0  0  0
  -24.6950  -15.8870   20.3850 H   0  0  0  0  0  0  0  0  0  0  0  0
  -26.2990  -15.6600   19.8960 H   0  0  0  0  0  0  0  0  0  0  0  0
  -30.1110  -23.5050   20.0770 C   0  0  0  0  0  2  0  0  0  0  0  0
  -29.9400  -25.0270   20.1280 C   0  0  0  0  0  2  0  0  0  0  0  0
  -28.4940  -25.4890   19.9520 C   0  0  0  0  0  2  0  0  0  0  0  0
  -28.4940  -26.8950   20.1270 O   0  0  0  0  0  0  0  0  0  0  0  0
  -24.5910  -31.9140   23.2260 C   0  0  0  0  0  0  0  0  0  0  0  0
  -27.2840  -27.5430   20.1280 C   0  0  0  0  0  0  0  0  0  0  0  0
  -23.3930  -30.5090   21.5800 C   0  0  0  0  0  3  0  0  0  0  0  0
  -24.8640  -28.9960   20.1450 C   0  0  0  0  0  0  0  0  0  0  0  0
  -25.9130  -30.9020   21.3790 C   0  0  0  0  0  2  0  0  0  0  0  0
  -26.0100  -29.5370   20.7360 C   0  0  0  0  0  0  0  0  0  0  0  0
  -27.2200  -28.8160   20.7310 C   0  0  0  0  0  3  0  0  0  0  0  0
  -26.1170  -27.0040   19.5310 C   0  0  0  0  0  3  0  0  0  0  0  0
  -24.9100  -27.7270   19.5390 C   0  0  0  0  0  3  0  0  0  0  0  0
  -23.6050  -29.8330   20.1950 C   0  0  0  0  0  2  0  0  0  0  0  0
  -24.6500  -31.1220   22.1200 N   0  0  0  0  0  0  0  0  0  0  0  0
  -23.5110  -32.1760   23.7700 O   0  0  0  0  0  0  0  0  0  0  0  0
  -22.7640  -29.4740   22.5390 C   0  0  0  0  0  0  0  0  0  0  0  0
  -21.4390  -29.2910   22.4210 N   0  0  0  0  0  0  0  0  0  0  0  0
  -23.4590  -28.8440   23.3410 O   0  0  0  0  0  0  0  0  0  0  0  0
  -20.9370  -29.8640   21.7570 H   0  0  0  0  0  0  0  0  0  0  0  0
  -18.0720  -28.0990   22.9200 C   0  0  0  0  0  0  0  0  0  0  0  0
  -20.6280  -28.3460   23.1870 C   0  0  0  0  0  3  0  0  0  0  0  0
  -20.7250  -26.9210   22.5960 C   0  0  0  0  0  2  0  0  0  0  0  0
  -19.6250  -26.6230   21.5740 C   0  0  0  0  0  2  0  0  0  0  0  0
  -18.2400  -26.7630   22.2150 C   0  0  0  0  0  2  0  0  0  0  0  0
  -19.1940  -28.8500   23.3580 C   0  0  0  0  0  0  0  0  0  0  0  0
  -18.9810  -30.1060   23.9660 C   0  0  0  0  0  3  0  0  0  0  0  0
  -17.6790  -30.6110   24.1430 C   0  0  0  0  0  3  0  0  0  0  0  0
  -16.5700  -29.8530   23.7270 C   0  0  0  0  0  3  0  0  0  0  0  0
  -16.7660  -28.6000   23.1210 C   0  0  0  0  0  3  0  0  0  0  0  0
  -25.8750  -32.5510   23.8480 C   0  0  0  0  0  3  0  0  0  0  0  0
  -25.5660  -33.9480   24.1740 N   0  0  0  0  0  0  0  0  0  0  0  0
  -25.8990  -34.9970   23.4120 C   0  0  0  0  0  0  0  0  0  0  0  0
  -26.5810  -34.8930   22.3890 O   0  0  0  0  0  0  0  0  0  0  0  0
  -24.9560  -34.1050   24.9640 H   0  0  0  0  0  0  0  0  0  0  0  0
  -24.1740  -36.7820   23.0300 C   0  0  0  0  0  1  0  0  0  0  0  0
  -25.4030  -36.3830   23.8600 C   0  0  0  0  0  3  0  0  0  0  0  0
  -27.5220  -37.2720   24.7190 C   0  0  0  0  0  1  0  0  0  0  0  0
  -26.4330  -37.4370   23.7620 N   0  0  0  0  0  0  0  0  0  0  0  0
  -26.0220  -38.3570   23.8960 H   0  0  0  0  0  0  0  0  0  0  0  0
  -26.4010  -31.7790   25.1210 C   0  0  1  0  0  0  0  0  0  0  0  0
  -25.3140  -31.5350   26.1900 C   0  0  0  0  0  1  0  0  0  0  0  0
  -26.9960  -30.4060   24.7250 C   0  0  0  0  0  1  0  0  0  0  0  0
  -27.5500  -32.5780   25.7810 C   0  0  0  0  0  1  0  0  0  0  0  0
  1  3  2  0
  2  1  1  0
  2  5  1  0
  4  2  1  0
  6  8  2  0
  6  7  1  0
  7 10  2  0
  8 11  1  0
 10  9  1  0
 10  5  1  0
 11 20  1  0
 11  9  2  0
 12 20  1  0
 13 18  1  0
 14 15  1  0
 14 13  1  0
 16 15  1  0
 16 25  1  0
 16 17  1  0
 18 12  1  0
 18 17  1  0
 19 12  2  0
 20 21  1  0
 22 23  2  0
 23 42  1  0
 24 23  1  0
 24 27  1  0
 25 26  1  0
 25 22  1  0
 26 24  2  0
 27 28  1  0
 28 29  2  0
 30 33  1  0
 30 29  1  0
 31 30  2  0
 32 31  1  0
 32 27  2  0
 33 34  1  0
 34 35  1  0
 35 36  2  0
 37 36  1  0
 37 41  1  0
 38 37  2  0
 39 34  2  0
 39 38  1  0
 40 39  1  0
 42 43  1  0
 43 46  1  0
 43 45  1  0
 44 42  2  0
 47 48  1  0
 47 22  1  0
 49 47  1  0
 50 51  1  0
 50  1  1  0
 52 53  1  0
 52 51  1  0
 53 55  1  0
 54 65  2  0
 55 60  1  0
 56 64  1  0
 56 66  1  0
 57 63  1  0
 57 59  1  0
 58 64  1  0
 59 58  1  0
 60 59  2  0
 61 62  1  0
 61 55  2  0
 62 57  2  0
 63 56  1  0
 64 54  1  0
 66 68  2  0
 67 66  1  0
 69 67  1  0
 70 79  2  0
 70 75  1  0
 71 67  1  0
 71 75  1  0
 72 71  1  0
 73 74  1  0
 73 72  1  0
 74 70  1  0
 75 76  2  0
 76 77  1  0
 78 77  2  0
 79 78  1  0
 80 54  1  0
 80 81  1  0
 80 90  1  0
 81 84  1  0
 82 86  1  0
 82 81  1  0
 83 82  2  0
 86 85  1  0
 88 86  1  0
 88 89  1  0
 88 87  1  0
 90 93  1  1
 90 91  1  0
 92 90  1  0
M  ISO  4  12 100  20 100  52 101  53 101
M  END
>  <TORSDO>  (15) 
F 21

>  <SCORE>  (15) 
-12.996

>  <name>  (15) 
14

>  <ligand_id>  (15) 
14

>  <original_smiles>  (15) 
[H]c1c([H])c(N([H])C(=O)N2C([H])([H])C([H])([H])C([H])([H])C([H])(n3nc(-c4c([H])c([H])c(Oc5c([H])c([H])c(F)c([H])c5F)c([H])c4[H])c(C(=O)N([H])[H])c3N([H])[H])C2([H])[H])c([H])c(C([H])([H])N([H])C(=O)C([H])([H])C([H])([H])C([H])([H])Oc2c([H])c([H])c3c(c2[H])C([H])([H])N(C(=O)C([H])(N([H])C(=O)C([H])(N([H])C([H])([H])[H])C([H])([H])[H])C(C([H])([H])[H])(C([H])([H])[H])C([H])([H])[H])C([H])(C(=O)N([H])C2([H])c4c([H])c([H])c([H])c([H])c4C([H])([H])C([H])([H])C2([H])[H])C3([H])[H])c1[H]

>  <smiles>  (15) 
[H]c1c([H])c(N([H])C(=O)N2C([H])([H])C([H])([H])C([H])([H])C([H])(n3nc(-c4c([H])c([H])c(Oc5c([H])c([H])c(F)c([H])c5F)c([H])c4[H])c(C(=O)N([H])[H])c3N([H])[H])C2([H])[H])c([H])c(C([H])([H])N([H])C(=O)C([H])([H])C([H])([H])C([H])([H])Oc2c([H])c([H])c3c(c2[H])C([H])([H])N(C(=O)C([H])(N([H])C(=O)C([H])(N([H])C([H])([H])[H])C([H])([H])[H])C(C([H])([H])[H])(C([H])([H])[H])C([H])([H])[H])C([H])(C(=O)N([H])C2([H])c4c([H])c([H])c([H])c([H])c4C([H])([H])C([H])([H])C2([H])[H])C3([H])[H])c1[H]

$$$$
15:0:0
     RDKit          3D

 93101  0  0  1  0  0  0  0  0999 V2000
  -28.8070  -22.2400   19.8350 C   0  0  0  0  0  0  0  0  0  0  0  0
  -29.3910  -21.1190   20.4130 N   0  0  0  0  0  0  0  0  0  0  0  0
  -28.0410  -22.1010   18.8790 O   0  0  0  0  0  0  0  0  0  0  0  0
  -29.7960  -21.2760   21.3250 H   0  0  0  0  0  0  0  0  0  0  0  0
  -29.6060  -18.5070   20.5740 C   0  0  0  0  0  3  0  0  0  0  0  0
  -30.3570  -17.2400   18.6360 C   0  0  0  0  0  3  0  0  0  0  0  0
  -29.9710  -17.2170   19.9960 C   0  0  0  0  0  0  0  0  0  0  0  0
  -29.6470  -19.7680   19.8360 C   0  0  0  0  0  0  0  0  0  0  0  0
  -30.4150  -18.4380   17.9030 C   0  0  0  0  0  0  0  0  0  0  0  0
  -30.0870  -19.6770   18.4880 C   0  0  0  0  0  0  0  0  0  0  0  0
  -30.8160  -18.3980   16.6090 F   0  0  0  0  0  0  0  0  0  0  0  0
  -30.2530  -20.7920   17.7360 F   0  0  0  0  0  0  0  0  0  0  0  0
  -30.6350  -14.7460   20.3950 C   0  0  0  0  0  0  0  0  0  0  0  0
  -30.4300  -12.4690   19.4140 C   0  0  0  0  0  2  0  0  0  0  0  0
  -29.5280  -12.5870   18.1650 C   0  0  0  0  0  2  0  0  0  0  0  0
  -28.0440  -12.4310   18.5530 C   0  0  0  0  0  2  0  0  0  0  0  0
  -27.6550  -13.3020   19.7780 C   0  0  0  0  0  3  0  0  0  0  0  0
  -28.6880  -13.1950   20.9230 C   0  0  0  0  0  2  0  0  0  0  0  0
  -30.0050  -13.5240   20.3620 N   0  0  0  0  0  0  0  0  0  0  0  0
  -31.8130  -14.8370   20.0390 O   0  0  0  0  0  0  0  0  0  0  0  0
  -29.8930  -15.8890   20.6610 N   0  0  0  0  0  0  0  0  0  0  0  0
  -29.0520  -15.7280   21.1960 H   0  0  0  0  0  0  0  0  0  0  0  0
  -25.2480  -13.8920   20.4450 C   0  0  0  0  0  0  0  0  0  0  0  0
  -24.1760  -13.1190   20.8040 C   0  0  0  0  0  0  0  0  0  0  0  0
  -24.6460  -11.7700   20.8050 C   0  0  0  0  0  0  0  0  0  0  0  0
  -26.3000  -13.0140   20.2410 N   0  0  0  0  0  0  0  0  0  0  0  0
  -25.9430  -11.7330   20.5220 N   0  0  0  0  0  0  0  0  0  0  0  0
  -23.9200  -10.5080   21.0010 C   0  0  0  0  0  0  0  0  0  0  0  0
  -24.3390   -9.5540   21.9540 C   0  0  0  0  0  3  0  0  0  0  0  0
  -23.6110   -8.3580   22.1400 C   0  0  0  0  0  3  0  0  0  0  0  0
  -22.4500   -8.1070   21.3700 C   0  0  0  0  0  0  0  0  0  0  0  0
  -22.0500   -9.0500   20.4070 C   0  0  0  0  0  3  0  0  0  0  0  0
  -22.7790  -10.2370   20.2200 C   0  0  0  0  0  3  0  0  0  0  0  0
  -21.6950   -6.9620   21.4620 O   0  0  0  0  0  0  0  0  0  0  0  0
  -21.6310   -6.2330   22.6230 C   0  0  0  0  0  0  0  0  0  0  0  0
  -21.1900   -6.8030   23.8380 C   0  0  0  0  0  3  0  0  0  0  0  0
  -21.0730   -6.0010   24.9900 C   0  0  0  0  0  3  0  0  0  0  0  0
  -21.3880   -4.6310   24.9300 C   0  0  0  0  0  0  0  0  0  0  0  0
  -21.8220   -4.0600   23.7210 C   0  0  0  0  0  3  0  0  0  0  0  0
  -21.9410   -4.8590   22.5700 C   0  0  0  0  0  0  0  0  0  0  0  0
  -22.3390   -4.2990   21.4030 F   0  0  0  0  0  0  0  0  0  0  0  0
  -21.2680   -3.8580   26.0350 F   0  0  0  0  0  0  0  0  0  0  0  0
  -22.7720  -13.5940   21.0390 C   0  0  0  0  0  0  0  0  0  0  0  0
  -22.0300  -12.9090   21.9010 N   0  0  0  0  0  0  0  0  0  0  0  0
  -22.3410  -14.6100   20.4930 O   0  0  0  0  0  0  0  0  0  0  0  0
  -22.3900  -12.0870   22.3630 H   0  0  0  0  0  0  0  0  0  0  0  0
  -21.0870  -13.2100   22.1020 H   0  0  0  0  0  0  0  0  0  0  0  0
  -25.4140  -15.2610   20.2540 N   0  0  0  0  0  0  0  0  0  0  0  0
  -24.6510  -15.9220   20.3580 H   0  0  0  0  0  0  0  0  0  0  0  0
  -26.2740  -15.6980   19.9470 H   0  0  0  0  0  0  0  0  0  0  0  0
  -29.0550  -23.7350   20.3660 C   0  0  0  0  0  3  0  0  0  0  0  0
  -27.9950  -24.9060   20.0080 C   0  0  0  0  0  3  0  0  0  0  0  0
  -28.2650  -26.3780   20.2050 O   0  0  0  0  0  0  0  0  0  0  0  0
  -24.5880  -31.8820   23.2200 C   0  0  0  0  0  0  0  0  0  0  0  0
  -27.1730  -27.2810   20.1490 C   0  0  0  0  0  0  0  0  0  0  0  0
  -23.3840  -30.4880   21.5820 C   0  0  0  0  0  3  0  0  0  0  0  0
  -24.8280  -28.9430   20.1470 C   0  0  0  0  0  0  0  0  0  0  0  0
  -25.9310  -30.7940   21.3950 C   0  0  0  0  0  2  0  0  0  0  0  0
  -26.0070  -29.4140   20.7390 C   0  0  0  0  0  0  0  0  0  0  0  0
  -27.1860  -28.5990   20.7190 C   0  0  0  0  0  3  0  0  0  0  0  0
  -25.9640  -26.8780   19.5350 C   0  0  0  0  0  3  0  0  0  0  0  0
  -24.8130  -27.6850   19.5310 C   0  0  0  0  0  3  0  0  0  0  0  0
  -23.5970  -29.8250   20.1980 C   0  0  0  0  0  2  0  0  0  0  0  0
  -24.6550  -31.0720   22.1210 N   0  0  0  0  0  0  0  0  0  0  0  0
  -23.5050  -32.1550   23.7550 O   0  0  0  0  0  0  0  0  0  0  0  0
  -22.7210  -29.4670   22.5400 C   0  0  0  0  0  0  0  0  0  0  0  0
  -21.3940  -29.2870   22.4160 N   0  0  0  0  0  0  0  0  0  0  0  0
  -23.4000  -28.8410   23.3580 O   0  0  0  0  0  0  0  0  0  0  0  0
  -20.9060  -29.8440   21.7290 H   0  0  0  0  0  0  0  0  0  0  0  0
  -18.0160  -28.0830   22.9130 C   0  0  0  0  0  0  0  0  0  0  0  0
  -20.5750  -28.3490   23.1870 C   0  0  0  0  0  3  0  0  0  0  0  0
  -20.6810  -26.9160   22.6150 C   0  0  0  0  0  2  0  0  0  0  0  0
  -19.5820  -26.5890   21.6000 C   0  0  0  0  0  2  0  0  0  0  0  0
  -18.1980  -26.7340   22.2400 C   0  0  0  0  0  2  0  0  0  0  0  0
  -19.1320  -28.8490   23.3430 C   0  0  0  0  0  0  0  0  0  0  0  0
  -18.9050  -30.1130   23.9330 C   0  0  0  0  0  3  0  0  0  0  0  0
  -17.5980  -30.6090   24.0930 C   0  0  0  0  0  3  0  0  0  0  0  0
  -16.4970  -29.8400   23.6780 C   0  0  0  0  0  3  0  0  0  0  0  0
  -16.7080  -28.5770   23.0960 C   0  0  0  0  0  3  0  0  0  0  0  0
  -25.8690  -32.5190   23.8420 C   0  0  0  0  0  3  0  0  0  0  0  0
  -26.3800  -31.7530   25.1230 C   0  0  1  0  0  0  0  0  0  0  0  0
  -25.2840  -31.5210   26.1890 C   0  0  0  0  0  1  0  0  0  0  0  0
  -26.9580  -30.3720   24.7360 C   0  0  0  0  0  1  0  0  0  0  0  0
  -27.5330  -32.5470   25.7810 C   0  0  0  0  0  1  0  0  0  0  0  0
  -25.5570  -33.9180   24.1700 N   0  0  0  0  0  0  0  0  0  0  0  0
  -25.8970  -34.9710   23.4150 C   0  0  0  0  0  0  0  0  0  0  0  0
  -26.5730  -34.8640   22.3880 O   0  0  0  0  0  0  0  0  0  0  0  0
  -24.9640  -34.0740   24.9710 H   0  0  0  0  0  0  0  0  0  0  0  0
  -24.1840  -36.7720   23.0410 C   0  0  0  0  0  1  0  0  0  0  0  0
  -25.4120  -36.3610   23.8700 C   0  0  0  0  0  3  0  0  0  0  0  0
  -27.5400  -37.2290   24.7350 C   0  0  0  0  0  1  0  0  0  0  0  0
  -26.4520  -37.4080   23.7770 N   0  0  0  0  0  0  0  0  0  0  0  0
  -26.0510  -38.3290   23.9220 H   0  0  0  0  0  0  0  0  0  0  0  0
  1 51  1  0
  1  2  1  0
  2  4  1  0
  3  1  2  0
  6  7  2  0
  7  5  1  0
  7 21  1  0
  8  2  1  0
  8  5  2  0
  9 10  2  0
  9  6  1  0
 10  8  1  0
 11  9  1  0
 12 10  1  0
 13 21  1  0
 14 19  1  0
 15 16  1  0
 15 14  1  0
 17 16  1  0
 17 26  1  0
 17 18  1  0
 19 13  1  0
 19 18  1  0
 20 13  2  0
 21 22  1  0
 23 24  2  0
 24 25  1  0
 24 43  1  0
 25 28  1  0
 26 23  1  0
 26 27  1  0
 27 25  2  0
 28 29  1  0
 29 30  2  0
 31 34  1  0
 31 30  1  0
 32 31  2  0
 33 32  1  0
 33 28  2  0
 34 35  1  0
 35 36  1  0
 36 37  2  0
 38 37  1  0
 38 42  1  0
 39 38  2  0
 40 35  2  0
 40 39  1  0
 41 40  1  0
 43 44  1  0
 44 47  1  0
 44 46  1  0
 45 43  2  0
 48 49  1  0
 48 23  1  0
 50 48  1  0
 52 53  1  0
 52 51  2  0
 54 65  2  0
 55 53  1  0
 55 60  1  0
 56 64  1  0
 56 66  1  0
 57 63  1  0
 57 59  1  0
 58 64  1  0
 59 58  1  0
 60 59  2  0
 61 55  2  0
 62 61  1  0
 62 57  2  0
 63 56  1  0
 64 54  1  0
 66 68  2  0
 67 66  1  0
 69 67  1  0
 70 79  2  0
 70 75  1  0
 71 67  1  0
 71 75  1  0
 72 71  1  0
 73 74  1  0
 73 72  1  0
 74 70  1  0
 75 76  2  0
 76 77  1  0
 78 77  2  0
 79 78  1  0
 80 54  1  0
 80 85  1  0
 80 81  1  0
 81 84  1  1
 81 82  1  0
 83 81  1  0
 85 88  1  0
 86 90  1  0
 86 85  1  0
 87 86  2  0
 90 89  1  0
 92 90  1  0
 92 93  1  0
 92 91  1  0
M  ISO  4  13 100  21 100  52 101  53 101
M  END
>  <TORSDO>  (16) 
F 19

>  <SCORE>  (16) 
-14.264

>  <name>  (16) 
15

>  <ligand_id>  (16) 
15

>  <original_smiles>  (16) 
[H]c1c([H])c([H])c2c(c1[H])C([H])([H])C([H])([H])C([H])([H])C2([H])N([H])C(=O)C1([H])N(C(=O)C([H])(N([H])C(=O)C([H])(N([H])C([H])([H])[H])C([H])([H])[H])C(C([H])([H])[H])(C([H])([H])[H])C([H])([H])[H])C([H])([H])c2c([H])c(OC([H])([H])C([H])([H])C(=O)N([H])c3c([H])c(N([H])C(=O)N4C([H])([H])C([H])([H])C([H])([H])C([H])(n5nc(-c6c([H])c([H])c(Oc7c([H])c([H])c(F)c([H])c7F)c([H])c6[H])c(C(=O)N([H])[H])c5N([H])[H])C4([H])[H])c([H])c(F)c3F)c([H])c([H])c2C1([H])[H]

>  <smiles>  (16) 
[H]c1c([H])c([H])c2c(c1[H])C([H])([H])C([H])([H])C([H])([H])C2([H])N([H])C(=O)C1([H])N(C(=O)C([H])(N([H])C(=O)C([H])(N([H])C([H])([H])[H])C([H])([H])[H])C(C([H])([H])[H])(C([H])([H])[H])C([H])([H])[H])C([H])([H])c2c([H])c(OC([H])([H])C([H])([H])C(=O)N([H])c3c([H])c(N([H])C(=O)N4C([H])([H])C([H])([H])C([H])([H])C([H])(n5nc(-c6c([H])c([H])c(Oc7c([H])c([H])c(F)c([H])c7F)c([H])c6[H])c(C(=O)N([H])[H])c5N([H])[H])C4([H])[H])c([H])c(F)c3F)c([H])c([H])c2C1([H])[H]

$$$$
16:0:0
     RDKit          3D

 93101  0  0  1  0  0  0  0  0999 V2000
  -29.4120  -22.4720   20.0010 C   0  0  0  0  0  0  0  0  0  0  0  0
  -29.0410  -21.1360   20.1890 N   0  0  0  0  0  0  0  0  0  0  0  0
  -30.5270  -22.7360   19.5420 O   0  0  0  0  0  0  0  0  0  0  0  0
  -28.0470  -20.9990   20.3160 H   0  0  0  0  0  0  0  0  0  0  0  0
  -31.1490  -20.0300   20.9550 C   0  0  0  0  0  3  0  0  0  0  0  0
  -31.9050  -18.9070   21.3410 C   0  0  0  0  0  3  0  0  0  0  0  0
  -29.4040  -18.5190   20.1620 C   0  0  0  0  0  0  0  0  0  0  0  0
  -29.8580  -19.8980   20.3880 C   0  0  0  0  0  0  0  0  0  0  0  0
  -30.1880  -17.3330   20.5360 C   0  0  0  0  0  0  0  0  0  0  0  0
  -31.4290  -17.5930   21.1730 C   0  0  0  0  0  0  0  0  0  0  0  0
  -28.0590  -18.3260   19.4780 C   0  0  0  0  0  1  0  0  0  0  0  0
  -32.1720  -16.5840   21.6860 F   0  0  0  0  0  0  0  0  0  0  0  0
  -30.4670  -14.7710   20.0300 C   0  0  0  0  0  0  0  0  0  0  0  0
  -30.1650  -12.5510   18.9190 C   0  0  0  0  0  2  0  0  0  0  0  0
  -29.1440  -12.6830   17.7690 C   0  0  0  0  0  2  0  0  0  0  0  0
  -27.7120  -12.4780   18.2920 C   0  0  0  0  0  2  0  0  0  0  0  0
  -27.4220  -13.3150   19.5650 C   0  0  0  0  0  3  0  0  0  0  0  0
  -28.5550  -13.1780   20.6060 C   0  0  0  0  0  2  0  0  0  0  0  0
  -29.8110  -13.5600   19.9460 N   0  0  0  0  0  0  0  0  0  0  0  0
  -31.6080  -14.8600   19.5750 O   0  0  0  0  0  0  0  0  0  0  0  0
  -29.7480  -15.9090   20.3920 N   0  0  0  0  0  0  0  0  0  0  0  0
  -28.7770  -15.7350   20.6050 H   0  0  0  0  0  0  0  0  0  0  0  0
  -25.0740  -13.8710   20.4450 C   0  0  0  0  0  0  0  0  0  0  0  0
  -24.0400  -13.0810   20.8650 C   0  0  0  0  0  0  0  0  0  0  0  0
  -24.5140  -11.7340   20.7820 C   0  0  0  0  0  0  0  0  0  0  0  0
  -26.1100  -13.0050   20.1320 N   0  0  0  0  0  0  0  0  0  0  0  0
  -25.7840  -11.7150   20.3960 N   0  0  0  0  0  0  0  0  0  0  0  0
  -23.8100  -10.4630   20.9940 C   0  0  0  0  0  0  0  0  0  0  0  0
  -24.2920   -9.4900   21.8980 C   0  0  0  0  0  3  0  0  0  0  0  0
  -23.5870   -8.2840   22.0940 C   0  0  0  0  0  3  0  0  0  0  0  0
  -22.3850   -8.0390   21.3880 C   0  0  0  0  0  0  0  0  0  0  0  0
  -21.9230   -8.9980   20.4700 C   0  0  0  0  0  3  0  0  0  0  0  0
  -22.6290  -10.1980   20.2710 C   0  0  0  0  0  3  0  0  0  0  0  0
  -21.6490   -6.8860   21.4970 O   0  0  0  0  0  0  0  0  0  0  0  0
  -21.6510   -6.1340   22.6450 C   0  0  0  0  0  0  0  0  0  0  0  0
  -21.2650   -6.6770   23.8900 C   0  0  0  0  0  3  0  0  0  0  0  0
  -21.2150   -5.8530   25.0320 C   0  0  0  0  0  3  0  0  0  0  0  0
  -21.5420   -4.4880   24.9310 C   0  0  0  0  0  0  0  0  0  0  0  0
  -21.9210   -3.9430   23.6910 C   0  0  0  0  0  3  0  0  0  0  0  0
  -21.9720   -4.7650   22.5510 C   0  0  0  0  0  0  0  0  0  0  0  0
  -22.3180   -4.2310   21.3540 F   0  0  0  0  0  0  0  0  0  0  0  0
  -21.4870   -3.6930   26.0260 F   0  0  0  0  0  0  0  0  0  0  0  0
  -22.6580  -13.5390   21.2290 C   0  0  0  0  0  0  0  0  0  0  0  0
  -21.9890  -12.8200   22.1230 N   0  0  0  0  0  0  0  0  0  0  0  0
  -22.1830  -14.5710   20.7590 O   0  0  0  0  0  0  0  0  0  0  0  0
  -22.3870  -11.9860   22.5290 H   0  0  0  0  0  0  0  0  0  0  0  0
  -21.0620  -13.1080   22.4080 H   0  0  0  0  0  0  0  0  0  0  0  0
  -25.2170  -15.2460   20.2810 N   0  0  0  0  0  0  0  0  0  0  0  0
  -24.4420  -15.8860   20.4240 H   0  0  0  0  0  0  0  0  0  0  0  0
  -26.0330  -15.6940   19.8850 H   0  0  0  0  0  0  0  0  0  0  0  0
  -28.4420  -23.7190   20.3340 C   0  0  0  0  0  2  0  0  0  0  0  0
  -28.6060  -25.1760   19.6080 C   0  0  0  0  0  2  0  0  0  0  0  0
  -28.3760  -26.5030   20.2830 O   0  0  0  0  0  0  0  0  0  0  0  0
  -24.5990  -31.9280   23.2340 C   0  0  0  0  0  0  0  0  0  0  0  0
  -27.2240  -27.3190   20.1950 C   0  0  0  0  0  0  0  0  0  0  0  0
  -23.3910  -30.5230   21.5970 C   0  0  0  0  0  3  0  0  0  0  0  0
  -24.8430  -28.9380   20.1890 C   0  0  0  0  0  0  0  0  0  0  0  0
  -25.9360  -30.8210   21.4220 C   0  0  0  0  0  2  0  0  0  0  0  0
  -26.0120  -29.4370   20.7750 C   0  0  0  0  0  0  0  0  0  0  0  0
  -27.1960  -28.6370   20.7650 C   0  0  0  0  0  3  0  0  0  0  0  0
  -26.0230  -26.8670   19.6050 C   0  0  0  0  0  3  0  0  0  0  0  0
  -24.8490  -27.6570   19.6060 C   0  0  0  0  0  3  0  0  0  0  0  0
  -23.6100  -29.8240   20.2260 C   0  0  0  0  0  2  0  0  0  0  0  0
  -24.6600  -31.1130   22.1380 N   0  0  0  0  0  0  0  0  0  0  0  0
  -23.5180  -32.2130   23.7670 O   0  0  0  0  0  0  0  0  0  0  0  0
  -22.7170  -29.5250   22.5670 C   0  0  0  0  0  0  0  0  0  0  0  0
  -21.3890  -29.3630   22.4460 N   0  0  0  0  0  0  0  0  0  0  0  0
  -23.3900  -28.8970   23.3880 O   0  0  0  0  0  0  0  0  0  0  0  0
  -20.9090  -29.9190   21.7520 H   0  0  0  0  0  0  0  0  0  0  0  0
  -18.0000  -28.2000   22.9560 C   0  0  0  0  0  0  0  0  0  0  0  0
  -20.5620  -28.4360   23.2200 C   0  0  0  0  0  3  0  0  0  0  0  0
  -20.6490  -27.0020   22.6490 C   0  0  0  0  0  2  0  0  0  0  0  0
  -19.5410  -26.6870   21.6370 C   0  0  0  0  0  2  0  0  0  0  0  0
  -18.1610  -26.8480   22.2830 C   0  0  0  0  0  2  0  0  0  0  0  0
  -19.1270  -28.9520   23.3820 C   0  0  0  0  0  0  0  0  0  0  0  0
  -18.9230  -30.2180   23.9730 C   0  0  0  0  0  3  0  0  0  0  0  0
  -17.6220  -30.7310   24.1440 C   0  0  0  0  0  3  0  0  0  0  0  0
  -16.5090  -29.9760   23.7350 C   0  0  0  0  0  3  0  0  0  0  0  0
  -16.6990  -28.7140   23.1450 C   0  0  0  0  0  3  0  0  0  0  0  0
  -25.8840  -32.5540   23.8570 C   0  0  0  0  0  3  0  0  0  0  0  0
  -26.3960  -31.7840   25.1360 C   0  0  1  0  0  0  0  0  0  0  0  0
  -25.3020  -31.5600   26.2070 C   0  0  0  0  0  1  0  0  0  0  0  0
  -26.9750  -30.4030   24.7530 C   0  0  0  0  0  1  0  0  0  0  0  0
  -27.5490  -32.5760   25.7980 C   0  0  0  0  0  1  0  0  0  0  0  0
  -25.5820  -33.9540   24.1920 N   0  0  0  0  0  0  0  0  0  0  0  0
  -25.9160  -35.0090   23.4360 C   0  0  0  0  0  0  0  0  0  0  0  0
  -26.5810  -34.9040   22.4010 O   0  0  0  0  0  0  0  0  0  0  0  0
  -24.9890  -34.1090   24.9940 H   0  0  0  0  0  0  0  0  0  0  0  0
  -24.1930  -36.8100   23.0940 C   0  0  0  0  0  1  0  0  0  0  0  0
  -25.4370  -36.3990   23.9010 C   0  0  0  0  0  3  0  0  0  0  0  0
  -27.5790  -37.2740   24.7160 C   0  0  0  0  0  1  0  0  0  0  0  0
  -26.4720  -37.4500   23.7820 N   0  0  0  0  0  0  0  0  0  0  0  0
  -26.0700  -38.3720   23.9330 H   0  0  0  0  0  0  0  0  0  0  0  0
  1  2  1  0
  1 51  1  0
  2  4  1  0
  2  8  1  0
  3  1  2  0
  5  6  1  0
  7  8  1  0
  7  9  2  0
  8  5  2  0
  9 10  1  0
 10  6  2  0
 10 12  1  0
 11  7  1  0
 13 21  1  0
 14 19  1  0
 15 16  1  0
 15 14  1  0
 17 16  1  0
 17 26  1  0
 17 18  1  0
 19 13  1  0
 19 18  1  0
 20 13  2  0
 21  9  1  0
 21 22  1  0
 23 24  2  0
 24 43  1  0
 25 24  1  0
 25 28  1  0
 26 27  1  0
 26 23  1  0
 27 25  2  0
 28 29  1  0
 29 30  2  0
 31 34  1  0
 31 30  1  0
 32 31  2  0
 33 32  1  0
 33 28  2  0
 34 35  1  0
 35 36  1  0
 36 37  2  0
 38 37  1  0
 38 42  1  0
 39 38  2  0
 40 35  2  0
 40 39  1  0
 41 40  1  0
 43 44  1  0
 44 47  1  0
 44 46  1  0
 45 43  2  0
 48 49  1  0
 48 23  1  0
 50 48  1  0
 52 53  1  0
 52 51  1  0
 54 65  2  0
 55 53  1  0
 55 60  1  0
 56 64  1  0
 56 66  1  0
 57 63  1  0
 57 59  1  0
 58 64  1  0
 59 58  1  0
 60 59  2  0
 61 62  1  0
 61 55  2  0
 62 57  2  0
 63 56  1  0
 64 54  1  0
 66 68  2  0
 67 66  1  0
 69 67  1  0
 70 79  2  0
 70 75  1  0
 71 67  1  0
 71 75  1  0
 72 71  1  0
 73 74  1  0
 73 72  1  0
 74 70  1  0
 75 76  2  0
 76 77  1  0
 78 77  2  0
 79 78  1  0
 80 54  1  0
 80 85  1  0
 80 81  1  0
 81 84  1  1
 81 82  1  0
 83 81  1  0
 85 88  1  0
 86 90  1  0
 86 85  1  0
 87 86  2  0
 90 89  1  0
 92 90  1  0
 92 93  1  0
 92 91  1  0
M  ISO  4  13 100  21 100  52 101  53 101
M  END
>  <TORSDO>  (17) 
F 19

>  <SCORE>  (17) 
-14.033

>  <name>  (17) 
16

>  <ligand_id>  (17) 
16

>  <original_smiles>  (17) 
[H]c1c([H])c([H])c2c(c1[H])C([H])([H])C([H])([H])C([H])([H])C2([H])N([H])C(=O)C1([H])N(C(=O)C([H])(N([H])C(=O)C([H])(N([H])C([H])([H])[H])C([H])([H])[H])C(C([H])([H])[H])(C([H])([H])[H])C([H])([H])[H])C([H])([H])c2c([H])c(OC([H])([H])C([H])([H])C(=O)N([H])c3c([H])c([H])c(F)c(N([H])C(=O)N4C([H])([H])C([H])([H])C([H])([H])C([H])(n5nc(-c6c([H])c([H])c(Oc7c([H])c([H])c(F)c([H])c7F)c([H])c6[H])c(C(=O)N([H])[H])c5N([H])[H])C4([H])[H])c3C([H])([H])[H])c([H])c([H])c2C1([H])[H]

>  <smiles>  (17) 
[H]c1c([H])c([H])c2c(c1[H])C([H])([H])C([H])([H])C([H])([H])C2([H])N([H])C(=O)C1([H])N(C(=O)C([H])(N([H])C(=O)C([H])(N([H])C([H])([H])[H])C([H])([H])[H])C(C([H])([H])[H])(C([H])([H])[H])C([H])([H])[H])C([H])([H])c2c([H])c(OC([H])([H])C([H])([H])C(=O)N([H])c3c([H])c([H])c(F)c(N([H])C(=O)N4C([H])([H])C([H])([H])C([H])([H])C([H])(n5nc(-c6c([H])c([H])c(Oc7c([H])c([H])c(F)c([H])c7F)c([H])c6[H])c(C(=O)N([H])[H])c5N([H])[H])C4([H])[H])c3C([H])([H])[H])c([H])c([H])c2C1([H])[H]

$$$$
17:0:0
     RDKit          3D

 94102  0  0  1  0  0  0  0  0999 V2000
  -26.8240  -19.8770   20.7470 C   0  0  0  0  0  1  0  0  0  0  0  0
  -27.5980  -21.1090   20.7410 N   0  0  0  0  0  2  0  0  0  0  0  0
  -28.5190  -21.1310   18.2500 O   0  0  0  0  0  1  0  0  0  0  0  0
  -28.7680  -21.1980   19.6990 S   0  0  2  0  0  0  0  0  0  0  0  0
  -32.1650  -19.2200   21.0890 C   0  0  0  0  0  3  0  0  0  0  0  0
  -31.9020  -17.8510   20.8480 C   0  0  0  0  0  3  0  0  0  0  0  0
  -31.2380  -20.2270   20.7320 C   0  0  0  0  0  3  0  0  0  0  0  0
  -29.7670  -18.4730   19.8780 C   0  0  0  0  0  3  0  0  0  0  0  0
  -30.6970  -17.4270   20.2400 C   0  0  0  0  0  0  0  0  0  0  0  0
  -30.0240  -19.8740   20.1150 C   0  0  0  0  0  0  0  0  0  0  0  0
  -31.2090  -14.8800   19.9930 C   0  0  0  0  0  0  0  0  0  0  0  0
  -30.9590  -12.5580   19.1140 C   0  0  0  0  0  2  0  0  0  0  0  0
  -29.9890  -12.5900   17.9150 C   0  0  0  0  0  2  0  0  0  0  0  0
  -28.5240  -12.4770   18.3840 C   0  0  0  0  0  2  0  0  0  0  0  0
  -28.1980  -13.4400   19.5550 C   0  0  0  0  0  3  0  0  0  0  0  0
  -29.2820  -13.3860   20.6530 C   0  0  0  0  0  2  0  0  0  0  0  0
  -30.5720  -13.6650   20.0110 N   0  0  0  0  0  0  0  0  0  0  0  0
  -32.3920  -14.9660   19.6490 O   0  0  0  0  0  0  0  0  0  0  0  0
  -30.3970  -15.9920   20.0950 N   0  0  0  0  0  0  0  0  0  0  0  0
  -29.4170  -15.7590   20.0920 H   0  0  0  0  0  0  0  0  0  0  0  0
  -25.8940  -14.1470   20.4410 C   0  0  0  0  0  0  0  0  0  0  0  0
  -24.7980  -13.4220   20.8210 C   0  0  0  0  0  0  0  0  0  0  0  0
  -25.1610  -12.0480   20.6800 C   0  0  0  0  0  0  0  0  0  0  0  0
  -26.8610  -13.2160   20.0950 N   0  0  0  0  0  0  0  0  0  0  0  0
  -26.4290  -11.9450   20.2990 N   0  0  0  0  0  0  0  0  0  0  0  0
  -24.3590  -10.8280   20.8280 C   0  0  0  0  0  0  0  0  0  0  0  0
  -24.7050   -9.8220   21.7570 C   0  0  0  0  0  3  0  0  0  0  0  0
  -23.9040   -8.6680   21.8930 C   0  0  0  0  0  3  0  0  0  0  0  0
  -22.7430   -8.5100   21.1000 C   0  0  0  0  0  0  0  0  0  0  0  0
  -22.4150   -9.5040   20.1610 C   0  0  0  0  0  3  0  0  0  0  0  0
  -23.2160  -10.6490   20.0230 C   0  0  0  0  0  3  0  0  0  0  0  0
  -21.9210   -7.4100   21.1460 O   0  0  0  0  0  0  0  0  0  0  0  0
  -21.7290   -6.7020   22.3050 C   0  0  0  0  0  0  0  0  0  0  0  0
  -21.1560   -7.2930   23.4520 C   0  0  0  0  0  3  0  0  0  0  0  0
  -20.9120   -6.5110   24.5980 C   0  0  0  0  0  3  0  0  0  0  0  0
  -21.2300   -5.1390   24.5980 C   0  0  0  0  0  0  0  0  0  0  0  0
  -21.7960   -4.5480   23.4550 C   0  0  0  0  0  3  0  0  0  0  0  0
  -22.0410   -5.3280   22.3110 C   0  0  0  0  0  0  0  0  0  0  0  0
  -22.5650   -4.7480   21.2040 F   0  0  0  0  0  0  0  0  0  0  0  0
  -20.9900   -4.3870   25.6970 F   0  0  0  0  0  0  0  0  0  0  0  0
  -23.4510  -13.9730   21.1950 C   0  0  0  0  0  0  0  0  0  0  0  0
  -22.7210  -13.2730   22.0590 N   0  0  0  0  0  0  0  0  0  0  0  0
  -23.0600  -15.0530   20.7580 O   0  0  0  0  0  0  0  0  0  0  0  0
  -23.0510  -12.3990   22.4380 H   0  0  0  0  0  0  0  0  0  0  0  0
  -21.8180  -13.6220   22.3460 H   0  0  0  0  0  0  0  0  0  0  0  0
  -26.1440  -15.5130   20.3370 N   0  0  0  0  0  0  0  0  0  0  0  0
  -25.4150  -16.1990   20.5000 H   0  0  0  0  0  0  0  0  0  0  0  0
  -26.9710  -15.9160   19.9200 H   0  0  0  0  0  0  0  0  0  0  0  0
  -28.8540  -24.1010   19.5230 C   0  0  0  0  0  0  0  0  0  0  0  0
  -29.3100  -22.8610   20.1000 N   0  0  0  0  0  0  0  0  0  0  0  0
  -28.4510  -24.1490   18.3570 O   0  0  0  0  0  0  0  0  0  0  0  0
  -29.5880  -22.9040   21.0820 H   0  0  0  0  0  0  0  0  0  0  0  0
  -28.8010  -25.4010   20.4210 C   0  0  0  0  0  2  0  0  0  0  0  0
  -28.7890  -26.7100   19.7240 O   0  0  0  0  0  0  0  0  0  0  0  0
  -24.6820  -31.5890   23.1050 C   0  0  0  0  0  0  0  0  0  0  0  0
  -27.6170  -27.4660   19.7740 C   0  0  0  0  0  0  0  0  0  0  0  0
  -23.5910  -30.2580   21.3330 C   0  0  0  0  0  3  0  0  0  0  0  0
  -25.1550  -28.9060   19.8290 C   0  0  0  0  0  0  0  0  0  0  0  0
  -26.1030  -30.7500   21.2190 C   0  0  0  0  0  2  0  0  0  0  0  0
  -26.2790  -29.4280   20.4810 C   0  0  0  0  0  0  0  0  0  0  0  0
  -27.5160  -28.7220   20.4400 C   0  0  0  0  0  3  0  0  0  0  0  0
  -26.4690  -26.9780   19.1150 C   0  0  0  0  0  3  0  0  0  0  0  0
  -25.2500  -27.6840   19.1380 C   0  0  0  0  0  3  0  0  0  0  0  0
  -23.8680  -29.7000   19.9110 C   0  0  0  0  0  2  0  0  0  0  0  0
  -24.8090  -30.8790   21.9460 N   0  0  0  0  0  0  0  0  0  0  0  0
  -23.5750  -31.7560   23.6390 O   0  0  0  0  0  0  0  0  0  0  0  0
  -22.9760  -29.1320   22.1980 C   0  0  0  0  0  0  0  0  0  0  0  0
  -21.6640  -28.8920   22.0330 N   0  0  0  0  0  0  0  0  0  0  0  0
  -23.6780  -28.4800   22.9750 O   0  0  0  0  0  0  0  0  0  0  0  0
  -21.1540  -29.4770   21.3850 H   0  0  0  0  0  0  0  0  0  0  0  0
  -18.3520  -27.4830   22.3850 C   0  0  0  0  0  0  0  0  0  0  0  0
  -20.8900  -27.8520   22.7100 C   0  0  0  0  0  3  0  0  0  0  0  0
  -21.0730  -26.4820   22.0160 C   0  0  0  0  0  2  0  0  0  0  0  0
  -19.9990  -26.1900   20.9640 C   0  0  0  0  0  2  0  0  0  0  0  0
  -18.6050  -26.2070   21.6000 C   0  0  0  0  0  2  0  0  0  0  0  0
  -19.4240  -28.2620   22.8930 C   0  0  0  0  0  0  0  0  0  0  0  0
  -19.1330  -29.4560   23.5890 C   0  0  0  0  0  3  0  0  0  0  0  0
  -17.8020  -29.8700   23.7830 C   0  0  0  0  0  3  0  0  0  0  0  0
  -16.7440  -29.0890   23.2900 C   0  0  0  0  0  3  0  0  0  0  0  0
  -17.0200  -27.8960   22.5960 C   0  0  0  0  0  3  0  0  0  0  0  0
  -25.9140  -32.2440   23.8030 C   0  0  0  0  0  3  0  0  0  0  0  0
  -26.3870  -31.4600   25.0880 C   0  0  1  0  0  0  0  0  0  0  0  0
  -25.2540  -31.1780   26.1020 C   0  0  0  0  0  1  0  0  0  0  0  0
  -27.0180  -30.1030   24.6960 C   0  0  0  0  0  1  0  0  0  0  0  0
  -27.4870  -32.2660   25.8180 C   0  0  0  0  0  1  0  0  0  0  0  0
  -25.5460  -33.6250   24.1490 N   0  0  0  0  0  0  0  0  0  0  0  0
  -25.8700  -34.7040   23.4220 C   0  0  0  0  0  0  0  0  0  0  0  0
  -26.5780  -34.6420   22.4140 O   0  0  0  0  0  0  0  0  0  0  0  0
  -24.9150  -33.7430   24.9280 H   0  0  0  0  0  0  0  0  0  0  0  0
  -24.0930  -36.4470   23.0470 C   0  0  0  0  0  1  0  0  0  0  0  0
  -25.3230  -36.0680   23.8880 C   0  0  0  0  0  3  0  0  0  0  0  0
  -27.3910  -37.0200   24.8090 C   0  0  0  0  0  1  0  0  0  0  0  0
  -26.3230  -37.1560   23.8230 N   0  0  0  0  0  0  0  0  0  0  0  0
  -25.8790  -38.0600   23.9590 H   0  0  0  0  0  0  0  0  0  0  0  0
  2  1  1  0
  4  3  1  6
  4 50  1  0
  4 10  1  0
  4  2  1  0
  6  5  1  0
  7  5  2  0
  8 10  2  0
  8  9  1  0
  9  6  2  0
 10  7  1  0
 11 17  1  0
 11 19  1  0
 12 17  1  0
 13 14  1  0
 13 12  1  0
 15 14  1  0
 15 24  1  0
 15 16  1  0
 17 16  1  0
 18 11  2  0
 19  9  1  0
 20 19  1  0
 21 22  2  0
 22 41  1  0
 23 22  1  0
 23 26  1  0
 24 25  1  0
 24 21  1  0
 25 23  2  0
 26 27  1  0
 27 28  2  0
 29 32  1  0
 29 28  1  0
 30 29  2  0
 31 30  1  0
 31 26  2  0
 32 33  1  0
 33 38  2  0
 33 34  1  0
 34 35  2  0
 35 36  1  0
 36 40  1  0
 37 36  2  0
 38 37  1  0
 39 38  1  0
 41 42  1  0
 42 45  1  0
 42 44  1  0
 43 41  2  0
 46 21  1  0
 46 47  1  0
 48 46  1  0
 49 50  1  0
 49 53  1  0
 50 52  1  0
 51 49  2  0
 54 56  1  0
 54 53  1  0
 55 66  2  0
 56 61  1  0
 57 65  1  0
 57 67  1  0
 58 64  1  0
 58 60  1  0
 59 65  1  0
 60 59  1  0
 61 60  2  0
 62 63  1  0
 62 56  2  0
 63 58  2  0
 64 57  1  0
 65 55  1  0
 67 69  2  0
 68 67  1  0
 70 68  1  0
 71 80  2  0
 71 76  1  0
 72 68  1  0
 72 76  1  0
 73 72  1  0
 74 75  1  0
 74 73  1  0
 75 71  1  0
 76 77  2  0
 77 78  1  0
 79 78  2  0
 80 79  1  0
 81 55  1  0
 81 86  1  0
 81 82  1  0
 82 85  1  1
 82 83  1  0
 84 82  1  0
 86 89  1  0
 87 91  1  0
 87 86  1  0
 88 87  2  0
 91 90  1  0
 93 91  1  0
 93 94  1  0
 93 92  1  0
M  ISO  4  11 100  19 100  53 101  54 101
M  END
>  <TORSDO>  (18) 
F 19

>  <SCORE>  (18) 
-11.089

>  <name>  (18) 
17

>  <ligand_id>  (18) 
17

>  <original_smiles>  (18) 
[H]c1c([H])c([H])c2c(c1[H])C([H])([H])C([H])([H])C([H])([H])C2([H])N([H])C(=O)C1([H])N(C(=O)C([H])(N([H])C(=O)C([H])(N([H])C([H])([H])[H])C([H])([H])[H])C(C([H])([H])[H])(C([H])([H])[H])C([H])([H])[H])C([H])([H])c2c([H])c(OC([H])([H])C(=O)N([H])S(=O)(=NC([H])([H])[H])c3c([H])c([H])c([H])c(N([H])C(=O)N4C([H])([H])C([H])([H])C([H])([H])C([H])(n5nc(-c6c([H])c([H])c(Oc7c([H])c([H])c(F)c([H])c7F)c([H])c6[H])c(C(=O)N([H])[H])c5N([H])[H])C4([H])[H])c3[H])c([H])c([H])c2C1([H])[H]

>  <smiles>  (18) 
[H]c1c([H])c([H])c2c(c1[H])C([H])([H])C([H])([H])C([H])([H])C2([H])N([H])C(=O)C1([H])N(C(=O)C([H])(N([H])C(=O)C([H])(N([H])C([H])([H])[H])C([H])([H])[H])C(C([H])([H])[H])(C([H])([H])[H])C([H])([H])[H])C([H])([H])c2c([H])c(OC([H])([H])C(=O)N([H])S(=O)(=NC([H])([H])[H])c3c([H])c([H])c([H])c(N([H])C(=O)N4C([H])([H])C([H])([H])C([H])([H])C([H])(n5nc(-c6c([H])c([H])c(Oc7c([H])c([H])c(F)c([H])c7F)c([H])c6[H])c(C(=O)N([H])[H])c5N([H])[H])C4([H])[H])c3[H])c([H])c([H])c2C1([H])[H]

$$$$
18:0:0
     RDKit          3D

 98106  0  0  1  0  0  0  0  0999 V2000
  -29.8980  -21.5940   19.6970 C   0  0  0  0  0  0  0  0  0  0  0  0
  -29.1480  -24.0690   19.8620 C   0  0  0  0  0  0  0  0  0  0  0  0
  -29.1460  -22.6240   20.2450 N   0  0  0  0  0  0  0  0  0  0  0  0
  -30.7000  -21.8890   18.6690 N   0  0  0  0  0  4  0  0  0  0  0  0
  -29.8830  -24.4790   18.9540 O   0  0  0  0  0  0  0  0  0  0  0  0
  -28.5620  -22.3040   21.0020 H   0  0  0  0  0  0  0  0  0  0  0  0
  -31.3790  -21.1950   18.3830 H   0  0  0  0  0  0  0  0  0  0  0  0
  -30.7630  -22.8460   18.3430 H   0  0  0  0  0  0  0  0  0  0  0  0
  -28.7320  -19.3740   20.2680 C   0  0  0  0  0  3  0  0  0  0  0  0
  -31.1150  -17.9050   20.3550 C   0  0  0  0  0  3  0  0  0  0  0  0
  -29.9320  -20.1130   20.0990 C   0  0  0  0  0  0  0  0  0  0  0  0
  -31.1420  -19.3250   20.1790 C   0  0  0  0  0  0  0  0  0  0  0  0
  -29.9060  -17.1750   20.4770 C   0  0  0  0  0  0  0  0  0  0  0  0
  -28.7210  -17.9570   20.4500 C   0  0  0  0  0  0  0  0  0  0  0  0
  -27.5310  -17.3200   20.5670 F   0  0  0  0  0  0  0  0  0  0  0  0
  -30.5900  -14.6730   20.2850 C   0  0  0  0  0  0  0  0  0  0  0  0
  -30.3660  -12.4500   19.1900 C   0  0  0  0  0  2  0  0  0  0  0  0
  -29.4040  -12.5980   17.9910 C   0  0  0  0  0  2  0  0  0  0  0  0
  -27.9370  -12.4320   18.4370 C   0  0  0  0  0  2  0  0  0  0  0  0
  -27.5960  -13.2750   19.6950 C   0  0  0  0  0  3  0  0  0  0  0  0
  -28.6700  -13.1000   20.7920 C   0  0  0  0  0  2  0  0  0  0  0  0
  -29.9720  -13.4510   20.2020 N   0  0  0  0  0  0  0  0  0  0  0  0
  -31.7510  -14.8280   19.8920 O   0  0  0  0  0  0  0  0  0  0  0  0
  -29.7890  -15.7230   20.6480 N   0  0  0  0  0  0  0  0  0  0  0  0
  -28.8650  -15.4330   20.9270 H   0  0  0  0  0  0  0  0  0  0  0  0
  -25.2060  -13.8630   20.4340 C   0  0  0  0  0  0  0  0  0  0  0  0
  -24.1460  -13.0850   20.8120 C   0  0  0  0  0  0  0  0  0  0  0  0
  -24.6160  -11.7350   20.7830 C   0  0  0  0  0  0  0  0  0  0  0  0
  -26.2540  -12.9880   20.1930 N   0  0  0  0  0  0  0  0  0  0  0  0
  -25.9050  -11.7030   20.4640 N   0  0  0  0  0  0  0  0  0  0  0  0
  -23.8990  -10.4710   20.9830 C   0  0  0  0  0  0  0  0  0  0  0  0
  -24.3350   -9.5140   21.9270 C   0  0  0  0  0  3  0  0  0  0  0  0
  -23.6160   -8.3140   22.1140 C   0  0  0  0  0  3  0  0  0  0  0  0
  -22.4480   -8.0610   21.3560 C   0  0  0  0  0  0  0  0  0  0  0  0
  -22.0310   -9.0050   20.4030 C   0  0  0  0  0  3  0  0  0  0  0  0
  -22.7500  -10.1970   20.2130 C   0  0  0  0  0  3  0  0  0  0  0  0
  -21.7020   -6.9110   21.4530 O   0  0  0  0  0  0  0  0  0  0  0  0
  -21.6440   -6.1840   22.6150 C   0  0  0  0  0  0  0  0  0  0  0  0
  -21.1780   -6.7470   23.8230 C   0  0  0  0  0  3  0  0  0  0  0  0
  -21.0700   -5.9460   24.9780 C   0  0  0  0  0  3  0  0  0  0  0  0
  -21.4180   -4.5820   24.9240 C   0  0  0  0  0  0  0  0  0  0  0  0
  -21.8780   -4.0190   23.7210 C   0  0  0  0  0  3  0  0  0  0  0  0
  -21.9870   -4.8180   22.5680 C   0  0  0  0  0  0  0  0  0  0  0  0
  -22.4110   -4.2660   21.4060 F   0  0  0  0  0  0  0  0  0  0  0  0
  -21.3080   -3.8110   26.0300 F   0  0  0  0  0  0  0  0  0  0  0  0
  -22.7490  -13.5550   21.0950 C   0  0  0  0  0  0  0  0  0  0  0  0
  -22.0290  -12.8510   21.9630 N   0  0  0  0  0  0  0  0  0  0  0  0
  -22.3040  -14.5820   20.5840 O   0  0  0  0  0  0  0  0  0  0  0  0
  -22.4010  -12.0210   22.3980 H   0  0  0  0  0  0  0  0  0  0  0  0
  -21.0920  -13.1490   22.1950 H   0  0  0  0  0  0  0  0  0  0  0  0
  -25.3580  -15.2340   20.2570 N   0  0  0  0  0  0  0  0  0  0  0  0
  -24.5880  -15.8780   20.4060 H   0  0  0  0  0  0  0  0  0  0  0  0
  -26.2140  -15.7090   20.0000 H   0  0  0  0  0  0  0  0  0  0  0  0
  -32.4180  -19.8920   20.0550 N   0  0  0  0  0  0  0  0  0  0  0  0
  -33.2150  -19.3030   20.2810 H   0  0  0  0  0  0  0  0  0  0  0  0
  -32.5660  -20.8390   20.3920 H   0  0  0  0  0  0  0  0  0  0  0  0
  -28.2050  -25.0880   20.6110 C   0  0  0  0  0  2  0  0  0  0  0  0
  -28.3800  -26.5150   20.2230 O   0  0  0  0  0  0  0  0  0  0  0  0
  -24.6030  -31.8910   23.2300 C   0  0  0  0  0  0  0  0  0  0  0  0
  -27.2490  -27.3420   20.2020 C   0  0  0  0  0  0  0  0  0  0  0  0
  -23.4100  -30.4810   21.5890 C   0  0  0  0  0  3  0  0  0  0  0  0
  -24.8730  -28.9310   20.1750 C   0  0  0  0  0  0  0  0  0  0  0  0
  -25.9470  -30.8150   21.4110 C   0  0  0  0  0  2  0  0  0  0  0  0
  -26.0360  -29.4330   20.7730 C   0  0  0  0  0  0  0  0  0  0  0  0
  -27.2290  -28.6520   20.7730 C   0  0  0  0  0  3  0  0  0  0  0  0
  -26.0660  -26.8920   19.5750 C   0  0  0  0  0  3  0  0  0  0  0  0
  -24.8890  -27.6660   19.5670 C   0  0  0  0  0  3  0  0  0  0  0  0
  -23.6310  -29.7990   20.2140 C   0  0  0  0  0  2  0  0  0  0  0  0
  -24.6720  -31.0800   22.1340 N   0  0  0  0  0  0  0  0  0  0  0  0
  -23.5170  -32.1640   23.7610 O   0  0  0  0  0  0  0  0  0  0  0  0
  -22.7490  -29.4650   22.5520 C   0  0  0  0  0  0  0  0  0  0  0  0
  -21.4250  -29.2820   22.4210 N   0  0  0  0  0  0  0  0  0  0  0  0
  -23.4290  -28.8440   23.3730 O   0  0  0  0  0  0  0  0  0  0  0  0
  -20.9360  -29.8350   21.7300 H   0  0  0  0  0  0  0  0  0  0  0  0
  -18.0480  -28.0860   22.9210 C   0  0  0  0  0  0  0  0  0  0  0  0
  -20.6070  -28.3460   23.1910 C   0  0  0  0  0  3  0  0  0  0  0  0
  -20.7080  -26.9130   22.6170 C   0  0  0  0  0  2  0  0  0  0  0  0
  -19.6070  -26.5910   21.6020 C   0  0  0  0  0  2  0  0  0  0  0  0
  -18.2250  -26.7360   22.2460 C   0  0  0  0  0  2  0  0  0  0  0  0
  -19.1670  -28.8480   23.3500 C   0  0  0  0  0  0  0  0  0  0  0  0
  -18.9470  -30.1120   23.9410 C   0  0  0  0  0  3  0  0  0  0  0  0
  -17.6420  -30.6130   24.1060 C   0  0  0  0  0  3  0  0  0  0  0  0
  -16.5380  -29.8480   23.6920 C   0  0  0  0  0  3  0  0  0  0  0  0
  -16.7420  -28.5860   23.1050 C   0  0  0  0  0  3  0  0  0  0  0  0
  -25.8820  -32.5300   23.8540 C   0  0  0  0  0  3  0  0  0  0  0  0
  -26.3890  -31.7720   25.1420 C   0  0  1  0  0  0  0  0  0  0  0  0
  -25.2880  -31.5430   26.2040 C   0  0  0  0  0  1  0  0  0  0  0  0
  -26.9760  -30.3910   24.7690 C   0  0  0  0  0  1  0  0  0  0  0  0
  -27.5340  -32.5740   25.8050 C   0  0  0  0  0  1  0  0  0  0  0  0
  -25.5690  -33.9310   24.1680 N   0  0  0  0  0  0  0  0  0  0  0  0
  -25.9070  -34.9760   23.4020 C   0  0  0  0  0  0  0  0  0  0  0  0
  -26.5840  -34.8630   22.3760 O   0  0  0  0  0  0  0  0  0  0  0  0
  -24.9700  -34.0930   24.9630 H   0  0  0  0  0  0  0  0  0  0  0  0
  -24.1870  -36.7710   23.0130 C   0  0  0  0  0  1  0  0  0  0  0  0
  -25.4170  -36.3690   23.8430 C   0  0  0  0  0  3  0  0  0  0  0  0
  -27.5410  -37.2590   24.6960 C   0  0  0  0  0  1  0  0  0  0  0  0
  -26.4530  -37.4200   23.7350 N   0  0  0  0  0  0  0  0  0  0  0  0
  -26.0480  -38.3410   23.8670 H   0  0  0  0  0  0  0  0  0  0  0  0
  1 11  1  0
  1  3  1  0
  2  3  1  0
  2 57  1  0
  3  6  1  0
  4  1  2  0
  5  2  2  0
  7  4  1  0
  8  4  1  0
  9 14  1  0
 10 13  1  0
 11 12  1  0
 11  9  2  0
 12 10  2  0
 13 24  1  0
 14 13  2  0
 14 15  1  0
 16 24  1  0
 17 22  1  0
 18 19  1  0
 18 17  1  0
 20 19  1  0
 20 29  1  0
 20 21  1  0
 22 16  1  0
 22 21  1  0
 23 16  2  0
 24 25  1  0
 26 27  2  0
 27 46  1  0
 28 27  1  0
 28 31  1  0
 29 26  1  0
 29 30  1  0
 30 28  2  0
 31 32  1  0
 32 33  2  0
 34 37  1  0
 34 33  1  0
 35 34  2  0
 36 35  1  0
 36 31  2  0
 37 38  1  0
 38 39  1  0
 39 40  2  0
 41 40  1  0
 41 45  1  0
 42 41  2  0
 43 38  2  0
 43 42  1  0
 44 43  1  0
 46 47  1  0
 47 50  1  0
 47 49  1  0
 48 46  2  0
 51 52  1  0
 51 26  1  0
 53 51  1  0
 54 12  1  0
 54 55  1  0
 54 56  1  0
 58 57  1  0
 59 70  2  0
 60 58  1  0
 60 65  1  0
 61 69  1  0
 61 71  1  0
 62 68  1  0
 62 64  1  0
 63 69  1  0
 64 63  1  0
 65 64  2  0
 66 60  2  0
 67 66  1  0
 67 62  2  0
 68 61  1  0
 69 59  1  0
 71 73  2  0
 72 71  1  0
 74 72  1  0
 75 84  2  0
 75 80  1  0
 76 72  1  0
 76 80  1  0
 77 76  1  0
 78 79  1  0
 78 77  1  0
 79 75  1  0
 80 81  2  0
 81 82  1  0
 83 82  2  0
 84 83  1  0
 85 59  1  0
 85 90  1  0
 85 86  1  0
 86 89  1  1
 86 87  1  0
 88 86  1  0
 90 93  1  0
 91 95  1  0
 91 90  1  0
 92 91  2  0
 95 94  1  0
 97 95  1  0
 97 98  1  0
 97 96  1  0
M  ISO  4  16 100  24 100  57 101  58 101
M  END
>  <TORSDO>  (19) 
F 19

>  <SCORE>  (19) 
-14.758

>  <name>  (19) 
18

>  <ligand_id>  (19) 
18

>  <original_smiles>  (19) 
[H]c1c([H])c([H])c2c(c1[H])C([H])([H])C([H])([H])C([H])([H])C2([H])N([H])C(=O)C1([H])N(C(=O)C([H])(N([H])C(=O)C([H])(N([H])C([H])([H])[H])C([H])([H])[H])C(C([H])([H])[H])(C([H])([H])[H])C([H])([H])[H])C([H])([H])c2c([H])c(OC([H])([H])C(=O)N([H])C(c3c([H])c(F)c(N([H])C(=O)N4C([H])([H])C([H])([H])C([H])([H])C([H])(n5nc(-c6c([H])c([H])c(Oc7c([H])c([H])c(F)c([H])c7F)c([H])c6[H])c(C(=O)N([H])[H])c5N([H])[H])C4([H])[H])c([H])c3N([H])[H])=[N+]([H])[H])c([H])c([H])c2C1([H])[H]

>  <smiles>  (19) 
[H]c1c([H])c([H])c2c(c1[H])C([H])([H])C([H])([H])C([H])([H])C2([H])N([H])C(=O)C1([H])N(C(=O)C([H])(N([H])C(=O)C([H])(N([H])C([H])([H])[H])C([H])([H])[H])C(C([H])([H])[H])(C([H])([H])[H])C([H])([H])[H])C([H])([H])c2c([H])c(OC([H])([H])C(=O)N([H])C(c3c([H])c(F)c(N([H])C(=O)N4C([H])([H])C([H])([H])C([H])([H])C([H])(n5nc(-c6c([H])c([H])c(Oc7c([H])c([H])c(F)c([H])c7F)c([H])c6[H])c(C(=O)N([H])[H])c5N([H])[H])C4([H])[H])c([H])c3N([H])[H])=[N+]([H])[H])c([H])c([H])c2C1([H])[H]

$$$$
19:0:0
     RDKit          3D

 93101  0  0  1  0  0  0  0  0999 V2000
  -28.9640  -22.3730   19.7890 C   0  0  0  0  0  0  0  0  0  0  0  0
  -29.0580  -21.1500   20.4520 N   0  0  0  0  0  0  0  0  0  0  0  0
  -29.2240  -22.4440   18.5840 O   0  0  0  0  0  0  0  0  0  0  0  0
  -28.6550  -21.1480   21.3800 H   0  0  0  0  0  0  0  0  0  0  0  0
  -30.8930  -20.0120   19.2230 C   0  0  0  0  0  3  0  0  0  0  0  0
  -31.2980  -17.5960   19.2570 C   0  0  0  0  0  3  0  0  0  0  0  0
  -29.4330  -18.5370   20.4950 C   0  0  0  0  0  3  0  0  0  0  0  0
  -31.6510  -18.8920   18.8350 C   0  0  0  0  0  0  0  0  0  0  0  0
  -29.7530  -19.8920   20.0500 C   0  0  0  0  0  0  0  0  0  0  0  0
  -30.1950  -17.3480   20.1130 C   0  0  0  0  0  0  0  0  0  0  0  0
  -32.8710  -19.0830   17.9540 C   0  0  0  0  0  1  0  0  0  0  0  0
  -30.6050  -14.7570   20.3290 C   0  0  0  0  0  0  0  0  0  0  0  0
  -30.3520  -12.4810   19.3420 C   0  0  0  0  0  2  0  0  0  0  0  0
  -29.4150  -12.5660   18.1180 C   0  0  0  0  0  2  0  0  0  0  0  0
  -27.9470  -12.4030   18.5570 C   0  0  0  0  0  2  0  0  0  0  0  0
  -27.5840  -13.2950   19.7760 C   0  0  0  0  0  3  0  0  0  0  0  0
  -28.6490  -13.2170   20.8910 C   0  0  0  0  0  2  0  0  0  0  0  0
  -29.9430  -13.5490   20.2870 N   0  0  0  0  0  0  0  0  0  0  0  0
  -31.8040  -14.7790   20.0440 O   0  0  0  0  0  0  0  0  0  0  0  0
  -29.8780  -15.9370   20.5080 N   0  0  0  0  0  0  0  0  0  0  0  0
  -28.9450  -15.7910   20.8620 H   0  0  0  0  0  0  0  0  0  0  0  0
  -25.2020  -13.8850   20.5160 C   0  0  0  0  0  0  0  0  0  0  0  0
  -24.1370  -13.1110   20.8900 C   0  0  0  0  0  0  0  0  0  0  0  0
  -24.6000  -11.7600   20.8600 C   0  0  0  0  0  0  0  0  0  0  0  0
  -26.2450  -13.0050   20.2760 N   0  0  0  0  0  0  0  0  0  0  0  0
  -25.8900  -11.7230   20.5470 N   0  0  0  0  0  0  0  0  0  0  0  0
  -23.8730  -10.4990   21.0530 C   0  0  0  0  0  0  0  0  0  0  0  0
  -24.3100   -9.5280   21.9810 C   0  0  0  0  0  3  0  0  0  0  0  0
  -23.5810   -8.3330   22.1630 C   0  0  0  0  0  3  0  0  0  0  0  0
  -22.4020   -8.0980   21.4160 C   0  0  0  0  0  0  0  0  0  0  0  0
  -21.9850   -9.0580   20.4760 C   0  0  0  0  0  3  0  0  0  0  0  0
  -22.7140  -10.2440   20.2930 C   0  0  0  0  0  3  0  0  0  0  0  0
  -21.6450   -6.9560   21.5070 O   0  0  0  0  0  0  0  0  0  0  0  0
  -21.6080   -6.2070   22.6550 C   0  0  0  0  0  0  0  0  0  0  0  0
  -21.2000   -6.7560   23.8900 C   0  0  0  0  0  3  0  0  0  0  0  0
  -21.1100   -5.9330   25.0310 C   0  0  0  0  0  3  0  0  0  0  0  0
  -21.4170   -4.5630   24.9390 C   0  0  0  0  0  0  0  0  0  0  0  0
  -21.8190   -4.0130   23.7080 C   0  0  0  0  0  3  0  0  0  0  0  0
  -21.9110   -4.8320   22.5690 C   0  0  0  0  0  0  0  0  0  0  0  0
  -22.2780   -4.2930   21.3820 F   0  0  0  0  0  0  0  0  0  0  0  0
  -21.3230   -3.7710   26.0320 F   0  0  0  0  0  0  0  0  0  0  0  0
  -22.7410  -13.5900   21.1650 C   0  0  0  0  0  0  0  0  0  0  0  0
  -22.0150  -12.8950   22.0340 N   0  0  0  0  0  0  0  0  0  0  0  0
  -22.3040  -14.6150   20.6450 O   0  0  0  0  0  0  0  0  0  0  0  0
  -22.3830  -12.0650   22.4740 H   0  0  0  0  0  0  0  0  0  0  0  0
  -21.0790  -13.1980   22.2620 H   0  0  0  0  0  0  0  0  0  0  0  0
  -25.3650  -15.2560   20.3330 N   0  0  0  0  0  0  0  0  0  0  0  0
  -24.5930  -15.9060   20.4360 H   0  0  0  0  0  0  0  0  0  0  0  0
  -26.2030  -15.6930   19.9730 H   0  0  0  0  0  0  0  0  0  0  0  0
  -28.4750  -23.7290   20.4990 C   0  0  0  0  0  3  0  0  0  0  0  0
  -29.2360  -23.9110   21.5830 F   0  0  0  0  0  0  0  0  0  0  0  0
  -28.4890  -25.1070   19.6400 C   0  0  0  0  0  2  0  0  0  0  0  0
  -28.3560  -26.4730   20.2430 O   0  0  0  0  0  0  0  0  0  0  0  0
  -24.6040  -31.8760   23.2310 C   0  0  0  0  0  0  0  0  0  0  0  0
  -27.2150  -27.2970   20.1650 C   0  0  0  0  0  0  0  0  0  0  0  0
  -23.3980  -30.4770   21.5920 C   0  0  0  0  0  3  0  0  0  0  0  0
  -24.8450  -28.9210   20.1600 C   0  0  0  0  0  0  0  0  0  0  0  0
  -25.9340  -30.7920   21.4000 C   0  0  0  0  0  2  0  0  0  0  0  0
  -26.0140  -29.4090   20.7550 C   0  0  0  0  0  0  0  0  0  0  0  0
  -27.1950  -28.6060   20.7500 C   0  0  0  0  0  3  0  0  0  0  0  0
  -26.0180  -26.8630   19.5510 C   0  0  0  0  0  3  0  0  0  0  0  0
  -24.8510  -27.6550   19.5490 C   0  0  0  0  0  3  0  0  0  0  0  0
  -23.6090  -29.7980   20.2120 C   0  0  0  0  0  2  0  0  0  0  0  0
  -24.6660  -31.0670   22.1310 N   0  0  0  0  0  0  0  0  0  0  0  0
  -23.5220  -32.1520   23.7690 O   0  0  0  0  0  0  0  0  0  0  0  0
  -22.7360  -29.4610   22.5550 C   0  0  0  0  0  0  0  0  0  0  0  0
  -21.4100  -29.2840   22.4310 N   0  0  0  0  0  0  0  0  0  0  0  0
  -23.4160  -28.8370   23.3750 O   0  0  0  0  0  0  0  0  0  0  0  0
  -20.9210  -29.8390   21.7420 H   0  0  0  0  0  0  0  0  0  0  0  0
  -18.0350  -28.0820   22.9300 C   0  0  0  0  0  0  0  0  0  0  0  0
  -20.5930  -28.3480   23.2040 C   0  0  0  0  0  3  0  0  0  0  0  0
  -20.6980  -26.9150   22.6340 C   0  0  0  0  0  2  0  0  0  0  0  0
  -19.5990  -26.5880   21.6170 C   0  0  0  0  0  2  0  0  0  0  0  0
  -18.2150  -26.7330   22.2560 C   0  0  0  0  0  2  0  0  0  0  0  0
  -19.1510  -28.8470   23.3610 C   0  0  0  0  0  0  0  0  0  0  0  0
  -18.9290  -30.1100   23.9510 C   0  0  0  0  0  3  0  0  0  0  0  0
  -17.6230  -30.6070   24.1170 C   0  0  0  0  0  3  0  0  0  0  0  0
  -16.5210  -29.8400   23.7020 C   0  0  0  0  0  3  0  0  0  0  0  0
  -16.7280  -28.5790   23.1140 C   0  0  0  0  0  3  0  0  0  0  0  0
  -25.8870  -32.5100   23.8510 C   0  0  0  0  0  3  0  0  0  0  0  0
  -26.4050  -31.7390   25.1280 C   0  0  1  0  0  0  0  0  0  0  0  0
  -25.3130  -31.5060   26.1990 C   0  0  0  0  0  1  0  0  0  0  0  0
  -26.9830  -30.3590   24.7360 C   0  0  0  0  0  1  0  0  0  0  0  0
  -27.5600  -32.5310   25.7850 C   0  0  0  0  0  1  0  0  0  0  0  0
  -25.5750  -33.9070   24.1840 N   0  0  0  0  0  0  0  0  0  0  0  0
  -25.9070  -34.9640   23.4270 C   0  0  0  0  0  0  0  0  0  0  0  0
  -26.5740  -34.8610   22.3940 O   0  0  0  0  0  0  0  0  0  0  0  0
  -24.9770  -34.0570   24.9830 H   0  0  0  0  0  0  0  0  0  0  0  0
  -24.1760  -36.7590   23.0850 C   0  0  0  0  0  1  0  0  0  0  0  0
  -25.4210  -36.3510   23.8890 C   0  0  0  0  0  3  0  0  0  0  0  0
  -27.5600  -37.2340   24.7130 C   0  0  0  0  0  1  0  0  0  0  0  0
  -26.4530  -37.4040   23.7750 N   0  0  0  0  0  0  0  0  0  0  0  0
  -26.0480  -38.3250   23.9280 H   0  0  0  0  0  0  0  0  0  0  0  0
  1  2  1  0
  1 50  1  0
  2  4  1  0
  3  1  2  0
  5  9  1  0
  6 10  2  0
  8  5  2  0
  8  6  1  0
  9  2  1  0
  9  7  2  0
 10  7  1  0
 10 20  1  0
 11  8  1  0
 12 20  1  0
 13 18  1  0
 14 15  1  0
 14 13  1  0
 16 15  1  0
 16 25  1  0
 16 17  1  0
 18 12  1  0
 18 17  1  0
 19 12  2  0
 20 21  1  0
 22 23  2  0
 23 42  1  0
 24 23  1  0
 24 27  1  0
 25 22  1  0
 25 26  1  0
 26 24  2  0
 27 28  1  0
 28 29  2  0
 30 33  1  0
 30 29  1  0
 31 30  2  0
 32 31  1  0
 32 27  2  0
 33 34  1  0
 34 35  1  0
 35 36  2  0
 37 36  1  0
 37 41  1  0
 38 37  2  0
 39 34  2  0
 39 38  1  0
 40 39  1  0
 42 43  1  0
 43 46  1  0
 43 45  1  0
 44 42  2  0
 47 48  1  0
 47 22  1  0
 49 47  1  0
 50 51  1  0
 52 53  1  0
 52 50  1  0
 54 65  2  0
 55 53  1  0
 55 60  1  0
 56 64  1  0
 56 66  1  0
 57 63  1  0
 57 59  1  0
 58 64  1  0
 59 58  1  0
 60 59  2  0
 61 55  2  0
 62 61  1  0
 62 57  2  0
 63 56  1  0
 64 54  1  0
 66 68  2  0
 67 66  1  0
 69 67  1  0
 70 79  2  0
 70 75  1  0
 71 67  1  0
 71 75  1  0
 72 71  1  0
 73 74  1  0
 73 72  1  0
 74 70  1  0
 75 76  2  0
 76 77  1  0
 78 77  2  0
 79 78  1  0
 80 54  1  0
 80 85  1  0
 80 81  1  0
 81 84  1  1
 81 82  1  0
 83 81  1  0
 85 88  1  0
 86 90  1  0
 86 85  1  0
 87 86  2  0
 90 89  1  0
 92 90  1  0
 92 93  1  0
 92 91  1  0
M  ISO  4  12 100  20 100  52 101  53 101
M  END
>  <TORSDO>  (20) 
F 19

>  <SCORE>  (20) 
-14.286

>  <name>  (20) 
19

>  <ligand_id>  (20) 
19

>  <original_smiles>  (20) 
[H]c1c([H])c([H])c2c(c1[H])C([H])([H])C([H])([H])C([H])([H])C2([H])N([H])C(=O)C1([H])N(C(=O)C([H])(N([H])C(=O)C([H])(N([H])C([H])([H])[H])C([H])([H])[H])C(C([H])([H])[H])(C([H])([H])[H])C([H])([H])[H])C([H])([H])c2c([H])c(OC([H])([H])C([H])(F)C(=O)N([H])c3c([H])c(N([H])C(=O)N4C([H])([H])C([H])([H])C([H])([H])C([H])(n5nc(-c6c([H])c([H])c(Oc7c([H])c([H])c(F)c([H])c7F)c([H])c6[H])c(C(=O)N([H])[H])c5N([H])[H])C4([H])[H])c([H])c(C([H])([H])[H])c3[H])c([H])c([H])c2C1([H])[H]

>  <smiles>  (20) 
[H]c1c([H])c([H])c2c(c1[H])C([H])([H])C([H])([H])C([H])([H])C2([H])N([H])C(=O)C1([H])N(C(=O)C([H])(N([H])C(=O)C([H])(N([H])C([H])([H])[H])C([H])([H])[H])C(C([H])([H])[H])(C([H])([H])[H])C([H])([H])[H])C([H])([H])c2c([H])c(OC([H])([H])C([H])(F)C(=O)N([H])c3c([H])c(N([H])C(=O)N4C([H])([H])C([H])([H])C([H])([H])C([H])(n5nc(-c6c([H])c([H])c(Oc7c([H])c([H])c(F)c([H])c7F)c([H])c6[H])c(C(=O)N([H])[H])c5N([H])[H])C4([H])[H])c([H])c(C([H])([H])[H])c3[H])c([H])c([H])c2C1([H])[H]

$$$$
20:0:0
     RDKit          3D

 95103  0  0  1  0  0  0  0  0999 V2000
  -30.5110  -17.4940   21.1280 C   0  0  0  0  0  2  0  0  0  0  0  0
  -28.3980  -18.2470   19.4100 C   0  0  0  0  0  2  0  0  0  0  0  0
  -30.6300  -17.3550   19.7280 C   0  0  0  0  0  3  0  0  0  0  0  0
  -29.2010  -17.6650   21.6380 C   0  0  0  0  0  0  0  0  0  0  0  0
  -29.7550  -18.4210   19.0480 C   0  0  0  0  0  3  0  0  0  0  0  0
  -28.1280  -17.9220   20.7540 C   0  0  0  0  0  0  0  0  0  0  0  0
  -26.8560  -17.9660   21.2250 F   0  0  0  0  0  0  0  0  0  0  0  0
  -31.5080  -14.6800   19.9190 C   0  0  0  0  0  0  0  0  0  0  0  0
  -31.6480  -12.1440   19.5150 C   0  0  0  0  0  2  0  0  0  0  0  0
  -30.7660  -11.6770   18.3320 C   0  0  0  0  0  2  0  0  0  0  0  0
  -29.3120  -11.4510   18.7840 C   0  0  0  0  0  2  0  0  0  0  0  0
  -28.7890  -12.5960   19.6870 C   0  0  0  0  0  3  0  0  0  0  0  0
  -29.7940  -12.9740   20.7900 C   0  0  0  0  0  2  0  0  0  0  0  0
  -31.0230  -13.3730   20.0940 N   0  0  0  0  0  0  0  0  0  0  0  0
  -32.7380  -14.7680   19.8000 O   0  0  0  0  0  0  0  0  0  0  0  0
  -30.6260  -15.7870   19.5740 N   0  0  0  0  0  0  0  0  0  0  0  0
  -29.7150  -15.4380   19.3190 H   0  0  0  0  0  0  0  0  0  0  0  0
  -26.4460  -13.2240   20.4800 C   0  0  0  0  0  0  0  0  0  0  0  0
  -25.3670  -12.4740   20.8510 C   0  0  0  0  0  0  0  0  0  0  0  0
  -25.8020  -11.1120   20.8140 C   0  0  0  0  0  0  0  0  0  0  0  0
  -27.4600  -12.3220   20.2170 N   0  0  0  0  0  0  0  0  0  0  0  0
  -27.0870  -11.0460   20.4900 N   0  0  0  0  0  0  0  0  0  0  0  0
  -25.0520   -9.8670   21.0050 C   0  0  0  0  0  0  0  0  0  0  0  0
  -25.2940   -9.0190   22.1070 C   0  0  0  0  0  3  0  0  0  0  0  0
  -24.5420   -7.8370   22.2800 C   0  0  0  0  0  3  0  0  0  0  0  0
  -23.5360   -7.4950   21.3460 C   0  0  0  0  0  0  0  0  0  0  0  0
  -23.3140   -8.3320   20.2380 C   0  0  0  0  0  3  0  0  0  0  0  0
  -24.0660   -9.5050   20.0650 C   0  0  0  0  0  3  0  0  0  0  0  0
  -22.7730   -6.3550   21.4180 O   0  0  0  0  0  0  0  0  0  0  0  0
  -22.1260   -5.9940   22.5740 C   0  0  0  0  0  0  0  0  0  0  0  0
  -21.2240   -6.8630   23.2260 C   0  0  0  0  0  3  0  0  0  0  0  0
  -20.5260   -6.4250   24.3670 C   0  0  0  0  0  3  0  0  0  0  0  0
  -20.7220   -5.1190   24.8560 C   0  0  0  0  0  0  0  0  0  0  0  0
  -21.6170   -4.2510   24.2070 C   0  0  0  0  0  3  0  0  0  0  0  0
  -22.3140   -4.6870   23.0670 C   0  0  0  0  0  0  0  0  0  0  0  0
  -23.1580   -3.8410   22.4310 F   0  0  0  0  0  0  0  0  0  0  0  0
  -20.0480   -4.6960   25.9510 F   0  0  0  0  0  0  0  0  0  0  0  0
  -23.9860  -12.9870   21.1310 C   0  0  0  0  0  0  0  0  0  0  0  0
  -23.2600  -12.3320   22.0290 N   0  0  0  0  0  0  0  0  0  0  0  0
  -23.5630  -14.0060   20.5920 O   0  0  0  0  0  0  0  0  0  0  0  0
  -23.6130  -11.5030   22.4820 H   0  0  0  0  0  0  0  0  0  0  0  0
  -22.3350  -12.6650   22.2660 H   0  0  0  0  0  0  0  0  0  0  0  0
  -26.6450  -14.5930   20.3220 N   0  0  0  0  0  0  0  0  0  0  0  0
  -25.9110  -15.2640   20.5250 H   0  0  0  0  0  0  0  0  0  0  0  0
  -27.5230  -15.0290   20.0870 H   0  0  0  0  0  0  0  0  0  0  0  0
  -29.2390  -21.0980   18.3320 C   0  0  0  0  0  0  0  0  0  0  0  0
  -30.0600  -19.9090   18.5710 N   0  0  0  0  0  0  0  0  0  0  0  0
  -28.0180  -20.9580   18.4020 O   0  0  0  0  0  0  0  0  0  0  0  0
  -31.0450  -20.0820   18.4230 H   0  0  0  0  0  0  0  0  0  0  0  0
  -29.7470  -22.5610   17.9780 C   0  0  0  0  0  3  0  0  0  0  0  0
  -29.1500  -23.8450   18.2960 C   0  0  0  0  0  3  0  0  0  0  0  0
  -29.5220  -25.2870   18.0620 O   0  0  0  0  0  0  0  0  0  0  0  0
  -27.8060  -29.7840   23.8120 C   0  0  0  0  0  0  0  0  0  0  0  0
  -28.8380  -26.4420   18.6560 C   0  0  0  0  0  0  0  0  0  0  0  0
  -26.2140  -29.5930   21.9430 C   0  0  0  0  0  3  0  0  0  0  0  0
  -27.1190  -28.5490   19.7690 C   0  0  0  0  0  0  0  0  0  0  0  0
  -28.7360  -29.2910   21.5060 C   0  0  0  0  0  2  0  0  0  0  0  0
  -28.3970  -28.3610   20.3130 C   0  0  0  0  0  0  0  0  0  0  0  0
  -29.2590  -27.3290   19.7500 C   0  0  0  0  0  3  0  0  0  0  0  0
  -27.5740  -26.7800   18.1260 C   0  0  0  0  0  3  0  0  0  0  0  0
  -26.7310  -27.7770   18.6650 C   0  0  0  0  0  3  0  0  0  0  0  0
  -26.1970  -29.5880   20.3920 C   0  0  0  0  0  2  0  0  0  0  0  0
  -27.6160  -29.5470   22.4750 N   0  0  0  0  0  0  0  0  0  0  0  0
  -26.8580  -30.0400   24.5710 O   0  0  0  0  0  0  0  0  0  0  0  0
  -25.3210  -28.4440   22.4770 C   0  0  0  0  0  0  0  0  0  0  0  0
  -23.9980  -28.5270   22.2430 N   0  0  0  0  0  0  0  0  0  0  0  0
  -25.8230  -27.4860   23.0710 O   0  0  0  0  0  0  0  0  0  0  0  0
  -23.6530  -29.3470   21.7620 H   0  0  0  0  0  0  0  0  0  0  0  0
  -20.4890  -27.6550   21.9820 C   0  0  0  0  0  0  0  0  0  0  0  0
  -22.9930  -27.5260   22.6130 C   0  0  0  0  0  3  0  0  0  0  0  0
  -23.0590  -26.2980   21.6730 C   0  0  0  0  0  2  0  0  0  0  0  0
  -22.0950  -26.3960   20.4870 C   0  0  0  0  0  2  0  0  0  0  0  0
  -20.6510  -26.5280   20.9770 C   0  0  0  0  0  2  0  0  0  0  0  0
  -21.5910  -28.1360   22.7390 C   0  0  0  0  0  0  0  0  0  0  0  0
  -21.3900  -29.2060   23.6370 C   0  0  0  0  0  3  0  0  0  0  0  0
  -20.1200  -29.7950   23.7840 C   0  0  0  0  0  3  0  0  0  0  0  0
  -19.0290  -29.3070   23.0420 C   0  0  0  0  0  3  0  0  0  0  0  0
  -19.2140  -28.2350   22.1500 C   0  0  0  0  0  3  0  0  0  0  0  0
  -29.2300  -29.7680   24.4480 C   0  0  0  0  0  3  0  0  0  0  0  0
  -29.5710  -28.4020   25.1620 C   0  0  1  0  0  0  0  0  0  0  0  0
  -28.5000  -27.9430   26.1800 C   0  0  0  0  0  1  0  0  0  0  0  0
  -29.7470  -27.2690   24.1270 C   0  0  0  0  0  1  0  0  0  0  0  0
  -30.9180  -28.5260   25.9130 C   0  0  0  0  0  1  0  0  0  0  0  0
  -29.3070  -30.8790   25.4100 N   0  0  0  0  0  0  0  0  0  0  0  0
  -29.9150  -32.0510   25.1810 C   0  0  0  0  0  0  0  0  0  0  0  0
  -30.5310  -32.2900   24.1370 O   0  0  0  0  0  0  0  0  0  0  0  0
  -28.7840  -30.7720   26.2660 H   0  0  0  0  0  0  0  0  0  0  0  0
  -28.7520  -34.1630   25.9030 C   0  0  0  0  0  1  0  0  0  0  0  0
  -29.8280  -33.1300   26.2780 C   0  0  0  0  0  3  0  0  0  0  0  0
  -32.1140  -32.9620   27.1600 C   0  0  0  0  0  1  0  0  0  0  0  0
  -31.1120  -33.8200   26.5320 N   0  0  0  0  0  0  0  0  0  0  0  0
  -30.9740  -34.6320   27.1270 H   0  0  0  0  0  0  0  0  0  0  0  0
  -28.9310  -17.4960   22.9970 N   0  0  0  0  0  0  0  0  0  0  0  0
  -29.4560  -16.7810   23.4860 H   0  0  0  0  0  0  0  0  0  0  0  0
  -27.9410  -17.4630   23.2250 H   0  0  0  0  0  0  0  0  0  0  0  0
  1  4  1  0
  2  6  1  0
  3 16  1  0
  3  1  1  0
  4 93  1  0
  5 47  1  0
  5  2  1  0
  5  3  1  0
  6  7  1  0
  6  4  2  0
  8 14  1  0
  9 14  1  0
 10 11  1  0
 10  9  1  0
 12 11  1  0
 12 21  1  0
 12 13  1  0
 14 13  1  0
 15  8  2  0
 16  8  1  0
 17 16  1  0
 18 19  2  0
 19 38  1  0
 20 19  1  0
 20 23  1  0
 21 18  1  0
 21 22  1  0
 22 20  2  0
 23 24  1  0
 24 25  2  0
 26 29  1  0
 26 25  1  0
 27 26  2  0
 28 27  1  0
 28 23  2  0
 29 30  1  0
 30 35  2  0
 30 31  1  0
 31 32  2  0
 32 33  1  0
 33 37  1  0
 34 33  2  0
 35 34  1  0
 36 35  1  0
 38 39  1  0
 39 42  1  0
 39 41  1  0
 40 38  2  0
 43 18  1  0
 43 44  1  0
 45 43  1  0
 46 48  2  0
 46 47  1  0
 49 47  1  0
 50 51  2  0
 50 46  1  0
 52 51  1  0
 52 54  1  0
 53 64  2  0
 54 59  1  0
 55 63  1  0
 55 65  1  0
 56 58  1  0
 56 62  1  0
 57 63  1  0
 58 57  1  0
 59 58  2  0
 60 54  2  0
 60 61  1  0
 61 56  2  0
 62 55  1  0
 63 53  1  0
 65 67  2  0
 66 65  1  0
 68 66  1  0
 69 78  2  0
 69 74  1  0
 70 66  1  0
 70 74  1  0
 71 70  1  0
 72 73  1  0
 72 71  1  0
 73 69  1  0
 74 75  2  0
 75 76  1  0
 77 76  2  0
 78 77  1  0
 79 53  1  0
 79 80  1  0
 79 84  1  0
 80 83  1  1
 80 81  1  0
 82 80  1  0
 84 87  1  0
 85 84  1  0
 85 89  1  0
 86 85  2  0
 89 88  1  0
 89 91  1  0
 91 92  1  0
 91 90  1  0
 93 95  1  0
 93 94  1  0
M  ISO  4   8 100  16 100  51 101  52 101
M  END
>  <TORSDO>  (21) 
F 19

>  <SCORE>  (21) 
-3.068

>  <name>  (21) 
20

>  <ligand_id>  (21) 
20

>  <original_smiles>  (21) 
[H]C(Oc1c([H])c([H])c2c(c1[H])C([H])([H])N(C(=O)C([H])(N([H])C(=O)C([H])(N([H])C([H])([H])[H])C([H])([H])[H])C(C([H])([H])[H])(C([H])([H])[H])C([H])([H])[H])C([H])(C(=O)N([H])C1([H])c3c([H])c([H])c([H])c([H])c3C([H])([H])C([H])([H])C1([H])[H])C2([H])[H])=C([H])C(=O)N([H])c1c([H])c(F)c(N([H])[H])c([H])c1N([H])C(=O)N1C([H])([H])C([H])([H])C([H])([H])C([H])(n2nc(-c3c([H])c([H])c(Oc4c([H])c([H])c(F)c([H])c4F)c([H])c3[H])c(C(=O)N([H])[H])c2N([H])[H])C1([H])[H]

>  <smiles>  (21) 
[H]C(Oc1c([H])c([H])c2c(c1[H])C([H])([H])N(C(=O)C([H])(N([H])C(=O)C([H])(N([H])C([H])([H])[H])C([H])([H])[H])C(C([H])([H])[H])(C([H])([H])[H])C([H])([H])[H])C([H])(C(=O)N([H])C1([H])c3c([H])c([H])c([H])c([H])c3C([H])([H])C([H])([H])C1([H])[H])C2([H])[H])=C([H])C(=O)N([H])c1c([H])c(F)c(N([H])[H])c([H])c1N([H])C(=O)N1C([H])([H])C([H])([H])C([H])([H])C([H])(n2nc(-c3c([H])c([H])c(Oc4c([H])c([H])c(F)c([H])c4F)c([H])c3[H])c(C(=O)N([H])[H])c2N([H])[H])C1([H])[H]

$$$$
21:0:0
     RDKit          3D

 91 99  0  0  1  0  0  0  0  0999 V2000
  -28.9330  -23.2890   20.2810 C   0  0  0  0  0  0  0  0  0  0  0  0
  -28.6670  -21.8680   20.4380 N   0  0  0  0  0  0  0  0  0  0  0  0
  -30.0910  -23.6530   20.0710 O   0  0  0  0  0  0  0  0  0  0  0  0
  -27.6740  -21.6870   20.3910 H   0  0  0  0  0  0  0  0  0  0  0  0
  -31.5600  -19.4770   21.5900 C   0  0  0  0  0  3  0  0  0  0  0  0
  -31.2130  -18.1700   21.1990 C   0  0  0  0  0  3  0  0  0  0  0  0
  -29.1560  -19.1170   20.3400 C   0  0  0  0  0  3  0  0  0  0  0  0
  -30.7400  -20.6180   21.3990 C   0  0  0  0  0  0  0  0  0  0  0  0
  -29.9770  -17.8690   20.5980 C   0  0  0  0  0  0  0  0  0  0  0  0
  -29.5090  -20.5540   20.6730 C   0  0  0  0  0  0  0  0  0  0  0  0
  -31.2340  -21.8730   22.1020 C   0  0  0  0  0  1  0  0  0  0  0  0
  -30.4590  -15.1360   20.3120 C   0  0  0  0  0  0  0  0  0  0  0  0
  -30.3770  -12.7650   19.3550 C   0  0  0  0  0  2  0  0  0  0  0  0
  -29.4320  -12.6650   18.1360 C   0  0  0  0  0  2  0  0  0  0  0  0
  -27.9830  -12.4120   18.5950 C   0  0  0  0  0  2  0  0  0  0  0  0
  -27.5650  -13.3360   19.7670 C   0  0  0  0  0  3  0  0  0  0  0  0
  -28.6350  -13.4000   20.8760 C   0  0  0  0  0  2  0  0  0  0  0  0
  -29.8740  -13.8630   20.2370 N   0  0  0  0  0  0  0  0  0  0  0  0
  -31.6740  -15.1730   20.0740 O   0  0  0  0  0  0  0  0  0  0  0  0
  -29.6720  -16.3490   20.3880 N   0  0  0  0  0  0  0  0  0  0  0  0
  -28.6850  -16.1470   20.3390 H   0  0  0  0  0  0  0  0  0  0  0  0
  -25.1960  -13.8710   20.5600 C   0  0  0  0  0  0  0  0  0  0  0  0
  -24.1460  -13.0780   20.9320 C   0  0  0  0  0  0  0  0  0  0  0  0
  -24.6260  -11.7330   20.8720 C   0  0  0  0  0  0  0  0  0  0  0  0
  -26.2430  -13.0090   20.2870 N   0  0  0  0  0  0  0  0  0  0  0  0
  -25.9120  -11.7160   20.5420 N   0  0  0  0  0  0  0  0  0  0  0  0
  -23.9130  -10.4600   21.0490 C   0  0  0  0  0  0  0  0  0  0  0  0
  -24.3510   -9.4930   21.9800 C   0  0  0  0  0  3  0  0  0  0  0  0
  -23.6370   -8.2860   22.1470 C   0  0  0  0  0  3  0  0  0  0  0  0
  -22.4710   -8.0390   21.3830 C   0  0  0  0  0  0  0  0  0  0  0  0
  -22.0530   -8.9970   20.4420 C   0  0  0  0  0  3  0  0  0  0  0  0
  -22.7680  -10.1950   20.2730 C   0  0  0  0  0  3  0  0  0  0  0  0
  -21.7280   -6.8860   21.4590 O   0  0  0  0  0  0  0  0  0  0  0  0
  -21.6610   -6.1490   22.6140 C   0  0  0  0  0  0  0  0  0  0  0  0
  -21.1570   -6.6910   23.8160 C   0  0  0  0  0  3  0  0  0  0  0  0
  -21.0400   -5.8770   24.9600 C   0  0  0  0  0  3  0  0  0  0  0  0
  -21.4190   -4.5230   24.9040 C   0  0  0  0  0  0  0  0  0  0  0  0
  -21.9150   -3.9800   23.7060 C   0  0  0  0  0  3  0  0  0  0  0  0
  -22.0330   -4.7900   22.5640 C   0  0  0  0  0  0  0  0  0  0  0  0
  -22.4930   -4.2560   21.4070 F   0  0  0  0  0  0  0  0  0  0  0  0
  -21.3000   -3.7380   26.0010 F   0  0  0  0  0  0  0  0  0  0  0  0
  -22.7480  -13.5370   21.2270 C   0  0  0  0  0  0  0  0  0  0  0  0
  -22.0400  -12.8260   22.0960 N   0  0  0  0  0  0  0  0  0  0  0  0
  -22.2930  -14.5620   20.7210 O   0  0  0  0  0  0  0  0  0  0  0  0
  -22.4210  -11.9970   22.5270 H   0  0  0  0  0  0  0  0  0  0  0  0
  -21.1020  -13.1160   22.3360 H   0  0  0  0  0  0  0  0  0  0  0  0
  -25.3380  -15.2460   20.4010 N   0  0  0  0  0  0  0  0  0  0  0  0
  -24.5580  -15.8820   20.5320 H   0  0  0  0  0  0  0  0  0  0  0  0
  -26.1580  -15.7020   20.0220 H   0  0  0  0  0  0  0  0  0  0  0  0
  -27.8140  -24.5490   20.2470 C   0  0  0  0  0  2  0  0  0  0  0  0
  -28.1720  -26.1020   20.2810 O   0  0  0  0  0  0  0  0  0  0  0  0
  -24.6290  -31.9340   23.2550 C   0  0  0  0  0  0  0  0  0  0  0  0
  -27.1510  -27.1430   20.2240 C   0  0  0  0  0  0  0  0  0  0  0  0
  -23.4190  -30.5520   21.6150 C   0  0  0  0  0  3  0  0  0  0  0  0
  -24.8530  -28.9590   20.1870 C   0  0  0  0  0  0  0  0  0  0  0  0
  -25.9800  -30.7750   21.4570 C   0  0  0  0  0  2  0  0  0  0  0  0
  -26.0400  -29.3780   20.8010 C   0  0  0  0  0  0  0  0  0  0  0  0
  -27.1900  -28.4890   20.8000 C   0  0  0  0  0  3  0  0  0  0  0  0
  -25.9370  -26.8490   19.5640 C   0  0  0  0  0  3  0  0  0  0  0  0
  -24.8180  -27.7100   19.5510 C   0  0  0  0  0  3  0  0  0  0  0  0
  -23.6380  -29.8750   20.2350 C   0  0  0  0  0  2  0  0  0  0  0  0
  -24.6970  -31.1100   22.1640 N   0  0  0  0  0  0  0  0  0  0  0  0
  -23.5450  -32.2290   23.7810 O   0  0  0  0  0  0  0  0  0  0  0  0
  -22.7250  -29.5530   22.5750 C   0  0  0  0  0  0  0  0  0  0  0  0
  -21.3960  -29.3900   22.4440 N   0  0  0  0  0  0  0  0  0  0  0  0
  -23.3880  -28.9240   23.4050 O   0  0  0  0  0  0  0  0  0  0  0  0
  -20.9170  -29.9490   21.7520 H   0  0  0  0  0  0  0  0  0  0  0  0
  -18.0080  -28.2080   22.9460 C   0  0  0  0  0  0  0  0  0  0  0  0
  -20.5680  -28.4590   23.2140 C   0  0  0  0  0  3  0  0  0  0  0  0
  -20.6610  -27.0250   22.6450 C   0  0  0  0  0  2  0  0  0  0  0  0
  -19.5610  -26.7050   21.6290 C   0  0  0  0  0  2  0  0  0  0  0  0
  -18.1790  -26.8570   22.2700 C   0  0  0  0  0  2  0  0  0  0  0  0
  -19.1290  -28.9660   23.3750 C   0  0  0  0  0  0  0  0  0  0  0  0
  -18.9140  -30.2270   23.9710 C   0  0  0  0  0  3  0  0  0  0  0  0
  -17.6110  -30.7340   24.1370 C   0  0  0  0  0  3  0  0  0  0  0  0
  -16.5040  -29.9740   23.7220 C   0  0  0  0  0  3  0  0  0  0  0  0
  -16.7030  -28.7120   23.1330 C   0  0  0  0  0  3  0  0  0  0  0  0
  -25.9110  -32.5610   23.8830 C   0  0  0  0  0  3  0  0  0  0  0  0
  -25.6080  -33.9610   24.2220 N   0  0  0  0  0  0  0  0  0  0  0  0
  -25.9080  -35.0170   23.4550 C   0  0  0  0  0  0  0  0  0  0  0  0
  -26.5360  -34.9160   22.3980 O   0  0  0  0  0  0  0  0  0  0  0  0
  -25.0450  -34.1120   25.0470 H   0  0  0  0  0  0  0  0  0  0  0  0
  -24.1550  -36.8060   23.1930 C   0  0  0  0  0  1  0  0  0  0  0  0
  -25.4410  -36.4070   23.9350 C   0  0  0  0  0  3  0  0  0  0  0  0
  -27.6070  -37.3140   24.6520 C   0  0  0  0  0  1  0  0  0  0  0  0
  -26.4600  -37.4640   23.7610 N   0  0  0  0  0  0  0  0  0  0  0  0
  -26.0560  -38.3840   23.9200 H   0  0  0  0  0  0  0  0  0  0  0  0
  -26.4180  -31.7850   25.1620 C   0  0  1  0  0  0  0  0  0  0  0  0
  -25.3190  -31.5500   26.2260 C   0  0  0  0  0  1  0  0  0  0  0  0
  -26.9950  -30.4040   24.7770 C   0  0  0  0  0  1  0  0  0  0  0  0
  -27.5690  -32.5720   25.8280 C   0  0  0  0  0  1  0  0  0  0  0  0
  1  2  1  0
  2 10  1  0
  3  1  2  0
  4  2  1  0
  6  5  2  0
  7  9  2  0
  7 10  1  0
  8  5  1  0
  8 11  1  0
  9  6  1  0
 10  8  2  0
 12 20  1  0
 13 18  1  0
 14 15  1  0
 14 13  1  0
 16 15  1  0
 16 25  1  0
 16 17  1  0
 18 12  1  0
 18 17  1  0
 19 12  2  0
 20  9  1  0
 21 20  1  0
 22 23  2  0
 23 42  1  0
 24 23  1  0
 24 27  1  0
 25 26  1  0
 25 22  1  0
 26 24  2  0
 27 28  1  0
 28 29  2  0
 30 33  1  0
 30 29  1  0
 31 30  2  0
 32 31  1  0
 32 27  2  0
 33 34  1  0
 34 35  1  0
 35 36  2  0
 37 36  1  0
 37 41  1  0
 38 37  2  0
 39 34  2  0
 39 38  1  0
 40 39  1  0
 42 43  1  0
 43 46  1  0
 43 45  1  0
 44 42  2  0
 47 48  1  0
 47 22  1  0
 49 47  1  0
 50  1  1  0
 50 51  1  0
 52 63  2  0
 53 51  1  0
 53 58  1  0
 54 62  1  0
 54 64  1  0
 55 61  1  0
 55 57  1  0
 56 62  1  0
 57 56  1  0
 58 57  2  0
 59 53  2  0
 60 59  1  0
 60 55  2  0
 61 54  1  0
 62 52  1  0
 64 66  2  0
 65 64  1  0
 67 65  1  0
 68 77  2  0
 68 73  1  0
 69 65  1  0
 69 73  1  0
 70 69  1  0
 71 72  1  0
 71 70  1  0
 72 68  1  0
 73 74  2  0
 74 75  1  0
 76 75  2  0
 77 76  1  0
 78 52  1  0
 78 79  1  0
 78 88  1  0
 79 82  1  0
 80 84  1  0
 80 79  1  0
 81 80  2  0
 84 83  1  0
 86 87  1  0
 86 84  1  0
 86 85  1  0
 88 91  1  1
 88 89  1  0
 90 88  1  0
M  ISO  4  12 100  20 100  50 101  51 101
M  END
>  <TORSDO>  (22) 
F 18

>  <SCORE>  (22) 
-14.874

>  <name>  (22) 
21

>  <ligand_id>  (22) 
21

>  <original_smiles>  (22) 
[H]c1c([H])c([H])c2c(c1[H])C([H])([H])C([H])([H])C([H])([H])C2([H])N([H])C(=O)C1([H])N(C(=O)C([H])(N([H])C(=O)C([H])(N([H])C([H])([H])[H])C([H])([H])[H])C(C([H])([H])[H])(C([H])([H])[H])C([H])([H])[H])C([H])([H])c2c([H])c(OC([H])([H])C(=O)N([H])c3c([H])c(N([H])C(=O)N4C([H])([H])C([H])([H])C([H])([H])C([H])(n5nc(-c6c([H])c([H])c(Oc7c([H])c([H])c(F)c([H])c7F)c([H])c6[H])c(C(=O)N([H])[H])c5N([H])[H])C4([H])[H])c([H])c([H])c3C([H])([H])[H])c([H])c([H])c2C1([H])[H]

>  <smiles>  (22) 
[H]c1c([H])c([H])c2c(c1[H])C([H])([H])C([H])([H])C([H])([H])C2([H])N([H])C(=O)C1([H])N(C(=O)C([H])(N([H])C(=O)C([H])(N([H])C([H])([H])[H])C([H])([H])[H])C(C([H])([H])[H])(C([H])([H])[H])C([H])([H])[H])C([H])([H])c2c([H])c(OC([H])([H])C(=O)N([H])c3c([H])c(N([H])C(=O)N4C([H])([H])C([H])([H])C([H])([H])C([H])(n5nc(-c6c([H])c([H])c(Oc7c([H])c([H])c(F)c([H])c7F)c([H])c6[H])c(C(=O)N([H])[H])c5N([H])[H])C4([H])[H])c([H])c([H])c3C([H])([H])[H])c([H])c([H])c2C1([H])[H]

$$$$
22:0:0
     RDKit          3D

101110  0  0  1  0  0  0  0  0999 V2000
  -31.0840  -14.8100   20.4350 C   0  0  0  0  0  0  0  0  0  0  0  0
  -30.6890  -12.7250   19.1690 C   0  0  0  0  0  2  0  0  0  0  0  0
  -29.7710  -12.9830   17.9580 C   0  0  0  0  0  2  0  0  0  0  0  0
  -28.2880  -12.8710   18.3650 C   0  0  0  0  0  2  0  0  0  0  0  0
  -27.9530  -13.6840   19.6440 C   0  0  0  0  0  3  0  0  0  0  0  0
  -28.9880  -13.4210   20.7600 C   0  0  0  0  0  2  0  0  0  0  0  0
  -30.3320  -13.6910   20.2210 N   0  0  0  0  0  0  0  0  0  0  0  0
  -32.1940  -14.9640   19.9130 O   0  0  0  0  0  0  0  0  0  0  0  0
  -29.4770  -20.5160   20.2760 C   0  0  0  0  0  3  0  0  0  0  0  0
  -29.7570  -18.1660   20.9250 C   0  0  0  0  0  0  0  0  0  0  0  0
  -30.4460  -18.5890   22.0790 C   0  0  0  0  0  0  0  0  0  0  0  0
  -29.2590  -19.1370   20.0130 C   0  0  0  0  0  0  0  0  0  0  0  0
  -30.1830  -20.9390   21.4300 C   0  0  0  0  0  0  0  0  0  0  0  0
  -30.6650  -19.9630   22.3270 C   0  0  0  0  0  0  0  0  0  0  0  0
  -30.9040  -17.5220   23.0500 C   0  0  0  0  0  2  0  0  0  0  0  0
  -29.5300  -16.6570   20.7350 C   0  0  0  0  0  2  0  0  0  0  0  0
  -31.4750  -16.3020   22.3070 C   0  0  0  0  0  2  0  0  0  0  0  0
  -30.5800  -15.7550   21.2660 N   0  0  0  0  0  0  0  0  0  0  0  0
  -31.3230  -20.3590   23.4430 F   0  0  0  0  0  0  0  0  0  0  0  0
  -25.5590  -14.3400   20.3230 C   0  0  0  0  0  0  0  0  0  0  0  0
  -24.4680  -13.5880   20.6680 C   0  0  0  0  0  0  0  0  0  0  0  0
  -24.9020  -12.2280   20.6370 C   0  0  0  0  0  0  0  0  0  0  0  0
  -26.5880  -13.4380   20.1030 N   0  0  0  0  0  0  0  0  0  0  0  0
  -26.1950  -12.1620   20.3480 N   0  0  0  0  0  0  0  0  0  0  0  0
  -24.1450  -10.9800   20.8040 C   0  0  0  0  0  0  0  0  0  0  0  0
  -24.5380  -10.0020   21.7460 C   0  0  0  0  0  3  0  0  0  0  0  0
  -23.7860   -8.8180   21.9010 C   0  0  0  0  0  3  0  0  0  0  0  0
  -22.6270   -8.6050   21.1190 C   0  0  0  0  0  0  0  0  0  0  0  0
  -22.2520   -9.5720   20.1680 C   0  0  0  0  0  3  0  0  0  0  0  0
  -23.0050  -10.7480   20.0090 C   0  0  0  0  0  3  0  0  0  0  0  0
  -21.8440   -7.4780   21.1870 O   0  0  0  0  0  0  0  0  0  0  0  0
  -21.7500   -6.7360   22.3370 C   0  0  0  0  0  0  0  0  0  0  0  0
  -21.3090   -7.3000   23.5550 C   0  0  0  0  0  3  0  0  0  0  0  0
  -21.1600   -6.4860   24.6940 C   0  0  0  0  0  3  0  0  0  0  0  0
  -21.4390   -5.1090   24.6180 C   0  0  0  0  0  0  0  0  0  0  0  0
  -21.8740   -4.5430   23.4050 C   0  0  0  0  0  3  0  0  0  0  0  0
  -22.0250   -5.3560   22.2680 C   0  0  0  0  0  0  0  0  0  0  0  0
  -22.4240   -4.8030   21.0960 F   0  0  0  0  0  0  0  0  0  0  0  0
  -21.2890   -4.3230   25.7110 F   0  0  0  0  0  0  0  0  0  0  0  0
  -23.0770  -14.0940   20.9200 C   0  0  0  0  0  0  0  0  0  0  0  0
  -22.3260  -13.4270   21.7910 N   0  0  0  0  0  0  0  0  0  0  0  0
  -22.6630  -15.1160   20.3760 O   0  0  0  0  0  0  0  0  0  0  0  0
  -22.6670  -12.6000   22.2570 H   0  0  0  0  0  0  0  0  0  0  0  0
  -21.3900  -13.7490   21.9930 H   0  0  0  0  0  0  0  0  0  0  0  0
  -25.7530  -15.7090   20.1590 N   0  0  0  0  0  0  0  0  0  0  0  0
  -24.9990  -16.3760   20.2920 H   0  0  0  0  0  0  0  0  0  0  0  0
  -26.6270  -16.1440   19.9140 H   0  0  0  0  0  0  0  0  0  0  0  0
  -28.1970  -19.2720   17.7280 C   0  0  0  0  0  0  0  0  0  0  0  0
  -28.5060  -18.6760   18.8910 N   0  0  0  0  0  0  0  0  0  0  0  0
  -28.5390  -20.4120   17.4040 O   0  0  0  0  0  0  0  0  0  0  0  0
  -28.2000  -17.7170   18.9430 H   0  0  0  0  0  0  0  0  0  0  0  0
  -27.1570  -18.6540   15.6070 C   0  0  0  0  0  2  0  0  0  0  0  0
  -27.4200  -18.3690   16.8940 C   0  0  0  0  0  3  0  0  0  0  0  0
  -30.1030  -23.4500   21.1470 C   0  0  0  0  0  0  0  0  0  0  0  0
  -30.3780  -22.3060   21.8040 N   0  0  0  0  0  0  0  0  0  0  0  0
  -29.7280  -23.4980   19.9750 O   0  0  0  0  0  0  0  0  0  0  0  0
  -30.7870  -22.4240   22.7210 H   0  0  0  0  0  0  0  0  0  0  0  0
  -30.2890  -24.7540   21.9430 C   0  0  0  0  0  2  0  0  0  0  0  0
  -30.7210  -25.9980   21.1160 C   0  0  0  0  0  2  0  0  0  0  0  0
  -29.7020  -27.1580   21.1250 C   0  0  0  0  0  2  0  0  0  0  0  0
  -28.6480  -26.8510   20.2210 O   0  0  0  0  0  0  0  0  0  0  0  0
  -24.5850  -31.9500   23.2060 C   0  0  0  0  0  0  0  0  0  0  0  0
  -27.5000  -27.6130   20.2400 C   0  0  0  0  0  0  0  0  0  0  0  0
  -23.4820  -30.4970   21.5330 C   0  0  0  0  0  3  0  0  0  0  0  0
  -25.0410  -29.0090   20.1660 C   0  0  0  0  0  0  0  0  0  0  0  0
  -25.9940  -30.9570   21.4070 C   0  0  0  0  0  2  0  0  0  0  0  0
  -26.1560  -29.5860   20.7880 C   0  0  0  0  0  0  0  0  0  0  0  0
  -27.3880  -28.8970   20.8300 C   0  0  0  0  0  3  0  0  0  0  0  0
  -26.3720  -27.0550   19.6050 C   0  0  0  0  0  3  0  0  0  0  0  0
  -25.1420  -27.7390   19.5740 C   0  0  0  0  0  3  0  0  0  0  0  0
  -23.7630  -29.8160   20.1660 C   0  0  0  0  0  2  0  0  0  0  0  0
  -24.7030  -31.1510   22.1080 N   0  0  0  0  0  0  0  0  0  0  0  0
  -23.4800  -32.1820   23.7140 O   0  0  0  0  0  0  0  0  0  0  0  0
  -22.8410  -29.4550   22.4790 C   0  0  0  0  0  0  0  0  0  0  0  0
  -21.5180  -29.2640   22.3500 N   0  0  0  0  0  0  0  0  0  0  0  0
  -23.5330  -28.8260   23.2840 O   0  0  0  0  0  0  0  0  0  0  0  0
  -21.0240  -29.8280   21.6740 H   0  0  0  0  0  0  0  0  0  0  0  0
  -18.1470  -28.0810   22.8770 C   0  0  0  0  0  0  0  0  0  0  0  0
  -20.7110  -28.3100   23.1090 C   0  0  0  0  0  3  0  0  0  0  0  0
  -20.7910  -26.8960   22.4870 C   0  0  0  0  0  2  0  0  0  0  0  0
  -19.6670  -26.6130   21.4840 C   0  0  0  0  0  2  0  0  0  0  0  0
  -18.2990  -26.7510   22.1580 C   0  0  0  0  0  2  0  0  0  0  0  0
  -19.2800  -28.8200   23.3100 C   0  0  0  0  0  0  0  0  0  0  0  0
  -19.0830  -30.0670   23.9420 C   0  0  0  0  0  3  0  0  0  0  0  0
  -17.7860  -30.5740   24.1480 C   0  0  0  0  0  3  0  0  0  0  0  0
  -16.6670  -29.8310   23.7320 C   0  0  0  0  0  3  0  0  0  0  0  0
  -16.8490  -28.5880   23.1010 C   0  0  0  0  0  3  0  0  0  0  0  0
  -25.8300  -32.6310   23.8580 C   0  0  0  0  0  3  0  0  0  0  0  0
  -25.4570  -34.0130   24.1830 N   0  0  0  0  0  0  0  0  0  0  0  0
  -25.7550  -35.0790   23.4280 C   0  0  0  0  0  0  0  0  0  0  0  0
  -26.4430  -35.0030   22.4060 O   0  0  0  0  0  0  0  0  0  0  0  0
  -24.8440  -34.1420   24.9750 H   0  0  0  0  0  0  0  0  0  0  0  0
  -23.9530  -36.7910   23.0490 C   0  0  0  0  0  1  0  0  0  0  0  0
  -25.2010  -36.4440   23.8760 C   0  0  0  0  0  3  0  0  0  0  0  0
  -27.2840  -37.4250   24.7330 C   0  0  0  0  0  1  0  0  0  0  0  0
  -26.1870  -37.5420   23.7750 N   0  0  0  0  0  0  0  0  0  0  0  0
  -25.7380  -38.4430   23.9160 H   0  0  0  0  0  0  0  0  0  0  0  0
  -26.3510  -31.8740   25.1400 C   0  0  1  0  0  0  0  0  0  0  0  0
  -25.2420  -31.5730   26.1760 C   0  0  0  0  0  1  0  0  0  0  0  0
  -27.0130  -30.5320   24.7500 C   0  0  0  0  0  1  0  0  0  0  0  0
  -27.4420  -32.7180   25.8410 C   0  0  0  0  0  1  0  0  0  0  0  0
  1 18  1  0
  2  7  1  0
  3  4  1  0
  3  2  1  0
  5  4  1  0
  5 23  1  0
  5  6  1  0
  7  1  1  0
  7  6  1  0
  8  1  2  0
  9 13  1  0
 10 11  2  0
 11 14  1  0
 11 15  1  0
 12  9  2  0
 12 10  1  0
 13 55  1  0
 13 14  2  0
 14 19  1  0
 16 10  1  0
 16 18  1  0
 17 15  1  0
 18 17  1  0
 20 21  2  0
 21 40  1  0
 22 21  1  0
 22 25  1  0
 23 20  1  0
 23 24  1  0
 24 22  2  0
 25 26  1  0
 26 27  2  0
 28 31  1  0
 28 27  1  0
 29 28  2  0
 30 29  1  0
 30 25  2  0
 31 32  1  0
 32 33  1  0
 33 34  2  0
 35 34  1  0
 35 39  1  0
 36 35  2  0
 37 32  2  0
 37 36  1  0
 38 37  1  0
 40 41  1  0
 41 44  1  0
 41 43  1  0
 42 40  2  0
 45 46  1  0
 45 20  1  0
 47 45  1  0
 48 49  1  0
 49 51  1  0
 49 12  1  0
 50 48  2  0
 52 53  2  0
 53 48  1  0
 54 55  1  0
 54 58  1  0
 55 57  1  0
 56 54  2  0
 59 60  1  0
 59 58  1  0
 61 63  1  0
 61 60  1  0
 62 73  2  0
 63 68  1  0
 64 72  1  0
 64 74  1  0
 65 67  1  0
 66 72  1  0
 67 68  2  0
 67 66  1  0
 69 63  2  0
 70 69  1  0
 70 65  2  0
 71 65  1  0
 71 64  1  0
 72 62  1  0
 74 76  2  0
 75 74  1  0
 77 75  1  0
 78 87  2  0
 78 83  1  0
 79 75  1  0
 79 83  1  0
 80 79  1  0
 81 82  1  0
 81 80  1  0
 82 78  1  0
 83 84  2  0
 84 85  1  0
 86 85  2  0
 87 86  1  0
 88 62  1  0
 88 89  1  0
 88 98  1  0
 89 92  1  0
 90 94  1  0
 90 89  1  0
 91 90  2  0
 94 93  1  0
 96 94  1  0
 96 97  1  0
 96 95  1  0
 98101  1  1
 98 99  1  0
100 98  1  0
M  ISO  4   1 100  18 100  60 101  61 101
M  END
>  <TORSDO>  (23) 
F 21

>  <SCORE>  (23) 
-11.747

>  <name>  (23) 
22

>  <ligand_id>  (23) 
22

>  <original_smiles>  (23) 
[H]C([H])=C([H])C(=O)N([H])c1c([H])c(N([H])C(=O)C([H])([H])C([H])([H])C([H])([H])Oc2c([H])c([H])c3c(c2[H])C([H])([H])N(C(=O)C([H])(N([H])C(=O)C([H])(N([H])C([H])([H])[H])C([H])([H])[H])C(C([H])([H])[H])(C([H])([H])[H])C([H])([H])[H])C([H])(C(=O)N([H])C2([H])c4c([H])c([H])c([H])c([H])c4C([H])([H])C([H])([H])C2([H])[H])C3([H])[H])c(F)c2c1C([H])([H])N(C(=O)N1C([H])([H])C([H])([H])C([H])([H])C([H])(n3nc(-c4c([H])c([H])c(Oc5c([H])c([H])c(F)c([H])c5F)c([H])c4[H])c(C(=O)N([H])[H])c3N([H])[H])C1([H])[H])C([H])([H])C2([H])[H]

>  <smiles>  (23) 
[H]C([H])=C([H])C(=O)N([H])c1c([H])c(N([H])C(=O)C([H])([H])C([H])([H])C([H])([H])Oc2c([H])c([H])c3c(c2[H])C([H])([H])N(C(=O)C([H])(N([H])C(=O)C([H])(N([H])C([H])([H])[H])C([H])([H])[H])C(C([H])([H])[H])(C([H])([H])[H])C([H])([H])[H])C([H])(C(=O)N([H])C2([H])c4c([H])c([H])c([H])c([H])c4C([H])([H])C([H])([H])C2([H])[H])C3([H])[H])c(F)c2c1C([H])([H])N(C(=O)N1C([H])([H])C([H])([H])C([H])([H])C([H])(n3nc(-c4c([H])c([H])c(Oc5c([H])c([H])c(F)c([H])c5F)c([H])c4[H])c(C(=O)N([H])[H])c3N([H])[H])C1([H])[H])C([H])([H])C2([H])[H]

$$$$
23:0:0
     RDKit          3D

 94103  0  0  1  0  0  0  0  0999 V2000
  -29.1130  -23.5290   19.7600 C   0  0  0  0  0  0  0  0  0  0  0  0
  -27.7160  -23.6740   22.3200 C   0  0  0  0  0  2  0  0  0  0  0  0
  -27.3930  -24.7290   21.2740 C   0  0  0  0  0  2  0  0  0  0  0  0
  -28.2760  -22.3460   21.7610 C   0  0  0  0  0  2  0  0  0  0  0  0
  -28.6530  -24.9810   20.4480 C   0  0  0  0  0  3  0  0  0  0  0  0
  -28.9760  -22.2740   20.4450 N   0  0  0  0  0  0  0  0  0  0  0  0
  -29.6090  -23.5680   18.6300 O   0  0  0  0  0  0  0  0  0  0  0  0
  -29.6460  -19.8350   21.1570 C   0  0  0  0  0  3  0  0  0  0  0  0
  -29.4990  -20.1100   18.8400 C   0  0  0  0  0  3  0  0  0  0  0  0
  -29.9380  -18.4270   21.0100 C   0  0  0  0  0  0  0  0  0  0  0  0
  -29.3760  -20.7940   20.1090 C   0  0  0  0  0  0  0  0  0  0  0  0
  -30.0270  -17.7510   19.7550 C   0  0  0  0  0  0  0  0  0  0  0  0
  -29.7960  -18.6780   18.6670 C   0  0  0  0  0  0  0  0  0  0  0  0
  -30.1210  -17.6100   22.2800 C   0  0  0  0  0  1  0  0  0  0  0  0
  -29.7950  -18.1810   17.4060 F   0  0  0  0  0  0  0  0  0  0  0  0
  -30.9610  -15.1470   19.4660 C   0  0  0  0  0  0  0  0  0  0  0  0
  -30.8580  -12.7550   18.6350 C   0  0  0  0  0  2  0  0  0  0  0  0
  -29.7710  -12.6290   17.5390 C   0  0  0  0  0  2  0  0  0  0  0  0
  -28.3820  -12.3910   18.1630 C   0  0  0  0  0  2  0  0  0  0  0  0
  -28.0920  -13.3530   19.3440 C   0  0  0  0  0  3  0  0  0  0  0  0
  -29.2810  -13.4220   20.3270 C   0  0  0  0  0  2  0  0  0  0  0  0
  -30.4570  -13.8530   19.5540 N   0  0  0  0  0  0  0  0  0  0  0  0
  -32.0990  -15.2970   19.0090 O   0  0  0  0  0  0  0  0  0  0  0  0
  -30.0770  -16.2170   19.7380 N   0  0  0  0  0  0  0  0  0  0  0  0
  -29.2310  -15.8280   20.1210 H   0  0  0  0  0  0  0  0  0  0  0  0
  -25.8990  -13.9130   20.5420 C   0  0  0  0  0  0  0  0  0  0  0  0
  -24.8630  -13.1330   20.9800 C   0  0  0  0  0  0  0  0  0  0  0  0
  -25.2370  -11.7830   20.6910 C   0  0  0  0  0  0  0  0  0  0  0  0
  -26.8350  -13.0400   20.0140 N   0  0  0  0  0  0  0  0  0  0  0  0
  -26.4560  -11.7440   20.1670 N   0  0  0  0  0  0  0  0  0  0  0  0
  -24.4770  -10.5340   20.8310 C   0  0  0  0  0  0  0  0  0  0  0  0
  -24.8730   -9.5260   21.7390 C   0  0  0  0  0  3  0  0  0  0  0  0
  -24.1150   -8.3420   21.8700 C   0  0  0  0  0  3  0  0  0  0  0  0
  -22.9470   -8.1580   21.0900 C   0  0  0  0  0  0  0  0  0  0  0  0
  -22.5700   -9.1530   20.1720 C   0  0  0  0  0  3  0  0  0  0  0  0
  -23.3290  -10.3290   20.0410 C   0  0  0  0  0  3  0  0  0  0  0  0
  -22.1620   -7.0300   21.1320 O   0  0  0  0  0  0  0  0  0  0  0  0
  -21.8960   -6.3820   22.3110 C   0  0  0  0  0  0  0  0  0  0  0  0
  -21.2630   -7.0310   23.3920 C   0  0  0  0  0  3  0  0  0  0  0  0
  -20.9460   -6.3090   24.5610 C   0  0  0  0  0  3  0  0  0  0  0  0
  -21.2500   -4.9370   24.6450 C   0  0  0  0  0  0  0  0  0  0  0  0
  -21.8760   -4.2870   23.5670 C   0  0  0  0  0  3  0  0  0  0  0  0
  -22.1950   -5.0060   22.4030 C   0  0  0  0  0  0  0  0  0  0  0  0
  -22.7790   -4.3700   21.3580 F   0  0  0  0  0  0  0  0  0  0  0  0
  -20.9390   -4.2410   25.7630 F   0  0  0  0  0  0  0  0  0  0  0  0
  -23.5570  -13.6150   21.5410 C   0  0  0  0  0  0  0  0  0  0  0  0
  -22.9590  -12.8540   22.4490 N   0  0  0  0  0  0  0  0  0  0  0  0
  -23.0820  -14.7010   21.2080 O   0  0  0  0  0  0  0  0  0  0  0  0
  -23.3600  -11.9740   22.7390 H   0  0  0  0  0  0  0  0  0  0  0  0
  -22.0880  -13.1560   22.8630 H   0  0  0  0  0  0  0  0  0  0  0  0
  -26.1090  -15.2890   20.5260 N   0  0  0  0  0  0  0  0  0  0  0  0
  -25.4010  -15.9390   20.8500 H   0  0  0  0  0  0  0  0  0  0  0  0
  -26.8890  -15.7490   20.0750 H   0  0  0  0  0  0  0  0  0  0  0  0
  -28.6830  -26.3750   19.7470 O   0  0  0  0  0  0  0  0  0  0  0  0
  -24.7290  -31.7020   23.0080 C   0  0  0  0  0  0  0  0  0  0  0  0
  -27.5790  -27.3010   19.7850 C   0  0  0  0  0  0  0  0  0  0  0  0
  -23.6160  -30.3260   21.2900 C   0  0  0  0  0  3  0  0  0  0  0  0
  -25.1590  -28.9080   19.8040 C   0  0  0  0  0  0  0  0  0  0  0  0
  -26.1510  -30.7410   21.1640 C   0  0  0  0  0  2  0  0  0  0  0  0
  -26.3070  -29.3890   20.4500 C   0  0  0  0  0  0  0  0  0  0  0  0
  -27.5190  -28.6020   20.4230 C   0  0  0  0  0  3  0  0  0  0  0  0
  -26.4070  -26.9240   19.0980 C   0  0  0  0  0  3  0  0  0  0  0  0
  -25.2200  -27.6870   19.1150 C   0  0  0  0  0  3  0  0  0  0  0  0
  -23.8860  -29.7360   19.8800 C   0  0  0  0  0  2  0  0  0  0  0  0
  -24.8500  -30.9430   21.8760 N   0  0  0  0  0  0  0  0  0  0  0  0
  -23.6260  -31.9020   23.5390 O   0  0  0  0  0  0  0  0  0  0  0  0
  -22.9890  -29.2350   22.1930 C   0  0  0  0  0  0  0  0  0  0  0  0
  -21.6640  -29.0350   22.0810 N   0  0  0  0  0  0  0  0  0  0  0  0
  -23.6950  -28.5750   22.9590 O   0  0  0  0  0  0  0  0  0  0  0  0
  -21.1470  -29.6260   21.4460 H   0  0  0  0  0  0  0  0  0  0  0  0
  -18.3230  -27.7400   22.6050 C   0  0  0  0  0  0  0  0  0  0  0  0
  -20.8860  -28.0250   22.8030 C   0  0  0  0  0  3  0  0  0  0  0  0
  -20.9870  -26.6450   22.1110 C   0  0  0  0  0  2  0  0  0  0  0  0
  -19.8540  -26.3850   21.1140 C   0  0  0  0  0  2  0  0  0  0  0  0
  -18.4940  -26.4540   21.8140 C   0  0  0  0  0  2  0  0  0  0  0  0
  -19.4460  -28.4860   23.0550 C   0  0  0  0  0  0  0  0  0  0  0  0
  -19.2300  -29.6910   23.7570 C   0  0  0  0  0  3  0  0  0  0  0  0
  -17.9260  -30.1520   24.0130 C   0  0  0  0  0  3  0  0  0  0  0  0
  -16.8180  -29.4030   23.5800 C   0  0  0  0  0  3  0  0  0  0  0  0
  -17.0180  -28.2000   22.8800 C   0  0  0  0  0  3  0  0  0  0  0  0
  -25.9680  -32.3710   23.6760 C   0  0  0  0  0  3  0  0  0  0  0  0
  -25.5790  -33.7320   24.0810 N   0  0  0  0  0  0  0  0  0  0  0  0
  -25.8370  -34.8430   23.3780 C   0  0  0  0  0  0  0  0  0  0  0  0
  -26.4970  -34.8350   22.3360 O   0  0  0  0  0  0  0  0  0  0  0  0
  -24.9920  -33.8090   24.9000 H   0  0  0  0  0  0  0  0  0  0  0  0
  -23.9920  -36.5400   23.1580 C   0  0  0  0  0  1  0  0  0  0  0  0
  -25.2770  -36.1740   23.9180 C   0  0  0  0  0  3  0  0  0  0  0  0
  -27.3710  -37.1550   24.7470 C   0  0  0  0  0  1  0  0  0  0  0  0
  -26.2390  -37.2950   23.8350 N   0  0  0  0  0  0  0  0  0  0  0  0
  -25.7780  -38.1790   24.0350 H   0  0  0  0  0  0  0  0  0  0  0  0
  -26.5150  -31.5640   24.9180 C   0  0  1  0  0  0  0  0  0  0  0  0
  -25.4250  -31.2140   25.9570 C   0  0  0  0  0  1  0  0  0  0  0  0
  -27.1790  -30.2430   24.4650 C   0  0  0  0  0  1  0  0  0  0  0  0
  -27.6130  -32.3850   25.6330 C   0  0  0  0  0  1  0  0  0  0  0  0
  1  6  1  0
  1  5  1  0
  3  2  1  0
  4  2  1  0
  5 54  1  0
  5  3  1  0
  6  4  1  0
  7  1  2  0
  9 11  1  0
 10  8  1  0
 10 14  1  0
 11  6  1  0
 11  8  2  0
 12 10  2  0
 13  9  2  0
 13 12  1  0
 15 13  1  0
 16 22  1  0
 16 24  1  0
 17 22  1  0
 18 19  1  0
 18 17  1  0
 20 19  1  0
 20 29  1  0
 20 21  1  0
 22 21  1  0
 23 16  2  0
 24 12  1  0
 24 25  1  0
 26 27  2  0
 27 46  1  0
 28 31  1  0
 28 27  1  0
 29 30  1  0
 29 26  1  0
 30 28  2  0
 31 32  1  0
 32 33  2  0
 34 37  1  0
 34 33  1  0
 35 34  2  0
 36 35  1  0
 36 31  2  0
 37 38  1  0
 38 43  2  0
 38 39  1  0
 39 40  2  0
 40 41  1  0
 41 45  1  0
 42 41  2  0
 43 42  1  0
 44 43  1  0
 46 47  1  0
 47 49  1  0
 47 50  1  0
 48 46  2  0
 51 26  1  0
 51 52  1  0
 53 51  1  0
 54 56  1  0
 55 66  2  0
 56 61  1  0
 57 65  1  0
 57 67  1  0
 58 64  1  0
 58 60  1  0
 59 65  1  0
 60 59  1  0
 61 60  2  0
 62 63  1  0
 62 56  2  0
 63 58  2  0
 64 57  1  0
 65 55  1  0
 67 69  2  0
 68 67  1  0
 70 68  1  0
 71 80  2  0
 71 76  1  0
 72 68  1  0
 72 76  1  0
 73 72  1  0
 74 75  1  0
 74 73  1  0
 75 71  1  0
 76 77  2  0
 77 78  1  0
 79 78  2  0
 80 79  1  0
 81 55  1  0
 81 82  1  0
 81 91  1  0
 82 85  1  0
 83 87  1  0
 83 82  1  0
 84 83  2  0
 87 86  1  0
 89 87  1  0
 89 90  1  0
 89 88  1  0
 91 94  1  1
 91 92  1  0
 93 91  1  0
M  ISO  4   5 101  16 100  24 100  54 101
M  END
>  <TORSDO>  (24) 
F 17

>  <SCORE>  (24) 
-12.524

>  <name>  (24) 
23

>  <ligand_id>  (24) 
23

>  <original_smiles>  (24) 
[H]c1c([H])c([H])c2c(c1[H])C([H])([H])C([H])([H])C([H])([H])C2([H])N([H])C(=O)C1([H])N(C(=O)C([H])(N([H])C(=O)C([H])(N([H])C([H])([H])[H])C([H])([H])[H])C(C([H])([H])[H])(C([H])([H])[H])C([H])([H])[H])C([H])([H])c2c([H])c(OC3([H])C(=O)N(c4c([H])c(F)c(N([H])C(=O)N5C([H])([H])C([H])([H])C([H])([H])C([H])(n6nc(-c7c([H])c([H])c(Oc8c([H])c([H])c(F)c([H])c8F)c([H])c7[H])c(C(=O)N([H])[H])c6N([H])[H])C5([H])[H])c(C([H])([H])[H])c4[H])C([H])([H])C([H])([H])C3([H])[H])c([H])c([H])c2C1([H])[H]

>  <smiles>  (24) 
[H]c1c([H])c([H])c2c(c1[H])C([H])([H])C([H])([H])C([H])([H])C2([H])N([H])C(=O)C1([H])N(C(=O)C([H])(N([H])C(=O)C([H])(N([H])C([H])([H])[H])C([H])([H])[H])C(C([H])([H])[H])(C([H])([H])[H])C([H])([H])[H])C([H])([H])c2c([H])c(OC3([H])C(=O)N(c4c([H])c(F)c(N([H])C(=O)N5C([H])([H])C([H])([H])C([H])([H])C([H])(n6nc(-c7c([H])c([H])c(Oc8c([H])c([H])c(F)c([H])c8F)c([H])c7[H])c(C(=O)N([H])[H])c6N([H])[H])C5([H])[H])c(C([H])([H])[H])c4[H])C([H])([H])C([H])([H])C3([H])[H])c([H])c([H])c2C1([H])[H]

$$$$
24:0:0
     RDKit          3D

 94102  0  0  1  0  0  0  0  0999 V2000
  -30.1360  -21.4880   19.2770 C   0  0  0  0  0  0  0  0  0  0  0  0
  -30.5580  -20.2010   19.4100 N   0  0  0  0  0  0  0  0  0  0  0  0
  -30.4670  -22.0810   18.2470 O   0  0  0  0  0  0  0  0  0  0  0  0
  -30.9740  -19.8670   18.5550 H   0  0  0  0  0  0  0  0  0  0  0  0
  -30.4190  -17.8430   20.1250 C   0  0  0  0  0  3  0  0  0  0  0  0
  -30.7230  -17.1960   22.4510 C   0  0  0  0  0  3  0  0  0  0  0  0
  -30.5000  -16.8170   21.1120 C   0  0  0  0  0  0  0  0  0  0  0  0
  -30.5740  -19.2250   20.4660 C   0  0  0  0  0  0  0  0  0  0  0  0
  -30.9320  -18.5460   22.7920 C   0  0  0  0  0  0  0  0  0  0  0  0
  -30.8810  -19.5560   21.8100 C   0  0  0  0  0  0  0  0  0  0  0  0
  -31.1970  -18.8750   24.0800 F   0  0  0  0  0  0  0  0  0  0  0  0
  -31.1790  -20.8270   22.1670 F   0  0  0  0  0  0  0  0  0  0  0  0
  -30.9100  -14.4680   20.2290 C   0  0  0  0  0  0  0  0  0  0  0  0
  -30.5810  -12.3170   19.0390 C   0  0  0  0  0  2  0  0  0  0  0  0
  -29.6130  -12.5510   17.8590 C   0  0  0  0  0  2  0  0  0  0  0  0
  -28.1430  -12.4410   18.3160 C   0  0  0  0  0  2  0  0  0  0  0  0
  -27.8540  -13.2650   19.5970 C   0  0  0  0  0  3  0  0  0  0  0  0
  -28.9220  -12.9790   20.6770 C   0  0  0  0  0  2  0  0  0  0  0  0
  -30.2430  -13.2850   20.0950 N   0  0  0  0  0  0  0  0  0  0  0  0
  -32.0200  -14.6720   19.7260 O   0  0  0  0  0  0  0  0  0  0  0  0
  -30.2020  -15.4350   20.8590 N   0  0  0  0  0  0  0  0  0  0  0  0
  -29.3610  -15.0890   21.2960 H   0  0  0  0  0  0  0  0  0  0  0  0
  -25.4830  -13.9470   20.3360 C   0  0  0  0  0  0  0  0  0  0  0  0
  -24.4000  -13.2080   20.7280 C   0  0  0  0  0  0  0  0  0  0  0  0
  -24.8230  -11.8440   20.7020 C   0  0  0  0  0  0  0  0  0  0  0  0
  -26.5000  -13.0340   20.0970 N   0  0  0  0  0  0  0  0  0  0  0  0
  -26.1060  -11.7650   20.3730 N   0  0  0  0  0  0  0  0  0  0  0  0
  -24.0660  -10.6030   20.9150 C   0  0  0  0  0  0  0  0  0  0  0  0
  -24.4840   -9.6380   21.8570 C   0  0  0  0  0  3  0  0  0  0  0  0
  -23.7320   -8.4610   22.0580 C   0  0  0  0  0  3  0  0  0  0  0  0
  -22.5470   -8.2420   21.3160 C   0  0  0  0  0  0  0  0  0  0  0  0
  -22.1470   -9.1950   20.3640 C   0  0  0  0  0  3  0  0  0  0  0  0
  -22.9000  -10.3640   20.1610 C   0  0  0  0  0  3  0  0  0  0  0  0
  -21.7670   -7.1150   21.4230 O   0  0  0  0  0  0  0  0  0  0  0  0
  -21.6960   -6.3990   22.5900 C   0  0  0  0  0  0  0  0  0  0  0  0
  -21.2960   -6.9930   23.8070 C   0  0  0  0  0  3  0  0  0  0  0  0
  -21.1680   -6.2050   24.9680 C   0  0  0  0  0  3  0  0  0  0  0  0
  -21.4320   -4.8240   24.9130 C   0  0  0  0  0  0  0  0  0  0  0  0
  -21.8260   -4.2280   23.7020 C   0  0  0  0  0  3  0  0  0  0  0  0
  -21.9540   -5.0150   22.5430 C   0  0  0  0  0  0  0  0  0  0  0  0
  -22.3140   -4.4340   21.3730 F   0  0  0  0  0  0  0  0  0  0  0  0
  -21.3030   -4.0640   26.0260 F   0  0  0  0  0  0  0  0  0  0  0  0
  -23.0200  -13.7260   21.0180 C   0  0  0  0  0  0  0  0  0  0  0  0
  -22.2900  -13.0640   21.9080 N   0  0  0  0  0  0  0  0  0  0  0  0
  -22.5960  -14.7530   20.4870 O   0  0  0  0  0  0  0  0  0  0  0  0
  -22.6450  -12.2330   22.3610 H   0  0  0  0  0  0  0  0  0  0  0  0
  -21.3640  -13.3940   22.1420 H   0  0  0  0  0  0  0  0  0  0  0  0
  -25.6860  -15.3110   20.1440 N   0  0  0  0  0  0  0  0  0  0  0  0
  -24.9440  -15.9920   20.2620 H   0  0  0  0  0  0  0  0  0  0  0  0
  -26.5440  -15.7200   19.7960 H   0  0  0  0  0  0  0  0  0  0  0  0
  -29.2400  -22.2770   20.2730 C   0  0  0  0  0  2  0  0  0  0  0  0
  -29.7560  -24.0440   20.5630 S   0  0  0  0  0  0  0  0  0  0  0  0
  -28.3120  -25.0870   20.0820 C   0  0  0  0  0  2  0  0  0  0  0  0
  -28.4300  -26.5210   20.3020 O   0  0  0  0  0  0  0  0  0  0  0  0
  -24.6250  -31.8330   23.2320 C   0  0  0  0  0  0  0  0  0  0  0  0
  -27.2710  -27.2900   20.2490 C   0  0  0  0  0  0  0  0  0  0  0  0
  -23.4290  -30.4100   21.6030 C   0  0  0  0  0  3  0  0  0  0  0  0
  -24.8860  -28.8440   20.2120 C   0  0  0  0  0  0  0  0  0  0  0  0
  -25.9610  -30.7440   21.4270 C   0  0  0  0  0  2  0  0  0  0  0  0
  -26.0450  -29.3600   20.8050 C   0  0  0  0  0  0  0  0  0  0  0  0
  -27.2380  -28.5920   20.8190 C   0  0  0  0  0  3  0  0  0  0  0  0
  -26.0860  -26.8080   19.6410 C   0  0  0  0  0  3  0  0  0  0  0  0
  -24.9050  -27.5690   19.6260 C   0  0  0  0  0  3  0  0  0  0  0  0
  -23.6500  -29.7140   20.2340 C   0  0  0  0  0  2  0  0  0  0  0  0
  -24.6890  -31.0120   22.1450 N   0  0  0  0  0  0  0  0  0  0  0  0
  -23.5390  -32.1170   23.7580 O   0  0  0  0  0  0  0  0  0  0  0  0
  -22.7630  -29.4060   22.5730 C   0  0  0  0  0  0  0  0  0  0  0  0
  -21.4390  -29.2240   22.4360 N   0  0  0  0  0  0  0  0  0  0  0  0
  -23.4340  -28.7940   23.4070 O   0  0  0  0  0  0  0  0  0  0  0  0
  -20.9550  -29.7720   21.7370 H   0  0  0  0  0  0  0  0  0  0  0  0
  -18.0620  -28.0210   22.9030 C   0  0  0  0  0  0  0  0  0  0  0  0
  -20.6130  -28.3010   23.2140 C   0  0  0  0  0  3  0  0  0  0  0  0
  -20.7330  -26.8570   22.6740 C   0  0  0  0  0  2  0  0  0  0  0  0
  -19.6510  -26.5040   21.6490 C   0  0  0  0  0  2  0  0  0  0  0  0
  -18.2560  -26.6570   22.2640 C   0  0  0  0  0  2  0  0  0  0  0  0
  -19.1680  -28.7990   23.3350 C   0  0  0  0  0  0  0  0  0  0  0  0
  -18.9320  -30.0760   23.8910 C   0  0  0  0  0  3  0  0  0  0  0  0
  -17.6220  -30.5740   24.0210 C   0  0  0  0  0  3  0  0  0  0  0  0
  -16.5300  -29.7930   23.6040 C   0  0  0  0  0  3  0  0  0  0  0  0
  -16.7500  -28.5190   23.0520 C   0  0  0  0  0  3  0  0  0  0  0  0
  -25.9080  -32.4690   23.8520 C   0  0  0  0  0  3  0  0  0  0  0  0
  -26.4330  -31.6960   25.1250 C   0  0  1  0  0  0  0  0  0  0  0  0
  -25.3470  -31.4490   26.1960 C   0  0  0  0  0  1  0  0  0  0  0  0
  -27.0240  -30.3230   24.7270 C   0  0  0  0  0  1  0  0  0  0  0  0
  -27.5810  -32.4950   25.7870 C   0  0  0  0  0  1  0  0  0  0  0  0
  -25.5920  -33.8650   24.1870 N   0  0  0  0  0  0  0  0  0  0  0  0
  -25.9150  -34.9210   23.4270 C   0  0  0  0  0  0  0  0  0  0  0  0
  -26.5850  -34.8220   22.3940 O   0  0  0  0  0  0  0  0  0  0  0  0
  -25.0070  -34.0160   24.9950 H   0  0  0  0  0  0  0  0  0  0  0  0
  -24.1770  -36.7030   23.0750 C   0  0  0  0  0  1  0  0  0  0  0  0
  -25.4200  -36.3050   23.8860 C   0  0  0  0  0  3  0  0  0  0  0  0
  -27.5500  -37.2010   24.7140 C   0  0  0  0  0  1  0  0  0  0  0  0
  -26.4460  -37.3650   23.7730 N   0  0  0  0  0  0  0  0  0  0  0  0
  -26.0340  -38.2820   23.9230 H   0  0  0  0  0  0  0  0  0  0  0  0
  1  2  1  0
  1 51  1  0
  2  8  1  0
  3  1  2  0
  4  2  1  0
  5  8  2  0
  5  7  1  0
  6  9  1  0
  7  6  2  0
  8 10  1  0
  9 11  1  0
 10 12  1  0
 10  9  2  0
 13 21  1  0
 14 19  1  0
 15 16  1  0
 15 14  1  0
 17 16  1  0
 17 26  1  0
 17 18  1  0
 19 13  1  0
 19 18  1  0
 20 13  2  0
 21  7  1  0
 21 22  1  0
 23 24  2  0
 24 43  1  0
 25 24  1  0
 25 28  1  0
 26 23  1  0
 26 27  1  0
 27 25  2  0
 28 29  1  0
 29 30  2  0
 31 34  1  0
 31 30  1  0
 32 31  2  0
 33 32  1  0
 33 28  2  0
 34 35  1  0
 35 36  1  0
 36 37  2  0
 38 37  1  0
 38 42  1  0
 39 38  2  0
 40 35  2  0
 40 39  1  0
 41 40  1  0
 43 44  1  0
 44 47  1  0
 44 46  1  0
 45 43  2  0
 48 49  1  0
 48 23  1  0
 50 48  1  0
 51 52  1  0
 53 54  1  0
 53 52  1  0
 55 66  2  0
 56 54  1  0
 56 61  1  0
 57 65  1  0
 57 67  1  0
 58 64  1  0
 58 60  1  0
 59 65  1  0
 60 61  2  0
 60 59  1  0
 62 56  2  0
 63 62  1  0
 63 58  2  0
 64 57  1  0
 65 55  1  0
 67 69  2  0
 68 67  1  0
 70 68  1  0
 71 80  2  0
 71 76  1  0
 72 68  1  0
 72 76  1  0
 73 72  1  0
 74 75  1  0
 74 73  1  0
 75 71  1  0
 76 77  2  0
 77 78  1  0
 79 78  2  0
 80 79  1  0
 81 55  1  0
 81 86  1  0
 81 82  1  0
 82 85  1  1
 82 83  1  0
 84 82  1  0
 86 89  1  0
 87 91  1  0
 87 86  1  0
 88 87  2  0
 91 90  1  0
 93 91  1  0
 93 94  1  0
 93 92  1  0
M  ISO  4  13 100  21 100  53 101  54 101
M  END
>  <TORSDO>  (25) 
F 20

>  <SCORE>  (25) 
-13.722

>  <name>  (25) 
24

>  <ligand_id>  (25) 
24

>  <original_smiles>  (25) 
[H]c1c([H])c([H])c2c(c1[H])C([H])([H])C([H])([H])C([H])([H])C2([H])N([H])C(=O)C1([H])N(C(=O)C([H])(N([H])C(=O)C([H])(N([H])C([H])([H])[H])C([H])([H])[H])C(C([H])([H])[H])(C([H])([H])[H])C([H])([H])[H])C([H])([H])c2c([H])c(OC([H])([H])SC([H])([H])C(=O)N([H])c3c([H])c(N([H])C(=O)N4C([H])([H])C([H])([H])C([H])([H])C([H])(n5nc(-c6c([H])c([H])c(Oc7c([H])c([H])c(F)c([H])c7F)c([H])c6[H])c(C(=O)N([H])[H])c5N([H])[H])C4([H])[H])c([H])c(F)c3F)c([H])c([H])c2C1([H])[H]

>  <smiles>  (25) 
[H]c1c([H])c([H])c2c(c1[H])C([H])([H])C([H])([H])C([H])([H])C2([H])N([H])C(=O)C1([H])N(C(=O)C([H])(N([H])C(=O)C([H])(N([H])C([H])([H])[H])C([H])([H])[H])C(C([H])([H])[H])(C([H])([H])[H])C([H])([H])[H])C([H])([H])c2c([H])c(OC([H])([H])SC([H])([H])C(=O)N([H])c3c([H])c(N([H])C(=O)N4C([H])([H])C([H])([H])C([H])([H])C([H])(n5nc(-c6c([H])c([H])c(Oc7c([H])c([H])c(F)c([H])c7F)c([H])c6[H])c(C(=O)N([H])[H])c5N([H])[H])C4([H])[H])c([H])c(F)c3F)c([H])c([H])c2C1([H])[H]

$$$$
25:0:0
     RDKit          3D

100109  0  0  1  0  0  0  0  0999 V2000
  -31.6330  -17.6870   21.3050 C   0  0  0  0  0  3  0  0  0  0  0  0
  -30.8720  -19.9680   20.9070 C   0  0  0  0  0  3  0  0  0  0  0  0
  -29.3350  -18.0880   20.6110 C   0  0  0  0  0  3  0  0  0  0  0  0
  -31.9100  -19.0790   21.2820 C   0  0  0  0  0  0  0  0  0  0  0  0
  -30.3550  -17.1760   20.9700 C   0  0  0  0  0  0  0  0  0  0  0  0
  -29.5970  -19.4780   20.5710 C   0  0  0  0  0  0  0  0  0  0  0  0
  -30.8770  -14.7210   20.9450 C   0  0  0  0  0  0  0  0  0  0  0  0
  -30.8090  -12.3290   20.3360 C   0  0  0  0  0  2  0  0  0  0  0  0
  -30.0390  -12.1780   19.0070 C   0  0  0  0  0  2  0  0  0  0  0  0
  -28.5230  -12.0640   19.2610 C   0  0  0  0  0  2  0  0  0  0  0  0
  -27.9910  -13.1650   20.2170 C   0  0  0  0  0  3  0  0  0  0  0  0
  -28.8820  -13.2760   21.4740 C   0  0  0  0  0  2  0  0  0  0  0  0
  -30.2660  -13.5090   21.0240 N   0  0  0  0  0  0  0  0  0  0  0  0
  -32.0610  -14.8510   20.6180 O   0  0  0  0  0  0  0  0  0  0  0  0
  -30.0490  -15.7810   21.0650 N   0  0  0  0  0  0  0  0  0  0  0  0
  -29.0740  -15.5400   21.1530 H   0  0  0  0  0  0  0  0  0  0  0  0
  -25.5670  -13.8680   20.7250 C   0  0  0  0  0  0  0  0  0  0  0  0
  -24.4360  -13.1370   20.9770 C   0  0  0  0  0  0  0  0  0  0  0  0
  -24.8390  -11.7670   20.9510 C   0  0  0  0  0  0  0  0  0  0  0  0
  -26.5880  -12.9430   20.5650 N   0  0  0  0  0  0  0  0  0  0  0  0
  -26.1490  -11.6740   20.7580 N   0  0  0  0  0  0  0  0  0  0  0  0
  -24.0450  -10.5350   21.0400 C   0  0  0  0  0  0  0  0  0  0  0  0
  -24.3550   -9.5210   21.9720 C   0  0  0  0  0  3  0  0  0  0  0  0
  -23.5630   -8.3540   22.0500 C   0  0  0  0  0  3  0  0  0  0  0  0
  -22.4480   -8.1950   21.1940 C   0  0  0  0  0  0  0  0  0  0  0  0
  -22.1570   -9.1970   20.2520 C   0  0  0  0  0  3  0  0  0  0  0  0
  -22.9490  -10.3550   20.1710 C   0  0  0  0  0  3  0  0  0  0  0  0
  -21.6390   -7.0860   21.1820 O   0  0  0  0  0  0  0  0  0  0  0  0
  -21.4610   -6.3110   22.3000 C   0  0  0  0  0  0  0  0  0  0  0  0
  -20.9460   -6.8430   23.5010 C   0  0  0  0  0  3  0  0  0  0  0  0
  -20.7150   -5.9970   24.6040 C   0  0  0  0  0  3  0  0  0  0  0  0
  -20.9890   -4.6190   24.5050 C   0  0  0  0  0  0  0  0  0  0  0  0
  -21.4970   -4.0870   23.3070 C   0  0  0  0  0  3  0  0  0  0  0  0
  -21.7290   -4.9300   22.2070 C   0  0  0  0  0  0  0  0  0  0  0  0
  -22.1980   -4.4080   21.0480 F   0  0  0  0  0  0  0  0  0  0  0  0
  -20.7600   -3.8050   25.5610 F   0  0  0  0  0  0  0  0  0  0  0  0
  -23.0430  -13.6720   21.1380 C   0  0  0  0  0  0  0  0  0  0  0  0
  -22.2140  -12.9980   21.9260 N   0  0  0  0  0  0  0  0  0  0  0  0
  -22.6960  -14.7220   20.6000 O   0  0  0  0  0  0  0  0  0  0  0  0
  -22.5030  -12.1450   22.3820 H   0  0  0  0  0  0  0  0  0  0  0  0
  -21.2730  -13.3380   22.0760 H   0  0  0  0  0  0  0  0  0  0  0  0
  -25.8080  -15.2320   20.5970 N   0  0  0  0  0  0  0  0  0  0  0  0
  -25.0570  -15.9150   20.6300 H   0  0  0  0  0  0  0  0  0  0  0  0
  -26.6940  -15.6330   20.3190 H   0  0  0  0  0  0  0  0  0  0  0  0
  -33.4110  -20.9890   21.8920 C   0  0  0  0  0  2  0  0  0  0  0  0
  -34.8550  -21.1830   22.3550 C   0  0  0  0  0  2  0  0  0  0  0  0
  -34.3870  -18.8190   21.2500 C   0  0  0  0  0  2  0  0  0  0  0  0
  -33.1850  -19.5590   21.6580 N   0  0  0  0  0  0  0  0  0  0  0  0
  -36.8570  -19.3840   22.2550 O   0  0  0  0  0  0  0  0  0  0  0  0
  -36.1150  -20.5340   20.0890 O   0  0  0  0  0  0  0  0  0  0  0  0
  -35.7990  -19.9640   21.4100 S   0  0  2  0  0  0  0  0  0  0  0  0
  -27.4920  -19.9940   18.9880 O   0  0  0  0  0  0  0  0  0  0  0  0
  -28.2140  -20.6350   20.1790 S   0  0  0  0  0  0  0  0  0  0  0  0
  -28.9610  -23.2100   20.2890 C   0  0  0  0  0  0  0  0  0  0  0  0
  -29.1210  -22.0700   19.5910 N   0  0  0  0  0  0  0  0  0  0  0  0
  -28.6520  -23.2160   21.4830 O   0  0  0  0  0  0  0  0  0  0  0  0
  -29.2920  -22.0300   18.5980 H   0  0  0  0  0  0  0  0  0  0  0  0
  -29.1750  -24.5620   19.5750 C   0  0  0  0  0  2  0  0  0  0  0  0
  -27.8680  -25.3900   19.5060 C   0  0  0  0  0  2  0  0  0  0  0  0
  -28.0550  -26.8140   19.3570 O   0  0  0  0  0  0  0  0  0  0  0  0
  -24.4850  -31.7050   23.1200 C   0  0  0  0  0  0  0  0  0  0  0  0
  -26.9000  -27.5720   19.4690 C   0  0  0  0  0  0  0  0  0  0  0  0
  -23.1730  -30.4760   21.4270 C   0  0  0  0  0  3  0  0  0  0  0  0
  -24.5250  -29.0880   19.7710 C   0  0  0  0  0  0  0  0  0  0  0  0
  -25.6850  -30.8480   21.1080 C   0  0  0  0  0  2  0  0  0  0  0  0
  -25.7230  -29.5450   20.3360 C   0  0  0  0  0  0  0  0  0  0  0  0
  -26.9140  -28.7970   20.1810 C   0  0  0  0  0  3  0  0  0  0  0  0
  -25.6810  -27.1420   18.8930 C   0  0  0  0  0  3  0  0  0  0  0  0
  -24.5000  -27.8890   19.0450 C   0  0  0  0  0  3  0  0  0  0  0  0
  -23.2920  -29.9370   19.9770 C   0  0  0  0  0  2  0  0  0  0  0  0
  -24.4700  -31.0190   21.9430 N   0  0  0  0  0  0  0  0  0  0  0  0
  -23.4400  -31.9210   23.7500 O   0  0  0  0  0  0  0  0  0  0  0  0
  -22.5750  -29.3630   22.3190 C   0  0  0  0  0  0  0  0  0  0  0  0
  -21.2530  -29.1530   22.2100 N   0  0  0  0  0  0  0  0  0  0  0  0
  -23.2980  -28.6940   23.0650 O   0  0  0  0  0  0  0  0  0  0  0  0
  -20.7300  -29.7450   21.5790 H   0  0  0  0  0  0  0  0  0  0  0  0
  -17.9370  -27.7790   22.6380 C   0  0  0  0  0  0  0  0  0  0  0  0
  -20.4810  -28.1360   22.9250 C   0  0  0  0  0  3  0  0  0  0  0  0
  -20.6470  -26.7460   22.2690 C   0  0  0  0  0  2  0  0  0  0  0  0
  -19.5600  -26.4350   21.2360 C   0  0  0  0  0  2  0  0  0  0  0  0
  -18.1730  -26.4820   21.8830 C   0  0  0  0  0  2  0  0  0  0  0  0
  -19.0210  -28.5640   23.1130 C   0  0  0  0  0  0  0  0  0  0  0  0
  -18.7460  -29.7820   23.7730 C   0  0  0  0  0  3  0  0  0  0  0  0
  -17.4200  -30.2140   23.9650 C   0  0  0  0  0  3  0  0  0  0  0  0
  -16.3510  -29.4250   23.5070 C   0  0  0  0  0  3  0  0  0  0  0  0
  -16.6100  -28.2090   22.8480 C   0  0  0  0  0  3  0  0  0  0  0  0
  -25.8080  -32.2740   23.7200 C   0  0  0  0  0  3  0  0  0  0  0  0
  -25.5420  -33.6490   24.1620 N   0  0  0  0  0  0  0  0  0  0  0  0
  -25.8730  -34.7480   23.4690 C   0  0  0  0  0  0  0  0  0  0  0  0
  -26.5080  -34.7070   22.4120 O   0  0  0  0  0  0  0  0  0  0  0  0
  -24.9830  -33.7560   24.9960 H   0  0  0  0  0  0  0  0  0  0  0  0
  -24.1700  -36.5870   23.3010 C   0  0  0  0  0  1  0  0  0  0  0  0
  -25.4280  -36.1070   24.0410 C   0  0  0  0  0  3  0  0  0  0  0  0
  -27.6040  -36.8910   24.8630 C   0  0  0  0  0  1  0  0  0  0  0  0
  -26.4780  -37.1460   23.9690 N   0  0  0  0  0  0  0  0  0  0  0  0
  -26.0940  -38.0610   24.1950 H   0  0  0  0  0  0  0  0  0  0  0  0
  -26.3740  -31.4030   24.9080 C   0  0  1  0  0  0  0  0  0  0  0  0
  -25.3340  -31.1100   26.0150 C   0  0  0  0  0  1  0  0  0  0  0  0
  -26.9020  -30.0480   24.3840 C   0  0  0  0  0  1  0  0  0  0  0  0
  -27.5780  -32.1230   25.5590 C   0  0  0  0  0  1  0  0  0  0  0  0
  2  4  2  0
  3  5  1  0
  4  1  1  0
  4 48  1  0
  5 15  1  0
  5  1  2  0
  6  3  2  0
  6  2  1  0
  7 13  1  0
  7 15  1  0
  8 13  1  0
  9 10  1  0
  9  8  1  0
 11 10  1  0
 11 20  1  0
 11 12  1  0
 13 12  1  0
 14  7  2  0
 15 16  1  0
 17 18  2  0
 18 37  1  0
 19 18  1  0
 19 22  1  0
 20 17  1  0
 20 21  1  0
 21 19  2  0
 22 23  1  0
 23 24  2  0
 25 24  1  0
 26 25  2  0
 27 26  1  0
 27 22  2  0
 28 25  1  0
 28 29  1  0
 29 30  1  0
 30 31  2  0
 32 31  1  0
 32 36  1  0
 33 32  2  0
 34 29  2  0
 34 33  1  0
 35 34  1  0
 37 38  1  0
 38 41  1  0
 38 40  1  0
 39 37  2  0
 42 43  1  0
 42 17  1  0
 44 42  1  0
 45 46  1  0
 51 47  1  6
 47 48  1  0
 48 45  1  0
 50 51  2  0
 51 49  2  0
 51 46  1  0
 53 52  2  0
 53  6  1  0
 54 56  2  0
 55 53  1  0
 55 54  1  0
 57 55  1  0
 58 54  1  0
 59 58  1  0
 60 62  1  0
 60 59  1  0
 61 72  2  0
 62 67  1  0
 63 71  1  0
 63 73  1  0
 64 70  1  0
 64 66  1  0
 65 71  1  0
 66 65  1  0
 67 66  2  0
 68 69  1  0
 68 62  2  0
 69 64  2  0
 70 63  1  0
 71 61  1  0
 73 75  2  0
 74 73  1  0
 76 74  1  0
 77 86  2  0
 77 82  1  0
 78 74  1  0
 78 82  1  0
 79 78  1  0
 80 81  1  0
 80 79  1  0
 81 77  1  0
 82 83  2  0
 83 84  1  0
 85 84  2  0
 86 85  1  0
 87 61  1  0
 87 88  1  0
 87 97  1  0
 88 91  1  0
 89 93  1  0
 89 88  1  0
 90 89  2  0
 93 92  1  0
 95 93  1  0
 95 96  1  0
 95 94  1  0
 97100  1  1
 97 98  1  0
 99 97  1  0
M  ISO  4   7 100  15 100  59 101  60 101
M  END
>  <TORSDO>  (26) 
F 21

>  <SCORE>  (26) 
-12.576

>  <name>  (26) 
25

>  <ligand_id>  (26) 
25

>  <original_smiles>  (26) 
[H]c1c([H])c([H])c2c(c1[H])C([H])([H])C([H])([H])C([H])([H])C2([H])N([H])C(=O)C1([H])N(C(=O)C([H])(N([H])C(=O)C([H])(N([H])C([H])([H])[H])C([H])([H])[H])C(C([H])([H])[H])(C([H])([H])[H])C([H])([H])[H])C([H])([H])c2c([H])c(OC([H])([H])C([H])([H])C(=O)N([H])S(=O)c3c([H])c(N([H])C(=O)N4C([H])([H])C([H])([H])C([H])([H])C([H])(n5nc(-c6c([H])c([H])c(Oc7c([H])c([H])c(F)c([H])c7F)c([H])c6[H])c(C(=O)N([H])[H])c5N([H])[H])C4([H])[H])c([H])c(N4C([H])([H])C([H])([H])S(=O)(=O)C4([H])[H])c3[H])c([H])c([H])c2C1([H])[H]

>  <smiles>  (26) 
[H]c1c([H])c([H])c2c(c1[H])C([H])([H])C([H])([H])C([H])([H])C2([H])N([H])C(=O)C1([H])N(C(=O)C([H])(N([H])C(=O)C([H])(N([H])C([H])([H])[H])C([H])([H])[H])C(C([H])([H])[H])(C([H])([H])[H])C([H])([H])[H])C([H])([H])c2c([H])c(OC([H])([H])C([H])([H])C(=O)N([H])S(=O)c3c([H])c(N([H])C(=O)N4C([H])([H])C([H])([H])C([H])([H])C([H])(n5nc(-c6c([H])c([H])c(Oc7c([H])c([H])c(F)c([H])c7F)c([H])c6[H])c(C(=O)N([H])[H])c5N([H])[H])C4([H])[H])c([H])c(N4C([H])([H])C([H])([H])S(=O)(=O)C4([H])[H])c3[H])c([H])c([H])c2C1([H])[H]

$$$$
26:0:0
     RDKit          3D

 92100  0  0  1  0  0  0  0  0999 V2000
  -28.8930  -22.3250   19.7760 C   0  0  0  0  0  0  0  0  0  0  0  0
  -29.0710  -21.1070   20.4280 N   0  0  0  0  0  0  0  0  0  0  0  0
  -28.9610  -22.3830   18.5450 O   0  0  0  0  0  0  0  0  0  0  0  0
  -28.8170  -21.1150   21.4080 H   0  0  0  0  0  0  0  0  0  0  0  0
  -29.4310  -18.4970   20.5120 C   0  0  0  0  0  3  0  0  0  0  0  0
  -30.5370  -19.8620   18.8300 C   0  0  0  0  0  3  0  0  0  0  0  0
  -30.9160  -17.4430   18.8990 C   0  0  0  0  0  3  0  0  0  0  0  0
  -29.6440  -19.8210   19.9280 C   0  0  0  0  0  0  0  0  0  0  0  0
  -30.0660  -17.2750   20.0190 C   0  0  0  0  0  0  0  0  0  0  0  0
  -31.1480  -18.7040   18.3230 C   0  0  0  0  0  0  0  0  0  0  0  0
  -31.9780  -18.8020   17.2560 F   0  0  0  0  0  0  0  0  0  0  0  0
  -30.5950  -14.7370   20.3480 C   0  0  0  0  0  0  0  0  0  0  0  0
  -30.3740  -12.4590   19.3720 C   0  0  0  0  0  2  0  0  0  0  0  0
  -29.4420  -12.5440   18.1440 C   0  0  0  0  0  2  0  0  0  0  0  0
  -27.9700  -12.3840   18.5710 C   0  0  0  0  0  2  0  0  0  0  0  0
  -27.5990  -13.2720   19.7880 C   0  0  0  0  0  3  0  0  0  0  0  0
  -28.6560  -13.1860   20.9110 C   0  0  0  0  0  2  0  0  0  0  0  0
  -29.9570  -13.5200   20.3180 N   0  0  0  0  0  0  0  0  0  0  0  0
  -31.7900  -14.7970   20.0400 O   0  0  0  0  0  0  0  0  0  0  0  0
  -29.8450  -15.8930   20.5440 N   0  0  0  0  0  0  0  0  0  0  0  0
  -28.9480  -15.7350   20.9780 H   0  0  0  0  0  0  0  0  0  0  0  0
  -25.2130  -13.8650   20.5160 C   0  0  0  0  0  0  0  0  0  0  0  0
  -24.1470  -13.0920   20.8890 C   0  0  0  0  0  0  0  0  0  0  0  0
  -24.6100  -11.7410   20.8640 C   0  0  0  0  0  0  0  0  0  0  0  0
  -26.2560  -12.9850   20.2820 N   0  0  0  0  0  0  0  0  0  0  0  0
  -25.9010  -11.7020   20.5540 N   0  0  0  0  0  0  0  0  0  0  0  0
  -23.8840  -10.4790   21.0580 C   0  0  0  0  0  0  0  0  0  0  0  0
  -24.3260   -9.5050   21.9810 C   0  0  0  0  0  3  0  0  0  0  0  0
  -23.5990   -8.3100   22.1640 C   0  0  0  0  0  3  0  0  0  0  0  0
  -22.4150   -8.0780   21.4250 C   0  0  0  0  0  0  0  0  0  0  0  0
  -21.9910   -9.0400   20.4900 C   0  0  0  0  0  3  0  0  0  0  0  0
  -22.7180  -10.2280   20.3060 C   0  0  0  0  0  3  0  0  0  0  0  0
  -21.6580   -6.9360   21.5170 O   0  0  0  0  0  0  0  0  0  0  0  0
  -21.6350   -6.1770   22.6600 C   0  0  0  0  0  0  0  0  0  0  0  0
  -21.2560   -6.7220   23.9070 C   0  0  0  0  0  3  0  0  0  0  0  0
  -21.1780   -5.8910   25.0430 C   0  0  0  0  0  3  0  0  0  0  0  0
  -21.4720   -4.5180   24.9330 C   0  0  0  0  0  0  0  0  0  0  0  0
  -21.8440   -3.9740   23.6920 C   0  0  0  0  0  3  0  0  0  0  0  0
  -21.9230   -4.8020   22.5580 C   0  0  0  0  0  0  0  0  0  0  0  0
  -22.2620   -4.2690   21.3600 F   0  0  0  0  0  0  0  0  0  0  0  0
  -21.3910   -3.7180   26.0220 F   0  0  0  0  0  0  0  0  0  0  0  0
  -22.7500  -13.5710   21.1570 C   0  0  0  0  0  0  0  0  0  0  0  0
  -22.0200  -12.8800   22.0250 N   0  0  0  0  0  0  0  0  0  0  0  0
  -22.3140  -14.5930   20.6290 O   0  0  0  0  0  0  0  0  0  0  0  0
  -22.3860  -12.0550   22.4760 H   0  0  0  0  0  0  0  0  0  0  0  0
  -21.0820  -13.1830   22.2430 H   0  0  0  0  0  0  0  0  0  0  0  0
  -25.3770  -15.2350   20.3320 N   0  0  0  0  0  0  0  0  0  0  0  0
  -24.6080  -15.8880   20.4330 H   0  0  0  0  0  0  0  0  0  0  0  0
  -26.2200  -15.6690   19.9760 H   0  0  0  0  0  0  0  0  0  0  0  0
  -28.5460  -23.6970   20.5270 C   0  0  0  0  0  3  0  0  0  0  0  0
  -28.4200  -25.0510   19.6420 C   0  0  0  0  0  3  0  0  0  0  0  0
  -28.3360  -26.4320   20.2290 O   0  0  0  0  0  0  0  0  0  0  0  0
  -24.6170  -31.8690   23.2320 C   0  0  0  0  0  0  0  0  0  0  0  0
  -27.2020  -27.2750   20.1580 C   0  0  0  0  0  0  0  0  0  0  0  0
  -23.4020  -30.4700   21.6010 C   0  0  0  0  0  3  0  0  0  0  0  0
  -24.8400  -28.9160   20.1630 C   0  0  0  0  0  0  0  0  0  0  0  0
  -25.9430  -30.7780   21.4050 C   0  0  0  0  0  2  0  0  0  0  0  0
  -26.0150  -29.3970   20.7530 C   0  0  0  0  0  0  0  0  0  0  0  0
  -27.1950  -28.5880   20.7390 C   0  0  0  0  0  3  0  0  0  0  0  0
  -25.9970  -26.8530   19.5530 C   0  0  0  0  0  3  0  0  0  0  0  0
  -24.8370  -27.6520   19.5540 C   0  0  0  0  0  3  0  0  0  0  0  0
  -23.6060  -29.7940   20.2180 C   0  0  0  0  0  2  0  0  0  0  0  0
  -24.6730  -31.0590   22.1340 N   0  0  0  0  0  0  0  0  0  0  0  0
  -23.5360  -32.1480   23.7740 O   0  0  0  0  0  0  0  0  0  0  0  0
  -22.7450  -29.4550   22.5670 C   0  0  0  0  0  0  0  0  0  0  0  0
  -21.4180  -29.2770   22.4500 N   0  0  0  0  0  0  0  0  0  0  0  0
  -23.4280  -28.8310   23.3830 O   0  0  0  0  0  0  0  0  0  0  0  0
  -20.9240  -29.8330   21.7660 H   0  0  0  0  0  0  0  0  0  0  0  0
  -18.0450  -28.0700   22.9620 C   0  0  0  0  0  0  0  0  0  0  0  0
  -20.6040  -28.3380   23.2250 C   0  0  0  0  0  3  0  0  0  0  0  0
  -20.7080  -26.9050   22.6550 C   0  0  0  0  0  2  0  0  0  0  0  0
  -19.6050  -26.5750   21.6440 C   0  0  0  0  0  2  0  0  0  0  0  0
  -18.2250  -26.7180   22.2910 C   0  0  0  0  0  2  0  0  0  0  0  0
  -19.1630  -28.8370   23.3860 C   0  0  0  0  0  0  0  0  0  0  0  0
  -18.9410  -30.1020   23.9730 C   0  0  0  0  0  3  0  0  0  0  0  0
  -17.6340  -30.5980   24.1430 C   0  0  0  0  0  3  0  0  0  0  0  0
  -16.5330  -29.8280   23.7350 C   0  0  0  0  0  3  0  0  0  0  0  0
  -16.7380  -28.5660   23.1510 C   0  0  0  0  0  3  0  0  0  0  0  0
  -25.9040  -32.5020   23.8450 C   0  0  0  0  0  3  0  0  0  0  0  0
  -26.4290  -31.7310   25.1180 C   0  0  1  0  0  0  0  0  0  0  0  0
  -25.3460  -31.4940   26.1950 C   0  0  0  0  0  1  0  0  0  0  0  0
  -27.0080  -30.3520   24.7230 C   0  0  0  0  0  1  0  0  0  0  0  0
  -27.5830  -32.5260   25.7720 C   0  0  0  0  0  1  0  0  0  0  0  0
  -25.5920  -33.9000   24.1830 N   0  0  0  0  0  0  0  0  0  0  0  0
  -25.9140  -34.9580   23.4260 C   0  0  0  0  0  0  0  0  0  0  0  0
  -26.5740  -34.8620   22.3880 O   0  0  0  0  0  0  0  0  0  0  0  0
  -25.0030  -34.0480   24.9880 H   0  0  0  0  0  0  0  0  0  0  0  0
  -24.1750  -36.7490   23.1030 C   0  0  0  0  0  1  0  0  0  0  0  0
  -25.4280  -36.3430   23.8950 C   0  0  0  0  0  3  0  0  0  0  0  0
  -27.5730  -37.2310   24.6990 C   0  0  0  0  0  1  0  0  0  0  0  0
  -26.4550  -37.4020   23.7750 N   0  0  0  0  0  0  0  0  0  0  0  0
  -26.0460  -38.3190   23.9370 H   0  0  0  0  0  0  0  0  0  0  0  0
  1  2  1  0
  1 50  1  0
  2  4  1  0
  3  1  2  0
  6  8  1  0
  7  9  2  0
  8  2  1  0
  8  5  2  0
  9  5  1  0
  9 20  1  0
 10  6  2  0
 10  7  1  0
 11 10  1  0
 12 20  1  0
 13 18  1  0
 14 15  1  0
 14 13  1  0
 16 15  1  0
 16 25  1  0
 16 17  1  0
 18 12  1  0
 18 17  1  0
 19 12  2  0
 20 21  1  0
 22 23  2  0
 23 42  1  0
 24 23  1  0
 24 27  1  0
 25 22  1  0
 25 26  1  0
 26 24  2  0
 27 28  1  0
 28 29  2  0
 30 33  1  0
 30 29  1  0
 31 30  2  0
 32 31  1  0
 32 27  2  0
 33 34  1  0
 34 35  1  0
 35 36  2  0
 37 36  1  0
 37 41  1  0
 38 37  2  0
 39 34  2  0
 39 38  1  0
 40 39  1  0
 42 43  1  0
 43 46  1  0
 43 45  1  0
 44 42  2  0
 47 48  1  0
 47 22  1  0
 49 47  1  0
 51 52  1  0
 51 50  2  0
 53 64  2  0
 54 52  1  0
 54 59  1  0
 55 63  1  0
 55 65  1  0
 56 62  1  0
 56 58  1  0
 57 63  1  0
 58 57  1  0
 59 58  2  0
 60 61  1  0
 60 54  2  0
 61 56  2  0
 62 55  1  0
 63 53  1  0
 65 67  2  0
 66 65  1  0
 68 66  1  0
 69 78  2  0
 69 74  1  0
 70 66  1  0
 70 74  1  0
 71 70  1  0
 72 73  1  0
 72 71  1  0
 73 69  1  0
 74 75  2  0
 75 76  1  0
 77 76  2  0
 78 77  1  0
 79 53  1  0
 79 84  1  0
 79 80  1  0
 80 83  1  1
 80 81  1  0
 82 80  1  0
 84 87  1  0
 85 89  1  0
 85 84  1  0
 86 85  2  0
 89 88  1  0
 91 89  1  0
 91 92  1  0
 91 90  1  0
M  ISO  4  12 100  20 100  51 101  52 101
M  END
>  <TORSDO>  (27) 
F 19

>  <SCORE>  (27) 
-14.203

>  <name>  (27) 
26

>  <ligand_id>  (27) 
26

>  <original_smiles>  (27) 
[H]c1c([H])c([H])c2c(c1[H])C([H])([H])C([H])([H])C([H])([H])C2([H])N([H])C(=O)C1([H])N(C(=O)C([H])(N([H])C(=O)C([H])(N([H])C([H])([H])[H])C([H])([H])[H])C(C([H])([H])[H])(C([H])([H])[H])C([H])([H])[H])C([H])([H])c2c([H])c(OC([H])([H])C([H])([H])C(=O)N([H])c3c([H])c(F)c([H])c(N([H])C(=O)N4C([H])([H])C([H])([H])C([H])([H])C([H])(n5nc(-c6c([H])c([H])c(Oc7c([H])c([H])c(F)c([H])c7F)c([H])c6[H])c(C(=O)N([H])[H])c5N([H])[H])C4([H])[H])c3[H])c([H])c([H])c2C1([H])[H]

>  <smiles>  (27) 
[H]c1c([H])c([H])c2c(c1[H])C([H])([H])C([H])([H])C([H])([H])C2([H])N([H])C(=O)C1([H])N(C(=O)C([H])(N([H])C(=O)C([H])(N([H])C([H])([H])[H])C([H])([H])[H])C(C([H])([H])[H])(C([H])([H])[H])C([H])([H])[H])C([H])([H])c2c([H])c(OC([H])([H])C([H])([H])C(=O)N([H])c3c([H])c(F)c([H])c(N([H])C(=O)N4C([H])([H])C([H])([H])C([H])([H])C([H])(n5nc(-c6c([H])c([H])c(Oc7c([H])c([H])c(F)c([H])c7F)c([H])c6[H])c(C(=O)N([H])[H])c5N([H])[H])C4([H])[H])c3[H])c([H])c([H])c2C1([H])[H]

$$$$
27:0:0
     RDKit          3D

 97105  0  0  1  0  0  0  0  0999 V2000
  -31.3850  -19.3790   21.8610 C   0  0  0  0  0  3  0  0  0  0  0  0
  -31.0780  -18.0940   21.3730 C   0  0  0  0  0  3  0  0  0  0  0  0
  -29.1110  -19.0990   20.3820 C   0  0  0  0  0  3  0  0  0  0  0  0
  -30.5930  -20.5420   21.6600 C   0  0  0  0  0  0  0  0  0  0  0  0
  -29.9030  -17.8350   20.6510 C   0  0  0  0  0  0  0  0  0  0  0  0
  -29.4280  -20.5220   20.8080 C   0  0  0  0  0  0  0  0  0  0  0  0
  -30.4070  -15.1220   20.2840 C   0  0  0  0  0  0  0  0  0  0  0  0
  -30.3250  -12.7610   19.3000 C   0  0  0  0  0  2  0  0  0  0  0  0
  -29.3630  -12.6630   18.0910 C   0  0  0  0  0  2  0  0  0  0  0  0
  -27.9200  -12.4030   18.5610 C   0  0  0  0  0  2  0  0  0  0  0  0
  -27.5130  -13.3170   19.7460 C   0  0  0  0  0  3  0  0  0  0  0  0
  -28.5960  -13.3750   20.8440 C   0  0  0  0  0  2  0  0  0  0  0  0
  -29.8250  -13.8490   20.1960 N   0  0  0  0  0  0  0  0  0  0  0  0
  -31.6200  -15.1690   20.0430 O   0  0  0  0  0  0  0  0  0  0  0  0
  -29.6120  -16.3260   20.3680 N   0  0  0  0  0  0  0  0  0  0  0  0
  -28.6270  -16.1250   20.2870 H   0  0  0  0  0  0  0  0  0  0  0  0
  -25.1480  -13.8380   20.5560 C   0  0  0  0  0  0  0  0  0  0  0  0
  -24.1070  -13.0400   20.9400 C   0  0  0  0  0  0  0  0  0  0  0  0
  -24.5930  -11.6980   20.8760 C   0  0  0  0  0  0  0  0  0  0  0  0
  -26.1980  -12.9830   20.2780 N   0  0  0  0  0  0  0  0  0  0  0  0
  -25.8770  -11.6880   20.5360 N   0  0  0  0  0  0  0  0  0  0  0  0
  -23.8900  -10.4200   21.0610 C   0  0  0  0  0  0  0  0  0  0  0  0
  -24.3500   -9.4500   21.9780 C   0  0  0  0  0  3  0  0  0  0  0  0
  -23.6450   -8.2390   22.1510 C   0  0  0  0  0  3  0  0  0  0  0  0
  -22.4670   -7.9900   21.4080 C   0  0  0  0  0  0  0  0  0  0  0  0
  -22.0270   -8.9490   20.4790 C   0  0  0  0  0  3  0  0  0  0  0  0
  -22.7330  -10.1530   20.3030 C   0  0  0  0  0  3  0  0  0  0  0  0
  -21.7320   -6.8330   21.4930 O   0  0  0  0  0  0  0  0  0  0  0  0
  -21.6950   -6.0870   22.6430 C   0  0  0  0  0  0  0  0  0  0  0  0
  -21.2330   -6.6220   23.8650 C   0  0  0  0  0  3  0  0  0  0  0  0
  -21.1450   -5.8010   25.0060 C   0  0  0  0  0  3  0  0  0  0  0  0
  -21.5120   -4.4430   24.9270 C   0  0  0  0  0  0  0  0  0  0  0  0
  -21.9660   -3.9060   23.7090 C   0  0  0  0  0  3  0  0  0  0  0  0
  -22.0540   -4.7260   22.5700 C   0  0  0  0  0  0  0  0  0  0  0  0
  -22.4730   -4.1980   21.3950 F   0  0  0  0  0  0  0  0  0  0  0  0
  -21.4200   -3.6510   26.0200 F   0  0  0  0  0  0  0  0  0  0  0  0
  -22.7080  -13.4900   21.2440 C   0  0  0  0  0  0  0  0  0  0  0  0
  -22.0090  -12.7730   22.1170 N   0  0  0  0  0  0  0  0  0  0  0  0
  -22.2430  -14.5140   20.7440 O   0  0  0  0  0  0  0  0  0  0  0  0
  -22.3980  -11.9450   22.5430 H   0  0  0  0  0  0  0  0  0  0  0  0
  -21.0710  -13.0560   22.3620 H   0  0  0  0  0  0  0  0  0  0  0  0
  -25.2820  -15.2140   20.3930 N   0  0  0  0  0  0  0  0  0  0  0  0
  -24.4980  -15.8450   20.5220 H   0  0  0  0  0  0  0  0  0  0  0  0
  -26.0890  -15.6670   19.9880 H   0  0  0  0  0  0  0  0  0  0  0  0
  -31.0390  -21.6640   22.5180 C   0  0  0  0  0  0  0  0  0  0  0  0
  -31.1190  -21.4840   23.8370 N   0  0  0  0  0  0  0  0  0  0  0  0
  -31.4460  -22.8340   22.0440 N   0  0  0  0  0  4  0  0  0  0  0  0
  -30.8060  -20.6060   24.2270 H   0  0  0  0  0  0  0  0  0  0  0  0
  -31.4400  -22.1940   24.4740 H   0  0  0  0  0  0  0  0  0  0  0  0
  -31.1580  -23.0850   21.0950 H   0  0  0  0  0  0  0  0  0  0  0  0
  -31.8390  -23.5570   22.6260 H   0  0  0  0  0  0  0  0  0  0  0  0
  -28.8030  -23.2210   20.2700 C   0  0  0  0  0  0  0  0  0  0  0  0
  -28.5620  -21.8250   20.5850 N   0  0  0  0  0  0  0  0  0  0  0  0
  -29.9030  -23.5100   19.7910 O   0  0  0  0  0  0  0  0  0  0  0  0
  -27.5730  -21.6600   20.7280 H   0  0  0  0  0  0  0  0  0  0  0  0
  -27.7160  -24.5100   20.3720 C   0  0  0  0  0  2  0  0  0  0  0  0
  -28.0880  -26.0600   20.2820 O   0  0  0  0  0  0  0  0  0  0  0  0
  -24.5930  -31.9500   23.2160 C   0  0  0  0  0  0  0  0  0  0  0  0
  -27.0710  -27.1090   20.2250 C   0  0  0  0  0  0  0  0  0  0  0  0
  -23.3620  -30.5480   21.6090 C   0  0  0  0  0  3  0  0  0  0  0  0
  -24.7770  -28.9340   20.1870 C   0  0  0  0  0  0  0  0  0  0  0  0
  -25.9220  -30.7630   21.4210 C   0  0  0  0  0  2  0  0  0  0  0  0
  -25.9730  -29.3560   20.7820 C   0  0  0  0  0  0  0  0  0  0  0  0
  -27.1190  -28.4620   20.7800 C   0  0  0  0  0  3  0  0  0  0  0  0
  -25.8490  -26.8130   19.5800 C   0  0  0  0  0  3  0  0  0  0  0  0
  -24.7330  -27.6770   19.5670 C   0  0  0  0  0  3  0  0  0  0  0  0
  -23.5640  -29.8510   20.2370 C   0  0  0  0  0  2  0  0  0  0  0  0
  -24.6480  -31.1110   22.1350 N   0  0  0  0  0  0  0  0  0  0  0  0
  -23.5140  -32.2550   23.7490 O   0  0  0  0  0  0  0  0  0  0  0  0
  -22.6780  -29.5640   22.5910 C   0  0  0  0  0  0  0  0  0  0  0  0
  -21.3500  -29.3910   22.4660 N   0  0  0  0  0  0  0  0  0  0  0  0
  -23.3470  -28.9560   23.4320 O   0  0  0  0  0  0  0  0  0  0  0  0
  -20.8660  -29.9300   21.7620 H   0  0  0  0  0  0  0  0  0  0  0  0
  -17.9700  -28.1850   22.9830 C   0  0  0  0  0  0  0  0  0  0  0  0
  -20.5270  -28.4680   23.2550 C   0  0  0  0  0  3  0  0  0  0  0  0
  -20.6390  -27.0220   22.7160 C   0  0  0  0  0  2  0  0  0  0  0  0
  -19.5440  -26.6690   21.7060 C   0  0  0  0  0  2  0  0  0  0  0  0
  -18.1580  -26.8210   22.3390 C   0  0  0  0  0  2  0  0  0  0  0  0
  -19.0830  -28.9650   23.3980 C   0  0  0  0  0  0  0  0  0  0  0  0
  -18.8520  -30.2380   23.9630 C   0  0  0  0  0  3  0  0  0  0  0  0
  -17.5420  -30.7320   24.1140 C   0  0  0  0  0  3  0  0  0  0  0  0
  -16.4460  -29.9510   23.7120 C   0  0  0  0  0  3  0  0  0  0  0  0
  -16.6600  -28.6790   23.1530 C   0  0  0  0  0  3  0  0  0  0  0  0
  -25.8810  -32.5820   23.8240 C   0  0  0  0  0  3  0  0  0  0  0  0
  -26.3960  -31.8230   25.1090 C   0  0  1  0  0  0  0  0  0  0  0  0
  -25.3050  -31.6090   26.1840 C   0  0  0  0  0  1  0  0  0  0  0  0
  -26.9640  -30.4340   24.7360 C   0  0  0  0  0  1  0  0  0  0  0  0
  -27.5590  -32.6140   25.7510 C   0  0  0  0  0  1  0  0  0  0  0  0
  -25.5840  -33.9880   24.1460 N   0  0  0  0  0  0  0  0  0  0  0  0
  -25.9020  -35.0350   23.3740 C   0  0  0  0  0  0  0  0  0  0  0  0
  -26.5410  -34.9190   22.3250 O   0  0  0  0  0  0  0  0  0  0  0  0
  -25.0110  -34.1510   24.9610 H   0  0  0  0  0  0  0  0  0  0  0  0
  -24.1740  -36.8390   23.0640 C   0  0  0  0  0  1  0  0  0  0  0  0
  -25.4390  -36.4320   23.8350 C   0  0  0  0  0  3  0  0  0  0  0  0
  -27.6030  -37.3170   24.5880 C   0  0  0  0  0  1  0  0  0  0  0  0
  -26.4750  -37.4770   23.6750 N   0  0  0  0  0  0  0  0  0  0  0  0
  -26.0810  -38.4030   23.8200 H   0  0  0  0  0  0  0  0  0  0  0  0
  2  1  2  0
  3  5  2  0
  3  6  1  0
  4  1  1  0
  4 45  1  0
  5  2  1  0
  6  4  2  0
  7 15  1  0
  8 13  1  0
  9 10  1  0
  9  8  1  0
 11 10  1  0
 11 20  1  0
 11 12  1  0
 13  7  1  0
 13 12  1  0
 14  7  2  0
 15  5  1  0
 16 15  1  0
 17 18  2  0
 18 37  1  0
 19 18  1  0
 19 22  1  0
 20 21  1  0
 20 17  1  0
 21 19  2  0
 22 23  1  0
 23 24  2  0
 25 28  1  0
 25 24  1  0
 26 25  2  0
 27 26  1  0
 27 22  2  0
 28 29  1  0
 29 30  1  0
 30 31  2  0
 32 31  1  0
 32 36  1  0
 33 32  2  0
 34 29  2  0
 34 33  1  0
 35 34  1  0
 37 38  1  0
 38 41  1  0
 38 40  1  0
 39 37  2  0
 42 43  1  0
 42 17  1  0
 44 42  1  0
 45 46  1  0
 46 48  1  0
 46 49  1  0
 47 45  2  0
 47 51  1  0
 50 47  1  0
 52 56  1  0
 52 53  1  0
 53 55  1  0
 53  6  1  0
 54 52  2  0
 57 56  1  0
 58 69  2  0
 59 57  1  0
 59 64  1  0
 60 68  1  0
 60 70  1  0
 61 67  1  0
 61 63  1  0
 62 68  1  0
 63 62  1  0
 64 63  2  0
 65 59  2  0
 66 65  1  0
 66 61  2  0
 67 60  1  0
 68 58  1  0
 70 72  2  0
 71 70  1  0
 73 71  1  0
 74 83  2  0
 74 79  1  0
 75 71  1  0
 75 79  1  0
 76 75  1  0
 77 78  1  0
 77 76  1  0
 78 74  1  0
 79 80  2  0
 80 81  1  0
 82 81  2  0
 83 82  1  0
 84 58  1  0
 84 89  1  0
 84 85  1  0
 85 88  1  1
 85 86  1  0
 87 85  1  0
 89 92  1  0
 90 94  1  0
 90 89  1  0
 91 90  2  0
 94 93  1  0
 96 97  1  0
 96 94  1  0
 96 95  1  0
M  ISO  4   7 100  15 100  56 101  57 101
M  END
>  <TORSDO>  (28) 
F 19

>  <SCORE>  (28) 
-14.709

>  <name>  (28) 
27

>  <ligand_id>  (28) 
27

>  <original_smiles>  (28) 
[H]c1c([H])c([H])c2c(c1[H])C([H])([H])C([H])([H])C([H])([H])C2([H])N([H])C(=O)C1([H])N(C(=O)C([H])(N([H])C(=O)C([H])(N([H])C([H])([H])[H])C([H])([H])[H])C(C([H])([H])[H])(C([H])([H])[H])C([H])([H])[H])C([H])([H])c2c([H])c(OC([H])([H])C(=O)N([H])c3c([H])c(N([H])C(=O)N4C([H])([H])C([H])([H])C([H])([H])C([H])(n5nc(-c6c([H])c([H])c(Oc7c([H])c([H])c(F)c([H])c7F)c([H])c6[H])c(C(=O)N([H])[H])c5N([H])[H])C4([H])[H])c([H])c([H])c3C(N([H])[H])=[N+]([H])[H])c([H])c([H])c2C1([H])[H]

>  <smiles>  (28) 
[H]c1c([H])c([H])c2c(c1[H])C([H])([H])C([H])([H])C([H])([H])C2([H])N([H])C(=O)C1([H])N(C(=O)C([H])(N([H])C(=O)C([H])(N([H])C([H])([H])[H])C([H])([H])[H])C(C([H])([H])[H])(C([H])([H])[H])C([H])([H])[H])C([H])([H])c2c([H])c(OC([H])([H])C(=O)N([H])c3c([H])c(N([H])C(=O)N4C([H])([H])C([H])([H])C([H])([H])C([H])(n5nc(-c6c([H])c([H])c(Oc7c([H])c([H])c(F)c([H])c7F)c([H])c6[H])c(C(=O)N([H])[H])c5N([H])[H])C4([H])[H])c([H])c([H])c3C(N([H])[H])=[N+]([H])[H])c([H])c([H])c2C1([H])[H]

$$$$
28:0:0
     RDKit          3D

 92100  0  0  1  0  0  0  0  0999 V2000
  -29.2050  -22.3760   19.9710 C   0  0  0  0  0  0  0  0  0  0  0  0
  -29.4770  -21.2170   20.6870 N   0  0  0  0  0  0  0  0  0  0  0  0
  -29.1430  -22.3320   18.7400 O   0  0  0  0  0  0  0  0  0  0  0  0
  -29.2860  -21.2770   21.6800 H   0  0  0  0  0  0  0  0  0  0  0  0
  -32.0820  -18.9030   19.1490 C   0  0  0  0  0  3  0  0  0  0  0  0
  -31.5730  -17.6150   19.3900 C   0  0  0  0  0  3  0  0  0  0  0  0
  -29.6950  -18.6140   20.5500 C   0  0  0  0  0  3  0  0  0  0  0  0
  -31.4300  -20.0610   19.6130 C   0  0  0  0  0  0  0  0  0  0  0  0
  -30.4010  -17.3960   20.1570 C   0  0  0  0  0  0  0  0  0  0  0  0
  -30.1590  -19.9690   20.2520 C   0  0  0  0  0  0  0  0  0  0  0  0
  -32.1860  -21.3770   19.4520 C   0  0  0  0  0  1  0  0  0  0  0  0
  -30.6450  -14.7840   20.3110 C   0  0  0  0  0  0  0  0  0  0  0  0
  -30.3410  -12.5210   19.3160 C   0  0  0  0  0  2  0  0  0  0  0  0
  -29.4000  -12.6130   18.0980 C   0  0  0  0  0  2  0  0  0  0  0  0
  -27.9340  -12.4550   18.5440 C   0  0  0  0  0  2  0  0  0  0  0  0
  -27.5800  -13.3440   19.7650 C   0  0  0  0  0  3  0  0  0  0  0  0
  -28.6550  -13.2780   20.8740 C   0  0  0  0  0  2  0  0  0  0  0  0
  -29.9470  -13.5970   20.2560 N   0  0  0  0  0  0  0  0  0  0  0  0
  -31.8460  -14.7670   20.0440 O   0  0  0  0  0  0  0  0  0  0  0  0
  -29.9640  -15.9940   20.4590 N   0  0  0  0  0  0  0  0  0  0  0  0
  -29.0010  -15.8940   20.7400 H   0  0  0  0  0  0  0  0  0  0  0  0
  -25.2020  -13.9360   20.5200 C   0  0  0  0  0  0  0  0  0  0  0  0
  -24.1360  -13.1640   20.8950 C   0  0  0  0  0  0  0  0  0  0  0  0
  -24.5960  -11.8110   20.8590 C   0  0  0  0  0  0  0  0  0  0  0  0
  -26.2420  -13.0550   20.2740 N   0  0  0  0  0  0  0  0  0  0  0  0
  -25.8860  -11.7720   20.5420 N   0  0  0  0  0  0  0  0  0  0  0  0
  -23.8640  -10.5490   21.0470 C   0  0  0  0  0  0  0  0  0  0  0  0
  -24.2940   -9.5780   21.9770 C   0  0  0  0  0  3  0  0  0  0  0  0
  -23.5620   -8.3830   22.1550 C   0  0  0  0  0  3  0  0  0  0  0  0
  -22.3840   -8.1540   21.4040 C   0  0  0  0  0  0  0  0  0  0  0  0
  -21.9740   -9.1150   20.4640 C   0  0  0  0  0  3  0  0  0  0  0  0
  -22.7060  -10.3000   20.2830 C   0  0  0  0  0  3  0  0  0  0  0  0
  -21.6240   -7.0130   21.4930 O   0  0  0  0  0  0  0  0  0  0  0  0
  -21.5760   -6.2680   22.6420 C   0  0  0  0  0  0  0  0  0  0  0  0
  -21.1490   -6.8200   23.8710 C   0  0  0  0  0  3  0  0  0  0  0  0
  -21.0480   -5.9990   25.0130 C   0  0  0  0  0  3  0  0  0  0  0  0
  -21.3630   -4.6290   24.9270 C   0  0  0  0  0  0  0  0  0  0  0  0
  -21.7840   -4.0790   23.7040 C   0  0  0  0  0  3  0  0  0  0  0  0
  -21.8860   -4.8950   22.5640 C   0  0  0  0  0  0  0  0  0  0  0  0
  -22.2700   -4.3540   21.3840 F   0  0  0  0  0  0  0  0  0  0  0  0
  -21.2590   -3.8400   26.0230 F   0  0  0  0  0  0  0  0  0  0  0  0
  -22.7420  -13.6450   21.1740 C   0  0  0  0  0  0  0  0  0  0  0  0
  -22.0140  -12.9460   22.0380 N   0  0  0  0  0  0  0  0  0  0  0  0
  -22.3070  -14.6750   20.6610 O   0  0  0  0  0  0  0  0  0  0  0  0
  -22.3780  -12.1120   22.4730 H   0  0  0  0  0  0  0  0  0  0  0  0
  -21.0790  -13.2500   22.2680 H   0  0  0  0  0  0  0  0  0  0  0  0
  -25.3690  -15.3060   20.3430 N   0  0  0  0  0  0  0  0  0  0  0  0
  -24.6020  -15.9600   20.4470 H   0  0  0  0  0  0  0  0  0  0  0  0
  -26.2120  -15.7390   19.9880 H   0  0  0  0  0  0  0  0  0  0  0  0
  -28.9520  -23.7940   20.6690 C   0  0  0  0  0  3  0  0  0  0  0  0
  -28.2140  -24.9770   19.8490 C   0  0  0  0  0  3  0  0  0  0  0  0
  -28.3060  -26.4270   20.2450 O   0  0  0  0  0  0  0  0  0  0  0  0
  -24.6060  -31.8890   23.2230 C   0  0  0  0  0  0  0  0  0  0  0  0
  -27.1950  -27.3010   20.1530 C   0  0  0  0  0  0  0  0  0  0  0  0
  -23.3940  -30.4940   21.5870 C   0  0  0  0  0  3  0  0  0  0  0  0
  -24.8370  -28.9480   20.1470 C   0  0  0  0  0  0  0  0  0  0  0  0
  -25.9370  -30.7990   21.3990 C   0  0  0  0  0  2  0  0  0  0  0  0
  -26.0090  -29.4200   20.7500 C   0  0  0  0  0  0  0  0  0  0  0  0
  -27.1860  -28.6060   20.7490 C   0  0  0  0  0  3  0  0  0  0  0  0
  -26.0040  -26.9080   19.4950 C   0  0  0  0  0  3  0  0  0  0  0  0
  -24.8400  -27.6990   19.5100 C   0  0  0  0  0  3  0  0  0  0  0  0
  -23.6030  -29.8250   20.2040 C   0  0  0  0  0  2  0  0  0  0  0  0
  -24.6650  -31.0800   22.1240 N   0  0  0  0  0  0  0  0  0  0  0  0
  -23.5240  -32.1670   23.7620 O   0  0  0  0  0  0  0  0  0  0  0  0
  -22.7360  -29.4750   22.5470 C   0  0  0  0  0  0  0  0  0  0  0  0
  -21.4080  -29.2990   22.4280 N   0  0  0  0  0  0  0  0  0  0  0  0
  -23.4170  -28.8480   23.3630 O   0  0  0  0  0  0  0  0  0  0  0  0
  -20.9180  -29.8580   21.7440 H   0  0  0  0  0  0  0  0  0  0  0  0
  -18.0320  -28.1010   22.9370 C   0  0  0  0  0  0  0  0  0  0  0  0
  -20.5910  -28.3600   23.2000 C   0  0  0  0  0  3  0  0  0  0  0  0
  -20.6910  -26.9290   22.6250 C   0  0  0  0  0  2  0  0  0  0  0  0
  -19.5850  -26.6080   21.6140 C   0  0  0  0  0  2  0  0  0  0  0  0
  -18.2050  -26.7530   22.2620 C   0  0  0  0  0  2  0  0  0  0  0  0
  -19.1520  -28.8630   23.3640 C   0  0  0  0  0  0  0  0  0  0  0  0
  -18.9360  -30.1260   23.9570 C   0  0  0  0  0  3  0  0  0  0  0  0
  -17.6290  -30.6250   24.1290 C   0  0  0  0  0  3  0  0  0  0  0  0
  -16.5240  -29.8600   23.7190 C   0  0  0  0  0  3  0  0  0  0  0  0
  -16.7270  -28.6000   23.1280 C   0  0  0  0  0  3  0  0  0  0  0  0
  -25.8890  -32.5210   23.8420 C   0  0  0  0  0  3  0  0  0  0  0  0
  -26.4090  -31.7500   25.1170 C   0  0  1  0  0  0  0  0  0  0  0  0
  -25.3190  -31.5150   26.1880 C   0  0  0  0  0  1  0  0  0  0  0  0
  -26.9900  -30.3710   24.7240 C   0  0  0  0  0  1  0  0  0  0  0  0
  -27.5600  -32.5460   25.7750 C   0  0  0  0  0  1  0  0  0  0  0  0
  -25.5800  -33.9200   24.1760 N   0  0  0  0  0  0  0  0  0  0  0  0
  -25.9060  -34.9750   23.4160 C   0  0  0  0  0  0  0  0  0  0  0  0
  -26.5670  -34.8720   22.3800 O   0  0  0  0  0  0  0  0  0  0  0  0
  -24.9940  -34.0730   24.9820 H   0  0  0  0  0  0  0  0  0  0  0  0
  -24.1770  -36.7720   23.0730 C   0  0  0  0  0  1  0  0  0  0  0  0
  -25.4200  -36.3630   23.8800 C   0  0  0  0  0  3  0  0  0  0  0  0
  -27.5580  -37.2450   24.7080 C   0  0  0  0  0  1  0  0  0  0  0  0
  -26.4530  -37.4150   23.7660 N   0  0  0  0  0  0  0  0  0  0  0  0
  -26.0480  -38.3360   23.9140 H   0  0  0  0  0  0  0  0  0  0  0  0
  1 50  1  0
  1  2  1  0
  2  4  1  0
  3  1  2  0
  5  6  2  0
  5  8  1  0
  6  9  1  0
  8 10  2  0
  9 20  1  0
  9  7  2  0
 10  7  1  0
 10  2  1  0
 11  8  1  0
 12 20  1  0
 13 18  1  0
 14 15  1  0
 14 13  1  0
 16 15  1  0
 16 25  1  0
 16 17  1  0
 18 12  1  0
 18 17  1  0
 19 12  2  0
 20 21  1  0
 22 23  2  0
 23 42  1  0
 24 23  1  0
 24 27  1  0
 25 22  1  0
 25 26  1  0
 26 24  2  0
 27 28  1  0
 28 29  2  0
 30 33  1  0
 30 29  1  0
 31 30  2  0
 32 31  1  0
 32 27  2  0
 33 34  1  0
 34 35  1  0
 35 36  2  0
 37 36  1  0
 37 41  1  0
 38 37  2  0
 39 34  2  0
 39 38  1  0
 40 39  1  0
 42 43  1  0
 43 46  1  0
 43 45  1  0
 44 42  2  0
 47 48  1  0
 47 22  1  0
 49 47  1  0
 51 52  1  0
 51 50  2  0
 53 64  2  0
 54 52  1  0
 54 59  1  0
 55 63  1  0
 55 65  1  0
 56 62  1  0
 56 58  1  0
 57 63  1  0
 58 57  1  0
 59 58  2  0
 60 61  1  0
 60 54  2  0
 61 56  2  0
 62 55  1  0
 63 53  1  0
 65 67  2  0
 66 65  1  0
 68 66  1  0
 69 78  2  0
 69 74  1  0
 70 66  1  0
 70 74  1  0
 71 70  1  0
 72 73  1  0
 72 71  1  0
 73 69  1  0
 74 75  2  0
 75 76  1  0
 77 76  2  0
 78 77  1  0
 79 53  1  0
 79 84  1  0
 79 80  1  0
 80 83  1  1
 80 81  1  0
 82 80  1  0
 84 87  1  0
 85 89  1  0
 85 84  1  0
 86 85  2  0
 89 88  1  0
 91 89  1  0
 91 92  1  0
 91 90  1  0
M  ISO  4  12 100  20 100  51 101  52 101
M  END
>  <TORSDO>  (29) 
F 19

>  <SCORE>  (29) 
-14.267

>  <name>  (29) 
28

>  <ligand_id>  (29) 
28

>  <original_smiles>  (29) 
[H]c1c([H])c([H])c2c(c1[H])C([H])([H])C([H])([H])C([H])([H])C2([H])N([H])C(=O)C1([H])N(C(=O)C([H])(N([H])C(=O)C([H])(N([H])C([H])([H])[H])C([H])([H])[H])C(C([H])([H])[H])(C([H])([H])[H])C([H])([H])[H])C([H])([H])c2c([H])c(OC([H])([H])C([H])([H])C(=O)N([H])c3c([H])c(N([H])C(=O)N4C([H])([H])C([H])([H])C([H])([H])C([H])(n5nc(-c6c([H])c([H])c(Oc7c([H])c([H])c(F)c([H])c7F)c([H])c6[H])c(C(=O)N([H])[H])c5N([H])[H])C4([H])[H])c([H])c([H])c3C([H])([H])[H])c([H])c([H])c2C1([H])[H]

>  <smiles>  (29) 
[H]c1c([H])c([H])c2c(c1[H])C([H])([H])C([H])([H])C([H])([H])C2([H])N([H])C(=O)C1([H])N(C(=O)C([H])(N([H])C(=O)C([H])(N([H])C([H])([H])[H])C([H])([H])[H])C(C([H])([H])[H])(C([H])([H])[H])C([H])([H])[H])C([H])([H])c2c([H])c(OC([H])([H])C([H])([H])C(=O)N([H])c3c([H])c(N([H])C(=O)N4C([H])([H])C([H])([H])C([H])([H])C([H])(n5nc(-c6c([H])c([H])c(Oc7c([H])c([H])c(F)c([H])c7F)c([H])c6[H])c(C(=O)N([H])[H])c5N([H])[H])C4([H])[H])c([H])c([H])c3C([H])([H])[H])c([H])c([H])c2C1([H])[H]

$$$$
29:0:0
     RDKit          3D

 91 99  0  0  1  0  0  0  0  0999 V2000
  -28.9330  -23.2890   20.2810 C   0  0  0  0  0  0  0  0  0  0  0  0
  -28.6670  -21.8680   20.4380 N   0  0  0  0  0  0  0  0  0  0  0  0
  -30.0910  -23.6530   20.0710 O   0  0  0  0  0  0  0  0  0  0  0  0
  -27.6740  -21.6870   20.3910 H   0  0  0  0  0  0  0  0  0  0  0  0
  -31.5600  -19.4770   21.5900 C   0  0  0  0  0  3  0  0  0  0  0  0
  -31.2130  -18.1700   21.1990 C   0  0  0  0  0  3  0  0  0  0  0  0
  -29.1560  -19.1170   20.3400 C   0  0  0  0  0  3  0  0  0  0  0  0
  -30.7400  -20.6180   21.3990 C   0  0  0  0  0  0  0  0  0  0  0  0
  -29.9770  -17.8690   20.5980 C   0  0  0  0  0  0  0  0  0  0  0  0
  -29.5090  -20.5540   20.6730 C   0  0  0  0  0  0  0  0  0  0  0  0
  -31.2340  -21.8730   22.1020 C   0  0  0  0  0  1  0  0  0  0  0  0
  -30.4590  -15.1360   20.3120 C   0  0  0  0  0  0  0  0  0  0  0  0
  -30.3770  -12.7650   19.3550 C   0  0  0  0  0  2  0  0  0  0  0  0
  -29.4320  -12.6650   18.1360 C   0  0  0  0  0  2  0  0  0  0  0  0
  -27.9830  -12.4120   18.5950 C   0  0  0  0  0  2  0  0  0  0  0  0
  -27.5650  -13.3360   19.7670 C   0  0  0  0  0  3  0  0  0  0  0  0
  -28.6350  -13.4000   20.8760 C   0  0  0  0  0  2  0  0  0  0  0  0
  -29.8740  -13.8630   20.2370 N   0  0  0  0  0  0  0  0  0  0  0  0
  -31.6740  -15.1730   20.0740 O   0  0  0  0  0  0  0  0  0  0  0  0
  -29.6720  -16.3490   20.3880 N   0  0  0  0  0  0  0  0  0  0  0  0
  -28.6850  -16.1470   20.3390 H   0  0  0  0  0  0  0  0  0  0  0  0
  -25.1960  -13.8710   20.5600 C   0  0  0  0  0  0  0  0  0  0  0  0
  -24.1460  -13.0780   20.9320 C   0  0  0  0  0  0  0  0  0  0  0  0
  -24.6260  -11.7330   20.8720 C   0  0  0  0  0  0  0  0  0  0  0  0
  -26.2430  -13.0090   20.2870 N   0  0  0  0  0  0  0  0  0  0  0  0
  -25.9120  -11.7160   20.5420 N   0  0  0  0  0  0  0  0  0  0  0  0
  -23.9130  -10.4600   21.0490 C   0  0  0  0  0  0  0  0  0  0  0  0
  -24.3510   -9.4930   21.9800 C   0  0  0  0  0  3  0  0  0  0  0  0
  -23.6370   -8.2860   22.1470 C   0  0  0  0  0  3  0  0  0  0  0  0
  -22.4710   -8.0390   21.3830 C   0  0  0  0  0  0  0  0  0  0  0  0
  -22.0530   -8.9970   20.4420 C   0  0  0  0  0  3  0  0  0  0  0  0
  -22.7680  -10.1950   20.2730 C   0  0  0  0  0  3  0  0  0  0  0  0
  -21.7280   -6.8860   21.4590 O   0  0  0  0  0  0  0  0  0  0  0  0
  -21.6610   -6.1490   22.6140 C   0  0  0  0  0  0  0  0  0  0  0  0
  -21.1570   -6.6910   23.8160 C   0  0  0  0  0  3  0  0  0  0  0  0
  -21.0400   -5.8770   24.9600 C   0  0  0  0  0  3  0  0  0  0  0  0
  -21.4190   -4.5230   24.9040 C   0  0  0  0  0  0  0  0  0  0  0  0
  -21.9150   -3.9800   23.7060 C   0  0  0  0  0  3  0  0  0  0  0  0
  -22.0330   -4.7900   22.5640 C   0  0  0  0  0  0  0  0  0  0  0  0
  -22.4930   -4.2560   21.4070 F   0  0  0  0  0  0  0  0  0  0  0  0
  -21.3000   -3.7380   26.0010 F   0  0  0  0  0  0  0  0  0  0  0  0
  -22.7480  -13.5370   21.2270 C   0  0  0  0  0  0  0  0  0  0  0  0
  -22.0400  -12.8260   22.0960 N   0  0  0  0  0  0  0  0  0  0  0  0
  -22.2930  -14.5620   20.7210 O   0  0  0  0  0  0  0  0  0  0  0  0
  -22.4210  -11.9970   22.5270 H   0  0  0  0  0  0  0  0  0  0  0  0
  -21.1020  -13.1160   22.3360 H   0  0  0  0  0  0  0  0  0  0  0  0
  -25.3380  -15.2460   20.4010 N   0  0  0  0  0  0  0  0  0  0  0  0
  -24.5580  -15.8820   20.5320 H   0  0  0  0  0  0  0  0  0  0  0  0
  -26.1580  -15.7020   20.0220 H   0  0  0  0  0  0  0  0  0  0  0  0
  -27.8140  -24.5490   20.2470 C   0  0  0  0  0  2  0  0  0  0  0  0
  -28.1720  -26.1020   20.2810 O   0  0  0  0  0  0  0  0  0  0  0  0
  -24.6290  -31.9340   23.2550 C   0  0  0  0  0  0  0  0  0  0  0  0
  -27.1510  -27.1430   20.2240 C   0  0  0  0  0  0  0  0  0  0  0  0
  -23.4190  -30.5520   21.6150 C   0  0  0  0  0  3  0  0  0  0  0  0
  -24.8530  -28.9590   20.1870 C   0  0  0  0  0  0  0  0  0  0  0  0
  -25.9800  -30.7750   21.4570 C   0  0  0  0  0  2  0  0  0  0  0  0
  -26.0400  -29.3780   20.8010 C   0  0  0  0  0  0  0  0  0  0  0  0
  -27.1900  -28.4890   20.8000 C   0  0  0  0  0  3  0  0  0  0  0  0
  -25.9370  -26.8490   19.5640 C   0  0  0  0  0  3  0  0  0  0  0  0
  -24.8180  -27.7100   19.5510 C   0  0  0  0  0  3  0  0  0  0  0  0
  -23.6380  -29.8750   20.2350 C   0  0  0  0  0  2  0  0  0  0  0  0
  -24.6970  -31.1100   22.1640 N   0  0  0  0  0  0  0  0  0  0  0  0
  -23.5450  -32.2290   23.7810 O   0  0  0  0  0  0  0  0  0  0  0  0
  -22.7250  -29.5530   22.5750 C   0  0  0  0  0  0  0  0  0  0  0  0
  -21.3960  -29.3900   22.4440 N   0  0  0  0  0  0  0  0  0  0  0  0
  -23.3880  -28.9240   23.4050 O   0  0  0  0  0  0  0  0  0  0  0  0
  -20.9170  -29.9490   21.7520 H   0  0  0  0  0  0  0  0  0  0  0  0
  -18.0080  -28.2080   22.9460 C   0  0  0  0  0  0  0  0  0  0  0  0
  -20.5680  -28.4590   23.2140 C   0  0  0  0  0  3  0  0  0  0  0  0
  -20.6610  -27.0250   22.6450 C   0  0  0  0  0  2  0  0  0  0  0  0
  -19.5610  -26.7050   21.6290 C   0  0  0  0  0  2  0  0  0  0  0  0
  -18.1790  -26.8570   22.2700 C   0  0  0  0  0  2  0  0  0  0  0  0
  -19.1290  -28.9660   23.3750 C   0  0  0  0  0  0  0  0  0  0  0  0
  -18.9140  -30.2270   23.9710 C   0  0  0  0  0  3  0  0  0  0  0  0
  -17.6110  -30.7340   24.1370 C   0  0  0  0  0  3  0  0  0  0  0  0
  -16.5040  -29.9740   23.7220 C   0  0  0  0  0  3  0  0  0  0  0  0
  -16.7030  -28.7120   23.1330 C   0  0  0  0  0  3  0  0  0  0  0  0
  -25.9110  -32.5610   23.8830 C   0  0  0  0  0  3  0  0  0  0  0  0
  -25.6080  -33.9610   24.2220 N   0  0  0  0  0  0  0  0  0  0  0  0
  -25.9080  -35.0170   23.4550 C   0  0  0  0  0  0  0  0  0  0  0  0
  -26.5360  -34.9160   22.3980 O   0  0  0  0  0  0  0  0  0  0  0  0
  -25.0450  -34.1120   25.0470 H   0  0  0  0  0  0  0  0  0  0  0  0
  -24.1550  -36.8060   23.1930 C   0  0  0  0  0  1  0  0  0  0  0  0
  -25.4410  -36.4070   23.9350 C   0  0  0  0  0  3  0  0  0  0  0  0
  -27.6070  -37.3140   24.6520 C   0  0  0  0  0  1  0  0  0  0  0  0
  -26.4600  -37.4640   23.7610 N   0  0  0  0  0  0  0  0  0  0  0  0
  -26.0560  -38.3840   23.9200 H   0  0  0  0  0  0  0  0  0  0  0  0
  -26.4180  -31.7850   25.1620 C   0  0  1  0  0  0  0  0  0  0  0  0
  -25.3190  -31.5500   26.2260 C   0  0  0  0  0  1  0  0  0  0  0  0
  -26.9950  -30.4040   24.7770 C   0  0  0  0  0  1  0  0  0  0  0  0
  -27.5690  -32.5720   25.8280 C   0  0  0  0  0  1  0  0  0  0  0  0
  1  2  1  0
  2 10  1  0
  3  1  2  0
  4  2  1  0
  6  5  2  0
  7  9  2  0
  7 10  1  0
  8  5  1  0
  8 11  1  0
  9  6  1  0
 10  8  2  0
 12 20  1  0
 13 18  1  0
 14 15  1  0
 14 13  1  0
 16 15  1  0
 16 25  1  0
 16 17  1  0
 18 12  1  0
 18 17  1  0
 19 12  2  0
 20  9  1  0
 21 20  1  0
 22 23  2  0
 23 42  1  0
 24 23  1  0
 24 27  1  0
 25 26  1  0
 25 22  1  0
 26 24  2  0
 27 28  1  0
 28 29  2  0
 30 33  1  0
 30 29  1  0
 31 30  2  0
 32 31  1  0
 32 27  2  0
 33 34  1  0
 34 35  1  0
 35 36  2  0
 37 36  1  0
 37 41  1  0
 38 37  2  0
 39 34  2  0
 39 38  1  0
 40 39  1  0
 42 43  1  0
 43 46  1  0
 43 45  1  0
 44 42  2  0
 47 48  1  0
 47 22  1  0
 49 47  1  0
 50  1  1  0
 50 51  1  0
 52 63  2  0
 53 51  1  0
 53 58  1  0
 54 62  1  0
 54 64  1  0
 55 61  1  0
 55 57  1  0
 56 62  1  0
 57 56  1  0
 58 57  2  0
 59 53  2  0
 60 59  1  0
 60 55  2  0
 61 54  1  0
 62 52  1  0
 64 66  2  0
 65 64  1  0
 67 65  1  0
 68 77  2  0
 68 73  1  0
 69 65  1  0
 69 73  1  0
 70 69  1  0
 71 72  1  0
 71 70  1  0
 72 68  1  0
 73 74  2  0
 74 75  1  0
 76 75  2  0
 77 76  1  0
 78 52  1  0
 78 79  1  0
 78 88  1  0
 79 82  1  0
 80 84  1  0
 80 79  1  0
 81 80  2  0
 84 83  1  0
 86 87  1  0
 86 84  1  0
 86 85  1  0
 88 91  1  1
 88 89  1  0
 90 88  1  0
M  ISO  4  12 100  20 100  50 101  51 101
M  END
>  <TORSDO>  (30) 
F 18

>  <SCORE>  (30) 
-14.874

>  <name>  (30) 
29

>  <ligand_id>  (30) 
29

>  <original_smiles>  (30) 
[H]c1c([H])c([H])c2c(c1[H])C([H])([H])C([H])([H])C([H])([H])C2([H])N([H])C(=O)C1([H])N(C(=O)C([H])(N([H])C(=O)C([H])(N([H])C([H])([H])[H])C([H])([H])[H])C(C([H])([H])[H])(C([H])([H])[H])C([H])([H])[H])C([H])([H])c2c([H])c(OC([H])([H])C(=O)N([H])c3c([H])c(N([H])C(=O)N4C([H])([H])C([H])([H])C([H])([H])C([H])(n5nc(-c6c([H])c([H])c(Oc7c([H])c([H])c(F)c([H])c7F)c([H])c6[H])c(C(=O)N([H])[H])c5N([H])[H])C4([H])[H])c([H])c([H])c3C([H])([H])[H])c([H])c([H])c2C1([H])[H]

>  <smiles>  (30) 
[H]c1c([H])c([H])c2c(c1[H])C([H])([H])C([H])([H])C([H])([H])C2([H])N([H])C(=O)C1([H])N(C(=O)C([H])(N([H])C(=O)C([H])(N([H])C([H])([H])[H])C([H])([H])[H])C(C([H])([H])[H])(C([H])([H])[H])C([H])([H])[H])C([H])([H])c2c([H])c(OC([H])([H])C(=O)N([H])c3c([H])c(N([H])C(=O)N4C([H])([H])C([H])([H])C([H])([H])C([H])(n5nc(-c6c([H])c([H])c(Oc7c([H])c([H])c(F)c([H])c7F)c([H])c6[H])c(C(=O)N([H])[H])c5N([H])[H])C4([H])[H])c([H])c([H])c3C([H])([H])[H])c([H])c([H])c2C1([H])[H]

$$$$
30:0:0
     RDKit          3D

 98106  0  0  1  0  0  0  0  0999 V2000
  -29.7350  -18.6870   20.3140 C   0  0  0  0  0  3  0  0  0  0  0  0
  -31.7090  -17.5390   19.4600 C   0  0  0  0  0  3  0  0  0  0  0  0
  -30.4470  -17.4110   20.0960 C   0  0  0  0  0  0  0  0  0  0  0  0
  -30.2890  -19.9860   19.9030 C   0  0  0  0  0  0  0  0  0  0  0  0
  -31.5620  -19.9680   19.2760 C   0  0  0  0  0  0  0  0  0  0  0  0
  -32.2600  -18.7660   19.0840 C   0  0  0  0  0  0  0  0  0  0  0  0
  -33.4960  -18.7820   18.5240 F   0  0  0  0  0  0  0  0  0  0  0  0
  -30.6360  -14.7870   20.3460 C   0  0  0  0  0  0  0  0  0  0  0  0
  -30.3480  -12.5210   19.3510 C   0  0  0  0  0  2  0  0  0  0  0  0
  -29.4120  -12.6020   18.1280 C   0  0  0  0  0  2  0  0  0  0  0  0
  -27.9460  -12.4360   18.5720 C   0  0  0  0  0  2  0  0  0  0  0  0
  -27.5830  -13.3280   19.7900 C   0  0  0  0  0  3  0  0  0  0  0  0
  -28.6530  -13.2710   20.8990 C   0  0  0  0  0  2  0  0  0  0  0  0
  -29.9370  -13.6030   20.2780 N   0  0  0  0  0  0  0  0  0  0  0  0
  -31.8460  -14.7380   20.1370 O   0  0  0  0  0  0  0  0  0  0  0  0
  -29.9660  -16.0180   20.4260 N   0  0  0  0  0  0  0  0  0  0  0  0
  -28.9840  -15.9370   20.6430 H   0  0  0  0  0  0  0  0  0  0  0  0
  -25.2050  -13.9000   20.5620 C   0  0  0  0  0  0  0  0  0  0  0  0
  -24.1460  -13.1180   20.9330 C   0  0  0  0  0  0  0  0  0  0  0  0
  -24.6100  -11.7680   20.8820 C   0  0  0  0  0  0  0  0  0  0  0  0
  -26.2470  -13.0270   20.3010 N   0  0  0  0  0  0  0  0  0  0  0  0
  -25.8980  -11.7400   20.5600 N   0  0  0  0  0  0  0  0  0  0  0  0
  -23.8880  -10.5020   21.0620 C   0  0  0  0  0  0  0  0  0  0  0  0
  -24.3210   -9.5280   21.9890 C   0  0  0  0  0  3  0  0  0  0  0  0
  -23.5970   -8.3280   22.1580 C   0  0  0  0  0  3  0  0  0  0  0  0
  -22.4270   -8.0920   21.3990 C   0  0  0  0  0  0  0  0  0  0  0  0
  -22.0140   -9.0530   20.4600 C   0  0  0  0  0  3  0  0  0  0  0  0
  -22.7380  -10.2460   20.2890 C   0  0  0  0  0  3  0  0  0  0  0  0
  -21.6740   -6.9450   21.4780 O   0  0  0  0  0  0  0  0  0  0  0  0
  -21.6040   -6.2080   22.6330 C   0  0  0  0  0  0  0  0  0  0  0  0
  -21.1240   -6.7600   23.8410 C   0  0  0  0  0  3  0  0  0  0  0  0
  -21.0020   -5.9470   24.9860 C   0  0  0  0  0  3  0  0  0  0  0  0
  -21.3520   -4.5840   24.9240 C   0  0  0  0  0  0  0  0  0  0  0  0
  -21.8260   -4.0330   23.7200 C   0  0  0  0  0  3  0  0  0  0  0  0
  -21.9480   -4.8430   22.5780 C   0  0  0  0  0  0  0  0  0  0  0  0
  -22.3860   -4.3000   21.4150 F   0  0  0  0  0  0  0  0  0  0  0  0
  -21.2290   -3.8030   26.0220 F   0  0  0  0  0  0  0  0  0  0  0  0
  -22.7490  -13.5910   21.2170 C   0  0  0  0  0  0  0  0  0  0  0  0
  -22.0200  -12.8820   22.0730 N   0  0  0  0  0  0  0  0  0  0  0  0
  -22.3140  -14.6260   20.7150 O   0  0  0  0  0  0  0  0  0  0  0  0
  -22.3810  -12.0470   22.5100 H   0  0  0  0  0  0  0  0  0  0  0  0
  -21.0830  -13.1880   22.3020 H   0  0  0  0  0  0  0  0  0  0  0  0
  -25.3690  -15.2720   20.3990 N   0  0  0  0  0  0  0  0  0  0  0  0
  -24.6100  -15.9290   20.5460 H   0  0  0  0  0  0  0  0  0  0  0  0
  -26.2120  -15.7110   20.0550 H   0  0  0  0  0  0  0  0  0  0  0  0
  -28.9490  -22.2590   20.5490 C   0  0  0  0  0  0  0  0  0  0  0  0
  -29.8280  -21.4010   19.9420 N   0  0  0  0  0  0  0  0  0  0  0  0
  -28.0060  -21.8630   21.2340 O   0  0  0  0  0  0  0  0  0  0  0  0
  -30.5020  -21.9390   19.4110 H   0  0  0  0  0  0  0  0  0  0  0  0
  -29.2050  -23.8360   20.3300 C   0  0  0  0  0  3  0  0  0  0  0  0
  -28.0450  -24.9410   20.5210 C   0  0  0  0  0  3  0  0  0  0  0  0
  -28.3010  -26.4150   20.3090 O   0  0  0  0  0  0  0  0  0  0  0  0
  -24.5770  -31.9370   23.2320 C   0  0  0  0  0  0  0  0  0  0  0  0
  -27.2000  -27.3040   20.2580 C   0  0  0  0  0  0  0  0  0  0  0  0
  -23.3870  -30.5230   21.6030 C   0  0  0  0  0  3  0  0  0  0  0  0
  -24.8450  -28.9560   20.2050 C   0  0  0  0  0  0  0  0  0  0  0  0
  -25.9300  -30.8300   21.4320 C   0  0  0  0  0  2  0  0  0  0  0  0
  -26.0150  -29.4380   20.8070 C   0  0  0  0  0  0  0  0  0  0  0  0
  -27.1960  -28.6270   20.8190 C   0  0  0  0  0  3  0  0  0  0  0  0
  -26.0070  -26.8980   19.6180 C   0  0  0  0  0  3  0  0  0  0  0  0
  -24.8470  -27.6930   19.5990 C   0  0  0  0  0  3  0  0  0  0  0  0
  -23.6120  -29.8370   20.2320 C   0  0  0  0  0  2  0  0  0  0  0  0
  -24.6510  -31.1150   22.1460 N   0  0  0  0  0  0  0  0  0  0  0  0
  -23.4880  -32.2190   23.7550 O   0  0  0  0  0  0  0  0  0  0  0  0
  -22.7170  -29.5150   22.5690 C   0  0  0  0  0  0  0  0  0  0  0  0
  -21.3910  -29.3370   22.4360 N   0  0  0  0  0  0  0  0  0  0  0  0
  -23.3890  -28.8960   23.3980 O   0  0  0  0  0  0  0  0  0  0  0  0
  -20.9050  -29.8930   21.7470 H   0  0  0  0  0  0  0  0  0  0  0  0
  -18.0050  -28.1680   22.9500 C   0  0  0  0  0  0  0  0  0  0  0  0
  -20.5660  -28.4090   23.2140 C   0  0  0  0  0  3  0  0  0  0  0  0
  -20.6570  -26.9740   22.6450 C   0  0  0  0  0  2  0  0  0  0  0  0
  -19.5500  -26.6550   21.6350 C   0  0  0  0  0  2  0  0  0  0  0  0
  -18.1710  -26.8130   22.2810 C   0  0  0  0  0  2  0  0  0  0  0  0
  -19.1300  -28.9230   23.3750 C   0  0  0  0  0  0  0  0  0  0  0  0
  -18.9200  -30.1910   23.9600 C   0  0  0  0  0  3  0  0  0  0  0  0
  -17.6190  -30.7000   24.1290 C   0  0  0  0  0  3  0  0  0  0  0  0
  -16.5090  -29.9420   23.7180 C   0  0  0  0  0  3  0  0  0  0  0  0
  -16.7040  -28.6790   23.1320 C   0  0  0  0  0  3  0  0  0  0  0  0
  -25.8510  -32.5810   23.8580 C   0  0  0  0  0  3  0  0  0  0  0  0
  -25.5320  -33.9820   24.1700 N   0  0  0  0  0  0  0  0  0  0  0  0
  -25.8690  -35.0280   23.4040 C   0  0  0  0  0  0  0  0  0  0  0  0
  -26.5470  -34.9160   22.3790 O   0  0  0  0  0  0  0  0  0  0  0  0
  -24.9210  -34.1410   24.9560 H   0  0  0  0  0  0  0  0  0  0  0  0
  -24.1450  -36.8230   23.0220 C   0  0  0  0  0  1  0  0  0  0  0  0
  -25.3780  -36.4200   23.8480 C   0  0  0  0  0  3  0  0  0  0  0  0
  -27.5020  -37.3190   24.6970 C   0  0  0  0  0  1  0  0  0  0  0  0
  -26.4120  -37.4730   23.7360 N   0  0  0  0  0  0  0  0  0  0  0  0
  -26.0030  -38.3940   23.8670 H   0  0  0  0  0  0  0  0  0  0  0  0
  -26.3550  -31.8240   25.1490 C   0  0  1  0  0  0  0  0  0  0  0  0
  -25.2510  -31.5970   26.2080 C   0  0  0  0  0  1  0  0  0  0  0  0
  -26.9440  -30.4440   24.7780 C   0  0  0  0  0  1  0  0  0  0  0  0
  -27.4940  -32.6290   25.8150 C   0  0  0  0  0  1  0  0  0  0  0  0
  -32.1650  -21.1590   18.8280 N   0  0  0  0  0  0  0  0  0  0  0  0
  -32.9690  -21.3780   19.4030 H   0  0  0  0  0  0  0  0  0  0  0  0
  -31.9250  -23.2140   16.9350 C   0  0  0  0  0  1  0  0  0  0  0  0
  -34.0110  -21.5160   17.0930 O   0  0  0  0  0  0  0  0  0  0  0  0
  -31.7380  -20.5880   16.3740 O   0  0  0  0  0  0  0  0  0  0  0  0
  -32.5440  -21.5150   17.1840 S   0  0  1  0  0  0  0  0  0  0  0  0
  2  3  2  0
  3  1  1  0
  3 16  1  0
  4 47  1  0
  4  1  2  0
  5  4  1  0
  6  5  2  0
  6  2  1  0
  7  6  1  0
  8 16  1  0
  9 14  1  0
 10 11  1  0
 10  9  1  0
 12 11  1  0
 12 21  1  0
 12 13  1  0
 14  8  1  0
 14 13  1  0
 15  8  2  0
 16 17  1  0
 18 19  2  0
 19 38  1  0
 20 19  1  0
 20 23  1  0
 21 22  1  0
 21 18  1  0
 22 20  2  0
 23 24  1  0
 24 25  2  0
 26 29  1  0
 26 25  1  0
 27 26  2  0
 28 27  1  0
 28 23  2  0
 29 30  1  0
 30 31  1  0
 31 32  2  0
 33 32  1  0
 33 37  1  0
 34 33  2  0
 35 30  2  0
 35 34  1  0
 36 35  1  0
 38 39  1  0
 39 42  1  0
 39 41  1  0
 40 38  2  0
 43 44  1  0
 43 18  1  0
 45 43  1  0
 46 48  2  0
 47 46  1  0
 49 47  1  0
 50 51  2  0
 50 46  1  0
 52 51  1  0
 53 64  2  0
 54 52  1  0
 54 59  1  0
 55 63  1  0
 55 65  1  0
 56 62  1  0
 56 58  1  0
 57 63  1  0
 58 59  2  0
 58 57  1  0
 60 54  2  0
 61 60  1  0
 61 56  2  0
 62 55  1  0
 63 53  1  0
 65 67  2  0
 66 65  1  0
 68 66  1  0
 69 78  2  0
 69 74  1  0
 70 66  1  0
 70 74  1  0
 71 70  1  0
 72 73  1  0
 72 71  1  0
 73 69  1  0
 74 75  2  0
 75 76  1  0
 77 76  2  0
 78 77  1  0
 79 53  1  0
 79 80  1  0
 79 89  1  0
 80 83  1  0
 81 85  1  0
 81 80  1  0
 82 81  2  0
 85 84  1  0
 87 85  1  0
 87 88  1  0
 87 86  1  0
 89 92  1  1
 89 90  1  0
 91 89  1  0
 93  5  1  0
 93 94  1  0
 98 95  1  6
 96 98  2  0
 97 98  2  0
 98 93  1  0
M  ISO  4   8 100  16 100  51 101  52 101
M  END
>  <TORSDO>  (31) 
F 21

>  <SCORE>  (31) 
-13.638

>  <name>  (31) 
30

>  <ligand_id>  (31) 
30

>  <original_smiles>  (31) 
[H]c1c([H])c([H])c2c(c1[H])C([H])([H])C([H])([H])C([H])([H])C2([H])N([H])C(=O)C1([H])N(C(=O)C([H])(N([H])C(=O)C([H])(N([H])C([H])([H])[H])C([H])([H])[H])C(C([H])([H])[H])(C([H])([H])[H])C([H])([H])[H])C([H])([H])c2c([H])c(OC([H])([H])C([H])([H])C(=O)N([H])c3c([H])c(N([H])C(=O)N4C([H])([H])C([H])([H])C([H])([H])C([H])(n5nc(-c6c([H])c([H])c(Oc7c([H])c([H])c(F)c([H])c7F)c([H])c6[H])c(C(=O)N([H])[H])c5N([H])[H])C4([H])[H])c([H])c(F)c3N([H])S(=O)(=O)C([H])([H])[H])c([H])c([H])c2C1([H])[H]

>  <smiles>  (31) 
[H]c1c([H])c([H])c2c(c1[H])C([H])([H])C([H])([H])C([H])([H])C2([H])N([H])C(=O)C1([H])N(C(=O)C([H])(N([H])C(=O)C([H])(N([H])C([H])([H])[H])C([H])([H])[H])C(C([H])([H])[H])(C([H])([H])[H])C([H])([H])[H])C([H])([H])c2c([H])c(OC([H])([H])C([H])([H])C(=O)N([H])c3c([H])c(N([H])C(=O)N4C([H])([H])C([H])([H])C([H])([H])C([H])(n5nc(-c6c([H])c([H])c(Oc7c([H])c([H])c(F)c([H])c7F)c([H])c6[H])c(C(=O)N([H])[H])c5N([H])[H])C4([H])[H])c([H])c(F)c3N([H])S(=O)(=O)C([H])([H])[H])c([H])c([H])c2C1([H])[H]

$$$$
31:0:0
     RDKit          3D

 96104  0  0  1  0  0  0  0  0999 V2000
  -29.6050  -21.1620   19.8830 C   0  0  0  0  0  0  0  0  0  0  0  0
  -29.7560  -21.2090   18.5550 N   0  0  0  0  0  4  0  0  0  0  0  0
  -29.2470  -22.3550   20.4980 N   0  0  0  0  0  0  0  0  0  0  0  0
  -30.1150  -20.4030   18.0640 H   0  0  0  0  0  0  0  0  0  0  0  0
  -29.5270  -22.0220   18.0080 H   0  0  0  0  0  0  0  0  0  0  0  0
  -29.2140  -22.2210   21.5080 H   0  0  0  0  0  0  0  0  0  0  0  0
  -30.8580  -17.3980   21.8740 C   0  0  0  0  0  3  0  0  0  0  0  0
  -30.9530  -18.6430   22.5230 C   0  0  0  0  0  3  0  0  0  0  0  0
  -29.7930  -18.5200   19.9950 C   0  0  0  0  0  3  0  0  0  0  0  0
  -29.9300  -19.8370   20.6120 C   0  0  0  0  0  0  0  0  0  0  0  0
  -30.2450  -17.2820   20.6090 C   0  0  0  0  0  0  0  0  0  0  0  0
  -30.4740  -19.8350   21.9370 C   0  0  0  0  0  0  0  0  0  0  0  0
  -30.7530  -14.7820   20.0540 C   0  0  0  0  0  0  0  0  0  0  0  0
  -30.4800  -12.5370   18.9880 C   0  0  0  0  0  2  0  0  0  0  0  0
  -29.4670  -12.6150   17.8230 C   0  0  0  0  0  2  0  0  0  0  0  0
  -28.0200  -12.4580   18.3360 C   0  0  0  0  0  2  0  0  0  0  0  0
  -27.7190  -13.3380   19.5750 C   0  0  0  0  0  3  0  0  0  0  0  0
  -28.8380  -13.2330   20.6360 C   0  0  0  0  0  2  0  0  0  0  0  0
  -30.0990  -13.5750   19.9660 N   0  0  0  0  0  0  0  0  0  0  0  0
  -31.9500  -14.8640   19.7660 O   0  0  0  0  0  0  0  0  0  0  0  0
  -29.9710  -15.9180   20.1100 N   0  0  0  0  0  0  0  0  0  0  0  0
  -28.9920  -15.7290   19.9480 H   0  0  0  0  0  0  0  0  0  0  0  0
  -25.3840  -13.9520   20.4410 C   0  0  0  0  0  0  0  0  0  0  0  0
  -24.3240  -13.1870   20.8480 C   0  0  0  0  0  0  0  0  0  0  0  0
  -24.7630  -11.8300   20.7750 C   0  0  0  0  0  0  0  0  0  0  0  0
  -26.3980  -13.0610   20.1330 N   0  0  0  0  0  0  0  0  0  0  0  0
  -26.0360  -11.7780   20.3990 N   0  0  0  0  0  0  0  0  0  0  0  0
  -24.0290  -10.5750   20.9820 C   0  0  0  0  0  0  0  0  0  0  0  0
  -24.4790   -9.5940   21.8940 C   0  0  0  0  0  3  0  0  0  0  0  0
  -23.7390   -8.4080   22.0870 C   0  0  0  0  0  3  0  0  0  0  0  0
  -22.5410   -8.1930   21.3660 C   0  0  0  0  0  0  0  0  0  0  0  0
  -22.1100   -9.1630   20.4430 C   0  0  0  0  0  3  0  0  0  0  0  0
  -22.8500  -10.3410   20.2480 C   0  0  0  0  0  3  0  0  0  0  0  0
  -21.7760   -7.0560   21.4670 O   0  0  0  0  0  0  0  0  0  0  0  0
  -21.7410   -6.3110   22.6180 C   0  0  0  0  0  0  0  0  0  0  0  0
  -21.3300   -6.8680   23.8500 C   0  0  0  0  0  3  0  0  0  0  0  0
  -21.2360   -6.0550   24.9950 C   0  0  0  0  0  3  0  0  0  0  0  0
  -21.5490   -4.6840   24.9130 C   0  0  0  0  0  0  0  0  0  0  0  0
  -21.9550   -4.1260   23.6880 C   0  0  0  0  0  3  0  0  0  0  0  0
  -22.0450   -4.9370   22.5420 C   0  0  0  0  0  0  0  0  0  0  0  0
  -22.4160   -4.3910   21.3590 F   0  0  0  0  0  0  0  0  0  0  0  0
  -21.4520   -3.8970   26.0110 F   0  0  0  0  0  0  0  0  0  0  0  0
  -22.9490  -13.6840   21.1950 C   0  0  0  0  0  0  0  0  0  0  0  0
  -22.2480  -12.9900   22.0840 N   0  0  0  0  0  0  0  0  0  0  0  0
  -22.5050  -14.7250   20.7120 O   0  0  0  0  0  0  0  0  0  0  0  0
  -22.6200  -12.1510   22.5050 H   0  0  0  0  0  0  0  0  0  0  0  0
  -21.3310  -13.3160   22.3570 H   0  0  0  0  0  0  0  0  0  0  0  0
  -25.5580  -15.3260   20.2870 N   0  0  0  0  0  0  0  0  0  0  0  0
  -24.8140  -15.9880   20.4790 H   0  0  0  0  0  0  0  0  0  0  0  0
  -26.3930  -15.7670   19.9270 H   0  0  0  0  0  0  0  0  0  0  0  0
  -30.5410  -20.9700   22.7550 N   0  0  0  0  0  0  0  0  0  0  0  0
  -30.7160  -20.7550   23.7340 H   0  0  0  0  0  0  0  0  0  0  0  0
  -31.2330  -21.6570   22.4650 H   0  0  0  0  0  0  0  0  0  0  0  0
  -29.3620  -23.8320   20.0510 C   0  0  0  0  0  3  0  0  0  0  0  0
  -28.1910  -24.8940   20.3770 C   0  0  0  0  0  3  0  0  0  0  0  0
  -28.4240  -26.3900   20.3430 O   0  0  0  0  0  0  0  0  0  0  0  0
  -24.6330  -31.8910   23.2540 C   0  0  0  0  0  0  0  0  0  0  0  0
  -27.3130  -27.2720   20.2920 C   0  0  0  0  0  0  0  0  0  0  0  0
  -23.4680  -30.4660   21.6160 C   0  0  0  0  0  3  0  0  0  0  0  0
  -24.9490  -28.9130   20.2290 C   0  0  0  0  0  0  0  0  0  0  0  0
  -26.0120  -30.7930   21.4680 C   0  0  0  0  0  2  0  0  0  0  0  0
  -26.1120  -29.4020   20.8390 C   0  0  0  0  0  0  0  0  0  0  0  0
  -27.2990  -28.5970   20.8530 C   0  0  0  0  0  3  0  0  0  0  0  0
  -26.1200  -26.8560   19.6560 C   0  0  0  0  0  3  0  0  0  0  0  0
  -24.9610  -27.6500   19.6250 C   0  0  0  0  0  3  0  0  0  0  0  0
  -23.7100  -29.7840   20.2460 C   0  0  0  0  0  2  0  0  0  0  0  0
  -24.7230  -31.0700   22.1680 N   0  0  0  0  0  0  0  0  0  0  0  0
  -23.5380  -32.1680   23.7660 O   0  0  0  0  0  0  0  0  0  0  0  0
  -22.8000  -29.4540   22.5780 C   0  0  0  0  0  0  0  0  0  0  0  0
  -21.4760  -29.2700   22.4410 N   0  0  0  0  0  0  0  0  0  0  0  0
  -23.4710  -28.8360   23.4090 O   0  0  0  0  0  0  0  0  0  0  0  0
  -20.9940  -29.8170   21.7420 H   0  0  0  0  0  0  0  0  0  0  0  0
  -18.0940  -28.0710   22.9250 C   0  0  0  0  0  0  0  0  0  0  0  0
  -20.6510  -28.3400   23.2120 C   0  0  0  0  0  3  0  0  0  0  0  0
  -20.7620  -26.9040   22.6490 C   0  0  0  0  0  2  0  0  0  0  0  0
  -19.6650  -26.5700   21.6310 C   0  0  0  0  0  2  0  0  0  0  0  0
  -18.2780  -26.7170   22.2620 C   0  0  0  0  0  2  0  0  0  0  0  0
  -19.2080  -28.8390   23.3580 C   0  0  0  0  0  0  0  0  0  0  0  0
  -18.9800  -30.1070   23.9370 C   0  0  0  0  0  3  0  0  0  0  0  0
  -17.6720  -30.6040   24.0900 C   0  0  0  0  0  3  0  0  0  0  0  0
  -16.5740  -29.8330   23.6710 C   0  0  0  0  0  3  0  0  0  0  0  0
  -16.7860  -28.5700   23.0930 C   0  0  0  0  0  3  0  0  0  0  0  0
  -25.8980  -32.5460   23.8860 C   0  0  0  0  0  3  0  0  0  0  0  0
  -26.3970  -31.7990   25.1830 C   0  0  1  0  0  0  0  0  0  0  0  0
  -25.2900  -31.5670   26.2380 C   0  0  0  0  0  1  0  0  0  0  0  0
  -26.9990  -30.4190   24.8240 C   0  0  0  0  0  1  0  0  0  0  0  0
  -27.5270  -32.6150   25.8570 C   0  0  0  0  0  1  0  0  0  0  0  0
  -25.5680  -33.9460   24.1950 N   0  0  0  0  0  0  0  0  0  0  0  0
  -25.9080  -34.9940   23.4340 C   0  0  0  0  0  0  0  0  0  0  0  0
  -26.6060  -34.8870   22.4220 O   0  0  0  0  0  0  0  0  0  0  0  0
  -24.9470  -34.1010   24.9750 H   0  0  0  0  0  0  0  0  0  0  0  0
  -24.1860  -36.7830   23.0160 C   0  0  0  0  0  1  0  0  0  0  0  0
  -25.3990  -36.3820   23.8690 C   0  0  0  0  0  3  0  0  0  0  0  0
  -27.5000  -37.2850   24.7680 C   0  0  0  0  0  1  0  0  0  0  0  0
  -26.4280  -37.4410   23.7890 N   0  0  0  0  0  0  0  0  0  0  0  0
  -26.0090  -38.3580   23.9200 H   0  0  0  0  0  0  0  0  0  0  0  0
  1  3  1  0
  1 10  1  0
  2  1  2  0
  3  6  1  0
  4  2  1  0
  5  2  1  0
  7  8  1  0
  9 11  1  0
  9 10  2  0
 10 12  1  0
 11  7  2  0
 12  8  2  0
 12 51  1  0
 13 21  1  0
 14 19  1  0
 15 16  1  0
 15 14  1  0
 17 16  1  0
 17 26  1  0
 17 18  1  0
 19 13  1  0
 19 18  1  0
 20 13  2  0
 21 11  1  0
 22 21  1  0
 23 24  2  0
 24 43  1  0
 25 24  1  0
 25 28  1  0
 26 27  1  0
 26 23  1  0
 27 25  2  0
 28 29  1  0
 29 30  2  0
 31 34  1  0
 31 30  1  0
 32 31  2  0
 33 32  1  0
 33 28  2  0
 34 35  1  0
 35 36  1  0
 36 37  2  0
 38 37  1  0
 38 42  1  0
 39 38  2  0
 40 35  2  0
 40 39  1  0
 41 40  1  0
 43 44  1  0
 44 47  1  0
 44 46  1  0
 45 43  2  0
 48 23  1  0
 48 49  1  0
 50 48  1  0
 51 52  1  0
 53 51  1  0
 54 55  2  0
 54  3  1  0
 56 55  1  0
 57 68  2  0
 58 56  1  0
 58 63  1  0
 59 67  1  0
 59 69  1  0
 60 66  1  0
 60 62  1  0
 61 67  1  0
 62 63  2  0
 62 61  1  0
 64 58  2  0
 65 64  1  0
 65 60  2  0
 66 59  1  0
 67 57  1  0
 69 71  2  0
 70 69  1  0
 72 70  1  0
 73 82  2  0
 73 78  1  0
 74 70  1  0
 74 78  1  0
 75 74  1  0
 76 77  1  0
 76 75  1  0
 77 73  1  0
 78 79  2  0
 79 80  1  0
 81 80  2  0
 82 81  1  0
 83 57  1  0
 83 88  1  0
 83 84  1  0
 84 87  1  1
 84 85  1  0
 86 84  1  0
 88 91  1  0
 89 93  1  0
 89 88  1  0
 90 89  2  0
 93 92  1  0
 95 93  1  0
 95 96  1  0
 95 94  1  0
M  ISO  4  13 100  21 100  55 101  56 101
M  END
>  <TORSDO>  (32) 
F 20

>  <SCORE>  (32) 
-13.972

>  <name>  (32) 
31

>  <ligand_id>  (32) 
31

>  <original_smiles>  (32) 
[H]c1c([H])c([H])c2c(c1[H])C([H])([H])C([H])([H])C([H])([H])C2([H])N([H])C(=O)C1([H])N(C(=O)C([H])(N([H])C(=O)C([H])(N([H])C([H])([H])[H])C([H])([H])[H])C(C([H])([H])[H])(C([H])([H])[H])C([H])([H])[H])C([H])([H])c2c([H])c(OC([H])([H])C([H])([H])[N+]([H])=C(c3c([H])c(N([H])C(=O)N4C([H])([H])C([H])([H])C([H])([H])C([H])(n5nc(-c6c([H])c([H])c(Oc7c([H])c([H])c(F)c([H])c7F)c([H])c6[H])c(C(=O)N([H])[H])c5N([H])[H])C4([H])[H])c([H])c([H])c3N([H])[H])N([H])[H])c([H])c([H])c2C1([H])[H]

>  <smiles>  (32) 
[H]c1c([H])c([H])c2c(c1[H])C([H])([H])C([H])([H])C([H])([H])C2([H])N([H])C(=O)C1([H])N(C(=O)C([H])(N([H])C(=O)C([H])(N([H])C([H])([H])[H])C([H])([H])[H])C(C([H])([H])[H])(C([H])([H])[H])C([H])([H])[H])C([H])([H])c2c([H])c(OC([H])([H])C([H])([H])[N+]([H])=C(c3c([H])c(N([H])C(=O)N4C([H])([H])C([H])([H])C([H])([H])C([H])(n5nc(-c6c([H])c([H])c(Oc7c([H])c([H])c(F)c([H])c7F)c([H])c6[H])c(C(=O)N([H])[H])c5N([H])[H])C4([H])[H])c([H])c([H])c3N([H])[H])N([H])[H])c([H])c([H])c2C1([H])[H]

$$$$
32:0:0
     RDKit          3D

101109  0  0  1  0  0  0  0  0999 V2000
  -30.2770  -18.3700   18.0790 C   0  0  0  0  0  3  0  0  0  0  0  0
  -30.4360  -17.2200   18.8730 C   0  0  0  0  0  3  0  0  0  0  0  0
  -29.5500  -18.4970   20.7370 C   0  0  0  0  0  3  0  0  0  0  0  0
  -29.7330  -19.5850   18.5660 C   0  0  0  0  0  0  0  0  0  0  0  0
  -30.0100  -17.1960   20.2150 C   0  0  0  0  0  0  0  0  0  0  0  0
  -29.4600  -19.7560   19.9650 C   0  0  0  0  0  0  0  0  0  0  0  0
  -30.7110  -14.6810   20.6730 C   0  0  0  0  0  0  0  0  0  0  0  0
  -30.5390  -12.3670   19.7320 C   0  0  0  0  0  2  0  0  0  0  0  0
  -29.6420  -12.4230   18.4740 C   0  0  0  0  0  2  0  0  0  0  0  0
  -28.1580  -12.2620   18.8550 C   0  0  0  0  0  2  0  0  0  0  0  0
  -27.7540  -13.1580   20.0550 C   0  0  0  0  0  3  0  0  0  0  0  0
  -28.7790  -13.0880   21.2100 C   0  0  0  0  0  2  0  0  0  0  0  0
  -30.0890  -13.4430   20.6530 N   0  0  0  0  0  0  0  0  0  0  0  0
  -31.9030  -14.7460   20.3630 O   0  0  0  0  0  0  0  0  0  0  0  0
  -29.9650  -15.8490   20.8960 N   0  0  0  0  0  0  0  0  0  0  0  0
  -29.1150  -15.6820   21.4140 H   0  0  0  0  0  0  0  0  0  0  0  0
  -25.3600  -13.7700   20.7340 C   0  0  0  0  0  0  0  0  0  0  0  0
  -24.2690  -13.0100   21.0540 C   0  0  0  0  0  0  0  0  0  0  0  0
  -24.7080  -11.6510   21.0040 C   0  0  0  0  0  0  0  0  0  0  0  0
  -26.3940  -12.8780   20.5060 N   0  0  0  0  0  0  0  0  0  0  0  0
  -26.0070  -11.5950   20.7320 N   0  0  0  0  0  0  0  0  0  0  0  0
  -23.9520  -10.3980   21.1440 C   0  0  0  0  0  0  0  0  0  0  0  0
  -24.3180   -9.4140   22.0890 C   0  0  0  0  0  3  0  0  0  0  0  0
  -23.5640   -8.2280   22.2180 C   0  0  0  0  0  3  0  0  0  0  0  0
  -22.4290   -8.0160   21.4000 C   0  0  0  0  0  0  0  0  0  0  0  0
  -22.0820   -8.9890   20.4460 C   0  0  0  0  0  3  0  0  0  0  0  0
  -22.8370  -10.1650   20.3150 C   0  0  0  0  0  3  0  0  0  0  0  0
  -21.6520   -6.8840   21.4380 O   0  0  0  0  0  0  0  0  0  0  0  0
  -21.4940   -6.1580   22.5900 C   0  0  0  0  0  0  0  0  0  0  0  0
  -20.9110   -6.7140   23.7500 C   0  0  0  0  0  3  0  0  0  0  0  0
  -20.7050   -5.9110   24.8880 C   0  0  0  0  0  3  0  0  0  0  0  0
  -21.0720   -4.5510   24.8690 C   0  0  0  0  0  0  0  0  0  0  0  0
  -21.6470   -3.9940   23.7130 C   0  0  0  0  0  3  0  0  0  0  0  0
  -21.8550   -4.7960   22.5770 C   0  0  0  0  0  0  0  0  0  0  0  0
  -22.3910   -4.2470   21.4590 F   0  0  0  0  0  0  0  0  0  0  0  0
  -20.8680   -3.7770   25.9590 F   0  0  0  0  0  0  0  0  0  0  0  0
  -22.8740  -13.5080   21.2960 C   0  0  0  0  0  0  0  0  0  0  0  0
  -22.1080  -12.8080   22.1240 N   0  0  0  0  0  0  0  0  0  0  0  0
  -22.4740  -14.5550   20.7880 O   0  0  0  0  0  0  0  0  0  0  0  0
  -22.4410  -11.9580   22.5550 H   0  0  0  0  0  0  0  0  0  0  0  0
  -21.1730  -13.1300   22.3340 H   0  0  0  0  0  0  0  0  0  0  0  0
  -25.5580  -15.1410   20.5940 N   0  0  0  0  0  0  0  0  0  0  0  0
  -24.8060  -15.8120   20.7010 H   0  0  0  0  0  0  0  0  0  0  0  0
  -26.4300  -15.5640   20.3050 H   0  0  0  0  0  0  0  0  0  0  0  0
  -29.2220  -22.4500   20.2630 C   0  0  0  0  0  0  0  0  0  0  0  0
  -28.9840  -21.0810   20.5430 N   0  0  0  0  0  0  0  0  0  0  0  0
  -30.1020  -22.7940   19.4730 O   0  0  0  0  0  0  0  0  0  0  0  0
  -28.3670  -20.9660   21.3360 H   0  0  0  0  0  0  0  0  0  0  0  0
  -28.3670  -23.4530   21.0160 C   0  0  0  0  0  3  0  0  0  0  0  0
  -28.0740  -24.8380   21.0320 C   0  0  0  0  0  3  0  0  0  0  0  0
  -28.4070  -26.0730   20.3670 O   0  0  0  0  0  0  0  0  0  0  0  0
  -24.6050  -31.7000   23.1990 C   0  0  0  0  0  0  0  0  0  0  0  0
  -27.3740  -27.0570   20.2900 C   0  0  0  0  0  0  0  0  0  0  0  0
  -23.4940  -30.2870   21.5110 C   0  0  0  0  0  3  0  0  0  0  0  0
  -25.0250  -28.7330   20.1600 C   0  0  0  0  0  0  0  0  0  0  0  0
  -26.0490  -30.5910   21.4620 C   0  0  0  0  0  2  0  0  0  0  0  0
  -26.1680  -29.2040   20.8200 C   0  0  0  0  0  0  0  0  0  0  0  0
  -27.3510  -28.3800   20.8740 C   0  0  0  0  0  3  0  0  0  0  0  0
  -26.2090  -26.6730   19.5950 C   0  0  0  0  0  3  0  0  0  0  0  0
  -25.0550  -27.4770   19.5340 C   0  0  0  0  0  3  0  0  0  0  0  0
  -23.7850  -29.6080   20.1470 C   0  0  0  0  0  2  0  0  0  0  0  0
  -24.7330  -30.8800   22.1110 N   0  0  0  0  0  0  0  0  0  0  0  0
  -23.4920  -31.9730   23.6750 O   0  0  0  0  0  0  0  0  0  0  0  0
  -22.7840  -29.2760   22.4430 C   0  0  0  0  0  0  0  0  0  0  0  0
  -21.4570  -29.1210   22.2830 N   0  0  0  0  0  0  0  0  0  0  0  0
  -23.4290  -28.6310   23.2730 O   0  0  0  0  0  0  0  0  0  0  0  0
  -20.9940  -29.6950   21.5940 H   0  0  0  0  0  0  0  0  0  0  0  0
  -18.0370  -28.0280   22.7610 C   0  0  0  0  0  0  0  0  0  0  0  0
  -20.6040  -28.1860   23.0230 C   0  0  0  0  0  3  0  0  0  0  0  0
  -20.6500  -26.7730   22.3950 C   0  0  0  0  0  2  0  0  0  0  0  0
  -19.5330  -26.5300   21.3750 C   0  0  0  0  0  2  0  0  0  0  0  0
  -18.1610  -26.7000   22.0330 C   0  0  0  0  0  2  0  0  0  0  0  0
  -19.1840  -28.7340   23.2130 C   0  0  0  0  0  0  0  0  0  0  0  0
  -19.0130  -29.9780   23.8560 C   0  0  0  0  0  3  0  0  0  0  0  0
  -17.7280  -30.5180   24.0480 C   0  0  0  0  0  3  0  0  0  0  0  0
  -16.5950  -29.8100   23.6120 C   0  0  0  0  0  3  0  0  0  0  0  0
  -16.7510  -28.5660   22.9760 C   0  0  0  0  0  3  0  0  0  0  0  0
  -25.8470  -32.3490   23.8800 C   0  0  0  0  0  3  0  0  0  0  0  0
  -26.2900  -31.6020   25.1980 C   0  0  1  0  0  0  0  0  0  0  0  0
  -25.1380  -31.3780   26.2050 C   0  0  0  0  0  1  0  0  0  0  0  0
  -26.8970  -30.2180   24.8680 C   0  0  0  0  0  1  0  0  0  0  0  0
  -27.3990  -32.4100   25.9110 C   0  0  0  0  0  1  0  0  0  0  0  0
  -25.5160  -33.7530   24.1730 N   0  0  0  0  0  0  0  0  0  0  0  0
  -25.8830  -34.7980   23.4210 C   0  0  0  0  0  0  0  0  0  0  0  0
  -26.6040  -34.6820   22.4260 O   0  0  0  0  0  0  0  0  0  0  0  0
  -24.8860  -33.9150   24.9470 H   0  0  0  0  0  0  0  0  0  0  0  0
  -24.1820  -36.5910   22.9490 C   0  0  0  0  0  1  0  0  0  0  0  0
  -25.3730  -36.1930   23.8360 C   0  0  0  0  0  3  0  0  0  0  0  0
  -27.4460  -37.0930   24.7940 C   0  0  0  0  0  1  0  0  0  0  0  0
  -26.4100  -37.2450   23.7740 N   0  0  0  0  0  0  0  0  0  0  0  0
  -25.9970  -38.1670   23.8750 H   0  0  0  0  0  0  0  0  0  0  0  0
  -29.3780  -20.6220   17.4970 C   0  0  0  0  0  2  0  0  0  0  0  0
  -27.9820  -19.1630   15.9900 C   0  0  0  0  0  0  0  0  0  0  0  0
  -27.6330  -18.8410   14.7480 N   0  0  0  0  0  4  0  0  0  0  0  0
  -27.3170  -18.6080   17.0020 N   0  0  0  0  0  0  0  0  0  0  0  0
  -28.9750  -20.0390   16.1990 N   0  0  0  0  0  0  0  0  0  0  0  0
  -26.8540  -18.2280   14.5510 H   0  0  0  0  0  0  0  0  0  0  0  0
  -28.0880  -19.2590   13.9470 H   0  0  0  0  0  0  0  0  0  0  0  0
  -26.5430  -17.9740   16.8560 H   0  0  0  0  0  0  0  0  0  0  0  0
  -27.6240  -18.7470   17.9500 H   0  0  0  0  0  0  0  0  0  0  0  0
  -29.4920  -20.3850   15.4030 H   0  0  0  0  0  0  0  0  0  0  0  0
  1  4  2  0
  1  2  1  0
  2  5  2  0
  4  6  1  0
  5  3  1  0
  5 15  1  0
  6 46  1  0
  6  3  2  0
  7 15  1  0
  8 13  1  0
  9 10  1  0
  9  8  1  0
 11 10  1  0
 11 20  1  0
 11 12  1  0
 13  7  1  0
 13 12  1  0
 14  7  2  0
 15 16  1  0
 17 18  2  0
 18 37  1  0
 19 18  1  0
 19 22  1  0
 20 21  1  0
 20 17  1  0
 21 19  2  0
 22 23  1  0
 23 24  2  0
 25 28  1  0
 25 24  1  0
 26 25  2  0
 27 26  1  0
 27 22  2  0
 28 29  1  0
 29 30  1  0
 30 31  2  0
 32 31  1  0
 32 36  1  0
 33 32  2  0
 34 29  2  0
 34 33  1  0
 35 34  1  0
 37 38  1  0
 38 41  1  0
 38 40  1  0
 39 37  2  0
 42 43  1  0
 42 17  1  0
 44 42  1  0
 45 46  1  0
 45 49  1  0
 46 48  1  0
 47 45  2  0
 49 50  2  0
 51 50  1  0
 52 63  2  0
 53 51  1  0
 53 58  1  0
 54 62  1  0
 54 64  1  0
 55 57  1  0
 56 62  1  0
 57 58  2  0
 57 56  1  0
 59 53  2  0
 60 59  1  0
 60 55  2  0
 61 55  1  0
 61 54  1  0
 62 52  1  0
 64 66  2  0
 65 64  1  0
 67 65  1  0
 68 77  2  0
 68 73  1  0
 69 65  1  0
 69 73  1  0
 70 69  1  0
 71 72  1  0
 71 70  1  0
 72 68  1  0
 73 74  2  0
 74 75  1  0
 76 75  2  0
 77 76  1  0
 78 52  1  0
 78 83  1  0
 78 79  1  0
 79 82  1  1
 79 80  1  0
 81 79  1  0
 83 86  1  0
 84 88  1  0
 84 83  1  0
 85 84  2  0
 88 87  1  0
 90 88  1  0
 90 91  1  0
 90 89  1  0
 92  4  1  0
 93 96  1  0
 93 95  1  0
 94 93  2  0
 95100  1  0
 96 92  1  0
 97 94  1  0
 98 94  1  0
 99 95  1  0
101 96  1  0
M  ISO  4   7 100  15 100  50 101  51 101
M  END
>  <TORSDO>  (33) 
F 20

>  <SCORE>  (33) 
-13.149

>  <name>  (33) 
32

>  <ligand_id>  (33) 
32

>  <original_smiles>  (33) 
[H]C(Oc1c([H])c([H])c2c(c1[H])C([H])([H])N(C(=O)C([H])(N([H])C(=O)C([H])(N([H])C([H])([H])[H])C([H])([H])[H])C(C([H])([H])[H])(C([H])([H])[H])C([H])([H])[H])C([H])(C(=O)N([H])C1([H])c3c([H])c([H])c([H])c([H])c3C([H])([H])C([H])([H])C1([H])[H])C2([H])[H])=C([H])C(=O)N([H])c1c([H])c(N([H])C(=O)N2C([H])([H])C([H])([H])C([H])([H])C([H])(n3nc(-c4c([H])c([H])c(Oc5c([H])c([H])c(F)c([H])c5F)c([H])c4[H])c(C(=O)N([H])[H])c3N([H])[H])C2([H])[H])c([H])c([H])c1C([H])([H])N([H])C(N([H])[H])=[N+]([H])[H]

>  <smiles>  (33) 
[H]C(Oc1c([H])c([H])c2c(c1[H])C([H])([H])N(C(=O)C([H])(N([H])C(=O)C([H])(N([H])C([H])([H])[H])C([H])([H])[H])C(C([H])([H])[H])(C([H])([H])[H])C([H])([H])[H])C([H])(C(=O)N([H])C1([H])c3c([H])c([H])c([H])c([H])c3C([H])([H])C([H])([H])C1([H])[H])C2([H])[H])=C([H])C(=O)N([H])c1c([H])c(N([H])C(=O)N2C([H])([H])C([H])([H])C([H])([H])C([H])(n3nc(-c4c([H])c([H])c(Oc5c([H])c([H])c(F)c([H])c5F)c([H])c4[H])c(C(=O)N([H])[H])c3N([H])[H])C2([H])[H])c([H])c([H])c1C([H])([H])N([H])C(N([H])[H])=[N+]([H])[H]

$$$$
33:0:0
     RDKit          3D

 97105  0  0  1  0  0  0  0  0999 V2000
  -31.3850  -19.3790   21.8610 C   0  0  0  0  0  3  0  0  0  0  0  0
  -31.0780  -18.0940   21.3730 C   0  0  0  0  0  3  0  0  0  0  0  0
  -29.1110  -19.0990   20.3820 C   0  0  0  0  0  3  0  0  0  0  0  0
  -30.5930  -20.5420   21.6600 C   0  0  0  0  0  0  0  0  0  0  0  0
  -29.9030  -17.8350   20.6510 C   0  0  0  0  0  0  0  0  0  0  0  0
  -29.4280  -20.5220   20.8080 C   0  0  0  0  0  0  0  0  0  0  0  0
  -30.4070  -15.1220   20.2840 C   0  0  0  0  0  0  0  0  0  0  0  0
  -30.3250  -12.7610   19.3000 C   0  0  0  0  0  2  0  0  0  0  0  0
  -29.3630  -12.6630   18.0910 C   0  0  0  0  0  2  0  0  0  0  0  0
  -27.9200  -12.4030   18.5610 C   0  0  0  0  0  2  0  0  0  0  0  0
  -27.5130  -13.3170   19.7460 C   0  0  0  0  0  3  0  0  0  0  0  0
  -28.5960  -13.3750   20.8440 C   0  0  0  0  0  2  0  0  0  0  0  0
  -29.8250  -13.8490   20.1960 N   0  0  0  0  0  0  0  0  0  0  0  0
  -31.6200  -15.1690   20.0430 O   0  0  0  0  0  0  0  0  0  0  0  0
  -29.6120  -16.3260   20.3680 N   0  0  0  0  0  0  0  0  0  0  0  0
  -28.6270  -16.1250   20.2870 H   0  0  0  0  0  0  0  0  0  0  0  0
  -25.1480  -13.8380   20.5560 C   0  0  0  0  0  0  0  0  0  0  0  0
  -24.1070  -13.0400   20.9400 C   0  0  0  0  0  0  0  0  0  0  0  0
  -24.5930  -11.6980   20.8760 C   0  0  0  0  0  0  0  0  0  0  0  0
  -26.1980  -12.9830   20.2780 N   0  0  0  0  0  0  0  0  0  0  0  0
  -25.8770  -11.6880   20.5360 N   0  0  0  0  0  0  0  0  0  0  0  0
  -23.8900  -10.4200   21.0610 C   0  0  0  0  0  0  0  0  0  0  0  0
  -24.3500   -9.4500   21.9780 C   0  0  0  0  0  3  0  0  0  0  0  0
  -23.6450   -8.2390   22.1510 C   0  0  0  0  0  3  0  0  0  0  0  0
  -22.4670   -7.9900   21.4080 C   0  0  0  0  0  0  0  0  0  0  0  0
  -22.0270   -8.9490   20.4790 C   0  0  0  0  0  3  0  0  0  0  0  0
  -22.7330  -10.1530   20.3030 C   0  0  0  0  0  3  0  0  0  0  0  0
  -21.7320   -6.8330   21.4930 O   0  0  0  0  0  0  0  0  0  0  0  0
  -21.6950   -6.0870   22.6430 C   0  0  0  0  0  0  0  0  0  0  0  0
  -21.2330   -6.6220   23.8650 C   0  0  0  0  0  3  0  0  0  0  0  0
  -21.1450   -5.8010   25.0060 C   0  0  0  0  0  3  0  0  0  0  0  0
  -21.5120   -4.4430   24.9270 C   0  0  0  0  0  0  0  0  0  0  0  0
  -21.9660   -3.9060   23.7090 C   0  0  0  0  0  3  0  0  0  0  0  0
  -22.0540   -4.7260   22.5700 C   0  0  0  0  0  0  0  0  0  0  0  0
  -22.4730   -4.1980   21.3950 F   0  0  0  0  0  0  0  0  0  0  0  0
  -21.4200   -3.6510   26.0200 F   0  0  0  0  0  0  0  0  0  0  0  0
  -22.7080  -13.4900   21.2440 C   0  0  0  0  0  0  0  0  0  0  0  0
  -22.0090  -12.7730   22.1170 N   0  0  0  0  0  0  0  0  0  0  0  0
  -22.2430  -14.5140   20.7440 O   0  0  0  0  0  0  0  0  0  0  0  0
  -22.3980  -11.9450   22.5430 H   0  0  0  0  0  0  0  0  0  0  0  0
  -21.0710  -13.0560   22.3620 H   0  0  0  0  0  0  0  0  0  0  0  0
  -25.2820  -15.2140   20.3930 N   0  0  0  0  0  0  0  0  0  0  0  0
  -24.4980  -15.8450   20.5220 H   0  0  0  0  0  0  0  0  0  0  0  0
  -26.0890  -15.6670   19.9880 H   0  0  0  0  0  0  0  0  0  0  0  0
  -31.0390  -21.6640   22.5180 C   0  0  0  0  0  0  0  0  0  0  0  0
  -31.1190  -21.4840   23.8370 N   0  0  0  0  0  0  0  0  0  0  0  0
  -31.4460  -22.8340   22.0440 N   0  0  0  0  0  4  0  0  0  0  0  0
  -30.8060  -20.6060   24.2270 H   0  0  0  0  0  0  0  0  0  0  0  0
  -31.4400  -22.1940   24.4740 H   0  0  0  0  0  0  0  0  0  0  0  0
  -31.1580  -23.0850   21.0950 H   0  0  0  0  0  0  0  0  0  0  0  0
  -31.8390  -23.5570   22.6260 H   0  0  0  0  0  0  0  0  0  0  0  0
  -28.8030  -23.2210   20.2700 C   0  0  0  0  0  0  0  0  0  0  0  0
  -28.5620  -21.8250   20.5850 N   0  0  0  0  0  0  0  0  0  0  0  0
  -29.9030  -23.5100   19.7910 O   0  0  0  0  0  0  0  0  0  0  0  0
  -27.5730  -21.6600   20.7280 H   0  0  0  0  0  0  0  0  0  0  0  0
  -27.7160  -24.5100   20.3720 C   0  0  0  0  0  2  0  0  0  0  0  0
  -28.0880  -26.0600   20.2820 O   0  0  0  0  0  0  0  0  0  0  0  0
  -24.5930  -31.9500   23.2160 C   0  0  0  0  0  0  0  0  0  0  0  0
  -27.0710  -27.1090   20.2250 C   0  0  0  0  0  0  0  0  0  0  0  0
  -23.3620  -30.5480   21.6090 C   0  0  0  0  0  3  0  0  0  0  0  0
  -24.7770  -28.9340   20.1870 C   0  0  0  0  0  0  0  0  0  0  0  0
  -25.9220  -30.7630   21.4210 C   0  0  0  0  0  2  0  0  0  0  0  0
  -25.9730  -29.3560   20.7820 C   0  0  0  0  0  0  0  0  0  0  0  0
  -27.1190  -28.4620   20.7800 C   0  0  0  0  0  3  0  0  0  0  0  0
  -25.8490  -26.8130   19.5800 C   0  0  0  0  0  3  0  0  0  0  0  0
  -24.7330  -27.6770   19.5670 C   0  0  0  0  0  3  0  0  0  0  0  0
  -23.5640  -29.8510   20.2370 C   0  0  0  0  0  2  0  0  0  0  0  0
  -24.6480  -31.1110   22.1350 N   0  0  0  0  0  0  0  0  0  0  0  0
  -23.5140  -32.2550   23.7490 O   0  0  0  0  0  0  0  0  0  0  0  0
  -22.6780  -29.5640   22.5910 C   0  0  0  0  0  0  0  0  0  0  0  0
  -21.3500  -29.3910   22.4660 N   0  0  0  0  0  0  0  0  0  0  0  0
  -23.3470  -28.9560   23.4320 O   0  0  0  0  0  0  0  0  0  0  0  0
  -20.8660  -29.9300   21.7620 H   0  0  0  0  0  0  0  0  0  0  0  0
  -17.9700  -28.1850   22.9830 C   0  0  0  0  0  0  0  0  0  0  0  0
  -20.5270  -28.4680   23.2550 C   0  0  0  0  0  3  0  0  0  0  0  0
  -20.6390  -27.0220   22.7160 C   0  0  0  0  0  2  0  0  0  0  0  0
  -19.5440  -26.6690   21.7060 C   0  0  0  0  0  2  0  0  0  0  0  0
  -18.1580  -26.8210   22.3390 C   0  0  0  0  0  2  0  0  0  0  0  0
  -19.0830  -28.9650   23.3980 C   0  0  0  0  0  0  0  0  0  0  0  0
  -18.8520  -30.2380   23.9630 C   0  0  0  0  0  3  0  0  0  0  0  0
  -17.5420  -30.7320   24.1140 C   0  0  0  0  0  3  0  0  0  0  0  0
  -16.4460  -29.9510   23.7120 C   0  0  0  0  0  3  0  0  0  0  0  0
  -16.6600  -28.6790   23.1530 C   0  0  0  0  0  3  0  0  0  0  0  0
  -25.8810  -32.5820   23.8240 C   0  0  0  0  0  3  0  0  0  0  0  0
  -26.3960  -31.8230   25.1090 C   0  0  1  0  0  0  0  0  0  0  0  0
  -25.3050  -31.6090   26.1840 C   0  0  0  0  0  1  0  0  0  0  0  0
  -26.9640  -30.4340   24.7360 C   0  0  0  0  0  1  0  0  0  0  0  0
  -27.5590  -32.6140   25.7510 C   0  0  0  0  0  1  0  0  0  0  0  0
  -25.5840  -33.9880   24.1460 N   0  0  0  0  0  0  0  0  0  0  0  0
  -25.9020  -35.0350   23.3740 C   0  0  0  0  0  0  0  0  0  0  0  0
  -26.5410  -34.9190   22.3250 O   0  0  0  0  0  0  0  0  0  0  0  0
  -25.0110  -34.1510   24.9610 H   0  0  0  0  0  0  0  0  0  0  0  0
  -24.1740  -36.8390   23.0640 C   0  0  0  0  0  1  0  0  0  0  0  0
  -25.4390  -36.4320   23.8350 C   0  0  0  0  0  3  0  0  0  0  0  0
  -27.6030  -37.3170   24.5880 C   0  0  0  0  0  1  0  0  0  0  0  0
  -26.4750  -37.4770   23.6750 N   0  0  0  0  0  0  0  0  0  0  0  0
  -26.0810  -38.4030   23.8200 H   0  0  0  0  0  0  0  0  0  0  0  0
  2  1  2  0
  3  5  2  0
  3  6  1  0
  4  1  1  0
  4 45  1  0
  5  2  1  0
  6  4  2  0
  7 15  1  0
  8 13  1  0
  9 10  1  0
  9  8  1  0
 11 10  1  0
 11 20  1  0
 11 12  1  0
 13  7  1  0
 13 12  1  0
 14  7  2  0
 15  5  1  0
 16 15  1  0
 17 18  2  0
 18 37  1  0
 19 18  1  0
 19 22  1  0
 20 21  1  0
 20 17  1  0
 21 19  2  0
 22 23  1  0
 23 24  2  0
 25 28  1  0
 25 24  1  0
 26 25  2  0
 27 26  1  0
 27 22  2  0
 28 29  1  0
 29 30  1  0
 30 31  2  0
 32 31  1  0
 32 36  1  0
 33 32  2  0
 34 29  2  0
 34 33  1  0
 35 34  1  0
 37 38  1  0
 38 41  1  0
 38 40  1  0
 39 37  2  0
 42 43  1  0
 42 17  1  0
 44 42  1  0
 45 46  1  0
 46 48  1  0
 46 49  1  0
 47 45  2  0
 47 51  1  0
 50 47  1  0
 52 56  1  0
 52 53  1  0
 53 55  1  0
 53  6  1  0
 54 52  2  0
 57 56  1  0
 58 69  2  0
 59 57  1  0
 59 64  1  0
 60 68  1  0
 60 70  1  0
 61 67  1  0
 61 63  1  0
 62 68  1  0
 63 62  1  0
 64 63  2  0
 65 59  2  0
 66 65  1  0
 66 61  2  0
 67 60  1  0
 68 58  1  0
 70 72  2  0
 71 70  1  0
 73 71  1  0
 74 83  2  0
 74 79  1  0
 75 71  1  0
 75 79  1  0
 76 75  1  0
 77 78  1  0
 77 76  1  0
 78 74  1  0
 79 80  2  0
 80 81  1  0
 82 81  2  0
 83 82  1  0
 84 58  1  0
 84 89  1  0
 84 85  1  0
 85 88  1  1
 85 86  1  0
 87 85  1  0
 89 92  1  0
 90 94  1  0
 90 89  1  0
 91 90  2  0
 94 93  1  0
 96 97  1  0
 96 94  1  0
 96 95  1  0
M  ISO  4   7 100  15 100  56 101  57 101
M  END
>  <TORSDO>  (34) 
F 19

>  <SCORE>  (34) 
-14.709

>  <name>  (34) 
33

>  <ligand_id>  (34) 
33

>  <original_smiles>  (34) 
[H]c1c([H])c([H])c2c(c1[H])C([H])([H])C([H])([H])C([H])([H])C2([H])N([H])C(=O)C1([H])N(C(=O)C([H])(N([H])C(=O)C([H])(N([H])C([H])([H])[H])C([H])([H])[H])C(C([H])([H])[H])(C([H])([H])[H])C([H])([H])[H])C([H])([H])c2c([H])c(OC([H])([H])C(=O)N([H])c3c([H])c(N([H])C(=O)N4C([H])([H])C([H])([H])C([H])([H])C([H])(n5nc(-c6c([H])c([H])c(Oc7c([H])c([H])c(F)c([H])c7F)c([H])c6[H])c(C(=O)N([H])[H])c5N([H])[H])C4([H])[H])c([H])c([H])c3C(N([H])[H])=[N+]([H])[H])c([H])c([H])c2C1([H])[H]

>  <smiles>  (34) 
[H]c1c([H])c([H])c2c(c1[H])C([H])([H])C([H])([H])C([H])([H])C2([H])N([H])C(=O)C1([H])N(C(=O)C([H])(N([H])C(=O)C([H])(N([H])C([H])([H])[H])C([H])([H])[H])C(C([H])([H])[H])(C([H])([H])[H])C([H])([H])[H])C([H])([H])c2c([H])c(OC([H])([H])C(=O)N([H])c3c([H])c(N([H])C(=O)N4C([H])([H])C([H])([H])C([H])([H])C([H])(n5nc(-c6c([H])c([H])c(Oc7c([H])c([H])c(F)c([H])c7F)c([H])c6[H])c(C(=O)N([H])[H])c5N([H])[H])C4([H])[H])c([H])c([H])c3C(N([H])[H])=[N+]([H])[H])c([H])c([H])c2C1([H])[H]

$$$$
34:0:0
     RDKit          3D

100109  0  0  1  0  0  0  0  0999 V2000
  -30.8330  -19.3210   19.1740 C   0  0  0  0  0  3  0  0  0  0  0  0
  -30.4710  -20.6240   18.7480 C   0  0  0  0  0  3  0  0  0  0  0  0
  -29.6250  -21.1000   20.9480 C   0  0  0  0  0  3  0  0  0  0  0  0
  -30.6090  -18.8470   20.4900 C   0  0  0  0  0  0  0  0  0  0  0  0
  -29.8340  -21.5490   19.6140 C   0  0  0  0  0  0  0  0  0  0  0  0
  -30.0150  -19.7890   21.3980 C   0  0  0  0  0  0  0  0  0  0  0  0
  -31.2820  -15.0750   20.3880 C   0  0  0  0  0  0  0  0  0  0  0  0
  -30.9670  -12.8330   19.3520 C   0  0  0  0  0  2  0  0  0  0  0  0
  -30.0510  -12.9240   18.1170 C   0  0  0  0  0  2  0  0  0  0  0  0
  -28.5770  -12.7790   18.5400 C   0  0  0  0  0  2  0  0  0  0  0  0
  -28.2050  -13.6890   19.7410 C   0  0  0  0  0  3  0  0  0  0  0  0
  -29.2530  -13.6170   20.8730 C   0  0  0  0  0  2  0  0  0  0  0  0
  -30.5610  -13.9130   20.2780 N   0  0  0  0  0  0  0  0  0  0  0  0
  -32.4740  -15.0640   20.0700 O   0  0  0  0  0  0  0  0  0  0  0  0
  -31.2320  -17.4790   20.8440 C   0  0  0  0  0  0  0  0  0  0  0  0
  -30.6240  -16.2700   20.5990 N   0  0  0  0  0  0  0  0  0  0  0  0
  -32.3700  -17.5470   21.3270 O   0  0  0  0  0  0  0  0  0  0  0  0
  -29.6250  -16.2760   20.4840 H   0  0  0  0  0  0  0  0  0  0  0  0
  -25.8400  -14.3080   20.5200 C   0  0  0  0  0  0  0  0  0  0  0  0
  -24.7520  -13.5460   20.8490 C   0  0  0  0  0  0  0  0  0  0  0  0
  -25.1740  -12.1860   20.7350 C   0  0  0  0  0  0  0  0  0  0  0  0
  -26.8560  -13.4130   20.2260 N   0  0  0  0  0  0  0  0  0  0  0  0
  -26.4620  -12.1270   20.4180 N   0  0  0  0  0  0  0  0  0  0  0  0
  -24.4080  -10.9380   20.8520 C   0  0  0  0  0  0  0  0  0  0  0  0
  -24.7550   -9.9430   21.7930 C   0  0  0  0  0  3  0  0  0  0  0  0
  -23.9920   -8.7600   21.9000 C   0  0  0  0  0  3  0  0  0  0  0  0
  -22.8660   -8.5640   21.0640 C   0  0  0  0  0  0  0  0  0  0  0  0
  -22.5380   -9.5470   20.1140 C   0  0  0  0  0  3  0  0  0  0  0  0
  -23.3020  -10.7210   20.0050 C   0  0  0  0  0  3  0  0  0  0  0  0
  -22.0810   -7.4360   21.0790 O   0  0  0  0  0  0  0  0  0  0  0  0
  -21.8390   -6.7430   22.2390 C   0  0  0  0  0  0  0  0  0  0  0  0
  -21.2640   -7.3620   23.3700 C   0  0  0  0  0  3  0  0  0  0  0  0
  -20.9690   -6.5980   24.5160 C   0  0  0  0  0  3  0  0  0  0  0  0
  -21.2380   -5.2160   24.5310 C   0  0  0  0  0  0  0  0  0  0  0  0
  -21.8050   -4.5970   23.4030 C   0  0  0  0  0  3  0  0  0  0  0  0
  -22.1030   -5.3590   22.2590 C   0  0  0  0  0  0  0  0  0  0  0  0
  -22.6290   -4.7530   21.1670 F   0  0  0  0  0  0  0  0  0  0  0  0
  -20.9470   -4.4800   25.6280 F   0  0  0  0  0  0  0  0  0  0  0  0
  -23.3710  -14.0500   21.1550 C   0  0  0  0  0  0  0  0  0  0  0  0
  -22.6340  -13.3380   21.9990 N   0  0  0  0  0  0  0  0  0  0  0  0
  -22.9570  -15.1080   20.6820 O   0  0  0  0  0  0  0  0  0  0  0  0
  -22.9830  -12.4820   22.4030 H   0  0  0  0  0  0  0  0  0  0  0  0
  -21.7070  -13.6550   22.2470 H   0  0  0  0  0  0  0  0  0  0  0  0
  -26.0430  -15.6810   20.4170 N   0  0  0  0  0  0  0  0  0  0  0  0
  -25.2850  -16.3440   20.5470 H   0  0  0  0  0  0  0  0  0  0  0  0
  -26.8870  -16.1130   20.0610 H   0  0  0  0  0  0  0  0  0  0  0  0
  -28.7310  -22.7320   17.8270 C   0  0  0  0  0  0  0  0  0  0  0  0
  -28.2500  -23.9900   17.0890 C   0  0  0  0  0  2  0  0  0  0  0  0
  -28.7490  -25.3120   17.6700 C   0  0  0  0  0  2  0  0  0  0  0  0
  -29.4230  -24.1460   19.7800 C   0  0  0  0  0  2  0  0  0  0  0  0
  -28.5310  -25.3290   19.1840 C   0  0  0  0  0  3  0  0  0  0  0  0
  -29.2920  -22.8060   19.0720 N   0  0  0  0  0  0  0  0  0  0  0  0
  -28.5510  -21.6610   17.2360 O   0  0  0  0  0  0  0  0  0  0  0  0
  -28.6260  -26.7490   19.6230 O   0  0  0  0  0  0  0  0  0  0  0  0
  -24.6020  -31.7070   23.0380 C   0  0  0  0  0  0  0  0  0  0  0  0
  -27.4520  -27.5350   19.6410 C   0  0  0  0  0  0  0  0  0  0  0  0
  -23.4610  -30.3240   21.3460 C   0  0  0  0  0  3  0  0  0  0  0  0
  -24.9800  -28.9860   19.7930 C   0  0  0  0  0  0  0  0  0  0  0  0
  -25.9700  -30.8360   21.1310 C   0  0  0  0  0  2  0  0  0  0  0  0
  -26.1300  -29.5090   20.3970 C   0  0  0  0  0  0  0  0  0  0  0  0
  -27.3640  -28.7940   20.3200 C   0  0  0  0  0  3  0  0  0  0  0  0
  -26.2650  -27.0850   19.0060 C   0  0  0  0  0  3  0  0  0  0  0  0
  -25.0510  -27.7800   19.0890 C   0  0  0  0  0  3  0  0  0  0  0  0
  -23.6870  -29.7610   19.9200 C   0  0  0  0  0  2  0  0  0  0  0  0
  -24.6970  -30.9700   21.8940 N   0  0  0  0  0  0  0  0  0  0  0  0
  -23.5150  -31.8720   23.6090 O   0  0  0  0  0  0  0  0  0  0  0  0
  -22.9050  -29.1990   22.2520 C   0  0  0  0  0  0  0  0  0  0  0  0
  -21.6030  -28.8980   22.1100 N   0  0  0  0  0  0  0  0  0  0  0  0
  -23.6410  -28.6060   23.0440 O   0  0  0  0  0  0  0  0  0  0  0  0
  -21.0650  -29.4340   21.4440 H   0  0  0  0  0  0  0  0  0  0  0  0
  -18.3610  -27.3420   22.5140 C   0  0  0  0  0  0  0  0  0  0  0  0
  -20.8760  -27.8530   22.8350 C   0  0  0  0  0  3  0  0  0  0  0  0
  -21.1330  -26.4630   22.2090 C   0  0  0  0  0  2  0  0  0  0  0  0
  -20.0810  -26.0660   21.1680 C   0  0  0  0  0  2  0  0  0  0  0  0
  -18.6840  -26.0430   21.7960 C   0  0  0  0  0  2  0  0  0  0  0  0
  -19.3900  -28.2000   22.9880 C   0  0  0  0  0  0  0  0  0  0  0  0
  -19.0330  -29.4100   23.6190 C   0  0  0  0  0  3  0  0  0  0  0  0
  -17.6810  -29.7660   23.7860 C   0  0  0  0  0  3  0  0  0  0  0  0
  -16.6670  -28.9060   23.3280 C   0  0  0  0  0  3  0  0  0  0  0  0
  -17.0080  -27.6980   22.6960 C   0  0  0  0  0  3  0  0  0  0  0  0
  -25.8490  -32.3970   23.6670 C   0  0  0  0  0  3  0  0  0  0  0  0
  -26.4490  -31.5970   24.8880 C   0  0  1  0  0  0  0  0  0  0  0  0
  -25.3990  -31.2160   25.9590 C   0  0  0  0  0  1  0  0  0  0  0  0
  -27.1280  -30.2930   24.4090 C   0  0  0  0  0  1  0  0  0  0  0  0
  -27.5480  -32.4410   25.5760 C   0  0  0  0  0  1  0  0  0  0  0  0
  -25.4450  -33.7480   24.0830 N   0  0  0  0  0  0  0  0  0  0  0  0
  -25.6450  -34.8580   23.3610 C   0  0  0  0  0  0  0  0  0  0  0  0
  -26.2620  -34.8600   22.2920 O   0  0  0  0  0  0  0  0  0  0  0  0
  -24.8910  -33.8160   24.9240 H   0  0  0  0  0  0  0  0  0  0  0  0
  -23.7480  -36.5010   23.2010 C   0  0  0  0  0  1  0  0  0  0  0  0
  -25.0720  -36.1780   23.9120 C   0  0  0  0  0  3  0  0  0  0  0  0
  -27.1730  -37.2170   24.6440 C   0  0  0  0  0  1  0  0  0  0  0  0
  -25.9990  -37.3220   23.7810 N   0  0  0  0  0  0  0  0  0  0  0  0
  -25.5250  -38.1950   23.9970 H   0  0  0  0  0  0  0  0  0  0  0  0
  -29.8040  -19.5010   22.7540 N   0  0  0  0  0  0  0  0  0  0  0  0
  -28.9740  -19.9460   23.1240 H   0  0  0  0  0  0  0  0  0  0  0  0
  -32.2990  -20.5330   23.4820 C   0  0  0  0  0  1  0  0  0  0  0  0
  -30.3390  -19.9000   25.2170 O   0  0  0  0  0  0  0  0  0  0  0  0
  -31.4900  -18.0010   23.9570 O   0  0  0  0  0  0  0  0  0  0  0  0
  -30.9900  -19.3820   24.0030 S   0  0  1  0  0  0  0  0  0  0  0  0
  1  4  1  0
  2  1  2  0
  2  5  1  0
  3  6  1  0
  4 15  1  0
  4  6  2  0
  5  3  2  0
  6 95  1  0
  7 16  1  0
  8 13  1  0
  9 10  1  0
  9  8  1  0
 11 10  1  0
 11 22  1  0
 11 12  1  0
 13  7  1  0
 13 12  1  0
 14  7  2  0
 15 17  2  0
 16 15  1  0
 18 16  1  0
 19 20  2  0
 20 39  1  0
 21 20  1  0
 21 24  1  0
 22 23  1  0
 22 19  1  0
 23 21  2  0
 24 25  1  0
 25 26  2  0
 27 30  1  0
 27 26  1  0
 28 27  2  0
 29 28  1  0
 29 24  2  0
 30 31  1  0
 31 36  2  0
 31 32  1  0
 32 33  2  0
 33 34  1  0
 34 38  1  0
 35 34  2  0
 36 35  1  0
 37 36  1  0
 39 40  1  0
 40 43  1  0
 40 42  1  0
 41 39  2  0
 44 19  1  0
 44 45  1  0
 46 44  1  0
 47 52  1  0
 48 49  1  0
 48 47  1  0
 49 51  1  0
 51 54  1  0
 51 50  1  0
 52  5  1  0
 52 50  1  0
 53 47  2  0
 54 56  1  0
 55 66  2  0
 56 61  1  0
 57 65  1  0
 57 67  1  0
 58 64  1  0
 58 60  1  0
 59 65  1  0
 60 59  1  0
 61 60  2  0
 62 63  1  0
 62 56  2  0
 63 58  2  0
 64 57  1  0
 65 55  1  0
 67 69  2  0
 68 67  1  0
 70 68  1  0
 71 80  2  0
 71 76  1  0
 72 68  1  0
 72 76  1  0
 73 72  1  0
 74 75  1  0
 74 73  1  0
 75 71  1  0
 76 77  2  0
 77 78  1  0
 79 78  2  0
 80 79  1  0
 81 55  1  0
 81 86  1  0
 81 82  1  0
 82 85  1  1
 82 83  1  0
 84 82  1  0
 86 89  1  0
 87 91  1  0
 87 86  1  0
 88 87  2  0
 91 90  1  0
 93 91  1  0
 93 94  1  0
 93 92  1  0
 95 96  1  0
 95100  1  0
100 97  1  6
 99100  2  0
100 98  2  0
M  ISO  4   7 100  16 100  51 101  54 101
M  END
>  <TORSDO>  (35) 
F 19

>  <SCORE>  (35) 
-10.705

>  <name>  (35) 
34

>  <ligand_id>  (35) 
34

>  <original_smiles>  (35) 
[H]c1c([H])c([H])c2c(c1[H])C([H])([H])C([H])([H])C([H])([H])C2([H])N([H])C(=O)C1([H])N(C(=O)C([H])(N([H])C(=O)C([H])(N([H])C([H])([H])[H])C([H])([H])[H])C(C([H])([H])[H])(C([H])([H])[H])C([H])([H])[H])C([H])([H])c2c([H])c(OC3([H])C([H])([H])N(c4c([H])c([H])c(C(=O)N([H])C(=O)N5C([H])([H])C([H])([H])C([H])([H])C([H])(n6nc(-c7c([H])c([H])c(Oc8c([H])c([H])c(F)c([H])c8F)c([H])c7[H])c(C(=O)N([H])[H])c6N([H])[H])C5([H])[H])c(N([H])S(=O)(=O)C([H])([H])[H])c4[H])C(=O)C([H])([H])C3([H])[H])c([H])c([H])c2C1([H])[H]

>  <smiles>  (35) 
[H]c1c([H])c([H])c2c(c1[H])C([H])([H])C([H])([H])C([H])([H])C2([H])N([H])C(=O)C1([H])N(C(=O)C([H])(N([H])C(=O)C([H])(N([H])C([H])([H])[H])C([H])([H])[H])C(C([H])([H])[H])(C([H])([H])[H])C([H])([H])[H])C([H])([H])c2c([H])c(OC3([H])C([H])([H])N(c4c([H])c([H])c(C(=O)N([H])C(=O)N5C([H])([H])C([H])([H])C([H])([H])C([H])(n6nc(-c7c([H])c([H])c(Oc8c([H])c([H])c(F)c([H])c8F)c([H])c7[H])c(C(=O)N([H])[H])c6N([H])[H])C5([H])[H])c(N([H])S(=O)(=O)C([H])([H])[H])c4[H])C(=O)C([H])([H])C3([H])[H])c([H])c([H])c2C1([H])[H]

$$$$
35:0:0
     RDKit          3D

 93102  0  0  1  0  0  0  0  0999 V2000
  -30.6210  -22.3720   19.3920 C   0  0  0  0  0  0  0  0  0  0  0  0
  -28.4990  -22.4180   20.3170 C   0  0  0  0  0  2  0  0  0  0  0  0
  -29.0200  -23.9000   20.2110 C   0  0  0  0  0  3  0  0  0  0  0  0
  -29.6380  -21.5480   19.9510 N   0  0  0  0  0  0  0  0  0  0  0  0
  -31.7020  -22.0580   18.8910 O   0  0  0  0  0  0  0  0  0  0  0  0
  -30.1990  -23.6620   19.4560 O   0  0  0  0  0  0  0  0  0  0  0  0
  -30.8620  -19.2880   19.8550 C   0  0  0  0  0  3  0  0  0  0  0  0
  -30.8860  -17.8650   19.9450 C   0  0  0  0  0  3  0  0  0  0  0  0
  -28.5230  -19.3010   20.3540 C   0  0  0  0  0  3  0  0  0  0  0  0
  -28.5340  -17.8720   20.4510 C   0  0  0  0  0  0  0  0  0  0  0  0
  -29.6810  -20.0680   20.0510 C   0  0  0  0  0  0  0  0  0  0  0  0
  -29.7270  -17.1070   20.2470 C   0  0  0  0  0  0  0  0  0  0  0  0
  -27.2070  -17.2000   20.7850 C   0  0  0  0  0  1  0  0  0  0  0  0
  -30.4570  -14.6360   19.7720 C   0  0  0  0  0  0  0  0  0  0  0  0
  -30.1500  -12.4480   18.6280 C   0  0  0  0  0  2  0  0  0  0  0  0
  -29.0870  -12.6350   17.5200 C   0  0  0  0  0  2  0  0  0  0  0  0
  -27.6610  -12.4630   18.0820 C   0  0  0  0  0  2  0  0  0  0  0  0
  -27.4390  -13.2660   19.3920 C   0  0  0  0  0  3  0  0  0  0  0  0
  -28.5980  -13.0350   20.3880 C   0  0  0  0  0  2  0  0  0  0  0  0
  -29.8470  -13.4100   19.7050 N   0  0  0  0  0  0  0  0  0  0  0  0
  -31.5610  -14.8260   19.2510 O   0  0  0  0  0  0  0  0  0  0  0  0
  -29.6990  -15.6410   20.3230 N   0  0  0  0  0  0  0  0  0  0  0  0
  -28.8740  -15.2750   20.7730 H   0  0  0  0  0  0  0  0  0  0  0  0
  -25.1330  -13.8630   20.3540 C   0  0  0  0  0  0  0  0  0  0  0  0
  -24.1030  -13.0890   20.8120 C   0  0  0  0  0  0  0  0  0  0  0  0
  -24.5450  -11.7350   20.6950 C   0  0  0  0  0  0  0  0  0  0  0  0
  -26.1410  -12.9810   19.9950 N   0  0  0  0  0  0  0  0  0  0  0  0
  -25.7980  -11.6940   20.2580 N   0  0  0  0  0  0  0  0  0  0  0  0
  -23.8290  -10.4740   20.9190 C   0  0  0  0  0  0  0  0  0  0  0  0
  -24.2940   -9.5170   21.8470 C   0  0  0  0  0  3  0  0  0  0  0  0
  -23.5800   -8.3170   22.0560 C   0  0  0  0  0  3  0  0  0  0  0  0
  -22.3860   -8.0680   21.3380 C   0  0  0  0  0  0  0  0  0  0  0  0
  -21.9400   -9.0140   20.3990 C   0  0  0  0  0  3  0  0  0  0  0  0
  -22.6540  -10.2050   20.1880 C   0  0  0  0  0  3  0  0  0  0  0  0
  -21.6390   -6.9210   21.4580 O   0  0  0  0  0  0  0  0  0  0  0  0
  -21.5640   -6.2310   22.6430 C   0  0  0  0  0  0  0  0  0  0  0  0
  -21.0980   -6.8370   23.8300 C   0  0  0  0  0  3  0  0  0  0  0  0
  -20.9720   -6.0720   25.0060 C   0  0  0  0  0  3  0  0  0  0  0  0
  -21.3030   -4.7040   24.9970 C   0  0  0  0  0  0  0  0  0  0  0  0
  -21.7600   -4.0990   23.8130 C   0  0  0  0  0  3  0  0  0  0  0  0
  -21.8890   -4.8600   22.6390 C   0  0  0  0  0  0  0  0  0  0  0  0
  -22.3120   -4.2670   21.4970 F   0  0  0  0  0  0  0  0  0  0  0  0
  -21.1750   -3.9670   26.1240 F   0  0  0  0  0  0  0  0  0  0  0  0
  -22.7440  -13.5690   21.2360 C   0  0  0  0  0  0  0  0  0  0  0  0
  -22.1060  -12.8630   22.1630 N   0  0  0  0  0  0  0  0  0  0  0  0
  -22.2610  -14.6040   20.7800 O   0  0  0  0  0  0  0  0  0  0  0  0
  -22.5100  -12.0250   22.5540 H   0  0  0  0  0  0  0  0  0  0  0  0
  -21.1990  -13.1680   22.4900 H   0  0  0  0  0  0  0  0  0  0  0  0
  -25.2880  -15.2340   20.1850 N   0  0  0  0  0  0  0  0  0  0  0  0
  -24.5140  -15.8720   20.3330 H   0  0  0  0  0  0  0  0  0  0  0  0
  -26.0600  -15.6610   19.6900 H   0  0  0  0  0  0  0  0  0  0  0  0
  -28.0660  -24.9980   19.5700 C   0  0  0  0  0  2  0  0  0  0  0  0
  -28.2960  -26.4480   19.7950 O   0  0  0  0  0  0  0  0  0  0  0  0
  -24.5020  -31.6400   23.0480 C   0  0  0  0  0  0  0  0  0  0  0  0
  -27.1680  -27.2860   19.7680 C   0  0  0  0  0  0  0  0  0  0  0  0
  -23.3070  -30.2930   21.3610 C   0  0  0  0  0  3  0  0  0  0  0  0
  -24.7710  -28.8420   19.8530 C   0  0  0  0  0  0  0  0  0  0  0  0
  -25.8370  -30.6740   21.1640 C   0  0  0  0  0  2  0  0  0  0  0  0
  -25.9380  -29.3300   20.4560 C   0  0  0  0  0  0  0  0  0  0  0  0
  -27.1390  -28.5650   20.4050 C   0  0  0  0  0  3  0  0  0  0  0  0
  -25.9790  -26.8600   19.1320 C   0  0  0  0  0  3  0  0  0  0  0  0
  -24.7940  -27.6120   19.1830 C   0  0  0  0  0  3  0  0  0  0  0  0
  -23.5170  -29.6850   19.9500 C   0  0  0  0  0  2  0  0  0  0  0  0
  -24.5670  -30.8840   21.9130 N   0  0  0  0  0  0  0  0  0  0  0  0
  -23.4200  -31.8680   23.6070 O   0  0  0  0  0  0  0  0  0  0  0  0
  -22.6800  -29.2170   22.2810 C   0  0  0  0  0  0  0  0  0  0  0  0
  -21.3530  -29.0330   22.1810 N   0  0  0  0  0  0  0  0  0  0  0  0
  -23.3860  -28.5530   23.0460 O   0  0  0  0  0  0  0  0  0  0  0  0
  -20.8400  -29.6200   21.5360 H   0  0  0  0  0  0  0  0  0  0  0  0
  -17.9930  -27.8340   22.7630 C   0  0  0  0  0  0  0  0  0  0  0  0
  -20.5640  -28.0500   22.9240 C   0  0  0  0  0  3  0  0  0  0  0  0
  -20.6200  -26.6620   22.2450 C   0  0  0  0  0  2  0  0  0  0  0  0
  -19.4660  -26.4210   21.2670 C   0  0  0  0  0  2  0  0  0  0  0  0
  -18.1190  -26.5350   21.9860 C   0  0  0  0  0  2  0  0  0  0  0  0
  -19.1410  -28.5530   23.1910 C   0  0  0  0  0  0  0  0  0  0  0  0
  -18.9690  -29.7720   23.8830 C   0  0  0  0  0  3  0  0  0  0  0  0
  -17.6810  -30.2720   24.1480 C   0  0  0  0  0  3  0  0  0  0  0  0
  -16.5470  -29.5510   23.7360 C   0  0  0  0  0  3  0  0  0  0  0  0
  -16.7040  -28.3330   23.0500 C   0  0  0  0  0  3  0  0  0  0  0  0
  -25.7800  -32.2720   23.6810 C   0  0  0  0  0  3  0  0  0  0  0  0
  -25.4520  -33.6540   24.0540 N   0  0  0  0  0  0  0  0  0  0  0  0
  -25.7530  -34.7330   23.3180 C   0  0  0  0  0  0  0  0  0  0  0  0
  -26.4070  -34.6700   22.2740 O   0  0  0  0  0  0  0  0  0  0  0  0
  -24.8700  -33.7770   24.8690 H   0  0  0  0  0  0  0  0  0  0  0  0
  -23.9790  -36.4930   23.0540 C   0  0  0  0  0  1  0  0  0  0  0  0
  -25.2490  -36.0990   23.8230 C   0  0  0  0  0  3  0  0  0  0  0  0
  -27.3820  -37.0120   24.6210 C   0  0  0  0  0  1  0  0  0  0  0  0
  -26.2550  -37.1760   23.7070 N   0  0  0  0  0  0  0  0  0  0  0  0
  -25.8330  -38.0830   23.8820 H   0  0  0  0  0  0  0  0  0  0  0  0
  -26.3120  -31.4710   24.9320 C   0  0  1  0  0  0  0  0  0  0  0  0
  -25.2230  -31.1890   25.9920 C   0  0  0  0  0  1  0  0  0  0  0  0
  -26.9140  -30.1140   24.4980 C   0  0  0  0  0  1  0  0  0  0  0  0
  -27.4520  -32.2610   25.6150 C   0  0  0  0  0  1  0  0  0  0  0  0
  1  6  1  0
  1  4  1  0
  3 52  1  0
  3  2  1  0
  4 11  1  0
  4  2  1  0
  5  1  2  0
  6  3  1  0
  7  8  2  0
  7 11  1  0
  8 12  1  0
  9 10  1  0
 10 13  1  0
 11  9  2  0
 12 22  1  0
 12 10  2  0
 14 22  1  0
 15 20  1  0
 16 17  1  0
 16 15  1  0
 18 17  1  0
 18 27  1  0
 18 19  1  0
 20 14  1  0
 20 19  1  0
 21 14  2  0
 22 23  1  0
 24 25  2  0
 25 44  1  0
 26 25  1  0
 26 29  1  0
 27 28  1  0
 27 24  1  0
 28 26  2  0
 29 30  1  0
 30 31  2  0
 32 35  1  0
 32 31  1  0
 33 32  2  0
 34 33  1  0
 34 29  2  0
 35 36  1  0
 36 37  1  0
 37 38  2  0
 39 38  1  0
 39 43  1  0
 40 39  2  0
 41 36  2  0
 41 40  1  0
 42 41  1  0
 44 45  1  0
 45 48  1  0
 45 47  1  0
 46 44  2  0
 49 50  1  0
 49 24  1  0
 51 49  1  0
 52 53  1  0
 54 65  2  0
 55 53  1  0
 55 60  1  0
 56 64  1  0
 56 66  1  0
 57 63  1  0
 57 59  1  0
 58 64  1  0
 59 58  1  0
 60 59  2  0
 61 62  1  0
 61 55  2  0
 62 57  2  0
 63 56  1  0
 64 54  1  0
 66 68  2  0
 67 66  1  0
 69 67  1  0
 70 79  2  0
 70 75  1  0
 71 67  1  0
 71 75  1  0
 72 71  1  0
 73 74  1  0
 73 72  1  0
 74 70  1  0
 75 76  2  0
 76 77  1  0
 78 77  2  0
 79 78  1  0
 80 54  1  0
 80 81  1  0
 80 90  1  0
 81 84  1  0
 82 86  1  0
 82 81  1  0
 83 82  2  0
 86 85  1  0
 88 86  1  0
 88 89  1  0
 88 87  1  0
 90 93  1  1
 90 91  1  0
 92 90  1  0
M  ISO  4  14 100  22 100  52 101  53 101
M  END
>  <TORSDO>  (36) 
F 18

>  <SCORE>  (36) 
-13.326

>  <name>  (36) 
35

>  <ligand_id>  (36) 
35

>  <original_smiles>  (36) 
[H]c1c([H])c([H])c2c(c1[H])C([H])([H])C([H])([H])C([H])([H])C2([H])N([H])C(=O)C1([H])N(C(=O)C([H])(N([H])C(=O)C([H])(N([H])C([H])([H])[H])C([H])([H])[H])C(C([H])([H])[H])(C([H])([H])[H])C([H])([H])[H])C([H])([H])c2c([H])c(OC([H])([H])C3([H])OC(=O)N(c4c([H])c([H])c(N([H])C(=O)N5C([H])([H])C([H])([H])C([H])([H])C([H])(n6nc(-c7c([H])c([H])c(Oc8c([H])c([H])c(F)c([H])c8F)c([H])c7[H])c(C(=O)N([H])[H])c6N([H])[H])C5([H])[H])c(C([H])([H])[H])c4[H])C3([H])[H])c([H])c([H])c2C1([H])[H]

>  <smiles>  (36) 
[H]c1c([H])c([H])c2c(c1[H])C([H])([H])C([H])([H])C([H])([H])C2([H])N([H])C(=O)C1([H])N(C(=O)C([H])(N([H])C(=O)C([H])(N([H])C([H])([H])[H])C([H])([H])[H])C(C([H])([H])[H])(C([H])([H])[H])C([H])([H])[H])C([H])([H])c2c([H])c(OC([H])([H])C3([H])OC(=O)N(c4c([H])c([H])c(N([H])C(=O)N5C([H])([H])C([H])([H])C([H])([H])C([H])(n6nc(-c7c([H])c([H])c(Oc8c([H])c([H])c(F)c([H])c8F)c([H])c7[H])c(C(=O)N([H])[H])c6N([H])[H])C5([H])[H])c(C([H])([H])[H])c4[H])C3([H])[H])c([H])c([H])c2C1([H])[H]

$$$$
36:0:0
     RDKit          3D

 94102  0  0  1  0  0  0  0  0999 V2000
  -28.6720  -21.4780   20.3130 C   0  0  0  0  0  3  0  0  0  0  0  0
  -28.9780  -24.0530   20.0770 C   0  0  0  0  0  0  0  0  0  0  0  0
  -27.5550  -20.5400   20.6890 C   0  0  0  0  0  1  0  0  0  0  0  0
  -28.3030  -22.8020   20.3670 N   0  0  0  0  0  0  0  0  0  0  0  0
  -29.8940  -20.9180   20.0140 N   0  0  0  0  0  0  0  0  0  0  0  0
  -30.0570  -24.0810   19.4700 O   0  0  0  0  0  0  0  0  0  0  0  0
  -27.3800  -22.8720   20.7650 H   0  0  0  0  0  0  0  0  0  0  0  0
  -30.5240  -21.4180   19.3980 H   0  0  0  0  0  0  0  0  0  0  0  0
  -30.9500  -18.3940   22.5970 C   0  0  0  0  0  3  0  0  0  0  0  0
  -30.9660  -17.1770   21.8900 C   0  0  0  0  0  3  0  0  0  0  0  0
  -30.6070  -19.5940   21.9480 C   0  0  0  0  0  3  0  0  0  0  0  0
  -30.3180  -18.3630   19.8540 C   0  0  0  0  0  3  0  0  0  0  0  0
  -30.6640  -17.1310   20.5110 C   0  0  0  0  0  0  0  0  0  0  0  0
  -30.2810  -19.6030   20.5770 C   0  0  0  0  0  0  0  0  0  0  0  0
  -31.2900  -14.7440   19.7970 C   0  0  0  0  0  0  0  0  0  0  0  0
  -30.9460  -12.4940   18.7930 C   0  0  0  0  0  2  0  0  0  0  0  0
  -29.9400  -12.6280   17.6260 C   0  0  0  0  0  2  0  0  0  0  0  0
  -28.4900  -12.5310   18.1510 C   0  0  0  0  0  2  0  0  0  0  0  0
  -28.2320  -13.4820   19.3500 C   0  0  0  0  0  3  0  0  0  0  0  0
  -29.3310  -13.2960   20.4200 C   0  0  0  0  0  2  0  0  0  0  0  0
  -30.6240  -13.5520   19.7630 N   0  0  0  0  0  0  0  0  0  0  0  0
  -32.4640  -14.8510   19.4300 O   0  0  0  0  0  0  0  0  0  0  0  0
  -30.4680  -15.8280   19.9110 N   0  0  0  0  0  0  0  0  0  0  0  0
  -29.5020  -15.5530   19.8690 H   0  0  0  0  0  0  0  0  0  0  0  0
  -25.9410  -14.2660   20.2160 C   0  0  0  0  0  0  0  0  0  0  0  0
  -24.8400  -13.5740   20.6370 C   0  0  0  0  0  0  0  0  0  0  0  0
  -25.1910  -12.1910   20.5640 C   0  0  0  0  0  0  0  0  0  0  0  0
  -26.8960  -13.3070   19.9080 N   0  0  0  0  0  0  0  0  0  0  0  0
  -26.4530  -12.0540   20.1770 N   0  0  0  0  0  0  0  0  0  0  0  0
  -24.3830  -10.9870   20.7830 C   0  0  0  0  0  0  0  0  0  0  0  0
  -24.7750   -9.9920   21.7070 C   0  0  0  0  0  3  0  0  0  0  0  0
  -23.9760   -8.8480   21.9060 C   0  0  0  0  0  3  0  0  0  0  0  0
  -22.7690   -8.6890   21.1840 C   0  0  0  0  0  0  0  0  0  0  0  0
  -22.3980   -9.6690   20.2460 C   0  0  0  0  0  3  0  0  0  0  0  0
  -23.1970  -10.8060   20.0450 C   0  0  0  0  0  3  0  0  0  0  0  0
  -21.9390   -7.6010   21.2960 O   0  0  0  0  0  0  0  0  0  0  0  0
  -21.8290   -6.8980   22.4690 C   0  0  0  0  0  0  0  0  0  0  0  0
  -21.4350   -7.5180   23.6750 C   0  0  0  0  0  3  0  0  0  0  0  0
  -21.2710   -6.7460   24.8420 C   0  0  0  0  0  3  0  0  0  0  0  0
  -21.4890   -5.3550   24.8040 C   0  0  0  0  0  0  0  0  0  0  0  0
  -21.8770   -4.7360   23.6040 C   0  0  0  0  0  3  0  0  0  0  0  0
  -22.0450   -5.5060   22.4400 C   0  0  0  0  0  0  0  0  0  0  0  0
  -22.3980   -4.9020   21.2790 F   0  0  0  0  0  0  0  0  0  0  0  0
  -21.3240   -4.6110   25.9230 F   0  0  0  0  0  0  0  0  0  0  0  0
  -23.5010  -14.1510   20.9990 C   0  0  0  0  0  0  0  0  0  0  0  0
  -22.7790  -13.5060   21.9070 N   0  0  0  0  0  0  0  0  0  0  0  0
  -23.1090  -15.2100   20.5080 O   0  0  0  0  0  0  0  0  0  0  0  0
  -23.1060  -12.6460   22.3240 H   0  0  0  0  0  0  0  0  0  0  0  0
  -21.8830  -13.8760   22.1890 H   0  0  0  0  0  0  0  0  0  0  0  0
  -26.2080  -15.6230   20.0420 N   0  0  0  0  0  0  0  0  0  0  0  0
  -25.5100  -16.3390   20.2100 H   0  0  0  0  0  0  0  0  0  0  0  0
  -27.0580  -15.9990   19.6430 H   0  0  0  0  0  0  0  0  0  0  0  0
  -28.2810  -25.3100   20.7210 C   0  0  0  0  0  2  0  0  0  0  0  0
  -28.4840  -26.6220   20.0870 O   0  0  0  0  0  0  0  0  0  0  0  0
  -24.6050  -31.7910   23.2710 C   0  0  0  0  0  0  0  0  0  0  0  0
  -27.3500  -27.4320   20.0850 C   0  0  0  0  0  0  0  0  0  0  0  0
  -23.4380  -30.4140   21.5810 C   0  0  0  0  0  3  0  0  0  0  0  0
  -24.9320  -28.9410   20.1210 C   0  0  0  0  0  0  0  0  0  0  0  0
  -25.9650  -30.8120   21.4120 C   0  0  0  0  0  2  0  0  0  0  0  0
  -26.0850  -29.4560   20.7310 C   0  0  0  0  0  0  0  0  0  0  0  0
  -27.2980  -28.7120   20.7080 C   0  0  0  0  0  3  0  0  0  0  0  0
  -26.1800  -26.9570   19.4550 C   0  0  0  0  0  3  0  0  0  0  0  0
  -24.9800  -27.6940   19.4760 C   0  0  0  0  0  3  0  0  0  0  0  0
  -23.6730  -29.7780   20.1860 C   0  0  0  0  0  2  0  0  0  0  0  0
  -24.6860  -31.0230   22.1450 N   0  0  0  0  0  0  0  0  0  0  0  0
  -23.5160  -32.0230   23.8150 O   0  0  0  0  0  0  0  0  0  0  0  0
  -22.7970  -29.3560   22.5100 C   0  0  0  0  0  0  0  0  0  0  0  0
  -21.4850  -29.1150   22.3420 N   0  0  0  0  0  0  0  0  0  0  0  0
  -23.4810  -28.7530   23.3420 O   0  0  0  0  0  0  0  0  0  0  0  0
  -20.9910  -29.6500   21.6430 H   0  0  0  0  0  0  0  0  0  0  0  0
  -18.1760  -27.6990   22.6830 C   0  0  0  0  0  0  0  0  0  0  0  0
  -20.6910  -28.1370   23.0840 C   0  0  0  0  0  3  0  0  0  0  0  0
  -20.9230  -26.7030   22.5510 C   0  0  0  0  0  2  0  0  0  0  0  0
  -19.9030  -26.2770   21.4920 C   0  0  0  0  0  2  0  0  0  0  0  0
  -18.4820  -26.3450   22.0630 C   0  0  0  0  0  2  0  0  0  0  0  0
  -19.2160  -28.5430   23.1570 C   0  0  0  0  0  0  0  0  0  0  0  0
  -18.8810  -29.7960   23.7130 C   0  0  0  0  0  3  0  0  0  0  0  0
  -17.5380  -30.2060   23.8050 C   0  0  0  0  0  3  0  0  0  0  0  0
  -16.5130  -29.3570   23.3530 C   0  0  0  0  0  3  0  0  0  0  0  0
  -16.8320  -28.1080   22.7900 C   0  0  0  0  0  3  0  0  0  0  0  0
  -25.8740  -32.4350   23.9110 C   0  0  0  0  0  3  0  0  0  0  0  0
  -25.5520  -33.8360   24.2150 N   0  0  0  0  0  0  0  0  0  0  0  0
  -25.9050  -34.8810   23.4530 C   0  0  0  0  0  0  0  0  0  0  0  0
  -26.6060  -34.7660   22.4440 O   0  0  0  0  0  0  0  0  0  0  0  0
  -24.9360  -33.9980   24.9980 H   0  0  0  0  0  0  0  0  0  0  0  0
  -24.1860  -36.6680   23.0280 C   0  0  0  0  0  1  0  0  0  0  0  0
  -25.4050  -36.2750   23.8780 C   0  0  0  0  0  3  0  0  0  0  0  0
  -27.5170  -37.1740   24.7510 C   0  0  0  0  0  1  0  0  0  0  0  0
  -26.4380  -37.3290   23.7790 N   0  0  0  0  0  0  0  0  0  0  0  0
  -26.0270  -38.2510   23.9010 H   0  0  0  0  0  0  0  0  0  0  0  0
  -26.3640  -31.6830   25.2100 C   0  0  1  0  0  0  0  0  0  0  0  0
  -25.2490  -31.4530   26.2560 C   0  0  0  0  0  1  0  0  0  0  0  0
  -26.9600  -30.3030   24.8490 C   0  0  0  0  0  1  0  0  0  0  0  0
  -27.4940  -32.4920   25.8890 C   0  0  0  0  0  1  0  0  0  0  0  0
  1  4  1  0
  1  3  1  0
  2  4  1  0
  2 53  1  0
  4  7  1  0
  5  1  1  0
  5 14  1  0
  6  2  2  0
  8  5  1  0
 10  9  2  0
 11  9  1  0
 12 13  2  0
 12 14  1  0
 13 10  1  0
 14 11  2  0
 15 23  1  0
 16 21  1  0
 17 18  1  0
 17 16  1  0
 19 18  1  0
 19 28  1  0
 19 20  1  0
 21 15  1  0
 21 20  1  0
 22 15  2  0
 23 13  1  0
 24 23  1  0
 25 26  2  0
 26 45  1  0
 27 26  1  0
 27 30  1  0
 28 29  1  0
 28 25  1  0
 29 27  2  0
 30 31  1  0
 31 32  2  0
 33 36  1  0
 33 32  1  0
 34 33  2  0
 35 34  1  0
 35 30  2  0
 36 37  1  0
 37 38  1  0
 38 39  2  0
 40 39  1  0
 40 44  1  0
 41 40  2  0
 42 37  2  0
 42 41  1  0
 43 42  1  0
 45 46  1  0
 46 49  1  0
 46 48  1  0
 47 45  2  0
 50 51  1  0
 50 25  1  0
 52 50  1  0
 54 53  1  0
 55 66  2  0
 56 54  1  0
 56 61  1  0
 57 65  1  0
 57 67  1  0
 58 64  1  0
 58 60  1  0
 59 65  1  0
 60 59  1  0
 61 60  2  0
 62 63  1  0
 62 56  2  0
 63 58  2  0
 64 57  1  0
 65 55  1  0
 67 69  2  0
 68 67  1  0
 70 68  1  0
 71 80  2  0
 71 76  1  0
 72 68  1  0
 72 76  1  0
 73 72  1  0
 74 75  1  0
 74 73  1  0
 75 71  1  0
 76 77  2  0
 77 78  1  0
 79 78  2  0
 80 79  1  0
 81 55  1  0
 81 82  1  0
 81 91  1  0
 82 85  1  0
 83 87  1  0
 83 82  1  0
 84 83  2  0
 87 86  1  0
 89 87  1  0
 89 90  1  0
 89 88  1  0
 91 94  1  1
 91 92  1  0
 93 91  1  0
M  ISO  4  15 100  23 100  53 101  54 101
M  END
>  <TORSDO>  (37) 
F 18

>  <SCORE>  (37) 
-13.114

>  <name>  (37) 
36

>  <ligand_id>  (37) 
36

>  <original_smiles>  (37) 
[H]c1c([H])c(N([H])C(=O)N2C([H])([H])C([H])([H])C([H])([H])C([H])(n3nc(-c4c([H])c([H])c(Oc5c([H])c([H])c(F)c([H])c5F)c([H])c4[H])c(C(=O)N([H])[H])c3N([H])[H])C2([H])[H])c([H])c([N+]([H])=C(N([H])C(=O)C([H])([H])Oc2c([H])c([H])c3c(c2[H])C([H])([H])N(C(=O)C([H])(N([H])C(=O)C([H])(N([H])C([H])([H])[H])C([H])([H])[H])C(C([H])([H])[H])(C([H])([H])[H])C([H])([H])[H])C([H])(C(=O)N([H])C2([H])c4c([H])c([H])c([H])c([H])c4C([H])([H])C([H])([H])C2([H])[H])C3([H])[H])C([H])([H])[H])c1[H]

>  <smiles>  (37) 
[H]c1c([H])c(N([H])C(=O)N2C([H])([H])C([H])([H])C([H])([H])C([H])(n3nc(-c4c([H])c([H])c(Oc5c([H])c([H])c(F)c([H])c5F)c([H])c4[H])c(C(=O)N([H])[H])c3N([H])[H])C2([H])[H])c([H])c([N+]([H])=C(N([H])C(=O)C([H])([H])Oc2c([H])c([H])c3c(c2[H])C([H])([H])N(C(=O)C([H])(N([H])C(=O)C([H])(N([H])C([H])([H])[H])C([H])([H])[H])C(C([H])([H])[H])(C([H])([H])[H])C([H])([H])[H])C([H])(C(=O)N([H])C2([H])c4c([H])c([H])c([H])c([H])c4C([H])([H])C([H])([H])C2([H])[H])C3([H])[H])C([H])([H])[H])c1[H]

$$$$
37:0:0
     RDKit          3D

 96105  0  0  1  0  0  0  0  0999 V2000
  -29.5340  -21.8380   21.8360 C   0  0  0  0  0  3  0  0  0  0  0  0
  -29.3160  -23.1770   21.8440 C   0  0  0  0  0  0  0  0  0  0  0  0
  -29.5010  -22.4270   19.6370 C   0  0  0  0  0  2  0  0  0  0  0  0
  -29.4320  -23.7890   20.4440 C   0  0  0  0  0  3  0  0  0  0  0  0
  -29.7160  -21.2760   20.5770 N   0  0  0  0  0  0  0  0  0  0  0  0
  -30.2620  -19.7700   18.7530 C   0  0  0  0  0  3  0  0  0  0  0  0
  -30.1410  -18.6750   20.9040 C   0  0  0  0  0  3  0  0  0  0  0  0
  -30.7050  -17.3620   18.9060 C   0  0  0  0  0  0  0  0  0  0  0  0
  -30.5860  -18.5520   18.1430 C   0  0  0  0  0  0  0  0  0  0  0  0
  -30.0320  -19.9160   20.1340 C   0  0  0  0  0  0  0  0  0  0  0  0
  -30.4670  -17.3650   20.3170 C   0  0  0  0  0  0  0  0  0  0  0  0
  -30.7880  -18.5930   16.6270 C   0  0  0  0  0  1  0  0  0  0  0  0
  -31.1740  -14.8810   20.8550 C   0  0  0  0  0  0  0  0  0  0  0  0
  -31.0070  -12.5460   19.9550 C   0  0  0  0  0  2  0  0  0  0  0  0
  -30.1840  -12.5190   18.6460 C   0  0  0  0  0  2  0  0  0  0  0  0
  -28.6650  -12.4980   18.9160 C   0  0  0  0  0  2  0  0  0  0  0  0
  -28.2150  -13.4340   20.0750 C   0  0  0  0  0  3  0  0  0  0  0  0
  -29.1690  -13.3520   21.2840 C   0  0  0  0  0  2  0  0  0  0  0  0
  -30.5210  -13.6640   20.8010 N   0  0  0  0  0  0  0  0  0  0  0  0
  -32.3830  -14.9310   20.6090 O   0  0  0  0  0  0  0  0  0  0  0  0
  -30.4340  -16.0500   21.0440 N   0  0  0  0  0  0  0  0  0  0  0  0
  -29.5510  -15.8740   21.5010 H   0  0  0  0  0  0  0  0  0  0  0  0
  -25.7870  -14.0990   20.5670 C   0  0  0  0  0  0  0  0  0  0  0  0
  -24.6720  -13.3650   20.8680 C   0  0  0  0  0  0  0  0  0  0  0  0
  -25.0960  -12.0030   20.9130 C   0  0  0  0  0  0  0  0  0  0  0  0
  -26.8250  -13.1880   20.4540 N   0  0  0  0  0  0  0  0  0  0  0  0
  -26.4090  -11.9230   20.7290 N   0  0  0  0  0  0  0  0  0  0  0  0
  -24.3170  -10.7660   21.0660 C   0  0  0  0  0  0  0  0  0  0  0  0
  -24.6630   -9.7910   22.0270 C   0  0  0  0  0  3  0  0  0  0  0  0
  -23.8890   -8.6200   22.1720 C   0  0  0  0  0  3  0  0  0  0  0  0
  -22.7530   -8.4140   21.3540 C   0  0  0  0  0  0  0  0  0  0  0  0
  -22.4220   -9.3770   20.3860 C   0  0  0  0  0  3  0  0  0  0  0  0
  -23.1960  -10.5410   20.2400 C   0  0  0  0  0  3  0  0  0  0  0  0
  -21.9530   -7.2970   21.4070 O   0  0  0  0  0  0  0  0  0  0  0  0
  -21.8280   -6.5580   22.5550 C   0  0  0  0  0  0  0  0  0  0  0  0
  -21.3680   -7.1260   23.7620 C   0  0  0  0  0  3  0  0  0  0  0  0
  -21.1860   -6.3130   24.9000 C   0  0  0  0  0  3  0  0  0  0  0  0
  -21.4540   -4.9330   24.8300 C   0  0  0  0  0  0  0  0  0  0  0  0
  -21.9040   -4.3640   23.6240 C   0  0  0  0  0  3  0  0  0  0  0  0
  -22.0860   -5.1740   22.4900 C   0  0  0  0  0  0  0  0  0  0  0  0
  -22.5000   -4.6150   21.3280 F   0  0  0  0  0  0  0  0  0  0  0  0
  -21.2730   -4.1500   25.9180 F   0  0  0  0  0  0  0  0  0  0  0  0
  -23.2710  -13.8880   21.0040 C   0  0  0  0  0  0  0  0  0  0  0  0
  -22.4540  -13.2530   21.8380 N   0  0  0  0  0  0  0  0  0  0  0  0
  -22.9030  -14.8970   20.4050 O   0  0  0  0  0  0  0  0  0  0  0  0
  -22.7550  -12.4330   22.3460 H   0  0  0  0  0  0  0  0  0  0  0  0
  -21.5160  -13.5980   21.9770 H   0  0  0  0  0  0  0  0  0  0  0  0
  -26.0090  -15.4550   20.3490 N   0  0  0  0  0  0  0  0  0  0  0  0
  -25.2580  -16.1380   20.3200 H   0  0  0  0  0  0  0  0  0  0  0  0
  -26.8990  -15.8370   20.0520 H   0  0  0  0  0  0  0  0  0  0  0  0
  -32.2440  -15.8640   17.7050 C   0  0  0  0  0  2  0  0  0  0  0  0
  -31.0140  -16.1290   18.1780 C   0  0  0  0  0  3  0  0  0  0  0  0
  -30.1020  -23.9170   24.0570 C   0  0  0  0  0  2  0  0  0  0  0  0
  -29.1990  -23.9580   23.0630 C   0  0  0  0  0  3  0  0  0  0  0  0
  -28.3770  -24.9040   19.9110 C   0  0  0  0  0  2  0  0  0  0  0  0
  -28.5530  -26.3950   20.0090 O   0  0  0  0  0  0  0  0  0  0  0  0
  -24.5290  -31.6250   22.9830 C   0  0  0  0  0  0  0  0  0  0  0  0
  -27.4080  -27.2260   19.9150 C   0  0  0  0  0  0  0  0  0  0  0  0
  -23.4230  -30.2090   21.2930 C   0  0  0  0  0  3  0  0  0  0  0  0
  -24.9710  -28.7570   19.8640 C   0  0  0  0  0  0  0  0  0  0  0  0
  -25.9510  -30.6470   21.1610 C   0  0  0  0  0  2  0  0  0  0  0  0
  -26.1090  -29.2870   20.4840 C   0  0  0  0  0  0  0  0  0  0  0  0
  -27.3310  -28.5400   20.4880 C   0  0  0  0  0  3  0  0  0  0  0  0
  -26.2360  -26.7560   19.2750 C   0  0  0  0  0  3  0  0  0  0  0  0
  -25.0380  -27.4980   19.2500 C   0  0  0  0  0  3  0  0  0  0  0  0
  -23.6920  -29.5720   19.9040 C   0  0  0  0  0  2  0  0  0  0  0  0
  -24.6530  -30.8450   21.8690 N   0  0  0  0  0  0  0  0  0  0  0  0
  -23.4240  -31.8430   23.5020 O   0  0  0  0  0  0  0  0  0  0  0  0
  -22.7910  -29.1440   22.2190 C   0  0  0  0  0  0  0  0  0  0  0  0
  -21.4650  -28.9520   22.1100 N   0  0  0  0  0  0  0  0  0  0  0  0
  -23.4930  -28.4910   22.9950 O   0  0  0  0  0  0  0  0  0  0  0  0
  -20.9560  -29.5380   21.4630 H   0  0  0  0  0  0  0  0  0  0  0  0
  -18.1090  -27.7090   22.6440 C   0  0  0  0  0  0  0  0  0  0  0  0
  -20.6730  -27.9700   22.8500 C   0  0  0  0  0  3  0  0  0  0  0  0
  -20.7630  -26.5710   22.1960 C   0  0  0  0  0  2  0  0  0  0  0  0
  -19.6330  -26.2960   21.1980 C   0  0  0  0  0  2  0  0  0  0  0  0
  -18.2710  -26.3990   21.8900 C   0  0  0  0  0  2  0  0  0  0  0  0
  -19.2370  -28.4540   23.0790 C   0  0  0  0  0  0  0  0  0  0  0  0
  -19.0320  -29.6810   23.7460 C   0  0  0  0  0  3  0  0  0  0  0  0
  -17.7310  -30.1640   23.9820 C   0  0  0  0  0  3  0  0  0  0  0  0
  -16.6180  -29.4170   23.5610 C   0  0  0  0  0  3  0  0  0  0  0  0
  -16.8080  -28.1900   22.8980 C   0  0  0  0  0  3  0  0  0  0  0  0
  -25.7690  -32.3040   23.6450 C   0  0  0  0  0  3  0  0  0  0  0  0
  -26.3120  -31.5160   24.9000 C   0  0  1  0  0  0  0  0  0  0  0  0
  -25.2260  -31.1950   25.9520 C   0  0  0  0  0  1  0  0  0  0  0  0
  -26.9640  -30.1800   24.4720 C   0  0  0  0  0  1  0  0  0  0  0  0
  -27.4180  -32.3430   25.5990 C   0  0  0  0  0  1  0  0  0  0  0  0
  -25.3760  -33.6700   24.0250 N   0  0  0  0  0  0  0  0  0  0  0  0
  -25.6920  -34.7750   23.3350 C   0  0  0  0  0  0  0  0  0  0  0  0
  -26.4120  -34.7560   22.3340 O   0  0  0  0  0  0  0  0  0  0  0  0
  -24.7380  -33.7570   24.8010 H   0  0  0  0  0  0  0  0  0  0  0  0
  -23.8920  -36.5010   22.9910 C   0  0  0  0  0  1  0  0  0  0  0  0
  -25.1170  -36.1140   23.8350 C   0  0  0  0  0  3  0  0  0  0  0  0
  -27.1690  -37.0610   24.7990 C   0  0  0  0  0  1  0  0  0  0  0  0
  -26.0990  -37.2200   23.8180 N   0  0  0  0  0  0  0  0  0  0  0  0
  -25.6400  -38.1120   23.9900 H   0  0  0  0  0  0  0  0  0  0  0  0
  1  2  2  0
  2 54  1  0
  3  4  1  0
  3  5  1  0
  4 55  1  0
  4  2  1  0
  5  1  1  0
  6 10  1  0
  8 11  2  0
  9  6  2  0
  9  8  1  0
 10  5  1  0
 10  7  2  0
 11  7  1  0
 11 21  1  0
 12  9  1  0
 13 21  1  0
 14 19  1  0
 15 16  1  0
 15 14  1  0
 17 16  1  0
 17 26  1  0
 17 18  1  0
 19 13  1  0
 19 18  1  0
 20 13  2  0
 21 22  1  0
 23 24  2  0
 24 25  1  0
 24 43  1  0
 25 28  1  0
 26 23  1  0
 26 27  1  0
 27 25  2  0
 28 29  1  0
 29 30  2  0
 31 34  1  0
 31 30  1  0
 32 31  2  0
 33 32  1  0
 33 28  2  0
 34 35  1  0
 35 36  1  0
 36 37  2  0
 38 37  1  0
 38 42  1  0
 39 38  2  0
 40 35  2  0
 40 39  1  0
 41 40  1  0
 43 44  1  0
 44 47  1  0
 44 46  1  0
 45 43  2  0
 48 23  1  0
 49 48  1  0
 50 48  1  0
 51 52  2  0
 52  8  1  0
 54 53  2  0
 55 56  1  0
 57 68  2  0
 58 56  1  0
 58 63  1  0
 59 67  1  0
 59 69  1  0
 60 66  1  0
 60 62  1  0
 61 67  1  0
 62 63  2  0
 62 61  1  0
 64 58  2  0
 65 64  1  0
 65 60  2  0
 66 59  1  0
 67 57  1  0
 69 71  2  0
 70 69  1  0
 72 70  1  0
 73 82  2  0
 73 78  1  0
 74 70  1  0
 74 78  1  0
 75 74  1  0
 76 77  1  0
 76 75  1  0
 77 73  1  0
 78 79  2  0
 79 80  1  0
 81 80  2  0
 82 81  1  0
 83 57  1  0
 83 88  1  0
 83 84  1  0
 84 87  1  1
 84 85  1  0
 86 84  1  0
 88 91  1  0
 89 93  1  0
 89 88  1  0
 90 89  2  0
 93 92  1  0
 95 93  1  0
 95 96  1  0
 95 94  1  0
M  ISO  4  13 100  21 100  55 101  56 101
M  END
>  <TORSDO>  (38) 
F 20

>  <SCORE>  (38) 
-12.498

>  <name>  (38) 
37

>  <ligand_id>  (38) 
37

>  <original_smiles>  (38) 
[H]C([H])=C([H])C1=C([H])N(c2c([H])c(N([H])C(=O)N3C([H])([H])C([H])([H])C([H])([H])C([H])(n4nc(-c5c([H])c([H])c(Oc6c([H])c([H])c(F)c([H])c6F)c([H])c5[H])c(C(=O)N([H])[H])c4N([H])[H])C3([H])[H])c(C([H])=C([H])[H])c(C([H])([H])[H])c2[H])C([H])([H])C1([H])C([H])([H])Oc1c([H])c([H])c2c(c1[H])C([H])([H])N(C(=O)C([H])(N([H])C(=O)C([H])(N([H])C([H])([H])[H])C([H])([H])[H])C(C([H])([H])[H])(C([H])([H])[H])C([H])([H])[H])C([H])(C(=O)N([H])C1([H])c3c([H])c([H])c([H])c([H])c3C([H])([H])C([H])([H])C1([H])[H])C2([H])[H]

>  <smiles>  (38) 
[H]C([H])=C([H])C1=C([H])N(c2c([H])c(N([H])C(=O)N3C([H])([H])C([H])([H])C([H])([H])C([H])(n4nc(-c5c([H])c([H])c(Oc6c([H])c([H])c(F)c([H])c6F)c([H])c5[H])c(C(=O)N([H])[H])c4N([H])[H])C3([H])[H])c(C([H])=C([H])[H])c(C([H])([H])[H])c2[H])C([H])([H])C1([H])C([H])([H])Oc1c([H])c([H])c2c(c1[H])C([H])([H])N(C(=O)C([H])(N([H])C(=O)C([H])(N([H])C([H])([H])[H])C([H])([H])[H])C(C([H])([H])[H])(C([H])([H])[H])C([H])([H])[H])C([H])(C(=O)N([H])C1([H])c3c([H])c([H])c([H])c([H])c3C([H])([H])C([H])([H])C1([H])[H])C2([H])[H]

$$$$
38:0:0
     RDKit          3D

 97 92  0  0  1  0  0  0  0  0999 V2000
  -25.5960  -13.2500   19.0710 C   0  0  0  0  0 15  0  0  0  0  0  0
  -25.7010  -15.3760   19.5970 C   0  0  0  0  0 15  0  0  0  0  0  0
  -28.7970  -14.8060   21.5300 C   0  0  0  0  0 15  0  0  0  0  0  0
  -28.8200  -12.6080   21.0920 C   0  0  0  0  0  1  0  0  0  0  0  0
  -27.1070  -11.7650   19.6950 C   0  0  0  0  0  1  0  0  0  0  0  0
  -27.3590  -16.2590   20.6950 C   0  0  0  0  0 15  0  0  0  0  0  0
  -26.8490  -10.2760   19.3890 C   0  0  0  0  0  1  0  0  0  0  0  0
  -28.3200  -19.7280   20.0780 C   0  0  0  0  0  2  0  0  0  0  0  0
  -27.5730  -18.2320   20.5770 N   0  0  0  0  0  2  0  0  0  0  0  0
  -29.3640  -19.4420   19.4820 O   0  0  0  0  0  1  0  0  0  0  0  0
  -26.7460  -18.6100   21.0330 H   0  0  0  0  0  0  0  0  0  0  0  0
  -28.1930  -21.8850   20.0340 C   0  0  0  0  0 15  0  0  0  0  0  0
  -29.1190  -23.6970   19.7940 O   0  0  0  0  0  1  0  0  0  0  0  0
  -27.4490  -30.4770   23.9710 C   0  0  0  0  0  0  0  0  0  0  0  0
  -28.8360  -25.3460   20.0090 C   0  0  0  0  0  0  0  0  0  0  0  0
  -26.1470  -29.6040   22.1010 C   0  0  0  0  0  3  0  0  0  0  0  0
  -27.3440  -28.0820   20.3320 C   0  0  0  0  0  0  0  0  0  0  0  0
  -28.7060  -29.2350   22.0320 C   0  0  0  0  0  2  0  0  0  0  0  0
  -28.5130  -27.9350   21.0780 C   0  0  0  0  0  0  0  0  0  0  0  0
  -29.2640  -26.6030   20.8800 C   0  0  0  0  0  3  0  0  0  0  0  0
  -27.8420  -25.9050   19.1760 C   0  0  0  0  0  3  0  0  0  0  0  0
  -27.1120  -27.1220   19.3380 C   0  0  0  0  0  3  0  0  0  0  0  0
  -26.3440  -29.2230   20.6050 C   0  0  0  0  0  2  0  0  0  0  0  0
  -27.4750  -29.8140   22.7550 N   0  0  0  0  0  0  0  0  0  0  0  0
  -26.3800  -30.8110   24.5170 O   0  0  0  0  0  0  0  0  0  0  0  0
  -25.3000  -28.5320   22.8420 C   0  0  0  0  0  0  0  0  0  0  0  0
  -24.0090  -28.3760   22.4890 N   0  0  0  0  0  0  0  0  0  0  0  0
  -25.8170  -27.8500   23.7300 O   0  0  0  0  0  0  0  0  0  0  0  0
  -23.6350  -28.9780   21.7680 H   0  0  0  0  0  0  0  0  0  0  0  0
  -20.6470  -26.9980   22.2790 C   0  0  0  0  0  0  0  0  0  0  0  0
  -23.0960  -27.3610   23.0360 C   0  0  0  0  0  3  0  0  0  0  0  0
  -23.3780  -25.9740   22.4130 C   0  0  0  0  0  2  0  0  0  0  0  0
  -22.5060  -25.6730   21.1910 C   0  0  0  0  0  2  0  0  0  0  0  0
  -21.0240  -25.7110   21.5660 C   0  0  0  0  0  2  0  0  0  0  0  0
  -21.6210  -27.7810   22.9550 C   0  0  0  0  0  0  0  0  0  0  0  0
  -21.2170  -28.9830   23.5780 C   0  0  0  0  0  3  0  0  0  0  0  0
  -19.8730  -29.4010   23.5340 C   0  0  0  0  0  3  0  0  0  0  0  0
  -18.9130  -28.6170   22.8720 C   0  0  0  0  0  3  0  0  0  0  0  0
  -19.3000  -27.4160   22.2500 C   0  0  0  0  0  3  0  0  0  0  0  0
  -28.7470  -30.8680   24.7390 C   0  0  0  0  0  3  0  0  0  0  0  0
  -28.5000  -32.1420   25.4590 N   0  0  0  0  0  0  0  0  0  0  0  0
  -28.9350  -33.3540   25.0840 C   0  0  0  0  0  0  0  0  0  0  0  0
  -29.6350  -33.5200   24.0840 O   0  0  0  0  0  0  0  0  0  0  0  0
  -27.8750  -32.0870   26.2490 H   0  0  0  0  0  0  0  0  0  0  0  0
  -27.3880  -35.3420   25.2780 C   0  0  0  0  0  1  0  0  0  0  0  0
  -28.5390  -34.5740   25.9510 C   0  0  0  0  0  3  0  0  0  0  0  0
  -30.6690  -34.9580   27.1180 C   0  0  0  0  0  1  0  0  0  0  0  0
  -29.6610  -35.5070   26.2140 N   0  0  0  0  0  0  0  0  0  0  0  0
  -29.3190  -36.3780   26.6110 H   0  0  0  0  0  0  0  0  0  0  0  0
  -29.1980  -29.7680   25.7780 C   0  0  1  0  0  0  0  0  0  0  0  0
  -28.0790  -29.3380   26.7570 C   0  0  0  0  0  1  0  0  0  0  0  0
  -29.6920  -28.4860   25.0790 C   0  0  0  0  0  1  0  0  0  0  0  0
  -30.4010  -30.2930   26.5970 C   0  0  0  0  0  1  0  0  0  0  0  0
  -29.9730  -11.7620   21.6060 C   0  0  0  0  0  0  0  0  0  0  0  0
  -30.5780   -9.6220   22.5220 C   0  0  0  0  0  1  0  0  0  0  0  0
  -29.6260  -10.6130   22.0530 N   0  0  0  0  0  0  0  0  0  0  0  0
  -31.5160  -12.2540   21.5500 C   0  0  0  0  0  0  0  0  0  0  0  0
  -31.9730  -13.0240   19.0900 C   0  0  0  0  0  0  0  0  0  0  0  0
  -30.9090  -11.3470   17.6470 C   0  0  0  0  0  2  0  0  0  0  0  0
  -29.5670  -11.3960   16.8990 C   0  0  0  0  0  2  0  0  0  0  0  0
  -28.4480  -11.4200   17.9010 C   0  0  0  0  0  2  0  0  0  0  0  0
  -28.5160  -12.7450   18.6950 C   0  0  0  0  0  2  0  0  0  0  0  0
  -29.8950  -13.2040   18.9140 C   0  0  0  0  0  2  0  0  0  0  0  0
  -30.9500  -12.2590   18.7890 N   0  0  0  0  0  0  0  0  0  0  0  0
  -32.5750  -13.6750   18.2190 O   0  0  0  0  0  0  0  0  0  0  0  0
  -32.1300  -13.0840   20.4380 N   0  0  0  0  0  4  0  0  0  0  0  0
  -32.8680  -13.7110   20.7200 H   0  0  0  0  0  0  0  0  0  0  0  0
  -26.3720  -13.4110   21.3430 C   0  0  0  0  0  2  0  0  0  0  0  0
  -25.1840  -12.5830   21.7830 C   0  0  0  0  0  0  0  0  0  0  0  0
  -25.5820  -11.2960   21.6770 C   0  0  0  0  0  2  0  0  0  0  0  0
  -27.3400  -13.5530   20.1190 N   0  0  0  0  0  1  0  0  0  0  0  0
  -26.1510  -12.7050   21.4430 N   0  0  0  0  0  0  0  0  0  0  0  0
  -24.5310  -10.0890   21.2980 C   0  0  0  0  0  3  0  0  0  0  0  0
  -24.6490   -8.7890   21.9200 C   0  0  0  0  0  3  0  0  0  0  0  0
  -23.6690   -7.7390   21.8610 C   0  0  0  0  0  3  0  0  0  0  0  0
  -22.4580   -7.8930   21.1460 C   0  0  0  0  0  0  0  0  0  0  0  0
  -22.3530   -9.0960   20.4030 C   0  0  0  0  0  3  0  0  0  0  0  0
  -23.3510  -10.1310   20.4640 C   0  0  0  0  0  3  0  0  0  0  0  0
  -21.4300   -6.9440   21.0890 O   0  0  0  0  0  0  0  0  0  0  0  0
  -20.9800   -6.2110   22.1850 C   0  0  0  0  0  0  0  0  0  0  0  0
  -20.3910   -6.8320   23.3110 C   0  0  0  0  0  3  0  0  0  0  0  0
  -19.8990   -6.0620   24.3900 C   0  0  0  0  0  3  0  0  0  0  0  0
  -19.9970   -4.6570   24.3630 C   0  0  0  0  0  0  0  0  0  0  0  0
  -20.5530   -4.0230   23.2390 C   0  0  0  0  0  3  0  0  0  0  0  0
  -21.0280   -4.7930   22.1560 C   0  0  0  0  0  0  0  0  0  0  0  0
  -21.5380   -4.1540   21.0750 F   0  0  0  0  0  0  0  0  0  0  0  0
  -19.5460   -3.9170   25.4040 F   0  0  0  0  0  0  0  0  0  0  0  0
  -23.8620  -13.0050   22.4250 C   0  0  0  0  0  0  0  0  0  0  0  0
  -23.3070  -12.1640   23.2900 N   0  0  0  0  0  0  0  0  0  0  0  0
  -23.4040  -14.1080   22.1650 O   0  0  0  0  0  0  0  0  0  0  0  0
  -23.7190  -11.2660   23.4890 H   0  0  0  0  0  0  0  0  0  0  0  0
  -22.4480  -12.4150   23.7610 H   0  0  0  0  0  0  0  0  0  0  0  0
  -27.4460  -14.0040   20.0690 N   0  0  0  0  0  0  0  0  0  0  0  0
  -26.9110  -13.8430   19.2060 H   0  0  0  0  0  0  0  0  0  0  0  0
  -27.5600  -15.0000   20.1710 H   0  0  0  0  0  0  0  0  0  0  0  0
  -33.4930  -12.5780   23.2230 C   0  0  0  0  0  1  0  0  0  0  0  0
  -31.9910  -12.7670   22.9340 C   0  0  0  0  0  2  0  0  0  0  0  0
  4 54  1  0
  7  5  1  0
  8  9  1  0
  9 11  1  0
 10  8  1  0
 13 15  1  0
 14 25  2  0
 15 20  1  0
 16 24  1  0
 16 26  1  0
 17 23  1  0
 17 19  1  0
 18 24  1  0
 19 18  1  0
 20 19  2  0
 21 22  1  0
 21 15  2  0
 22 17  2  0
 23 16  1  0
 24 14  1  0
 26 28  2  0
 27 26  1  0
 29 27  1  0
 30 35  1  0
 31 27  1  0
 32 31  1  0
 33 34  1  0
 33 32  1  0
 34 30  1  0
 35 31  1  0
 35 36  2  0
 37 36  1  0
 38 37  2  0
 39 30  2  0
 39 38  1  0
 40 14  1  0
 40 41  1  0
 40 50  1  0
 41 44  1  0
 42 41  1  0
 42 46  1  0
 43 42  2  0
 46 45  1  0
 46 48  1  0
 48 49  1  0
 48 47  1  0
 50 53  1  1
 50 51  1  0
 52 50  1  0
 54 56  2  0
 56 55  1  0
 57 54  1  0
 57 97  1  0
 58 66  1  0
 59 64  1  0
 60 59  1  0
 60 61  1  0
 61 62  1  0
 62 63  1  0
 64 63  1  0
 64 58  1  0
 65 58  2  0
 66 67  1  0
 66 57  2  0
 68 72  2  0
 69 88  1  0
 70 69  2  0
 72 69  1  0
 73 74  1  0
 75 74  2  0
 76 75  1  0
 77 78  1  0
 77 76  2  0
 78 73  2  0
 79 76  1  0
 79 80  1  0
 80 81  1  0
 81 82  2  0
 83 82  1  0
 83 87  1  0
 84 83  2  0
 85 80  2  0
 85 84  1  0
 86 85  1  0
 88 89  1  0
 89 91  1  0
 89 92  1  0
 90 88  2  0
 93 71  1  0
 93 95  1  0
 94 93  1  0
 97 96  1  0
M  ISO  4  12 101  13 101  58 100  66 100
M  END
>  <TORSDO>  (39) 
F 21

>  <SCORE>  (39) 
-0.069

>  <name>  (39) 
38

>  <ligand_id>  (39) 
38

>  <original_smiles>  (39) 
[H]c1c([H])c([H])c2c(c1[H])C([H])([H])C([H])([H])C([H])([H])C2([H])N([H])C(=O)C1([H])N(C(=O)C([H])(N([H])C(=O)C([H])(N([H])C([H])([H])[H])C([H])([H])[H])C(C([H])([H])[H])(C([H])([H])[H])C([H])([H])[H])C([H])([H])c2c([H])c(OC([H])([H])C(=O)N([H])c3c([H])c([H])c(C([H])([H])[H])c(C(=NC([H])([H])[H])C([H])(N([H])C(=O)N4C([H])([H])C([H])([H])C([H])([H])C([H])(n5nc(-c6c([H])c([H])c(Oc7c([H])c([H])c(F)c([H])c7F)c([H])c6[H])c(C(=O)N([H])[H])c5N([H])[H])C4([H])[H])C([H])([H])C([H])([H])[H])c3[H])c([H])c([H])c2C1([H])[H]

>  <smiles>  (39) 
[H]c1c([H])c([H])c2c(c1[H])C([H])([H])C([H])([H])C([H])([H])C2([H])N([H])C(=O)C1([H])N(C(=O)C([H])(N([H])C(=O)C([H])(N([H])C([H])([H])[H])C([H])([H])[H])C(C([H])([H])[H])(C([H])([H])[H])C([H])([H])[H])C([H])([H])c2c([H])c(OC([H])([H])C(=O)N([H])c3c([H])c([H])c(C([H])([H])[H])c(C(=NC([H])([H])[H])C([H])(N([H])C(=O)N4C([H])([H])C([H])([H])C([H])([H])C([H])(n5nc(-c6c([H])c([H])c(Oc7c([H])c([H])c(F)c([H])c7F)c([H])c6[H])c(C(=O)N([H])[H])c5N([H])[H])C4([H])[H])C([H])([H])C([H])([H])[H])c3[H])c([H])c([H])c2C1([H])[H]

$$$$
39:0:0
     RDKit          3D

 95103  0  0  1  0  0  0  0  0999 V2000
  -29.2750  -23.3110   20.5270 C   0  0  0  0  0  0  0  0  0  0  0  0
  -28.9770  -21.8940   20.3500 N   0  0  0  0  0  0  0  0  0  0  0  0
  -30.4590  -23.5990   20.7210 O   0  0  0  0  0  0  0  0  0  0  0  0
  -28.0800  -21.7630   19.8950 H   0  0  0  0  0  0  0  0  0  0  0  0
  -29.6200  -19.1590   20.1230 C   0  0  0  0  0  3  0  0  0  0  0  0
  -30.9460  -18.0550   21.8200 C   0  0  0  0  0  3  0  0  0  0  0  0
  -30.2600  -20.4500   22.0700 C   0  0  0  0  0  0  0  0  0  0  0  0
  -30.2570  -17.8740   20.6010 C   0  0  0  0  0  0  0  0  0  0  0  0
  -29.6590  -20.5290   20.7750 C   0  0  0  0  0  0  0  0  0  0  0  0
  -30.9300  -19.2810   22.5290 C   0  0  0  0  0  0  0  0  0  0  0  0
  -30.0520  -21.5800   23.0830 C   0  0  0  0  0  1  0  0  0  0  0  0
  -31.5310  -19.3020   23.7450 F   0  0  0  0  0  0  0  0  0  0  0  0
  -30.8970  -15.1930   19.9930 C   0  0  0  0  0  0  0  0  0  0  0  0
  -30.7530  -12.8250   19.0090 C   0  0  0  0  0  2  0  0  0  0  0  0
  -29.7710  -12.7330   17.8100 C   0  0  0  0  0  2  0  0  0  0  0  0
  -28.3230  -12.5300   18.2920 C   0  0  0  0  0  2  0  0  0  0  0  0
  -27.9580  -13.4970   19.4450 C   0  0  0  0  0  3  0  0  0  0  0  0
  -29.0340  -13.5270   20.5470 C   0  0  0  0  0  2  0  0  0  0  0  0
  -30.2900  -13.9330   19.9060 N   0  0  0  0  0  0  0  0  0  0  0  0
  -32.1000  -15.2370   19.7060 O   0  0  0  0  0  0  0  0  0  0  0  0
  -30.0920  -16.3900   20.1390 N   0  0  0  0  0  0  0  0  0  0  0  0
  -29.1290  -16.1040   20.1560 H   0  0  0  0  0  0  0  0  0  0  0  0
  -25.6320  -14.1530   20.2670 C   0  0  0  0  0  0  0  0  0  0  0  0
  -24.5540  -13.4100   20.6690 C   0  0  0  0  0  0  0  0  0  0  0  0
  -24.9700  -12.0460   20.6150 C   0  0  0  0  0  0  0  0  0  0  0  0
  -26.6290  -13.2380   19.9780 N   0  0  0  0  0  0  0  0  0  0  0  0
  -26.2460  -11.9640   20.2550 N   0  0  0  0  0  0  0  0  0  0  0  0
  -24.2060  -10.8070   20.8170 C   0  0  0  0  0  0  0  0  0  0  0  0
  -24.6230   -9.8260   21.7410 C   0  0  0  0  0  3  0  0  0  0  0  0
  -23.8610   -8.6530   21.9360 C   0  0  0  0  0  3  0  0  0  0  0  0
  -22.6660   -8.4560   21.2020 C   0  0  0  0  0  0  0  0  0  0  0  0
  -22.2680   -9.4260   20.2640 C   0  0  0  0  0  3  0  0  0  0  0  0
  -23.0320  -10.5890   20.0710 C   0  0  0  0  0  3  0  0  0  0  0  0
  -21.8760   -7.3360   21.3040 O   0  0  0  0  0  0  0  0  0  0  0  0
  -21.8050   -6.6100   22.4660 C   0  0  0  0  0  0  0  0  0  0  0  0
  -21.4030   -7.1920   23.6880 C   0  0  0  0  0  3  0  0  0  0  0  0
  -21.2770   -6.3900   24.8410 C   0  0  0  0  0  3  0  0  0  0  0  0
  -21.5480   -5.0090   24.7730 C   0  0  0  0  0  0  0  0  0  0  0  0
  -21.9480   -4.4310   23.5570 C   0  0  0  0  0  3  0  0  0  0  0  0
  -22.0730   -5.2290   22.4070 C   0  0  0  0  0  0  0  0  0  0  0  0
  -22.4370   -4.6610   21.2330 F   0  0  0  0  0  0  0  0  0  0  0  0
  -21.4200   -4.2390   25.8780 F   0  0  0  0  0  0  0  0  0  0  0  0
  -23.1880  -13.9360   20.9960 C   0  0  0  0  0  0  0  0  0  0  0  0
  -22.4710  -13.2720   21.8970 N   0  0  0  0  0  0  0  0  0  0  0  0
  -22.7690  -14.9710   20.4840 O   0  0  0  0  0  0  0  0  0  0  0  0
  -22.8300  -12.4370   22.3310 H   0  0  0  0  0  0  0  0  0  0  0  0
  -21.5580  -13.6150   22.1610 H   0  0  0  0  0  0  0  0  0  0  0  0
  -25.8330  -15.5200   20.1040 N   0  0  0  0  0  0  0  0  0  0  0  0
  -25.0750  -16.1780   20.2450 H   0  0  0  0  0  0  0  0  0  0  0  0
  -26.6630  -15.9450   19.7140 H   0  0  0  0  0  0  0  0  0  0  0  0
  -28.1840  -24.6350   20.5790 C   0  0  0  0  0  3  0  0  0  0  0  0
  -28.2350  -25.8270   22.9530 C   0  0  0  0  0  1  0  0  0  0  0  0
  -26.1640  -24.5230   22.2060 C   0  0  0  0  0  1  0  0  0  0  0  0
  -27.6840  -24.6760   22.0750 C   0  0  0  0  0  3  0  0  0  0  0  0
  -28.5040  -26.1740   20.2360 O   0  0  0  0  0  0  0  0  0  0  0  0
  -24.6790  -31.8230   23.1760 C   0  0  0  0  0  0  0  0  0  0  0  0
  -27.4560  -27.1990   20.1310 C   0  0  0  0  0  0  0  0  0  0  0  0
  -23.5510  -30.4050   21.5040 C   0  0  0  0  0  3  0  0  0  0  0  0
  -25.0740  -28.9050   20.0600 C   0  0  0  0  0  0  0  0  0  0  0  0
  -26.0920  -30.7660   21.3640 C   0  0  0  0  0  2  0  0  0  0  0  0
  -26.2310  -29.3810   20.6970 C   0  0  0  0  0  0  0  0  0  0  0  0
  -27.4240  -28.5450   20.7030 C   0  0  0  0  0  3  0  0  0  0  0  0
  -26.2800  -26.8560   19.4270 C   0  0  0  0  0  3  0  0  0  0  0  0
  -25.1190  -27.6700   19.3980 C   0  0  0  0  0  3  0  0  0  0  0  0
  -23.8130  -29.7600   20.1160 C   0  0  0  0  0  2  0  0  0  0  0  0
  -24.7940  -31.0210   22.0720 N   0  0  0  0  0  0  0  0  0  0  0  0
  -23.5750  -32.0530   23.6980 O   0  0  0  0  0  0  0  0  0  0  0  0
  -22.9040  -29.3620   22.4470 C   0  0  0  0  0  0  0  0  0  0  0  0
  -21.5840  -29.1390   22.3110 N   0  0  0  0  0  0  0  0  0  0  0  0
  -23.5900  -28.7570   23.2740 O   0  0  0  0  0  0  0  0  0  0  0  0
  -21.0820  -29.6780   21.6200 H   0  0  0  0  0  0  0  0  0  0  0  0
  -18.2670  -27.7420   22.7260 C   0  0  0  0  0  0  0  0  0  0  0  0
  -20.8000  -28.1550   23.0590 C   0  0  0  0  0  3  0  0  0  0  0  0
  -21.0020  -26.7320   22.4890 C   0  0  0  0  0  2  0  0  0  0  0  0
  -19.9460  -26.3480   21.4450 C   0  0  0  0  0  2  0  0  0  0  0  0
  -18.5410  -26.4080   22.0490 C   0  0  0  0  0  2  0  0  0  0  0  0
  -19.3260  -28.5690   23.1840 C   0  0  0  0  0  0  0  0  0  0  0  0
  -19.0130  -29.8140   23.7760 C   0  0  0  0  0  3  0  0  0  0  0  0
  -17.6770  -30.2320   23.9090 C   0  0  0  0  0  3  0  0  0  0  0  0
  -16.6340  -29.4050   23.4610 C   0  0  0  0  0  3  0  0  0  0  0  0
  -16.9280  -28.1590   22.8760 C   0  0  0  0  0  3  0  0  0  0  0  0
  -25.9220  -32.5020   23.8260 C   0  0  0  0  0  3  0  0  0  0  0  0
  -26.4270  -31.7510   25.1200 C   0  0  1  0  0  0  0  0  0  0  0  0
  -25.3140  -31.4720   26.1600 C   0  0  0  0  0  1  0  0  0  0  0  0
  -27.0710  -30.3960   24.7490 C   0  0  0  0  0  1  0  0  0  0  0  0
  -27.5320  -32.5840   25.8130 C   0  0  0  0  0  1  0  0  0  0  0  0
  -25.5580  -33.8920   24.1540 N   0  0  0  0  0  0  0  0  0  0  0  0
  -25.9250  -34.9660   23.4400 C   0  0  0  0  0  0  0  0  0  0  0  0
  -26.6630  -34.8900   22.4570 O   0  0  0  0  0  0  0  0  0  0  0  0
  -24.9010  -34.0220   24.9090 H   0  0  0  0  0  0  0  0  0  0  0  0
  -24.1920  -36.7410   22.9980 C   0  0  0  0  0  1  0  0  0  0  0  0
  -25.3830  -36.3400   23.8840 C   0  0  0  0  0  3  0  0  0  0  0  0
  -27.4460  -37.2410   24.8670 C   0  0  0  0  0  1  0  0  0  0  0  0
  -26.4030  -37.4110   23.8580 N   0  0  0  0  0  0  0  0  0  0  0  0
  -25.9720  -38.3220   23.9970 H   0  0  0  0  0  0  0  0  0  0  0  0
  1 51  1  0
  1  3  2  0
  2  1  1  0
  2  9  1  0
  4  2  1  0
  5  8  2  0
  5  9  1  0
  6 10  2  0
  7 10  1  0
  7 11  1  0
  8  6  1  0
  9  7  2  0
 10 12  1  0
 13 21  1  0
 14 19  1  0
 15 16  1  0
 15 14  1  0
 17 16  1  0
 17 26  1  0
 17 18  1  0
 19 13  1  0
 19 18  1  0
 20 13  2  0
 21 22  1  0
 21  8  1  0
 23 24  2  0
 24 43  1  0
 25 24  1  0
 25 28  1  0
 26 27  1  0
 26 23  1  0
 27 25  2  0
 28 29  1  0
 29 30  2  0
 31 34  1  0
 31 30  1  0
 32 31  2  0
 33 32  1  0
 33 28  2  0
 34 35  1  0
 35 36  1  0
 36 37  2  0
 38 37  1  0
 38 42  1  0
 39 38  2  0
 40 35  2  0
 40 39  1  0
 41 40  1  0
 43 44  1  0
 44 47  1  0
 44 46  1  0
 45 43  2  0
 48 49  1  0
 48 23  1  0
 50 48  1  0
 51 55  1  0
 51 54  1  0
 54 53  1  0
 54 52  1  0
 56 67  2  0
 57 55  1  0
 57 62  1  0
 58 66  1  0
 58 68  1  0
 59 65  1  0
 59 61  1  0
 60 66  1  0
 61 62  2  0
 61 60  1  0
 63 57  2  0
 64 63  1  0
 64 59  2  0
 65 58  1  0
 66 56  1  0
 68 70  2  0
 69 68  1  0
 71 69  1  0
 72 81  2  0
 72 77  1  0
 73 69  1  0
 73 77  1  0
 74 73  1  0
 75 76  1  0
 75 74  1  0
 76 72  1  0
 77 78  2  0
 78 79  1  0
 80 79  2  0
 81 80  1  0
 82 56  1  0
 82 87  1  0
 82 83  1  0
 83 86  1  1
 83 84  1  0
 85 83  1  0
 87 90  1  0
 88 92  1  0
 88 87  1  0
 89 88  2  0
 92 91  1  0
 94 92  1  0
 94 95  1  0
 94 93  1  0
M  ISO  4  13 100  21 100  51 101  55 101
M  END
>  <TORSDO>  (40) 
F 19

>  <SCORE>  (40) 
-14.500

>  <name>  (40) 
39

>  <ligand_id>  (40) 
39

>  <original_smiles>  (40) 
[H]c1c([H])c([H])c2c(c1[H])C([H])([H])C([H])([H])C([H])([H])C2([H])N([H])C(=O)C1([H])N(C(=O)C([H])(N([H])C(=O)C([H])(N([H])C([H])([H])[H])C([H])([H])[H])C(C([H])([H])[H])(C([H])([H])[H])C([H])([H])[H])C([H])([H])c2c([H])c(OC([H])(C(=O)N([H])c3c([H])c(N([H])C(=O)N4C([H])([H])C([H])([H])C([H])([H])C([H])(n5nc(-c6c([H])c([H])c(Oc7c([H])c([H])c(F)c([H])c7F)c([H])c6[H])c(C(=O)N([H])[H])c5N([H])[H])C4([H])[H])c([H])c(F)c3C([H])([H])[H])C([H])(C([H])([H])[H])C([H])([H])[H])c([H])c([H])c2C1([H])[H]

>  <smiles>  (40) 
[H]c1c([H])c([H])c2c(c1[H])C([H])([H])C([H])([H])C([H])([H])C2([H])N([H])C(=O)C1([H])N(C(=O)C([H])(N([H])C(=O)C([H])(N([H])C([H])([H])[H])C([H])([H])[H])C(C([H])([H])[H])(C([H])([H])[H])C([H])([H])[H])C([H])([H])c2c([H])c(OC([H])(C(=O)N([H])c3c([H])c(N([H])C(=O)N4C([H])([H])C([H])([H])C([H])([H])C([H])(n5nc(-c6c([H])c([H])c(Oc7c([H])c([H])c(F)c([H])c7F)c([H])c6[H])c(C(=O)N([H])[H])c5N([H])[H])C4([H])[H])c([H])c(F)c3C([H])([H])[H])C([H])(C([H])([H])[H])C([H])([H])[H])c([H])c([H])c2C1([H])[H]

$$$$
40:0:0
     RDKit          3D

 94102  0  0  1  0  0  0  0  0999 V2000
  -31.2520  -17.5950   21.9640 C   0  0  0  0  0  3  0  0  0  0  0  0
  -31.5610  -18.8900   22.4320 C   0  0  0  0  0  3  0  0  0  0  0  0
  -29.5930  -18.5950   20.5080 C   0  0  0  0  0  3  0  0  0  0  0  0
  -29.9200  -19.9600   20.9270 C   0  0  0  0  0  0  0  0  0  0  0  0
  -30.2500  -17.3890   20.9920 C   0  0  0  0  0  0  0  0  0  0  0  0
  -30.9370  -20.0580   21.9290 C   0  0  0  0  0  0  0  0  0  0  0  0
  -30.6180  -14.8570   20.3820 C   0  0  0  0  0  0  0  0  0  0  0  0
  -30.3860  -12.6070   19.2830 C   0  0  0  0  0  2  0  0  0  0  0  0
  -29.4280  -12.6790   18.0730 C   0  0  0  0  0  2  0  0  0  0  0  0
  -27.9730  -12.4700   18.5250 C   0  0  0  0  0  2  0  0  0  0  0  0
  -27.6020  -13.3520   19.7470 C   0  0  0  0  0  3  0  0  0  0  0  0
  -28.6760  -13.2740   20.8580 C   0  0  0  0  0  2  0  0  0  0  0  0
  -29.9640  -13.6470   20.2540 N   0  0  0  0  0  0  0  0  0  0  0  0
  -31.8000  -14.9520   20.0390 O   0  0  0  0  0  0  0  0  0  0  0  0
  -29.8590  -15.9960   20.6410 N   0  0  0  0  0  0  0  0  0  0  0  0
  -28.8660  -15.8290   20.6450 H   0  0  0  0  0  0  0  0  0  0  0  0
  -25.2140  -13.9210   20.4810 C   0  0  0  0  0  0  0  0  0  0  0  0
  -24.1600  -13.1350   20.8620 C   0  0  0  0  0  0  0  0  0  0  0  0
  -24.6380  -11.7910   20.8390 C   0  0  0  0  0  0  0  0  0  0  0  0
  -26.2660  -13.0520   20.2500 N   0  0  0  0  0  0  0  0  0  0  0  0
  -25.9270  -11.7660   20.5240 N   0  0  0  0  0  0  0  0  0  0  0  0
  -23.9250  -10.5210   21.0380 C   0  0  0  0  0  0  0  0  0  0  0  0
  -24.3720   -9.5610   21.9710 C   0  0  0  0  0  3  0  0  0  0  0  0
  -23.6550   -8.3590   22.1580 C   0  0  0  0  0  3  0  0  0  0  0  0
  -22.4790   -8.1080   21.4120 C   0  0  0  0  0  0  0  0  0  0  0  0
  -22.0520   -9.0580   20.4680 C   0  0  0  0  0  3  0  0  0  0  0  0
  -22.7680  -10.2520   20.2790 C   0  0  0  0  0  3  0  0  0  0  0  0
  -21.7360   -6.9570   21.5060 O   0  0  0  0  0  0  0  0  0  0  0  0
  -21.7010   -6.2160   22.6590 C   0  0  0  0  0  0  0  0  0  0  0  0
  -21.2760   -6.7690   23.8880 C   0  0  0  0  0  3  0  0  0  0  0  0
  -21.1900   -5.9550   25.0350 C   0  0  0  0  0  3  0  0  0  0  0  0
  -21.5170   -4.5890   24.9530 C   0  0  0  0  0  0  0  0  0  0  0  0
  -21.9340   -4.0340   23.7310 C   0  0  0  0  0  3  0  0  0  0  0  0
  -22.0220   -4.8460   22.5860 C   0  0  0  0  0  0  0  0  0  0  0  0
  -22.4040   -4.3020   21.4050 F   0  0  0  0  0  0  0  0  0  0  0  0
  -21.4260   -3.8020   26.0520 F   0  0  0  0  0  0  0  0  0  0  0  0
  -22.7600  -13.6040   21.1370 C   0  0  0  0  0  0  0  0  0  0  0  0
  -22.0430  -12.9010   22.0090 N   0  0  0  0  0  0  0  0  0  0  0  0
  -22.3120  -14.6220   20.6140 O   0  0  0  0  0  0  0  0  0  0  0  0
  -22.4210  -12.0760   22.4500 H   0  0  0  0  0  0  0  0  0  0  0  0
  -21.1050  -13.1990   22.2390 H   0  0  0  0  0  0  0  0  0  0  0  0
  -25.3540  -15.2870   20.2780 N   0  0  0  0  0  0  0  0  0  0  0  0
  -24.5540  -15.9060   20.3320 H   0  0  0  0  0  0  0  0  0  0  0  0
  -26.1570  -15.7240   19.8430 H   0  0  0  0  0  0  0  0  0  0  0  0
  -29.2410  -21.2110   20.2510 C   0  0  0  0  0  0  0  0  0  0  0  0
  -29.2760  -22.4970   20.7790 N   0  0  0  0  0  0  0  0  0  0  0  0
  -28.6590  -21.0250   19.1820 O   0  0  0  0  0  0  0  0  0  0  0  0
  -29.7500  -22.5450   21.6730 H   0  0  0  0  0  0  0  0  0  0  0  0
  -29.0290  -23.8440   20.0710 C   0  0  0  0  0  3  0  0  0  0  0  0
  -28.2350  -25.0730   20.7720 C   0  0  0  0  0  3  0  0  0  0  0  0
  -28.3780  -26.4880   20.2620 O   0  0  0  0  0  0  0  0  0  0  0  0
  -24.6110  -31.9440   23.2430 C   0  0  0  0  0  0  0  0  0  0  0  0
  -27.2580  -27.3510   20.2350 C   0  0  0  0  0  0  0  0  0  0  0  0
  -23.4260  -30.5310   21.6020 C   0  0  0  0  0  3  0  0  0  0  0  0
  -24.8910  -28.9790   20.1870 C   0  0  0  0  0  0  0  0  0  0  0  0
  -25.9610  -30.8590   21.4260 C   0  0  0  0  0  2  0  0  0  0  0  0
  -26.0550  -29.4700   20.7900 C   0  0  0  0  0  0  0  0  0  0  0  0
  -27.2410  -28.6690   20.8010 C   0  0  0  0  0  3  0  0  0  0  0  0
  -26.0720  -26.9210   19.6020 C   0  0  0  0  0  3  0  0  0  0  0  0
  -24.9040  -27.7100   19.5820 C   0  0  0  0  0  3  0  0  0  0  0  0
  -23.6540  -29.8550   20.2230 C   0  0  0  0  0  2  0  0  0  0  0  0
  -24.6850  -31.1290   22.1500 N   0  0  0  0  0  0  0  0  0  0  0  0
  -23.5260  -32.2190   23.7750 O   0  0  0  0  0  0  0  0  0  0  0  0
  -22.7620  -29.5160   22.5630 C   0  0  0  0  0  0  0  0  0  0  0  0
  -21.4350  -29.3340   22.4390 N   0  0  0  0  0  0  0  0  0  0  0  0
  -23.4420  -28.8910   23.3830 O   0  0  0  0  0  0  0  0  0  0  0  0
  -20.9460  -29.8900   21.7500 H   0  0  0  0  0  0  0  0  0  0  0  0
  -18.0620  -28.1320   22.9480 C   0  0  0  0  0  0  0  0  0  0  0  0
  -20.6210  -28.3950   23.2120 C   0  0  0  0  0  3  0  0  0  0  0  0
  -20.7250  -26.9640   22.6360 C   0  0  0  0  0  2  0  0  0  0  0  0
  -19.6210  -26.6410   21.6240 C   0  0  0  0  0  2  0  0  0  0  0  0
  -18.2410  -26.7820   22.2710 C   0  0  0  0  0  2  0  0  0  0  0  0
  -19.1820  -28.8950   23.3750 C   0  0  0  0  0  0  0  0  0  0  0  0
  -18.9630  -30.1550   23.9700 C   0  0  0  0  0  3  0  0  0  0  0  0
  -17.6590  -30.6540   24.1440 C   0  0  0  0  0  3  0  0  0  0  0  0
  -16.5540  -29.8900   23.7340 C   0  0  0  0  0  3  0  0  0  0  0  0
  -16.7570  -28.6310   23.1400 C   0  0  0  0  0  3  0  0  0  0  0  0
  -25.8910  -32.5860   23.8630 C   0  0  0  0  0  3  0  0  0  0  0  0
  -26.4090  -31.8260   25.1460 C   0  0  1  0  0  0  0  0  0  0  0  0
  -25.3130  -31.5920   26.2130 C   0  0  0  0  0  1  0  0  0  0  0  0
  -27.0000  -30.4490   24.7640 C   0  0  0  0  0  1  0  0  0  0  0  0
  -27.5580  -32.6260   25.8050 C   0  0  0  0  0  1  0  0  0  0  0  0
  -25.5800  -33.9850   24.1840 N   0  0  0  0  0  0  0  0  0  0  0  0
  -25.9160  -35.0340   23.4230 C   0  0  0  0  0  0  0  0  0  0  0  0
  -26.5920  -34.9270   22.3950 O   0  0  0  0  0  0  0  0  0  0  0  0
  -24.9800  -34.1420   24.9800 H   0  0  0  0  0  0  0  0  0  0  0  0
  -24.1930  -36.8270   23.0400 C   0  0  0  0  0  1  0  0  0  0  0  0
  -25.4240  -36.4240   23.8710 C   0  0  0  0  0  3  0  0  0  0  0  0
  -27.5430  -37.3080   24.7310 C   0  0  0  0  0  1  0  0  0  0  0  0
  -26.4560  -37.4760   23.7690 N   0  0  0  0  0  0  0  0  0  0  0  0
  -26.0500  -38.3950   23.9200 H   0  0  0  0  0  0  0  0  0  0  0  0
  -31.3870  -21.2670   22.4760 N   0  0  0  0  0  0  0  0  0  0  0  0
  -32.0950  -21.1750   23.1980 H   0  0  0  0  0  0  0  0  0  0  0  0
  -31.6950  -21.9730   21.8160 H   0  0  0  0  0  0  0  0  0  0  0  0
  1  2  1  0
  3  4  2  0
  3  5  1  0
  4  6  1  0
  5  1  2  0
  6  2  2  0
  6 92  1  0
  7 15  1  0
  8 13  1  0
  9 10  1  0
  9  8  1  0
 11 10  1  0
 11 20  1  0
 11 12  1  0
 13  7  1  0
 13 12  1  0
 14  7  2  0
 15 16  1  0
 15  5  1  0
 17 18  2  0
 18 37  1  0
 19 18  1  0
 19 22  1  0
 20 17  1  0
 20 21  1  0
 21 19  2  0
 22 23  1  0
 23 24  2  0
 25 28  1  0
 25 24  1  0
 26 25  2  0
 27 26  1  0
 27 22  2  0
 28 29  1  0
 29 30  1  0
 30 31  2  0
 32 31  1  0
 32 36  1  0
 33 32  2  0
 34 29  2  0
 34 33  1  0
 35 34  1  0
 37 38  1  0
 38 41  1  0
 38 40  1  0
 39 37  2  0
 42 43  1  0
 42 17  1  0
 44 42  1  0
 45 46  1  0
 45  4  1  0
 46 48  1  0
 47 45  2  0
 49 50  2  0
 49 46  1  0
 51 50  1  0
 52 63  2  0
 53 51  1  0
 53 58  1  0
 54 62  1  0
 54 64  1  0
 55 61  1  0
 55 57  1  0
 56 62  1  0
 57 58  2  0
 57 56  1  0
 59 53  2  0
 60 59  1  0
 60 55  2  0
 61 54  1  0
 62 52  1  0
 64 66  2  0
 65 64  1  0
 67 65  1  0
 68 77  2  0
 68 73  1  0
 69 65  1  0
 69 73  1  0
 70 69  1  0
 71 72  1  0
 71 70  1  0
 72 68  1  0
 73 74  2  0
 74 75  1  0
 76 75  2  0
 77 76  1  0
 78 52  1  0
 78 83  1  0
 78 79  1  0
 79 82  1  1
 79 80  1  0
 81 79  1  0
 83 86  1  0
 84 88  1  0
 84 83  1  0
 85 84  2  0
 88 87  1  0
 90 88  1  0
 90 91  1  0
 90 89  1  0
 92 93  1  0
 94 92  1  0
M  ISO  4   7 100  15 100  50 101  51 101
M  END
>  <TORSDO>  (41) 
F 20

>  <SCORE>  (41) 
-14.182

>  <name>  (41) 
40

>  <ligand_id>  (41) 
40

>  <original_smiles>  (41) 
[H]c1c([H])c([H])c2c(c1[H])C([H])([H])C([H])([H])C([H])([H])C2([H])N([H])C(=O)C1([H])N(C(=O)C([H])(N([H])C(=O)C([H])(N([H])C([H])([H])[H])C([H])([H])[H])C(C([H])([H])[H])(C([H])([H])[H])C([H])([H])[H])C([H])([H])c2c([H])c(OC([H])([H])C([H])([H])N([H])C(=O)c3c([H])c(N([H])C(=O)N4C([H])([H])C([H])([H])C([H])([H])C([H])(n5nc(-c6c([H])c([H])c(Oc7c([H])c([H])c(F)c([H])c7F)c([H])c6[H])c(C(=O)N([H])[H])c5N([H])[H])C4([H])[H])c([H])c([H])c3N([H])[H])c([H])c([H])c2C1([H])[H]

>  <smiles>  (41) 
[H]c1c([H])c([H])c2c(c1[H])C([H])([H])C([H])([H])C([H])([H])C2([H])N([H])C(=O)C1([H])N(C(=O)C([H])(N([H])C(=O)C([H])(N([H])C([H])([H])[H])C([H])([H])[H])C(C([H])([H])[H])(C([H])([H])[H])C([H])([H])[H])C([H])([H])c2c([H])c(OC([H])([H])C([H])([H])N([H])C(=O)c3c([H])c(N([H])C(=O)N4C([H])([H])C([H])([H])C([H])([H])C([H])(n5nc(-c6c([H])c([H])c(Oc7c([H])c([H])c(F)c([H])c7F)c([H])c6[H])c(C(=O)N([H])[H])c5N([H])[H])C4([H])[H])c([H])c([H])c3N([H])[H])c([H])c([H])c2C1([H])[H]

$$$$
41:0:0
     RDKit          3D

 93101  0  0  1  0  0  0  0  0999 V2000
  -28.9990  -21.3710   20.3930 C   0  0  0  0  0  0  0  0  0  0  0  0
  -29.3730  -23.9790   20.5750 C   0  0  0  0  0  0  0  0  0  0  0  0
  -29.6060  -22.5990   20.6110 N   0  0  0  0  0  0  0  0  0  0  0  0
  -27.8230  -21.2790   20.0300 O   0  0  0  0  0  0  0  0  0  0  0  0
  -30.3490  -24.6580   20.9080 O   0  0  0  0  0  0  0  0  0  0  0  0
  -30.5600  -22.4260   20.9060 H   0  0  0  0  0  0  0  0  0  0  0  0
  -31.5520  -17.7390   21.1040 C   0  0  0  0  0  3  0  0  0  0  0  0
  -32.0200  -19.0520   21.2740 C   0  0  0  0  0  3  0  0  0  0  0  0
  -29.3970  -18.6610   20.4570 C   0  0  0  0  0  3  0  0  0  0  0  0
  -29.8540  -20.0530   20.6240 C   0  0  0  0  0  0  0  0  0  0  0  0
  -30.2330  -17.4670   20.6800 C   0  0  0  0  0  0  0  0  0  0  0  0
  -31.2080  -20.1760   21.0410 C   0  0  0  0  0  0  0  0  0  0  0  0
  -31.7760  -21.3920   21.2400 F   0  0  0  0  0  0  0  0  0  0  0  0
  -30.5730  -14.8510   20.3740 C   0  0  0  0  0  0  0  0  0  0  0  0
  -30.3740  -12.5580   19.3720 C   0  0  0  0  0  2  0  0  0  0  0  0
  -29.4280  -12.5910   18.1520 C   0  0  0  0  0  2  0  0  0  0  0  0
  -27.9640  -12.4020   18.5970 C   0  0  0  0  0  2  0  0  0  0  0  0
  -27.5880  -13.3020   19.8040 C   0  0  0  0  0  3  0  0  0  0  0  0
  -28.6550  -13.2560   20.9180 C   0  0  0  0  0  2  0  0  0  0  0  0
  -29.9350  -13.6270   20.3040 N   0  0  0  0  0  0  0  0  0  0  0  0
  -31.7650  -14.9030   20.0570 O   0  0  0  0  0  0  0  0  0  0  0  0
  -29.8200  -16.0240   20.5570 N   0  0  0  0  0  0  0  0  0  0  0  0
  -28.8270  -15.8570   20.6200 H   0  0  0  0  0  0  0  0  0  0  0  0
  -25.2090  -13.8770   20.5640 C   0  0  0  0  0  0  0  0  0  0  0  0
  -24.1490  -13.0980   20.9380 C   0  0  0  0  0  0  0  0  0  0  0  0
  -24.6160  -11.7480   20.8920 C   0  0  0  0  0  0  0  0  0  0  0  0
  -26.2520  -13.0030   20.3090 N   0  0  0  0  0  0  0  0  0  0  0  0
  -25.9040  -11.7160   20.5720 N   0  0  0  0  0  0  0  0  0  0  0  0
  -23.8940  -10.4820   21.0770 C   0  0  0  0  0  0  0  0  0  0  0  0
  -24.3350   -9.5060   21.9970 C   0  0  0  0  0  3  0  0  0  0  0  0
  -23.6120   -8.3070   22.1710 C   0  0  0  0  0  3  0  0  0  0  0  0
  -22.4330   -8.0740   21.4240 C   0  0  0  0  0  0  0  0  0  0  0  0
  -22.0100   -9.0380   20.4920 C   0  0  0  0  0  3  0  0  0  0  0  0
  -22.7340  -10.2300   20.3160 C   0  0  0  0  0  3  0  0  0  0  0  0
  -21.6800   -6.9270   21.5090 O   0  0  0  0  0  0  0  0  0  0  0  0
  -21.6410   -6.1750   22.6540 C   0  0  0  0  0  0  0  0  0  0  0  0
  -21.2040   -6.7140   23.8850 C   0  0  0  0  0  3  0  0  0  0  0  0
  -21.1130   -5.8870   25.0230 C   0  0  0  0  0  3  0  0  0  0  0  0
  -21.4490   -4.5230   24.9320 C   0  0  0  0  0  0  0  0  0  0  0  0
  -21.8780   -3.9840   23.7070 C   0  0  0  0  0  3  0  0  0  0  0  0
  -21.9720   -4.8080   22.5710 C   0  0  0  0  0  0  0  0  0  0  0  0
  -22.3650   -4.2780   21.3880 F   0  0  0  0  0  0  0  0  0  0  0  0
  -21.3540   -3.7270   26.0220 F   0  0  0  0  0  0  0  0  0  0  0  0
  -22.7530  -13.5690   21.2220 C   0  0  0  0  0  0  0  0  0  0  0  0
  -22.0350  -12.8670   22.0920 N   0  0  0  0  0  0  0  0  0  0  0  0
  -22.3080  -14.5960   20.7100 O   0  0  0  0  0  0  0  0  0  0  0  0
  -22.4070  -12.0380   22.5290 H   0  0  0  0  0  0  0  0  0  0  0  0
  -21.0970  -13.1630   22.3230 H   0  0  0  0  0  0  0  0  0  0  0  0
  -25.3670  -15.2500   20.3930 N   0  0  0  0  0  0  0  0  0  0  0  0
  -24.5950  -15.8980   20.5120 H   0  0  0  0  0  0  0  0  0  0  0  0
  -26.1960  -15.6900   20.0160 H   0  0  0  0  0  0  0  0  0  0  0  0
  -28.0920  -24.8660   20.1870 C   0  0  0  0  0  2  0  0  0  0  0  0
  -28.2970  -26.3770   20.2950 O   0  0  0  0  0  0  0  0  0  0  0  0
  -24.6330  -31.9360   23.2550 C   0  0  0  0  0  0  0  0  0  0  0  0
  -27.2050  -27.2830   20.2290 C   0  0  0  0  0  0  0  0  0  0  0  0
  -23.4250  -30.5450   21.6140 C   0  0  0  0  0  3  0  0  0  0  0  0
  -24.8670  -28.9690   20.1950 C   0  0  0  0  0  0  0  0  0  0  0  0
  -25.9730  -30.8230   21.4430 C   0  0  0  0  0  2  0  0  0  0  0  0
  -26.0420  -29.4370   20.7960 C   0  0  0  0  0  0  0  0  0  0  0  0
  -27.2150  -28.6090   20.7950 C   0  0  0  0  0  3  0  0  0  0  0  0
  -26.0050  -26.8880   19.6000 C   0  0  0  0  0  3  0  0  0  0  0  0
  -24.8560  -27.7070   19.5830 C   0  0  0  0  0  3  0  0  0  0  0  0
  -23.6410  -29.8620   20.2360 C   0  0  0  0  0  2  0  0  0  0  0  0
  -24.6960  -31.1220   22.1600 N   0  0  0  0  0  0  0  0  0  0  0  0
  -23.5500  -32.2250   23.7840 O   0  0  0  0  0  0  0  0  0  0  0  0
  -22.7470  -29.5390   22.5760 C   0  0  0  0  0  0  0  0  0  0  0  0
  -21.4180  -29.3760   22.4470 N   0  0  0  0  0  0  0  0  0  0  0  0
  -23.4150  -28.9080   23.3970 O   0  0  0  0  0  0  0  0  0  0  0  0
  -20.9380  -29.9350   21.7550 H   0  0  0  0  0  0  0  0  0  0  0  0
  -18.0260  -28.2180   22.9560 C   0  0  0  0  0  0  0  0  0  0  0  0
  -20.5890  -28.4470   23.2180 C   0  0  0  0  0  3  0  0  0  0  0  0
  -20.6710  -27.0160   22.6380 C   0  0  0  0  0  2  0  0  0  0  0  0
  -19.5630  -26.7100   21.6260 C   0  0  0  0  0  2  0  0  0  0  0  0
  -18.1850  -26.8690   22.2750 C   0  0  0  0  0  2  0  0  0  0  0  0
  -19.1560  -28.9660   23.3850 C   0  0  0  0  0  0  0  0  0  0  0  0
  -18.9530  -30.2290   23.9840 C   0  0  0  0  0  3  0  0  0  0  0  0
  -17.6550  -30.7430   24.1560 C   0  0  0  0  0  3  0  0  0  0  0  0
  -16.5400  -29.9940   23.7410 C   0  0  0  0  0  3  0  0  0  0  0  0
  -16.7270  -28.7330   23.1480 C   0  0  0  0  0  3  0  0  0  0  0  0
  -25.9160  -32.5620   23.8830 C   0  0  0  0  0  3  0  0  0  0  0  0
  -25.6120  -33.9610   24.2190 N   0  0  0  0  0  0  0  0  0  0  0  0
  -25.9270  -35.0160   23.4540 C   0  0  0  0  0  0  0  0  0  0  0  0
  -26.5730  -34.9120   22.4080 O   0  0  0  0  0  0  0  0  0  0  0  0
  -25.0340  -34.1140   25.0320 H   0  0  0  0  0  0  0  0  0  0  0  0
  -24.1800  -36.8030   23.1550 C   0  0  0  0  0  1  0  0  0  0  0  0
  -25.4510  -36.4040   23.9240 C   0  0  0  0  0  3  0  0  0  0  0  0
  -27.6080  -37.3040   24.6790 C   0  0  0  0  0  1  0  0  0  0  0  0
  -26.4760  -37.4600   23.7690 N   0  0  0  0  0  0  0  0  0  0  0  0
  -26.0720  -38.3800   23.9240 H   0  0  0  0  0  0  0  0  0  0  0  0
  -26.4240  -31.7870   25.1610 C   0  0  1  0  0  0  0  0  0  0  0  0
  -25.3260  -31.5530   26.2250 C   0  0  0  0  0  1  0  0  0  0  0  0
  -27.0000  -30.4060   24.7710 C   0  0  0  0  0  1  0  0  0  0  0  0
  -27.5760  -32.5740   25.8290 C   0  0  0  0  0  1  0  0  0  0  0  0
  1  3  1  0
  1 10  1  0
  2  3  1  0
  2  5  2  0
  3  6  1  0
  4  1  2  0
  7  8  1  0
  9 10  2  0
  9 11  1  0
 10 12  1  0
 11  7  2  0
 12 13  1  0
 12  8  2  0
 14 22  1  0
 15 20  1  0
 16 17  1  0
 16 15  1  0
 18 17  1  0
 18 27  1  0
 18 19  1  0
 20 14  1  0
 20 19  1  0
 21 14  2  0
 22 23  1  0
 22 11  1  0
 24 25  2  0
 25 44  1  0
 26 25  1  0
 26 29  1  0
 27 24  1  0
 27 28  1  0
 28 26  2  0
 29 30  1  0
 30 31  2  0
 32 35  1  0
 32 31  1  0
 33 32  2  0
 34 33  1  0
 34 29  2  0
 35 36  1  0
 36 37  1  0
 37 38  2  0
 39 38  1  0
 39 43  1  0
 40 39  2  0
 41 36  2  0
 41 40  1  0
 42 41  1  0
 44 45  1  0
 45 48  1  0
 45 47  1  0
 46 44  2  0
 49 50  1  0
 49 24  1  0
 51 49  1  0
 52 53  1  0
 52  2  1  0
 54 65  2  0
 55 53  1  0
 55 60  1  0
 56 64  1  0
 56 66  1  0
 57 63  1  0
 57 59  1  0
 58 64  1  0
 59 58  1  0
 60 59  2  0
 61 55  2  0
 62 61  1  0
 62 57  2  0
 63 56  1  0
 64 54  1  0
 66 68  2  0
 67 66  1  0
 69 67  1  0
 70 79  2  0
 70 75  1  0
 71 67  1  0
 71 75  1  0
 72 71  1  0
 73 74  1  0
 73 72  1  0
 74 70  1  0
 75 76  2  0
 76 77  1  0
 78 77  2  0
 79 78  1  0
 80 54  1  0
 80 81  1  0
 80 90  1  0
 81 84  1  0
 82 86  1  0
 82 81  1  0
 83 82  2  0
 86 85  1  0
 88 89  1  0
 88 86  1  0
 88 87  1  0
 90 93  1  1
 90 91  1  0
 92 90  1  0
M  ISO  4  14 100  22 100  52 101  53 101
M  END
>  <TORSDO>  (42) 
F 18

>  <SCORE>  (42) 
-15.010

>  <name>  (42) 
41

>  <ligand_id>  (42) 
41

>  <original_smiles>  (42) 
[H]c1c([H])c([H])c2c(c1[H])C([H])([H])C([H])([H])C([H])([H])C2([H])N([H])C(=O)C1([H])N(C(=O)C([H])(N([H])C(=O)C([H])(N([H])C([H])([H])[H])C([H])([H])[H])C(C([H])([H])[H])(C([H])([H])[H])C([H])([H])[H])C([H])([H])c2c([H])c(OC([H])([H])C(=O)N([H])C(=O)c3c([H])c(N([H])C(=O)N4C([H])([H])C([H])([H])C([H])([H])C([H])(n5nc(-c6c([H])c([H])c(Oc7c([H])c([H])c(F)c([H])c7F)c([H])c6[H])c(C(=O)N([H])[H])c5N([H])[H])C4([H])[H])c([H])c([H])c3F)c([H])c([H])c2C1([H])[H]

>  <smiles>  (42) 
[H]c1c([H])c([H])c2c(c1[H])C([H])([H])C([H])([H])C([H])([H])C2([H])N([H])C(=O)C1([H])N(C(=O)C([H])(N([H])C(=O)C([H])(N([H])C([H])([H])[H])C([H])([H])[H])C(C([H])([H])[H])(C([H])([H])[H])C([H])([H])[H])C([H])([H])c2c([H])c(OC([H])([H])C(=O)N([H])C(=O)c3c([H])c(N([H])C(=O)N4C([H])([H])C([H])([H])C([H])([H])C([H])(n5nc(-c6c([H])c([H])c(Oc7c([H])c([H])c(F)c([H])c7F)c([H])c6[H])c(C(=O)N([H])[H])c5N([H])[H])C4([H])[H])c([H])c([H])c3F)c([H])c([H])c2C1([H])[H]

$$$$
42:0:0
     RDKit          3D

 96104  0  0  1  0  0  0  0  0999 V2000
  -29.8860  -20.0180   21.6620 C   0  0  0  0  0  3  0  0  0  0  0  0
  -30.2820  -17.5920   21.7540 C   0  0  0  0  0  3  0  0  0  0  0  0
  -29.2060  -18.5960   19.8130 C   0  0  0  0  0  3  0  0  0  0  0  0
  -30.3620  -18.8700   22.3460 C   0  0  0  0  0  0  0  0  0  0  0  0
  -29.3030  -19.9360   20.3770 C   0  0  0  0  0  0  0  0  0  0  0  0
  -29.6900  -17.3960   20.4900 C   0  0  0  0  0  0  0  0  0  0  0  0
  -30.3490  -14.9190   19.9420 C   0  0  0  0  0  0  0  0  0  0  0  0
  -30.2260  -12.6200   18.9500 C   0  0  0  0  0  2  0  0  0  0  0  0
  -29.2040  -12.6060   17.7930 C   0  0  0  0  0  2  0  0  0  0  0  0
  -27.7780  -12.3520   18.3240 C   0  0  0  0  0  2  0  0  0  0  0  0
  -27.4280  -13.2410   19.5470 C   0  0  0  0  0  3  0  0  0  0  0  0
  -28.5620  -13.2430   20.5940 C   0  0  0  0  0  2  0  0  0  0  0  0
  -29.7870  -13.6640   19.9000 N   0  0  0  0  0  0  0  0  0  0  0  0
  -31.5250  -15.0830   19.6060 O   0  0  0  0  0  0  0  0  0  0  0  0
  -29.4830  -15.9990   20.0430 N   0  0  0  0  0  0  0  0  0  0  0  0
  -28.5170  -15.7410   19.9340 H   0  0  0  0  0  0  0  0  0  0  0  0
  -25.0920  -13.7140   20.4970 C   0  0  0  0  0  0  0  0  0  0  0  0
  -24.0850  -12.8870   20.9150 C   0  0  0  0  0  0  0  0  0  0  0  0
  -24.5880  -11.5560   20.7850 C   0  0  0  0  0  0  0  0  0  0  0  0
  -26.1410  -12.8840   20.1340 N   0  0  0  0  0  0  0  0  0  0  0  0
  -25.8480  -11.5790   20.3700 N   0  0  0  0  0  0  0  0  0  0  0  0
  -23.9190  -10.2620   20.9720 C   0  0  0  0  0  0  0  0  0  0  0  0
  -24.3540   -9.3390   21.9490 C   0  0  0  0  0  3  0  0  0  0  0  0
  -23.6820   -8.1100   22.1230 C   0  0  0  0  0  3  0  0  0  0  0  0
  -22.5620   -7.7930   21.3180 C   0  0  0  0  0  0  0  0  0  0  0  0
  -22.1470   -8.7050   20.3320 C   0  0  0  0  0  3  0  0  0  0  0  0
  -22.8210   -9.9260   20.1550 C   0  0  0  0  0  3  0  0  0  0  0  0
  -21.8650   -6.6130   21.3980 O   0  0  0  0  0  0  0  0  0  0  0  0
  -21.6770   -5.9670   22.5940 C   0  0  0  0  0  0  0  0  0  0  0  0
  -20.9970   -6.5760   23.6700 C   0  0  0  0  0  3  0  0  0  0  0  0
  -20.7640   -5.8530   24.8570 C   0  0  0  0  0  3  0  0  0  0  0  0
  -21.2010   -4.5190   24.9660 C   0  0  0  0  0  0  0  0  0  0  0  0
  -21.8740   -3.9080   23.8940 C   0  0  0  0  0  3  0  0  0  0  0  0
  -22.1070   -4.6290   22.7100 C   0  0  0  0  0  0  0  0  0  0  0  0
  -22.7380   -4.0300   21.6710 F   0  0  0  0  0  0  0  0  0  0  0  0
  -20.9720   -3.8210   26.1030 F   0  0  0  0  0  0  0  0  0  0  0  0
  -22.7000  -13.3020   21.3190 C   0  0  0  0  0  0  0  0  0  0  0  0
  -22.0660  -12.5460   22.2090 N   0  0  0  0  0  0  0  0  0  0  0  0
  -22.1880  -14.3320   20.8820 O   0  0  0  0  0  0  0  0  0  0  0  0
  -22.4940  -11.7130   22.5870 H   0  0  0  0  0  0  0  0  0  0  0  0
  -21.1400  -12.8050   22.5200 H   0  0  0  0  0  0  0  0  0  0  0  0
  -25.1910  -15.0970   20.3710 N   0  0  0  0  0  0  0  0  0  0  0  0
  -24.4070  -15.7070   20.5720 H   0  0  0  0  0  0  0  0  0  0  0  0
  -25.9790  -15.5900   19.9750 H   0  0  0  0  0  0  0  0  0  0  0  0
  -30.9900  -18.9990   23.7010 C   0  0  0  0  0  0  0  0  0  0  0  0
  -30.5490  -19.9920   24.4590 N   0  0  0  0  0  0  0  0  0  0  0  0
  -31.8230  -18.1900   24.1090 O   0  0  0  0  0  0  0  0  0  0  0  0
  -29.8230  -20.6010   24.1130 H   0  0  0  0  0  0  0  0  0  0  0  0
  -30.9120  -20.1220   25.3920 H   0  0  0  0  0  0  0  0  0  0  0  0
  -28.4230  -22.4000   20.1790 C   0  0  0  0  0  0  0  0  0  0  0  0
  -28.9300  -21.2020   19.6800 N   0  0  0  0  0  0  0  0  0  0  0  0
  -27.9100  -22.4310   21.3010 O   0  0  0  0  0  0  0  0  0  0  0  0
  -29.1630  -21.2290   18.6960 H   0  0  0  0  0  0  0  0  0  0  0  0
  -28.4490  -23.7760   19.3490 C   0  0  0  0  0  3  0  0  0  0  0  0
  -27.5990  -25.0680   19.8480 C   0  0  0  0  0  3  0  0  0  0  0  0
  -27.7300  -26.4320   19.2170 O   0  0  0  0  0  0  0  0  0  0  0  0
  -24.6120  -31.7320   23.0850 C   0  0  0  0  0  0  0  0  0  0  0  0
  -26.6800  -27.3600   19.3820 C   0  0  0  0  0  0  0  0  0  0  0  0
  -23.1900  -30.5530   21.4480 C   0  0  0  0  0  3  0  0  0  0  0  0
  -24.4180  -29.0890   19.7430 C   0  0  0  0  0  0  0  0  0  0  0  0
  -25.7140  -30.7780   21.0410 C   0  0  0  0  0  2  0  0  0  0  0  0
  -25.6620  -29.4640   20.2640 C   0  0  0  0  0  0  0  0  0  0  0  0
  -26.7980  -28.6150   20.0670 C   0  0  0  0  0  3  0  0  0  0  0  0
  -25.4160  -27.0550   18.8340 C   0  0  0  0  0  3  0  0  0  0  0  0
  -24.2970  -27.8930   19.0160 C   0  0  0  0  0  3  0  0  0  0  0  0
  -23.2370  -30.0060   19.9960 C   0  0  0  0  0  2  0  0  0  0  0  0
  -24.5310  -31.0320   21.9130 N   0  0  0  0  0  0  0  0  0  0  0  0
  -23.6000  -31.9990   23.7490 O   0  0  0  0  0  0  0  0  0  0  0  0
  -22.5700  -29.4750   22.3700 C   0  0  0  0  0  0  0  0  0  0  0  0
  -21.2390  -29.3060   22.2980 N   0  0  0  0  0  0  0  0  0  0  0  0
  -23.2860  -28.7970   23.1140 O   0  0  0  0  0  0  0  0  0  0  0  0
  -20.7180  -29.9050   21.6730 H   0  0  0  0  0  0  0  0  0  0  0  0
  -17.8930  -28.0460   22.8570 C   0  0  0  0  0  0  0  0  0  0  0  0
  -20.4580  -28.3160   23.0450 C   0  0  0  0  0  3  0  0  0  0  0  0
  -20.5500  -26.9210   22.3860 C   0  0  0  0  0  2  0  0  0  0  0  0
  -19.4130  -26.6460   21.3970 C   0  0  0  0  0  2  0  0  0  0  0  0
  -18.0560  -26.7390   22.0990 C   0  0  0  0  0  2  0  0  0  0  0  0
  -19.0200  -28.7940   23.2880 C   0  0  0  0  0  0  0  0  0  0  0  0
  -18.8130  -30.0180   23.9600 C   0  0  0  0  0  3  0  0  0  0  0  0
  -17.5100  -30.4930   24.2050 C   0  0  0  0  0  3  0  0  0  0  0  0
  -16.3990  -29.7420   23.7880 C   0  0  0  0  0  3  0  0  0  0  0  0
  -16.5910  -28.5190   23.1220 C   0  0  0  0  0  3  0  0  0  0  0  0
  -25.9780  -32.2480   23.6330 C   0  0  0  0  0  3  0  0  0  0  0  0
  -26.5500  -31.3650   24.8110 C   0  0  1  0  0  0  0  0  0  0  0  0
  -25.5300  -31.1040   25.9440 C   0  0  0  0  0  1  0  0  0  0  0  0
  -27.0280  -29.9920   24.2830 C   0  0  0  0  0  1  0  0  0  0  0  0
  -27.7870  -32.0560   25.4300 C   0  0  0  0  0  1  0  0  0  0  0  0
  -25.7840  -33.6360   24.0790 N   0  0  0  0  0  0  0  0  0  0  0  0
  -26.1100  -34.7190   23.3610 C   0  0  0  0  0  0  0  0  0  0  0  0
  -26.6760  -34.6500   22.2660 O   0  0  0  0  0  0  0  0  0  0  0  0
  -25.2780  -33.7670   24.9430 H   0  0  0  0  0  0  0  0  0  0  0  0
  -24.4750  -36.6290   23.2760 C   0  0  0  0  0  1  0  0  0  0  0  0
  -25.7510  -36.0980   23.9490 C   0  0  0  0  0  3  0  0  0  0  0  0
  -27.9950  -36.8030   24.6560 C   0  0  0  0  0  1  0  0  0  0  0  0
  -26.8370  -37.0940   23.8160 N   0  0  0  0  0  0  0  0  0  0  0  0
  -26.5020  -38.0260   24.0480 H   0  0  0  0  0  0  0  0  0  0  0  0
  1  4  1  0
  2  4  2  0
  3  5  1  0
  3  6  2  0
  4 45  1  0
  5  1  2  0
  6  2  1  0
  7 15  1  0
  8 13  1  0
  9 10  1  0
  9  8  1  0
 11 10  1  0
 11 20  1  0
 11 12  1  0
 13  7  1  0
 13 12  1  0
 14  7  2  0
 15  6  1  0
 16 15  1  0
 17 18  2  0
 18 37  1  0
 19 18  1  0
 19 22  1  0
 20 21  1  0
 20 17  1  0
 21 19  2  0
 22 23  1  0
 23 24  2  0
 25 28  1  0
 25 24  1  0
 26 25  2  0
 27 26  1  0
 27 22  2  0
 28 29  1  0
 29 34  2  0
 29 30  1  0
 30 31  2  0
 31 32  1  0
 32 36  1  0
 33 32  2  0
 34 33  1  0
 35 34  1  0
 37 38  1  0
 38 41  1  0
 38 40  1  0
 39 37  2  0
 42 17  1  0
 42 43  1  0
 44 42  1  0
 45 47  2  0
 45 46  1  0
 46 49  1  0
 48 46  1  0
 50 52  2  0
 51 50  1  0
 51  5  1  0
 53 51  1  0
 54 55  2  0
 54 50  1  0
 56 58  1  0
 56 55  1  0
 57 68  2  0
 58 63  1  0
 59 67  1  0
 59 69  1  0
 60 66  1  0
 60 62  1  0
 61 67  1  0
 62 61  1  0
 63 62  2  0
 64 65  1  0
 64 58  2  0
 65 60  2  0
 66 59  1  0
 67 57  1  0
 69 71  2  0
 70 69  1  0
 72 70  1  0
 73 82  2  0
 73 78  1  0
 74 70  1  0
 74 78  1  0
 75 74  1  0
 76 77  1  0
 76 75  1  0
 77 73  1  0
 78 79  2  0
 79 80  1  0
 81 80  2  0
 82 81  1  0
 83 57  1  0
 83 88  1  0
 83 84  1  0
 84 87  1  1
 84 85  1  0
 86 84  1  0
 88 91  1  0
 89 93  1  0
 89 88  1  0
 90 89  2  0
 93 92  1  0
 95 93  1  0
 95 96  1  0
 95 94  1  0
M  ISO  4   7 100  15 100  55 101  56 101
M  END
>  <TORSDO>  (43) 
F 20

>  <SCORE>  (43) 
-10.946

>  <name>  (43) 
42

>  <ligand_id>  (43) 
42

>  <original_smiles>  (43) 
[H]c1c([H])c([H])c2c(c1[H])C([H])([H])C([H])([H])C([H])([H])C2([H])N([H])C(=O)C1([H])N(C(=O)C([H])(N([H])C(=O)C([H])(N([H])C([H])([H])[H])C([H])([H])[H])C(C([H])([H])[H])(C([H])([H])[H])C([H])([H])[H])C([H])([H])c2c([H])c(OC([H])([H])C([H])([H])C(=O)N([H])c3c([H])c(C(=O)N([H])[H])c([H])c(N([H])C(=O)N4C([H])([H])C([H])([H])C([H])([H])C([H])(n5nc(-c6c([H])c([H])c(Oc7c([H])c([H])c(F)c([H])c7F)c([H])c6[H])c(C(=O)N([H])[H])c5N([H])[H])C4([H])[H])c3[H])c([H])c([H])c2C1([H])[H]

>  <smiles>  (43) 
[H]c1c([H])c([H])c2c(c1[H])C([H])([H])C([H])([H])C([H])([H])C2([H])N([H])C(=O)C1([H])N(C(=O)C([H])(N([H])C(=O)C([H])(N([H])C([H])([H])[H])C([H])([H])[H])C(C([H])([H])[H])(C([H])([H])[H])C([H])([H])[H])C([H])([H])c2c([H])c(OC([H])([H])C([H])([H])C(=O)N([H])c3c([H])c(C(=O)N([H])[H])c([H])c(N([H])C(=O)N4C([H])([H])C([H])([H])C([H])([H])C([H])(n5nc(-c6c([H])c([H])c(Oc7c([H])c([H])c(F)c([H])c7F)c([H])c6[H])c(C(=O)N([H])[H])c5N([H])[H])C4([H])[H])c3[H])c([H])c([H])c2C1([H])[H]

$$$$
43:0:0
     RDKit          3D

 98107  0  0  1  0  0  0  0  0999 V2000
  -29.1130  -23.1940   21.7800 C   0  0  0  0  0  3  0  0  0  0  0  0
  -28.8980  -23.5360   20.4040 C   0  0  0  0  0  0  0  0  0  0  0  0
  -29.5680  -21.8920   21.8800 C   0  0  0  0  0  0  0  0  0  0  0  0
  -29.2600  -22.3450   19.7570 C   0  0  0  0  0  0  0  0  0  0  0  0
  -29.6900  -21.2980   20.6290 N   0  0  0  0  0  0  0  0  0  0  0  0
  -32.0570  -18.9390   18.9490 C   0  0  0  0  0  3  0  0  0  0  0  0
  -31.3780  -20.0740   19.4010 C   0  0  0  0  0  3  0  0  0  0  0  0
  -29.9730  -18.6300   20.7620 C   0  0  0  0  0  3  0  0  0  0  0  0
  -31.7000  -17.6330   19.3460 C   0  0  0  0  0  0  0  0  0  0  0  0
  -30.2930  -19.9810   20.2870 C   0  0  0  0  0  0  0  0  0  0  0  0
  -30.6740  -17.4070   20.3330 C   0  0  0  0  0  0  0  0  0  0  0  0
  -30.9980  -14.8150   20.8240 C   0  0  0  0  0  0  0  0  0  0  0  0
  -30.7870  -12.5290   19.8500 C   0  0  0  0  0  2  0  0  0  0  0  0
  -29.9370  -12.5760   18.5620 C   0  0  0  0  0  2  0  0  0  0  0  0
  -28.4400  -12.4490   18.8890 C   0  0  0  0  0  2  0  0  0  0  0  0
  -27.9970  -13.3660   20.0600 C   0  0  0  0  0  3  0  0  0  0  0  0
  -28.9780  -13.3060   21.2520 C   0  0  0  0  0  2  0  0  0  0  0  0
  -30.3150  -13.6200   20.7350 N   0  0  0  0  0  0  0  0  0  0  0  0
  -32.2210  -14.8080   20.7010 O   0  0  0  0  0  0  0  0  0  0  0  0
  -30.2930  -16.0230   20.8070 N   0  0  0  0  0  0  0  0  0  0  0  0
  -29.3280  -15.9240   21.0860 H   0  0  0  0  0  0  0  0  0  0  0  0
  -25.5680  -13.9850   20.6000 C   0  0  0  0  0  0  0  0  0  0  0  0
  -24.4710  -13.2260   20.9010 C   0  0  0  0  0  0  0  0  0  0  0  0
  -24.9230  -11.8720   20.9360 C   0  0  0  0  0  0  0  0  0  0  0  0
  -26.6200  -13.0950   20.4620 N   0  0  0  0  0  0  0  0  0  0  0  0
  -26.2350  -11.8200   20.7310 N   0  0  0  0  0  0  0  0  0  0  0  0
  -24.1740  -10.6170   21.0910 C   0  0  0  0  0  0  0  0  0  0  0  0
  -24.5520   -9.6430   22.0420 C   0  0  0  0  0  3  0  0  0  0  0  0
  -23.8040   -8.4550   22.1880 C   0  0  0  0  0  3  0  0  0  0  0  0
  -22.6610   -8.2330   21.3820 C   0  0  0  0  0  0  0  0  0  0  0  0
  -22.3030   -9.1950   20.4220 C   0  0  0  0  0  3  0  0  0  0  0  0
  -23.0530  -10.3740   20.2740 C   0  0  0  0  0  3  0  0  0  0  0  0
  -21.8880   -7.0980   21.4360 O   0  0  0  0  0  0  0  0  0  0  0  0
  -21.7900   -6.3470   22.5810 C   0  0  0  0  0  0  0  0  0  0  0  0
  -21.3170   -6.8940   23.7930 C   0  0  0  0  0  3  0  0  0  0  0  0
  -21.1680   -6.0710   24.9260 C   0  0  0  0  0  3  0  0  0  0  0  0
  -21.4810   -4.7010   24.8490 C   0  0  0  0  0  0  0  0  0  0  0  0
  -21.9470   -4.1520   23.6410 C   0  0  0  0  0  3  0  0  0  0  0  0
  -22.0980   -4.9740   22.5090 C   0  0  0  0  0  0  0  0  0  0  0  0
  -22.5270   -4.4350   21.3420 F   0  0  0  0  0  0  0  0  0  0  0  0
  -21.3290   -3.9080   25.9350 F   0  0  0  0  0  0  0  0  0  0  0  0
  -23.0600  -13.7170   21.0500 C   0  0  0  0  0  0  0  0  0  0  0  0
  -22.2660  -13.0600   21.8870 N   0  0  0  0  0  0  0  0  0  0  0  0
  -22.6680  -14.7210   20.4570 O   0  0  0  0  0  0  0  0  0  0  0  0
  -22.5950  -12.2490   22.3920 H   0  0  0  0  0  0  0  0  0  0  0  0
  -21.3170  -13.3740   22.0310 H   0  0  0  0  0  0  0  0  0  0  0  0
  -25.7550  -15.3500   20.4030 N   0  0  0  0  0  0  0  0  0  0  0  0
  -24.9850  -16.0090   20.4390 H   0  0  0  0  0  0  0  0  0  0  0  0
  -26.6230  -15.7740   20.1020 H   0  0  0  0  0  0  0  0  0  0  0  0
  -32.4670  -16.6040   18.5930 C   0  0  0  0  0  0  0  0  0  0  0  0
  -31.6730  -15.7970   17.5790 C   0  0  0  0  0  1  0  0  0  0  0  0
  -33.6940  -16.4820   18.6460 O   0  0  0  0  0  0  0  0  0  0  0  0
  -29.9100  -21.1980   23.0010 O   0  0  0  0  0  0  0  0  0  0  0  0
  -29.8300  -21.7880   23.7440 H   0  0  0  0  0  0  0  0  0  0  0  0
  -29.2180  -22.0970   18.4160 O   0  0  0  0  0  0  0  0  0  0  0  0
  -28.9550  -22.8950   17.9710 H   0  0  0  0  0  0  0  0  0  0  0  0
  -28.1950  -24.8380   19.7850 C   0  0  0  0  0  2  0  0  0  0  0  0
  -28.4790  -26.2880   20.1120 O   0  0  0  0  0  0  0  0  0  0  0  0
  -24.5760  -31.6960   23.0380 C   0  0  0  0  0  0  0  0  0  0  0  0
  -27.3910  -27.2020   19.9940 C   0  0  0  0  0  0  0  0  0  0  0  0
  -23.4590  -30.2810   21.3560 C   0  0  0  0  0  3  0  0  0  0  0  0
  -24.9930  -28.8040   19.9390 C   0  0  0  0  0  0  0  0  0  0  0  0
  -25.9990  -30.6640   21.2460 C   0  0  0  0  0  2  0  0  0  0  0  0
  -26.1370  -29.2950   20.5820 C   0  0  0  0  0  0  0  0  0  0  0  0
  -27.3360  -28.5050   20.6070 C   0  0  0  0  0  3  0  0  0  0  0  0
  -26.2270  -26.8140   19.2850 C   0  0  0  0  0  3  0  0  0  0  0  0
  -25.0460  -27.5720   19.2790 C   0  0  0  0  0  3  0  0  0  0  0  0
  -23.7300  -29.6400   19.9720 C   0  0  0  0  0  2  0  0  0  0  0  0
  -24.6950  -30.8990   21.9360 N   0  0  0  0  0  0  0  0  0  0  0  0
  -23.4700  -31.9310   23.5490 O   0  0  0  0  0  0  0  0  0  0  0  0
  -22.8080  -29.2280   22.2870 C   0  0  0  0  0  0  0  0  0  0  0  0
  -21.4820  -29.0420   22.1640 N   0  0  0  0  0  0  0  0  0  0  0  0
  -23.4960  -28.5820   23.0830 O   0  0  0  0  0  0  0  0  0  0  0  0
  -20.9830  -29.6160   21.4990 H   0  0  0  0  0  0  0  0  0  0  0  0
  -18.1120  -27.8300   22.6880 C   0  0  0  0  0  0  0  0  0  0  0  0
  -20.6760  -28.0750   22.9130 C   0  0  0  0  0  3  0  0  0  0  0  0
  -20.7610  -26.6680   22.2800 C   0  0  0  0  0  2  0  0  0  0  0  0
  -19.6380  -26.3880   21.2760 C   0  0  0  0  0  2  0  0  0  0  0  0
  -18.2700  -26.5090   21.9540 C   0  0  0  0  0  2  0  0  0  0  0  0
  -19.2410  -28.5730   23.1250 C   0  0  0  0  0  0  0  0  0  0  0  0
  -19.0370  -29.8110   23.7730 C   0  0  0  0  0  3  0  0  0  0  0  0
  -17.7370  -30.3070   23.9870 C   0  0  0  0  0  3  0  0  0  0  0  0
  -16.6220  -29.5600   23.5650 C   0  0  0  0  0  3  0  0  0  0  0  0
  -16.8100  -28.3240   22.9210 C   0  0  0  0  0  3  0  0  0  0  0  0
  -25.8200  -32.3680   23.6940 C   0  0  0  0  0  3  0  0  0  0  0  0
  -25.4440  -33.7440   24.0530 N   0  0  0  0  0  0  0  0  0  0  0  0
  -25.7620  -34.8320   23.3390 C   0  0  0  0  0  0  0  0  0  0  0  0
  -26.4710  -34.7860   22.3300 O   0  0  0  0  0  0  0  0  0  0  0  0
  -24.8170  -33.8510   24.8370 H   0  0  0  0  0  0  0  0  0  0  0  0
  -23.9800  -36.5710   22.9790 C   0  0  0  0  0  1  0  0  0  0  0  0
  -25.2090  -36.1870   23.8200 C   0  0  0  0  0  3  0  0  0  0  0  0
  -27.2770  -37.1280   24.7510 C   0  0  0  0  0  1  0  0  0  0  0  0
  -26.2030  -37.2810   23.7730 N   0  0  0  0  0  0  0  0  0  0  0  0
  -25.7570  -38.1800   23.9310 H   0  0  0  0  0  0  0  0  0  0  0  0
  -26.3460  -31.5890   24.9610 C   0  0  1  0  0  0  0  0  0  0  0  0
  -25.2510  -31.2930   26.0110 C   0  0  0  0  0  1  0  0  0  0  0  0
  -26.9810  -30.2400   24.5530 C   0  0  0  0  0  1  0  0  0  0  0  0
  -27.4610  -32.4090   25.6530 C   0  0  0  0  0  1  0  0  0  0  0  0
  1  3  2  0
  2  1  1  0
  3 53  1  0
  4  2  2  0
  4  5  1  0
  5  3  1  0
  6  9  2  0
  6  7  1  0
  7 10  2  0
  9 11  1  0
 10  5  1  0
 10  8  1  0
 11  8  2  0
 11 20  1  0
 13 18  1  0
 14 15  1  0
 14 13  1  0
 16 15  1  0
 16 25  1  0
 16 17  1  0
 18 12  1  0
 18 17  1  0
 19 12  2  0
 20 12  1  0
 20 21  1  0
 22 23  2  0
 23 24  1  0
 23 42  1  0
 24 27  1  0
 25 22  1  0
 25 26  1  0
 26 24  2  0
 27 28  1  0
 28 29  2  0
 30 33  1  0
 30 29  1  0
 31 30  2  0
 32 31  1  0
 32 27  2  0
 33 34  1  0
 34 35  1  0
 35 36  2  0
 37 36  1  0
 37 41  1  0
 38 37  2  0
 39 34  2  0
 39 38  1  0
 40 39  1  0
 42 43  1  0
 43 46  1  0
 43 45  1  0
 44 42  2  0
 47 48  1  0
 47 22  1  0
 49 47  1  0
 50 52  2  0
 50  9  1  0
 51 50  1  0
 53 54  1  0
 55  4  1  0
 56 55  1  0
 57 58  1  0
 57  2  1  0
 59 70  2  0
 60 58  1  0
 60 65  1  0
 61 69  1  0
 61 71  1  0
 62 68  1  0
 62 64  1  0
 63 69  1  0
 64 65  2  0
 64 63  1  0
 66 60  2  0
 67 66  1  0
 67 62  2  0
 68 61  1  0
 69 59  1  0
 71 73  2  0
 72 71  1  0
 74 72  1  0
 75 84  2  0
 75 80  1  0
 76 72  1  0
 76 80  1  0
 77 76  1  0
 78 79  1  0
 78 77  1  0
 79 75  1  0
 80 81  2  0
 81 82  1  0
 83 82  2  0
 84 83  1  0
 85 59  1  0
 85 86  1  0
 85 95  1  0
 86 89  1  0
 87 91  1  0
 87 86  1  0
 88 87  2  0
 91 90  1  0
 93 91  1  0
 93 94  1  0
 93 92  1  0
 95 98  1  1
 95 96  1  0
 97 95  1  0
M  ISO  4  12 100  20 100  57 101  58 101
M  END
>  <TORSDO>  (44) 
F 21

>  <SCORE>  (44) 
-13.865

>  <name>  (44) 
43

>  <ligand_id>  (44) 
43

>  <original_smiles>  (44) 
[H]Oc1c([H])c(C([H])([H])Oc2c([H])c([H])c3c(c2[H])C([H])([H])N(C(=O)C([H])(N([H])C(=O)C([H])(N([H])C([H])([H])[H])C([H])([H])[H])C(C([H])([H])[H])(C([H])([H])[H])C([H])([H])[H])C([H])(C(=O)N([H])C2([H])c4c([H])c([H])c([H])c([H])c4C([H])([H])C([H])([H])C2([H])[H])C3([H])[H])c(O[H])n1-c1c([H])c([H])c(C(=O)C([H])([H])[H])c(N([H])C(=O)N2C([H])([H])C([H])([H])C([H])([H])C([H])(n3nc(-c4c([H])c([H])c(Oc5c([H])c([H])c(F)c([H])c5F)c([H])c4[H])c(C(=O)N([H])[H])c3N([H])[H])C2([H])[H])c1[H]

>  <smiles>  (44) 
[H]Oc1c([H])c(C([H])([H])Oc2c([H])c([H])c3c(c2[H])C([H])([H])N(C(=O)C([H])(N([H])C(=O)C([H])(N([H])C([H])([H])[H])C([H])([H])[H])C(C([H])([H])[H])(C([H])([H])[H])C([H])([H])[H])C([H])(C(=O)N([H])C2([H])c4c([H])c([H])c([H])c([H])c4C([H])([H])C([H])([H])C2([H])[H])C3([H])[H])c(O[H])n1-c1c([H])c([H])c(C(=O)C([H])([H])[H])c(N([H])C(=O)N2C([H])([H])C([H])([H])C([H])([H])C([H])(n3nc(-c4c([H])c([H])c(Oc5c([H])c([H])c(F)c([H])c5F)c([H])c4[H])c(C(=O)N([H])[H])c3N([H])[H])C2([H])[H])c1[H]

$$$$
44:0:0
     RDKit          3D

 98107  0  0  1  0  0  0  0  0999 V2000
  -28.7200  -17.3870   18.1350 C   0  0  0  0  0  3  0  0  0  0  0  0
  -30.1080  -17.4600   18.4490 C   0  0  0  0  0  3  0  0  0  0  0  0
  -28.2660  -18.4870   20.2500 C   0  0  0  0  0  3  0  0  0  0  0  0
  -29.6090  -18.8930   20.2310 C   0  0  0  0  0  3  0  0  0  0  0  0
  -27.7770  -17.8200   19.1080 C   0  0  0  0  0  0  0  0  0  0  0  0
  -30.4260  -17.6540   19.8130 C   0  0  0  0  0  3  0  0  0  0  0  0
  -31.1500  -14.9140   20.1190 C   0  0  0  0  0  0  0  0  0  0  0  0
  -31.0130  -12.4870   19.2560 C   0  0  0  0  0  2  0  0  0  0  0  0
  -30.0560  -12.3940   18.0430 C   0  0  0  0  0  2  0  0  0  0  0  0
  -28.6040  -12.1880   18.5090 C   0  0  0  0  0  2  0  0  0  0  0  0
  -28.2300  -13.1220   19.6880 C   0  0  0  0  0  3  0  0  0  0  0  0
  -29.3190  -13.1810   20.7840 C   0  0  0  0  0  2  0  0  0  0  0  0
  -30.5620  -13.6250   20.1350 N   0  0  0  0  0  0  0  0  0  0  0  0
  -32.3390  -14.9190   19.7850 O   0  0  0  0  0  0  0  0  0  0  0  0
  -30.4190  -16.1600   20.3720 N   0  0  0  0  0  0  0  0  0  0  0  0
  -29.5420  -15.9410   20.8210 H   0  0  0  0  0  0  0  0  0  0  0  0
  -25.9120  -13.7040   20.5860 C   0  0  0  0  0  0  0  0  0  0  0  0
  -24.8400  -12.9500   20.9630 C   0  0  0  0  0  0  0  0  0  0  0  0
  -25.2530  -11.5920   20.8250 C   0  0  0  0  0  0  0  0  0  0  0  0
  -26.9110  -12.8160   20.2360 N   0  0  0  0  0  0  0  0  0  0  0  0
  -26.5290  -11.5300   20.4470 N   0  0  0  0  0  0  0  0  0  0  0  0
  -24.4820  -10.3520   20.9710 C   0  0  0  0  0  0  0  0  0  0  0  0
  -24.8030   -9.3980   21.9620 C   0  0  0  0  0  3  0  0  0  0  0  0
  -24.0340   -8.2230   22.0970 C   0  0  0  0  0  3  0  0  0  0  0  0
  -22.9290   -7.9960   21.2430 C   0  0  0  0  0  0  0  0  0  0  0  0
  -22.6260   -8.9380   20.2450 C   0  0  0  0  0  3  0  0  0  0  0  0
  -23.3950  -10.1060   20.1070 C   0  0  0  0  0  3  0  0  0  0  0  0
  -22.1400   -6.8730   21.2880 O   0  0  0  0  0  0  0  0  0  0  0  0
  -21.8210   -6.2630   22.4740 C   0  0  0  0  0  0  0  0  0  0  0  0
  -21.1020   -6.9360   23.4850 C   0  0  0  0  0  3  0  0  0  0  0  0
  -20.7300   -6.2500   24.6600 C   0  0  0  0  0  3  0  0  0  0  0  0
  -21.0710   -4.8940   24.8220 C   0  0  0  0  0  0  0  0  0  0  0  0
  -21.7860   -4.2220   23.8150 C   0  0  0  0  0  3  0  0  0  0  0  0
  -22.1590   -4.9050   22.6430 C   0  0  0  0  0  0  0  0  0  0  0  0
  -22.8270   -4.2490   21.6650 F   0  0  0  0  0  0  0  0  0  0  0  0
  -20.7120   -4.2300   25.9460 F   0  0  0  0  0  0  0  0  0  0  0  0
  -23.4770  -13.4680   21.3210 C   0  0  0  0  0  0  0  0  0  0  0  0
  -22.7590  -12.7690   22.1960 N   0  0  0  0  0  0  0  0  0  0  0  0
  -23.0610  -14.5330   20.8680 O   0  0  0  0  0  0  0  0  0  0  0  0
  -23.1080  -11.9140   22.6040 H   0  0  0  0  0  0  0  0  0  0  0  0
  -21.8460  -13.1020   22.4690 H   0  0  0  0  0  0  0  0  0  0  0  0
  -26.1090  -15.0670   20.4720 N   0  0  0  0  0  0  0  0  0  0  0  0
  -25.3330  -15.7010   20.6070 H   0  0  0  0  0  0  0  0  0  0  0  0
  -26.9190  -15.5020   20.0530 H   0  0  0  0  0  0  0  0  0  0  0  0
  -30.2570  -21.6940   19.7340 C   0  0  0  0  0  0  0  0  0  0  0  0
  -28.3410  -21.2970   20.2640 C   0  0  0  0  0  2  0  0  0  0  0  0
  -29.0840  -22.7120   20.3400 C   0  0  1  0  0  0  0  0  0  0  0  0
  -29.4100  -23.1400   21.7730 C   0  0  0  0  0  1  0  0  0  0  0  0
  -29.6160  -20.4890   20.2550 N   0  0  0  0  0  0  0  0  0  0  0  0
  -31.2370  -21.8330   19.0390 O   0  0  0  0  0  0  0  0  0  0  0  0
  -28.4700  -24.1390   19.5650 C   0  0  0  0  0  2  0  0  0  0  0  0
  -28.5480  -25.7070   19.9320 O   0  0  0  0  0  0  0  0  0  0  0  0
  -24.8040  -31.4220   22.9160 C   0  0  0  0  0  0  0  0  0  0  0  0
  -27.4810  -26.7140   19.8450 C   0  0  0  0  0  0  0  0  0  0  0  0
  -23.6420  -30.0350   21.2420 C   0  0  0  0  0  3  0  0  0  0  0  0
  -25.1360  -28.4910   19.8160 C   0  0  0  0  0  0  0  0  0  0  0  0
  -26.2050  -30.3190   21.1190 C   0  0  0  0  0  2  0  0  0  0  0  0
  -26.3080  -28.9250   20.4510 C   0  0  0  0  0  0  0  0  0  0  0  0
  -27.4710  -28.0520   20.4530 C   0  0  0  0  0  3  0  0  0  0  0  0
  -26.2820  -26.4110   19.1620 C   0  0  0  0  0  3  0  0  0  0  0  0
  -25.1440  -27.2500   19.1620 C   0  0  0  0  0  3  0  0  0  0  0  0
  -23.8950  -29.3760   19.8580 C   0  0  0  0  0  2  0  0  0  0  0  0
  -24.9020  -30.6150   21.8130 N   0  0  0  0  0  0  0  0  0  0  0  0
  -23.7070  -31.6860   23.4320 O   0  0  0  0  0  0  0  0  0  0  0  0
  -22.9600  -29.0120   22.1890 C   0  0  0  0  0  0  0  0  0  0  0  0
  -21.6300  -28.8470   22.0740 N   0  0  0  0  0  0  0  0  0  0  0  0
  -23.6330  -28.3710   22.9960 O   0  0  0  0  0  0  0  0  0  0  0  0
  -21.1360  -29.4240   21.4060 H   0  0  0  0  0  0  0  0  0  0  0  0
  -18.2460  -27.6380   22.6400 C   0  0  0  0  0  0  0  0  0  0  0  0
  -20.8200  -27.8790   22.8200 C   0  0  0  0  0  3  0  0  0  0  0  0
  -20.8900  -26.4680   22.1780 C   0  0  0  0  0  2  0  0  0  0  0  0
  -19.7330  -26.1900   21.2120 C   0  0  0  0  0  2  0  0  0  0  0  0
  -18.3850  -26.3080   21.9240 C   0  0  0  0  0  2  0  0  0  0  0  0
  -19.3880  -28.3800   23.0520 C   0  0  0  0  0  0  0  0  0  0  0  0
  -19.1990  -29.6190   23.7010 C   0  0  0  0  0  3  0  0  0  0  0  0
  -17.9050  -30.1230   23.9370 C   0  0  0  0  0  3  0  0  0  0  0  0
  -16.7780  -29.3850   23.5260 C   0  0  0  0  0  3  0  0  0  0  0  0
  -16.9520  -28.1460   22.8790 C   0  0  0  0  0  3  0  0  0  0  0  0
  -26.0600  -32.0780   23.5670 C   0  0  0  0  0  3  0  0  0  0  0  0
  -26.6160  -31.2610   24.7980 C   0  0  1  0  0  0  0  0  0  0  0  0
  -25.5480  -30.9360   25.8690 C   0  0  0  0  0  1  0  0  0  0  0  0
  -27.2420  -29.9230   24.3390 C   0  0  0  0  0  1  0  0  0  0  0  0
  -27.7450  -32.0620   25.4860 C   0  0  0  0  0  1  0  0  0  0  0  0
  -25.6910  -33.4420   23.9860 N   0  0  0  0  0  0  0  0  0  0  0  0
  -25.9860  -34.5600   23.3060 C   0  0  0  0  0  0  0  0  0  0  0  0
  -26.6590  -34.5510   22.2720 O   0  0  0  0  0  0  0  0  0  0  0  0
  -25.0980  -33.5180   24.7980 H   0  0  0  0  0  0  0  0  0  0  0  0
  -24.1990  -36.3180   23.0760 C   0  0  0  0  0  1  0  0  0  0  0  0
  -25.4530  -35.8990   23.8600 C   0  0  0  0  0  3  0  0  0  0  0  0
  -27.5560  -36.7990   24.7560 C   0  0  0  0  0  1  0  0  0  0  0  0
  -26.4510  -36.9900   23.8210 N   0  0  0  0  0  0  0  0  0  0  0  0
  -26.0130  -37.8840   24.0230 H   0  0  0  0  0  0  0  0  0  0  0  0
  -25.4310  -17.4120   19.8080 C   0  0  0  0  0  0  0  0  0  0  0  0
  -26.3690  -17.7280   18.8900 N   0  0  0  0  0  0  0  0  0  0  0  0
  -25.6650  -16.9550   20.9300 O   0  0  0  0  0  0  0  0  0  0  0  0
  -26.0390  -17.9430   17.9610 H   0  0  0  0  0  0  0  0  0  0  0  0
  -23.2110  -18.2860   20.0260 C   0  0  0  0  0  2  0  0  0  0  0  0
  -24.1000  -17.5900   19.2930 C   0  0  0  0  0  3  0  0  0  0  0  0
  1  2  2  0
  1  5  1  0
  2  6  1  0
  4  3  1  0
  4 49  1  0
  5  3  2  0
  6  4  1  0
  6 15  1  0
  7 13  1  0
  7 15  1  0
  8 13  1  0
  9 10  1  0
  9  8  1  0
 11 10  1  0
 11 20  1  0
 11 12  1  0
 13 12  1  0
 14  7  2  0
 15 16  1  0
 17 18  2  0
 18 37  1  0
 19 18  1  0
 19 22  1  0
 20 21  1  0
 20 17  1  0
 21 19  2  0
 22 23  1  0
 23 24  2  0
 25 28  1  0
 25 24  1  0
 26 25  2  0
 27 26  1  0
 27 22  2  0
 28 29  1  0
 29 34  2  0
 29 30  1  0
 30 31  2  0
 31 32  1  0
 32 36  1  0
 33 32  2  0
 34 33  1  0
 35 34  1  0
 37 38  1  0
 38 41  1  0
 38 40  1  0
 39 37  2  0
 42 17  1  0
 42 43  1  0
 44 42  1  0
 45 49  1  0
 45 47  1  0
 46 47  1  0
 47 48  1  1
 49 46  1  0
 50 45  2  0
 51 52  1  0
 51 47  1  0
 53 64  2  0
 54 52  1  0
 54 59  1  0
 55 63  1  0
 55 65  1  0
 56 62  1  0
 56 58  1  0
 57 63  1  0
 58 59  2  0
 58 57  1  0
 60 61  1  0
 60 54  2  0
 61 56  2  0
 62 55  1  0
 63 53  1  0
 65 67  2  0
 66 65  1  0
 68 66  1  0
 69 78  2  0
 69 74  1  0
 70 66  1  0
 70 74  1  0
 71 70  1  0
 72 73  1  0
 72 71  1  0
 73 69  1  0
 74 75  2  0
 75 76  1  0
 77 76  2  0
 78 77  1  0
 79 53  1  0
 79 84  1  0
 79 80  1  0
 80 83  1  1
 80 81  1  0
 82 80  1  0
 84 87  1  0
 85 89  1  0
 85 84  1  0
 86 85  2  0
 89 88  1  0
 91 89  1  0
 91 92  1  0
 91 90  1  0
 93 95  2  0
 94  5  1  0
 94 93  1  0
 96 94  1  0
 98 93  1  0
 98 97  2  0
M  ISO  4   7 100  15 100  51 101  52 101
M  END
>  <TORSDO>  (45) 
F 20

>  <SCORE>  (45) 
-7.768

>  <name>  (45) 
44

>  <ligand_id>  (45) 
44

>  <original_smiles>  (45) 
[H]C([H])=C([H])C(=O)N([H])c1c([H])c([H])c(N([H])C(=O)N2C([H])([H])C([H])([H])C([H])([H])C([H])(n3nc(-c4c([H])c([H])c(Oc5c([H])c([H])c(F)c([H])c5F)c([H])c4[H])c(C(=O)N([H])[H])c3N([H])[H])C2([H])[H])c(N2C(=O)C(C([H])([H])[H])(C([H])([H])Oc3c([H])c([H])c4c(c3[H])C([H])([H])N(C(=O)C([H])(N([H])C(=O)C([H])(N([H])C([H])([H])[H])C([H])([H])[H])C(C([H])([H])[H])(C([H])([H])[H])C([H])([H])[H])C([H])(C(=O)N([H])C3([H])c5c([H])c([H])c([H])c([H])c5C([H])([H])C([H])([H])C3([H])[H])C4([H])[H])C2([H])[H])c1[H]

>  <smiles>  (45) 
[H]C([H])=C([H])C(=O)N([H])c1c([H])c([H])c(N([H])C(=O)N2C([H])([H])C([H])([H])C([H])([H])C([H])(n3nc(-c4c([H])c([H])c(Oc5c([H])c([H])c(F)c([H])c5F)c([H])c4[H])c(C(=O)N([H])[H])c3N([H])[H])C2([H])[H])c(N2C(=O)C(C([H])([H])[H])(C([H])([H])Oc3c([H])c([H])c4c(c3[H])C([H])([H])N(C(=O)C([H])(N([H])C(=O)C([H])(N([H])C([H])([H])[H])C([H])([H])[H])C(C([H])([H])[H])(C([H])([H])[H])C([H])([H])[H])C([H])(C(=O)N([H])C3([H])c5c([H])c([H])c([H])c([H])c5C([H])([H])C([H])([H])C3([H])[H])C4([H])[H])C2([H])[H])c1[H]

$$$$
45:0:0
     RDKit          3D

 93101  0  0  1  0  0  0  0  0999 V2000
  -28.6330  -22.4440   20.0430 C   0  0  0  0  0  0  0  0  0  0  0  0
  -29.3790  -21.4040   20.6120 N   0  0  0  0  0  0  0  0  0  0  0  0
  -27.7030  -22.1550   19.2850 O   0  0  0  0  0  0  0  0  0  0  0  0
  -29.9780  -21.6750   21.3790 H   0  0  0  0  0  0  0  0  0  0  0  0
  -29.6310  -19.8100   18.7400 C   0  0  0  0  0  3  0  0  0  0  0  0
  -29.6820  -18.7580   20.9240 C   0  0  0  0  0  3  0  0  0  0  0  0
  -29.8500  -18.5550   18.1440 C   0  0  0  0  0  0  0  0  0  0  0  0
  -29.9890  -17.3730   18.9240 C   0  0  0  0  0  0  0  0  0  0  0  0
  -29.5310  -19.9860   20.1330 C   0  0  0  0  0  0  0  0  0  0  0  0
  -29.9100  -17.4190   20.3550 C   0  0  0  0  0  0  0  0  0  0  0  0
  -29.9070  -18.5220   16.6220 C   0  0  0  0  0  1  0  0  0  0  0  0
  -30.1590  -16.0440   18.1970 C   0  0  0  0  0  1  0  0  0  0  0  0
  -30.6890  -14.9740   21.0910 C   0  0  0  0  0  0  0  0  0  0  0  0
  -30.6760  -12.5890   20.3200 C   0  0  0  0  0  2  0  0  0  0  0  0
  -29.9240  -12.4650   18.9780 C   0  0  0  0  0  2  0  0  0  0  0  0
  -28.4000  -12.3500   19.1910 C   0  0  0  0  0  2  0  0  0  0  0  0
  -27.8450  -13.3110   20.2810 C   0  0  0  0  0  3  0  0  0  0  0  0
  -28.7460  -13.3710   21.5350 C   0  0  0  0  0  2  0  0  0  0  0  0
  -30.0980  -13.7230   21.0870 N   0  0  0  0  0  0  0  0  0  0  0  0
  -31.9060  -15.0560   20.9000 O   0  0  0  0  0  0  0  0  0  0  0  0
  -29.8920  -16.1290   21.1450 N   0  0  0  0  0  0  0  0  0  0  0  0
  -29.0220  -15.9800   21.6350 H   0  0  0  0  0  0  0  0  0  0  0  0
  -25.3750  -13.8710   20.6850 C   0  0  0  0  0  0  0  0  0  0  0  0
  -24.2860  -13.0870   20.9520 C   0  0  0  0  0  0  0  0  0  0  0  0
  -24.7740  -11.7460   21.0360 C   0  0  0  0  0  0  0  0  0  0  0  0
  -26.4560  -13.0060   20.6170 N   0  0  0  0  0  0  0  0  0  0  0  0
  -26.0940  -11.7260   20.8930 N   0  0  0  0  0  0  0  0  0  0  0  0
  -24.0460  -10.4760   21.1880 C   0  0  0  0  0  0  0  0  0  0  0  0
  -24.4050   -9.5350   22.1790 C   0  0  0  0  0  3  0  0  0  0  0  0
  -23.6820   -8.3310   22.3170 C   0  0  0  0  0  3  0  0  0  0  0  0
  -22.5850   -8.0580   21.4670 C   0  0  0  0  0  0  0  0  0  0  0  0
  -22.2450   -8.9860   20.4690 C   0  0  0  0  0  3  0  0  0  0  0  0
  -22.9670  -10.1840   20.3270 C   0  0  0  0  0  3  0  0  0  0  0  0
  -21.8440   -6.9020   21.5090 O   0  0  0  0  0  0  0  0  0  0  0  0
  -21.7290   -6.1630   22.6590 C   0  0  0  0  0  0  0  0  0  0  0  0
  -21.2290   -6.7200   23.8540 C   0  0  0  0  0  3  0  0  0  0  0  0
  -21.0630   -5.9090   24.9950 C   0  0  0  0  0  3  0  0  0  0  0  0
  -21.3880   -4.5400   24.9380 C   0  0  0  0  0  0  0  0  0  0  0  0
  -21.8830   -3.9820   23.7450 C   0  0  0  0  0  3  0  0  0  0  0  0
  -22.0510   -4.7930   22.6080 C   0  0  0  0  0  0  0  0  0  0  0  0
  -22.5050   -4.2460   21.4540 F   0  0  0  0  0  0  0  0  0  0  0  0
  -21.2230   -3.7550   26.0300 F   0  0  0  0  0  0  0  0  0  0  0  0
  -22.8580  -13.5420   21.0350 C   0  0  0  0  0  0  0  0  0  0  0  0
  -22.0470  -12.8690   21.8430 N   0  0  0  0  0  0  0  0  0  0  0  0
  -22.4670  -14.5320   20.4170 O   0  0  0  0  0  0  0  0  0  0  0  0
  -22.3730  -12.0650   22.3580 H   0  0  0  0  0  0  0  0  0  0  0  0
  -21.0860  -13.1610   21.9460 H   0  0  0  0  0  0  0  0  0  0  0  0
  -25.5400  -15.2360   20.4740 N   0  0  0  0  0  0  0  0  0  0  0  0
  -24.7560  -15.8780   20.4120 H   0  0  0  0  0  0  0  0  0  0  0  0
  -26.4290  -15.6790   20.2790 H   0  0  0  0  0  0  0  0  0  0  0  0
  -28.9480  -23.8990   20.3530 C   0  0  0  0  0  3  0  0  0  0  0  0
  -28.1150  -24.9570   19.9870 C   0  0  0  0  0  3  0  0  0  0  0  0
  -28.2850  -26.3870   20.0930 O   0  0  0  0  0  0  0  0  0  0  0  0
  -24.5250  -31.8880   23.0810 C   0  0  0  0  0  0  0  0  0  0  0  0
  -27.1840  -27.2930   20.0270 C   0  0  0  0  0  0  0  0  0  0  0  0
  -23.3410  -30.4630   21.4570 C   0  0  0  0  0  3  0  0  0  0  0  0
  -24.8100  -28.9400   20.0190 C   0  0  0  0  0  0  0  0  0  0  0  0
  -25.8820  -30.8000   21.2710 C   0  0  0  0  0  2  0  0  0  0  0  0
  -25.9780  -29.4190   20.6220 C   0  0  0  0  0  0  0  0  0  0  0  0
  -27.1650  -28.6070   20.6220 C   0  0  0  0  0  3  0  0  0  0  0  0
  -25.9940  -26.9180   19.3560 C   0  0  0  0  0  3  0  0  0  0  0  0
  -24.8260  -27.7000   19.3720 C   0  0  0  0  0  3  0  0  0  0  0  0
  -23.5600  -29.7970   20.0750 C   0  0  0  0  0  2  0  0  0  0  0  0
  -24.6020  -31.0700   21.9910 N   0  0  0  0  0  0  0  0  0  0  0  0
  -23.4370  -32.1520   23.6150 O   0  0  0  0  0  0  0  0  0  0  0  0
  -22.6980  -29.4360   22.4230 C   0  0  0  0  0  0  0  0  0  0  0  0
  -21.3680  -29.2590   22.3270 N   0  0  0  0  0  0  0  0  0  0  0  0
  -23.3950  -28.8020   23.2200 O   0  0  0  0  0  0  0  0  0  0  0  0
  -20.8610  -29.8220   21.6580 H   0  0  0  0  0  0  0  0  0  0  0  0
  -18.0010  -28.0640   22.9170 C   0  0  0  0  0  0  0  0  0  0  0  0
  -20.5690  -28.3160   23.1100 C   0  0  0  0  0  3  0  0  0  0  0  0
  -20.6500  -26.8900   22.5190 C   0  0  0  0  0  2  0  0  0  0  0  0
  -19.5160  -26.5780   21.5370 C   0  0  0  0  0  2  0  0  0  0  0  0
  -18.1530  -26.7220   22.2210 C   0  0  0  0  0  2  0  0  0  0  0  0
  -19.1340  -28.8210   23.3190 C   0  0  0  0  0  0  0  0  0  0  0  0
  -18.9340  -30.0780   23.9290 C   0  0  0  0  0  3  0  0  0  0  0  0
  -17.6360  -30.5790   24.1400 C   0  0  0  0  0  3  0  0  0  0  0  0
  -16.5200  -29.8200   23.7520 C   0  0  0  0  0  3  0  0  0  0  0  0
  -16.7030  -28.5650   23.1450 C   0  0  0  0  0  3  0  0  0  0  0  0
  -25.7970  -32.5530   23.6920 C   0  0  0  0  0  3  0  0  0  0  0  0
  -26.3610  -31.7760   24.9440 C   0  0  1  0  0  0  0  0  0  0  0  0
  -25.2950  -31.4820   26.0260 C   0  0  0  0  0  1  0  0  0  0  0  0
  -26.9860  -30.4280   24.5190 C   0  0  0  0  0  1  0  0  0  0  0  0
  -27.4960  -32.5960   25.6000 C   0  0  0  0  0  1  0  0  0  0  0  0
  -25.4460  -33.9330   24.0600 N   0  0  0  0  0  0  0  0  0  0  0  0
  -25.7600  -35.0190   23.3410 C   0  0  0  0  0  0  0  0  0  0  0  0
  -26.4460  -34.9670   22.3170 O   0  0  0  0  0  0  0  0  0  0  0  0
  -24.8460  -34.0480   24.8640 H   0  0  0  0  0  0  0  0  0  0  0  0
  -24.0120  -36.7950   22.9980 C   0  0  0  0  0  1  0  0  0  0  0  0
  -25.2320  -36.3790   23.8370 C   0  0  0  0  0  3  0  0  0  0  0  0
  -27.3210  -37.2630   24.7750 C   0  0  0  0  0  1  0  0  0  0  0  0
  -26.2480  -37.4540   23.8030 N   0  0  0  0  0  0  0  0  0  0  0  0
  -25.8210  -38.3580   23.9770 H   0  0  0  0  0  0  0  0  0  0  0  0
  1 51  1  0
  1  2  1  0
  2  4  1  0
  3  1  2  0
  5  9  1  0
  7  5  2  0
  7  8  1  0
  8 10  2  0
  9  2  1  0
  9  6  2  0
 10  6  1  0
 10 21  1  0
 11  7  1  0
 12  8  1  0
 13 21  1  0
 14 19  1  0
 15 16  1  0
 15 14  1  0
 17 16  1  0
 17 26  1  0
 17 18  1  0
 19 13  1  0
 19 18  1  0
 20 13  2  0
 21 22  1  0
 23 24  2  0
 24 43  1  0
 24 25  1  0
 25 28  1  0
 26 23  1  0
 26 27  1  0
 27 25  2  0
 28 29  1  0
 29 30  2  0
 31 34  1  0
 31 30  1  0
 32 31  2  0
 33 32  1  0
 33 28  2  0
 34 35  1  0
 35 36  1  0
 36 37  2  0
 38 37  1  0
 38 42  1  0
 39 38  2  0
 40 35  2  0
 40 39  1  0
 41 40  1  0
 43 44  1  0
 44 47  1  0
 44 46  1  0
 45 43  2  0
 48 23  1  0
 49 48  1  0
 50 48  1  0
 52 53  1  0
 52 51  2  0
 54 65  2  0
 55 53  1  0
 55 60  1  0
 56 64  1  0
 56 66  1  0
 57 63  1  0
 57 59  1  0
 58 64  1  0
 59 60  2  0
 59 58  1  0
 61 62  1  0
 61 55  2  0
 62 57  2  0
 63 56  1  0
 64 54  1  0
 66 68  2  0
 67 66  1  0
 69 67  1  0
 70 79  2  0
 70 75  1  0
 71 67  1  0
 71 75  1  0
 72 71  1  0
 73 74  1  0
 73 72  1  0
 74 70  1  0
 75 76  2  0
 76 77  1  0
 78 77  2  0
 79 78  1  0
 80 54  1  0
 80 85  1  0
 80 81  1  0
 81 84  1  1
 81 82  1  0
 83 81  1  0
 85 88  1  0
 86 90  1  0
 86 85  1  0
 87 86  2  0
 90 89  1  0
 92 90  1  0
 92 93  1  0
 92 91  1  0
M  ISO  4  13 100  21 100  52 101  53 101
M  END
>  <TORSDO>  (46) 
F 18

>  <SCORE>  (46) 
-13.720

>  <name>  (46) 
45

>  <ligand_id>  (46) 
45

>  <original_smiles>  (46) 
[H]C(Oc1c([H])c([H])c2c(c1[H])C([H])([H])N(C(=O)C([H])(N([H])C(=O)C([H])(N([H])C([H])([H])[H])C([H])([H])[H])C(C([H])([H])[H])(C([H])([H])[H])C([H])([H])[H])C([H])(C(=O)N([H])C1([H])c3c([H])c([H])c([H])c([H])c3C([H])([H])C([H])([H])C1([H])[H])C2([H])[H])=C([H])C(=O)N([H])c1c([H])c(N([H])C(=O)N2C([H])([H])C([H])([H])C([H])([H])C([H])(n3nc(-c4c([H])c([H])c(Oc5c([H])c([H])c(F)c([H])c5F)c([H])c4[H])c(C(=O)N([H])[H])c3N([H])[H])C2([H])[H])c(C([H])([H])[H])c(C([H])([H])[H])c1[H]

>  <smiles>  (46) 
[H]C(Oc1c([H])c([H])c2c(c1[H])C([H])([H])N(C(=O)C([H])(N([H])C(=O)C([H])(N([H])C([H])([H])[H])C([H])([H])[H])C(C([H])([H])[H])(C([H])([H])[H])C([H])([H])[H])C([H])(C(=O)N([H])C1([H])c3c([H])c([H])c([H])c([H])c3C([H])([H])C([H])([H])C1([H])[H])C2([H])[H])=C([H])C(=O)N([H])c1c([H])c(N([H])C(=O)N2C([H])([H])C([H])([H])C([H])([H])C([H])(n3nc(-c4c([H])c([H])c(Oc5c([H])c([H])c(F)c([H])c5F)c([H])c4[H])c(C(=O)N([H])[H])c3N([H])[H])C2([H])[H])c(C([H])([H])[H])c(C([H])([H])[H])c1[H]

$$$$
46:0:0
     RDKit          3D

 94102  0  0  1  0  0  0  0  0999 V2000
  -30.9290  -19.0080   18.0620 C   0  0  0  0  0  3  0  0  0  0  0  0
  -30.4120  -20.1580   18.6760 C   0  0  0  0  0  3  0  0  0  0  0  0
  -29.6070  -18.7490   20.4820 C   0  0  0  0  0  3  0  0  0  0  0  0
  -30.7810  -17.7110   18.6030 C   0  0  0  0  0  0  0  0  0  0  0  0
  -29.6830  -20.0820   19.8830 C   0  0  0  0  0  0  0  0  0  0  0  0
  -30.1980  -17.5370   19.9040 C   0  0  0  0  0  0  0  0  0  0  0  0
  -30.8730  -15.0380   20.4650 C   0  0  0  0  0  0  0  0  0  0  0  0
  -30.7150  -12.7530   19.4730 C   0  0  0  0  0  2  0  0  0  0  0  0
  -29.8100  -12.7780   18.2190 C   0  0  0  0  0  2  0  0  0  0  0  0
  -28.3150  -12.6860   18.5930 C   0  0  0  0  0  2  0  0  0  0  0  0
  -27.9190  -13.5670   19.8110 C   0  0  0  0  0  3  0  0  0  0  0  0
  -28.9450  -13.4550   20.9560 C   0  0  0  0  0  2  0  0  0  0  0  0
  -30.2570  -13.8080   20.4050 N   0  0  0  0  0  0  0  0  0  0  0  0
  -32.0880  -15.1200   20.2550 O   0  0  0  0  0  0  0  0  0  0  0  0
  -30.0660  -16.1760   20.5240 N   0  0  0  0  0  0  0  0  0  0  0  0
  -29.1520  -15.9890   20.9090 H   0  0  0  0  0  0  0  0  0  0  0  0
  -25.5200  -14.1740   20.4910 C   0  0  0  0  0  0  0  0  0  0  0  0
  -24.4350  -13.4060   20.8150 C   0  0  0  0  0  0  0  0  0  0  0  0
  -24.8810  -12.0510   20.7700 C   0  0  0  0  0  0  0  0  0  0  0  0
  -26.5600  -13.2860   20.2660 N   0  0  0  0  0  0  0  0  0  0  0  0
  -26.1800  -12.0020   20.5020 N   0  0  0  0  0  0  0  0  0  0  0  0
  -24.1370  -10.7930   20.9060 C   0  0  0  0  0  0  0  0  0  0  0  0
  -24.5130   -9.8110   21.8490 C   0  0  0  0  0  3  0  0  0  0  0  0
  -23.7680   -8.6190   21.9780 C   0  0  0  0  0  3  0  0  0  0  0  0
  -22.6330   -8.4000   21.1630 C   0  0  0  0  0  0  0  0  0  0  0  0
  -22.2770   -9.3700   20.2090 C   0  0  0  0  0  3  0  0  0  0  0  0
  -23.0220  -10.5530   20.0780 C   0  0  0  0  0  3  0  0  0  0  0  0
  -21.8640   -7.2630   21.2010 O   0  0  0  0  0  0  0  0  0  0  0  0
  -21.7080   -6.5340   22.3540 C   0  0  0  0  0  0  0  0  0  0  0  0
  -21.1530   -7.0990   23.5230 C   0  0  0  0  0  3  0  0  0  0  0  0
  -20.9460   -6.2960   24.6630 C   0  0  0  0  0  3  0  0  0  0  0  0
  -21.2860   -4.9300   24.6350 C   0  0  0  0  0  0  0  0  0  0  0  0
  -21.8340   -4.3650   23.4700 C   0  0  0  0  0  3  0  0  0  0  0  0
  -22.0400   -5.1650   22.3310 C   0  0  0  0  0  0  0  0  0  0  0  0
  -22.5470   -4.6080   21.2050 F   0  0  0  0  0  0  0  0  0  0  0  0
  -21.0810   -4.1580   25.7270 F   0  0  0  0  0  0  0  0  0  0  0  0
  -23.0340  -13.8920   21.0530 C   0  0  0  0  0  0  0  0  0  0  0  0
  -22.2790  -13.2060   21.9040 N   0  0  0  0  0  0  0  0  0  0  0  0
  -22.6150  -14.9140   20.5140 O   0  0  0  0  0  0  0  0  0  0  0  0
  -22.6270  -12.3800   22.3680 H   0  0  0  0  0  0  0  0  0  0  0  0
  -21.3360  -13.5150   22.0980 H   0  0  0  0  0  0  0  0  0  0  0  0
  -25.7040  -15.5470   20.3490 N   0  0  0  0  0  0  0  0  0  0  0  0
  -24.9380  -16.2060   20.4550 H   0  0  0  0  0  0  0  0  0  0  0  0
  -26.5600  -15.9890   20.0390 H   0  0  0  0  0  0  0  0  0  0  0  0
  -29.2990  -22.6630   20.1740 C   0  0  0  0  0  0  0  0  0  0  0  0
  -28.9600  -21.3160   20.3230 N   0  0  0  0  0  0  0  0  0  0  0  0
  -30.4850  -22.9850   20.0850 O   0  0  0  0  0  0  0  0  0  0  0  0
  -28.0130  -21.1570   20.6440 H   0  0  0  0  0  0  0  0  0  0  0  0
  -28.2140  -23.8520   20.1050 C   0  0  0  0  0  2  0  0  0  0  0  0
  -28.4280  -25.3070   20.8060 C   0  0  0  0  0  2  0  0  0  0  0  0
  -28.3480  -26.6650   20.1570 O   0  0  0  0  0  0  0  0  0  0  0  0
  -24.6230  -32.0080   23.4460 C   0  0  0  0  0  0  0  0  0  0  0  0
  -27.2120  -27.4940   20.2660 C   0  0  0  0  0  0  0  0  0  0  0  0
  -23.3990  -30.6250   21.8070 C   0  0  0  0  0  3  0  0  0  0  0  0
  -24.8330  -29.1010   20.3340 C   0  0  0  0  0  0  0  0  0  0  0  0
  -25.9330  -30.9660   21.5760 C   0  0  0  0  0  2  0  0  0  0  0  0
  -26.0130  -29.5930   20.9050 C   0  0  0  0  0  0  0  0  0  0  0  0
  -27.2100  -28.8080   20.8470 C   0  0  0  0  0  3  0  0  0  0  0  0
  -26.0050  -27.0550   19.6910 C   0  0  0  0  0  3  0  0  0  0  0  0
  -24.8320  -27.8380   19.7150 C   0  0  0  0  0  3  0  0  0  0  0  0
  -23.5920  -29.9670   20.4150 C   0  0  0  0  0  2  0  0  0  0  0  0
  -24.6720  -31.2190   22.3330 N   0  0  0  0  0  0  0  0  0  0  0  0
  -23.5470  -32.2660   24.0060 O   0  0  0  0  0  0  0  0  0  0  0  0
  -22.7640  -29.5910   22.7670 C   0  0  0  0  0  0  0  0  0  0  0  0
  -21.4510  -29.3470   22.6110 N   0  0  0  0  0  0  0  0  0  0  0  0
  -23.4550  -29.0060   23.6050 O   0  0  0  0  0  0  0  0  0  0  0  0
  -20.9540  -29.8730   21.9060 H   0  0  0  0  0  0  0  0  0  0  0  0
  -18.1370  -27.9470   23.0000 C   0  0  0  0  0  0  0  0  0  0  0  0
  -20.6600  -28.3770   23.3700 C   0  0  0  0  0  3  0  0  0  0  0  0
  -20.8770  -26.9420   22.8360 C   0  0  0  0  0  2  0  0  0  0  0  0
  -19.8430  -26.5260   21.7860 C   0  0  0  0  0  2  0  0  0  0  0  0
  -18.4280  -26.5960   22.3670 C   0  0  0  0  0  2  0  0  0  0  0  0
  -19.1850  -28.7910   23.4560 C   0  0  0  0  0  0  0  0  0  0  0  0
  -18.8600  -30.0500   24.0050 C   0  0  0  0  0  3  0  0  0  0  0  0
  -17.5190  -30.4680   24.1070 C   0  0  0  0  0  3  0  0  0  0  0  0
  -16.4850  -29.6230   23.6680 C   0  0  0  0  0  3  0  0  0  0  0  0
  -16.7950  -28.3660   23.1180 C   0  0  0  0  0  3  0  0  0  0  0  0
  -25.9110  -32.6430   24.0550 C   0  0  0  0  0  3  0  0  0  0  0  0
  -26.4390  -31.8700   25.3270 C   0  0  1  0  0  0  0  0  0  0  0  0
  -25.3440  -31.5960   26.3860 C   0  0  0  0  0  1  0  0  0  0  0  0
  -27.0600  -30.5130   24.9260 C   0  0  0  0  0  1  0  0  0  0  0  0
  -27.5630  -32.6890   26.0070 C   0  0  0  0  0  1  0  0  0  0  0  0
  -25.6020  -34.0410   24.3910 N   0  0  0  0  0  0  0  0  0  0  0  0
  -25.9260  -35.0980   23.6340 C   0  0  0  0  0  0  0  0  0  0  0  0
  -26.5820  -34.9970   22.5930 O   0  0  0  0  0  0  0  0  0  0  0  0
  -25.0120  -34.1900   25.1970 H   0  0  0  0  0  0  0  0  0  0  0  0
  -24.1830  -36.8870   23.3240 C   0  0  0  0  0  1  0  0  0  0  0  0
  -25.4450  -36.4840   24.1030 C   0  0  0  0  0  3  0  0  0  0  0  0
  -27.5890  -37.3830   24.8930 C   0  0  0  0  0  1  0  0  0  0  0  0
  -26.4720  -37.5410   23.9680 N   0  0  0  0  0  0  0  0  0  0  0  0
  -26.0630  -38.4590   24.1170 H   0  0  0  0  0  0  0  0  0  0  0  0
  -32.5940  -16.0560   17.8740 C   0  0  0  0  0  1  0  0  0  0  0  0
  -30.9070  -16.8900   16.1830 C   0  0  0  0  0  1  0  0  0  0  0  0
  -31.1590  -16.5560   17.6660 C   0  0  0  0  0  3  0  0  0  0  0  0
  1  4  2  0
  1  2  1  0
  2  5  2  0
  4  6  1  0
  5 46  1  0
  5  3  1  0
  6  3  2  0
  6 15  1  0
  7 15  1  0
  8 13  1  0
  9 10  1  0
  9  8  1  0
 11 10  1  0
 11 20  1  0
 11 12  1  0
 13  7  1  0
 13 12  1  0
 14  7  2  0
 15 16  1  0
 17 18  2  0
 18 37  1  0
 19 18  1  0
 19 22  1  0
 20 17  1  0
 20 21  1  0
 21 19  2  0
 22 23  1  0
 23 24  2  0
 25 28  1  0
 25 24  1  0
 26 25  2  0
 27 26  1  0
 27 22  2  0
 28 29  1  0
 29 30  1  0
 30 31  2  0
 32 31  1  0
 32 36  1  0
 33 32  2  0
 34 29  2  0
 34 33  1  0
 35 34  1  0
 37 38  1  0
 38 41  1  0
 38 40  1  0
 39 37  2  0
 42 43  1  0
 42 17  1  0
 44 42  1  0
 45 46  1  0
 46 48  1  0
 47 45  2  0
 49 45  1  0
 49 50  1  0
 51 53  1  0
 51 50  1  0
 52 63  2  0
 53 58  1  0
 54 62  1  0
 54 64  1  0
 55 61  1  0
 55 57  1  0
 56 62  1  0
 57 56  1  0
 58 57  2  0
 59 60  1  0
 59 53  2  0
 60 55  2  0
 61 54  1  0
 62 52  1  0
 64 66  2  0
 65 64  1  0
 67 65  1  0
 68 77  2  0
 68 73  1  0
 69 65  1  0
 69 73  1  0
 70 69  1  0
 71 72  1  0
 71 70  1  0
 72 68  1  0
 73 74  2  0
 74 75  1  0
 76 75  2  0
 77 76  1  0
 78 52  1  0
 78 83  1  0
 78 79  1  0
 79 82  1  1
 79 80  1  0
 81 79  1  0
 83 86  1  0
 84 88  1  0
 84 83  1  0
 85 84  2  0
 88 87  1  0
 90 88  1  0
 90 91  1  0
 90 89  1  0
 93 94  1  0
 94 92  1  0
 94  4  1  0
M  ISO  4   7 100  15 100  50 101  51 101
M  END
>  <TORSDO>  (47) 
F 20

>  <SCORE>  (47) 
-12.431

>  <name>  (47) 
46

>  <ligand_id>  (47) 
46

>  <original_smiles>  (47) 
[H]c1c([H])c([H])c2c(c1[H])C([H])([H])C([H])([H])C([H])([H])C2([H])N([H])C(=O)C1([H])N(C(=O)C([H])(N([H])C(=O)C([H])(N([H])C([H])([H])[H])C([H])([H])[H])C(C([H])([H])[H])(C([H])([H])[H])C([H])([H])[H])C([H])([H])c2c([H])c(OC([H])([H])C([H])([H])C(=O)N([H])c3c([H])c([H])c(C([H])(C([H])([H])[H])C([H])([H])[H])c(N([H])C(=O)N4C([H])([H])C([H])([H])C([H])([H])C([H])(n5nc(-c6c([H])c([H])c(Oc7c([H])c([H])c(F)c([H])c7F)c([H])c6[H])c(C(=O)N([H])[H])c5N([H])[H])C4([H])[H])c3[H])c([H])c([H])c2C1([H])[H]

>  <smiles>  (47) 
[H]c1c([H])c([H])c2c(c1[H])C([H])([H])C([H])([H])C([H])([H])C2([H])N([H])C(=O)C1([H])N(C(=O)C([H])(N([H])C(=O)C([H])(N([H])C([H])([H])[H])C([H])([H])[H])C(C([H])([H])[H])(C([H])([H])[H])C([H])([H])[H])C([H])([H])c2c([H])c(OC([H])([H])C([H])([H])C(=O)N([H])c3c([H])c([H])c(C([H])(C([H])([H])[H])C([H])([H])[H])c(N([H])C(=O)N4C([H])([H])C([H])([H])C([H])([H])C([H])(n5nc(-c6c([H])c([H])c(Oc7c([H])c([H])c(F)c([H])c7F)c([H])c6[H])c(C(=O)N([H])[H])c5N([H])[H])C4([H])[H])c3[H])c([H])c([H])c2C1([H])[H]

$$$$
47:0:0
     RDKit          3D

 93101  0  0  1  0  0  0  0  0999 V2000
  -31.5840  -19.3650   21.2900 C   0  0  0  0  0  3  0  0  0  0  0  0
  -31.2260  -18.0240   21.0480 C   0  0  0  0  0  3  0  0  0  0  0  0
  -29.0890  -18.8750   20.2910 C   0  0  0  0  0  3  0  0  0  0  0  0
  -30.7370  -20.4810   21.0680 C   0  0  0  0  0  0  0  0  0  0  0  0
  -29.9510  -17.6620   20.5810 C   0  0  0  0  0  0  0  0  0  0  0  0
  -29.4440  -20.3390   20.4660 C   0  0  0  0  0  0  0  0  0  0  0  0
  -30.4360  -14.9170   20.6700 C   0  0  0  0  0  0  0  0  0  0  0  0
  -30.4280  -12.4490   19.9950 C   0  0  0  0  0  2  0  0  0  0  0  0
  -29.5920  -12.1960   18.7180 C   0  0  0  0  0  2  0  0  0  0  0  0
  -28.1070  -11.9900   19.0700 C   0  0  0  0  0  2  0  0  0  0  0  0
  -27.5910  -13.0440   20.0830 C   0  0  0  0  0  3  0  0  0  0  0  0
  -28.5590  -13.2480   21.2670 C   0  0  0  0  0  2  0  0  0  0  0  0
  -29.8520  -13.6410   20.6910 N   0  0  0  0  0  0  0  0  0  0  0  0
  -31.6660  -14.9300   20.5400 O   0  0  0  0  0  0  0  0  0  0  0  0
  -29.6530  -16.1260   20.5330 N   0  0  0  0  0  0  0  0  0  0  0  0
  -28.6730  -15.9150   20.4230 H   0  0  0  0  0  0  0  0  0  0  0  0
  -25.1960  -13.6740   20.7150 C   0  0  0  0  0  0  0  0  0  0  0  0
  -24.0950  -12.9250   21.0240 C   0  0  0  0  0  0  0  0  0  0  0  0
  -24.5270  -11.5620   21.0060 C   0  0  0  0  0  0  0  0  0  0  0  0
  -26.2270  -12.7720   20.5190 N   0  0  0  0  0  0  0  0  0  0  0  0
  -25.8310  -11.4950   20.7620 N   0  0  0  0  0  0  0  0  0  0  0  0
  -23.7580  -10.3180   21.1440 C   0  0  0  0  0  0  0  0  0  0  0  0
  -24.1440   -9.3080   22.0520 C   0  0  0  0  0  3  0  0  0  0  0  0
  -23.3750   -8.1300   22.1820 C   0  0  0  0  0  3  0  0  0  0  0  0
  -22.2050   -7.9560   21.4050 C   0  0  0  0  0  0  0  0  0  0  0  0
  -21.8390   -8.9560   20.4870 C   0  0  0  0  0  3  0  0  0  0  0  0
  -22.6080  -10.1240   20.3540 C   0  0  0  0  0  3  0  0  0  0  0  0
  -21.4110   -6.8360   21.4460 O   0  0  0  0  0  0  0  0  0  0  0  0
  -21.3700   -6.0240   22.5510 C   0  0  0  0  0  0  0  0  0  0  0  0
  -20.9760   -6.5080   23.8190 C   0  0  0  0  0  3  0  0  0  0  0  0
  -20.8810   -5.6240   24.9120 C   0  0  0  0  0  3  0  0  0  0  0  0
  -21.1680   -4.2570   24.7400 C   0  0  0  0  0  0  0  0  0  0  0  0
  -21.5550   -3.7720   23.4770 C   0  0  0  0  0  3  0  0  0  0  0  0
  -21.6520   -4.6530   22.3860 C   0  0  0  0  0  0  0  0  0  0  0  0
  -22.0040   -4.1770   21.1680 F   0  0  0  0  0  0  0  0  0  0  0  0
  -21.0690   -3.4060   25.7870 F   0  0  0  0  0  0  0  0  0  0  0  0
  -22.6990  -13.4370   21.2230 C   0  0  0  0  0  0  0  0  0  0  0  0
  -21.9130  -12.7670   22.0570 N   0  0  0  0  0  0  0  0  0  0  0  0
  -22.3140  -14.4690   20.6730 O   0  0  0  0  0  0  0  0  0  0  0  0
  -22.2370  -11.9310   22.5230 H   0  0  0  0  0  0  0  0  0  0  0  0
  -20.9740  -13.0930   22.2330 H   0  0  0  0  0  0  0  0  0  0  0  0
  -25.4010  -15.0410   20.5550 N   0  0  0  0  0  0  0  0  0  0  0  0
  -24.6380  -15.7080   20.6160 H   0  0  0  0  0  0  0  0  0  0  0  0
  -26.2640  -15.4600   20.2330 H   0  0  0  0  0  0  0  0  0  0  0  0
  -28.7640  -23.0020   19.8310 C   0  0  0  0  0  0  0  0  0  0  0  0
  -28.5530  -21.6160   20.2150 N   0  0  0  0  0  0  0  0  0  0  0  0
  -29.8570  -23.3170   19.3570 O   0  0  0  0  0  0  0  0  0  0  0  0
  -27.5710  -21.4430   20.3830 H   0  0  0  0  0  0  0  0  0  0  0  0
  -27.6390  -24.2600   19.8510 C   0  0  0  0  0  2  0  0  0  0  0  0
  -27.9750  -25.8150   19.7540 O   0  0  0  0  0  0  0  0  0  0  0  0
  -24.4630  -31.5360   22.9740 C   0  0  0  0  0  0  0  0  0  0  0  0
  -26.9390  -26.8450   19.7570 C   0  0  0  0  0  0  0  0  0  0  0  0
  -23.2150  -30.1790   21.3410 C   0  0  0  0  0  3  0  0  0  0  0  0
  -24.6190  -28.6350   19.8350 C   0  0  0  0  0  0  0  0  0  0  0  0
  -25.7680  -30.4360   21.1070 C   0  0  0  0  0  2  0  0  0  0  0  0
  -25.8220  -29.0530   20.4190 C   0  0  0  0  0  0  0  0  0  0  0  0
  -26.9800  -28.1780   20.3600 C   0  0  0  0  0  3  0  0  0  0  0  0
  -25.7070  -26.5510   19.1320 C   0  0  0  0  0  3  0  0  0  0  0  0
  -24.5790  -27.4000   19.1730 C   0  0  0  0  0  3  0  0  0  0  0  0
  -23.3960  -29.5360   19.9410 C   0  0  0  0  0  2  0  0  0  0  0  0
  -24.5050  -30.7390   21.8620 N   0  0  0  0  0  0  0  0  0  0  0  0
  -23.3930  -31.8080   23.5400 O   0  0  0  0  0  0  0  0  0  0  0  0
  -22.5640  -29.1500   22.3010 C   0  0  0  0  0  0  0  0  0  0  0  0
  -21.2290  -28.9980   22.2290 N   0  0  0  0  0  0  0  0  0  0  0  0
  -23.2620  -28.4930   23.0770 O   0  0  0  0  0  0  0  0  0  0  0  0
  -20.7210  -29.5780   21.5770 H   0  0  0  0  0  0  0  0  0  0  0  0
  -17.8580  -27.8190   22.8530 C   0  0  0  0  0  0  0  0  0  0  0  0
  -20.4310  -28.0440   23.0050 C   0  0  0  0  0  3  0  0  0  0  0  0
  -20.4850  -26.6310   22.3780 C   0  0  0  0  0  2  0  0  0  0  0  0
  -19.3330  -26.3560   21.4070 C   0  0  0  0  0  2  0  0  0  0  0  0
  -17.9850  -26.4930   22.1210 C   0  0  0  0  0  2  0  0  0  0  0  0
  -19.0060  -28.5540   23.2550 C   0  0  0  0  0  0  0  0  0  0  0  0
  -18.8310  -29.7950   23.9040 C   0  0  0  0  0  3  0  0  0  0  0  0
  -17.5410  -30.3020   24.1530 C   0  0  0  0  0  3  0  0  0  0  0  0
  -16.4090  -29.5640   23.7660 C   0  0  0  0  0  3  0  0  0  0  0  0
  -16.5680  -28.3240   23.1220 C   0  0  0  0  0  3  0  0  0  0  0  0
  -25.7570  -32.1610   23.5780 C   0  0  0  0  0  3  0  0  0  0  0  0
  -26.3400  -31.3320   24.7890 C   0  0  1  0  0  0  0  0  0  0  0  0
  -25.2980  -31.0290   25.8930 C   0  0  0  0  0  1  0  0  0  0  0  0
  -26.9160  -29.9820   24.3060 C   0  0  0  0  0  1  0  0  0  0  0  0
  -27.5130  -32.1050   25.4360 C   0  0  0  0  0  1  0  0  0  0  0  0
  -25.4370  -33.5330   24.0050 N   0  0  0  0  0  0  0  0  0  0  0  0
  -25.7450  -34.6410   23.3180 C   0  0  0  0  0  0  0  0  0  0  0  0
  -26.3960  -34.6160   22.2710 O   0  0  0  0  0  0  0  0  0  0  0  0
  -24.8570  -33.6260   24.8270 H   0  0  0  0  0  0  0  0  0  0  0  0
  -24.0030  -36.4480   23.1210 C   0  0  0  0  0  1  0  0  0  0  0  0
  -25.2580  -35.9910   23.8830 C   0  0  0  0  0  3  0  0  0  0  0  0
  -27.3970  -36.8310   24.7490 C   0  0  0  0  0  1  0  0  0  0  0  0
  -26.2830  -37.0570   23.8320 N   0  0  0  0  0  0  0  0  0  0  0  0
  -25.8730  -37.9610   24.0470 H   0  0  0  0  0  0  0  0  0  0  0  0
  -31.2770  -21.7880   21.6440 C   0  0  0  0  0  2  0  0  0  0  0  0
  -32.6380  -23.7720   20.8740 C   0  0  0  0  0  2  0  0  0  0  0  0
  -32.3230  -22.4710   20.7810 C   0  0  0  0  0  3  0  0  0  0  0  0
  2  1  2  0
  3  6  1  0
  3  5  2  0
  4  1  1  0
  4 91  1  0
  5  2  1  0
  6  4  2  0
  7 13  1  0
  8 13  1  0
  9 10  1  0
  9  8  1  0
 11 10  1  0
 11 20  1  0
 11 12  1  0
 13 12  1  0
 14  7  2  0
 15  5  1  0
 15  7  1  0
 16 15  1  0
 17 18  2  0
 18 37  1  0
 19 18  1  0
 19 22  1  0
 20 17  1  0
 20 21  1  0
 21 19  2  0
 22 23  1  0
 23 24  2  0
 25 28  1  0
 25 24  1  0
 26 25  2  0
 27 26  1  0
 27 22  2  0
 28 29  1  0
 29 30  1  0
 30 31  2  0
 32 31  1  0
 32 36  1  0
 33 32  2  0
 34 29  2  0
 34 33  1  0
 35 34  1  0
 37 38  1  0
 38 41  1  0
 38 40  1  0
 39 37  2  0
 42 43  1  0
 42 17  1  0
 44 42  1  0
 45 49  1  0
 45 46  1  0
 46 48  1  0
 46  6  1  0
 47 45  2  0
 50 52  1  0
 50 49  1  0
 51 62  2  0
 52 57  1  0
 53 61  1  0
 53 63  1  0
 54 60  1  0
 54 56  1  0
 55 61  1  0
 56 55  1  0
 57 56  2  0
 58 59  1  0
 58 52  2  0
 59 54  2  0
 60 53  1  0
 61 51  1  0
 63 65  2  0
 64 63  1  0
 66 64  1  0
 67 76  2  0
 67 72  1  0
 68 64  1  0
 68 72  1  0
 69 68  1  0
 70 71  1  0
 70 69  1  0
 71 67  1  0
 72 73  2  0
 73 74  1  0
 75 74  2  0
 76 75  1  0
 77 51  1  0
 77 82  1  0
 77 78  1  0
 78 81  1  1
 78 79  1  0
 80 78  1  0
 82 85  1  0
 83 87  1  0
 83 82  1  0
 84 83  2  0
 87 86  1  0
 89 87  1  0
 89 90  1  0
 89 88  1  0
 93 92  2  0
 93 91  1  0
M  ISO  4   7 100  15 100  49 101  50 101
M  END
>  <TORSDO>  (48) 
F 20

>  <SCORE>  (48) 
-12.111

>  <name>  (48) 
47

>  <ligand_id>  (48) 
47

>  <original_smiles>  (48) 
[H]C([H])=C([H])C([H])([H])c1c([H])c([H])c(N([H])C(=O)N2C([H])([H])C([H])([H])C([H])([H])C([H])(n3nc(-c4c([H])c([H])c(Oc5c([H])c([H])c(F)c([H])c5F)c([H])c4[H])c(C(=O)N([H])[H])c3N([H])[H])C2([H])[H])c([H])c1N([H])C(=O)C([H])([H])Oc1c([H])c([H])c2c(c1[H])C([H])([H])N(C(=O)C([H])(N([H])C(=O)C([H])(N([H])C([H])([H])[H])C([H])([H])[H])C(C([H])([H])[H])(C([H])([H])[H])C([H])([H])[H])C([H])(C(=O)N([H])C1([H])c3c([H])c([H])c([H])c([H])c3C([H])([H])C([H])([H])C1([H])[H])C2([H])[H]

>  <smiles>  (48) 
[H]C([H])=C([H])C([H])([H])c1c([H])c([H])c(N([H])C(=O)N2C([H])([H])C([H])([H])C([H])([H])C([H])(n3nc(-c4c([H])c([H])c(Oc5c([H])c([H])c(F)c([H])c5F)c([H])c4[H])c(C(=O)N([H])[H])c3N([H])[H])C2([H])[H])c([H])c1N([H])C(=O)C([H])([H])Oc1c([H])c([H])c2c(c1[H])C([H])([H])N(C(=O)C([H])(N([H])C(=O)C([H])(N([H])C([H])([H])[H])C([H])([H])[H])C(C([H])([H])[H])(C([H])([H])[H])C([H])([H])[H])C([H])(C(=O)N([H])C1([H])c3c([H])c([H])c([H])c([H])c3C([H])([H])C([H])([H])C1([H])[H])C2([H])[H]

$$$$
48:0:0
     RDKit          3D

 97105  0  0  1  0  0  0  0  0999 V2000
  -30.3370  -17.6840   21.7490 C   0  0  0  0  0  3  0  0  0  0  0  0
  -29.4670  -18.7580   19.7480 C   0  0  0  0  0  3  0  0  0  0  0  0
  -30.3230  -18.9370   22.4030 C   0  0  0  0  0  0  0  0  0  0  0  0
  -29.8740  -17.5340   20.4290 C   0  0  0  0  0  0  0  0  0  0  0  0
  -29.5070  -20.0880   20.3540 C   0  0  0  0  0  0  0  0  0  0  0  0
  -29.8890  -20.1090   21.7270 C   0  0  0  0  0  0  0  0  0  0  0  0
  -29.7930  -21.2580   22.4390 F   0  0  0  0  0  0  0  0  0  0  0  0
  -30.5260  -15.0420   19.9250 C   0  0  0  0  0  0  0  0  0  0  0  0
  -30.3680  -12.7370   18.9550 C   0  0  0  0  0  2  0  0  0  0  0  0
  -29.3780  -12.7420   17.7700 C   0  0  0  0  0  2  0  0  0  0  0  0
  -27.9300  -12.5420   18.2640 C   0  0  0  0  0  2  0  0  0  0  0  0
  -27.5760  -13.4530   19.4700 C   0  0  0  0  0  3  0  0  0  0  0  0
  -28.6800  -13.4280   20.5480 C   0  0  0  0  0  2  0  0  0  0  0  0
  -29.9340  -13.8020   19.8840 N   0  0  0  0  0  0  0  0  0  0  0  0
  -31.7240  -15.1640   19.6510 O   0  0  0  0  0  0  0  0  0  0  0  0
  -29.6860  -16.1500   19.9330 N   0  0  0  0  0  0  0  0  0  0  0  0
  -28.7320  -15.9230   19.7050 H   0  0  0  0  0  0  0  0  0  0  0  0
  -25.2200  -14.0140   20.3180 C   0  0  0  0  0  0  0  0  0  0  0  0
  -24.1820  -13.2250   20.7300 C   0  0  0  0  0  0  0  0  0  0  0  0
  -24.6570  -11.8790   20.6630 C   0  0  0  0  0  0  0  0  0  0  0  0
  -26.2620  -13.1470   20.0240 N   0  0  0  0  0  0  0  0  0  0  0  0
  -25.9320  -11.8590   20.2970 N   0  0  0  0  0  0  0  0  0  0  0  0
  -23.9530  -10.6080   20.8730 C   0  0  0  0  0  0  0  0  0  0  0  0
  -24.4160   -9.6530   21.8050 C   0  0  0  0  0  3  0  0  0  0  0  0
  -23.7120   -8.4470   22.0010 C   0  0  0  0  0  3  0  0  0  0  0  0
  -22.5310   -8.1860   21.2670 C   0  0  0  0  0  0  0  0  0  0  0  0
  -22.0880   -9.1300   20.3250 C   0  0  0  0  0  3  0  0  0  0  0  0
  -22.7920  -10.3290   20.1260 C   0  0  0  0  0  3  0  0  0  0  0  0
  -21.7950   -7.0310   21.3740 O   0  0  0  0  0  0  0  0  0  0  0  0
  -21.7520   -6.3100   22.5390 C   0  0  0  0  0  0  0  0  0  0  0  0
  -21.2680   -6.8670   23.7440 C   0  0  0  0  0  3  0  0  0  0  0  0
  -21.1770   -6.0690   24.9020 C   0  0  0  0  0  3  0  0  0  0  0  0
  -21.5580   -4.7140   24.8570 C   0  0  0  0  0  0  0  0  0  0  0  0
  -22.0330   -4.1570   23.6580 C   0  0  0  0  0  3  0  0  0  0  0  0
  -22.1280   -4.9520   22.5010 C   0  0  0  0  0  0  0  0  0  0  0  0
  -22.5680   -4.4020   21.3430 F   0  0  0  0  0  0  0  0  0  0  0  0
  -21.4630   -3.9470   25.9680 F   0  0  0  0  0  0  0  0  0  0  0  0
  -22.7930  -13.6850   21.0640 C   0  0  0  0  0  0  0  0  0  0  0  0
  -22.1120  -12.9790   21.9600 N   0  0  0  0  0  0  0  0  0  0  0  0
  -22.3210  -14.7060   20.5660 O   0  0  0  0  0  0  0  0  0  0  0  0
  -22.5100  -12.1550   22.3870 H   0  0  0  0  0  0  0  0  0  0  0  0
  -21.1810  -13.2690   22.2240 H   0  0  0  0  0  0  0  0  0  0  0  0
  -25.3560  -15.3870   20.1410 N   0  0  0  0  0  0  0  0  0  0  0  0
  -24.5730  -16.0180   20.2720 H   0  0  0  0  0  0  0  0  0  0  0  0
  -26.1600  -15.8420   19.7280 H   0  0  0  0  0  0  0  0  0  0  0  0
  -30.6890  -18.9850   23.8610 C   0  0  0  0  0  0  0  0  0  0  0  0
  -31.6990  -18.2100   24.2400 N   0  0  0  0  0  0  0  0  0  0  0  0
  -30.0930  -19.6980   24.6660 O   0  0  0  0  0  0  0  0  0  0  0  0
  -32.1910  -17.6450   23.5640 H   0  0  0  0  0  0  0  0  0  0  0  0
  -31.9920  -18.1950   25.2070 H   0  0  0  0  0  0  0  0  0  0  0  0
  -29.3900  -22.6910   19.8650 C   0  0  0  0  0  0  0  0  0  0  0  0
  -29.0800  -21.3450   19.6520 N   0  0  0  0  0  0  0  0  0  0  0  0
  -30.2910  -23.0190   20.6370 O   0  0  0  0  0  0  0  0  0  0  0  0
  -28.4630  -21.1920   18.8670 H   0  0  0  0  0  0  0  0  0  0  0  0
  -28.7150  -23.9000   19.0480 C   0  0  0  0  0  2  0  0  0  0  0  0
  -28.2340  -25.2590   19.8040 C   0  0  0  0  0  2  0  0  0  0  0  0
  -28.2660  -26.6400   19.2030 O   0  0  0  0  0  0  0  0  0  0  0  0
  -24.5990  -31.6150   23.0370 C   0  0  0  0  0  0  0  0  0  0  0  0
  -27.1530  -27.4920   19.3510 C   0  0  0  0  0  0  0  0  0  0  0  0
  -23.3610  -30.4290   21.2610 C   0  0  0  0  0  3  0  0  0  0  0  0
  -24.7830  -29.0860   19.6080 C   0  0  0  0  0  0  0  0  0  0  0  0
  -25.8920  -30.7960   21.0470 C   0  0  0  0  0  2  0  0  0  0  0  0
  -25.9670  -29.5070   20.2280 C   0  0  0  0  0  0  0  0  0  0  0  0
  -27.1570  -28.7260   20.0850 C   0  0  0  0  0  3  0  0  0  0  0  0
  -25.9470  -27.1310   18.7170 C   0  0  0  0  0  3  0  0  0  0  0  0
  -24.7770  -27.9090   18.8410 C   0  0  0  0  0  3  0  0  0  0  0  0
  -23.5440  -29.9390   19.8000 C   0  0  0  0  0  2  0  0  0  0  0  0
  -24.6390  -30.9590   21.8400 N   0  0  0  0  0  0  0  0  0  0  0  0
  -23.5310  -31.8060   23.6340 O   0  0  0  0  0  0  0  0  0  0  0  0
  -22.7320  -29.2910   22.1000 C   0  0  0  0  0  0  0  0  0  0  0  0
  -21.4000  -29.1340   22.0090 N   0  0  0  0  0  0  0  0  0  0  0  0
  -23.4400  -28.5560   22.7930 O   0  0  0  0  0  0  0  0  0  0  0  0
  -20.8860  -29.7810   21.4280 H   0  0  0  0  0  0  0  0  0  0  0  0
  -18.0350  -27.9140   22.5360 C   0  0  0  0  0  0  0  0  0  0  0  0
  -20.6110  -28.0970   22.6750 C   0  0  0  0  0  3  0  0  0  0  0  0
  -20.6430  -26.7720   21.8770 C   0  0  0  0  0  2  0  0  0  0  0  0
  -19.4730  -26.6290   20.8990 C   0  0  0  0  0  2  0  0  0  0  0  0
  -18.1380  -26.6870   21.6470 C   0  0  0  0  0  2  0  0  0  0  0  0
  -19.1950  -28.5850   23.0060 C   0  0  0  0  0  0  0  0  0  0  0  0
  -19.0420  -29.7400   23.8030 C   0  0  0  0  0  3  0  0  0  0  0  0
  -17.7610  -30.2240   24.1320 C   0  0  0  0  0  3  0  0  0  0  0  0
  -16.6160  -29.5480   23.6750 C   0  0  0  0  0  3  0  0  0  0  0  0
  -16.7540  -28.3940   22.8840 C   0  0  0  0  0  3  0  0  0  0  0  0
  -25.8930  -32.1790   23.7020 C   0  0  0  0  0  3  0  0  0  0  0  0
  -26.4230  -31.2790   24.8870 C   0  0  1  0  0  0  0  0  0  0  0  0
  -25.3490  -30.9500   25.9480 C   0  0  0  0  0  1  0  0  0  0  0  0
  -26.9820  -29.9420   24.3490 C   0  0  0  0  0  1  0  0  0  0  0  0
  -27.5910  -31.9960   25.6070 C   0  0  0  0  0  1  0  0  0  0  0  0
  -25.5930  -33.5360   24.1820 N   0  0  0  0  0  0  0  0  0  0  0  0
  -25.9610  -34.6640   23.5590 C   0  0  0  0  0  0  0  0  0  0  0  0
  -26.6590  -34.6680   22.5420 O   0  0  0  0  0  0  0  0  0  0  0  0
  -24.9800  -33.6060   24.9810 H   0  0  0  0  0  0  0  0  0  0  0  0
  -24.2890  -36.5330   23.3530 C   0  0  0  0  0  1  0  0  0  0  0  0
  -25.4810  -35.9980   24.1620 C   0  0  0  0  0  3  0  0  0  0  0  0
  -27.5860  -36.7270   25.1980 C   0  0  0  0  0  1  0  0  0  0  0  0
  -26.5380  -37.0310   24.2270 N   0  0  0  0  0  0  0  0  0  0  0  0
  -26.1410  -37.9370   24.4630 H   0  0  0  0  0  0  0  0  0  0  0  0
  1  3  1  0
  2  5  2  0
  2  4  1  0
  3 46  1  0
  4  1  2  0
  5  6  1  0
  6  3  2  0
  6  7  1  0
  8 16  1  0
  9 14  1  0
 10 11  1  0
 10  9  1  0
 12 11  1  0
 12 21  1  0
 12 13  1  0
 14  8  1  0
 14 13  1  0
 15  8  2  0
 16  4  1  0
 17 16  1  0
 18 19  2  0
 19 38  1  0
 20 19  1  0
 20 23  1  0
 21 22  1  0
 21 18  1  0
 22 20  2  0
 23 24  1  0
 24 25  2  0
 26 29  1  0
 26 25  1  0
 27 26  2  0
 28 27  1  0
 28 23  2  0
 29 30  1  0
 30 31  1  0
 31 32  2  0
 33 32  1  0
 33 37  1  0
 34 33  2  0
 35 30  2  0
 35 34  1  0
 36 35  1  0
 38 39  1  0
 39 42  1  0
 39 41  1  0
 40 38  2  0
 43 44  1  0
 43 18  1  0
 45 43  1  0
 46 47  1  0
 46 48  2  0
 47 50  1  0
 49 47  1  0
 51 53  2  0
 52 51  1  0
 52  5  1  0
 54 52  1  0
 55 56  1  0
 55 51  1  0
 57 59  1  0
 57 56  1  0
 58 69  2  0
 59 64  1  0
 60 68  1  0
 60 70  1  0
 61 67  1  0
 61 63  1  0
 62 68  1  0
 63 62  1  0
 64 63  2  0
 65 66  1  0
 65 59  2  0
 66 61  2  0
 67 60  1  0
 68 58  1  0
 70 72  2  0
 71 70  1  0
 73 71  1  0
 74 83  2  0
 74 79  1  0
 75 71  1  0
 75 79  1  0
 76 75  1  0
 77 78  1  0
 77 76  1  0
 78 74  1  0
 79 80  2  0
 80 81  1  0
 82 81  2  0
 83 82  1  0
 84 58  1  0
 84 89  1  0
 84 85  1  0
 85 88  1  1
 85 86  1  0
 87 85  1  0
 89 92  1  0
 90 94  1  0
 90 89  1  0
 91 90  2  0
 94 93  1  0
 94 96  1  0
 96 97  1  0
 96 95  1  0
M  ISO  4   8 100  16 100  56 101  57 101
M  END
>  <TORSDO>  (49) 
F 20

>  <SCORE>  (49) 
-10.152

>  <name>  (49) 
48

>  <ligand_id>  (49) 
48

>  <original_smiles>  (49) 
[H]c1c([H])c([H])c2c(c1[H])C([H])([H])C([H])([H])C([H])([H])C2([H])N([H])C(=O)C1([H])N(C(=O)C([H])(N([H])C(=O)C([H])(N([H])C([H])([H])[H])C([H])([H])[H])C(C([H])([H])[H])(C([H])([H])[H])C([H])([H])[H])C([H])([H])c2c([H])c(OC([H])([H])C([H])([H])C(=O)N([H])c3c([H])c(N([H])C(=O)N4C([H])([H])C([H])([H])C([H])([H])C([H])(n5nc(-c6c([H])c([H])c(Oc7c([H])c([H])c(F)c([H])c7F)c([H])c6[H])c(C(=O)N([H])[H])c5N([H])[H])C4([H])[H])c([H])c(C(=O)N([H])[H])c3F)c([H])c([H])c2C1([H])[H]

>  <smiles>  (49) 
[H]c1c([H])c([H])c2c(c1[H])C([H])([H])C([H])([H])C([H])([H])C2([H])N([H])C(=O)C1([H])N(C(=O)C([H])(N([H])C(=O)C([H])(N([H])C([H])([H])[H])C([H])([H])[H])C(C([H])([H])[H])(C([H])([H])[H])C([H])([H])[H])C([H])([H])c2c([H])c(OC([H])([H])C([H])([H])C(=O)N([H])c3c([H])c(N([H])C(=O)N4C([H])([H])C([H])([H])C([H])([H])C([H])(n5nc(-c6c([H])c([H])c(Oc7c([H])c([H])c(F)c([H])c7F)c([H])c6[H])c(C(=O)N([H])[H])c5N([H])[H])C4([H])[H])c([H])c(C(=O)N([H])[H])c3F)c([H])c([H])c2C1([H])[H]

$$$$
49:0:0
     RDKit          3D

 93101  0  0  1  0  0  0  0  0999 V2000
  -28.6140  -22.3230   20.1500 C   0  0  0  0  0  0  0  0  0  0  0  0
  -29.3020  -21.1780   20.5540 N   0  0  0  0  0  0  0  0  0  0  0  0
  -27.5720  -22.2210   19.4990 O   0  0  0  0  0  0  0  0  0  0  0  0
  -30.0220  -21.3420   21.2460 H   0  0  0  0  0  0  0  0  0  0  0  0
  -28.6560  -19.5240   18.7840 C   0  0  0  0  0  3  0  0  0  0  0  0
  -29.0550  -17.1060   18.9290 C   0  0  0  0  0  3  0  0  0  0  0  0
  -29.6750  -18.5790   20.7740 C   0  0  0  0  0  3  0  0  0  0  0  0
  -28.5670  -18.2310   18.2320 C   0  0  0  0  0  0  0  0  0  0  0  0
  -29.1980  -19.7660   20.0690 C   0  0  0  0  0  0  0  0  0  0  0  0
  -29.6250  -17.2290   20.2150 C   0  0  0  0  0  0  0  0  0  0  0  0
  -27.9400  -18.0720   16.8580 C   0  0  0  0  0  1  0  0  0  0  0  0
  -30.6840  -14.8660   20.4260 C   0  0  0  0  0  0  0  0  0  0  0  0
  -30.4690  -12.6100   19.3850 C   0  0  0  0  0  2  0  0  0  0  0  0
  -29.5590  -12.7100   18.1420 C   0  0  0  0  0  2  0  0  0  0  0  0
  -28.0800  -12.5400   18.5420 C   0  0  0  0  0  2  0  0  0  0  0  0
  -27.6920  -13.4220   19.7630 C   0  0  0  0  0  3  0  0  0  0  0  0
  -28.7230  -13.3120   20.9070 C   0  0  0  0  0  2  0  0  0  0  0  0
  -30.0390  -13.6530   20.3480 N   0  0  0  0  0  0  0  0  0  0  0  0
  -31.8380  -14.9700   19.9980 O   0  0  0  0  0  0  0  0  0  0  0  0
  -30.0290  -15.9840   20.9160 N   0  0  0  0  0  0  0  0  0  0  0  0
  -30.0970  -16.0580   21.9220 H   0  0  0  0  0  0  0  0  0  0  0  0
  -25.2870  -14.0280   20.4200 C   0  0  0  0  0  0  0  0  0  0  0  0
  -24.2170  -13.2590   20.7870 C   0  0  0  0  0  0  0  0  0  0  0  0
  -24.6800  -11.9050   20.7870 C   0  0  0  0  0  0  0  0  0  0  0  0
  -26.3360  -13.1440   20.2230 N   0  0  0  0  0  0  0  0  0  0  0  0
  -25.9760  -11.8650   20.5040 N   0  0  0  0  0  0  0  0  0  0  0  0
  -23.9530  -10.6450   20.9840 C   0  0  0  0  0  0  0  0  0  0  0  0
  -24.3680   -9.6900   21.9400 C   0  0  0  0  0  3  0  0  0  0  0  0
  -23.6360   -8.4970   22.1230 C   0  0  0  0  0  3  0  0  0  0  0  0
  -22.4760   -8.2500   21.3520 C   0  0  0  0  0  0  0  0  0  0  0  0
  -22.0810   -9.1920   20.3870 C   0  0  0  0  0  3  0  0  0  0  0  0
  -22.8130  -10.3760   20.2010 C   0  0  0  0  0  3  0  0  0  0  0  0
  -21.7210   -7.1060   21.4440 O   0  0  0  0  0  0  0  0  0  0  0  0
  -21.6490   -6.3810   22.6060 C   0  0  0  0  0  0  0  0  0  0  0  0
  -21.1990   -6.9550   23.8150 C   0  0  0  0  0  3  0  0  0  0  0  0
  -21.0690   -6.1550   24.9680 C   0  0  0  0  0  3  0  0  0  0  0  0
  -21.3840   -4.7850   24.9150 C   0  0  0  0  0  0  0  0  0  0  0  0
  -21.8300   -4.2110   23.7120 C   0  0  0  0  0  3  0  0  0  0  0  0
  -21.9560   -5.0060   22.5590 C   0  0  0  0  0  0  0  0  0  0  0  0
  -22.3640   -4.4420   21.3970 F   0  0  0  0  0  0  0  0  0  0  0  0
  -21.2550   -4.0160   26.0210 F   0  0  0  0  0  0  0  0  0  0  0  0
  -22.8150  -13.7380   21.0280 C   0  0  0  0  0  0  0  0  0  0  0  0
  -22.0770  -13.0570   21.8980 N   0  0  0  0  0  0  0  0  0  0  0  0
  -22.3840  -14.7510   20.4780 O   0  0  0  0  0  0  0  0  0  0  0  0
  -22.4450  -12.2400   22.3610 H   0  0  0  0  0  0  0  0  0  0  0  0
  -21.1370  -13.3630   22.1070 H   0  0  0  0  0  0  0  0  0  0  0  0
  -25.4540  -15.3980   20.2150 N   0  0  0  0  0  0  0  0  0  0  0  0
  -24.6870  -16.0570   20.2900 H   0  0  0  0  0  0  0  0  0  0  0  0
  -26.3080  -15.8370   19.8900 H   0  0  0  0  0  0  0  0  0  0  0  0
  -29.0800  -23.8260   20.4850 C   0  0  0  0  0  2  0  0  0  0  0  0
  -27.2810  -24.9200   21.9550 C   0  0  0  0  0  1  0  0  0  0  0  0
  -27.9680  -25.0080   20.5780 C   0  0  0  0  0  3  0  0  0  0  0  0
  -28.2830  -26.4710   20.3390 O   0  0  0  0  0  0  0  0  0  0  0  0
  -24.6030  -31.9970   23.2620 C   0  0  0  0  0  0  0  0  0  0  0  0
  -27.2050  -27.3870   20.2450 C   0  0  0  0  0  0  0  0  0  0  0  0
  -23.4020  -30.5850   21.6330 C   0  0  0  0  0  3  0  0  0  0  0  0
  -24.8530  -29.0370   20.2080 C   0  0  0  0  0  0  0  0  0  0  0  0
  -25.9430  -30.9000   21.4480 C   0  0  0  0  0  2  0  0  0  0  0  0
  -26.0260  -29.5180   20.8070 C   0  0  0  0  0  0  0  0  0  0  0  0
  -27.2060  -28.7070   20.8130 C   0  0  0  0  0  3  0  0  0  0  0  0
  -26.0140  -26.9870   19.5970 C   0  0  0  0  0  3  0  0  0  0  0  0
  -24.8530  -27.7800   19.5920 C   0  0  0  0  0  3  0  0  0  0  0  0
  -23.6140  -29.9080   20.2530 C   0  0  0  0  0  2  0  0  0  0  0  0
  -24.6670  -31.1780   22.1710 N   0  0  0  0  0  0  0  0  0  0  0  0
  -23.5210  -32.2730   23.8000 O   0  0  0  0  0  0  0  0  0  0  0  0
  -22.7410  -29.5710   22.5970 C   0  0  0  0  0  0  0  0  0  0  0  0
  -21.4160  -29.3910   22.4710 N   0  0  0  0  0  0  0  0  0  0  0  0
  -23.4230  -28.9520   23.4180 O   0  0  0  0  0  0  0  0  0  0  0  0
  -20.9300  -29.9410   21.7740 H   0  0  0  0  0  0  0  0  0  0  0  0
  -18.0480  -28.1730   22.9730 C   0  0  0  0  0  0  0  0  0  0  0  0
  -20.6020  -28.4580   23.2520 C   0  0  0  0  0  3  0  0  0  0  0  0
  -20.7180  -27.0210   22.6920 C   0  0  0  0  0  2  0  0  0  0  0  0
  -19.6240  -26.6770   21.6750 C   0  0  0  0  0  2  0  0  0  0  0  0
  -18.2370  -26.8200   22.3060 C   0  0  0  0  0  2  0  0  0  0  0  0
  -19.1590  -28.9480   23.4010 C   0  0  0  0  0  0  0  0  0  0  0  0
  -18.9270  -30.2130   23.9810 C   0  0  0  0  0  3  0  0  0  0  0  0
  -17.6190  -30.7060   24.1420 C   0  0  0  0  0  3  0  0  0  0  0  0
  -16.5220  -29.9290   23.7310 C   0  0  0  0  0  3  0  0  0  0  0  0
  -16.7400  -28.6670   23.1500 C   0  0  0  0  0  3  0  0  0  0  0  0
  -25.8830  -32.6390   23.8760 C   0  0  0  0  0  3  0  0  0  0  0  0
  -26.4030  -31.8810   25.1590 C   0  0  1  0  0  0  0  0  0  0  0  0
  -25.3100  -31.6460   26.2250 C   0  0  0  0  0  1  0  0  0  0  0  0
  -26.9960  -30.5040   24.7820 C   0  0  0  0  0  1  0  0  0  0  0  0
  -27.5440  -32.6880   25.8190 C   0  0  0  0  0  1  0  0  0  0  0  0
  -25.5710  -34.0400   24.1960 N   0  0  0  0  0  0  0  0  0  0  0  0
  -25.9120  -35.0890   23.4350 C   0  0  0  0  0  0  0  0  0  0  0  0
  -26.5900  -34.9800   22.4100 O   0  0  0  0  0  0  0  0  0  0  0  0
  -24.9720  -34.2010   24.9930 H   0  0  0  0  0  0  0  0  0  0  0  0
  -24.1980  -36.8920   23.0500 C   0  0  0  0  0  1  0  0  0  0  0  0
  -25.4220  -36.4800   23.8820 C   0  0  0  0  0  3  0  0  0  0  0  0
  -27.5470  -37.3610   24.7430 C   0  0  0  0  0  1  0  0  0  0  0  0
  -26.4600  -37.5280   23.7820 N   0  0  0  0  0  0  0  0  0  0  0  0
  -26.0550  -38.4500   23.9210 H   0  0  0  0  0  0  0  0  0  0  0  0
  1 50  1  0
  1  2  1  0
  2  4  1  0
  3  1  2  0
  5  9  1  0
  6 10  2  0
  8  5  2  0
  8  6  1  0
  9  2  1  0
  9  7  2  0
 10  7  1  0
 10 20  1  0
 11  8  1  0
 12 20  1  0
 13 18  1  0
 14 15  1  0
 14 13  1  0
 16 15  1  0
 16 25  1  0
 16 17  1  0
 18 12  1  0
 18 17  1  0
 19 12  2  0
 20 21  1  0
 22 23  2  0
 23 24  1  0
 23 42  1  0
 24 27  1  0
 25 22  1  0
 25 26  1  0
 26 24  2  0
 27 28  1  0
 28 29  2  0
 30 33  1  0
 30 29  1  0
 31 30  2  0
 32 31  1  0
 32 27  2  0
 33 34  1  0
 34 35  1  0
 35 36  2  0
 37 36  1  0
 37 41  1  0
 38 37  2  0
 39 34  2  0
 39 38  1  0
 40 39  1  0
 42 43  1  0
 43 46  1  0
 43 45  1  0
 44 42  2  0
 47 48  1  0
 47 22  1  0
 49 47  1  0
 50 52  1  0
 52 51  1  0
 53 52  1  0
 54 65  2  0
 55 53  1  0
 55 60  1  0
 56 64  1  0
 56 66  1  0
 57 63  1  0
 57 59  1  0
 58 64  1  0
 59 60  2  0
 59 58  1  0
 61 55  2  0
 62 61  1  0
 62 57  2  0
 63 56  1  0
 64 54  1  0
 66 68  2  0
 67 66  1  0
 69 67  1  0
 70 79  2  0
 70 75  1  0
 71 67  1  0
 71 75  1  0
 72 71  1  0
 73 74  1  0
 73 72  1  0
 74 70  1  0
 75 76  2  0
 76 77  1  0
 78 77  2  0
 79 78  1  0
 80 54  1  0
 80 85  1  0
 80 81  1  0
 81 84  1  1
 81 82  1  0
 83 81  1  0
 85 88  1  0
 86 90  1  0
 86 85  1  0
 87 86  2  0
 90 89  1  0
 92 90  1  0
 92 93  1  0
 92 91  1  0
M  ISO  4  12 100  20 100  52 101  53 101
M  END
>  <TORSDO>  (50) 
F 19

>  <SCORE>  (50) 
-13.922

>  <name>  (50) 
49

>  <ligand_id>  (50) 
49

>  <original_smiles>  (50) 
[H]c1c([H])c([H])c2c(c1[H])C([H])([H])C([H])([H])C([H])([H])C2([H])N([H])C(=O)C1([H])N(C(=O)C([H])(N([H])C(=O)C([H])(N([H])C([H])([H])[H])C([H])([H])[H])C(C([H])([H])[H])(C([H])([H])[H])C([H])([H])[H])C([H])([H])c2c([H])c(OC([H])(C([H])([H])[H])C([H])([H])C(=O)N([H])c3c([H])c(N([H])C(=O)N4C([H])([H])C([H])([H])C([H])([H])C([H])(n5nc(-c6c([H])c([H])c(Oc7c([H])c([H])c(F)c([H])c7F)c([H])c6[H])c(C(=O)N([H])[H])c5N([H])[H])C4([H])[H])c([H])c(C([H])([H])[H])c3[H])c([H])c([H])c2C1([H])[H]

>  <smiles>  (50) 
[H]c1c([H])c([H])c2c(c1[H])C([H])([H])C([H])([H])C([H])([H])C2([H])N([H])C(=O)C1([H])N(C(=O)C([H])(N([H])C(=O)C([H])(N([H])C([H])([H])[H])C([H])([H])[H])C(C([H])([H])[H])(C([H])([H])[H])C([H])([H])[H])C([H])([H])c2c([H])c(OC([H])(C([H])([H])[H])C([H])([H])C(=O)N([H])c3c([H])c(N([H])C(=O)N4C([H])([H])C([H])([H])C([H])([H])C([H])(n5nc(-c6c([H])c([H])c(Oc7c([H])c([H])c(F)c([H])c7F)c([H])c6[H])c(C(=O)N([H])[H])c5N([H])[H])C4([H])[H])c([H])c(C([H])([H])[H])c3[H])c([H])c([H])c2C1([H])[H]

$$$$
50:0:0
     RDKit          3D

 97105  0  0  1  0  0  0  0  0999 V2000
  -28.7870  -22.9030   19.9870 C   0  0  0  0  0  0  0  0  0  0  0  0
  -28.9570  -21.9510   20.9350 N   0  0  0  0  0  0  0  0  0  0  0  0
  -28.7770  -22.6310   18.7840 O   0  0  0  0  0  0  0  0  0  0  0  0
  -28.8830  -22.3730   21.8530 H   0  0  0  0  0  0  0  0  0  0  0  0
  -31.0120  -20.8260   21.5070 C   0  0  0  0  0  3  0  0  0  0  0  0
  -31.8470  -19.6990   21.5910 C   0  0  0  0  0  3  0  0  0  0  0  0
  -29.3440  -19.4910   20.3410 C   0  0  0  0  0  3  0  0  0  0  0  0
  -30.1800  -18.3260   20.4210 C   0  0  0  0  0  0  0  0  0  0  0  0
  -29.7560  -20.7530   20.8750 C   0  0  0  0  0  0  0  0  0  0  0  0
  -31.4490  -18.4620   21.0480 C   0  0  0  0  0  0  0  0  0  0  0  0
  -32.3570  -17.4090   21.1290 N   0  0  0  0  0  0  0  0  0  0  0  0
  -32.2230  -16.5720   20.5590 H   0  0  0  0  0  0  0  0  0  0  0  0
  -33.3260  -17.5950   21.3670 H   0  0  0  0  0  0  0  0  0  0  0  0
  -29.7570  -17.0020   19.7160 C   0  0  0  0  0  2  0  0  0  0  0  0
  -30.5850  -14.6240   20.0920 C   0  0  0  0  0  0  0  0  0  0  0  0
  -30.3070  -12.4160   19.0260 C   0  0  0  0  0  2  0  0  0  0  0  0
  -29.3130  -12.5870   17.8550 C   0  0  0  0  0  2  0  0  0  0  0  0
  -27.8540  -12.4490   18.3390 C   0  0  0  0  0  2  0  0  0  0  0  0
  -27.5600  -13.2910   19.6100 C   0  0  0  0  0  3  0  0  0  0  0  0
  -28.6620  -13.0990   20.6780 C   0  0  0  0  0  2  0  0  0  0  0  0
  -29.9560  -13.4120   20.0560 N   0  0  0  0  0  0  0  0  0  0  0  0
  -31.7120  -14.7920   19.6240 O   0  0  0  0  0  0  0  0  0  0  0  0
  -29.7990  -15.6860   20.4220 N   0  0  0  0  0  0  0  0  0  0  0  0
  -28.9410  -15.4360   20.8880 H   0  0  0  0  0  0  0  0  0  0  0  0
  -25.2020  -13.9000   20.4370 C   0  0  0  0  0  0  0  0  0  0  0  0
  -24.1450  -13.1300   20.8420 C   0  0  0  0  0  0  0  0  0  0  0  0
  -24.5960  -11.7750   20.7740 C   0  0  0  0  0  0  0  0  0  0  0  0
  -26.2290  -13.0140   20.1460 N   0  0  0  0  0  0  0  0  0  0  0  0
  -25.8720  -11.7320   20.4090 N   0  0  0  0  0  0  0  0  0  0  0  0
  -23.8700  -10.5150   20.9790 C   0  0  0  0  0  0  0  0  0  0  0  0
  -24.3210   -9.5410   21.8970 C   0  0  0  0  0  3  0  0  0  0  0  0
  -23.5920   -8.3470   22.0880 C   0  0  0  0  0  3  0  0  0  0  0  0
  -22.4020   -8.1170   21.3600 C   0  0  0  0  0  0  0  0  0  0  0  0
  -21.9710   -9.0790   20.4280 C   0  0  0  0  0  3  0  0  0  0  0  0
  -22.7000  -10.2640   20.2360 C   0  0  0  0  0  3  0  0  0  0  0  0
  -21.6440   -6.9740   21.4600 O   0  0  0  0  0  0  0  0  0  0  0  0
  -21.6090   -6.2340   22.6150 C   0  0  0  0  0  0  0  0  0  0  0  0
  -21.1880   -6.7890   23.8430 C   0  0  0  0  0  3  0  0  0  0  0  0
  -21.0980   -5.9750   24.9890 C   0  0  0  0  0  3  0  0  0  0  0  0
  -21.4240   -4.6080   24.9100 C   0  0  0  0  0  0  0  0  0  0  0  0
  -21.8400   -4.0530   23.6870 C   0  0  0  0  0  3  0  0  0  0  0  0
  -21.9300   -4.8640   22.5420 C   0  0  0  0  0  0  0  0  0  0  0  0
  -22.3090   -4.3190   21.3620 F   0  0  0  0  0  0  0  0  0  0  0  0
  -21.3320   -3.8230   26.0100 F   0  0  0  0  0  0  0  0  0  0  0  0
  -22.7640  -13.6130   21.1770 C   0  0  0  0  0  0  0  0  0  0  0  0
  -22.0630  -12.9050   22.0580 N   0  0  0  0  0  0  0  0  0  0  0  0
  -22.3120  -14.6510   20.6920 O   0  0  0  0  0  0  0  0  0  0  0  0
  -22.4380  -12.0650   22.4710 H   0  0  0  0  0  0  0  0  0  0  0  0
  -21.1390  -13.2110   22.3250 H   0  0  0  0  0  0  0  0  0  0  0  0
  -25.3700  -15.2710   20.2690 N   0  0  0  0  0  0  0  0  0  0  0  0
  -24.6160  -15.9330   20.4130 H   0  0  0  0  0  0  0  0  0  0  0  0
  -26.1990  -15.7030   19.8840 H   0  0  0  0  0  0  0  0  0  0  0  0
  -28.3370  -25.3480   19.7800 C   0  0  0  0  0  3  0  0  0  0  0  0
  -28.5980  -24.2620   20.5560 C   0  0  0  0  0  0  0  0  0  0  0  0
  -28.7250  -24.4390   21.8820 O   0  0  0  0  0  0  0  0  0  0  0  0
  -28.5770  -25.3620   22.0450 H   0  0  0  0  0  0  0  0  0  0  0  0
  -28.2960  -26.6560   20.2600 O   0  0  0  0  0  0  0  0  0  0  0  0
  -24.5990  -31.9580   23.3110 C   0  0  0  0  0  0  0  0  0  0  0  0
  -27.1430  -27.4300   20.2140 C   0  0  0  0  0  0  0  0  0  0  0  0
  -23.3600  -30.5780   21.6760 C   0  0  0  0  0  3  0  0  0  0  0  0
  -24.7780  -29.0090   20.2400 C   0  0  0  0  0  0  0  0  0  0  0  0
  -25.8930  -30.8810   21.4650 C   0  0  0  0  0  2  0  0  0  0  0  0
  -25.9510  -29.5050   20.8230 C   0  0  0  0  0  0  0  0  0  0  0  0
  -27.1320  -28.7200   20.8090 C   0  0  0  0  0  3  0  0  0  0  0  0
  -25.9500  -26.9640   19.6130 C   0  0  0  0  0  3  0  0  0  0  0  0
  -24.7760  -27.7420   19.6310 C   0  0  0  0  0  3  0  0  0  0  0  0
  -23.5490  -29.8900   20.2970 C   0  0  0  0  0  2  0  0  0  0  0  0
  -24.6370  -31.1540   22.2090 N   0  0  0  0  0  0  0  0  0  0  0  0
  -23.5250  -32.2490   23.8570 O   0  0  0  0  0  0  0  0  0  0  0  0
  -22.6940  -29.5710   22.6420 C   0  0  0  0  0  0  0  0  0  0  0  0
  -21.3700  -29.3900   22.5010 N   0  0  0  0  0  0  0  0  0  0  0  0
  -23.3660  -28.9550   23.4740 O   0  0  0  0  0  0  0  0  0  0  0  0
  -20.8880  -29.9370   21.8020 H   0  0  0  0  0  0  0  0  0  0  0  0
  -17.9950  -28.1820   22.9620 C   0  0  0  0  0  0  0  0  0  0  0  0
  -20.5460  -28.4600   23.2720 C   0  0  0  0  0  3  0  0  0  0  0  0
  -20.6650  -27.0200   22.7200 C   0  0  0  0  0  2  0  0  0  0  0  0
  -19.5830  -26.6770   21.6910 C   0  0  0  0  0  2  0  0  0  0  0  0
  -18.1900  -26.8240   22.3100 C   0  0  0  0  0  2  0  0  0  0  0  0
  -19.1020  -28.9560   23.4000 C   0  0  0  0  0  0  0  0  0  0  0  0
  -18.8680  -30.2260   23.9710 C   0  0  0  0  0  3  0  0  0  0  0  0
  -17.5590  -30.7250   24.1060 C   0  0  0  0  0  3  0  0  0  0  0  0
  -16.4660  -29.9500   23.6840 C   0  0  0  0  0  3  0  0  0  0  0  0
  -16.6840  -28.6800   23.1180 C   0  0  0  0  0  3  0  0  0  0  0  0
  -25.8960  -32.5690   23.9260 C   0  0  0  0  0  3  0  0  0  0  0  0
  -25.6150  -33.9740   24.2490 N   0  0  0  0  0  0  0  0  0  0  0  0
  -25.9440  -35.0150   23.4730 C   0  0  0  0  0  0  0  0  0  0  0  0
  -26.5850  -34.8940   22.4270 O   0  0  0  0  0  0  0  0  0  0  0  0
  -25.0420  -34.1430   25.0630 H   0  0  0  0  0  0  0  0  0  0  0  0
  -24.2190  -36.8220   23.1640 C   0  0  0  0  0  1  0  0  0  0  0  0
  -25.4870  -36.4140   23.9320 C   0  0  0  0  0  3  0  0  0  0  0  0
  -27.6580  -37.2900   24.6710 C   0  0  0  0  0  1  0  0  0  0  0  0
  -26.5240  -37.4560   23.7660 N   0  0  0  0  0  0  0  0  0  0  0  0
  -26.1310  -38.3820   23.9170 H   0  0  0  0  0  0  0  0  0  0  0  0
  -26.4040  -31.7940   25.2040 C   0  0  1  0  0  0  0  0  0  0  0  0
  -25.3090  -31.5850   26.2750 C   0  0  0  0  0  1  0  0  0  0  0  0
  -26.9590  -30.4040   24.8150 C   0  0  0  0  0  1  0  0  0  0  0  0
  -27.5680  -32.5730   25.8610 C   0  0  0  0  0  1  0  0  0  0  0  0
  1 54  1  0
  1  2  1  0
  2  4  1  0
  3  1  2  0
  5  6  1  0
  7  8  2  0
  7  9  1  0
  8 10  1  0
  9  2  1  0
  9  5  2  0
 10 11  1  0
 10  6  2  0
 11 13  1  0
 12 11  1  0
 14  8  1  0
 14 23  1  0
 15 23  1  0
 16 21  1  0
 17 18  1  0
 17 16  1  0
 19 18  1  0
 19 28  1  0
 19 20  1  0
 21 15  1  0
 21 20  1  0
 22 15  2  0
 23 24  1  0
 25 26  2  0
 26 45  1  0
 27 26  1  0
 27 30  1  0
 28 29  1  0
 28 25  1  0
 29 27  2  0
 30 31  1  0
 31 32  2  0
 33 36  1  0
 33 32  1  0
 34 33  2  0
 35 34  1  0
 35 30  2  0
 36 37  1  0
 37 38  1  0
 38 39  2  0
 40 39  1  0
 40 44  1  0
 41 40  2  0
 42 37  2  0
 42 41  1  0
 43 42  1  0
 45 46  1  0
 46 49  1  0
 46 48  1  0
 47 45  2  0
 50 51  1  0
 50 25  1  0
 52 50  1  0
 53 57  1  0
 53 54  2  0
 54 55  1  0
 55 56  1  0
 58 69  2  0
 59 57  1  0
 59 64  1  0
 60 68  1  0
 60 70  1  0
 61 67  1  0
 61 63  1  0
 62 68  1  0
 63 62  1  0
 64 63  2  0
 65 66  1  0
 65 59  2  0
 66 61  2  0
 67 60  1  0
 68 58  1  0
 70 72  2  0
 71 70  1  0
 73 71  1  0
 74 83  2  0
 74 79  1  0
 75 71  1  0
 75 79  1  0
 76 75  1  0
 77 78  1  0
 77 76  1  0
 78 74  1  0
 79 80  2  0
 80 81  1  0
 82 81  2  0
 83 82  1  0
 84 58  1  0
 84 85  1  0
 84 94  1  0
 85 88  1  0
 86 90  1  0
 86 85  1  0
 87 86  2  0
 90 89  1  0
 92 93  1  0
 92 90  1  0
 92 91  1  0
 94 97  1  1
 94 95  1  0
 96 94  1  0
M  ISO  4  15 100  23 100  53 101  57 101
M  END
>  <TORSDO>  (51) 
F 21

>  <SCORE>  (51) 
-13.891

>  <name>  (51) 
50

>  <ligand_id>  (51) 
50

>  <original_smiles>  (51) 
[H]OC(C(=O)N([H])c1c([H])c([H])c(N([H])[H])c(C([H])([H])N([H])C(=O)N2C([H])([H])C([H])([H])C([H])([H])C([H])(n3nc(-c4c([H])c([H])c(Oc5c([H])c([H])c(F)c([H])c5F)c([H])c4[H])c(C(=O)N([H])[H])c3N([H])[H])C2([H])[H])c1[H])=C([H])Oc1c([H])c([H])c2c(c1[H])C([H])([H])N(C(=O)C([H])(N([H])C(=O)C([H])(N([H])C([H])([H])[H])C([H])([H])[H])C(C([H])([H])[H])(C([H])([H])[H])C([H])([H])[H])C([H])(C(=O)N([H])C1([H])c3c([H])c([H])c([H])c([H])c3C([H])([H])C([H])([H])C1([H])[H])C2([H])[H]

>  <smiles>  (51) 
[H]OC(C(=O)N([H])c1c([H])c([H])c(N([H])[H])c(C([H])([H])N([H])C(=O)N2C([H])([H])C([H])([H])C([H])([H])C([H])(n3nc(-c4c([H])c([H])c(Oc5c([H])c([H])c(F)c([H])c5F)c([H])c4[H])c(C(=O)N([H])[H])c3N([H])[H])C2([H])[H])c1[H])=C([H])Oc1c([H])c([H])c2c(c1[H])C([H])([H])N(C(=O)C([H])(N([H])C(=O)C([H])(N([H])C([H])([H])[H])C([H])([H])[H])C(C([H])([H])[H])(C([H])([H])[H])C([H])([H])[H])C([H])(C(=O)N([H])C1([H])c3c([H])c([H])c([H])c([H])c3C([H])([H])C([H])([H])C1([H])[H])C2([H])[H]

$$$$
51:0:0
     RDKit          3D

 93102  0  0  1  0  0  0  0  0999 V2000
  -29.6350  -22.5120   18.2870 C   0  0  0  0  0  0  0  0  0  0  0  0
  -29.5260  -23.9900   17.8650 C   0  0  0  0  0  2  0  0  0  0  0  0
  -28.1980  -24.6350   18.2760 C   0  0  0  0  0  2  0  0  0  0  0  0
  -28.8370  -23.3500   20.4220 C   0  0  0  0  0  2  0  0  0  0  0  0
  -28.0730  -24.7150   19.8010 C   0  0  0  0  0  3  0  0  0  0  0  0
  -29.1920  -22.1080   19.5190 N   0  0  0  0  0  0  0  0  0  0  0  0
  -30.1640  -21.7590   17.4620 O   0  0  0  0  0  0  0  0  0  0  0  0
  -29.0170  -19.5170   18.9880 C   0  0  0  0  0  3  0  0  0  0  0  0
  -29.2790  -18.0990   19.1850 C   0  0  0  0  0  3  0  0  0  0  0  0
  -30.2190  -18.6300   21.2670 C   0  0  0  0  0  3  0  0  0  0  0  0
  -29.9850  -20.0570   21.0650 C   0  0  0  0  0  0  0  0  0  0  0  0
  -29.3750  -20.6030   19.8810 C   0  0  0  0  0  0  0  0  0  0  0  0
  -29.9110  -17.5550   20.3470 C   0  0  0  0  0  0  0  0  0  0  0  0
  -30.4450  -21.0020   22.1590 C   0  0  0  0  0  1  0  0  0  0  0  0
  -30.6600  -14.9630   19.9560 C   0  0  0  0  0  0  0  0  0  0  0  0
  -30.4190  -12.6660   18.8970 C   0  0  0  0  0  2  0  0  0  0  0  0
  -29.3990  -12.6890   17.7340 C   0  0  0  0  0  2  0  0  0  0  0  0
  -27.9710  -12.4630   18.2600 C   0  0  0  0  0  2  0  0  0  0  0  0
  -27.6600  -13.3420   19.4980 C   0  0  0  0  0  3  0  0  0  0  0  0
  -28.7870  -13.2830   20.5460 C   0  0  0  0  0  2  0  0  0  0  0  0
  -30.0330  -13.7150   19.8890 N   0  0  0  0  0  0  0  0  0  0  0  0
  -31.7470  -15.0790   19.3780 O   0  0  0  0  0  0  0  0  0  0  0  0
  -30.2110  -15.8140   22.1310 C   0  0  0  0  0  1  0  0  0  0  0  0
  -30.1070  -16.0580   20.6830 N   0  0  0  0  0  0  0  0  0  0  0  0
  -25.3510  -13.9050   20.4490 C   0  0  0  0  0  0  0  0  0  0  0  0
  -24.3100  -13.1220   20.8670 C   0  0  0  0  0  0  0  0  0  0  0  0
  -24.7570  -11.7710   20.7390 C   0  0  0  0  0  0  0  0  0  0  0  0
  -26.3600  -13.0310   20.0840 N   0  0  0  0  0  0  0  0  0  0  0  0
  -26.0180  -11.7390   20.3230 N   0  0  0  0  0  0  0  0  0  0  0  0
  -24.0340  -10.5060   20.9320 C   0  0  0  0  0  0  0  0  0  0  0  0
  -24.4720   -9.5380   21.8630 C   0  0  0  0  0  3  0  0  0  0  0  0
  -23.7470   -8.3400   22.0420 C   0  0  0  0  0  3  0  0  0  0  0  0
  -22.5720   -8.1000   21.2910 C   0  0  0  0  0  0  0  0  0  0  0  0
  -22.1530   -9.0580   20.3510 C   0  0  0  0  0  3  0  0  0  0  0  0
  -22.8780  -10.2470   20.1690 C   0  0  0  0  0  3  0  0  0  0  0  0
  -21.8190   -6.9540   21.3810 O   0  0  0  0  0  0  0  0  0  0  0  0
  -21.6970   -6.2640   22.5600 C   0  0  0  0  0  0  0  0  0  0  0  0
  -21.1700   -6.8650   23.7240 C   0  0  0  0  0  3  0  0  0  0  0  0
  -20.9970   -6.0990   24.8950 C   0  0  0  0  0  3  0  0  0  0  0  0
  -21.3400   -4.7340   24.9010 C   0  0  0  0  0  0  0  0  0  0  0  0
  -21.8580   -4.1330   23.7410 C   0  0  0  0  0  3  0  0  0  0  0  0
  -22.0330   -4.8950   22.5730 C   0  0  0  0  0  0  0  0  0  0  0  0
  -22.5130   -4.3050   21.4520 F   0  0  0  0  0  0  0  0  0  0  0  0
  -21.1650   -3.9960   26.0230 F   0  0  0  0  0  0  0  0  0  0  0  0
  -22.9450  -13.5960   21.2720 C   0  0  0  0  0  0  0  0  0  0  0  0
  -22.2920  -12.8830   22.1810 N   0  0  0  0  0  0  0  0  0  0  0  0
  -22.4690  -14.6340   20.8140 O   0  0  0  0  0  0  0  0  0  0  0  0
  -22.6920  -12.0440   22.5730 H   0  0  0  0  0  0  0  0  0  0  0  0
  -21.3780  -13.1810   22.4920 H   0  0  0  0  0  0  0  0  0  0  0  0
  -25.5150  -15.2820   20.3250 N   0  0  0  0  0  0  0  0  0  0  0  0
  -24.7730  -15.9380   20.5400 H   0  0  0  0  0  0  0  0  0  0  0  0
  -26.3550  -15.7310   19.9810 H   0  0  0  0  0  0  0  0  0  0  0  0
  -28.2590  -26.2080   20.2060 O   0  0  0  0  0  0  0  0  0  0  0  0
  -24.6090  -31.8750   23.1640 C   0  0  0  0  0  0  0  0  0  0  0  0
  -27.2030  -27.1870   20.1150 C   0  0  0  0  0  0  0  0  0  0  0  0
  -23.4170  -30.4860   21.5140 C   0  0  0  0  0  3  0  0  0  0  0  0
  -24.8730  -28.9270   20.0850 C   0  0  0  0  0  0  0  0  0  0  0  0
  -25.9720  -30.7570   21.3630 C   0  0  0  0  0  2  0  0  0  0  0  0
  -26.0480  -29.3700   20.7030 C   0  0  0  0  0  0  0  0  0  0  0  0
  -27.2120  -28.5150   20.7050 C   0  0  0  0  0  3  0  0  0  0  0  0
  -26.0010  -26.8530   19.4490 C   0  0  0  0  0  3  0  0  0  0  0  0
  -24.8600  -27.6810   19.4440 C   0  0  0  0  0  3  0  0  0  0  0  0
  -23.6430  -29.8200   20.1320 C   0  0  0  0  0  2  0  0  0  0  0  0
  -24.6860  -31.0610   22.0680 N   0  0  0  0  0  0  0  0  0  0  0  0
  -23.5200  -32.1560   23.6890 O   0  0  0  0  0  0  0  0  0  0  0  0
  -22.7380  -29.4720   22.4680 C   0  0  0  0  0  0  0  0  0  0  0  0
  -21.4100  -29.3010   22.3360 N   0  0  0  0  0  0  0  0  0  0  0  0
  -23.4080  -28.8410   23.2890 O   0  0  0  0  0  0  0  0  0  0  0  0
  -20.9270  -29.8630   21.6490 H   0  0  0  0  0  0  0  0  0  0  0  0
  -18.0250  -28.1130   22.8340 C   0  0  0  0  0  0  0  0  0  0  0  0
  -20.5850  -28.3620   23.1000 C   0  0  0  0  0  3  0  0  0  0  0  0
  -20.6790  -26.9330   22.5130 C   0  0  0  0  0  2  0  0  0  0  0  0
  -19.5740  -26.6240   21.4980 C   0  0  0  0  0  2  0  0  0  0  0  0
  -18.1940  -26.7690   22.1450 C   0  0  0  0  0  2  0  0  0  0  0  0
  -19.1470  -28.8670   23.2680 C   0  0  0  0  0  0  0  0  0  0  0  0
  -18.9330  -30.1240   23.8740 C   0  0  0  0  0  3  0  0  0  0  0  0
  -17.6310  -30.6280   24.0490 C   0  0  0  0  0  3  0  0  0  0  0  0
  -16.5230  -29.8710   23.6300 C   0  0  0  0  0  3  0  0  0  0  0  0
  -16.7200  -28.6150   23.0280 C   0  0  0  0  0  3  0  0  0  0  0  0
  -25.8840  -32.5100   23.7990 C   0  0  0  0  0  3  0  0  0  0  0  0
  -25.5650  -33.9020   24.1460 N   0  0  0  0  0  0  0  0  0  0  0  0
  -25.8780  -34.9690   23.3980 C   0  0  0  0  0  0  0  0  0  0  0  0
  -26.5330  -34.8840   22.3570 O   0  0  0  0  0  0  0  0  0  0  0  0
  -24.9810  -34.0420   24.9580 H   0  0  0  0  0  0  0  0  0  0  0  0
  -24.1310  -36.7550   23.0940 C   0  0  0  0  0  1  0  0  0  0  0  0
  -25.3870  -36.3490   23.8810 C   0  0  0  0  0  3  0  0  0  0  0  0
  -27.5250  -37.2440   24.6930 C   0  0  0  0  0  1  0  0  0  0  0  0
  -26.4100  -37.4120   23.7650 N   0  0  0  0  0  0  0  0  0  0  0  0
  -25.9970  -38.3280   23.9270 H   0  0  0  0  0  0  0  0  0  0  0  0
  -26.3960  -31.7290   25.0720 C   0  0  1  0  0  0  0  0  0  0  0  0
  -25.2980  -31.4770   26.1320 C   0  0  0  0  0  1  0  0  0  0  0  0
  -26.9880  -30.3580   24.6760 C   0  0  0  0  0  1  0  0  0  0  0  0
  -27.5390  -32.5230   25.7480 C   0  0  0  0  0  1  0  0  0  0  0  0
  1  6  1  0
  2  3  1  0
  2  1  1  0
  3  5  1  0
  5 53  1  0
  5  4  1  0
  6 12  1  0
  6  4  1  0
  7  1  2  0
  8  9  2  0
  8 12  1  0
  9 13  1  0
 11 10  1  0
 11 14  1  0
 12 11  2  0
 13 24  1  0
 13 10  2  0
 15 24  1  0
 16 21  1  0
 17 18  1  0
 17 16  1  0
 19 18  1  0
 19 28  1  0
 19 20  1  0
 21 15  1  0
 21 20  1  0
 22 15  2  0
 24 23  1  0
 25 26  2  0
 26 45  1  0
 27 26  1  0
 27 30  1  0
 28 29  1  0
 28 25  1  0
 29 27  2  0
 30 31  1  0
 31 32  2  0
 33 36  1  0
 33 32  1  0
 34 33  2  0
 35 34  1  0
 35 30  2  0
 36 37  1  0
 37 42  2  0
 37 38  1  0
 38 39  2  0
 39 40  1  0
 40 44  1  0
 41 40  2  0
 42 41  1  0
 43 42  1  0
 45 46  1  0
 46 49  1  0
 46 48  1  0
 47 45  2  0
 50 25  1  0
 50 51  1  0
 52 50  1  0
 54 65  2  0
 55 53  1  0
 55 60  1  0
 56 64  1  0
 56 66  1  0
 57 63  1  0
 57 59  1  0
 58 64  1  0
 59 60  2  0
 59 58  1  0
 61 55  2  0
 62 61  1  0
 62 57  2  0
 63 56  1  0
 64 54  1  0
 66 68  2  0
 67 66  1  0
 69 67  1  0
 70 79  2  0
 70 75  1  0
 71 67  1  0
 71 75  1  0
 72 71  1  0
 73 74  1  0
 73 72  1  0
 74 70  1  0
 75 76  2  0
 76 77  1  0
 78 77  2  0
 79 78  1  0
 80 54  1  0
 80 81  1  0
 80 90  1  0
 81 84  1  0
 82 86  1  0
 82 81  1  0
 83 82  2  0
 86 85  1  0
 88 86  1  0
 88 89  1  0
 88 87  1  0
 90 93  1  1
 90 91  1  0
 92 90  1  0
M  ISO  4   5 101  15 100  24 100  53 101
M  END
>  <TORSDO>  (52) 
F 17

>  <SCORE>  (52) 
-14.639

>  <name>  (52) 
51

>  <ligand_id>  (52) 
51

>  <original_smiles>  (52) 
[H]c1c([H])c([H])c2c(c1[H])C([H])([H])C([H])([H])C([H])([H])C2([H])N([H])C(=O)C1([H])N(C(=O)C([H])(N([H])C(=O)C([H])(N([H])C([H])([H])[H])C([H])([H])[H])C(C([H])([H])[H])(C([H])([H])[H])C([H])([H])[H])C([H])([H])c2c([H])c(OC3([H])C([H])([H])N(c4c([H])c([H])c(N(C(=O)N5C([H])([H])C([H])([H])C([H])([H])C([H])(n6nc(-c7c([H])c([H])c(Oc8c([H])c([H])c(F)c([H])c8F)c([H])c7[H])c(C(=O)N([H])[H])c6N([H])[H])C5([H])[H])C([H])([H])[H])c([H])c4C([H])([H])[H])C(=O)C([H])([H])C3([H])[H])c([H])c([H])c2C1([H])[H]

>  <smiles>  (52) 
[H]c1c([H])c([H])c2c(c1[H])C([H])([H])C([H])([H])C([H])([H])C2([H])N([H])C(=O)C1([H])N(C(=O)C([H])(N([H])C(=O)C([H])(N([H])C([H])([H])[H])C([H])([H])[H])C(C([H])([H])[H])(C([H])([H])[H])C([H])([H])[H])C([H])([H])c2c([H])c(OC3([H])C([H])([H])N(c4c([H])c([H])c(N(C(=O)N5C([H])([H])C([H])([H])C([H])([H])C([H])(n6nc(-c7c([H])c([H])c(Oc8c([H])c([H])c(F)c([H])c8F)c([H])c7[H])c(C(=O)N([H])[H])c6N([H])[H])C5([H])[H])C([H])([H])[H])c([H])c4C([H])([H])[H])C(=O)C([H])([H])C3([H])[H])c([H])c([H])c2C1([H])[H]

$$$$
52:0:0
     RDKit          3D

 98106  0  0  1  0  0  0  0  0999 V2000
  -29.4320  -20.5610   19.6330 C   0  0  0  0  0  0  0  0  0  0  0  0
  -29.3820  -20.3990   18.3110 N   0  0  0  0  0  4  0  0  0  0  0  0
  -29.1140  -21.7850   20.1330 N   0  0  0  0  0  0  0  0  0  0  0  0
  -29.5420  -19.4630   17.9590 H   0  0  0  0  0  0  0  0  0  0  0  0
  -29.1230  -21.1260   17.6670 H   0  0  0  0  0  0  0  0  0  0  0  0
  -29.0560  -21.8580   21.1400 H   0  0  0  0  0  0  0  0  0  0  0  0
  -30.7420  -19.7330   21.5540 C   0  0  0  0  0  3  0  0  0  0  0  0
  -31.0060  -17.3730   22.1220 C   0  0  0  0  0  3  0  0  0  0  0  0
  -29.8810  -19.4180   20.4810 C   0  0  0  0  0  0  0  0  0  0  0  0
  -30.1500  -17.0130   21.0610 C   0  0  0  0  0  0  0  0  0  0  0  0
  -29.5760  -18.0290   20.2420 C   0  0  0  0  0  0  0  0  0  0  0  0
  -31.2970  -18.7270   22.3660 C   0  0  0  0  0  0  0  0  0  0  0  0
  -32.1180  -19.0700   23.3880 F   0  0  0  0  0  0  0  0  0  0  0  0
  -30.5400  -14.6560   20.3480 C   0  0  0  0  0  0  0  0  0  0  0  0
  -30.2720  -12.5190   19.1340 C   0  0  0  0  0  2  0  0  0  0  0  0
  -29.2820  -12.7250   17.9680 C   0  0  0  0  0  2  0  0  0  0  0  0
  -27.8250  -12.5370   18.4420 C   0  0  0  0  0  2  0  0  0  0  0  0
  -27.5100  -13.3310   19.7380 C   0  0  0  0  0  3  0  0  0  0  0  0
  -28.6060  -13.1010   20.8020 C   0  0  0  0  0  2  0  0  0  0  0  0
  -29.9000  -13.4620   20.1990 N   0  0  0  0  0  0  0  0  0  0  0  0
  -31.6630  -14.8770   19.8860 O   0  0  0  0  0  0  0  0  0  0  0  0
  -29.7850  -15.6390   20.8800 N   0  0  0  0  0  0  0  0  0  0  0  0
  -28.8330  -15.3960   21.1060 H   0  0  0  0  0  0  0  0  0  0  0  0
  -25.1260  -13.8790   20.5340 C   0  0  0  0  0  0  0  0  0  0  0  0
  -24.0830  -13.0770   20.9170 C   0  0  0  0  0  0  0  0  0  0  0  0
  -24.5700  -11.7370   20.8430 C   0  0  0  0  0  0  0  0  0  0  0  0
  -26.1790  -13.0220   20.2520 N   0  0  0  0  0  0  0  0  0  0  0  0
  -25.8500  -11.7280   20.4950 N   0  0  0  0  0  0  0  0  0  0  0  0
  -23.8740  -10.4550   21.0280 C   0  0  0  0  0  0  0  0  0  0  0  0
  -24.3330   -9.4920   21.9520 C   0  0  0  0  0  3  0  0  0  0  0  0
  -23.6380   -8.2770   22.1250 C   0  0  0  0  0  3  0  0  0  0  0  0
  -22.4700   -8.0160   21.3730 C   0  0  0  0  0  0  0  0  0  0  0  0
  -22.0290   -8.9680   20.4360 C   0  0  0  0  0  3  0  0  0  0  0  0
  -22.7250  -10.1750   20.2620 C   0  0  0  0  0  3  0  0  0  0  0  0
  -21.7440   -6.8510   21.4550 O   0  0  0  0  0  0  0  0  0  0  0  0
  -21.7000   -6.1090   22.6090 C   0  0  0  0  0  0  0  0  0  0  0  0
  -21.2130   -6.6460   23.8200 C   0  0  0  0  0  3  0  0  0  0  0  0
  -21.1190   -5.8290   24.9640 C   0  0  0  0  0  3  0  0  0  0  0  0
  -21.5050   -4.4770   24.8990 C   0  0  0  0  0  0  0  0  0  0  0  0
  -21.9850   -3.9400   23.6910 C   0  0  0  0  0  3  0  0  0  0  0  0
  -22.0800   -4.7530   22.5490 C   0  0  0  0  0  0  0  0  0  0  0  0
  -22.5240   -4.2250   21.3830 F   0  0  0  0  0  0  0  0  0  0  0  0
  -21.4070   -3.6890   25.9950 F   0  0  0  0  0  0  0  0  0  0  0  0
  -22.6860  -13.5210   21.2410 C   0  0  0  0  0  0  0  0  0  0  0  0
  -21.9940  -12.7860   22.1050 N   0  0  0  0  0  0  0  0  0  0  0  0
  -22.2160  -14.5530   20.7650 O   0  0  0  0  0  0  0  0  0  0  0  0
  -22.3880  -11.9520   22.5150 H   0  0  0  0  0  0  0  0  0  0  0  0
  -21.0580  -13.0640   22.3630 H   0  0  0  0  0  0  0  0  0  0  0  0
  -25.2560  -15.2570   20.3820 N   0  0  0  0  0  0  0  0  0  0  0  0
  -24.4750  -15.8860   20.5240 H   0  0  0  0  0  0  0  0  0  0  0  0
  -26.0760  -15.7250   20.0210 H   0  0  0  0  0  0  0  0  0  0  0  0
  -28.7430  -17.5990   19.2030 N   0  0  0  0  0  0  0  0  0  0  0  0
  -27.9370  -18.1630   18.9530 H   0  0  0  0  0  0  0  0  0  0  0  0
  -28.5570  -16.6070   19.1370 H   0  0  0  0  0  0  0  0  0  0  0  0
  -28.7460  -23.0070   19.3520 C   0  0  0  0  0  2  0  0  0  0  0  0
  -28.5370  -24.3060   20.1860 C   0  0  0  0  0  2  0  0  0  0  0  0
  -28.4820  -25.5930   19.3090 C   0  0  0  0  0  2  0  0  0  0  0  0
  -28.3180  -26.8260   20.0470 O   0  0  0  0  0  0  0  0  0  0  0  0
  -24.5200  -31.9630   23.2310 C   0  0  0  0  0  0  0  0  0  0  0  0
  -27.1190  -27.5250   20.0580 C   0  0  0  0  0  0  0  0  0  0  0  0
  -23.2880  -30.5710   21.6010 C   0  0  0  0  0  3  0  0  0  0  0  0
  -24.7170  -29.0450   20.1370 C   0  0  0  0  0  0  0  0  0  0  0  0
  -25.8120  -30.9290   21.3610 C   0  0  0  0  0  2  0  0  0  0  0  0
  -25.8870  -29.5610   20.7060 C   0  0  0  0  0  0  0  0  0  0  0  0
  -27.0850  -28.8080   20.6640 C   0  0  0  0  0  3  0  0  0  0  0  0
  -25.9170  -27.0210   19.5070 C   0  0  0  0  0  3  0  0  0  0  0  0
  -24.7280  -27.7740   19.5390 C   0  0  0  0  0  3  0  0  0  0  0  0
  -23.4720  -29.9030   20.2130 C   0  0  0  0  0  2  0  0  0  0  0  0
  -24.5600  -31.1700   22.1220 N   0  0  0  0  0  0  0  0  0  0  0  0
  -23.4480  -32.2280   23.7920 O   0  0  0  0  0  0  0  0  0  0  0  0
  -22.6560  -29.5410   22.5650 C   0  0  0  0  0  0  0  0  0  0  0  0
  -21.3330  -29.3420   22.4470 N   0  0  0  0  0  0  0  0  0  0  0  0
  -23.3530  -28.9230   23.3750 O   0  0  0  0  0  0  0  0  0  0  0  0
  -20.8290  -29.8930   21.7660 H   0  0  0  0  0  0  0  0  0  0  0  0
  -17.9790  -28.0990   22.9640 C   0  0  0  0  0  0  0  0  0  0  0  0
  -20.5340  -28.3930   23.2230 C   0  0  0  0  0  3  0  0  0  0  0  0
  -20.6530  -26.9630   22.6450 C   0  0  0  0  0  2  0  0  0  0  0  0
  -19.5510  -26.6250   21.6370 C   0  0  0  0  0  2  0  0  0  0  0  0
  -18.1710  -26.7510   22.2880 C   0  0  0  0  0  2  0  0  0  0  0  0
  -19.0890  -28.8760   23.3890 C   0  0  0  0  0  0  0  0  0  0  0  0
  -18.8560  -30.1370   23.9790 C   0  0  0  0  0  3  0  0  0  0  0  0
  -17.5470  -30.6210   24.1500 C   0  0  0  0  0  3  0  0  0  0  0  0
  -16.4510  -29.8410   23.7440 C   0  0  0  0  0  3  0  0  0  0  0  0
  -16.6670  -28.5810   23.1570 C   0  0  0  0  0  3  0  0  0  0  0  0
  -25.8150  -32.5940   23.8320 C   0  0  0  0  0  3  0  0  0  0  0  0
  -25.5160  -33.9960   24.1550 N   0  0  0  0  0  0  0  0  0  0  0  0
  -25.8590  -35.0430   23.3930 C   0  0  0  0  0  0  0  0  0  0  0  0
  -26.5330  -34.9310   22.3650 O   0  0  0  0  0  0  0  0  0  0  0  0
  -24.9220  -34.1580   24.9560 H   0  0  0  0  0  0  0  0  0  0  0  0
  -24.1640  -36.8590   22.9990 C   0  0  0  0  0  1  0  0  0  0  0  0
  -25.3790  -36.4370   23.8420 C   0  0  0  0  0  3  0  0  0  0  0  0
  -27.5000  -37.2920   24.7350 C   0  0  0  0  0  1  0  0  0  0  0  0
  -26.4300  -37.4750   23.7580 N   0  0  0  0  0  0  0  0  0  0  0  0
  -26.0330  -38.4020   23.8920 H   0  0  0  0  0  0  0  0  0  0  0  0
  -26.3460  -31.8300   25.1060 C   0  0  1  0  0  0  0  0  0  0  0  0
  -25.2670  -31.5990   26.1890 C   0  0  0  0  0  1  0  0  0  0  0  0
  -26.9240  -30.4510   24.7140 C   0  0  0  0  0  1  0  0  0  0  0  0
  -27.5060  -32.6280   25.7480 C   0  0  0  0  0  1  0  0  0  0  0  0
  1  3  1  0
  1  9  1  0
  2  1  2  0
  3  6  1  0
  4  2  1  0
  5  2  1  0
  7 12  1  0
  8 12  2  0
  9  7  2  0
 10  8  1  0
 11  9  1  0
 11 10  2  0
 12 13  1  0
 14 22  1  0
 15 20  1  0
 16 17  1  0
 16 15  1  0
 18 17  1  0
 18 27  1  0
 18 19  1  0
 20 14  1  0
 20 19  1  0
 21 14  2  0
 22 10  1  0
 22 23  1  0
 24 25  2  0
 25 44  1  0
 26 25  1  0
 26 29  1  0
 27 28  1  0
 27 24  1  0
 28 26  2  0
 29 30  1  0
 30 31  2  0
 32 35  1  0
 32 31  1  0
 33 32  2  0
 34 33  1  0
 34 29  2  0
 35 36  1  0
 36 37  1  0
 37 38  2  0
 39 38  1  0
 39 43  1  0
 40 39  2  0
 41 36  2  0
 41 40  1  0
 42 41  1  0
 44 45  1  0
 45 48  1  0
 45 47  1  0
 46 44  2  0
 49 50  1  0
 49 24  1  0
 51 49  1  0
 52 11  1  0
 53 52  1  0
 54 52  1  0
 55  3  1  0
 55 56  1  0
 57 58  1  0
 57 56  1  0
 58 60  1  0
 59 70  2  0
 60 65  1  0
 61 69  1  0
 61 71  1  0
 62 68  1  0
 62 64  1  0
 63 69  1  0
 64 63  1  0
 65 64  2  0
 66 67  1  0
 66 60  2  0
 67 62  2  0
 68 61  1  0
 69 59  1  0
 71 73  2  0
 72 71  1  0
 74 72  1  0
 75 84  2  0
 75 80  1  0
 76 72  1  0
 76 80  1  0
 77 76  1  0
 78 79  1  0
 78 77  1  0
 79 75  1  0
 80 81  2  0
 81 82  1  0
 83 82  2  0
 84 83  1  0
 85 59  1  0
 85 86  1  0
 85 95  1  0
 86 89  1  0
 87 91  1  0
 87 86  1  0
 88 87  2  0
 91 90  1  0
 93 91  1  0
 93 94  1  0
 93 92  1  0
 95 98  1  1
 95 96  1  0
 97 95  1  0
M  ISO  4  14 100  22 100  57 101  58 101
M  END
>  <TORSDO>  (53) 
F 21

>  <SCORE>  (53) 
-13.649

>  <name>  (53) 
52

>  <ligand_id>  (53) 
52

>  <original_smiles>  (53) 
[H]c1c([H])c([H])c2c(c1[H])C([H])([H])C([H])([H])C([H])([H])C2([H])N([H])C(=O)C1([H])N(C(=O)C([H])(N([H])C(=O)C([H])(N([H])C([H])([H])[H])C([H])([H])[H])C(C([H])([H])[H])(C([H])([H])[H])C([H])([H])[H])C([H])([H])c2c([H])c(OC([H])([H])C([H])([H])C([H])([H])[N+]([H])=C(c3c([H])c(F)c([H])c(N([H])C(=O)N4C([H])([H])C([H])([H])C([H])([H])C([H])(n5nc(-c6c([H])c([H])c(Oc7c([H])c([H])c(F)c([H])c7F)c([H])c6[H])c(C(=O)N([H])[H])c5N([H])[H])C4([H])[H])c3N([H])[H])N([H])[H])c([H])c([H])c2C1([H])[H]

>  <smiles>  (53) 
[H]c1c([H])c([H])c2c(c1[H])C([H])([H])C([H])([H])C([H])([H])C2([H])N([H])C(=O)C1([H])N(C(=O)C([H])(N([H])C(=O)C([H])(N([H])C([H])([H])[H])C([H])([H])[H])C(C([H])([H])[H])(C([H])([H])[H])C([H])([H])[H])C([H])([H])c2c([H])c(OC([H])([H])C([H])([H])C([H])([H])[N+]([H])=C(c3c([H])c(F)c([H])c(N([H])C(=O)N4C([H])([H])C([H])([H])C([H])([H])C([H])(n5nc(-c6c([H])c([H])c(Oc7c([H])c([H])c(F)c([H])c7F)c([H])c6[H])c(C(=O)N([H])[H])c5N([H])[H])C4([H])[H])c3N([H])[H])N([H])[H])c([H])c([H])c2C1([H])[H]

$$$$
53:0:0
     RDKit          3D

 99107  0  0  1  0  0  0  0  0999 V2000
  -28.9660  -20.7710   20.9910 C   0  0  0  0  0  0  0  0  0  0  0  0
  -29.1830  -21.9310   20.3320 N   0  0  0  0  0  0  0  0  0  0  0  0
  -27.9450  -20.5640   21.6480 O   0  0  0  0  0  0  0  0  0  0  0  0
  -30.0770  -22.0270   19.8680 H   0  0  0  0  0  0  0  0  0  0  0  0
  -29.6640  -18.3060   20.9650 C   0  0  0  0  0  3  0  0  0  0  0  0
  -32.0060  -17.6690   20.9900 C   0  0  0  0  0  3  0  0  0  0  0  0
  -30.0230  -19.6870   20.9050 C   0  0  0  0  0  0  0  0  0  0  0  0
  -32.3780  -19.0250   20.9200 C   0  0  0  0  0  0  0  0  0  0  0  0
  -30.6440  -17.2700   20.9870 C   0  0  0  0  0  0  0  0  0  0  0  0
  -31.3940  -20.0300   20.8710 C   0  0  0  0  0  0  0  0  0  0  0  0
  -33.8450  -19.4100   20.9220 C   0  0  0  0  0  1  0  0  0  0  0  0
  -31.7890  -21.3270   20.8230 F   0  0  0  0  0  0  0  0  0  0  0  0
  -30.9060  -14.7760   20.6010 C   0  0  0  0  0  0  0  0  0  0  0  0
  -30.5860  -12.5920   19.5000 C   0  0  0  0  0  2  0  0  0  0  0  0
  -29.7060  -12.7920   18.2480 C   0  0  0  0  0  2  0  0  0  0  0  0
  -28.2160  -12.6770   18.6200 C   0  0  0  0  0  2  0  0  0  0  0  0
  -27.8380  -13.5400   19.8550 C   0  0  0  0  0  3  0  0  0  0  0  0
  -28.8490  -13.3570   21.0120 C   0  0  0  0  0  2  0  0  0  0  0  0
  -30.1950  -13.6200   20.4830 N   0  0  0  0  0  0  0  0  0  0  0  0
  -32.0650  -14.8440   20.1910 O   0  0  0  0  0  0  0  0  0  0  0  0
  -30.2340  -15.8790   21.0280 N   0  0  0  0  0  0  0  0  0  0  0  0
  -29.2750  -15.7060   21.2880 H   0  0  0  0  0  0  0  0  0  0  0  0
  -25.4320  -14.1750   20.4960 C   0  0  0  0  0  0  0  0  0  0  0  0
  -24.3370  -13.4180   20.8140 C   0  0  0  0  0  0  0  0  0  0  0  0
  -24.7730  -12.0570   20.7740 C   0  0  0  0  0  0  0  0  0  0  0  0
  -26.4670  -13.2800   20.2860 N   0  0  0  0  0  0  0  0  0  0  0  0
  -26.0730  -11.9990   20.5120 N   0  0  0  0  0  0  0  0  0  0  0  0
  -24.0150  -10.8070   20.9140 C   0  0  0  0  0  0  0  0  0  0  0  0
  -24.4260   -9.7920   21.8050 C   0  0  0  0  0  3  0  0  0  0  0  0
  -23.6700   -8.6060   21.9360 C   0  0  0  0  0  3  0  0  0  0  0  0
  -22.4900   -8.4290   21.1740 C   0  0  0  0  0  0  0  0  0  0  0  0
  -22.1000   -9.4330   20.2710 C   0  0  0  0  0  3  0  0  0  0  0  0
  -22.8560  -10.6090   20.1370 C   0  0  0  0  0  3  0  0  0  0  0  0
  -21.7080   -7.3010   21.2160 O   0  0  0  0  0  0  0  0  0  0  0  0
  -21.6880   -6.4790   22.3150 C   0  0  0  0  0  0  0  0  0  0  0  0
  -21.3480   -6.9590   23.5990 C   0  0  0  0  0  3  0  0  0  0  0  0
  -21.2720   -6.0660   24.6870 C   0  0  0  0  0  3  0  0  0  0  0  0
  -21.5260   -4.6950   24.4910 C   0  0  0  0  0  0  0  0  0  0  0  0
  -21.8580   -4.2150   23.2130 C   0  0  0  0  0  3  0  0  0  0  0  0
  -21.9350   -5.1040   22.1270 C   0  0  0  0  0  0  0  0  0  0  0  0
  -22.2350   -4.6320   20.8930 F   0  0  0  0  0  0  0  0  0  0  0  0
  -21.4460   -3.8360   25.5350 F   0  0  0  0  0  0  0  0  0  0  0  0
  -22.9410  -13.9190   21.0450 C   0  0  0  0  0  0  0  0  0  0  0  0
  -22.1750  -13.2300   21.8840 N   0  0  0  0  0  0  0  0  0  0  0  0
  -22.5380  -14.9550   20.5200 O   0  0  0  0  0  0  0  0  0  0  0  0
  -22.5140  -12.3900   22.3300 H   0  0  0  0  0  0  0  0  0  0  0  0
  -21.2370  -13.5460   22.0840 H   0  0  0  0  0  0  0  0  0  0  0  0
  -25.6300  -15.5450   20.3470 N   0  0  0  0  0  0  0  0  0  0  0  0
  -24.8700  -16.2110   20.4320 H   0  0  0  0  0  0  0  0  0  0  0  0
  -26.4930  -15.9690   20.0320 H   0  0  0  0  0  0  0  0  0  0  0  0
  -28.3440  -23.1540   20.3520 C   0  0  0  0  0  3  0  0  0  0  0  0
  -29.1870  -24.4600   20.4780 C   0  0  0  0  0  0  0  0  0  0  0  0
  -30.3450  -24.5410   20.0540 O   0  0  0  0  0  0  0  0  0  0  0  0
  -28.5130  -25.6790   21.1580 C   0  0  0  0  0  2  0  0  0  0  0  0
  -28.6990  -26.9260   20.4440 O   0  0  0  0  0  0  0  0  0  0  0  0
  -24.6200  -32.0170   23.3240 C   0  0  0  0  0  0  0  0  0  0  0  0
  -27.5400  -27.6700   20.3620 C   0  0  0  0  0  0  0  0  0  0  0  0
  -23.5330  -30.5760   21.6350 C   0  0  0  0  0  3  0  0  0  0  0  0
  -25.0990  -29.0970   20.2660 C   0  0  0  0  0  0  0  0  0  0  0  0
  -26.0510  -31.0280   21.5370 C   0  0  0  0  0  2  0  0  0  0  0  0
  -26.2150  -29.6630   20.8970 C   0  0  0  0  0  0  0  0  0  0  0  0
  -27.4440  -28.9600   20.9360 C   0  0  0  0  0  3  0  0  0  0  0  0
  -26.4120  -27.1230   19.7170 C   0  0  0  0  0  3  0  0  0  0  0  0
  -25.1930  -27.8270   19.6690 C   0  0  0  0  0  3  0  0  0  0  0  0
  -23.8220  -29.9070   20.2650 C   0  0  0  0  0  2  0  0  0  0  0  0
  -24.7500  -31.2220   22.2240 N   0  0  0  0  0  0  0  0  0  0  0  0
  -23.5080  -32.2480   23.8220 O   0  0  0  0  0  0  0  0  0  0  0  0
  -22.8820  -29.5290   22.5680 C   0  0  0  0  0  0  0  0  0  0  0  0
  -21.5630  -29.3240   22.4130 N   0  0  0  0  0  0  0  0  0  0  0  0
  -23.5600  -28.9050   23.3880 O   0  0  0  0  0  0  0  0  0  0  0  0
  -21.0760  -29.8810   21.7250 H   0  0  0  0  0  0  0  0  0  0  0  0
  -18.1910  -28.1090   22.8760 C   0  0  0  0  0  0  0  0  0  0  0  0
  -20.7500  -28.3610   23.1550 C   0  0  0  0  0  3  0  0  0  0  0  0
  -20.8530  -26.9490   22.5310 C   0  0  0  0  0  2  0  0  0  0  0  0
  -19.7510  -26.6580   21.5080 C   0  0  0  0  0  2  0  0  0  0  0  0
  -18.3690  -26.7830   22.1560 C   0  0  0  0  0  2  0  0  0  0  0  0
  -19.3100  -28.8570   23.3300 C   0  0  0  0  0  0  0  0  0  0  0  0
  -19.0910  -30.1020   23.9610 C   0  0  0  0  0  3  0  0  0  0  0  0
  -17.7860  -30.5970   24.1430 C   0  0  0  0  0  3  0  0  0  0  0  0
  -16.6830  -29.8440   23.7070 C   0  0  0  0  0  3  0  0  0  0  0  0
  -16.8850  -28.6010   23.0800 C   0  0  0  0  0  3  0  0  0  0  0  0
  -25.8560  -32.6950   23.9960 C   0  0  0  0  0  3  0  0  0  0  0  0
  -25.4980  -34.0930   24.2730 N   0  0  0  0  0  0  0  0  0  0  0  0
  -25.8400  -35.1320   23.5000 C   0  0  0  0  0  0  0  0  0  0  0  0
  -26.5600  -35.0190   22.5030 O   0  0  0  0  0  0  0  0  0  0  0  0
  -24.8670  -34.2540   25.0440 H   0  0  0  0  0  0  0  0  0  0  0  0
  -24.0810  -36.8640   23.0170 C   0  0  0  0  0  1  0  0  0  0  0  0
  -25.2970  -36.5200   23.8930 C   0  0  0  0  0  3  0  0  0  0  0  0
  -27.3730  -37.4820   24.7820 C   0  0  0  0  0  1  0  0  0  0  0  0
  -26.3050  -37.5970   23.7920 N   0  0  0  0  0  0  0  0  0  0  0  0
  -25.8700  -38.5090   23.9000 H   0  0  0  0  0  0  0  0  0  0  0  0
  -26.3240  -31.9680   25.3150 C   0  0  1  0  0  0  0  0  0  0  0  0
  -25.1820  -31.7230   26.3280 C   0  0  0  0  0  1  0  0  0  0  0  0
  -26.9670  -30.6000   24.9880 C   0  0  0  0  0  1  0  0  0  0  0  0
  -27.4150  -32.8100   26.0180 C   0  0  0  0  0  1  0  0  0  0  0  0
  -27.3800  -23.2190   19.1330 C   0  0  0  0  0  2  0  0  0  0  0  0
  -25.1340  -23.7100   20.2900 C   0  0  0  0  0  1  0  0  0  0  0  0
  -25.1840  -22.6690   18.0000 C   0  0  0  0  0  1  0  0  0  0  0  0
  -25.9140  -22.7730   19.3480 C   0  0  0  0  0  3  0  0  0  0  0  0
  1  3  2  0
  2 51  1  0
  2  1  1  0
  4  2  1  0
  5  9  1  0
  7  5  2  0
  7  1  1  0
  8 11  1  0
  8  6  1  0
  9  6  2  0
  9 21  1  0
 10  7  1  0
 10  8  2  0
 12 10  1  0
 13 21  1  0
 14 19  1  0
 15 16  1  0
 15 14  1  0
 17 16  1  0
 17 26  1  0
 17 18  1  0
 19 13  1  0
 19 18  1  0
 20 13  2  0
 21 22  1  0
 23 24  2  0
 24 43  1  0
 25 24  1  0
 25 28  1  0
 26 23  1  0
 26 27  1  0
 27 25  2  0
 28 29  1  0
 29 30  2  0
 31 34  1  0
 31 30  1  0
 32 31  2  0
 33 32  1  0
 33 28  2  0
 34 35  1  0
 35 36  1  0
 36 37  2  0
 38 37  1  0
 38 42  1  0
 39 38  2  0
 40 35  2  0
 40 39  1  0
 41 40  1  0
 43 44  1  0
 44 47  1  0
 44 46  1  0
 45 43  2  0
 48 49  1  0
 48 23  1  0
 50 48  1  0
 51 96  1  0
 51 52  1  0
 52 54  1  0
 53 52  2  0
 55 54  1  0
 56 67  2  0
 57 55  1  0
 57 62  1  0
 58 66  1  0
 58 68  1  0
 59 61  1  0
 60 66  1  0
 61 62  2  0
 61 60  1  0
 63 57  2  0
 64 63  1  0
 64 59  2  0
 65 59  1  0
 65 58  1  0
 66 56  1  0
 68 70  2  0
 69 68  1  0
 71 69  1  0
 72 81  2  0
 72 77  1  0
 73 69  1  0
 73 77  1  0
 74 73  1  0
 75 76  1  0
 75 74  1  0
 76 72  1  0
 77 78  2  0
 78 79  1  0
 80 79  2  0
 81 80  1  0
 82 56  1  0
 82 83  1  0
 82 92  1  0
 83 86  1  0
 84 88  1  0
 84 83  1  0
 85 84  2  0
 88 87  1  0
 90 88  1  0
 90 91  1  0
 90 89  1  0
 92 95  1  1
 92 93  1  0
 94 92  1  0
 96 99  1  0
 98 99  1  0
 99 97  1  0
M  ISO  4  13 100  21 100  54 101  55 101
M  END
>  <TORSDO>  (54) 
F 22

>  <SCORE>  (54) 
-12.819

>  <name>  (54) 
53

>  <ligand_id>  (54) 
53

>  <original_smiles>  (54) 
[H]c1c([H])c([H])c2c(c1[H])C([H])([H])C([H])([H])C([H])([H])C2([H])N([H])C(=O)C1([H])N(C(=O)C([H])(N([H])C(=O)C([H])(N([H])C([H])([H])[H])C([H])([H])[H])C(C([H])([H])[H])(C([H])([H])[H])C([H])([H])[H])C([H])([H])c2c([H])c(OC([H])([H])C(=O)C([H])(N([H])C(=O)c3c([H])c(N([H])C(=O)N4C([H])([H])C([H])([H])C([H])([H])C([H])(n5nc(-c6c([H])c([H])c(Oc7c([H])c([H])c(F)c([H])c7F)c([H])c6[H])c(C(=O)N([H])[H])c5N([H])[H])C4([H])[H])c([H])c(C([H])([H])[H])c3F)C([H])([H])C([H])(C([H])([H])[H])C([H])([H])[H])c([H])c([H])c2C1([H])[H]

>  <smiles>  (54) 
[H]c1c([H])c([H])c2c(c1[H])C([H])([H])C([H])([H])C([H])([H])C2([H])N([H])C(=O)C1([H])N(C(=O)C([H])(N([H])C(=O)C([H])(N([H])C([H])([H])[H])C([H])([H])[H])C(C([H])([H])[H])(C([H])([H])[H])C([H])([H])[H])C([H])([H])c2c([H])c(OC([H])([H])C(=O)C([H])(N([H])C(=O)c3c([H])c(N([H])C(=O)N4C([H])([H])C([H])([H])C([H])([H])C([H])(n5nc(-c6c([H])c([H])c(Oc7c([H])c([H])c(F)c([H])c7F)c([H])c6[H])c(C(=O)N([H])[H])c5N([H])[H])C4([H])[H])c([H])c(C([H])([H])[H])c3F)C([H])([H])C([H])(C([H])([H])[H])C([H])([H])[H])c([H])c([H])c2C1([H])[H]

$$$$
54:0:0
     RDKit          3D

 95103  0  0  1  0  0  0  0  0999 V2000
  -33.2120  -20.4500   16.1800 C   0  0  0  0  0  3  0  0  0  0  0  0
  -33.8320  -19.1350   15.9580 C   0  0  0  0  0  3  0  0  0  0  0  0
  -35.2950  -21.4760   15.8250 C   0  0  0  0  0  3  0  0  0  0  0  0
  -33.9180  -21.7070   16.1130 C   0  0  0  0  0  0  0  0  0  0  0  0
  -35.2320  -18.9150   15.6680 C   0  0  0  0  0  0  0  0  0  0  0  0
  -35.9260  -20.1870   15.6400 C   0  0  0  0  0  0  0  0  0  0  0  0
  -33.4440  -24.2950   17.0320 C   0  0  0  0  0  0  0  0  0  0  0  0
  -31.9500  -26.2080   17.7650 C   0  0  0  0  0  2  0  0  0  0  0  0
  -30.5210  -25.6730   18.0320 C   0  0  0  0  0  2  0  0  0  0  0  0
  -29.6940  -25.6200   16.7310 C   0  0  0  0  0  2  0  0  0  0  0  0
  -30.4850  -24.9900   15.5550 C   0  0  0  0  0  3  0  0  0  0  0  0
  -31.9080  -25.5800   15.4420 C   0  0  0  0  0  2  0  0  0  0  0  0
  -32.5810  -25.3440   16.7290 N   0  0  0  0  0  0  0  0  0  0  0  0
  -34.0920  -24.3580   18.0830 O   0  0  0  0  0  0  0  0  0  0  0  0
  -33.4300  -23.1590   16.1880 N   0  0  0  0  0  0  0  0  0  0  0  0
  -32.9130  -23.4090   15.3580 H   0  0  0  0  0  0  0  0  0  0  0  0
  -29.0900  -24.0570   13.6180 C   0  0  0  0  0  0  0  0  0  0  0  0
  -28.4960  -24.6550   12.5410 C   0  0  0  0  0  0  0  0  0  0  0  0
  -28.8370  -26.0400   12.6170 C   0  0  0  0  0  0  0  0  0  0  0  0
  -29.7520  -25.0680   14.2960 N   0  0  0  0  0  0  0  0  0  0  0  0
  -29.6460  -26.2580   13.6490 N   0  0  0  0  0  0  0  0  0  0  0  0
  -28.3910  -27.1780   11.8040 C   0  0  0  0  0  0  0  0  0  0  0  0
  -29.1790  -27.6860   10.7490 C   0  0  0  0  0  3  0  0  0  0  0  0
  -28.7200  -28.7690    9.9680 C   0  0  0  0  0  3  0  0  0  0  0  0
  -27.4580  -29.3510   10.2360 C   0  0  0  0  0  0  0  0  0  0  0  0
  -26.6860  -28.8560   11.3000 C   0  0  0  0  0  3  0  0  0  0  0  0
  -27.1480  -27.7830   12.0810 C   0  0  0  0  0  3  0  0  0  0  0  0
  -26.9410  -30.4220    9.5460 O   0  0  0  0  0  0  0  0  0  0  0  0
  -26.4700  -30.2910    8.2640 C   0  0  0  0  0  0  0  0  0  0  0  0
  -25.2260  -29.6830    7.9860 C   0  0  0  0  0  3  0  0  0  0  0  0
  -24.7470  -29.6340    6.6610 C   0  0  0  0  0  3  0  0  0  0  0  0
  -25.5040  -30.1980    5.6180 C   0  0  0  0  0  0  0  0  0  0  0  0
  -26.7390  -30.8090    5.8930 C   0  0  0  0  0  3  0  0  0  0  0  0
  -27.2190  -30.8590    7.2130 C   0  0  0  0  0  0  0  0  0  0  0  0
  -28.4010  -31.4670    7.4770 F   0  0  0  0  0  0  0  0  0  0  0  0
  -25.0410  -30.1580    4.3460 F   0  0  0  0  0  0  0  0  0  0  0  0
  -27.5780  -23.9960   11.5520 C   0  0  0  0  0  0  0  0  0  0  0  0
  -27.5450  -24.4940   10.3200 N   0  0  0  0  0  0  0  0  0  0  0  0
  -26.9190  -23.0020   11.8540 O   0  0  0  0  0  0  0  0  0  0  0  0
  -28.1000  -25.2970   10.0670 H   0  0  0  0  0  0  0  0  0  0  0  0
  -26.9550  -24.0660    9.6210 H   0  0  0  0  0  0  0  0  0  0  0  0
  -29.1040  -22.7490   14.0930 N   0  0  0  0  0  0  0  0  0  0  0  0
  -28.5780  -22.0090   13.6420 H   0  0  0  0  0  0  0  0  0  0  0  0
  -29.5170  -22.4590   14.9710 H   0  0  0  0  0  0  0  0  0  0  0  0
  -38.0680  -21.6800   15.6840 O   0  0  0  0  0  1  0  0  0  0  0  0
  -38.3330  -19.2990   16.2140 O   0  0  0  0  0  1  0  0  0  0  0  0
  -37.9050  -19.9940   13.9060 O   0  0  0  0  0  1  0  0  0  0  0  0
  -37.7120  -20.2990   15.3320 S   0  0  1  0  0  0  0  0  0  0  0  0
  -36.0380  -16.4430   14.6300 C   0  0  0  0  0  0  0  0  0  0  0  0
  -36.0000  -17.5960   15.4540 N   0  0  0  0  0  0  0  0  0  0  0  0
  -35.1760  -16.2730   13.7640 O   0  0  0  0  0  0  0  0  0  0  0  0
  -36.7770  -17.5530   16.1180 H   0  0  0  0  0  0  0  0  0  0  0  0
  -38.1900  -15.7490   15.9210 C   0  0  0  0  0  1  0  0  0  0  0  0
  -37.2250  -15.2870   14.8060 C   0  0  0  0  0  3  0  0  0  0  0  0
  -37.9440  -14.5830   13.6040 O   0  0  0  0  0  0  0  0  0  0  0  0
  -41.5140   -8.1270   13.1360 C   0  0  0  0  0  0  0  0  0  0  0  0
  -39.1280  -13.7710   13.7600 C   0  0  0  0  0  0  0  0  0  0  0  0
  -42.3720   -9.8110   14.7190 C   0  0  0  0  0  3  0  0  0  0  0  0
  -41.4830  -12.2030   14.4210 C   0  0  0  0  0  0  0  0  0  0  0  0
  -41.1480  -10.5590   12.5840 C   0  0  0  0  0  2  0  0  0  0  0  0
  -40.6930  -11.8250   13.3260 C   0  0  0  0  0  0  0  0  0  0  0  0
  -39.5280  -12.6100   12.9850 C   0  0  0  0  0  3  0  0  0  0  0  0
  -40.0420  -14.1470   14.7670 C   0  0  0  0  0  3  0  0  0  0  0  0
  -41.1680  -13.3750   15.1220 C   0  0  0  0  0  3  0  0  0  0  0  0
  -42.6710  -11.3300   14.7960 C   0  0  0  0  0  2  0  0  0  0  0  0
  -41.6470   -9.4500   13.4580 N   0  0  0  0  0  0  0  0  0  0  0  0
  -41.9900   -7.2350   13.8530 O   0  0  0  0  0  0  0  0  0  0  0  0
  -41.6220   -9.3700   16.0020 C   0  0  0  0  0  0  0  0  0  0  0  0
  -42.3630   -9.1520   17.1010 N   0  0  0  0  0  0  0  0  0  0  0  0
  -40.3940   -9.2500   15.9970 O   0  0  0  0  0  0  0  0  0  0  0  0
  -43.3650   -9.2570   17.0260 H   0  0  0  0  0  0  0  0  0  0  0  0
  -43.3340   -8.0770   20.4230 C   0  0  0  0  0  0  0  0  0  0  0  0
  -41.8500   -8.7790   18.4230 C   0  0  0  0  0  3  0  0  0  0  0  0
  -41.4980  -10.0310   19.2590 C   0  0  0  0  0  2  0  0  0  0  0  0
  -42.6460  -10.4980   20.1590 C   0  0  0  0  0  2  0  0  0  0  0  0
  -43.0490   -9.3890   21.1340 C   0  0  0  0  0  2  0  0  0  0  0  0
  -42.7830   -7.7980   19.1430 C   0  0  0  0  0  0  0  0  0  0  0  0
  -43.1070   -6.5760   18.5130 C   0  0  0  0  0  3  0  0  0  0  0  0
  -43.9600   -5.6460   19.1370 C   0  0  0  0  0  3  0  0  0  0  0  0
  -44.4900   -5.9230   20.4090 C   0  0  0  0  0  3  0  0  0  0  0  0
  -44.1740   -7.1340   21.0510 C   0  0  0  0  0  3  0  0  0  0  0  0
  -40.7720   -7.6770   11.8410 C   0  0  0  0  0  3  0  0  0  0  0  0
  -39.6630   -6.5870   12.1100 C   0  0  1  0  0  0  0  0  0  0  0  0
  -40.1480   -5.4070   12.9840 C   0  0  0  0  0  1  0  0  0  0  0  0
  -38.4340   -7.2130   12.8090 C   0  0  0  0  0  1  0  0  0  0  0  0
  -39.1590   -6.0110   10.7650 C   0  0  0  0  0  1  0  0  0  0  0  0
  -41.7840   -7.1600   10.9060 N   0  0  0  0  0  0  0  0  0  0  0  0
  -42.3000   -7.8500    9.8800 C   0  0  0  0  0  0  0  0  0  0  0  0
  -41.9210   -8.9860    9.5810 O   0  0  0  0  0  0  0  0  0  0  0  0
  -42.1810   -6.2580   11.1250 H   0  0  0  0  0  0  0  0  0  0  0  0
  -44.7830   -7.7140    9.4890 C   0  0  0  0  0  1  0  0  0  0  0  0
  -43.4120   -7.1730    9.0520 C   0  0  0  0  0  3  0  0  0  0  0  0
  -42.1210   -6.6070    7.0410 C   0  0  0  0  0  1  0  0  0  0  0  0
  -43.2510   -7.3500    7.5930 N   0  0  0  0  0  0  0  0  0  0  0  0
  -44.0910   -7.0610    7.0990 H   0  0  0  0  0  0  0  0  0  0  0  0
  2  1  2  0
  3  4  2  0
  4  1  1  0
  4 15  1  0
  5  2  1  0
  6  5  2  0
  6  3  1  0
  7 14  2  0
  8  9  1  0
 10  9  1  0
 11 20  1  0
 11 10  1  0
 12 11  1  0
 12 13  1  0
 13  7  1  0
 13  8  1  0
 15  7  1  0
 16 15  1  0
 17 42  1  0
 17 20  1  0
 18 19  1  0
 18 17  2  0
 19 21  2  0
 21 20  1  0
 22 27  1  0
 22 19  1  0
 23 22  2  0
 24 25  2  0
 24 23  1  0
 25 26  1  0
 26 27  2  0
 28 25  1  0
 29 28  1  0
 30 29  1  0
 31 30  2  0
 32 33  2  0
 32 31  1  0
 33 34  1  0
 34 35  1  0
 34 29  2  0
 36 32  1  0
 37 39  2  0
 37 18  1  0
 38 37  1  0
 40 38  1  0
 41 38  1  0
 42 44  1  0
 43 42  1  0
 48 47  1  6
 48  6  1  0
 48 45  1  0
 48 46  1  0
 49 54  1  0
 49 50  1  0
 50  5  1  0
 50 52  1  0
 51 49  2  0
 54 53  1  0
 55 57  1  0
 55 54  1  0
 56 66  1  0
 56 67  2  0
 57 63  1  0
 58 65  1  0
 58 68  1  0
 59 65  1  0
 59 64  1  0
 60 61  1  0
 60 66  1  0
 61 59  2  0
 62 61  1  0
 62 57  2  0
 63 64  2  0
 66 58  1  0
 68 69  1  0
 70 68  2  0
 71 69  1  0
 72 81  1  0
 72 76  1  0
 73 69  1  0
 73 77  1  0
 73 74  1  0
 74 75  1  0
 75 76  1  0
 77 72  2  0
 78 79  2  0
 78 77  1  0
 79 80  1  0
 80 81  2  0
 82 83  1  0
 82 56  1  0
 83 85  1  1
 83 84  1  0
 86 83  1  0
 87 90  1  0
 87 82  1  0
 88 87  1  0
 89 88  2  0
 92 91  1  0
 92 88  1  0
 93 94  1  0
 94 92  1  0
 95 94  1  0
M  ISO  4   7 100  15 100  54 101  55 101
M  END
>  <TORSDO>  (55) 
F 19

>  <SCORE>  (55) 
3.288

>  <name>  (55) 
54

>  <ligand_id>  (55) 
54

>  <original_smiles>  (55) 
[H]c1c([H])c([H])c2c(c1[H])C([H])([H])C([H])([H])C([H])([H])C2([H])N([H])C(=O)C1([H])N(C(=O)C([H])(N([H])C(=O)C([H])(N([H])C([H])([H])[H])C([H])([H])[H])C(C([H])([H])[H])(C([H])([H])[H])C([H])([H])[H])C([H])([H])c2c([H])c(OC([H])(C(=O)N([H])c3c([H])c([H])c(N([H])C(=O)N4C([H])([H])C([H])([H])C([H])([H])C([H])(n5nc(-c6c([H])c([H])c(Oc7c([H])c([H])c(F)c([H])c7F)c([H])c6[H])c(C(=O)N([H])[H])c5N([H])[H])C4([H])[H])c([H])c3S(=O)(=O)[O-])C([H])([H])[H])c([H])c([H])c2C1([H])[H]

>  <smiles>  (55) 
[H]c1c([H])c([H])c2c(c1[H])C([H])([H])C([H])([H])C([H])([H])C2([H])N([H])C(=O)C1([H])N(C(=O)C([H])(N([H])C(=O)C([H])(N([H])C([H])([H])[H])C([H])([H])[H])C(C([H])([H])[H])(C([H])([H])[H])C([H])([H])[H])C([H])([H])c2c([H])c(OC([H])(C(=O)N([H])c3c([H])c([H])c(N([H])C(=O)N4C([H])([H])C([H])([H])C([H])([H])C([H])(n5nc(-c6c([H])c([H])c(Oc7c([H])c([H])c(F)c([H])c7F)c([H])c6[H])c(C(=O)N([H])[H])c5N([H])[H])C4([H])[H])c([H])c3S(=O)(=O)[O-])C([H])([H])[H])c([H])c([H])c2C1([H])[H]

$$$$
55:0:0
     RDKit          3D

 98107  0  0  1  0  0  0  0  0999 V2000
  -30.5050  -21.6530   20.3180 C   0  0  0  0  0  0  0  0  0  0  0  0
  -28.2960  -22.0610   19.9440 C   0  0  0  0  0  2  0  0  0  0  0  0
  -28.9200  -23.5140   19.7950 C   0  0  0  0  0  3  0  0  0  0  0  0
  -30.3360  -23.2160   20.3840 C   0  0  1  0  0  0  0  0  0  0  0  0
  -30.4140  -23.6240   21.8720 C   0  0  0  0  0  1  0  0  0  0  0  0
  -29.3590  -20.9900   20.0500 N   0  0  0  0  0  0  0  0  0  0  0  0
  -31.5980  -21.1120   20.5100 O   0  0  0  0  0  0  0  0  0  0  0  0
  -27.7200  -19.1740   19.9780 C   0  0  0  0  0  3  0  0  0  0  0  0
  -30.0140  -18.3580   20.2190 C   0  0  0  0  0  3  0  0  0  0  0  0
  -28.1530  -16.7840   20.2040 C   0  0  0  0  0  3  0  0  0  0  0  0
  -29.0920  -19.5060   20.0730 C   0  0  0  0  0  0  0  0  0  0  0  0
  -27.2570  -17.8550   20.0570 C   0  0  0  0  0  0  0  0  0  0  0  0
  -29.5490  -16.9620   20.2730 C   0  0  0  0  0  0  0  0  0  0  0  0
  -30.7840  -14.6070   19.9440 C   0  0  0  0  0  0  0  0  0  0  0  0
  -30.5340  -12.2440   19.1180 C   0  0  0  0  0  2  0  0  0  0  0  0
  -29.5610  -12.2250   17.9160 C   0  0  0  0  0  2  0  0  0  0  0  0
  -28.1000  -12.1160   18.3930 C   0  0  0  0  0  2  0  0  0  0  0  0
  -27.7780  -13.1110   19.5390 C   0  0  0  0  0  3  0  0  0  0  0  0
  -28.8630  -13.0780   20.6410 C   0  0  0  0  0  2  0  0  0  0  0  0
  -30.1630  -13.3720   20.0110 N   0  0  0  0  0  0  0  0  0  0  0  0
  -31.8580  -14.7210   19.3470 O   0  0  0  0  0  0  0  0  0  0  0  0
  -30.2180  -15.6710   20.6260 N   0  0  0  0  0  0  0  0  0  0  0  0
  -29.6820  -15.2320   21.3610 H   0  0  0  0  0  0  0  0  0  0  0  0
  -25.4410  -13.8260   20.3320 C   0  0  0  0  0  0  0  0  0  0  0  0
  -24.3570  -13.1170   20.7670 C   0  0  0  0  0  0  0  0  0  0  0  0
  -24.7470  -11.7450   20.7260 C   0  0  0  0  0  0  0  0  0  0  0  0
  -26.4360  -12.8960   20.0780 N   0  0  0  0  0  0  0  0  0  0  0  0
  -26.0220  -11.6350   20.3670 N   0  0  0  0  0  0  0  0  0  0  0  0
  -23.9580  -10.5260   20.9500 C   0  0  0  0  0  0  0  0  0  0  0  0
  -24.3880   -9.5220   21.8430 C   0  0  0  0  0  3  0  0  0  0  0  0
  -23.6010   -8.3710   22.0580 C   0  0  0  0  0  3  0  0  0  0  0  0
  -22.3690   -8.2160   21.3780 C   0  0  0  0  0  0  0  0  0  0  0  0
  -21.9560   -9.2100   20.4720 C   0  0  0  0  0  3  0  0  0  0  0  0
  -22.7430  -10.3520   20.2570 C   0  0  0  0  0  3  0  0  0  0  0  0
  -21.5510   -7.1190   21.5040 O   0  0  0  0  0  0  0  0  0  0  0  0
  -21.5530   -6.3480   22.6390 C   0  0  0  0  0  0  0  0  0  0  0  0
  -21.2800   -6.8960   23.9120 C   0  0  0  0  0  3  0  0  0  0  0  0
  -21.2230   -6.0550   25.0410 C   0  0  0  0  0  3  0  0  0  0  0  0
  -21.4290   -4.6690   24.9010 C   0  0  0  0  0  0  0  0  0  0  0  0
  -21.6950   -4.1220   23.6330 C   0  0  0  0  0  3  0  0  0  0  0  0
  -21.7540   -4.9600   22.5050 C   0  0  0  0  0  0  0  0  0  0  0  0
  -21.9900   -4.4240   21.2830 F   0  0  0  0  0  0  0  0  0  0  0  0
  -21.3660   -3.8610   25.9840 F   0  0  0  0  0  0  0  0  0  0  0  0
  -23.0030  -13.6750   21.0960 C   0  0  0  0  0  0  0  0  0  0  0  0
  -22.2810  -13.0330   22.0070 N   0  0  0  0  0  0  0  0  0  0  0  0
  -22.6000  -14.7180   20.5830 O   0  0  0  0  0  0  0  0  0  0  0  0
  -22.6220  -12.1900   22.4450 H   0  0  0  0  0  0  0  0  0  0  0  0
  -21.3740  -13.3910   22.2730 H   0  0  0  0  0  0  0  0  0  0  0  0
  -25.6390  -15.1790   20.0990 N   0  0  0  0  0  0  0  0  0  0  0  0
  -24.8250  -15.7780   20.0290 H   0  0  0  0  0  0  0  0  0  0  0  0
  -26.4300  -15.5310   19.5760 H   0  0  0  0  0  0  0  0  0  0  0  0
  -25.8880  -17.6070   20.0250 N   0  0  0  0  0  0  0  0  0  0  0  0
  -25.2820  -18.3120   19.6180 H   0  0  0  0  0  0  0  0  0  0  0  0
  -25.6140  -16.6610   19.7610 H   0  0  0  0  0  0  0  0  0  0  0  0
  -31.6860  -23.5870   18.1380 C   0  0  0  0  0  1  0  0  0  0  0  0
  -31.4630  -23.9670   19.6170 C   0  0  0  0  0  2  0  0  0  0  0  0
  -28.0270  -24.7960   20.3020 C   0  0  0  0  0  2  0  0  0  0  0  0
  -28.2800  -26.2570   19.9960 O   0  0  0  0  0  0  0  0  0  0  0  0
  -24.5400  -31.6920   23.0960 C   0  0  0  0  0  0  0  0  0  0  0  0
  -27.1790  -27.1510   19.9850 C   0  0  0  0  0  0  0  0  0  0  0  0
  -23.3490  -30.3160   21.4310 C   0  0  0  0  0  3  0  0  0  0  0  0
  -24.8130  -28.7900   19.9820 C   0  0  0  0  0  0  0  0  0  0  0  0
  -25.8910  -30.6370   21.2620 C   0  0  0  0  0  2  0  0  0  0  0  0
  -25.9810  -29.2650   20.5940 C   0  0  0  0  0  0  0  0  0  0  0  0
  -27.1680  -28.4600   20.5800 C   0  0  0  0  0  3  0  0  0  0  0  0
  -25.9890  -26.7500   19.3380 C   0  0  0  0  0  3  0  0  0  0  0  0
  -24.8230  -27.5410   19.3430 C   0  0  0  0  0  3  0  0  0  0  0  0
  -23.5720  -29.6630   20.0410 C   0  0  0  0  0  2  0  0  0  0  0  0
  -24.6120  -30.9000   21.9870 N   0  0  0  0  0  0  0  0  0  0  0  0
  -23.4530  -31.9570   23.6320 O   0  0  0  0  0  0  0  0  0  0  0  0
  -22.6840  -29.2840   22.3740 C   0  0  0  0  0  0  0  0  0  0  0  0
  -21.3530  -29.1320   22.2690 N   0  0  0  0  0  0  0  0  0  0  0  0
  -23.3660  -28.6230   23.1610 O   0  0  0  0  0  0  0  0  0  0  0  0
  -20.8600  -29.7170   21.6070 H   0  0  0  0  0  0  0  0  0  0  0  0
  -17.9620  -27.9890   22.8200 C   0  0  0  0  0  0  0  0  0  0  0  0
  -20.5330  -28.1840   23.0260 C   0  0  0  0  0  3  0  0  0  0  0  0
  -20.5870  -26.7740   22.3960 C   0  0  0  0  0  2  0  0  0  0  0  0
  -19.4510  -26.5130   21.4010 C   0  0  0  0  0  2  0  0  0  0  0  0
  -18.0910  -26.6630   22.0890 C   0  0  0  0  0  2  0  0  0  0  0  0
  -19.1100  -28.7100   23.2460 C   0  0  0  0  0  0  0  0  0  0  0  0
  -18.9350  -29.9540   23.8920 C   0  0  0  0  0  3  0  0  0  0  0  0
  -17.6460  -30.4750   24.1140 C   0  0  0  0  0  3  0  0  0  0  0  0
  -16.5150  -29.7500   23.7030 C   0  0  0  0  0  3  0  0  0  0  0  0
  -16.6740  -28.5080   23.0620 C   0  0  0  0  0  3  0  0  0  0  0  0
  -25.8160  -32.3230   23.7340 C   0  0  0  0  0  3  0  0  0  0  0  0
  -26.3340  -31.5320   24.9980 C   0  0  1  0  0  0  0  0  0  0  0  0
  -25.2400  -31.2740   26.0610 C   0  0  0  0  0  1  0  0  0  0  0  0
  -26.9210  -30.1620   24.5870 C   0  0  0  0  0  1  0  0  0  0  0  0
  -27.4820  -32.3190   25.6740 C   0  0  0  0  0  1  0  0  0  0  0  0
  -25.4970  -33.7130   24.0900 N   0  0  0  0  0  0  0  0  0  0  0  0
  -25.8300  -34.7840   23.3580 C   0  0  0  0  0  0  0  0  0  0  0  0
  -26.5060  -34.7050   22.3280 O   0  0  0  0  0  0  0  0  0  0  0  0
  -24.8970  -33.8470   24.8910 H   0  0  0  0  0  0  0  0  0  0  0  0
  -24.0990  -36.5800   23.0320 C   0  0  0  0  0  1  0  0  0  0  0  0
  -25.3360  -36.1600   23.8420 C   0  0  0  0  0  3  0  0  0  0  0  0
  -27.4630  -37.0330   24.7070 C   0  0  0  0  0  1  0  0  0  0  0  0
  -26.3650  -37.2200   23.7610 N   0  0  0  0  0  0  0  0  0  0  0  0
  -25.9560  -38.1350   23.9270 H   0  0  0  0  0  0  0  0  0  0  0  0
  1  4  1  0
  1  7  2  0
  2  6  1  0
  3  2  1  0
  3 57  1  0
  3  4  1  0
  4  5  1  1
  6 11  1  0
  6  1  1  0
  8 12  2  0
  8 11  1  0
  9 13  1  0
 10 13  2  0
 11  9  2  0
 12 10  1  0
 13 22  1  0
 14 20  1  0
 14 22  1  0
 15 20  1  0
 16 17  1  0
 16 15  1  0
 18 17  1  0
 18 27  1  0
 18 19  1  0
 20 19  1  0
 21 14  2  0
 22 23  1  0
 24 25  2  0
 25 44  1  0
 26 25  1  0
 26 29  1  0
 27 24  1  0
 27 28  1  0
 28 26  2  0
 29 30  1  0
 30 31  2  0
 32 35  1  0
 32 31  1  0
 33 32  2  0
 34 33  1  0
 34 29  2  0
 35 36  1  0
 36 37  1  0
 37 38  2  0
 39 38  1  0
 39 43  1  0
 40 39  2  0
 41 36  2  0
 41 40  1  0
 42 41  1  0
 44 45  1  0
 45 48  1  0
 45 47  1  0
 46 44  2  0
 49 24  1  0
 50 49  1  0
 51 49  1  0
 52 12  1  0
 53 52  1  0
 54 52  1  0
 55 56  1  0
 56  4  1  0
 58 57  1  0
 59 70  2  0
 60 58  1  0
 60 65  1  0
 61 69  1  0
 61 71  1  0
 62 68  1  0
 62 64  1  0
 63 69  1  0
 64 63  1  0
 65 64  2  0
 66 67  1  0
 66 60  2  0
 67 62  2  0
 68 61  1  0
 69 59  1  0
 71 73  2  0
 72 71  1  0
 74 72  1  0
 75 84  2  0
 75 80  1  0
 76 72  1  0
 76 80  1  0
 77 76  1  0
 78 79  1  0
 78 77  1  0
 79 75  1  0
 80 81  2  0
 81 82  1  0
 83 82  2  0
 84 83  1  0
 85 59  1  0
 85 90  1  0
 85 86  1  0
 86 89  1  1
 86 87  1  0
 88 86  1  0
 90 93  1  0
 91 95  1  0
 91 90  1  0
 92 91  2  0
 95 94  1  0
 97 95  1  0
 97 98  1  0
 97 96  1  0
M  ISO  4  14 100  22 100  57 101  58 101
M  END
>  <TORSDO>  (56) 
F 20

>  <SCORE>  (56) 
-14.464

>  <name>  (56) 
55

>  <ligand_id>  (56) 
55

>  <original_smiles>  (56) 
[H]c1c([H])c([H])c2c(c1[H])C([H])([H])C([H])([H])C([H])([H])C2([H])N([H])C(=O)C1([H])N(C(=O)C([H])(N([H])C(=O)C([H])(N([H])C([H])([H])[H])C([H])([H])[H])C(C([H])([H])[H])(C([H])([H])[H])C([H])([H])[H])C([H])([H])c2c([H])c(OC([H])([H])C3([H])C([H])([H])N(c4c([H])c(N([H])[H])c([H])c(N([H])C(=O)N5C([H])([H])C([H])([H])C([H])([H])C([H])(n6nc(-c7c([H])c([H])c(Oc8c([H])c([H])c(F)c([H])c8F)c([H])c7[H])c(C(=O)N([H])[H])c6N([H])[H])C5([H])[H])c4[H])C(=O)C3(C([H])([H])[H])C([H])([H])C([H])([H])[H])c([H])c([H])c2C1([H])[H]

>  <smiles>  (56) 
[H]c1c([H])c([H])c2c(c1[H])C([H])([H])C([H])([H])C([H])([H])C2([H])N([H])C(=O)C1([H])N(C(=O)C([H])(N([H])C(=O)C([H])(N([H])C([H])([H])[H])C([H])([H])[H])C(C([H])([H])[H])(C([H])([H])[H])C([H])([H])[H])C([H])([H])c2c([H])c(OC([H])([H])C3([H])C([H])([H])N(c4c([H])c(N([H])[H])c([H])c(N([H])C(=O)N5C([H])([H])C([H])([H])C([H])([H])C([H])(n6nc(-c7c([H])c([H])c(Oc8c([H])c([H])c(F)c([H])c8F)c([H])c7[H])c(C(=O)N([H])[H])c6N([H])[H])C5([H])[H])c4[H])C(=O)C3(C([H])([H])[H])C([H])([H])C([H])([H])[H])c([H])c([H])c2C1([H])[H]

$$$$
56:0:0
     RDKit          3D

 97105  0  0  1  0  0  0  0  0999 V2000
  -28.8590  -21.2440   20.6240 C   0  0  0  0  0  0  0  0  0  0  0  0
  -28.2750  -23.8270   20.4620 C   0  0  0  0  0  0  0  0  0  0  0  0
  -28.9790  -22.5430   20.1170 N   0  0  0  0  0  0  0  0  0  0  0  0
  -27.9520  -21.0390   21.5900 N   0  0  0  0  0  4  0  0  0  0  0  0
  -27.4480  -23.8390   21.3820 O   0  0  0  0  0  0  0  0  0  0  0  0
  -29.7350  -22.5110   19.4300 H   0  0  0  0  0  0  0  0  0  0  0  0
  -27.8450  -20.1370   22.0250 H   0  0  0  0  0  0  0  0  0  0  0  0
  -27.4110  -21.8260   21.9230 H   0  0  0  0  0  0  0  0  0  0  0  0
  -31.3880  -17.8140   19.3570 C   0  0  0  0  0  3  0  0  0  0  0  0
  -31.7060  -19.1450   19.0280 C   0  0  0  0  0  3  0  0  0  0  0  0
  -29.4140  -18.6280   20.4920 C   0  0  0  0  0  3  0  0  0  0  0  0
  -29.7190  -20.0310   20.1770 C   0  0  0  0  0  0  0  0  0  0  0  0
  -30.2390  -17.4800   20.1120 C   0  0  0  0  0  0  0  0  0  0  0  0
  -30.9130  -20.2410   19.4230 C   0  0  0  0  0  0  0  0  0  0  0  0
  -30.6770  -14.8700   20.1960 C   0  0  0  0  0  0  0  0  0  0  0  0
  -30.4420  -12.5910   19.1950 C   0  0  0  0  0  2  0  0  0  0  0  0
  -29.4840  -12.6590   17.9850 C   0  0  0  0  0  2  0  0  0  0  0  0
  -28.0270  -12.4730   18.4460 C   0  0  0  0  0  2  0  0  0  0  0  0
  -27.6700  -13.3610   19.6670 C   0  0  0  0  0  3  0  0  0  0  0  0
  -28.7500  -13.2950   20.7700 C   0  0  0  0  0  2  0  0  0  0  0  0
  -30.0320  -13.6500   20.1510 N   0  0  0  0  0  0  0  0  0  0  0  0
  -31.8670  -14.9110   19.8760 O   0  0  0  0  0  0  0  0  0  0  0  0
  -29.9390  -16.0380   20.4210 N   0  0  0  0  0  0  0  0  0  0  0  0
  -29.0080  -15.8650   20.7680 H   0  0  0  0  0  0  0  0  0  0  0  0
  -25.2980  -13.9330   20.4490 C   0  0  0  0  0  0  0  0  0  0  0  0
  -24.2420  -13.1520   20.8330 C   0  0  0  0  0  0  0  0  0  0  0  0
  -24.7110  -11.8030   20.7870 C   0  0  0  0  0  0  0  0  0  0  0  0
  -26.3400  -13.0600   20.1870 N   0  0  0  0  0  0  0  0  0  0  0  0
  -25.9960  -11.7740   20.4540 N   0  0  0  0  0  0  0  0  0  0  0  0
  -23.9920  -10.5370   20.9800 C   0  0  0  0  0  0  0  0  0  0  0  0
  -24.4360   -9.5700   21.9110 C   0  0  0  0  0  3  0  0  0  0  0  0
  -23.7140   -8.3700   22.0940 C   0  0  0  0  0  3  0  0  0  0  0  0
  -22.5390   -8.1280   21.3450 C   0  0  0  0  0  0  0  0  0  0  0  0
  -22.1160   -9.0820   20.4040 C   0  0  0  0  0  3  0  0  0  0  0  0
  -22.8360  -10.2730   20.2190 C   0  0  0  0  0  3  0  0  0  0  0  0
  -21.7890   -6.9800   21.4370 O   0  0  0  0  0  0  0  0  0  0  0  0
  -21.7420   -6.2420   22.5920 C   0  0  0  0  0  0  0  0  0  0  0  0
  -21.2930   -6.7950   23.8110 C   0  0  0  0  0  3  0  0  0  0  0  0
  -21.1950   -5.9830   24.9580 C   0  0  0  0  0  3  0  0  0  0  0  0
  -21.5340   -4.6180   24.8880 C   0  0  0  0  0  0  0  0  0  0  0  0
  -21.9760   -4.0650   23.6730 C   0  0  0  0  0  3  0  0  0  0  0  0
  -22.0760   -4.8740   22.5280 C   0  0  0  0  0  0  0  0  0  0  0  0
  -22.4820   -4.3300   21.3560 F   0  0  0  0  0  0  0  0  0  0  0  0
  -21.4320   -3.8370   25.9880 F   0  0  0  0  0  0  0  0  0  0  0  0
  -22.8480  -13.6220   21.1300 C   0  0  0  0  0  0  0  0  0  0  0  0
  -22.1370  -12.9150   22.0020 N   0  0  0  0  0  0  0  0  0  0  0  0
  -22.4000  -14.6510   20.6270 O   0  0  0  0  0  0  0  0  0  0  0  0
  -22.5140  -12.0810   22.4270 H   0  0  0  0  0  0  0  0  0  0  0  0
  -21.2030  -13.2110   22.2470 H   0  0  0  0  0  0  0  0  0  0  0  0
  -25.4530  -15.3070   20.2760 N   0  0  0  0  0  0  0  0  0  0  0  0
  -24.6810  -15.9540   20.3990 H   0  0  0  0  0  0  0  0  0  0  0  0
  -26.2800  -15.7480   19.8970 H   0  0  0  0  0  0  0  0  0  0  0  0
  -31.3560  -21.5110   19.0240 N   0  0  0  0  0  0  0  0  0  0  0  0
  -31.9030  -21.4720   18.1650 H   0  0  0  0  0  0  0  0  0  0  0  0
  -32.0050  -21.9160   19.6980 H   0  0  0  0  0  0  0  0  0  0  0  0
  -28.5470  -25.1590   19.6110 C   0  0  0  0  0  2  0  0  0  0  0  0
  -28.3940  -26.5090   20.2630 O   0  0  0  0  0  0  0  0  0  0  0  0
  -24.6230  -31.9200   23.2400 C   0  0  0  0  0  0  0  0  0  0  0  0
  -27.2560  -27.3430   20.1740 C   0  0  0  0  0  0  0  0  0  0  0  0
  -23.4230  -30.5100   21.6040 C   0  0  0  0  0  3  0  0  0  0  0  0
  -24.8800  -28.9620   20.1710 C   0  0  0  0  0  0  0  0  0  0  0  0
  -25.9610  -30.8390   21.4110 C   0  0  0  0  0  2  0  0  0  0  0  0
  -26.0460  -29.4560   20.7650 C   0  0  0  0  0  0  0  0  0  0  0  0
  -27.2310  -28.6560   20.7580 C   0  0  0  0  0  3  0  0  0  0  0  0
  -26.0630  -26.9060   19.5610 C   0  0  0  0  0  3  0  0  0  0  0  0
  -24.8920  -27.6950   19.5610 C   0  0  0  0  0  3  0  0  0  0  0  0
  -23.6360  -29.8310   20.2240 C   0  0  0  0  0  2  0  0  0  0  0  0
  -24.6880  -31.1080   22.1420 N   0  0  0  0  0  0  0  0  0  0  0  0
  -23.5390  -32.1890   23.7780 O   0  0  0  0  0  0  0  0  0  0  0  0
  -22.7690  -29.4930   22.5700 C   0  0  0  0  0  0  0  0  0  0  0  0
  -21.4420  -29.3080   22.4520 N   0  0  0  0  0  0  0  0  0  0  0  0
  -23.4550  -28.8750   23.3880 O   0  0  0  0  0  0  0  0  0  0  0  0
  -20.9460  -29.8620   21.7680 H   0  0  0  0  0  0  0  0  0  0  0  0
  -18.0790  -28.0740   22.9540 C   0  0  0  0  0  0  0  0  0  0  0  0
  -20.6350  -28.3640   23.2250 C   0  0  0  0  0  3  0  0  0  0  0  0
  -20.7540  -26.9310   22.6550 C   0  0  0  0  0  2  0  0  0  0  0  0
  -19.6550  -26.5910   21.6440 C   0  0  0  0  0  2  0  0  0  0  0  0
  -18.2700  -26.7260   22.2840 C   0  0  0  0  0  2  0  0  0  0  0  0
  -19.1890  -28.8510   23.3830 C   0  0  0  0  0  0  0  0  0  0  0  0
  -18.9560  -30.1140   23.9690 C   0  0  0  0  0  3  0  0  0  0  0  0
  -17.6450  -30.6010   24.1340 C   0  0  0  0  0  3  0  0  0  0  0  0
  -16.5500  -29.8220   23.7230 C   0  0  0  0  0  3  0  0  0  0  0  0
  -16.7670  -28.5610   23.1380 C   0  0  0  0  0  3  0  0  0  0  0  0
  -25.9020  -32.5640   23.8560 C   0  0  0  0  0  3  0  0  0  0  0  0
  -26.4240  -31.8060   25.1400 C   0  0  1  0  0  0  0  0  0  0  0  0
  -25.3320  -31.5730   26.2090 C   0  0  0  0  0  1  0  0  0  0  0  0
  -27.0140  -30.4280   24.7580 C   0  0  0  0  0  1  0  0  0  0  0  0
  -27.5710  -32.6110   25.7950 C   0  0  0  0  0  1  0  0  0  0  0  0
  -25.5880  -33.9640   24.1790 N   0  0  0  0  0  0  0  0  0  0  0  0
  -25.9130  -35.0140   23.4140 C   0  0  0  0  0  0  0  0  0  0  0  0
  -26.5790  -34.9070   22.3800 O   0  0  0  0  0  0  0  0  0  0  0  0
  -24.9990  -34.1220   24.9840 H   0  0  0  0  0  0  0  0  0  0  0  0
  -24.1820  -36.8030   23.0530 C   0  0  0  0  0  1  0  0  0  0  0  0
  -25.4220  -36.4030   23.8670 C   0  0  0  0  0  3  0  0  0  0  0  0
  -27.5520  -37.2980   24.7000 C   0  0  0  0  0  1  0  0  0  0  0  0
  -26.4520  -37.4580   23.7520 N   0  0  0  0  0  0  0  0  0  0  0  0
  -26.0430  -38.3770   23.8960 H   0  0  0  0  0  0  0  0  0  0  0  0
  1  4  2  0
  2  5  2  0
  3  2  1  0
  3  1  1  0
  4  8  1  0
  4  7  1  0
  6  3  1  0
  9 13  1  0
 10  9  2  0
 10 14  1  0
 12 11  1  0
 12  1  1  0
 13 23  1  0
 13 11  2  0
 14 12  2  0
 15 23  1  0
 16 21  1  0
 17 18  1  0
 17 16  1  0
 19 18  1  0
 19 28  1  0
 19 20  1  0
 21 15  1  0
 21 20  1  0
 22 15  2  0
 23 24  1  0
 25 26  2  0
 26 45  1  0
 27 26  1  0
 27 30  1  0
 28 25  1  0
 28 29  1  0
 29 27  2  0
 30 31  1  0
 31 32  2  0
 33 36  1  0
 33 32  1  0
 34 33  2  0
 35 34  1  0
 35 30  2  0
 36 37  1  0
 37 38  1  0
 38 39  2  0
 40 39  1  0
 40 44  1  0
 41 40  2  0
 42 37  2  0
 42 41  1  0
 43 42  1  0
 45 46  1  0
 46 49  1  0
 46 48  1  0
 47 45  2  0
 50 51  1  0
 50 25  1  0
 52 50  1  0
 53 14  1  0
 53 55  1  0
 54 53  1  0
 56 57  1  0
 56  2  1  0
 58 69  2  0
 59 57  1  0
 59 64  1  0
 60 68  1  0
 60 70  1  0
 61 67  1  0
 61 63  1  0
 62 68  1  0
 63 62  1  0
 64 63  2  0
 65 66  1  0
 65 59  2  0
 66 61  2  0
 67 60  1  0
 68 58  1  0
 70 72  2  0
 71 70  1  0
 73 71  1  0
 74 83  2  0
 74 79  1  0
 75 71  1  0
 75 79  1  0
 76 75  1  0
 77 78  1  0
 77 76  1  0
 78 74  1  0
 79 80  2  0
 80 81  1  0
 82 81  2  0
 83 82  1  0
 84 58  1  0
 84 89  1  0
 84 85  1  0
 85 88  1  1
 85 86  1  0
 87 85  1  0
 89 92  1  0
 90 94  1  0
 90 89  1  0
 91 90  2  0
 94 93  1  0
 96 94  1  0
 96 97  1  0
 96 95  1  0
M  ISO  4  15 100  23 100  56 101  57 101
M  END
>  <TORSDO>  (57) 
F 19

>  <SCORE>  (57) 
-14.550

>  <name>  (57) 
56

>  <ligand_id>  (57) 
56

>  <original_smiles>  (57) 
[H]c1c([H])c([H])c2c(c1[H])C([H])([H])C([H])([H])C([H])([H])C2([H])N([H])C(=O)C1([H])N(C(=O)C([H])(N([H])C(=O)C([H])(N([H])C([H])([H])[H])C([H])([H])[H])C(C([H])([H])[H])(C([H])([H])[H])C([H])([H])[H])C([H])([H])c2c([H])c(OC([H])([H])C(=O)N([H])C(c3c([H])c(N([H])C(=O)N4C([H])([H])C([H])([H])C([H])([H])C([H])(n5nc(-c6c([H])c([H])c(Oc7c([H])c([H])c(F)c([H])c7F)c([H])c6[H])c(C(=O)N([H])[H])c5N([H])[H])C4([H])[H])c([H])c([H])c3N([H])[H])=[N+]([H])[H])c([H])c([H])c2C1([H])[H]

>  <smiles>  (57) 
[H]c1c([H])c([H])c2c(c1[H])C([H])([H])C([H])([H])C([H])([H])C2([H])N([H])C(=O)C1([H])N(C(=O)C([H])(N([H])C(=O)C([H])(N([H])C([H])([H])[H])C([H])([H])[H])C(C([H])([H])[H])(C([H])([H])[H])C([H])([H])[H])C([H])([H])c2c([H])c(OC([H])([H])C(=O)N([H])C(c3c([H])c(N([H])C(=O)N4C([H])([H])C([H])([H])C([H])([H])C([H])(n5nc(-c6c([H])c([H])c(Oc7c([H])c([H])c(F)c([H])c7F)c([H])c6[H])c(C(=O)N([H])[H])c5N([H])[H])C4([H])[H])c([H])c([H])c3N([H])[H])=[N+]([H])[H])c([H])c([H])c2C1([H])[H]

$$$$
57:0:0
     RDKit          3D

 98106  0  0  1  0  0  0  0  0999 V2000
  -29.2530  -20.4410   19.7870 C   0  0  0  0  0  0  0  0  0  0  0  0
  -28.2970  -20.0630   18.9410 N   0  0  0  0  0  4  0  0  0  0  0  0
  -29.4250  -21.7810   19.9850 N   0  0  0  0  0  0  0  0  0  0  0  0
  -28.1540  -19.0660   18.8400 H   0  0  0  0  0  0  0  0  0  0  0  0
  -27.5520  -20.6730   18.6540 H   0  0  0  0  0  0  0  0  0  0  0  0
  -30.0450  -22.0780   20.7260 H   0  0  0  0  0  0  0  0  0  0  0  0
  -31.3070  -19.7560   21.0400 C   0  0  0  0  0  3  0  0  0  0  0  0
  -31.7840  -17.4340   21.6390 C   0  0  0  0  0  3  0  0  0  0  0  0
  -30.0820  -19.3860   20.4410 C   0  0  0  0  0  0  0  0  0  0  0  0
  -30.5730  -17.0200   21.0340 C   0  0  0  0  0  0  0  0  0  0  0  0
  -32.1420  -18.7970   21.6380 C   0  0  0  0  0  0  0  0  0  0  0  0
  -29.7200  -18.0010   20.4620 C   0  0  0  0  0  0  0  0  0  0  0  0
  -33.2990  -19.1970   22.2210 F   0  0  0  0  0  0  0  0  0  0  0  0
  -28.5610  -17.5700   19.8980 F   0  0  0  0  0  0  0  0  0  0  0  0
  -30.6320  -14.7230   20.1380 C   0  0  0  0  0  0  0  0  0  0  0  0
  -30.2120  -12.5840   18.9650 C   0  0  0  0  0  2  0  0  0  0  0  0
  -29.1930  -12.7810   17.8190 C   0  0  0  0  0  2  0  0  0  0  0  0
  -27.7620  -12.6000   18.3480 C   0  0  0  0  0  2  0  0  0  0  0  0
  -27.4990  -13.4330   19.6280 C   0  0  0  0  0  3  0  0  0  0  0  0
  -28.6310  -13.2510   20.6680 C   0  0  0  0  0  2  0  0  0  0  0  0
  -29.9190  -13.5660   20.0230 N   0  0  0  0  0  0  0  0  0  0  0  0
  -31.6450  -14.9480   19.4640 O   0  0  0  0  0  0  0  0  0  0  0  0
  -30.1860  -15.6370   21.0230 N   0  0  0  0  0  0  0  0  0  0  0  0
  -29.3670  -15.3850   21.5550 H   0  0  0  0  0  0  0  0  0  0  0  0
  -25.1600  -13.9830   20.5460 C   0  0  0  0  0  0  0  0  0  0  0  0
  -24.1230  -13.1830   20.9430 C   0  0  0  0  0  0  0  0  0  0  0  0
  -24.5820  -11.8370   20.8040 C   0  0  0  0  0  0  0  0  0  0  0  0
  -26.1870  -13.1250   20.1890 N   0  0  0  0  0  0  0  0  0  0  0  0
  -25.8480  -11.8240   20.4020 N   0  0  0  0  0  0  0  0  0  0  0  0
  -23.8730  -10.5610   20.9710 C   0  0  0  0  0  0  0  0  0  0  0  0
  -24.3300   -9.5810   21.8810 C   0  0  0  0  0  3  0  0  0  0  0  0
  -23.6240   -8.3690   22.0490 C   0  0  0  0  0  3  0  0  0  0  0  0
  -22.4420   -8.1300   21.3060 C   0  0  0  0  0  0  0  0  0  0  0  0
  -22.0010   -9.1010   20.3890 C   0  0  0  0  0  3  0  0  0  0  0  0
  -22.7110  -10.3020   20.2210 C   0  0  0  0  0  3  0  0  0  0  0  0
  -21.7000   -6.9750   21.3870 O   0  0  0  0  0  0  0  0  0  0  0  0
  -21.6280   -6.2460   22.5470 C   0  0  0  0  0  0  0  0  0  0  0  0
  -21.0920   -6.7840   23.7380 C   0  0  0  0  0  3  0  0  0  0  0  0
  -20.9770   -5.9780   24.8880 C   0  0  0  0  0  3  0  0  0  0  0  0
  -21.3810   -4.6290   24.8440 C   0  0  0  0  0  0  0  0  0  0  0  0
  -21.9080   -4.0890   23.6590 C   0  0  0  0  0  3  0  0  0  0  0  0
  -22.0290   -4.8950   22.5140 C   0  0  0  0  0  0  0  0  0  0  0  0
  -22.5180   -4.3620   21.3660 F   0  0  0  0  0  0  0  0  0  0  0  0
  -21.2600   -3.8480   25.9430 F   0  0  0  0  0  0  0  0  0  0  0  0
  -22.7440  -13.6310   21.3400 C   0  0  0  0  0  0  0  0  0  0  0  0
  -22.0740  -12.8890   22.2150 N   0  0  0  0  0  0  0  0  0  0  0  0
  -22.2670  -14.6780   20.9070 O   0  0  0  0  0  0  0  0  0  0  0  0
  -22.4660  -12.0410   22.6020 H   0  0  0  0  0  0  0  0  0  0  0  0
  -21.1540  -13.1830   22.5060 H   0  0  0  0  0  0  0  0  0  0  0  0
  -25.3020  -15.3630   20.4400 N   0  0  0  0  0  0  0  0  0  0  0  0
  -24.5520  -15.9940   20.7070 H   0  0  0  0  0  0  0  0  0  0  0  0
  -26.1370  -15.8380   20.1300 H   0  0  0  0  0  0  0  0  0  0  0  0
  -28.7260  -22.9130   19.2800 C   0  0  0  0  0  2  0  0  0  0  0  0
  -30.4330  -24.7960   19.6850 C   0  0  0  0  0  1  0  0  0  0  0  0
  -28.9730  -24.3500   19.8790 C   0  0  2  0  0  0  0  0  0  0  0  0
  -28.7540  -24.2280   21.1890 F   0  0  0  0  0  0  0  0  0  0  0  0
  -27.9570  -25.4280   19.3420 C   0  0  0  0  0  2  0  0  0  0  0  0
  -28.0800  -26.8040   19.8480 O   0  0  0  0  0  0  0  0  0  0  0  0
  -24.4950  -32.0270   23.2990 C   0  0  0  0  0  0  0  0  0  0  0  0
  -26.9340  -27.6040   19.9130 C   0  0  0  0  0  0  0  0  0  0  0  0
  -23.1990  -30.6840   21.6850 C   0  0  0  0  0  3  0  0  0  0  0  0
  -24.5650  -29.1870   20.1270 C   0  0  0  0  0  0  0  0  0  0  0  0
  -25.7250  -31.0030   21.3810 C   0  0  0  0  0  2  0  0  0  0  0  0
  -25.7630  -29.6510   20.6830 C   0  0  0  0  0  0  0  0  0  0  0  0
  -26.9460  -28.8640   20.5810 C   0  0  0  0  0  3  0  0  0  0  0  0
  -25.7110  -27.2020   19.3190 C   0  0  0  0  0  3  0  0  0  0  0  0
  -24.5390  -27.9650   19.4420 C   0  0  0  0  0  3  0  0  0  0  0  0
  -23.3320  -30.0560   20.2740 C   0  0  0  0  0  2  0  0  0  0  0  0
  -24.4950  -31.2520   22.1770 N   0  0  0  0  0  0  0  0  0  0  0  0
  -23.4420  -32.2880   23.8970 O   0  0  0  0  0  0  0  0  0  0  0  0
  -22.5920  -29.6330   22.6400 C   0  0  0  0  0  0  0  0  0  0  0  0
  -21.2760  -29.3940   22.5110 N   0  0  0  0  0  0  0  0  0  0  0  0
  -23.3000  -29.0360   23.4560 O   0  0  0  0  0  0  0  0  0  0  0  0
  -20.7640  -29.9350   21.8290 H   0  0  0  0  0  0  0  0  0  0  0  0
  -17.9650  -28.0100   22.9590 C   0  0  0  0  0  0  0  0  0  0  0  0
  -20.4970  -28.4200   23.2790 C   0  0  0  0  0  3  0  0  0  0  0  0
  -20.6920  -26.9870   22.7310 C   0  0  0  0  0  2  0  0  0  0  0  0
  -19.6330  -26.5830   21.7000 C   0  0  0  0  0  2  0  0  0  0  0  0
  -18.2320  -26.6620   22.3140 C   0  0  0  0  0  2  0  0  0  0  0  0
  -19.0290  -28.8430   23.3990 C   0  0  0  0  0  0  0  0  0  0  0  0
  -18.7230  -30.1010   23.9610 C   0  0  0  0  0  3  0  0  0  0  0  0
  -17.3880  -30.5290   24.0870 C   0  0  0  0  0  3  0  0  0  0  0  0
  -16.3400  -29.6930   23.6650 C   0  0  0  0  0  3  0  0  0  0  0  0
  -16.6290  -28.4360   23.1070 C   0  0  0  0  0  3  0  0  0  0  0  0
  -25.8120  -32.6360   23.8710 C   0  0  0  0  0  3  0  0  0  0  0  0
  -26.3560  -31.8590   25.1300 C   0  0  1  0  0  0  0  0  0  0  0  0
  -25.2880  -31.6120   26.2220 C   0  0  0  0  0  1  0  0  0  0  0  0
  -26.9310  -30.4850   24.7180 C   0  0  0  0  0  1  0  0  0  0  0  0
  -27.5230  -32.6510   25.7670 C   0  0  0  0  0  1  0  0  0  0  0  0
  -25.5380  -34.0400   24.2050 N   0  0  0  0  0  0  0  0  0  0  0  0
  -25.8640  -35.0840   23.4300 C   0  0  0  0  0  0  0  0  0  0  0  0
  -26.4950  -34.9640   22.3770 O   0  0  0  0  0  0  0  0  0  0  0  0
  -24.9710  -34.2090   25.0220 H   0  0  0  0  0  0  0  0  0  0  0  0
  -24.1610  -36.9100   23.1180 C   0  0  0  0  0  1  0  0  0  0  0  0
  -25.4150  -36.4820   23.8980 C   0  0  0  0  0  3  0  0  0  0  0  0
  -27.5850  -37.3260   24.6780 C   0  0  0  0  0  1  0  0  0  0  0  0
  -26.4640  -37.5150   23.7600 N   0  0  0  0  0  0  0  0  0  0  0  0
  -26.0810  -38.4430   23.9190 H   0  0  0  0  0  0  0  0  0  0  0  0
  1  3  1  0
  1  9  1  0
  2  1  2  0
  3  6  1  0
  4  2  1  0
  5  2  1  0
  7 11  1  0
  9 12  1  0
  9  7  2  0
 10  8  1  0
 11  8  2  0
 11 13  1  0
 12 10  2  0
 14 12  1  0
 15 23  1  0
 16 21  1  0
 17 18  1  0
 17 16  1  0
 19 18  1  0
 19 28  1  0
 19 20  1  0
 21 15  1  0
 21 20  1  0
 22 15  2  0
 23 10  1  0
 23 24  1  0
 25 26  2  0
 26 45  1  0
 27 26  1  0
 27 30  1  0
 28 29  1  0
 28 25  1  0
 29 27  2  0
 30 31  1  0
 31 32  2  0
 33 36  1  0
 33 32  1  0
 34 33  2  0
 35 34  1  0
 35 30  2  0
 36 37  1  0
 37 38  1  0
 38 39  2  0
 40 39  1  0
 40 44  1  0
 41 40  2  0
 42 37  2  0
 42 41  1  0
 43 42  1  0
 45 46  1  0
 46 49  1  0
 46 48  1  0
 47 45  2  0
 50 25  1  0
 50 51  1  0
 52 50  1  0
 53 55  1  0
 53  3  1  0
 55 54  1  1
 55 56  1  0
 57 58  1  0
 57 55  1  0
 58 60  1  0
 59 70  2  0
 60 65  1  0
 61 69  1  0
 61 71  1  0
 62 68  1  0
 62 64  1  0
 63 69  1  0
 64 63  1  0
 65 64  2  0
 66 67  1  0
 66 60  2  0
 67 62  2  0
 68 61  1  0
 69 59  1  0
 71 73  2  0
 72 71  1  0
 74 72  1  0
 75 84  2  0
 75 80  1  0
 76 72  1  0
 76 80  1  0
 77 76  1  0
 78 79  1  0
 78 77  1  0
 79 75  1  0
 80 81  2  0
 81 82  1  0
 83 82  2  0
 84 83  1  0
 85 59  1  0
 85 90  1  0
 85 86  1  0
 86 89  1  1
 86 87  1  0
 88 86  1  0
 90 93  1  0
 91 95  1  0
 91 90  1  0
 92 91  2  0
 95 94  1  0
 97 95  1  0
 97 98  1  0
 97 96  1  0
M  ISO  4  15 100  23 100  57 101  58 101
M  END
>  <TORSDO>  (58) 
F 20

>  <SCORE>  (58) 
-13.574

>  <name>  (58) 
57

>  <ligand_id>  (58) 
57

>  <original_smiles>  (58) 
[H]c1c([H])c([H])c2c(c1[H])C([H])([H])C([H])([H])C([H])([H])C2([H])N([H])C(=O)C1([H])N(C(=O)C([H])(N([H])C(=O)C([H])(N([H])C([H])([H])[H])C([H])([H])[H])C(C([H])([H])[H])(C([H])([H])[H])C([H])([H])[H])C([H])([H])c2c([H])c(OC([H])([H])C(F)(C([H])([H])[H])C([H])([H])[N+]([H])=C(c3c([H])c(F)c([H])c(N([H])C(=O)N4C([H])([H])C([H])([H])C([H])([H])C([H])(n5nc(-c6c([H])c([H])c(Oc7c([H])c([H])c(F)c([H])c7F)c([H])c6[H])c(C(=O)N([H])[H])c5N([H])[H])C4([H])[H])c3F)N([H])[H])c([H])c([H])c2C1([H])[H]

>  <smiles>  (58) 
[H]c1c([H])c([H])c2c(c1[H])C([H])([H])C([H])([H])C([H])([H])C2([H])N([H])C(=O)C1([H])N(C(=O)C([H])(N([H])C(=O)C([H])(N([H])C([H])([H])[H])C([H])([H])[H])C(C([H])([H])[H])(C([H])([H])[H])C([H])([H])[H])C([H])([H])c2c([H])c(OC([H])([H])C(F)(C([H])([H])[H])C([H])([H])[N+]([H])=C(c3c([H])c(F)c([H])c(N([H])C(=O)N4C([H])([H])C([H])([H])C([H])([H])C([H])(n5nc(-c6c([H])c([H])c(Oc7c([H])c([H])c(F)c([H])c7F)c([H])c6[H])c(C(=O)N([H])[H])c5N([H])[H])C4([H])[H])c3F)N([H])[H])c([H])c([H])c2C1([H])[H]

$$$$
58:0:0
     RDKit          3D

 96105  0  0  1  0  0  0  0  0999 V2000
  -29.8420  -23.4130   21.4460 C   0  0  0  0  0  3  0  0  0  0  0  0
  -28.9950  -23.5920   20.3030 C   0  0  0  0  0  0  0  0  0  0  0  0
  -30.2470  -22.0910   21.5290 C   0  0  0  0  0  0  0  0  0  0  0  0
  -28.9500  -22.2930   19.7790 C   0  0  0  0  0  0  0  0  0  0  0  0
  -29.7260  -21.3260   20.4880 N   0  0  0  0  0  0  0  0  0  0  0  0
  -30.8200  -18.5370   18.2230 C   0  0  0  0  0  3  0  0  0  0  0  0
  -30.5320  -19.7870   18.7870 C   0  0  0  0  0  3  0  0  0  0  0  0
  -29.9530  -18.6710   20.8690 C   0  0  0  0  0  3  0  0  0  0  0  0
  -30.6610  -17.3360   18.9450 C   0  0  0  0  0  0  0  0  0  0  0  0
  -30.0420  -19.9190   20.1010 C   0  0  0  0  0  0  0  0  0  0  0  0
  -30.2880  -17.3460   20.3240 C   0  0  0  0  0  0  0  0  0  0  0  0
  -30.8130  -16.0550   18.1440 C   0  0  0  0  0  1  0  0  0  0  0  0
  -30.9010  -14.8750   21.0180 C   0  0  0  0  0  0  0  0  0  0  0  0
  -30.8180  -12.5250   20.1690 C   0  0  0  0  0  2  0  0  0  0  0  0
  -30.0190  -12.4590   18.8480 C   0  0  0  0  0  2  0  0  0  0  0  0
  -28.5040  -12.3560   19.1130 C   0  0  0  0  0  2  0  0  0  0  0  0
  -28.0000  -13.3180   20.2210 C   0  0  0  0  0  3  0  0  0  0  0  0
  -28.9290  -13.3160   21.4560 C   0  0  0  0  0  2  0  0  0  0  0  0
  -30.2790  -13.6430   20.9840 N   0  0  0  0  0  0  0  0  0  0  0  0
  -32.1220  -14.9350   20.8520 O   0  0  0  0  0  0  0  0  0  0  0  0
  -30.1230  -16.0370   21.0410 N   0  0  0  0  0  0  0  0  0  0  0  0
  -29.1960  -15.8900   21.4100 H   0  0  0  0  0  0  0  0  0  0  0  0
  -25.5530  -13.9390   20.6830 C   0  0  0  0  0  0  0  0  0  0  0  0
  -24.4460  -13.1810   20.9530 C   0  0  0  0  0  0  0  0  0  0  0  0
  -24.8980  -11.8260   21.0080 C   0  0  0  0  0  0  0  0  0  0  0  0
  -26.6080  -13.0480   20.5790 N   0  0  0  0  0  0  0  0  0  0  0  0
  -26.2140  -11.7740   20.8400 N   0  0  0  0  0  0  0  0  0  0  0  0
  -24.1430  -10.5730   21.1490 C   0  0  0  0  0  0  0  0  0  0  0  0
  -24.4930   -9.6050   22.1160 C   0  0  0  0  0  3  0  0  0  0  0  0
  -23.7420   -8.4170   22.2450 C   0  0  0  0  0  3  0  0  0  0  0  0
  -22.6250   -8.1890   21.4060 C   0  0  0  0  0  0  0  0  0  0  0  0
  -22.2950   -9.1460   20.4300 C   0  0  0  0  0  3  0  0  0  0  0  0
  -23.0480  -10.3250   20.2990 C   0  0  0  0  0  3  0  0  0  0  0  0
  -21.8500   -7.0550   21.4440 O   0  0  0  0  0  0  0  0  0  0  0  0
  -21.7340   -6.3010   22.5830 C   0  0  0  0  0  0  0  0  0  0  0  0
  -21.2450   -6.8460   23.7910 C   0  0  0  0  0  3  0  0  0  0  0  0
  -21.0730   -6.0190   24.9190 C   0  0  0  0  0  3  0  0  0  0  0  0
  -21.3820   -4.6470   24.8400 C   0  0  0  0  0  0  0  0  0  0  0  0
  -21.8640   -4.1020   23.6360 C   0  0  0  0  0  3  0  0  0  0  0  0
  -22.0360   -4.9260   22.5110 C   0  0  0  0  0  0  0  0  0  0  0  0
  -22.4810   -4.3900   21.3490 F   0  0  0  0  0  0  0  0  0  0  0  0
  -21.2130   -3.8500   25.9200 F   0  0  0  0  0  0  0  0  0  0  0  0
  -23.0320  -13.6740   21.0610 C   0  0  0  0  0  0  0  0  0  0  0  0
  -22.2130  -13.0130   21.8710 N   0  0  0  0  0  0  0  0  0  0  0  0
  -22.6590  -14.6810   20.4600 O   0  0  0  0  0  0  0  0  0  0  0  0
  -22.5250  -12.1970   22.3750 H   0  0  0  0  0  0  0  0  0  0  0  0
  -21.2600  -13.3280   21.9890 H   0  0  0  0  0  0  0  0  0  0  0  0
  -25.7530  -15.3030   20.4920 N   0  0  0  0  0  0  0  0  0  0  0  0
  -24.9940  -15.9730   20.5170 H   0  0  0  0  0  0  0  0  0  0  0  0
  -26.6410  -15.7220   20.2460 H   0  0  0  0  0  0  0  0  0  0  0  0
  -31.0780  -21.5200   22.4450 O   0  0  0  0  0  0  0  0  0  0  0  0
  -31.3410  -22.1940   23.0650 H   0  0  0  0  0  0  0  0  0  0  0  0
  -28.2510  -21.8850   18.6790 O   0  0  0  0  0  0  0  0  0  0  0  0
  -27.8160  -22.6430   18.3020 H   0  0  0  0  0  0  0  0  0  0  0  0
  -28.1800  -24.8690   19.7740 C   0  0  0  0  0  2  0  0  0  0  0  0
  -28.4670  -26.3290   20.0310 O   0  0  0  0  0  0  0  0  0  0  0  0
  -24.6340  -31.7640   23.0080 C   0  0  0  0  0  0  0  0  0  0  0  0
  -27.3680  -27.2340   19.9430 C   0  0  0  0  0  0  0  0  0  0  0  0
  -23.4690  -30.3330   21.3720 C   0  0  0  0  0  3  0  0  0  0  0  0
  -24.9650  -28.8340   19.9320 C   0  0  0  0  0  0  0  0  0  0  0  0
  -26.0070  -30.7090   21.1930 C   0  0  0  0  0  2  0  0  0  0  0  0
  -26.1250  -29.3300   20.5400 C   0  0  0  0  0  0  0  0  0  0  0  0
  -27.3240  -28.5410   20.5430 C   0  0  0  0  0  3  0  0  0  0  0  0
  -26.1830  -26.8330   19.2730 C   0  0  0  0  0  3  0  0  0  0  0  0
  -25.0030  -27.5950   19.2840 C   0  0  0  0  0  3  0  0  0  0  0  0
  -23.7020  -29.6710   19.9890 C   0  0  0  0  0  2  0  0  0  0  0  0
  -24.7220  -30.9540   21.9120 N   0  0  0  0  0  0  0  0  0  0  0  0
  -23.5420  -32.0120   23.5420 O   0  0  0  0  0  0  0  0  0  0  0  0
  -22.8370  -29.2960   22.3320 C   0  0  0  0  0  0  0  0  0  0  0  0
  -21.5070  -29.1150   22.2420 N   0  0  0  0  0  0  0  0  0  0  0  0
  -23.5420  -28.6600   23.1200 O   0  0  0  0  0  0  0  0  0  0  0  0
  -20.9970  -29.6790   21.5770 H   0  0  0  0  0  0  0  0  0  0  0  0
  -18.1460  -27.9160   22.8510 C   0  0  0  0  0  0  0  0  0  0  0  0
  -20.7150  -28.1600   23.0220 C   0  0  0  0  0  3  0  0  0  0  0  0
  -20.7870  -26.7440   22.4070 C   0  0  0  0  0  2  0  0  0  0  0  0
  -19.6420  -26.4510   21.4310 C   0  0  0  0  0  2  0  0  0  0  0  0
  -18.2890  -26.5850   22.1340 C   0  0  0  0  0  2  0  0  0  0  0  0
  -19.2860  -28.6640   23.2550 C   0  0  0  0  0  0  0  0  0  0  0  0
  -19.0950  -29.9110   23.8880 C   0  0  0  0  0  3  0  0  0  0  0  0
  -17.8000  -30.4110   24.1200 C   0  0  0  0  0  3  0  0  0  0  0  0
  -16.6770  -29.6610   23.7330 C   0  0  0  0  0  3  0  0  0  0  0  0
  -16.8510  -28.4150   23.1040 C   0  0  0  0  0  3  0  0  0  0  0  0
  -25.8960  -32.4370   23.6270 C   0  0  0  0  0  3  0  0  0  0  0  0
  -26.4780  -31.6450   24.8620 C   0  0  1  0  0  0  0  0  0  0  0  0
  -25.4220  -31.3200   25.9450 C   0  0  0  0  0  1  0  0  0  0  0  0
  -27.1130  -30.3100   24.4080 C   0  0  0  0  0  1  0  0  0  0  0  0
  -27.6100  -32.4660   25.5230 C   0  0  0  0  0  1  0  0  0  0  0  0
  -25.5250  -33.8050   24.0200 N   0  0  0  0  0  0  0  0  0  0  0  0
  -25.8340  -34.9070   23.3250 C   0  0  0  0  0  0  0  0  0  0  0  0
  -26.5290  -34.8830   22.3060 O   0  0  0  0  0  0  0  0  0  0  0  0
  -24.9070  -33.8940   24.8130 H   0  0  0  0  0  0  0  0  0  0  0  0
  -24.0600  -36.6640   23.0110 C   0  0  0  0  0  1  0  0  0  0  0  0
  -25.2860  -36.2520   23.8420 C   0  0  0  0  0  3  0  0  0  0  0  0
  -27.3590  -37.1550   24.7990 C   0  0  0  0  0  1  0  0  0  0  0  0
  -26.2870  -37.3410   23.8250 N   0  0  0  0  0  0  0  0  0  0  0  0
  -25.8460  -38.2400   24.0060 H   0  0  0  0  0  0  0  0  0  0  0  0
  1  3  2  0
  2  1  1  0
  3 51  1  0
  4  2  2  0
  4  5  1  0
  5  3  1  0
  6  7  2  0
  6  9  1  0
  7 10  1  0
  9 11  2  0
 10  5  1  0
 10  8  2  0
 11  8  1  0
 11 21  1  0
 12  9  1  0
 13 21  1  0
 14 19  1  0
 15 16  1  0
 15 14  1  0
 17 16  1  0
 17 26  1  0
 17 18  1  0
 19 13  1  0
 19 18  1  0
 20 13  2  0
 21 22  1  0
 23 24  2  0
 24 25  1  0
 24 43  1  0
 25 28  1  0
 26 23  1  0
 26 27  1  0
 27 25  2  0
 28 29  1  0
 29 30  2  0
 31 34  1  0
 31 30  1  0
 32 31  2  0
 33 32  1  0
 33 28  2  0
 34 35  1  0
 35 36  1  0
 36 37  2  0
 38 37  1  0
 38 42  1  0
 39 38  2  0
 40 35  2  0
 40 39  1  0
 41 40  1  0
 43 44  1  0
 44 47  1  0
 44 46  1  0
 45 43  2  0
 48 49  1  0
 48 23  1  0
 50 48  1  0
 51 52  1  0
 53  4  1  0
 54 53  1  0
 55 56  1  0
 55  2  1  0
 57 68  2  0
 58 56  1  0
 58 63  1  0
 59 67  1  0
 59 69  1  0
 60 66  1  0
 60 62  1  0
 61 67  1  0
 62 63  2  0
 62 61  1  0
 64 65  1  0
 64 58  2  0
 65 60  2  0
 66 59  1  0
 67 57  1  0
 69 71  2  0
 70 69  1  0
 72 70  1  0
 73 82  2  0
 73 78  1  0
 74 70  1  0
 74 78  1  0
 75 74  1  0
 76 77  1  0
 76 75  1  0
 77 73  1  0
 78 79  2  0
 79 80  1  0
 81 80  2  0
 82 81  1  0
 83 57  1  0
 83 88  1  0
 83 84  1  0
 84 87  1  1
 84 85  1  0
 86 84  1  0
 88 91  1  0
 89 93  1  0
 89 88  1  0
 90 89  2  0
 93 92  1  0
 95 93  1  0
 95 96  1  0
 95 94  1  0
M  ISO  4  13 100  21 100  55 101  56 101
M  END
>  <TORSDO>  (59) 
F 20

>  <SCORE>  (59) 
-13.778

>  <name>  (59) 
58

>  <ligand_id>  (59) 
58

>  <original_smiles>  (59) 
[H]Oc1c([H])c(C([H])([H])Oc2c([H])c([H])c3c(c2[H])C([H])([H])N(C(=O)C([H])(N([H])C(=O)C([H])(N([H])C([H])([H])[H])C([H])([H])[H])C(C([H])([H])[H])(C([H])([H])[H])C([H])([H])[H])C([H])(C(=O)N([H])C2([H])c4c([H])c([H])c([H])c([H])c4C([H])([H])C([H])([H])C2([H])[H])C3([H])[H])c(O[H])n1-c1c([H])c([H])c(C([H])([H])[H])c(N([H])C(=O)N2C([H])([H])C([H])([H])C([H])([H])C([H])(n3nc(-c4c([H])c([H])c(Oc5c([H])c([H])c(F)c([H])c5F)c([H])c4[H])c(C(=O)N([H])[H])c3N([H])[H])C2([H])[H])c1[H]

>  <smiles>  (59) 
[H]Oc1c([H])c(C([H])([H])Oc2c([H])c([H])c3c(c2[H])C([H])([H])N(C(=O)C([H])(N([H])C(=O)C([H])(N([H])C([H])([H])[H])C([H])([H])[H])C(C([H])([H])[H])(C([H])([H])[H])C([H])([H])[H])C([H])(C(=O)N([H])C2([H])c4c([H])c([H])c([H])c([H])c4C([H])([H])C([H])([H])C2([H])[H])C3([H])[H])c(O[H])n1-c1c([H])c([H])c(C([H])([H])[H])c(N([H])C(=O)N2C([H])([H])C([H])([H])C([H])([H])C([H])(n3nc(-c4c([H])c([H])c(Oc5c([H])c([H])c(F)c([H])c5F)c([H])c4[H])c(C(=O)N([H])[H])c3N([H])[H])C2([H])[H])c1[H]

$$$$
59:0:0
     RDKit          3D

 92101  0  0  1  0  0  0  0  0999 V2000
  -28.8070  -19.4160   20.3910 C   0  0  0  0  0  3  0  0  0  0  0  0
  -28.7460  -17.9870   20.3640 C   0  0  0  0  0  3  0  0  0  0  0  0
  -30.9660  -17.8450   21.2790 C   0  0  0  0  0  3  0  0  0  0  0  0
  -29.9450  -20.1020   20.8830 C   0  0  0  0  0  0  0  0  0  0  0  0
  -31.0180  -19.2730   21.3260 C   0  0  0  0  0  0  0  0  0  0  0  0
  -29.8220  -17.1580   20.7980 C   0  0  0  0  0  0  0  0  0  0  0  0
  -32.2440  -19.9530   21.9050 C   0  0  0  0  0  2  0  0  0  0  0  0
  -31.8360  -21.0940   22.8440 C   0  0  0  0  0  2  0  0  0  0  0  0
  -30.8810  -22.1260   22.2050 C   0  0  0  0  0  2  0  0  0  0  0  0
  -30.1230  -21.6770   20.9230 C   0  0  0  0  0  3  0  0  0  0  0  0
  -30.4940  -14.6620   20.4830 C   0  0  0  0  0  0  0  0  0  0  0  0
  -30.2950  -12.4570   19.3410 C   0  0  0  0  0  2  0  0  0  0  0  0
  -29.3420  -12.6210   18.1350 C   0  0  0  0  0  2  0  0  0  0  0  0
  -27.8690  -12.4470   18.5650 C   0  0  0  0  0  2  0  0  0  0  0  0
  -27.5180  -13.2620   19.8380 C   0  0  0  0  0  3  0  0  0  0  0  0
  -28.5850  -13.0640   20.9390 C   0  0  0  0  0  2  0  0  0  0  0  0
  -29.8880  -13.4370   20.3660 N   0  0  0  0  0  0  0  0  0  0  0  0
  -31.6620  -14.8360   20.1220 O   0  0  0  0  0  0  0  0  0  0  0  0
  -29.6620  -15.7010   20.8140 N   0  0  0  0  0  0  0  0  0  0  0  0
  -28.7180  -15.3880   20.9770 H   0  0  0  0  0  0  0  0  0  0  0  0
  -25.1220  -13.8370   20.5660 C   0  0  0  0  0  0  0  0  0  0  0  0
  -24.0620  -13.0530   20.9300 C   0  0  0  0  0  0  0  0  0  0  0  0
  -24.5340  -11.7050   20.8810 C   0  0  0  0  0  0  0  0  0  0  0  0
  -26.1720  -12.9660   20.3190 N   0  0  0  0  0  0  0  0  0  0  0  0
  -25.8230  -11.6780   20.5690 N   0  0  0  0  0  0  0  0  0  0  0  0
  -23.8160  -10.4350   21.0580 C   0  0  0  0  0  0  0  0  0  0  0  0
  -24.2410   -9.4720   21.9980 C   0  0  0  0  0  3  0  0  0  0  0  0
  -23.5240   -8.2660   22.1620 C   0  0  0  0  0  3  0  0  0  0  0  0
  -22.3690   -8.0170   21.3850 C   0  0  0  0  0  0  0  0  0  0  0  0
  -21.9640   -8.9690   20.4330 C   0  0  0  0  0  3  0  0  0  0  0  0
  -22.6810  -10.1650   20.2670 C   0  0  0  0  0  3  0  0  0  0  0  0
  -21.6250   -6.8640   21.4580 O   0  0  0  0  0  0  0  0  0  0  0  0
  -21.5410   -6.1330   22.6160 C   0  0  0  0  0  0  0  0  0  0  0  0
  -20.9800   -6.6690   23.7960 C   0  0  0  0  0  3  0  0  0  0  0  0
  -20.8490   -5.8620   24.9430 C   0  0  0  0  0  3  0  0  0  0  0  0
  -21.2700   -4.5180   24.9120 C   0  0  0  0  0  0  0  0  0  0  0  0
  -21.8230   -3.9800   23.7360 C   0  0  0  0  0  3  0  0  0  0  0  0
  -21.9570   -4.7860   22.5910 C   0  0  0  0  0  0  0  0  0  0  0  0
  -22.4710   -4.2580   21.4550 F   0  0  0  0  0  0  0  0  0  0  0  0
  -21.1370   -3.7400   26.0110 F   0  0  0  0  0  0  0  0  0  0  0  0
  -22.6620  -13.5160   21.2090 C   0  0  0  0  0  0  0  0  0  0  0  0
  -21.9410  -12.8050   22.0690 N   0  0  0  0  0  0  0  0  0  0  0  0
  -22.2140  -14.5430   20.6990 O   0  0  0  0  0  0  0  0  0  0  0  0
  -22.3180  -11.9750   22.5030 H   0  0  0  0  0  0  0  0  0  0  0  0
  -21.0000  -13.0920   22.2970 H   0  0  0  0  0  0  0  0  0  0  0  0
  -25.2750  -15.2100   20.3990 N   0  0  0  0  0  0  0  0  0  0  0  0
  -24.4960  -15.8520   20.5030 H   0  0  0  0  0  0  0  0  0  0  0  0
  -26.0980  -15.6510   20.0100 H   0  0  0  0  0  0  0  0  0  0  0  0
  -28.9730  -22.5700   20.6790 O   0  0  0  0  0  0  0  0  0  0  0  0
  -29.2430  -24.0310   20.6400 C   0  0  0  0  0  3  0  0  0  0  0  0
  -28.0760  -25.0230   20.2130 C   0  0  0  0  0  3  0  0  0  0  0  0
  -28.2820  -26.4860   20.3600 O   0  0  0  0  0  0  0  0  0  0  0  0
  -24.5220  -31.9310   23.2440 C   0  0  0  0  0  0  0  0  0  0  0  0
  -27.1610  -27.3300   20.2820 C   0  0  0  0  0  0  0  0  0  0  0  0
  -23.3340  -30.5210   21.6030 C   0  0  0  0  0  3  0  0  0  0  0  0
  -24.7980  -28.9470   20.2160 C   0  0  0  0  0  0  0  0  0  0  0  0
  -25.8760  -30.8270   21.4510 C   0  0  0  0  0  2  0  0  0  0  0  0
  -25.9600  -29.4400   20.8250 C   0  0  0  0  0  0  0  0  0  0  0  0
  -27.1440  -28.6440   20.8460 C   0  0  0  0  0  3  0  0  0  0  0  0
  -25.9740  -26.8900   19.6490 C   0  0  0  0  0  3  0  0  0  0  0  0
  -24.8070  -27.6770   19.6190 C   0  0  0  0  0  3  0  0  0  0  0  0
  -23.5650  -29.8280   20.2350 C   0  0  0  0  0  2  0  0  0  0  0  0
  -24.5950  -31.1110   22.1560 N   0  0  0  0  0  0  0  0  0  0  0  0
  -23.4340  -32.2190   23.7620 O   0  0  0  0  0  0  0  0  0  0  0  0
  -22.6560  -29.5180   22.5670 C   0  0  0  0  0  0  0  0  0  0  0  0
  -21.3290  -29.3460   22.4300 N   0  0  0  0  0  0  0  0  0  0  0  0
  -23.3220  -28.8980   23.4000 O   0  0  0  0  0  0  0  0  0  0  0  0
  -20.8490  -29.9010   21.7350 H   0  0  0  0  0  0  0  0  0  0  0  0
  -17.9340  -28.2160   22.9490 C   0  0  0  0  0  0  0  0  0  0  0  0
  -20.4990  -28.4230   23.2040 C   0  0  0  0  0  3  0  0  0  0  0  0
  -20.5680  -26.9910   22.6260 C   0  0  0  0  0  2  0  0  0  0  0  0
  -19.4560  -26.6930   21.6160 C   0  0  0  0  0  2  0  0  0  0  0  0
  -18.0800  -26.8660   22.2670 C   0  0  0  0  0  2  0  0  0  0  0  0
  -19.0710  -28.9550   23.3740 C   0  0  0  0  0  0  0  0  0  0  0  0
  -18.8820  -30.2190   23.9710 C   0  0  0  0  0  3  0  0  0  0  0  0
  -17.5890  -30.7490   24.1450 C   0  0  0  0  0  3  0  0  0  0  0  0
  -16.4670  -30.0080   23.7330 C   0  0  0  0  0  3  0  0  0  0  0  0
  -16.6400  -28.7440   23.1420 C   0  0  0  0  0  3  0  0  0  0  0  0
  -25.8000  -32.5660   23.8740 C   0  0  0  0  0  3  0  0  0  0  0  0
  -26.3000  -31.8040   25.1630 C   0  0  1  0  0  0  0  0  0  0  0  0
  -25.1920  -31.5690   26.2160 C   0  0  0  0  0  1  0  0  0  0  0  0
  -26.8960  -30.4290   24.7890 C   0  0  0  0  0  1  0  0  0  0  0  0
  -27.4370  -32.6070   25.8400 C   0  0  0  0  0  1  0  0  0  0  0  0
  -25.4920  -33.9690   24.1890 N   0  0  0  0  0  0  0  0  0  0  0  0
  -25.8350  -35.0140   23.4230 C   0  0  0  0  0  0  0  0  0  0  0  0
  -26.5110  -34.8980   22.3970 O   0  0  0  0  0  0  0  0  0  0  0  0
  -24.8910  -34.1330   24.9840 H   0  0  0  0  0  0  0  0  0  0  0  0
  -24.1320  -36.8200   23.0170 C   0  0  0  0  0  1  0  0  0  0  0  0
  -25.3480  -36.4070   23.8630 C   0  0  0  0  0  3  0  0  0  0  0  0
  -27.4570  -37.2880   24.7620 C   0  0  0  0  0  1  0  0  0  0  0  0
  -26.3930  -37.4510   23.7750 N   0  0  0  0  0  0  0  0  0  0  0  0
  -25.9870  -38.3750   23.8940 H   0  0  0  0  0  0  0  0  0  0  0  0
  1  4  1  0
  2  1  2  0
  2  6  1  0
  3  5  1  0
  4 10  1  0
  4  5  2  0
  5  7  1  0
  6 19  1  0
  6  3  2  0
  7  8  1  0
  9  8  1  0
 10 49  1  0
 10  9  1  0
 11 19  1  0
 12 17  1  0
 13 14  1  0
 13 12  1  0
 15 14  1  0
 15 24  1  0
 15 16  1  0
 17 11  1  0
 17 16  1  0
 18 11  2  0
 19 20  1  0
 21 22  2  0
 22 41  1  0
 23 22  1  0
 23 26  1  0
 24 21  1  0
 24 25  1  0
 25 23  2  0
 26 27  1  0
 27 28  2  0
 29 32  1  0
 29 28  1  0
 30 29  2  0
 31 30  1  0
 31 26  2  0
 32 33  1  0
 33 34  1  0
 34 35  2  0
 36 35  1  0
 36 40  1  0
 37 36  2  0
 38 33  2  0
 38 37  1  0
 39 38  1  0
 41 42  1  0
 42 45  1  0
 42 44  1  0
 43 41  2  0
 46 47  1  0
 46 21  1  0
 48 46  1  0
 50 49  1  0
 51 52  1  0
 51 50  2  0
 53 64  2  0
 54 52  1  0
 54 59  1  0
 55 63  1  0
 55 65  1  0
 56 62  1  0
 56 58  1  0
 57 63  1  0
 58 59  2  0
 58 57  1  0
 60 54  2  0
 61 60  1  0
 61 56  2  0
 62 55  1  0
 63 53  1  0
 65 67  2  0
 66 65  1  0
 68 66  1  0
 69 78  2  0
 69 74  1  0
 70 66  1  0
 70 74  1  0
 71 70  1  0
 72 73  1  0
 72 71  1  0
 73 69  1  0
 74 75  2  0
 75 76  1  0
 77 76  2  0
 78 77  1  0
 79 53  1  0
 79 84  1  0
 79 80  1  0
 80 83  1  1
 80 81  1  0
 82 80  1  0
 84 87  1  0
 85 89  1  0
 85 84  1  0
 86 85  2  0
 89 88  1  0
 91 89  1  0
 91 92  1  0
 91 90  1  0
M  ISO  4  11 100  19 100  51 101  52 101
M  END
>  <TORSDO>  (60) 
F 19

>  <SCORE>  (60) 
-14.775

>  <name>  (60) 
59

>  <ligand_id>  (60) 
59

>  <original_smiles>  (60) 
[H]c1c([H])c([H])c2c(c1[H])C([H])([H])C([H])([H])C([H])([H])C2([H])N([H])C(=O)C1([H])N(C(=O)C([H])(N([H])C(=O)C([H])(N([H])C([H])([H])[H])C([H])([H])[H])C(C([H])([H])[H])(C([H])([H])[H])C([H])([H])[H])C([H])([H])c2c([H])c(OC([H])([H])C([H])([H])OC3([H])c4c([H])c([H])c(N([H])C(=O)N5C([H])([H])C([H])([H])C([H])([H])C([H])(n6nc(-c7c([H])c([H])c(Oc8c([H])c([H])c(F)c([H])c8F)c([H])c7[H])c(C(=O)N([H])[H])c6N([H])[H])C5([H])[H])c([H])c4C([H])([H])C([H])([H])C3([H])[H])c([H])c([H])c2C1([H])[H]

>  <smiles>  (60) 
[H]c1c([H])c([H])c2c(c1[H])C([H])([H])C([H])([H])C([H])([H])C2([H])N([H])C(=O)C1([H])N(C(=O)C([H])(N([H])C(=O)C([H])(N([H])C([H])([H])[H])C([H])([H])[H])C(C([H])([H])[H])(C([H])([H])[H])C([H])([H])[H])C([H])([H])c2c([H])c(OC([H])([H])C([H])([H])OC3([H])c4c([H])c([H])c(N([H])C(=O)N5C([H])([H])C([H])([H])C([H])([H])C([H])(n6nc(-c7c([H])c([H])c(Oc8c([H])c([H])c(F)c([H])c8F)c([H])c7[H])c(C(=O)N([H])[H])c6N([H])[H])C5([H])[H])c([H])c4C([H])([H])C([H])([H])C3([H])[H])c([H])c([H])c2C1([H])[H]

$$$$
60:0:0
     RDKit          3D

 96104  0  0  1  0  0  0  0  0999 V2000
  -29.6300  -20.8360   20.1780 C   0  0  0  0  0  0  0  0  0  0  0  0
  -30.1610  -19.7600   19.4510 N   0  0  0  0  0  0  0  0  0  0  0  0
  -29.7310  -20.8540   21.4060 O   0  0  0  0  0  0  0  0  0  0  0  0
  -30.2010  -19.8830   18.4470 H   0  0  0  0  0  0  0  0  0  0  0  0
  -32.7250  -17.2220   21.3950 C   0  0  0  0  0  3  0  0  0  0  0  0
  -32.7720  -17.3020   19.9860 C   0  0  0  0  0  2  0  0  0  0  0  0
  -30.5320  -18.2510   21.3630 C   0  0  0  0  0  2  0  0  0  0  0  0
  -31.5530  -17.5940   22.0810 C   0  0  0  0  0  0  0  0  0  0  0  0
  -31.5500  -17.4900   19.2970 C   0  0  0  0  0  3  0  0  0  0  0  0
  -30.6800  -18.4600   19.9740 C   0  0  0  0  0  3  0  0  0  0  0  0
  -31.7590  -14.9030   19.0140 C   0  0  0  0  0  0  0  0  0  0  0  0
  -31.3190  -12.5070   18.4220 C   0  0  0  0  0  2  0  0  0  0  0  0
  -30.2560  -12.4110   17.3090 C   0  0  0  0  0  2  0  0  0  0  0  0
  -28.8350  -12.4120   17.9100 C   0  0  0  0  0  2  0  0  0  0  0  0
  -28.6360  -13.5170   18.9810 C   0  0  0  0  0  3  0  0  0  0  0  0
  -29.8130  -13.5730   19.9810 C   0  0  0  0  0  2  0  0  0  0  0  0
  -31.0400  -13.7400   19.1900 N   0  0  0  0  0  0  0  0  0  0  0  0
  -32.9300  -14.8480   18.6320 O   0  0  0  0  0  0  0  0  0  0  0  0
  -31.0750  -16.1160   18.9940 N   0  0  0  0  0  0  0  0  0  0  0  0
  -30.0730  -16.0190   18.9900 H   0  0  0  0  0  0  0  0  0  0  0  0
  -26.4920  -14.4050   20.0710 C   0  0  0  0  0  0  0  0  0  0  0  0
  -25.3760  -13.7770   20.5500 C   0  0  0  0  0  0  0  0  0  0  0  0
  -25.6140  -12.3760   20.3970 C   0  0  0  0  0  0  0  0  0  0  0  0
  -27.3440  -13.3980   19.6510 N   0  0  0  0  0  0  0  0  0  0  0  0
  -26.8310  -12.1670   19.9060 N   0  0  0  0  0  0  0  0  0  0  0  0
  -24.7260  -11.2280   20.6290 C   0  0  0  0  0  0  0  0  0  0  0  0
  -25.0660  -10.2040   21.5390 C   0  0  0  0  0  3  0  0  0  0  0  0
  -24.1890   -9.1210   21.7630 C   0  0  0  0  0  3  0  0  0  0  0  0
  -22.9540   -9.0570   21.0780 C   0  0  0  0  0  0  0  0  0  0  0  0
  -22.6260  -10.0680   20.1560 C   0  0  0  0  0  3  0  0  0  0  0  0
  -23.5040  -11.1420   19.9310 C   0  0  0  0  0  3  0  0  0  0  0  0
  -22.0510   -8.0310   21.2110 O   0  0  0  0  0  0  0  0  0  0  0  0
  -21.8850   -7.3680   22.4000 C   0  0  0  0  0  0  0  0  0  0  0  0
  -21.5270   -8.0440   23.5870 C   0  0  0  0  0  3  0  0  0  0  0  0
  -21.3020   -7.3160   24.7730 C   0  0  0  0  0  3  0  0  0  0  0  0
  -21.4220   -5.9130   24.7700 C   0  0  0  0  0  0  0  0  0  0  0  0
  -21.7720   -5.2370   23.5890 C   0  0  0  0  0  3  0  0  0  0  0  0
  -22.0000   -5.9630   22.4060 C   0  0  0  0  0  0  0  0  0  0  0  0
  -22.3170   -5.3050   21.2650 F   0  0  0  0  0  0  0  0  0  0  0  0
  -21.1970   -5.2120   25.9060 F   0  0  0  0  0  0  0  0  0  0  0  0
  -24.1190  -14.4410   21.0290 C   0  0  0  0  0  0  0  0  0  0  0  0
  -23.4420  -13.8430   22.0030 N   0  0  0  0  0  0  0  0  0  0  0  0
  -23.7540  -15.5230   20.5740 O   0  0  0  0  0  0  0  0  0  0  0  0
  -23.7530  -12.9650   22.3930 H   0  0  0  0  0  0  0  0  0  0  0  0
  -22.6030  -14.2710   22.3650 H   0  0  0  0  0  0  0  0  0  0  0  0
  -26.8380  -15.7450   19.9280 N   0  0  0  0  0  0  0  0  0  0  0  0
  -26.1910  -16.4880   20.1720 H   0  0  0  0  0  0  0  0  0  0  0  0
  -27.6790  -16.0830   19.4790 H   0  0  0  0  0  0  0  0  0  0  0  0
  -30.1990  -16.9500   23.9910 C   0  0  0  0  0  1  0  0  0  0  0  0
  -31.4810  -17.4030   23.4650 N   0  0  0  0  0  0  0  0  0  0  0  0
  -32.3130  -17.0150   23.9050 H   0  0  0  0  0  0  0  0  0  0  0  0
  -28.8700  -22.0830   19.5080 C   0  0  0  0  0  2  0  0  0  0  0  0
  -28.7610  -23.5040   20.2680 C   0  0  0  0  0  0  0  0  0  0  0  0
  -29.4970  -23.7490   21.2310 O   0  0  0  0  0  0  0  0  0  0  0  0
  -27.7520  -24.6430   19.7640 C   0  0  0  0  0  2  0  0  0  0  0  0
  -28.0070  -26.0880   20.1350 O   0  0  0  0  0  0  0  0  0  0  0  0
  -24.6230  -31.7990   23.1160 C   0  0  0  0  0  0  0  0  0  0  0  0
  -26.9480  -27.0300   20.0760 C   0  0  0  0  0  0  0  0  0  0  0  0
  -23.3150  -30.4120   21.5530 C   0  0  0  0  0  3  0  0  0  0  0  0
  -24.6560  -28.7760   20.1090 C   0  0  0  0  0  0  0  0  0  0  0  0
  -25.8620  -30.6100   21.2870 C   0  0  0  0  0  2  0  0  0  0  0  0
  -25.8650  -29.2130   20.6640 C   0  0  0  0  0  0  0  0  0  0  0  0
  -27.0100  -28.3490   20.6470 C   0  0  0  0  0  3  0  0  0  0  0  0
  -25.7170  -26.6730   19.4730 C   0  0  0  0  0  3  0  0  0  0  0  0
  -24.5880  -27.5140   19.5030 C   0  0  0  0  0  3  0  0  0  0  0  0
  -23.4580  -29.7020   20.1800 C   0  0  0  0  0  2  0  0  0  0  0  0
  -24.6220  -30.9590   22.0390 N   0  0  0  0  0  0  0  0  0  0  0  0
  -23.5700  -32.1310   23.6810 O   0  0  0  0  0  0  0  0  0  0  0  0
  -22.6430  -29.4440   22.5560 C   0  0  0  0  0  0  0  0  0  0  0  0
  -21.3190  -29.2460   22.4210 N   0  0  0  0  0  0  0  0  0  0  0  0
  -23.3140  -28.8750   23.4190 O   0  0  0  0  0  0  0  0  0  0  0  0
  -20.8340  -29.7540   21.6930 H   0  0  0  0  0  0  0  0  0  0  0  0
  -17.9630  -27.9810   22.9130 C   0  0  0  0  0  0  0  0  0  0  0  0
  -20.5020  -28.3450   23.2320 C   0  0  0  0  0  3  0  0  0  0  0  0
  -20.6670  -26.8790   22.7660 C   0  0  0  0  0  2  0  0  0  0  0  0
  -19.6010  -26.4410   21.7570 C   0  0  0  0  0  2  0  0  0  0  0  0
  -18.2000  -26.5890   22.3570 C   0  0  0  0  0  2  0  0  0  0  0  0
  -19.0440  -28.8120   23.3120 C   0  0  0  0  0  0  0  0  0  0  0  0
  -18.7690  -30.1110   23.7910 C   0  0  0  0  0  3  0  0  0  0  0  0
  -17.4450  -30.5810   23.8870 C   0  0  0  0  0  3  0  0  0  0  0  0
  -16.3780  -29.7490   23.5010 C   0  0  0  0  0  3  0  0  0  0  0  0
  -16.6370  -28.4540   23.0190 C   0  0  0  0  0  3  0  0  0  0  0  0
  -25.9490  -32.3960   23.6770 C   0  0  0  0  0  3  0  0  0  0  0  0
  -25.6670  -33.7710   24.1170 N   0  0  0  0  0  0  0  0  0  0  0  0
  -25.9720  -34.8730   23.4200 C   0  0  0  0  0  0  0  0  0  0  0  0
  -26.5950  -34.8400   22.3560 O   0  0  0  0  0  0  0  0  0  0  0  0
  -25.1100  -33.8720   24.9520 H   0  0  0  0  0  0  0  0  0  0  0  0
  -24.2590  -36.7090   23.2600 C   0  0  0  0  0  1  0  0  0  0  0  0
  -25.5170  -36.2280   23.9970 C   0  0  0  0  0  3  0  0  0  0  0  0
  -27.6840  -37.0290   24.8320 C   0  0  0  0  0  1  0  0  0  0  0  0
  -26.5600  -37.2750   23.9320 N   0  0  0  0  0  0  0  0  0  0  0  0
  -26.1680  -38.1860   24.1620 H   0  0  0  0  0  0  0  0  0  0  0  0
  -26.5610  -31.5520   24.8640 C   0  0  1  0  0  0  0  0  0  0  0  0
  -25.5360  -31.2110   25.9700 C   0  0  0  0  0  1  0  0  0  0  0  0
  -27.1530  -30.2220   24.3410 C   0  0  0  0  0  1  0  0  0  0  0  0
  -27.7280  -32.3300   25.5160 C   0  0  0  0  0  1  0  0  0  0  0  0
  1  3  2  0
  2  1  1  0
  4  2  1  0
  5  8  2  0
  6  5  1  0
  7  8  1  0
  8 50  1  0
  9 19  1  0
  9 10  1  0
  9  6  1  0
 10  2  1  0
 10  7  1  0
 11 17  1  0
 12 17  1  0
 13 14  1  0
 13 12  1  0
 15 14  1  0
 15 24  1  0
 15 16  1  0
 17 16  1  0
 18 11  2  0
 19 11  1  0
 20 19  1  0
 21 22  2  0
 22 41  1  0
 23 22  1  0
 23 26  1  0
 24 25  1  0
 24 21  1  0
 25 23  2  0
 26 27  1  0
 27 28  2  0
 29 32  1  0
 29 28  1  0
 30 29  2  0
 31 30  1  0
 31 26  2  0
 32 33  1  0
 33 38  2  0
 33 34  1  0
 34 35  2  0
 36 35  1  0
 36 40  1  0
 37 36  2  0
 38 37  1  0
 39 38  1  0
 41 42  1  0
 42 45  1  0
 42 44  1  0
 43 41  2  0
 46 21  1  0
 46 47  1  0
 48 46  1  0
 50 51  1  0
 50 49  1  0
 52  1  1  0
 52 53  1  0
 53 54  2  0
 55 56  1  0
 55 53  1  0
 57 68  2  0
 58 56  1  0
 58 63  1  0
 59 67  1  0
 59 69  1  0
 60 66  1  0
 60 62  1  0
 61 67  1  0
 62 61  1  0
 63 62  2  0
 64 65  1  0
 64 58  2  0
 65 60  2  0
 66 59  1  0
 67 57  1  0
 69 71  2  0
 70 69  1  0
 72 70  1  0
 73 82  2  0
 73 78  1  0
 74 70  1  0
 74 78  1  0
 75 74  1  0
 76 77  1  0
 76 75  1  0
 77 73  1  0
 78 79  2  0
 79 80  1  0
 81 80  2  0
 82 81  1  0
 83 57  1  0
 83 84  1  0
 83 93  1  0
 84 87  1  0
 85 89  1  0
 85 84  1  0
 86 85  2  0
 89 88  1  0
 91 89  1  0
 91 92  1  0
 91 90  1  0
 93 96  1  1
 93 94  1  0
 95 93  1  0
M  ISO  4  11 100  19 100  55 101  56 101
M  END
>  <TORSDO>  (61) 
F 21

>  <SCORE>  (61) 
-7.021

>  <name>  (61) 
60

>  <ligand_id>  (61) 
60

>  <original_smiles>  (61) 
[H]c1c([H])c([H])c2c(c1[H])C([H])([H])C([H])([H])C([H])([H])C2([H])N([H])C(=O)C1([H])N(C(=O)C([H])(N([H])C(=O)C([H])(N([H])C([H])([H])[H])C([H])([H])[H])C(C([H])([H])[H])(C([H])([H])[H])C([H])([H])[H])C([H])([H])c2c([H])c(OC([H])([H])C(=O)C([H])([H])C(=O)N([H])c3c([H])c(N([H])C([H])([H])[H])c([H])c([H])c3N([H])C(=O)N3C([H])([H])C([H])([H])C([H])([H])C([H])(n4nc(-c5c([H])c([H])c(Oc6c([H])c([H])c(F)c([H])c6F)c([H])c5[H])c(C(=O)N([H])[H])c4N([H])[H])C3([H])[H])c([H])c([H])c2C1([H])[H]

>  <smiles>  (61) 
[H]c1c([H])c([H])c2c(c1[H])C([H])([H])C([H])([H])C([H])([H])C2([H])N([H])C(=O)C1([H])N(C(=O)C([H])(N([H])C(=O)C([H])(N([H])C([H])([H])[H])C([H])([H])[H])C(C([H])([H])[H])(C([H])([H])[H])C([H])([H])[H])C([H])([H])c2c([H])c(OC([H])([H])C(=O)C([H])([H])C(=O)N([H])c3c([H])c(N([H])C([H])([H])[H])c([H])c([H])c3N([H])C(=O)N3C([H])([H])C([H])([H])C([H])([H])C([H])(n4nc(-c5c([H])c([H])c(Oc6c([H])c([H])c(F)c([H])c6F)c([H])c5[H])c(C(=O)N([H])[H])c4N([H])[H])C3([H])[H])c([H])c([H])c2C1([H])[H]

$$$$
61:0:0
     RDKit          3D

 93101  0  0  1  0  0  0  0  0999 V2000
  -31.5530  -17.9880   20.7970 C   0  0  0  0  0  3  0  0  0  0  0  0
  -31.9780  -19.3310   20.8830 C   0  0  0  0  0  3  0  0  0  0  0  0
  -29.3380  -18.7990   20.2700 C   0  0  0  0  0  3  0  0  0  0  0  0
  -30.2220  -17.6350   20.4830 C   0  0  0  0  0  0  0  0  0  0  0  0
  -31.1160  -20.4330   20.6770 C   0  0  0  0  0  0  0  0  0  0  0  0
  -29.7460  -20.2180   20.3520 C   0  0  0  0  0  0  0  0  0  0  0  0
  -30.6030  -14.9790   20.2590 C   0  0  0  0  0  0  0  0  0  0  0  0
  -30.3990  -12.6770   19.2550 C   0  0  0  0  0  2  0  0  0  0  0  0
  -29.4420  -12.7070   18.0430 C   0  0  0  0  0  2  0  0  0  0  0  0
  -27.9840  -12.5130   18.5010 C   0  0  0  0  0  2  0  0  0  0  0  0
  -27.6180  -13.4080   19.7140 C   0  0  0  0  0  3  0  0  0  0  0  0
  -28.6970  -13.3650   20.8170 C   0  0  0  0  0  2  0  0  0  0  0  0
  -29.9670  -13.7480   20.1910 N   0  0  0  0  0  0  0  0  0  0  0  0
  -31.7970  -15.0210   19.9490 O   0  0  0  0  0  0  0  0  0  0  0  0
  -29.8480  -16.1610   20.4360 N   0  0  0  0  0  0  0  0  0  0  0  0
  -28.8610  -15.9790   20.5340 H   0  0  0  0  0  0  0  0  0  0  0  0
  -25.2490  -13.9840   20.4990 C   0  0  0  0  0  0  0  0  0  0  0  0
  -24.1910  -13.2060   20.8770 C   0  0  0  0  0  0  0  0  0  0  0  0
  -24.6530  -11.8550   20.8240 C   0  0  0  0  0  0  0  0  0  0  0  0
  -26.2870  -13.1080   20.2310 N   0  0  0  0  0  0  0  0  0  0  0  0
  -25.9390  -11.8220   20.4930 N   0  0  0  0  0  0  0  0  0  0  0  0
  -23.9280  -10.5910   21.0090 C   0  0  0  0  0  0  0  0  0  0  0  0
  -24.3560   -9.6250   21.9460 C   0  0  0  0  0  3  0  0  0  0  0  0
  -23.6290   -8.4260   22.1210 C   0  0  0  0  0  3  0  0  0  0  0  0
  -22.4610   -8.1870   21.3590 C   0  0  0  0  0  0  0  0  0  0  0  0
  -22.0530   -9.1430   20.4110 C   0  0  0  0  0  3  0  0  0  0  0  0
  -22.7800  -10.3320   20.2350 C   0  0  0  0  0  3  0  0  0  0  0  0
  -21.7070   -7.0410   21.4420 O   0  0  0  0  0  0  0  0  0  0  0  0
  -21.6370   -6.3100   22.6010 C   0  0  0  0  0  0  0  0  0  0  0  0
  -21.1320   -6.8590   23.7990 C   0  0  0  0  0  3  0  0  0  0  0  0
  -21.0130   -6.0510   24.9480 C   0  0  0  0  0  3  0  0  0  0  0  0
  -21.3860   -4.6950   24.8980 C   0  0  0  0  0  0  0  0  0  0  0  0
  -21.8840   -4.1450   23.7030 C   0  0  0  0  0  3  0  0  0  0  0  0
  -22.0050   -4.9500   22.5570 C   0  0  0  0  0  0  0  0  0  0  0  0
  -22.4640   -4.4090   21.4030 F   0  0  0  0  0  0  0  0  0  0  0  0
  -21.2650   -3.9160   25.9990 F   0  0  0  0  0  0  0  0  0  0  0  0
  -22.7970  -13.6810   21.1750 C   0  0  0  0  0  0  0  0  0  0  0  0
  -22.0820  -12.9760   22.0420 N   0  0  0  0  0  0  0  0  0  0  0  0
  -22.3550  -14.7140   20.6720 O   0  0  0  0  0  0  0  0  0  0  0  0
  -22.4530  -12.1400   22.4700 H   0  0  0  0  0  0  0  0  0  0  0  0
  -21.1480  -13.2760   22.2850 H   0  0  0  0  0  0  0  0  0  0  0  0
  -25.4090  -15.3570   20.3310 N   0  0  0  0  0  0  0  0  0  0  0  0
  -24.6370  -16.0040   20.4530 H   0  0  0  0  0  0  0  0  0  0  0  0
  -26.2340  -15.7980   19.9470 H   0  0  0  0  0  0  0  0  0  0  0  0
  -31.7000  -21.6960   20.8190 N   0  0  0  0  0  0  0  0  0  0  0  0
  -32.6490  -21.7160   21.1790 H   0  0  0  0  0  0  0  0  0  0  0  0
  -31.1470  -22.4320   21.2410 H   0  0  0  0  0  0  0  0  0  0  0  0
  -28.2070  -21.6140   18.5540 O   0  0  0  0  0  0  0  0  0  0  0  0
  -27.4060  -21.5410   20.9140 O   0  0  0  0  0  0  0  0  0  0  0  0
  -28.5410  -21.7170   19.9870 S   0  0  1  0  0  0  0  0  0  0  0  0
  -29.1430  -23.6100   20.2520 C   0  0  0  0  0  3  0  0  0  0  0  0
  -28.1230  -24.8750   19.9340 C   0  0  0  0  0  3  0  0  0  0  0  0
  -28.3820  -26.3680   20.2060 O   0  0  0  0  0  0  0  0  0  0  0  0
  -24.6870  -31.9010   23.2840 C   0  0  0  0  0  0  0  0  0  0  0  0
  -27.3080  -27.3160   20.1530 C   0  0  0  0  0  0  0  0  0  0  0  0
  -23.5010  -30.5410   21.6030 C   0  0  0  0  0  3  0  0  0  0  0  0
  -24.9640  -29.0160   20.1500 C   0  0  0  0  0  0  0  0  0  0  0  0
  -26.0520  -30.8350   21.4580 C   0  0  0  0  0  2  0  0  0  0  0  0
  -26.1360  -29.4630   20.7740 C   0  0  0  0  0  0  0  0  0  0  0  0
  -27.3110  -28.6290   20.7600 C   0  0  0  0  0  3  0  0  0  0  0  0
  -26.1110  -26.9590   19.4930 C   0  0  0  0  0  3  0  0  0  0  0  0
  -24.9610  -27.7760   19.4960 C   0  0  0  0  0  3  0  0  0  0  0  0
  -23.7320  -29.9000   20.2090 C   0  0  0  0  0  2  0  0  0  0  0  0
  -24.7650  -31.1110   22.1700 N   0  0  0  0  0  0  0  0  0  0  0  0
  -23.5960  -32.1680   23.8120 O   0  0  0  0  0  0  0  0  0  0  0  0
  -22.8240  -29.5050   22.5350 C   0  0  0  0  0  0  0  0  0  0  0  0
  -21.4980  -29.3320   22.3930 N   0  0  0  0  0  0  0  0  0  0  0  0
  -23.4930  -28.8630   23.3480 O   0  0  0  0  0  0  0  0  0  0  0  0
  -21.0160  -29.9030   21.7130 H   0  0  0  0  0  0  0  0  0  0  0  0
  -18.1120  -28.1390   22.8660 C   0  0  0  0  0  0  0  0  0  0  0  0
  -20.6730  -28.3750   23.1360 C   0  0  0  0  0  3  0  0  0  0  0  0
  -20.7650  -26.9620   22.5140 C   0  0  0  0  0  2  0  0  0  0  0  0
  -19.6580  -26.6790   21.4940 C   0  0  0  0  0  2  0  0  0  0  0  0
  -18.2780  -26.8110   22.1460 C   0  0  0  0  0  2  0  0  0  0  0  0
  -19.2360  -28.8800   23.3170 C   0  0  0  0  0  0  0  0  0  0  0  0
  -19.0260  -30.1240   23.9520 C   0  0  0  0  0  3  0  0  0  0  0  0
  -17.7240  -30.6260   24.1390 C   0  0  0  0  0  3  0  0  0  0  0  0
  -16.6140  -29.8810   23.7040 C   0  0  0  0  0  3  0  0  0  0  0  0
  -16.8090  -28.6390   23.0740 C   0  0  0  0  0  3  0  0  0  0  0  0
  -25.9590  -32.5250   23.9330 C   0  0  0  0  0  3  0  0  0  0  0  0
  -26.4400  -31.7500   25.2220 C   0  0  1  0  0  0  0  0  0  0  0  0
  -25.3190  -31.5180   26.2630 C   0  0  0  0  0  1  0  0  0  0  0  0
  -27.0260  -30.3700   24.8470 C   0  0  0  0  0  1  0  0  0  0  0  0
  -27.5780  -32.5380   25.9120 C   0  0  0  0  0  1  0  0  0  0  0  0
  -25.6530  -33.9250   24.2600 N   0  0  0  0  0  0  0  0  0  0  0  0
  -25.9610  -34.9750   23.4880 C   0  0  0  0  0  0  0  0  0  0  0  0
  -26.6010  -34.8670   22.4390 O   0  0  0  0  0  0  0  0  0  0  0  0
  -25.0820  -34.0840   25.0780 H   0  0  0  0  0  0  0  0  0  0  0  0
  -24.1990  -36.7510   23.2010 C   0  0  0  0  0  1  0  0  0  0  0  0
  -25.4850  -36.3660   23.9520 C   0  0  0  0  0  3  0  0  0  0  0  0
  -27.6430  -37.2930   24.6690 C   0  0  0  0  0  1  0  0  0  0  0  0
  -26.5010  -37.4280   23.7700 N   0  0  0  0  0  0  0  0  0  0  0  0
  -26.0910  -38.3460   23.9120 H   0  0  0  0  0  0  0  0  0  0  0  0
  1  2  1  0
  3  6  2  0
  3  4  1  0
  4  1  2  0
  5 45  1  0
  5  2  2  0
  6  5  1  0
  7 15  1  0
  8 13  1  0
  9 10  1  0
  9  8  1  0
 11 10  1  0
 11 20  1  0
 11 12  1  0
 13  7  1  0
 13 12  1  0
 14  7  2  0
 15  4  1  0
 15 16  1  0
 17 18  2  0
 18 37  1  0
 19 18  1  0
 19 22  1  0
 20 21  1  0
 20 17  1  0
 21 19  2  0
 22 23  1  0
 23 24  2  0
 25 28  1  0
 25 24  1  0
 26 25  2  0
 27 26  1  0
 27 22  2  0
 28 29  1  0
 29 30  1  0
 30 31  2  0
 32 31  1  0
 32 36  1  0
 33 32  2  0
 34 29  2  0
 34 33  1  0
 35 34  1  0
 37 38  1  0
 38 41  1  0
 38 40  1  0
 39 37  2  0
 42 43  1  0
 42 17  1  0
 44 42  1  0
 45 46  1  0
 45 47  1  0
 48 50  2  0
 50 51  1  6
 50  6  1  0
 50 49  2  0
 52 53  1  0
 52 51  2  0
 54 65  2  0
 55 53  1  0
 55 60  1  0
 56 64  1  0
 56 66  1  0
 57 63  1  0
 57 59  1  0
 58 64  1  0
 59 58  1  0
 60 59  2  0
 61 62  1  0
 61 55  2  0
 62 57  2  0
 63 56  1  0
 64 54  1  0
 66 68  2  0
 67 66  1  0
 69 67  1  0
 70 79  2  0
 70 75  1  0
 71 67  1  0
 71 75  1  0
 72 71  1  0
 73 74  1  0
 73 72  1  0
 74 70  1  0
 75 76  2  0
 76 77  1  0
 78 77  2  0
 79 78  1  0
 80 54  1  0
 80 85  1  0
 80 81  1  0
 81 84  1  1
 81 82  1  0
 83 81  1  0
 85 88  1  0
 86 90  1  0
 86 85  1  0
 87 86  2  0
 90 89  1  0
 92 93  1  0
 92 90  1  0
 92 91  1  0
M  ISO  4   7 100  15 100  52 101  53 101
M  END
>  <TORSDO>  (62) 
F 20

>  <SCORE>  (62) 
-14.773

>  <name>  (62) 
61

>  <ligand_id>  (62) 
61

>  <original_smiles>  (62) 
[H]c1c([H])c([H])c2c(c1[H])C([H])([H])C([H])([H])C([H])([H])C2([H])N([H])C(=O)C1([H])N(C(=O)C([H])(N([H])C(=O)C([H])(N([H])C([H])([H])[H])C([H])([H])[H])C(C([H])([H])[H])(C([H])([H])[H])C([H])([H])[H])C([H])([H])c2c([H])c(OC([H])([H])C([H])([H])S(=O)(=O)c3c([H])c(N([H])C(=O)N4C([H])([H])C([H])([H])C([H])([H])C([H])(n5nc(-c6c([H])c([H])c(Oc7c([H])c([H])c(F)c([H])c7F)c([H])c6[H])c(C(=O)N([H])[H])c5N([H])[H])C4([H])[H])c([H])c([H])c3N([H])[H])c([H])c([H])c2C1([H])[H]

>  <smiles>  (62) 
[H]c1c([H])c([H])c2c(c1[H])C([H])([H])C([H])([H])C([H])([H])C2([H])N([H])C(=O)C1([H])N(C(=O)C([H])(N([H])C(=O)C([H])(N([H])C([H])([H])[H])C([H])([H])[H])C(C([H])([H])[H])(C([H])([H])[H])C([H])([H])[H])C([H])([H])c2c([H])c(OC([H])([H])C([H])([H])S(=O)(=O)c3c([H])c(N([H])C(=O)N4C([H])([H])C([H])([H])C([H])([H])C([H])(n5nc(-c6c([H])c([H])c(Oc7c([H])c([H])c(F)c([H])c7F)c([H])c6[H])c(C(=O)N([H])[H])c5N([H])[H])C4([H])[H])c([H])c([H])c3N([H])[H])c([H])c([H])c2C1([H])[H]

$$$$
62:0:0
     RDKit          3D

 95103  0  0  1  0  0  0  0  0999 V2000
  -29.1270  -21.9150   19.8140 C   0  0  0  0  0  0  0  0  0  0  0  0
  -29.1420  -20.6030   20.1780 N   0  0  0  0  0  0  0  0  0  0  0  0
  -30.0080  -22.4530   19.1400 O   0  0  0  0  0  0  0  0  0  0  0  0
  -28.4280  -20.3640   20.8540 H   0  0  0  0  0  0  0  0  0  0  0  0
  -30.8220  -19.5800   18.6100 C   0  0  0  0  0  3  0  0  0  0  0  0
  -29.6500  -18.1720   20.2130 C   0  0  0  0  0  3  0  0  0  0  0  0
  -31.4150  -18.4290   18.0460 C   0  0  0  0  0  0  0  0  0  0  0  0
  -29.8920  -19.4720   19.6710 C   0  0  0  0  0  0  0  0  0  0  0  0
  -30.2570  -16.9930   19.6890 C   0  0  0  0  0  0  0  0  0  0  0  0
  -31.0860  -17.1430   18.5360 C   0  0  0  0  0  0  0  0  0  0  0  0
  -32.3950  -18.5920   16.8880 C   0  0  0  0  0  1  0  0  0  0  0  0
  -30.6610  -14.5670   20.3230 C   0  0  0  0  0  0  0  0  0  0  0  0
  -30.3450  -12.3400   19.3580 C   0  0  0  0  0  2  0  0  0  0  0  0
  -29.4150  -12.5010   18.1400 C   0  0  0  0  0  2  0  0  0  0  0  0
  -27.9420  -12.3620   18.5690 C   0  0  0  0  0  2  0  0  0  0  0  0
  -27.5870  -13.2450   19.7970 C   0  0  0  0  0  3  0  0  0  0  0  0
  -28.6510  -13.1370   20.9110 C   0  0  0  0  0  2  0  0  0  0  0  0
  -29.9710  -13.3930   20.3130 N   0  0  0  0  0  0  0  0  0  0  0  0
  -31.8820  -14.5990   20.1720 O   0  0  0  0  0  0  0  0  0  0  0  0
  -29.9200  -15.7030   20.2760 N   0  0  0  0  0  0  0  0  0  0  0  0
  -28.9680  -15.6070   20.5900 H   0  0  0  0  0  0  0  0  0  0  0  0
  -25.1910  -13.8390   20.5130 C   0  0  0  0  0  0  0  0  0  0  0  0
  -24.1230  -13.0640   20.8790 C   0  0  0  0  0  0  0  0  0  0  0  0
  -24.5890  -11.7130   20.8560 C   0  0  0  0  0  0  0  0  0  0  0  0
  -26.2390  -12.9600   20.2900 N   0  0  0  0  0  0  0  0  0  0  0  0
  -25.8820  -11.6780   20.5590 N   0  0  0  0  0  0  0  0  0  0  0  0
  -23.8640  -10.4510   21.0470 C   0  0  0  0  0  0  0  0  0  0  0  0
  -24.2930   -9.4840   21.9810 C   0  0  0  0  0  3  0  0  0  0  0  0
  -23.5680   -8.2870   22.1580 C   0  0  0  0  0  3  0  0  0  0  0  0
  -22.3970   -8.0480   21.4020 C   0  0  0  0  0  0  0  0  0  0  0  0
  -21.9880   -9.0020   20.4530 C   0  0  0  0  0  3  0  0  0  0  0  0
  -22.7150  -10.1910   20.2750 C   0  0  0  0  0  3  0  0  0  0  0  0
  -21.6430   -6.9040   21.4880 O   0  0  0  0  0  0  0  0  0  0  0  0
  -21.5950   -6.1570   22.6380 C   0  0  0  0  0  0  0  0  0  0  0  0
  -21.1660   -6.7070   23.8650 C   0  0  0  0  0  3  0  0  0  0  0  0
  -21.0650   -5.8900   25.0080 C   0  0  0  0  0  3  0  0  0  0  0  0
  -21.3850   -4.5210   24.9250 C   0  0  0  0  0  0  0  0  0  0  0  0
  -21.8060   -3.9690   23.7020 C   0  0  0  0  0  3  0  0  0  0  0  0
  -21.9090   -4.7850   22.5610 C   0  0  0  0  0  0  0  0  0  0  0  0
  -22.2970   -4.2420   21.3820 F   0  0  0  0  0  0  0  0  0  0  0  0
  -21.2800   -3.7330   26.0210 F   0  0  0  0  0  0  0  0  0  0  0  0
  -22.7240  -13.5390   21.1420 C   0  0  0  0  0  0  0  0  0  0  0  0
  -21.9920  -12.8440   22.0020 N   0  0  0  0  0  0  0  0  0  0  0  0
  -22.2890  -14.5640   20.6180 O   0  0  0  0  0  0  0  0  0  0  0  0
  -22.3590  -12.0150   22.4460 H   0  0  0  0  0  0  0  0  0  0  0  0
  -21.0550  -13.1470   22.2230 H   0  0  0  0  0  0  0  0  0  0  0  0
  -25.3520  -15.2090   20.3290 N   0  0  0  0  0  0  0  0  0  0  0  0
  -24.5740  -15.8570   20.4010 H   0  0  0  0  0  0  0  0  0  0  0  0
  -26.2000  -15.6480   19.9910 H   0  0  0  0  0  0  0  0  0  0  0  0
  -31.5400  -16.0680   17.8260 O   0  0  0  0  0  0  0  0  0  0  0  0
  -32.0580  -16.3310   17.0750 H   0  0  0  0  0  0  0  0  0  0  0  0
  -27.9110  -22.7620   20.2800 C   0  0  0  0  0  2  0  0  0  0  0  0
  -28.1310  -24.2400   20.7590 C   0  0  0  0  0  2  0  0  0  0  0  0
  -28.5370  -25.3200   19.7110 C   0  0  0  0  0  2  0  0  0  0  0  0
  -28.4480  -26.6880   20.1960 O   0  0  0  0  0  0  0  0  0  0  0  0
  -24.5830  -31.8820   23.2370 C   0  0  0  0  0  0  0  0  0  0  0  0
  -27.2550  -27.4040   20.1700 C   0  0  0  0  0  0  0  0  0  0  0  0
  -23.3900  -30.4790   21.5880 C   0  0  0  0  0  3  0  0  0  0  0  0
  -24.8560  -28.9360   20.1720 C   0  0  0  0  0  0  0  0  0  0  0  0
  -25.9200  -30.8250   21.4120 C   0  0  0  0  0  2  0  0  0  0  0  0
  -26.0100  -29.4500   20.7740 C   0  0  0  0  0  0  0  0  0  0  0  0
  -27.2080  -28.6910   20.7690 C   0  0  0  0  0  3  0  0  0  0  0  0
  -26.0770  -26.9140   19.5610 C   0  0  0  0  0  3  0  0  0  0  0  0
  -24.8880  -27.6720   19.5580 C   0  0  0  0  0  3  0  0  0  0  0  0
  -23.6070  -29.7910   20.2140 C   0  0  0  0  0  2  0  0  0  0  0  0
  -24.6490  -31.0780   22.1370 N   0  0  0  0  0  0  0  0  0  0  0  0
  -23.4980  -32.1550   23.7690 O   0  0  0  0  0  0  0  0  0  0  0  0
  -22.7280  -29.4640   22.5470 C   0  0  0  0  0  0  0  0  0  0  0  0
  -21.4020  -29.2850   22.4120 N   0  0  0  0  0  0  0  0  0  0  0  0
  -23.4050  -28.8360   23.3650 O   0  0  0  0  0  0  0  0  0  0  0  0
  -20.9150  -29.8420   21.7240 H   0  0  0  0  0  0  0  0  0  0  0  0
  -18.0240  -28.1020   22.9010 C   0  0  0  0  0  0  0  0  0  0  0  0
  -20.5810  -28.3490   23.1800 C   0  0  0  0  0  3  0  0  0  0  0  0
  -20.6790  -26.9190   22.5960 C   0  0  0  0  0  2  0  0  0  0  0  0
  -19.5780  -26.6060   21.5790 C   0  0  0  0  0  2  0  0  0  0  0  0
  -18.1960  -26.7540   22.2200 C   0  0  0  0  0  2  0  0  0  0  0  0
  -19.1450  -28.8570   23.3380 C   0  0  0  0  0  0  0  0  0  0  0  0
  -18.9310  -30.1190   23.9340 C   0  0  0  0  0  3  0  0  0  0  0  0
  -17.6280  -30.6270   24.0970 C   0  0  0  0  0  3  0  0  0  0  0  0
  -16.5220  -29.8680   23.6780 C   0  0  0  0  0  3  0  0  0  0  0  0
  -16.7190  -28.6070   23.0860 C   0  0  0  0  0  3  0  0  0  0  0  0
  -25.8630  -32.5160   23.8670 C   0  0  0  0  0  3  0  0  0  0  0  0
  -25.5480  -33.9130   24.1980 N   0  0  0  0  0  0  0  0  0  0  0  0
  -25.8900  -34.9670   23.4440 C   0  0  0  0  0  0  0  0  0  0  0  0
  -26.5690  -34.8660   22.4190 O   0  0  0  0  0  0  0  0  0  0  0  0
  -24.9370  -34.0650   24.9860 H   0  0  0  0  0  0  0  0  0  0  0  0
  -24.1620  -36.7570   23.0740 C   0  0  0  0  0  1  0  0  0  0  0  0
  -25.3960  -36.3530   23.8980 C   0  0  0  0  0  3  0  0  0  0  0  0
  -27.5240  -37.2350   24.7500 C   0  0  0  0  0  1  0  0  0  0  0  0
  -26.4290  -37.4090   23.7980 N   0  0  0  0  0  0  0  0  0  0  0  0
  -26.0210  -38.3270   23.9490 H   0  0  0  0  0  0  0  0  0  0  0  0
  -26.3740  -31.7420   25.1450 C   0  0  1  0  0  0  0  0  0  0  0  0
  -25.2740  -31.4970   26.2040 C   0  0  0  0  0  1  0  0  0  0  0  0
  -26.9620  -30.3670   24.7520 C   0  0  0  0  0  1  0  0  0  0  0  0
  -27.5220  -32.5340   25.8120 C   0  0  0  0  0  1  0  0  0  0  0  0
  1  2  1  0
  1 52  1  0
  2  4  1  0
  3  1  2  0
  5  8  1  0
  7 10  1  0
  7  5  2  0
  8  2  1  0
  8  6  2  0
  9  6  1  0
  9 20  1  0
 10  9  2  0
 11  7  1  0
 13 18  1  0
 14 15  1  0
 14 13  1  0
 16 15  1  0
 16 25  1  0
 16 17  1  0
 18 12  1  0
 18 17  1  0
 19 12  2  0
 20 12  1  0
 20 21  1  0
 22 23  2  0
 23 42  1  0
 24 23  1  0
 24 27  1  0
 25 22  1  0
 25 26  1  0
 26 24  2  0
 27 28  1  0
 28 29  2  0
 30 33  1  0
 30 29  1  0
 31 30  2  0
 32 31  1  0
 32 27  2  0
 33 34  1  0
 34 35  1  0
 35 36  2  0
 37 36  1  0
 37 41  1  0
 38 37  2  0
 39 34  2  0
 39 38  1  0
 40 39  1  0
 42 43  1  0
 43 46  1  0
 43 45  1  0
 44 42  2  0
 47 48  1  0
 47 22  1  0
 49 47  1  0
 50 10  1  0
 51 50  1  0
 52 53  1  0
 54 55  1  0
 54 53  1  0
 56 67  2  0
 57 55  1  0
 57 62  1  0
 58 66  1  0
 58 68  1  0
 59 65  1  0
 59 61  1  0
 60 66  1  0
 61 60  1  0
 62 61  2  0
 63 57  2  0
 64 63  1  0
 64 59  2  0
 65 58  1  0
 66 56  1  0
 68 70  2  0
 69 68  1  0
 71 69  1  0
 72 81  2  0
 72 77  1  0
 73 69  1  0
 73 77  1  0
 74 73  1  0
 75 76  1  0
 75 74  1  0
 76 72  1  0
 77 78  2  0
 78 79  1  0
 80 79  2  0
 81 80  1  0
 82 56  1  0
 82 83  1  0
 82 92  1  0
 83 86  1  0
 84 88  1  0
 84 83  1  0
 85 84  2  0
 88 87  1  0
 90 88  1  0
 90 91  1  0
 90 89  1  0
 92 95  1  1
 92 93  1  0
 94 92  1  0
M  ISO  4  12 100  20 100  54 101  55 101
M  END
>  <TORSDO>  (63) 
F 21

>  <SCORE>  (63) 
-13.872

>  <name>  (63) 
62

>  <ligand_id>  (63) 
62

>  <original_smiles>  (63) 
[H]Oc1c(N([H])C(=O)N2C([H])([H])C([H])([H])C([H])([H])C([H])(n3nc(-c4c([H])c([H])c(Oc5c([H])c([H])c(F)c([H])c5F)c([H])c4[H])c(C(=O)N([H])[H])c3N([H])[H])C2([H])[H])c([H])c(N([H])C(=O)C([H])([H])C([H])([H])C([H])([H])Oc2c([H])c([H])c3c(c2[H])C([H])([H])N(C(=O)C([H])(N([H])C(=O)C([H])(N([H])C([H])([H])[H])C([H])([H])[H])C(C([H])([H])[H])(C([H])([H])[H])C([H])([H])[H])C([H])(C(=O)N([H])C2([H])c4c([H])c([H])c([H])c([H])c4C([H])([H])C([H])([H])C2([H])[H])C3([H])[H])c([H])c1C([H])([H])[H]

>  <smiles>  (63) 
[H]Oc1c(N([H])C(=O)N2C([H])([H])C([H])([H])C([H])([H])C([H])(n3nc(-c4c([H])c([H])c(Oc5c([H])c([H])c(F)c([H])c5F)c([H])c4[H])c(C(=O)N([H])[H])c3N([H])[H])C2([H])[H])c([H])c(N([H])C(=O)C([H])([H])C([H])([H])C([H])([H])Oc2c([H])c([H])c3c(c2[H])C([H])([H])N(C(=O)C([H])(N([H])C(=O)C([H])(N([H])C([H])([H])[H])C([H])([H])[H])C(C([H])([H])[H])(C([H])([H])[H])C([H])([H])[H])C([H])(C(=O)N([H])C2([H])c4c([H])c([H])c([H])c([H])c4C([H])([H])C([H])([H])C2([H])[H])C3([H])[H])c([H])c1C([H])([H])[H]

$$$$
63:0:0
     RDKit          3D

 92100  0  0  1  0  0  0  0  0999 V2000
  -28.8070  -19.9100   22.0550 C   0  0  0  0  0  3  0  0  0  0  0  0
  -29.3050  -18.7610   21.4030 C   0  0  0  0  0  3  0  0  0  0  0  0
  -28.8520  -21.1890   21.4600 C   0  0  0  0  0  3  0  0  0  0  0  0
  -29.9010  -20.1810   19.5200 C   0  0  0  0  0  3  0  0  0  0  0  0
  -29.8790  -18.8420   20.1170 C   0  0  0  0  0  0  0  0  0  0  0  0
  -29.3950  -21.3920   20.1690 C   0  0  0  0  0  0  0  0  0  0  0  0
  -30.9350  -15.0820   19.5390 C   0  0  0  0  0  0  0  0  0  0  0  0
  -30.6130  -12.7870   18.5990 C   0  0  0  0  0  2  0  0  0  0  0  0
  -29.5570  -12.8270   17.4730 C   0  0  0  0  0  2  0  0  0  0  0  0
  -28.1460  -12.6390   18.0550 C   0  0  0  0  0  2  0  0  0  0  0  0
  -27.8890  -13.5640   19.2740 C   0  0  0  0  0  3  0  0  0  0  0  0
  -29.0500  -13.5220   20.2910 C   0  0  0  0  0  2  0  0  0  0  0  0
  -30.2820  -13.8640   19.5700 N   0  0  0  0  0  0  0  0  0  0  0  0
  -32.0880  -15.0980   19.0950 O   0  0  0  0  0  0  0  0  0  0  0  0
  -30.5780  -17.5780   19.5050 C   0  0  0  0  0  0  0  0  0  0  0  0
  -30.2450  -16.2600   19.8420 N   0  0  0  0  0  0  0  0  0  0  0  0
  -31.4550  -17.8220   18.6690 O   0  0  0  0  0  0  0  0  0  0  0  0
  -29.3820  -16.1440   20.3450 H   0  0  0  0  0  0  0  0  0  0  0  0
  -25.6220  -14.1750   20.3010 C   0  0  0  0  0  0  0  0  0  0  0  0
  -24.5760  -13.4100   20.7390 C   0  0  0  0  0  0  0  0  0  0  0  0
  -24.9850  -12.0500   20.5830 C   0  0  0  0  0  0  0  0  0  0  0  0
  -26.6010  -13.2830   19.8980 N   0  0  0  0  0  0  0  0  0  0  0  0
  -26.2330  -11.9950   20.1310 N   0  0  0  0  0  0  0  0  0  0  0  0
  -24.2420  -10.7990   20.7810 C   0  0  0  0  0  0  0  0  0  0  0  0
  -24.6840   -9.8130   21.6900 C   0  0  0  0  0  3  0  0  0  0  0  0
  -23.9430   -8.6260   21.8770 C   0  0  0  0  0  3  0  0  0  0  0  0
  -22.7440   -8.4180   21.1530 C   0  0  0  0  0  0  0  0  0  0  0  0
  -22.3200   -9.3920   20.2330 C   0  0  0  0  0  3  0  0  0  0  0  0
  -23.0620  -10.5700   20.0450 C   0  0  0  0  0  3  0  0  0  0  0  0
  -21.9710   -7.2850   21.2510 O   0  0  0  0  0  0  0  0  0  0  0  0
  -21.8590   -6.5910   22.4290 C   0  0  0  0  0  0  0  0  0  0  0  0
  -21.3580   -7.1910   23.6050 C   0  0  0  0  0  3  0  0  0  0  0  0
  -21.1950   -6.4210   24.7740 C   0  0  0  0  0  3  0  0  0  0  0  0
  -21.5200   -5.0510   24.7660 C   0  0  0  0  0  0  0  0  0  0  0  0
  -22.0120   -4.4500   23.5940 C   0  0  0  0  0  3  0  0  0  0  0  0
  -22.1780   -5.2180   22.4280 C   0  0  0  0  0  0  0  0  0  0  0  0
  -22.6320   -4.6280   21.2970 F   0  0  0  0  0  0  0  0  0  0  0  0
  -21.3550   -4.3100   25.8860 F   0  0  0  0  0  0  0  0  0  0  0  0
  -23.2320  -13.9070   21.1860 C   0  0  0  0  0  0  0  0  0  0  0  0
  -22.5850  -13.1890   22.0970 N   0  0  0  0  0  0  0  0  0  0  0  0
  -22.7720  -14.9680   20.7650 O   0  0  0  0  0  0  0  0  0  0  0  0
  -22.9710  -12.3280   22.4530 H   0  0  0  0  0  0  0  0  0  0  0  0
  -21.6900  -13.5060   22.4440 H   0  0  0  0  0  0  0  0  0  0  0  0
  -25.8240  -15.5480   20.1890 N   0  0  0  0  0  0  0  0  0  0  0  0
  -25.1150  -16.2320   20.4330 H   0  0  0  0  0  0  0  0  0  0  0  0
  -26.6640  -15.9710   19.8200 H   0  0  0  0  0  0  0  0  0  0  0  0
  -29.1080  -24.0320   20.0760 C   0  0  0  0  0  0  0  0  0  0  0  0
  -29.3570  -22.7550   19.5500 N   0  0  0  0  0  0  0  0  0  0  0  0
  -29.0920  -24.2270   21.2950 O   0  0  0  0  0  0  0  0  0  0  0  0
  -29.4840  -22.7590   18.5470 H   0  0  0  0  0  0  0  0  0  0  0  0
  -28.8740  -25.3100   19.1230 C   0  0  0  0  0  2  0  0  0  0  0  0
  -28.7150  -26.6910   19.7330 O   0  0  0  0  0  0  0  0  0  0  0  0
  -24.6180  -31.6860   23.0380 C   0  0  0  0  0  0  0  0  0  0  0  0
  -27.5340  -27.4790   19.6900 C   0  0  0  0  0  0  0  0  0  0  0  0
  -23.5080  -30.3070   21.3180 C   0  0  0  0  0  3  0  0  0  0  0  0
  -25.0590  -28.9600   19.7840 C   0  0  0  0  0  0  0  0  0  0  0  0
  -26.0220  -30.8080   21.1510 C   0  0  0  0  0  2  0  0  0  0  0  0
  -26.1960  -29.4800   20.4110 C   0  0  0  0  0  0  0  0  0  0  0  0
  -27.4300  -28.7520   20.3540 C   0  0  0  0  0  3  0  0  0  0  0  0
  -26.3630  -27.0310   19.0360 C   0  0  0  0  0  3  0  0  0  0  0  0
  -25.1480  -27.7440   19.0870 C   0  0  0  0  0  3  0  0  0  0  0  0
  -23.7640  -29.7410   19.8950 C   0  0  0  0  0  2  0  0  0  0  0  0
  -24.7340  -30.9510   21.8920 N   0  0  0  0  0  0  0  0  0  0  0  0
  -23.5200  -31.8490   23.5910 O   0  0  0  0  0  0  0  0  0  0  0  0
  -22.9270  -29.1860   22.2130 C   0  0  0  0  0  0  0  0  0  0  0  0
  -21.6150  -28.9210   22.0830 N   0  0  0  0  0  0  0  0  0  0  0  0
  -23.6550  -28.5620   22.9880 O   0  0  0  0  0  0  0  0  0  0  0  0
  -21.0780  -29.4920   21.4460 H   0  0  0  0  0  0  0  0  0  0  0  0
  -18.3400  -27.4480   22.5160 C   0  0  0  0  0  0  0  0  0  0  0  0
  -20.8750  -27.8750   22.7920 C   0  0  0  0  0  3  0  0  0  0  0  0
  -21.0760  -26.4980   22.1180 C   0  0  0  0  0  2  0  0  0  0  0  0
  -19.9890  -26.1670   21.0870 C   0  0  0  0  0  2  0  0  0  0  0  0
  -18.6090  -26.1630   21.7510 C   0  0  0  0  0  2  0  0  0  0  0  0
  -19.4040  -28.2610   22.9900 C   0  0  0  0  0  0  0  0  0  0  0  0
  -19.1000  -29.4630   23.6650 C   0  0  0  0  0  3  0  0  0  0  0  0
  -17.7650  -29.8540   23.8690 C   0  0  0  0  0  3  0  0  0  0  0  0
  -16.7150  -29.0390   23.4140 C   0  0  0  0  0  3  0  0  0  0  0  0
  -17.0030  -27.8380   22.7410 C   0  0  0  0  0  3  0  0  0  0  0  0
  -25.8540  -32.3700   23.6960 C   0  0  0  0  0  3  0  0  0  0  0  0
  -25.4650  -33.7430   24.0530 N   0  0  0  0  0  0  0  0  0  0  0  0
  -25.7450  -34.8300   23.3240 C   0  0  0  0  0  0  0  0  0  0  0  0
  -26.4290  -34.7880   22.2970 O   0  0  0  0  0  0  0  0  0  0  0  0
  -24.8560  -33.8450   24.8520 H   0  0  0  0  0  0  0  0  0  0  0  0
  -23.9230  -36.5370   23.0040 C   0  0  0  0  0  1  0  0  0  0  0  0
  -25.1810  -36.1810   23.8110 C   0  0  0  0  0  3  0  0  0  0  0  0
  -27.2550  -37.1700   24.6780 C   0  0  0  0  0  1  0  0  0  0  0  0
  -26.1540  -37.2910   23.7260 N   0  0  0  0  0  0  0  0  0  0  0  0
  -25.6940  -38.1840   23.8850 H   0  0  0  0  0  0  0  0  0  0  0  0
  -26.3880  -31.6000   24.9660 C   0  0  1  0  0  0  0  0  0  0  0  0
  -25.2900  -31.2830   26.0090 C   0  0  0  0  0  1  0  0  0  0  0  0
  -27.0520  -30.2640   24.5590 C   0  0  0  0  0  1  0  0  0  0  0  0
  -27.4810  -32.4420   25.6660 C   0  0  0  0  0  1  0  0  0  0  0  0
  2  1  2  0
  3  1  1  0
  4  5  2  0
  4  6  1  0
  5  2  1  0
  6  3  2  0
  7 13  1  0
  7 16  1  0
  8 13  1  0
  9 10  1  0
  9  8  1  0
 11 10  1  0
 11 22  1  0
 11 12  1  0
 13 12  1  0
 14  7  2  0
 15 16  1  0
 15  5  1  0
 16 18  1  0
 17 15  2  0
 19 20  2  0
 20 39  1  0
 21 20  1  0
 21 24  1  0
 22 23  1  0
 22 19  1  0
 23 21  2  0
 24 25  1  0
 25 26  2  0
 27 30  1  0
 27 26  1  0
 28 27  2  0
 29 28  1  0
 29 24  2  0
 30 31  1  0
 31 32  1  0
 32 33  2  0
 34 33  1  0
 34 38  1  0
 35 34  2  0
 36 31  2  0
 36 35  1  0
 37 36  1  0
 39 40  1  0
 40 43  1  0
 40 42  1  0
 41 39  2  0
 44 19  1  0
 44 45  1  0
 46 44  1  0
 47 49  2  0
 48 47  1  0
 48  6  1  0
 50 48  1  0
 51 52  1  0
 51 47  1  0
 53 64  2  0
 54 52  1  0
 54 59  1  0
 55 63  1  0
 55 65  1  0
 56 62  1  0
 56 58  1  0
 57 63  1  0
 58 57  1  0
 59 58  2  0
 60 61  1  0
 60 54  2  0
 61 56  2  0
 62 55  1  0
 63 53  1  0
 65 67  2  0
 66 65  1  0
 68 66  1  0
 69 78  2  0
 69 74  1  0
 70 66  1  0
 70 74  1  0
 71 70  1  0
 72 73  1  0
 72 71  1  0
 73 69  1  0
 74 75  2  0
 75 76  1  0
 77 76  2  0
 78 77  1  0
 79 53  1  0
 79 80  1  0
 79 89  1  0
 80 83  1  0
 81 85  1  0
 81 80  1  0
 82 81  2  0
 85 84  1  0
 87 85  1  0
 87 88  1  0
 87 86  1  0
 89 92  1  1
 89 90  1  0
 91 89  1  0
M  ISO  4   7 100  16 100  51 101  52 101
M  END
>  <TORSDO>  (64) 
F 18

>  <SCORE>  (64) 
-10.949

>  <name>  (64) 
63

>  <ligand_id>  (64) 
63

>  <original_smiles>  (64) 
[H]c1c([H])c(C(=O)N([H])C(=O)N2C([H])([H])C([H])([H])C([H])([H])C([H])(n3nc(-c4c([H])c([H])c(Oc5c([H])c([H])c(F)c([H])c5F)c([H])c4[H])c(C(=O)N([H])[H])c3N([H])[H])C2([H])[H])c([H])c(N([H])C(=O)C([H])([H])Oc2c([H])c([H])c3c(c2[H])C([H])([H])N(C(=O)C([H])(N([H])C(=O)C([H])(N([H])C([H])([H])[H])C([H])([H])[H])C(C([H])([H])[H])(C([H])([H])[H])C([H])([H])[H])C([H])(C(=O)N([H])C2([H])c4c([H])c([H])c([H])c([H])c4C([H])([H])C([H])([H])C2([H])[H])C3([H])[H])c1[H]

>  <smiles>  (64) 
[H]c1c([H])c(C(=O)N([H])C(=O)N2C([H])([H])C([H])([H])C([H])([H])C([H])(n3nc(-c4c([H])c([H])c(Oc5c([H])c([H])c(F)c([H])c5F)c([H])c4[H])c(C(=O)N([H])[H])c3N([H])[H])C2([H])[H])c([H])c(N([H])C(=O)C([H])([H])Oc2c([H])c([H])c3c(c2[H])C([H])([H])N(C(=O)C([H])(N([H])C(=O)C([H])(N([H])C([H])([H])[H])C([H])([H])[H])C(C([H])([H])[H])(C([H])([H])[H])C([H])([H])[H])C([H])(C(=O)N([H])C2([H])c4c([H])c([H])c([H])c([H])c4C([H])([H])C([H])([H])C2([H])[H])C3([H])[H])c1[H]

$$$$
64:0:0
     RDKit          3D

 93101  0  0  1  0  0  0  0  0999 V2000
  -29.6200  -21.7980   20.1990 C   0  0  0  0  0  0  0  0  0  0  0  0
  -29.3590  -20.5510   20.6680 N   0  0  0  0  0  0  0  0  0  0  0  0
  -30.2760  -22.0160   19.1760 O   0  0  0  0  0  0  0  0  0  0  0  0
  -29.0130  -20.5070   21.6130 H   0  0  0  0  0  0  0  0  0  0  0  0
  -29.5600  -16.7330   18.7430 C   0  0  0  0  0  3  0  0  0  0  0  0
  -29.2790  -17.8830   17.9950 C   0  0  0  0  0  3  0  0  0  0  0  0
  -29.7190  -18.0970   20.7600 C   0  0  0  0  0  3  0  0  0  0  0  0
  -29.7610  -16.8160   20.1380 C   0  0  0  0  0  0  0  0  0  0  0  0
  -29.4600  -19.2780   20.0040 C   0  0  0  0  0  0  0  0  0  0  0  0
  -29.2000  -19.1390   18.6170 C   0  0  0  0  0  0  0  0  0  0  0  0
  -28.8000  -20.1860   17.8620 F   0  0  0  0  0  0  0  0  0  0  0  0
  -30.6610  -14.5650   20.5180 C   0  0  0  0  0  0  0  0  0  0  0  0
  -30.4120  -12.3860   19.4040 C   0  0  0  0  0  2  0  0  0  0  0  0
  -29.4860  -12.5770   18.1820 C   0  0  0  0  0  2  0  0  0  0  0  0
  -28.0040  -12.4260   18.5930 C   0  0  0  0  0  2  0  0  0  0  0  0
  -27.6400  -13.2550   19.8520 C   0  0  0  0  0  3  0  0  0  0  0  0
  -28.6860  -13.0670   20.9760 C   0  0  0  0  0  2  0  0  0  0  0  0
  -30.0150  -13.3720   20.4190 N   0  0  0  0  0  0  0  0  0  0  0  0
  -31.8150  -14.7450   20.1270 O   0  0  0  0  0  0  0  0  0  0  0  0
  -29.8830  -15.6040   20.8900 N   0  0  0  0  0  0  0  0  0  0  0  0
  -29.0270  -15.3000   21.3280 H   0  0  0  0  0  0  0  0  0  0  0  0
  -25.2250  -13.8240   20.5430 C   0  0  0  0  0  0  0  0  0  0  0  0
  -24.1650  -13.0370   20.9090 C   0  0  0  0  0  0  0  0  0  0  0  0
  -24.6510  -11.6940   20.8890 C   0  0  0  0  0  0  0  0  0  0  0  0
  -26.2860  -12.9620   20.3200 N   0  0  0  0  0  0  0  0  0  0  0  0
  -25.9450  -11.6760   20.5900 N   0  0  0  0  0  0  0  0  0  0  0  0
  -23.9480  -10.4170   21.0810 C   0  0  0  0  0  0  0  0  0  0  0  0
  -24.3900   -9.4640   22.0270 C   0  0  0  0  0  3  0  0  0  0  0  0
  -23.6840   -8.2540   22.2060 C   0  0  0  0  0  3  0  0  0  0  0  0
  -22.5250   -7.9890   21.4380 C   0  0  0  0  0  0  0  0  0  0  0  0
  -22.1030   -8.9310   20.4840 C   0  0  0  0  0  3  0  0  0  0  0  0
  -22.8080  -10.1330   20.3040 C   0  0  0  0  0  3  0  0  0  0  0  0
  -21.7930   -6.8300   21.5230 O   0  0  0  0  0  0  0  0  0  0  0  0
  -21.7460   -6.0930   22.6790 C   0  0  0  0  0  0  0  0  0  0  0  0
  -21.2600   -6.6370   23.8880 C   0  0  0  0  0  3  0  0  0  0  0  0
  -21.1620   -5.8270   25.0360 C   0  0  0  0  0  3  0  0  0  0  0  0
  -21.5370   -4.4710   24.9760 C   0  0  0  0  0  0  0  0  0  0  0  0
  -22.0140   -3.9250   23.7710 C   0  0  0  0  0  3  0  0  0  0  0  0
  -22.1140   -4.7330   22.6250 C   0  0  0  0  0  0  0  0  0  0  0  0
  -22.5540   -4.1980   21.4610 F   0  0  0  0  0  0  0  0  0  0  0  0
  -21.4350   -3.6900   26.0750 F   0  0  0  0  0  0  0  0  0  0  0  0
  -22.7560  -13.4900   21.1640 C   0  0  0  0  0  0  0  0  0  0  0  0
  -22.0290  -12.7840   22.0220 N   0  0  0  0  0  0  0  0  0  0  0  0
  -22.3050  -14.5080   20.6370 O   0  0  0  0  0  0  0  0  0  0  0  0
  -22.4060  -11.9650   22.4760 H   0  0  0  0  0  0  0  0  0  0  0  0
  -21.0820  -13.0680   22.2280 H   0  0  0  0  0  0  0  0  0  0  0  0
  -25.3640  -15.1960   20.3580 N   0  0  0  0  0  0  0  0  0  0  0  0
  -24.5830  -15.8350   20.4530 H   0  0  0  0  0  0  0  0  0  0  0  0
  -26.2060  -15.6460   20.0240 H   0  0  0  0  0  0  0  0  0  0  0  0
  -29.1230  -22.9810   21.0610 C   0  0  0  0  0  2  0  0  0  0  0  0
  -29.4470  -24.4440   20.5950 C   0  0  0  0  0  2  0  0  0  0  0  0
  -28.2050  -25.2650   20.1580 C   0  0  0  0  0  2  0  0  0  0  0  0
  -28.3830  -26.7020   20.2280 O   0  0  0  0  0  0  0  0  0  0  0  0
  -24.5770  -31.9290   23.2960 C   0  0  0  0  0  0  0  0  0  0  0  0
  -27.2230  -27.4640   20.2040 C   0  0  0  0  0  0  0  0  0  0  0  0
  -23.3770  -30.5320   21.6450 C   0  0  0  0  0  3  0  0  0  0  0  0
  -24.8360  -29.0000   20.2190 C   0  0  0  0  0  0  0  0  0  0  0  0
  -25.9080  -30.8770   21.4660 C   0  0  0  0  0  2  0  0  0  0  0  0
  -25.9950  -29.5060   20.8190 C   0  0  0  0  0  0  0  0  0  0  0  0
  -27.1930  -28.7460   20.8090 C   0  0  0  0  0  3  0  0  0  0  0  0
  -26.0380  -26.9860   19.5930 C   0  0  0  0  0  3  0  0  0  0  0  0
  -24.8550  -27.7390   19.6030 C   0  0  0  0  0  3  0  0  0  0  0  0
  -23.5930  -29.8610   20.2630 C   0  0  0  0  0  2  0  0  0  0  0  0
  -24.6370  -31.1280   22.1920 N   0  0  0  0  0  0  0  0  0  0  0  0
  -23.4910  -32.2040   23.8270 O   0  0  0  0  0  0  0  0  0  0  0  0
  -22.7180  -29.5060   22.5990 C   0  0  0  0  0  0  0  0  0  0  0  0
  -21.3970  -29.3090   22.4490 N   0  0  0  0  0  0  0  0  0  0  0  0
  -23.3960  -28.8920   23.4270 O   0  0  0  0  0  0  0  0  0  0  0  0
  -20.9130  -29.8600   21.7550 H   0  0  0  0  0  0  0  0  0  0  0  0
  -18.0290  -28.0790   22.8840 C   0  0  0  0  0  0  0  0  0  0  0  0
  -20.5750  -28.3650   23.2070 C   0  0  0  0  0  3  0  0  0  0  0  0
  -20.7090  -26.9340   22.6370 C   0  0  0  0  0  2  0  0  0  0  0  0
  -19.6300  -26.5910   21.6070 C   0  0  0  0  0  2  0  0  0  0  0  0
  -18.2340  -26.7260   22.2220 C   0  0  0  0  0  2  0  0  0  0  0  0
  -19.1290  -28.8560   23.3320 C   0  0  0  0  0  0  0  0  0  0  0  0
  -18.8840  -30.1190   23.9130 C   0  0  0  0  0  3  0  0  0  0  0  0
  -17.5710  -30.6060   24.0480 C   0  0  0  0  0  3  0  0  0  0  0  0
  -16.4830  -29.8270   23.6130 C   0  0  0  0  0  3  0  0  0  0  0  0
  -16.7130  -28.5650   23.0370 C   0  0  0  0  0  3  0  0  0  0  0  0
  -25.8590  -32.5550   23.9220 C   0  0  0  0  0  3  0  0  0  0  0  0
  -26.3510  -31.8030   25.2190 C   0  0  1  0  0  0  0  0  0  0  0  0
  -25.2360  -31.5970   26.2690 C   0  0  0  0  0  1  0  0  0  0  0  0
  -26.9280  -30.4150   24.8590 C   0  0  0  0  0  1  0  0  0  0  0  0
  -27.4990  -32.5970   25.8850 C   0  0  0  0  0  1  0  0  0  0  0  0
  -25.5630  -33.9640   24.2220 N   0  0  0  0  0  0  0  0  0  0  0  0
  -25.9170  -34.9970   23.4470 C   0  0  0  0  0  0  0  0  0  0  0  0
  -26.5990  -34.8680   22.4270 O   0  0  0  0  0  0  0  0  0  0  0  0
  -24.9700  -34.1430   25.0190 H   0  0  0  0  0  0  0  0  0  0  0  0
  -24.2230  -36.8060   23.0200 C   0  0  0  0  0  1  0  0  0  0  0  0
  -25.4350  -36.4000   23.8710 C   0  0  0  0  0  3  0  0  0  0  0  0
  -27.5560  -37.2690   24.7520 C   0  0  0  0  0  1  0  0  0  0  0  0
  -26.4870  -37.4360   23.7710 N   0  0  0  0  0  0  0  0  0  0  0  0
  -26.0890  -38.3640   23.8880 H   0  0  0  0  0  0  0  0  0  0  0  0
  1  2  1  0
  1 50  1  0
  2  4  1  0
  3  1  2  0
  5  8  1  0
  6 10  1  0
  6  5  2  0
  8  7  2  0
  8 20  1  0
  9  2  1  0
  9  7  1  0
 10  9  2  0
 11 10  1  0
 12 20  1  0
 13 18  1  0
 14 15  1  0
 14 13  1  0
 16 15  1  0
 16 25  1  0
 16 17  1  0
 18 12  1  0
 18 17  1  0
 19 12  2  0
 20 21  1  0
 22 23  2  0
 23 42  1  0
 24 23  1  0
 24 27  1  0
 25 22  1  0
 25 26  1  0
 26 24  2  0
 27 28  1  0
 28 29  2  0
 30 33  1  0
 30 29  1  0
 31 30  2  0
 32 31  1  0
 32 27  2  0
 33 34  1  0
 34 35  1  0
 35 36  2  0
 37 36  1  0
 37 41  1  0
 38 37  2  0
 39 34  2  0
 39 38  1  0
 40 39  1  0
 42 43  1  0
 43 46  1  0
 43 45  1  0
 44 42  2  0
 47 48  1  0
 47 22  1  0
 49 47  1  0
 51 50  1  0
 52 53  1  0
 52 51  1  0
 54 65  2  0
 55 53  1  0
 55 60  1  0
 56 64  1  0
 56 66  1  0
 57 63  1  0
 57 59  1  0
 58 64  1  0
 59 58  1  0
 60 59  2  0
 61 62  1  0
 61 55  2  0
 62 57  2  0
 63 56  1  0
 64 54  1  0
 66 68  2  0
 67 66  1  0
 69 67  1  0
 70 79  2  0
 70 75  1  0
 71 67  1  0
 71 75  1  0
 72 71  1  0
 73 74  1  0
 73 72  1  0
 74 70  1  0
 75 76  2  0
 76 77  1  0
 78 77  2  0
 79 78  1  0
 80 54  1  0
 80 85  1  0
 80 81  1  0
 81 84  1  1
 81 82  1  0
 83 81  1  0
 85 88  1  0
 86 90  1  0
 86 85  1  0
 87 86  2  0
 90 89  1  0
 92 90  1  0
 92 93  1  0
 92 91  1  0
M  ISO  4  12 100  20 100  52 101  53 101
M  END
>  <TORSDO>  (65) 
F 20

>  <SCORE>  (65) 
-13.795

>  <name>  (65) 
64

>  <ligand_id>  (65) 
64

>  <original_smiles>  (65) 
[H]c1c([H])c([H])c2c(c1[H])C([H])([H])C([H])([H])C([H])([H])C2([H])N([H])C(=O)C1([H])N(C(=O)C([H])(N([H])C(=O)C([H])(N([H])C([H])([H])[H])C([H])([H])[H])C(C([H])([H])[H])(C([H])([H])[H])C([H])([H])[H])C([H])([H])c2c([H])c(OC([H])([H])C([H])([H])C([H])([H])C(=O)N([H])c3c([H])c(N([H])C(=O)N4C([H])([H])C([H])([H])C([H])([H])C([H])(n5nc(-c6c([H])c([H])c(Oc7c([H])c([H])c(F)c([H])c7F)c([H])c6[H])c(C(=O)N([H])[H])c5N([H])[H])C4([H])[H])c([H])c([H])c3F)c([H])c([H])c2C1([H])[H]

>  <smiles>  (65) 
[H]c1c([H])c([H])c2c(c1[H])C([H])([H])C([H])([H])C([H])([H])C2([H])N([H])C(=O)C1([H])N(C(=O)C([H])(N([H])C(=O)C([H])(N([H])C([H])([H])[H])C([H])([H])[H])C(C([H])([H])[H])(C([H])([H])[H])C([H])([H])[H])C([H])([H])c2c([H])c(OC([H])([H])C([H])([H])C([H])([H])C(=O)N([H])c3c([H])c(N([H])C(=O)N4C([H])([H])C([H])([H])C([H])([H])C([H])(n5nc(-c6c([H])c([H])c(Oc7c([H])c([H])c(F)c([H])c7F)c([H])c6[H])c(C(=O)N([H])[H])c5N([H])[H])C4([H])[H])c([H])c([H])c3F)c([H])c([H])c2C1([H])[H]

$$$$
65:0:0
     RDKit          3D

 98106  0  0  1  0  0  0  0  0999 V2000
  -28.9810  -20.5800   20.7890 C   0  0  0  0  0  0  0  0  0  0  0  0
  -27.6470  -20.6220   20.7310 N   0  0  0  0  0  4  0  0  0  0  0  0
  -29.6550  -21.7460   20.9070 N   0  0  0  0  0  0  0  0  0  0  0  0
  -27.1440  -19.8040   20.4140 H   0  0  0  0  0  0  0  0  0  0  0  0
  -27.1350  -21.4820   20.7420 H   0  0  0  0  0  0  0  0  0  0  0  0
  -30.6600  -21.6420   20.7850 H   0  0  0  0  0  0  0  0  0  0  0  0
  -29.1280  -18.2330   21.5740 C   0  0  0  0  0  3  0  0  0  0  0  0
  -31.3080  -17.6200   19.9250 C   0  0  0  0  0  3  0  0  0  0  0  0
  -29.6560  -19.2530   20.7420 C   0  0  0  0  0  0  0  0  0  0  0  0
  -30.7880  -18.9330   19.9360 C   0  0  0  0  0  0  0  0  0  0  0  0
  -30.7050  -16.5920   20.6920 C   0  0  0  0  0  0  0  0  0  0  0  0
  -29.6650  -16.9350   21.5740 C   0  0  0  0  0  0  0  0  0  0  0  0
  -29.1610  -15.9870   22.3930 F   0  0  0  0  0  0  0  0  0  0  0  0
  -31.2700  -14.5110   19.5180 C   0  0  0  0  0  0  0  0  0  0  0  0
  -30.7400  -12.4340   18.2920 C   0  0  0  0  0  2  0  0  0  0  0  0
  -29.5860  -12.6510   17.2910 C   0  0  0  0  0  2  0  0  0  0  0  0
  -28.2270  -12.4630   17.9810 C   0  0  0  0  0  2  0  0  0  0  0  0
  -28.1100  -13.2780   19.2920 C   0  0  0  0  0  3  0  0  0  0  0  0
  -29.3450  -13.0470   20.1930 C   0  0  0  0  0  2  0  0  0  0  0  0
  -30.5700  -13.3490   19.4260 N   0  0  0  0  0  0  0  0  0  0  0  0
  -32.1250  -14.8550   18.6900 O   0  0  0  0  0  0  0  0  0  0  0  0
  -31.0540  -15.2150   20.6360 N   0  0  0  0  0  0  0  0  0  0  0  0
  -30.5940  -14.6740   21.3490 H   0  0  0  0  0  0  0  0  0  0  0  0
  -25.9520  -13.8500   20.5740 C   0  0  0  0  0  0  0  0  0  0  0  0
  -24.9320  -13.0670   21.0420 C   0  0  0  0  0  0  0  0  0  0  0  0
  -25.2790  -11.7240   20.7010 C   0  0  0  0  0  0  0  0  0  0  0  0
  -26.8640  -12.9810   19.9950 N   0  0  0  0  0  0  0  0  0  0  0  0
  -26.4700  -11.6880   20.1190 N   0  0  0  0  0  0  0  0  0  0  0  0
  -24.5170  -10.4750   20.8390 C   0  0  0  0  0  0  0  0  0  0  0  0
  -24.9700   -9.4180   21.6590 C   0  0  0  0  0  3  0  0  0  0  0  0
  -24.2100   -8.2370   21.7910 C   0  0  0  0  0  3  0  0  0  0  0  0
  -22.9800   -8.1030   21.1060 C   0  0  0  0  0  0  0  0  0  0  0  0
  -22.5430   -9.1470   20.2700 C   0  0  0  0  0  3  0  0  0  0  0  0
  -23.3040  -10.3210   20.1340 C   0  0  0  0  0  3  0  0  0  0  0  0
  -22.1890   -6.9800   21.1540 O   0  0  0  0  0  0  0  0  0  0  0  0
  -22.0570   -6.2410   22.3020 C   0  0  0  0  0  0  0  0  0  0  0  0
  -21.5910   -6.8130   23.5060 C   0  0  0  0  0  3  0  0  0  0  0  0
  -21.4040   -6.0030   24.6440 C   0  0  0  0  0  3  0  0  0  0  0  0
  -21.6710   -4.6230   24.5780 C   0  0  0  0  0  0  0  0  0  0  0  0
  -22.1300   -4.0500   23.3780 C   0  0  0  0  0  3  0  0  0  0  0  0
  -22.3180   -4.8580   22.2420 C   0  0  0  0  0  0  0  0  0  0  0  0
  -22.7400   -4.2970   21.0830 F   0  0  0  0  0  0  0  0  0  0  0  0
  -21.4850   -3.8430   25.6690 F   0  0  0  0  0  0  0  0  0  0  0  0
  -23.6620  -13.5400   21.6880 C   0  0  0  0  0  0  0  0  0  0  0  0
  -23.1060  -12.7510   22.6010 N   0  0  0  0  0  0  0  0  0  0  0  0
  -23.1780  -14.6390   21.4180 O   0  0  0  0  0  0  0  0  0  0  0  0
  -23.5160  -11.8580   22.8370 H   0  0  0  0  0  0  0  0  0  0  0  0
  -22.2650  -13.0480   23.0770 H   0  0  0  0  0  0  0  0  0  0  0  0
  -26.1690  -15.2260   20.5720 N   0  0  0  0  0  0  0  0  0  0  0  0
  -25.4700  -15.8780   20.9050 H   0  0  0  0  0  0  0  0  0  0  0  0
  -26.9230  -15.6770   20.0700 H   0  0  0  0  0  0  0  0  0  0  0  0
  -31.4200  -19.8670   19.1140 N   0  0  0  0  0  0  0  0  0  0  0  0
  -30.8670  -20.1660   18.3110 H   0  0  0  0  0  0  0  0  0  0  0  0
  -32.3410  -19.5930   18.7800 H   0  0  0  0  0  0  0  0  0  0  0  0
  -29.1540  -23.1010   21.2920 C   0  0  0  0  0  2  0  0  0  0  0  0
  -29.4680  -24.2800   20.3160 C   0  0  0  0  0  2  0  0  0  0  0  0
  -28.7070  -25.5890   20.6960 C   0  0  0  0  0  2  0  0  0  0  0  0
  -28.7980  -26.7100   19.7810 O   0  0  0  0  0  0  0  0  0  0  0  0
  -24.8590  -31.7410   22.9560 C   0  0  0  0  0  0  0  0  0  0  0  0
  -27.6470  -27.4740   19.7510 C   0  0  0  0  0  0  0  0  0  0  0  0
  -23.6980  -30.3410   21.2780 C   0  0  0  0  0  3  0  0  0  0  0  0
  -25.2030  -28.9050   19.7950 C   0  0  0  0  0  0  0  0  0  0  0  0
  -26.2080  -30.8010   21.0780 C   0  0  0  0  0  2  0  0  0  0  0  0
  -26.3440  -29.4530   20.3950 C   0  0  0  0  0  0  0  0  0  0  0  0
  -27.5730  -28.7490   20.3640 C   0  0  0  0  0  3  0  0  0  0  0  0
  -26.4940  -26.9510   19.1310 C   0  0  0  0  0  3  0  0  0  0  0  0
  -25.2760  -27.6580   19.1470 C   0  0  0  0  0  3  0  0  0  0  0  0
  -23.9230  -29.7100   19.8770 C   0  0  0  0  0  2  0  0  0  0  0  0
  -24.9390  -30.9740   21.8300 N   0  0  0  0  0  0  0  0  0  0  0  0
  -23.7730  -31.9550   23.5110 O   0  0  0  0  0  0  0  0  0  0  0  0
  -23.0880  -29.2720   22.2140 C   0  0  0  0  0  0  0  0  0  0  0  0
  -21.7600  -29.0830   22.1280 N   0  0  0  0  0  0  0  0  0  0  0  0
  -23.8040  -28.6180   22.9760 O   0  0  0  0  0  0  0  0  0  0  0  0
  -21.2430  -29.6640   21.4840 H   0  0  0  0  0  0  0  0  0  0  0  0
  -18.4150  -27.8570   22.7220 C   0  0  0  0  0  0  0  0  0  0  0  0
  -20.9820  -28.0990   22.8810 C   0  0  0  0  0  3  0  0  0  0  0  0
  -21.0510  -26.7060   22.2160 C   0  0  0  0  0  2  0  0  0  0  0  0
  -19.9010  -26.4520   21.2350 C   0  0  0  0  0  2  0  0  0  0  0  0
  -18.5540  -26.5530   21.9540 C   0  0  0  0  0  2  0  0  0  0  0  0
  -19.5550  -28.5930   23.1420 C   0  0  0  0  0  0  0  0  0  0  0  0
  -19.3700  -29.8180   23.8160 C   0  0  0  0  0  3  0  0  0  0  0  0
  -18.0770  -30.3080   24.0800 C   0  0  0  0  0  3  0  0  0  0  0  0
  -16.9510  -29.5670   23.6800 C   0  0  0  0  0  3  0  0  0  0  0  0
  -17.1200  -28.3440   23.0060 C   0  0  0  0  0  3  0  0  0  0  0  0
  -26.1250  -32.4000   23.5870 C   0  0  0  0  0  3  0  0  0  0  0  0
  -25.7500  -33.7510   24.0270 N   0  0  0  0  0  0  0  0  0  0  0  0
  -25.9930  -34.8720   23.3360 C   0  0  0  0  0  0  0  0  0  0  0  0
  -26.6300  -34.8800   22.2790 O   0  0  0  0  0  0  0  0  0  0  0  0
  -25.1800  -33.8140   24.8570 H   0  0  0  0  0  0  0  0  0  0  0  0
  -24.1470  -36.5710   23.1680 C   0  0  0  0  0  1  0  0  0  0  0  0
  -25.4400  -36.1920   23.9050 C   0  0  0  0  0  3  0  0  0  0  0  0
  -27.5510  -37.1490   24.7190 C   0  0  0  0  0  1  0  0  0  0  0  0
  -26.4030  -37.3130   23.8290 N   0  0  0  0  0  0  0  0  0  0  0  0
  -25.9500  -38.1940   24.0560 H   0  0  0  0  0  0  0  0  0  0  0  0
  -26.7280  -31.5690   24.7860 C   0  0  1  0  0  0  0  0  0  0  0  0
  -25.6820  -31.1610   25.8490 C   0  0  0  0  0  1  0  0  0  0  0  0
  -27.4080  -30.2800   24.2700 C   0  0  0  0  0  1  0  0  0  0  0  0
  -27.8300  -32.3950   25.4930 C   0  0  0  0  0  1  0  0  0  0  0  0
  1  3  1  0
  2  5  1  0
  2  1  2  0
  3 55  1  0
  4  2  1  0
  6  3  1  0
  8 10  2  0
  8 11  1  0
  9  1  1  0
  9  7  2  0
 10  9  1  0
 11 12  2  0
 12  7  1  0
 12 13  1  0
 14 22  1  0
 15 20  1  0
 16 17  1  0
 16 15  1  0
 18 17  1  0
 18 27  1  0
 18 19  1  0
 20 14  1  0
 20 19  1  0
 21 14  2  0
 22 11  1  0
 22 23  1  0
 24 25  2  0
 25 44  1  0
 26 29  1  0
 26 25  1  0
 27 28  1  0
 27 24  1  0
 28 26  2  0
 29 30  1  0
 30 31  2  0
 32 35  1  0
 32 31  1  0
 33 32  2  0
 34 33  1  0
 34 29  2  0
 35 36  1  0
 36 37  1  0
 37 38  2  0
 39 38  1  0
 39 43  1  0
 40 39  2  0
 41 36  2  0
 41 40  1  0
 42 41  1  0
 44 45  1  0
 45 47  1  0
 45 48  1  0
 46 44  2  0
 49 24  1  0
 49 50  1  0
 51 49  1  0
 52 10  1  0
 53 52  1  0
 54 52  1  0
 56 57  1  0
 56 55  1  0
 58 57  1  0
 59 70  2  0
 60 58  1  0
 60 65  1  0
 61 69  1  0
 61 71  1  0
 62 68  1  0
 62 64  1  0
 63 69  1  0
 64 63  1  0
 65 64  2  0
 66 67  1  0
 66 60  2  0
 67 62  2  0
 68 61  1  0
 69 59  1  0
 71 73  2  0
 72 71  1  0
 74 72  1  0
 75 84  2  0
 75 80  1  0
 76 72  1  0
 76 80  1  0
 77 76  1  0
 78 79  1  0
 78 77  1  0
 79 75  1  0
 80 81  2  0
 81 82  1  0
 83 82  2  0
 84 83  1  0
 85 59  1  0
 85 86  1  0
 85 95  1  0
 86 89  1  0
 87 91  1  0
 87 86  1  0
 88 87  2  0
 91 90  1  0
 93 91  1  0
 93 94  1  0
 93 92  1  0
 95 98  1  1
 95 96  1  0
 97 95  1  0
M  ISO  4  14 100  22 100  57 101  58 101
M  END
>  <TORSDO>  (66) 
F 21

>  <SCORE>  (66) 
-9.370

>  <name>  (66) 
65

>  <ligand_id>  (66) 
65

>  <original_smiles>  (66) 
[H]c1c([H])c([H])c2c(c1[H])C([H])([H])C([H])([H])C([H])([H])C2([H])N([H])C(=O)C1([H])N(C(=O)C([H])(N([H])C(=O)C([H])(N([H])C([H])([H])[H])C([H])([H])[H])C(C([H])([H])[H])(C([H])([H])[H])C([H])([H])[H])C([H])([H])c2c([H])c(OC([H])([H])C([H])([H])C([H])([H])[N+]([H])=C(c3c([H])c(F)c(N([H])C(=O)N4C([H])([H])C([H])([H])C([H])([H])C([H])(n5nc(-c6c([H])c([H])c(Oc7c([H])c([H])c(F)c([H])c7F)c([H])c6[H])c(C(=O)N([H])[H])c5N([H])[H])C4([H])[H])c([H])c3N([H])[H])N([H])[H])c([H])c([H])c2C1([H])[H]

>  <smiles>  (66) 
[H]c1c([H])c([H])c2c(c1[H])C([H])([H])C([H])([H])C([H])([H])C2([H])N([H])C(=O)C1([H])N(C(=O)C([H])(N([H])C(=O)C([H])(N([H])C([H])([H])[H])C([H])([H])[H])C(C([H])([H])[H])(C([H])([H])[H])C([H])([H])[H])C([H])([H])c2c([H])c(OC([H])([H])C([H])([H])C([H])([H])[N+]([H])=C(c3c([H])c(F)c(N([H])C(=O)N4C([H])([H])C([H])([H])C([H])([H])C([H])(n5nc(-c6c([H])c([H])c(Oc7c([H])c([H])c(F)c([H])c7F)c([H])c6[H])c(C(=O)N([H])[H])c5N([H])[H])C4([H])[H])c([H])c3N([H])[H])N([H])[H])c([H])c([H])c2C1([H])[H]

$$$$
66:0:0
     RDKit          3D

 84 90  0  0  1  0  0  0  0  0999 V2000
  -28.0230  -24.1140   20.0730 C   0  0  0  0  0  2  0  0  0  0  0  0
  -28.2220  -25.8050   20.2060 O   0  0  0  0  0  0  0  0  0  0  0  0
  -24.6490  -31.8770   23.2030 C   0  0  0  0  0  0  0  0  0  0  0  0
  -27.2150  -26.9440   20.1640 C   0  0  0  0  0  0  0  0  0  0  0  0
  -23.4610  -30.4830   21.5600 C   0  0  0  0  0  3  0  0  0  0  0  0
  -24.9150  -28.8780   20.1280 C   0  0  0  0  0  0  0  0  0  0  0  0
  -26.0310  -30.6830   21.4180 C   0  0  0  0  0  2  0  0  0  0  0  0
  -26.1070  -29.2670   20.7530 C   0  0  0  0  0  0  0  0  0  0  0  0
  -27.2470  -28.3260   20.7390 C   0  0  0  0  0  3  0  0  0  0  0  0
  -25.9880  -26.7320   19.4920 C   0  0  0  0  0  3  0  0  0  0  0  0
  -24.8870  -27.6340   19.4760 C   0  0  0  0  0  3  0  0  0  0  0  0
  -23.6950  -29.8030   20.1830 C   0  0  0  0  0  2  0  0  0  0  0  0
  -24.7370  -31.0450   22.1140 N   0  0  0  0  0  0  0  0  0  0  0  0
  -23.5570  -32.1610   23.7250 O   0  0  0  0  0  0  0  0  0  0  0  0
  -22.7660  -29.4850   22.5250 C   0  0  0  0  0  0  0  0  0  0  0  0
  -21.4360  -29.3160   22.4020 N   0  0  0  0  0  0  0  0  0  0  0  0
  -23.4340  -28.8630   23.3550 O   0  0  0  0  0  0  0  0  0  0  0  0
  -20.9490  -29.8690   21.7110 H   0  0  0  0  0  0  0  0  0  0  0  0
  -18.0600  -28.0840   22.9210 C   0  0  0  0  0  0  0  0  0  0  0  0
  -20.6210  -28.3680   23.1710 C   0  0  0  0  0  3  0  0  0  0  0  0
  -20.7280  -26.9400   22.5850 C   0  0  0  0  0  2  0  0  0  0  0  0
  -19.6240  -26.6170   21.5740 C   0  0  0  0  0  2  0  0  0  0  0  0
  -18.2440  -26.7440   22.2280 C   0  0  0  0  0  2  0  0  0  0  0  0
  -19.1750  -28.8530   23.3490 C   0  0  0  0  0  0  0  0  0  0  0  0
  -18.9460  -30.1040   23.9620 C   0  0  0  0  0  3  0  0  0  0  0  0
  -17.6370  -30.5870   24.1470 C   0  0  0  0  0  3  0  0  0  0  0  0
  -16.5370  -29.8160   23.7320 C   0  0  0  0  0  3  0  0  0  0  0  0
  -16.7500  -28.5650   23.1260 C   0  0  0  0  0  3  0  0  0  0  0  0
  -25.9130  -32.5290   23.8400 C   0  0  0  0  0  3  0  0  0  0  0  0
  -26.4070  -31.7790   25.1400 C   0  0  1  0  0  0  0  0  0  0  0  0
  -25.2950  -31.5610   26.1940 C   0  0  0  0  0  1  0  0  0  0  0  0
  -26.9940  -30.3930   24.7910 C   0  0  0  0  0  1  0  0  0  0  0  0
  -27.5470  -32.5820   25.8070 C   0  0  0  0  0  1  0  0  0  0  0  0
  -25.5930  -33.9320   24.1610 N   0  0  0  0  0  0  0  0  0  0  0  0
  -25.8980  -34.9870   23.3950 C   0  0  0  0  0  0  0  0  0  0  0  0
  -26.5410  -34.8830   22.3470 O   0  0  0  0  0  0  0  0  0  0  0  0
  -25.0160  -34.0860   24.9760 H   0  0  0  0  0  0  0  0  0  0  0  0
  -24.1320  -36.7630   23.1150 C   0  0  0  0  0  1  0  0  0  0  0  0
  -25.4200  -36.3790   23.8610 C   0  0  0  0  0  3  0  0  0  0  0  0
  -27.5800  -37.3120   24.5720 C   0  0  0  0  0  1  0  0  0  0  0  0
  -26.4320  -37.4430   23.6790 N   0  0  0  0  0  0  0  0  0  0  0  0
  -26.0200  -38.3610   23.8250 H   0  0  0  0  0  0  0  0  0  0  0  0
  -29.0710  -22.5620   20.0900 C   0  0  0  0  0  1  0  0  0  0  0  0
  -27.9970  -20.2470   18.6040 O   0  0  0  0  0  1  0  0  0  0  0  0
  -27.7260  -20.0950   21.0670 O   0  0  0  0  0  1  0  0  0  0  0  0
  -28.6340  -20.3430   19.9300 S   0  0  0  0  0  3  0  0  0  0  0  0
  -29.6570  -17.0210   20.0710 C   0  0  0  0  0  3  0  0  0  0  0  0
  -29.8840  -18.5040   19.9360 C   0  0  0  0  0  3  0  0  0  0  0  0
  -30.5420  -15.6090   20.0110 C   0  0  0  0  0  0  0  0  0  0  0  0
  -30.6340  -13.0710   19.3140 C   0  0  0  0  0  2  0  0  0  0  0  0
  -29.7180  -12.7070   18.1140 C   0  0  0  0  0  2  0  0  0  0  0  0
  -28.2920  -12.3860   18.5900 C   0  0  0  0  0  2  0  0  0  0  0  0
  -27.8050  -13.4050   19.6470 C   0  0  0  0  0  3  0  0  0  0  0  0
  -28.8530  -13.7070   20.7390 C   0  0  0  0  0  2  0  0  0  0  0  0
  -30.0460  -14.2540   20.0680 N   0  0  0  0  0  0  0  0  0  0  0  0
  -31.7610  -15.5860   19.7700 O   0  0  0  0  0  0  0  0  0  0  0  0
  -25.4720  -13.9320   20.5160 C   0  0  0  0  0  0  0  0  0  0  0  0
  -24.4240  -13.1450   20.9010 C   0  0  0  0  0  0  0  0  0  0  0  0
  -24.8870  -11.7960   20.8130 C   0  0  0  0  0  0  0  0  0  0  0  0
  -26.5020  -13.0640   20.2020 N   0  0  0  0  0  0  0  0  0  0  0  0
  -26.1670  -11.7700   20.4500 N   0  0  0  0  0  0  0  0  0  0  0  0
  -24.1630  -10.5290   20.9920 C   0  0  0  0  0  0  0  0  0  0  0  0
  -24.5640   -9.5770   21.9540 C   0  0  0  0  0  3  0  0  0  0  0  0
  -23.8350   -8.3790   22.1210 C   0  0  0  0  0  3  0  0  0  0  0  0
  -22.6920   -8.1250   21.3270 C   0  0  0  0  0  0  0  0  0  0  0  0
  -22.3100   -9.0670   20.3550 C   0  0  0  0  0  3  0  0  0  0  0  0
  -23.0390  -10.2550   20.1860 C   0  0  0  0  0  3  0  0  0  0  0  0
  -21.9390   -6.9780   21.4020 O   0  0  0  0  0  0  0  0  0  0  0  0
  -21.7710   -6.3030   22.5850 C   0  0  0  0  0  0  0  0  0  0  0  0
  -21.1830   -6.9120   23.7140 C   0  0  0  0  0  3  0  0  0  0  0  0
  -20.9660   -6.1620   24.8860 C   0  0  0  0  0  3  0  0  0  0  0  0
  -21.3270   -4.8020   24.9290 C   0  0  0  0  0  0  0  0  0  0  0  0
  -21.9080   -4.1920   23.8040 C   0  0  0  0  0  3  0  0  0  0  0  0
  -22.1260   -4.9400   22.6340 C   0  0  0  0  0  0  0  0  0  0  0  0
  -22.6670   -4.3410   21.5460 F   0  0  0  0  0  0  0  0  0  0  0  0
  -21.1130   -4.0790   26.0540 F   0  0  0  0  0  0  0  0  0  0  0  0
  -23.0380  -13.6170   21.2320 C   0  0  0  0  0  0  0  0  0  0  0  0
  -22.3380  -12.8990   22.1020 N   0  0  0  0  0  0  0  0  0  0  0  0
  -22.5890  -14.6580   20.7550 O   0  0  0  0  0  0  0  0  0  0  0  0
  -22.7160  -12.0570   22.5090 H   0  0  0  0  0  0  0  0  0  0  0  0
  -21.4090  -13.1960   22.3660 H   0  0  0  0  0  0  0  0  0  0  0  0
  -25.6310  -15.3070   20.3740 N   0  0  0  0  0  0  0  0  0  0  0  0
  -24.8690  -15.9570   20.5350 H   0  0  0  0  0  0  0  0  0  0  0  0
  -26.4620  -15.7550   20.0100 H   0  0  0  0  0  0  0  0  0  0  0  0
  1 43  1  0
  1  2  1  0
  3 14  2  0
  4  2  1  0
  4  9  1  0
  5 13  1  0
  5 15  1  0
  6 12  1  0
  6  8  1  0
  7 13  1  0
  8  7  1  0
  9  8  2  0
 10  4  2  0
 11 10  1  0
 11  6  2  0
 12  5  1  0
 13  3  1  0
 15 17  2  0
 16 15  1  0
 18 16  1  0
 19 28  2  0
 19 24  1  0
 20 16  1  0
 20 24  1  0
 21 20  1  0
 22 23  1  0
 22 21  1  0
 23 19  1  0
 24 25  2  0
 25 26  1  0
 27 26  2  0
 28 27  1  0
 29  3  1  0
 29 34  1  0
 29 30  1  0
 30 33  1  1
 30 31  1  0
 32 30  1  0
 34 37  1  0
 35 39  1  0
 35 34  1  0
 36 35  2  0
 39 38  1  0
 41 42  1  0
 41 39  1  0
 41 40  1  0
 46 44  1  6
 46 48  1  0
 46 45  1  0
 48 47  2  0
 49 55  1  0
 49 47  1  0
 50 55  1  0
 51 52  1  0
 51 50  1  0
 53 52  1  0
 53 60  1  0
 53 54  1  0
 55 54  1  0
 56 49  2  0
 57 58  2  0
 58 77  1  0
 59 58  1  0
 59 62  1  0
 60 61  1  0
 60 57  1  0
 61 59  2  0
 62 63  1  0
 63 64  2  0
 65 68  1  0
 65 64  1  0
 66 65  2  0
 67 66  1  0
 67 62  2  0
 68 69  1  0
 69 74  2  0
 69 70  1  0
 70 71  2  0
 71 72  1  0
 72 76  1  0
 73 72  2  0
 74 73  1  0
 75 74  1  0
 77 78  1  0
 78 81  1  0
 78 80  1  0
 79 77  2  0
 82 57  1  0
 82 83  1  0
 84 82  1  0
M  ISO  4   1 101   2 101  47 100  49 100
M  END
>  <TORSDO>  (67) 
F 19

>  <SCORE>  (67) 
-15.145

>  <name>  (67) 
66

>  <ligand_id>  (67) 
66

>  <original_smiles>  (67) 
[H]C(C(=O)N1C([H])([H])C([H])([H])C([H])([H])C([H])(n2nc(-c3c([H])c([H])c(Oc4c([H])c([H])c(F)c([H])c4F)c([H])c3[H])c(C(=O)N([H])[H])c2N([H])[H])C1([H])[H])=C([H])S(=O)(=O)C([H])([H])C([H])([H])Oc1c([H])c([H])c2c(c1[H])C([H])([H])N(C(=O)C([H])(N([H])C(=O)C([H])(N([H])C([H])([H])[H])C([H])([H])[H])C(C([H])([H])[H])(C([H])([H])[H])C([H])([H])[H])C([H])(C(=O)N([H])C1([H])c3c([H])c([H])c([H])c([H])c3C([H])([H])C([H])([H])C1([H])[H])C2([H])[H]

>  <smiles>  (67) 
[H]C(C(=O)N1C([H])([H])C([H])([H])C([H])([H])C([H])(n2nc(-c3c([H])c([H])c(Oc4c([H])c([H])c(F)c([H])c4F)c([H])c3[H])c(C(=O)N([H])[H])c2N([H])[H])C1([H])[H])=C([H])S(=O)(=O)C([H])([H])C([H])([H])Oc1c([H])c([H])c2c(c1[H])C([H])([H])N(C(=O)C([H])(N([H])C(=O)C([H])(N([H])C([H])([H])[H])C([H])([H])[H])C(C([H])([H])[H])(C([H])([H])[H])C([H])([H])[H])C([H])(C(=O)N([H])C1([H])c3c([H])c([H])c([H])c([H])c3C([H])([H])C([H])([H])C1([H])[H])C2([H])[H]

$$$$
67:0:0
     RDKit          3D

103112  0  0  1  0  0  0  0  0999 V2000
  -29.5680  -20.1330   19.1590 C   0  0  0  0  0  3  0  0  0  0  0  0
  -30.1750  -18.9980   21.2320 C   0  0  0  0  0  3  0  0  0  0  0  0
  -29.9510  -17.6960   19.1930 C   0  0  0  0  0  3  0  0  0  0  0  0
  -29.8600  -20.2470   20.5380 C   0  0  0  0  0  0  0  0  0  0  0  0
  -29.5850  -18.8760   18.5090 C   0  0  0  0  0  0  0  0  0  0  0  0
  -30.2490  -17.7010   20.5710 C   0  0  0  0  0  0  0  0  0  0  0  0
  -31.1770  -15.2950   20.7950 C   0  0  0  0  0  0  0  0  0  0  0  0
  -31.0470  -13.0490   19.7150 C   0  0  0  0  0  2  0  0  0  0  0  0
  -30.1890  -13.1720   18.4330 C   0  0  0  0  0  2  0  0  0  0  0  0
  -28.6940  -12.9920   18.7590 C   0  0  0  0  0  2  0  0  0  0  0  0
  -28.2440  -13.8350   19.9830 C   0  0  0  0  0  3  0  0  0  0  0  0
  -29.2280  -13.6960   21.1680 C   0  0  0  0  0  2  0  0  0  0  0  0
  -30.5670  -14.0640   20.6840 N   0  0  0  0  0  0  0  0  0  0  0  0
  -32.3470  -15.4370   20.4260 O   0  0  0  0  0  0  0  0  0  0  0  0
  -30.4310  -16.3810   21.2210 N   0  0  0  0  0  0  0  0  0  0  0  0
  -29.6330  -16.1010   21.7740 H   0  0  0  0  0  0  0  0  0  0  0  0
  -25.8120  -14.4020   20.5740 C   0  0  0  0  0  0  0  0  0  0  0  0
  -24.7280  -13.6160   20.8580 C   0  0  0  0  0  0  0  0  0  0  0  0
  -25.1960  -12.2670   20.8170 C   0  0  0  0  0  0  0  0  0  0  0  0
  -26.8700  -13.5310   20.3740 N   0  0  0  0  0  0  0  0  0  0  0  0
  -26.5030  -12.2400   20.5820 N   0  0  0  0  0  0  0  0  0  0  0  0
  -24.4620  -10.9980   20.9260 C   0  0  0  0  0  0  0  0  0  0  0  0
  -24.7850  -10.0400   21.9110 C   0  0  0  0  0  3  0  0  0  0  0  0
  -24.0510   -8.8380   22.0080 C   0  0  0  0  0  3  0  0  0  0  0  0
  -22.9810   -8.5840   21.1190 C   0  0  0  0  0  0  0  0  0  0  0  0
  -22.6780   -9.5320   20.1240 C   0  0  0  0  0  3  0  0  0  0  0  0
  -23.4130  -10.7260   20.0260 C   0  0  0  0  0  3  0  0  0  0  0  0
  -22.2310   -7.4320   21.1200 O   0  0  0  0  0  0  0  0  0  0  0  0
  -21.9790   -6.7420   22.2770 C   0  0  0  0  0  0  0  0  0  0  0  0
  -21.3290   -7.3430   23.3770 C   0  0  0  0  0  3  0  0  0  0  0  0
  -21.0250   -6.5770   24.5200 C   0  0  0  0  0  3  0  0  0  0  0  0
  -21.3610   -5.2110   24.5640 C   0  0  0  0  0  0  0  0  0  0  0  0
  -22.0040   -4.6100   23.4670 C   0  0  0  0  0  3  0  0  0  0  0  0
  -22.3090   -5.3720   22.3270 C   0  0  0  0  0  0  0  0  0  0  0  0
  -22.9100   -4.7840   21.2650 F   0  0  0  0  0  0  0  0  0  0  0  0
  -21.0640   -4.4720   25.6590 F   0  0  0  0  0  0  0  0  0  0  0  0
  -23.3150  -14.0860   21.0550 C   0  0  0  0  0  0  0  0  0  0  0  0
  -22.5430  -13.3780   21.8710 N   0  0  0  0  0  0  0  0  0  0  0  0
  -22.9020  -15.1140   20.5190 O   0  0  0  0  0  0  0  0  0  0  0  0
  -22.8880  -12.5490   22.3320 H   0  0  0  0  0  0  0  0  0  0  0  0
  -21.5910  -13.6710   22.0430 H   0  0  0  0  0  0  0  0  0  0  0  0
  -25.9800  -15.7770   20.4470 N   0  0  0  0  0  0  0  0  0  0  0  0
  -25.1820  -16.4030   20.4910 H   0  0  0  0  0  0  0  0  0  0  0  0
  -26.7960  -16.2140   20.0380 H   0  0  0  0  0  0  0  0  0  0  0  0
  -29.8710  -21.6500   21.1670 C   0  0  0  0  0  0  0  0  0  0  0  0
  -30.5000  -21.7780   22.3330 N   0  0  0  0  0  4  0  0  0  0  0  0
  -29.3430  -22.8270   20.6320 N   0  0  0  0  0  0  0  0  0  0  0  0
  -30.9470  -20.9740   22.7460 H   0  0  0  0  0  0  0  0  0  0  0  0
  -30.5360  -22.6470   22.8370 H   0  0  0  0  0  0  0  0  0  0  0  0
  -28.8290  -22.6980   19.7690 H   0  0  0  0  0  0  0  0  0  0  0  0
  -30.9280  -24.7920   20.8000 C   0  0  0  0  0  1  0  0  0  0  0  0
  -29.4870  -24.3160   21.0570 C   0  0  0  0  0  3  0  0  0  0  0  0
  -28.4740  -25.4290   20.4530 C   0  0  0  0  0  2  0  0  0  0  0  0
  -28.6690  -26.9030   20.7060 O   0  0  0  0  0  0  0  0  0  0  0  0
  -24.9120  -32.3490   23.7020 C   0  0  0  0  0  0  0  0  0  0  0  0
  -27.5600  -27.7810   20.6410 C   0  0  0  0  0  0  0  0  0  0  0  0
  -23.7210  -30.9390   22.0640 C   0  0  0  0  0  3  0  0  0  0  0  0
  -25.1860  -29.4040   20.6300 C   0  0  0  0  0  0  0  0  0  0  0  0
  -26.2610  -31.2740   21.8800 C   0  0  0  0  0  2  0  0  0  0  0  0
  -26.3550  -29.8950   21.2280 C   0  0  0  0  0  0  0  0  0  0  0  0
  -27.5440  -29.0960   21.2220 C   0  0  0  0  0  3  0  0  0  0  0  0
  -26.3670  -27.3620   20.0090 C   0  0  0  0  0  3  0  0  0  0  0  0
  -25.1980  -28.1460   20.0100 C   0  0  0  0  0  3  0  0  0  0  0  0
  -23.9420  -30.2700   20.6810 C   0  0  0  0  0  2  0  0  0  0  0  0
  -24.9830  -31.5390   22.6050 N   0  0  0  0  0  0  0  0  0  0  0  0
  -23.8260  -32.6150   24.2370 O   0  0  0  0  0  0  0  0  0  0  0  0
  -23.0700  -29.9140   23.0240 C   0  0  0  0  0  0  0  0  0  0  0  0
  -21.8060  -29.5440   22.7520 N   0  0  0  0  0  0  0  0  0  0  0  0
  -23.7050  -29.4550   23.9780 O   0  0  0  0  0  0  0  0  0  0  0  0
  -21.3480  -29.9730   21.9600 H   0  0  0  0  0  0  0  0  0  0  0  0
  -18.6050  -27.8620   22.8870 C   0  0  0  0  0  0  0  0  0  0  0  0
  -21.0190  -28.5620   23.4990 C   0  0  0  0  0  3  0  0  0  0  0  0
  -21.4230  -27.1180   23.1200 C   0  0  0  0  0  2  0  0  0  0  0  0
  -20.5620  -26.5260   21.9990 C   0  0  0  0  0  2  0  0  0  0  0  0
  -19.0870  -26.5030   22.4110 C   0  0  0  0  0  2  0  0  0  0  0  0
  -19.5140  -28.8340   23.3850 C   0  0  0  0  0  0  0  0  0  0  0  0
  -19.0170  -30.0940   23.7840 C   0  0  0  0  0  3  0  0  0  0  0  0
  -17.6420  -30.3870   23.6960 C   0  0  0  0  0  3  0  0  0  0  0  0
  -16.7470  -29.4150   23.2170 C   0  0  0  0  0  3  0  0  0  0  0  0
  -17.2270  -28.1560   22.8180 C   0  0  0  0  0  3  0  0  0  0  0  0
  -26.1880  -32.9980   24.3220 C   0  0  0  0  0  3  0  0  0  0  0  0
  -25.8830  -34.4110   24.5890 N   0  0  0  0  0  0  0  0  0  0  0  0
  -26.2060  -35.4270   23.7790 C   0  0  0  0  0  0  0  0  0  0  0  0
  -26.8610  -35.2750   22.7450 O   0  0  0  0  0  0  0  0  0  0  0  0
  -25.2970  -34.6020   25.3900 H   0  0  0  0  0  0  0  0  0  0  0  0
  -24.4690  -37.2020   23.3760 C   0  0  0  0  0  1  0  0  0  0  0  0
  -25.7280  -36.8370   24.1800 C   0  0  0  0  0  3  0  0  0  0  0  0
  -27.8830  -37.7550   24.9150 C   0  0  0  0  0  1  0  0  0  0  0  0
  -26.7560  -37.8830   23.9940 N   0  0  0  0  0  0  0  0  0  0  0  0
  -26.3530  -38.8090   24.1110 H   0  0  0  0  0  0  0  0  0  0  0  0
  -26.6700  -32.2770   25.6410 C   0  0  1  0  0  0  0  0  0  0  0  0
  -25.5330  -32.0000   26.6510 C   0  0  0  0  0  1  0  0  0  0  0  0
  -27.3470  -30.9260   25.3110 C   0  0  0  0  0  1  0  0  0  0  0  0
  -27.7400  -33.1420   26.3480 C   0  0  0  0  0  1  0  0  0  0  0  0
  -29.1420  -18.6030   14.9210 C   0  0  0  0  0  3  0  0  0  0  0  0
  -27.7990  -18.5020   15.3870 C   0  0  0  0  0  3  0  0  0  0  0  0
  -29.9400  -18.7590   16.0210 C   0  0  0  0  0  0  0  0  0  0  0  0
  -27.8430  -18.5990   16.7490 C   0  0  0  0  0  0  0  0  0  0  0  0
  -29.1580  -18.7590   17.1670 N   0  0  0  0  0  0  0  0  0  0  0  0
  -31.2930  -18.8830   16.0910 O   0  0  0  0  0  0  0  0  0  0  0  0
  -31.6400  -18.7960   15.2080 H   0  0  0  0  0  0  0  0  0  0  0  0
  -26.8210  -18.5620   17.6490 O   0  0  0  0  0  0  0  0  0  0  0  0
  -26.0010  -18.5440   17.1640 H   0  0  0  0  0  0  0  0  0  0  0  0
  1  4  1  0
  3  6  2  0
  4 45  1  0
  4  2  2  0
  5  1  2  0
  5  3  1  0
  6 15  1  0
  6  2  1  0
  7 15  1  0
  8 13  1  0
  9 10  1  0
  9  8  1  0
 11 10  1  0
 11 20  1  0
 11 12  1  0
 13  7  1  0
 13 12  1  0
 14  7  2  0
 15 16  1  0
 17 18  2  0
 18 37  1  0
 19 18  1  0
 19 22  1  0
 20 17  1  0
 20 21  1  0
 21 19  2  0
 22 23  1  0
 23 24  2  0
 25 28  1  0
 25 24  1  0
 26 25  2  0
 27 26  1  0
 27 22  2  0
 28 29  1  0
 29 34  2  0
 29 30  1  0
 30 31  2  0
 31 32  1  0
 32 36  1  0
 33 32  2  0
 34 33  1  0
 35 34  1  0
 37 38  1  0
 38 41  1  0
 38 40  1  0
 39 37  2  0
 42 43  1  0
 42 17  1  0
 44 42  1  0
 45 46  2  0
 46 48  1  0
 46 49  1  0
 47 52  1  0
 47 45  1  0
 50 47  1  0
 52 51  1  0
 53 54  1  0
 53 52  1  0
 55 66  2  0
 56 54  1  0
 56 61  1  0
 57 65  1  0
 57 67  1  0
 58 64  1  0
 58 60  1  0
 59 65  1  0
 60 59  1  0
 61 60  2  0
 62 63  1  0
 62 56  2  0
 63 58  2  0
 64 57  1  0
 65 55  1  0
 67 69  2  0
 68 67  1  0
 70 68  1  0
 71 76  1  0
 72 68  1  0
 73 72  1  0
 74 75  1  0
 74 73  1  0
 75 71  1  0
 76 72  1  0
 76 77  2  0
 78 77  1  0
 79 78  2  0
 80 71  2  0
 80 79  1  0
 81 55  1  0
 81 82  1  0
 81 91  1  0
 82 85  1  0
 83 87  1  0
 83 82  1  0
 84 83  2  0
 87 86  1  0
 89 90  1  0
 89 87  1  0
 89 88  1  0
 91 94  1  1
 91 92  1  0
 93 91  1  0
 95 96  1  0
 95 97  2  0
 96 98  2  0
 97100  1  0
 97 99  1  0
 98 99  1  0
 98102  1  0
 99  5  1  0
101100  1  0
103102  1  0
M  ISO  4   7 100  15 100  53 101  54 101
M  END
>  <TORSDO>  (68) 
F 22

>  <SCORE>  (68) 
-11.233

>  <name>  (68) 
67

>  <ligand_id>  (68) 
67

>  <original_smiles>  (68) 
[H]Oc1c([H])c([H])c(O[H])n1-c1c([H])c(C(N([H])[H])=[N+]([H])C([H])(C([H])([H])[H])C([H])([H])Oc2c([H])c([H])c3c(c2[H])C([H])([H])N(C(=O)C([H])(N([H])C(=O)C([H])(N([H])C([H])([H])[H])C([H])([H])[H])C(C([H])([H])[H])(C([H])([H])[H])C([H])([H])[H])C([H])(C(=O)N([H])C2([H])c4c([H])c([H])c([H])c([H])c4C([H])([H])C([H])([H])C2([H])[H])C3([H])[H])c([H])c(N([H])C(=O)N2C([H])([H])C([H])([H])C([H])([H])C([H])(n3nc(-c4c([H])c([H])c(Oc5c([H])c([H])c(F)c([H])c5F)c([H])c4[H])c(C(=O)N([H])[H])c3N([H])[H])C2([H])[H])c1[H]

>  <smiles>  (68) 
[H]Oc1c([H])c([H])c(O[H])n1-c1c([H])c(C(N([H])[H])=[N+]([H])C([H])(C([H])([H])[H])C([H])([H])Oc2c([H])c([H])c3c(c2[H])C([H])([H])N(C(=O)C([H])(N([H])C(=O)C([H])(N([H])C([H])([H])[H])C([H])([H])[H])C(C([H])([H])[H])(C([H])([H])[H])C([H])([H])[H])C([H])(C(=O)N([H])C2([H])c4c([H])c([H])c([H])c([H])c4C([H])([H])C([H])([H])C2([H])[H])C3([H])[H])c([H])c(N([H])C(=O)N2C([H])([H])C([H])([H])C([H])([H])C([H])(n3nc(-c4c([H])c([H])c(Oc5c([H])c([H])c(F)c([H])c5F)c([H])c4[H])c(C(=O)N([H])[H])c3N([H])[H])C2([H])[H])c1[H]

$$$$
68:0:0
     RDKit          3D

 92100  0  0  1  0  0  0  0  0999 V2000
  -28.8600  -22.4790   20.1720 C   0  0  0  0  0  0  0  0  0  0  0  0
  -29.8500  -21.5370   20.2620 N   0  0  0  0  0  0  0  0  0  0  0  0
  -27.6840  -22.1670   19.9720 O   0  0  0  0  0  0  0  0  0  0  0  0
  -30.7770  -21.9330   20.3270 H   0  0  0  0  0  0  0  0  0  0  0  0
  -31.0270  -19.3400   20.1400 C   0  0  0  0  0  3  0  0  0  0  0  0
  -31.0810  -17.9150   20.2060 C   0  0  0  0  0  3  0  0  0  0  0  0
  -28.6460  -19.2890   20.4840 C   0  0  0  0  0  3  0  0  0  0  0  0
  -29.8130  -20.0710   20.2750 C   0  0  0  0  0  0  0  0  0  0  0  0
  -29.9110  -17.1420   20.4250 C   0  0  0  0  0  0  0  0  0  0  0  0
  -28.6990  -17.8680   20.5590 C   0  0  0  0  0  0  0  0  0  0  0  0
  -27.5540  -17.1750   20.7700 F   0  0  0  0  0  0  0  0  0  0  0  0
  -30.6110  -14.6660   20.0610 C   0  0  0  0  0  0  0  0  0  0  0  0
  -30.3240  -12.4760   18.9270 C   0  0  0  0  0  2  0  0  0  0  0  0
  -29.3130  -12.6620   17.7740 C   0  0  0  0  0  2  0  0  0  0  0  0
  -27.8650  -12.4990   18.2800 C   0  0  0  0  0  2  0  0  0  0  0  0
  -27.5860  -13.3180   19.5680 C   0  0  0  0  0  3  0  0  0  0  0  0
  -28.7030  -13.0990   20.6140 C   0  0  0  0  0  2  0  0  0  0  0  0
  -29.9850  -13.4500   19.9810 N   0  0  0  0  0  0  0  0  0  0  0  0
  -31.7420  -14.8410   19.5970 O   0  0  0  0  0  0  0  0  0  0  0  0
  -29.8410  -15.6890   20.5390 N   0  0  0  0  0  0  0  0  0  0  0  0
  -28.9620  -15.3710   20.9160 H   0  0  0  0  0  0  0  0  0  0  0  0
  -25.2350  -13.9130   20.4230 C   0  0  0  0  0  0  0  0  0  0  0  0
  -24.1840  -13.1360   20.8290 C   0  0  0  0  0  0  0  0  0  0  0  0
  -24.6350  -11.7840   20.7400 C   0  0  0  0  0  0  0  0  0  0  0  0
  -26.2620  -13.0340   20.1160 N   0  0  0  0  0  0  0  0  0  0  0  0
  -25.9090  -11.7480   20.3640 N   0  0  0  0  0  0  0  0  0  0  0  0
  -23.9130  -10.5210   20.9380 C   0  0  0  0  0  0  0  0  0  0  0  0
  -24.3490   -9.5590   21.8760 C   0  0  0  0  0  3  0  0  0  0  0  0
  -23.6270   -8.3610   22.0590 C   0  0  0  0  0  3  0  0  0  0  0  0
  -22.4530   -8.1160   21.3060 C   0  0  0  0  0  0  0  0  0  0  0  0
  -22.0350   -9.0680   20.3600 C   0  0  0  0  0  3  0  0  0  0  0  0
  -22.7590  -10.2580   20.1740 C   0  0  0  0  0  3  0  0  0  0  0  0
  -21.7010   -6.9710   21.4000 O   0  0  0  0  0  0  0  0  0  0  0  0
  -21.6030   -6.2690   22.5750 C   0  0  0  0  0  0  0  0  0  0  0  0
  -21.1050   -6.8600   23.7570 C   0  0  0  0  0  3  0  0  0  0  0  0
  -20.9550   -6.0830   24.9230 C   0  0  0  0  0  3  0  0  0  0  0  0
  -21.2920   -4.7160   24.9080 C   0  0  0  0  0  0  0  0  0  0  0  0
  -21.7830   -4.1240   23.7310 C   0  0  0  0  0  3  0  0  0  0  0  0
  -21.9340   -4.8980   22.5670 C   0  0  0  0  0  0  0  0  0  0  0  0
  -22.3880   -4.3190   21.4290 F   0  0  0  0  0  0  0  0  0  0  0  0
  -21.1410   -3.9670   26.0250 F   0  0  0  0  0  0  0  0  0  0  0  0
  -22.8070  -13.6140   21.1890 C   0  0  0  0  0  0  0  0  0  0  0  0
  -22.1240  -12.9050   22.0810 N   0  0  0  0  0  0  0  0  0  0  0  0
  -22.3450  -14.6510   20.7140 O   0  0  0  0  0  0  0  0  0  0  0  0
  -22.5110  -12.0650   22.4880 H   0  0  0  0  0  0  0  0  0  0  0  0
  -21.2030  -13.2080   22.3630 H   0  0  0  0  0  0  0  0  0  0  0  0
  -25.3950  -15.2880   20.2780 N   0  0  0  0  0  0  0  0  0  0  0  0
  -24.6450  -15.9360   20.4870 H   0  0  0  0  0  0  0  0  0  0  0  0
  -26.2590  -15.7540   20.0330 H   0  0  0  0  0  0  0  0  0  0  0  0
  -29.2320  -24.0100   20.3100 C   0  0  0  0  0  3  0  0  0  0  0  0
  -28.1180  -25.0750   19.9290 C   0  0  0  0  0  3  0  0  0  0  0  0
  -28.3460  -26.5170   20.1790 O   0  0  0  0  0  0  0  0  0  0  0  0
  -24.6150  -31.8690   23.2600 C   0  0  0  0  0  0  0  0  0  0  0  0
  -27.2260  -27.3640   20.1360 C   0  0  0  0  0  0  0  0  0  0  0  0
  -23.4110  -30.4940   21.6030 C   0  0  0  0  0  3  0  0  0  0  0  0
  -24.8600  -28.9710   20.1540 C   0  0  0  0  0  0  0  0  0  0  0  0
  -25.9500  -30.8190   21.4230 C   0  0  0  0  0  2  0  0  0  0  0  0
  -26.0300  -29.4510   20.7570 C   0  0  0  0  0  0  0  0  0  0  0  0
  -27.2160  -28.6590   20.7390 C   0  0  0  0  0  3  0  0  0  0  0  0
  -26.0310  -26.9410   19.5060 C   0  0  0  0  0  3  0  0  0  0  0  0
  -24.8630  -27.7210   19.5210 C   0  0  0  0  0  3  0  0  0  0  0  0
  -23.6240  -29.8430   20.2130 C   0  0  0  0  0  2  0  0  0  0  0  0
  -24.6780  -31.0760   22.1520 N   0  0  0  0  0  0  0  0  0  0  0  0
  -23.5310  -32.1390   23.7990 O   0  0  0  0  0  0  0  0  0  0  0  0
  -22.7510  -29.4610   22.5480 C   0  0  0  0  0  0  0  0  0  0  0  0
  -21.4260  -29.2830   22.4170 N   0  0  0  0  0  0  0  0  0  0  0  0
  -23.4300  -28.8230   23.3570 O   0  0  0  0  0  0  0  0  0  0  0  0
  -20.9360  -29.8490   21.7380 H   0  0  0  0  0  0  0  0  0  0  0  0
  -18.0450  -28.0970   22.9120 C   0  0  0  0  0  0  0  0  0  0  0  0
  -20.6060  -28.3370   23.1760 C   0  0  0  0  0  3  0  0  0  0  0  0
  -20.6980  -26.9150   22.5750 C   0  0  0  0  0  2  0  0  0  0  0  0
  -19.5890  -26.6160   21.5620 C   0  0  0  0  0  2  0  0  0  0  0  0
  -18.2110  -26.7570   22.2150 C   0  0  0  0  0  2  0  0  0  0  0  0
  -19.1690  -28.8440   23.3510 C   0  0  0  0  0  0  0  0  0  0  0  0
  -18.9600  -30.0990   23.9650 C   0  0  0  0  0  3  0  0  0  0  0  0
  -17.6580  -30.6040   24.1450 C   0  0  0  0  0  3  0  0  0  0  0  0
  -16.5480  -29.8520   23.7220 C   0  0  0  0  0  3  0  0  0  0  0  0
  -16.7430  -28.6000   23.1120 C   0  0  0  0  0  3  0  0  0  0  0  0
  -25.8980  -32.4930   23.8910 C   0  0  0  0  0  3  0  0  0  0  0  0
  -26.4020  -31.7150   25.1690 C   0  0  1  0  0  0  0  0  0  0  0  0
  -25.3010  -31.4810   26.2290 C   0  0  0  0  0  1  0  0  0  0  0  0
  -26.9820  -30.3360   24.7770 C   0  0  0  0  0  1  0  0  0  0  0  0
  -27.5530  -32.5020   25.8390 C   0  0  0  0  0  1  0  0  0  0  0  0
  -25.5940  -33.8910   24.2220 N   0  0  0  0  0  0  0  0  0  0  0  0
  -25.9140  -34.9420   23.4550 C   0  0  0  0  0  0  0  0  0  0  0  0
  -26.5670  -34.8350   22.4130 O   0  0  0  0  0  0  0  0  0  0  0  0
  -25.0100  -34.0480   25.0320 H   0  0  0  0  0  0  0  0  0  0  0  0
  -24.1690  -36.7260   23.1380 C   0  0  0  0  0  1  0  0  0  0  0  0
  -25.4340  -36.3330   23.9160 C   0  0  0  0  0  3  0  0  0  0  0  0
  -27.5850  -37.2360   24.6830 C   0  0  0  0  0  1  0  0  0  0  0  0
  -26.4590  -37.3880   23.7660 N   0  0  0  0  0  0  0  0  0  0  0  0
  -26.0520  -38.3090   23.9130 H   0  0  0  0  0  0  0  0  0  0  0  0
  1  2  1  0
  1 50  1  0
  2  8  1  0
  2  4  1  0
  3  1  2  0
  5  6  2  0
  5  8  1  0
  6  9  1  0
  7 10  1  0
  8  7  2  0
  9 20  1  0
  9 10  2  0
 10 11  1  0
 12 20  1  0
 13 18  1  0
 14 15  1  0
 14 13  1  0
 16 15  1  0
 16 25  1  0
 16 17  1  0
 18 12  1  0
 18 17  1  0
 19 12  2  0
 20 21  1  0
 22 23  2  0
 23 42  1  0
 24 23  1  0
 24 27  1  0
 25 26  1  0
 25 22  1  0
 26 24  2  0
 27 28  1  0
 28 29  2  0
 30 33  1  0
 30 29  1  0
 31 30  2  0
 32 31  1  0
 32 27  2  0
 33 34  1  0
 34 35  1  0
 35 36  2  0
 37 36  1  0
 37 41  1  0
 38 37  2  0
 39 34  2  0
 39 38  1  0
 40 39  1  0
 42 43  1  0
 43 46  1  0
 43 45  1  0
 44 42  2  0
 47 22  1  0
 47 48  1  0
 49 47  1  0
 51 52  1  0
 51 50  2  0
 53 64  2  0
 54 52  1  0
 54 59  1  0
 55 63  1  0
 55 65  1  0
 56 62  1  0
 56 58  1  0
 57 63  1  0
 58 57  1  0
 59 58  2  0
 60 61  1  0
 60 54  2  0
 61 56  2  0
 62 55  1  0
 63 53  1  0
 65 67  2  0
 66 65  1  0
 68 66  1  0
 69 78  2  0
 69 74  1  0
 70 66  1  0
 70 74  1  0
 71 70  1  0
 72 73  1  0
 72 71  1  0
 73 69  1  0
 74 75  2  0
 75 76  1  0
 77 76  2  0
 78 77  1  0
 79 53  1  0
 79 84  1  0
 79 80  1  0
 80 83  1  1
 80 81  1  0
 82 80  1  0
 84 87  1  0
 85 89  1  0
 85 84  1  0
 86 85  2  0
 89 88  1  0
 91 92  1  0
 91 89  1  0
 91 90  1  0
M  ISO  4  12 100  20 100  51 101  52 101
M  END
>  <TORSDO>  (69) 
F 19

>  <SCORE>  (69) 
-14.241

>  <name>  (69) 
68

>  <ligand_id>  (69) 
68

>  <original_smiles>  (69) 
[H]c1c([H])c([H])c2c(c1[H])C([H])([H])C([H])([H])C([H])([H])C2([H])N([H])C(=O)C1([H])N(C(=O)C([H])(N([H])C(=O)C([H])(N([H])C([H])([H])[H])C([H])([H])[H])C(C([H])([H])[H])(C([H])([H])[H])C([H])([H])[H])C([H])([H])c2c([H])c(OC([H])([H])C([H])([H])C(=O)N([H])c3c([H])c([H])c(N([H])C(=O)N4C([H])([H])C([H])([H])C([H])([H])C([H])(n5nc(-c6c([H])c([H])c(Oc7c([H])c([H])c(F)c([H])c7F)c([H])c6[H])c(C(=O)N([H])[H])c5N([H])[H])C4([H])[H])c(F)c3[H])c([H])c([H])c2C1([H])[H]

>  <smiles>  (69) 
[H]c1c([H])c([H])c2c(c1[H])C([H])([H])C([H])([H])C([H])([H])C2([H])N([H])C(=O)C1([H])N(C(=O)C([H])(N([H])C(=O)C([H])(N([H])C([H])([H])[H])C([H])([H])[H])C(C([H])([H])[H])(C([H])([H])[H])C([H])([H])[H])C([H])([H])c2c([H])c(OC([H])([H])C([H])([H])C(=O)N([H])c3c([H])c([H])c(N([H])C(=O)N4C([H])([H])C([H])([H])C([H])([H])C([H])(n5nc(-c6c([H])c([H])c(Oc7c([H])c([H])c(F)c([H])c7F)c([H])c6[H])c(C(=O)N([H])[H])c5N([H])[H])C4([H])[H])c(F)c3[H])c([H])c([H])c2C1([H])[H]

$$$$
69:0:0
     RDKit          3D

 94103  0  0  1  0  0  0  0  0999 V2000
  -29.1810  -21.9540   19.7560 C   0  0  0  0  0  0  0  0  0  0  0  0
  -28.0120  -22.4420   21.6840 C   0  0  0  0  0  2  0  0  0  0  0  0
  -28.1520  -20.8970   21.4460 C   0  0  0  0  0  2  0  0  0  0  0  0
  -28.2730  -23.2030   20.3630 C   0  0  0  0  0  3  0  0  0  0  0  0
  -29.0800  -20.6440   20.3390 N   0  0  0  0  0  0  0  0  0  0  0  0
  -29.9220  -22.1770   18.7960 O   0  0  0  0  0  0  0  0  0  0  0  0
  -28.2420  -19.2960   18.5680 C   0  0  0  0  0  3  0  0  0  0  0  0
  -29.8570  -18.1380   17.2010 C   0  0  0  0  0  3  0  0  0  0  0  0
  -29.1160  -19.2190   19.6790 C   0  0  0  0  0  0  0  0  0  0  0  0
  -30.0780  -18.0170   19.6490 C   0  0  0  0  0  0  0  0  0  0  0  0
  -28.6110  -18.7610   17.3270 C   0  0  0  0  0  0  0  0  0  0  0  0
  -30.6120  -17.8130   18.3430 C   0  0  0  0  0  0  0  0  0  0  0  0
  -27.8360  -18.9750   16.2360 F   0  0  0  0  0  0  0  0  0  0  0  0
  -31.7500  -17.1140   18.1430 F   0  0  0  0  0  0  0  0  0  0  0  0
  -30.7350  -15.3410   20.1810 C   0  0  0  0  0  0  0  0  0  0  0  0
  -30.6500  -12.9420   19.3070 C   0  0  0  0  0  2  0  0  0  0  0  0
  -29.7330  -12.8540   18.0650 C   0  0  0  0  0  2  0  0  0  0  0  0
  -28.2690  -12.6380   18.4890 C   0  0  0  0  0  2  0  0  0  0  0  0
  -27.8500  -13.5620   19.6610 C   0  0  0  0  0  3  0  0  0  0  0  0
  -28.8980  -13.6170   20.7900 C   0  0  0  0  0  2  0  0  0  0  0  0
  -30.1510  -14.0610   20.1690 N   0  0  0  0  0  0  0  0  0  0  0  0
  -31.9550  -15.3410   19.9790 O   0  0  0  0  0  0  0  0  0  0  0  0
  -29.9680  -16.5790   20.2900 N   0  0  0  0  0  0  0  0  0  0  0  0
  -29.0620  -16.4070   20.6940 H   0  0  0  0  0  0  0  0  0  0  0  0
  -25.4730  -14.1310   20.3870 C   0  0  0  0  0  0  0  0  0  0  0  0
  -24.4110  -13.3560   20.7590 C   0  0  0  0  0  0  0  0  0  0  0  0
  -24.8800  -12.0060   20.7470 C   0  0  0  0  0  0  0  0  0  0  0  0
  -26.5170  -13.2540   20.1600 N   0  0  0  0  0  0  0  0  0  0  0  0
  -26.1740  -11.9720   20.4440 N   0  0  0  0  0  0  0  0  0  0  0  0
  -24.1550  -10.7450   20.9460 C   0  0  0  0  0  0  0  0  0  0  0  0
  -24.5690   -9.7990   21.9080 C   0  0  0  0  0  3  0  0  0  0  0  0
  -23.8430   -8.6020   22.0960 C   0  0  0  0  0  3  0  0  0  0  0  0
  -22.6890   -8.3440   21.3190 C   0  0  0  0  0  0  0  0  0  0  0  0
  -22.2950   -9.2780   20.3450 C   0  0  0  0  0  3  0  0  0  0  0  0
  -23.0210  -10.4660   20.1570 C   0  0  0  0  0  3  0  0  0  0  0  0
  -21.9370   -7.1980   21.4120 O   0  0  0  0  0  0  0  0  0  0  0  0
  -21.8450   -6.4900   22.5840 C   0  0  0  0  0  0  0  0  0  0  0  0
  -21.3480   -7.0740   23.7710 C   0  0  0  0  0  3  0  0  0  0  0  0
  -21.2080   -6.2920   24.9340 C   0  0  0  0  0  3  0  0  0  0  0  0
  -21.5510   -4.9280   24.9120 C   0  0  0  0  0  0  0  0  0  0  0  0
  -22.0420   -4.3440   23.7310 C   0  0  0  0  0  3  0  0  0  0  0  0
  -22.1850   -5.1230   22.5690 C   0  0  0  0  0  0  0  0  0  0  0  0
  -22.6380   -4.5490   21.4290 F   0  0  0  0  0  0  0  0  0  0  0  0
  -21.4080   -4.1750   26.0280 F   0  0  0  0  0  0  0  0  0  0  0  0
  -23.0100  -13.8320   21.0130 C   0  0  0  0  0  0  0  0  0  0  0  0
  -22.2780  -13.1490   21.8870 N   0  0  0  0  0  0  0  0  0  0  0  0
  -22.5750  -14.8450   20.4680 O   0  0  0  0  0  0  0  0  0  0  0  0
  -22.6470  -12.3290   22.3430 H   0  0  0  0  0  0  0  0  0  0  0  0
  -21.3390  -13.4550   22.1010 H   0  0  0  0  0  0  0  0  0  0  0  0
  -25.6310  -15.5010   20.1990 N   0  0  0  0  0  0  0  0  0  0  0  0
  -24.8560  -16.1460   20.3040 H   0  0  0  0  0  0  0  0  0  0  0  0
  -26.4630  -15.9400   19.8290 H   0  0  0  0  0  0  0  0  0  0  0  0
  -28.5970  -24.8870   20.6730 C   0  0  0  0  0  2  0  0  0  0  0  0
  -28.3880  -26.3320   20.0360 O   0  0  0  0  0  0  0  0  0  0  0  0
  -24.6310  -31.9770   23.2040 C   0  0  0  0  0  0  0  0  0  0  0  0
  -27.2840  -27.2730   20.1530 C   0  0  0  0  0  0  0  0  0  0  0  0
  -23.4540  -30.5650   21.5590 C   0  0  0  0  0  3  0  0  0  0  0  0
  -24.9270  -29.0090   20.1340 C   0  0  0  0  0  0  0  0  0  0  0  0
  -26.0050  -30.8670   21.3930 C   0  0  0  0  0  2  0  0  0  0  0  0
  -26.1040  -29.4680   20.7380 C   0  0  0  0  0  0  0  0  0  0  0  0
  -27.2850  -28.6240   20.7190 C   0  0  0  0  0  3  0  0  0  0  0  0
  -26.0710  -26.9200   19.5280 C   0  0  0  0  0  3  0  0  0  0  0  0
  -24.9220  -27.7500   19.5120 C   0  0  0  0  0  3  0  0  0  0  0  0
  -23.6860  -29.8920   20.1810 C   0  0  0  0  0  2  0  0  0  0  0  0
  -24.7180  -31.1570   22.1090 N   0  0  0  0  0  0  0  0  0  0  0  0
  -23.5410  -32.2390   23.7370 O   0  0  0  0  0  0  0  0  0  0  0  0
  -22.7950  -29.5440   22.5180 C   0  0  0  0  0  0  0  0  0  0  0  0
  -21.4680  -29.3490   22.3940 N   0  0  0  0  0  0  0  0  0  0  0  0
  -23.4760  -28.9280   23.3400 O   0  0  0  0  0  0  0  0  0  0  0  0
  -20.9750  -29.9060   21.7100 H   0  0  0  0  0  0  0  0  0  0  0  0
  -18.1190  -28.0570   22.8870 C   0  0  0  0  0  0  0  0  0  0  0  0
  -20.6710  -28.3810   23.1530 C   0  0  0  0  0  3  0  0  0  0  0  0
  -20.8130  -26.9600   22.5580 C   0  0  0  0  0  2  0  0  0  0  0  0
  -19.7100  -26.6160   21.5490 C   0  0  0  0  0  2  0  0  0  0  0  0
  -18.3290  -26.7150   22.2040 C   0  0  0  0  0  2  0  0  0  0  0  0
  -19.2210  -28.8440   23.3210 C   0  0  0  0  0  0  0  0  0  0  0  0
  -18.9730  -30.0970   23.9220 C   0  0  0  0  0  3  0  0  0  0  0  0
  -17.6570  -30.5710   24.0830 C   0  0  0  0  0  3  0  0  0  0  0  0
  -16.5710  -29.7860   23.6620 C   0  0  0  0  0  3  0  0  0  0  0  0
  -16.8020  -28.5280   23.0750 C   0  0  0  0  0  3  0  0  0  0  0  0
  -25.8970  -32.6340   23.8340 C   0  0  0  0  0  3  0  0  0  0  0  0
  -25.5670  -34.0330   24.1600 N   0  0  0  0  0  0  0  0  0  0  0  0
  -25.9010  -35.0900   23.4110 C   0  0  0  0  0  0  0  0  0  0  0  0
  -26.5860  -34.9950   22.3890 O   0  0  0  0  0  0  0  0  0  0  0  0
  -24.9560  -34.1790   24.9500 H   0  0  0  0  0  0  0  0  0  0  0  0
  -24.1750  -36.8830   23.0250 C   0  0  0  0  0  1  0  0  0  0  0  0
  -25.3960  -36.4740   23.8660 C   0  0  0  0  0  3  0  0  0  0  0  0
  -27.5010  -37.3650   24.7650 C   0  0  0  0  0  1  0  0  0  0  0  0
  -26.4270  -37.5330   23.7880 N   0  0  0  0  0  0  0  0  0  0  0  0
  -26.0130  -38.4510   23.9290 H   0  0  0  0  0  0  0  0  0  0  0  0
  -26.4090  -31.8810   25.1260 C   0  0  1  0  0  0  0  0  0  0  0  0
  -25.3070  -31.6410   26.1830 C   0  0  0  0  0  1  0  0  0  0  0  0
  -27.0130  -30.5070   24.7600 C   0  0  0  0  0  1  0  0  0  0  0  0
  -27.5420  -32.6960   25.7940 C   0  0  0  0  0  1  0  0  0  0  0  0
  1  5  1  0
  1  4  1  0
  3  2  1  0
  4 53  1  0
  4  2  1  0
  5  3  1  0
  6  1  2  0
  7  9  1  0
  8 11  1  0
  8 12  2  0
  9  5  1  0
 10  9  2  3
 10 23  1  0
 11  7  2  0
 12 10  1  0
 13 11  1  0
 14 12  1  0
 15 23  1  0
 16 21  1  0
 17 18  1  0
 17 16  1  0
 19 18  1  0
 19 28  1  0
 19 20  1  0
 21 15  1  0
 21 20  1  0
 22 15  2  0
 23 24  1  0
 25 26  2  0
 26 45  1  0
 27 26  1  0
 27 30  1  0
 28 25  1  0
 28 29  1  0
 29 27  2  0
 30 31  1  0
 31 32  2  0
 33 36  1  0
 33 32  1  0
 34 33  2  0
 35 34  1  0
 35 30  2  0
 36 37  1  0
 37 38  1  0
 38 39  2  0
 40 39  1  0
 40 44  1  0
 41 40  2  0
 42 37  2  0
 42 41  1  0
 43 42  1  0
 45 46  1  0
 46 49  1  0
 46 48  1  0
 47 45  2  0
 50 51  1  0
 50 25  1  0
 52 50  1  0
 54 56  1  0
 54 53  1  0
 55 66  2  0
 56 61  1  0
 57 65  1  0
 57 67  1  0
 58 64  1  0
 58 60  1  0
 59 65  1  0
 60 59  1  0
 61 60  2  0
 62 56  2  0
 63 62  1  0
 63 58  2  0
 64 57  1  0
 65 55  1  0
 67 69  2  0
 68 67  1  0
 70 68  1  0
 71 80  2  0
 71 76  1  0
 72 68  1  0
 72 76  1  0
 73 72  1  0
 74 75  1  0
 74 73  1  0
 75 71  1  0
 76 77  2  0
 77 78  1  0
 79 78  2  0
 80 79  1  0
 81 55  1  0
 81 82  1  0
 81 91  1  0
 82 85  1  0
 83 87  1  0
 83 82  1  0
 84 83  2  0
 87 86  1  0
 89 87  1  0
 89 90  1  0
 89 88  1  0
 91 94  1  1
 91 92  1  0
 93 91  1  0
M  ISO  4  15 100  23 100  53 101  54 101
M  END
>  <TORSDO>  (70) 
F 18

>  <SCORE>  (70) 
-15.023

>  <name>  (70) 
69

>  <ligand_id>  (70) 
69

>  <original_smiles>  (70) 
[H]c1c([H])c([H])c2c(c1[H])C([H])([H])C([H])([H])C([H])([H])C2([H])N([H])C(=O)C1([H])N(C(=O)C([H])(N([H])C(=O)C([H])(N([H])C([H])([H])[H])C([H])([H])[H])C(C([H])([H])[H])(C([H])([H])[H])C([H])([H])[H])C([H])([H])c2c([H])c(OC([H])([H])C3([H])C(=O)N(c4c([H])c(F)c([H])c(F)c4N([H])C(=O)N4C([H])([H])C([H])([H])C([H])([H])C([H])(n5nc(-c6c([H])c([H])c(Oc7c([H])c([H])c(F)c([H])c7F)c([H])c6[H])c(C(=O)N([H])[H])c5N([H])[H])C4([H])[H])C([H])([H])C3([H])[H])c([H])c([H])c2C1([H])[H]

>  <smiles>  (70) 
[H]c1c([H])c([H])c2c(c1[H])C([H])([H])C([H])([H])C([H])([H])C2([H])N([H])C(=O)C1([H])N(C(=O)C([H])(N([H])C(=O)C([H])(N([H])C([H])([H])[H])C([H])([H])[H])C(C([H])([H])[H])(C([H])([H])[H])C([H])([H])[H])C([H])([H])c2c([H])c(OC([H])([H])C3([H])C(=O)N(c4c([H])c(F)c([H])c(F)c4N([H])C(=O)N4C([H])([H])C([H])([H])C([H])([H])C([H])(n5nc(-c6c([H])c([H])c(Oc7c([H])c([H])c(F)c([H])c7F)c([H])c6[H])c(C(=O)N([H])[H])c5N([H])[H])C4([H])[H])C([H])([H])C3([H])[H])c([H])c([H])c2C1([H])[H]

$$$$
70:0:0
     RDKit          3D

 93101  0  0  1  0  0  0  0  0999 V2000
  -28.5450  -21.1290   19.8620 C   0  0  0  0  0  0  0  0  0  0  0  0
  -28.3230  -23.6620   19.9320 C   0  0  0  0  0  0  0  0  0  0  0  0
  -28.8220  -22.4110   20.3570 N   0  0  0  0  0  0  0  0  0  0  0  0
  -27.6080  -20.9760   19.0730 O   0  0  0  0  0  0  0  0  0  0  0  0
  -27.7750  -23.7960   18.8320 O   0  0  0  0  0  0  0  0  0  0  0  0
  -29.4180  -22.4340   21.1690 H   0  0  0  0  0  0  0  0  0  0  0  0
  -28.7700  -18.4450   20.2440 C   0  0  0  0  0  3  0  0  0  0  0  0
  -30.9570  -18.2210   20.5930 C   0  0  0  0  0  3  0  0  0  0  0  0
  -29.8230  -17.4570   20.4530 C   0  0  0  0  0  0  0  0  0  0  0  0
  -29.2550  -19.7650   20.2390 C   0  0  0  0  0  0  0  0  0  0  0  0
  -31.6200  -20.6620   20.5330 C   0  0  0  0  0  1  0  0  0  0  0  0
  -30.6320  -19.5950   20.4700 N   0  0  0  0  0  0  0  0  0  0  0  0
  -30.5240  -14.8570   20.3660 C   0  0  0  0  0  0  0  0  0  0  0  0
  -30.3940  -12.5500   19.3770 C   0  0  0  0  0  2  0  0  0  0  0  0
  -29.4600  -12.5920   18.1450 C   0  0  0  0  0  2  0  0  0  0  0  0
  -27.9870  -12.4090   18.5630 C   0  0  0  0  0  2  0  0  0  0  0  0
  -27.5960  -13.2880   19.7800 C   0  0  0  0  0  3  0  0  0  0  0  0
  -28.6530  -13.2140   20.9030 C   0  0  0  0  0  2  0  0  0  0  0  0
  -29.9400  -13.6040   20.3150 N   0  0  0  0  0  0  0  0  0  0  0  0
  -31.7180  -14.9780   20.0720 O   0  0  0  0  0  0  0  0  0  0  0  0
  -29.6750  -15.9620   20.5290 N   0  0  0  0  0  0  0  0  0  0  0  0
  -28.7220  -15.6630   20.6630 H   0  0  0  0  0  0  0  0  0  0  0  0
  -25.2050  -13.8700   20.5030 C   0  0  0  0  0  0  0  0  0  0  0  0
  -24.1410  -13.0940   20.8720 C   0  0  0  0  0  0  0  0  0  0  0  0
  -24.6080  -11.7440   20.8460 C   0  0  0  0  0  0  0  0  0  0  0  0
  -26.2520  -12.9930   20.2690 N   0  0  0  0  0  0  0  0  0  0  0  0
  -25.9000  -11.7090   20.5380 N   0  0  0  0  0  0  0  0  0  0  0  0
  -23.8840  -10.4800   21.0350 C   0  0  0  0  0  0  0  0  0  0  0  0
  -24.3160   -9.5150   21.9710 C   0  0  0  0  0  3  0  0  0  0  0  0
  -23.5930   -8.3170   22.1510 C   0  0  0  0  0  3  0  0  0  0  0  0
  -22.4210   -8.0740   21.3930 C   0  0  0  0  0  0  0  0  0  0  0  0
  -22.0090   -9.0260   20.4460 C   0  0  0  0  0  3  0  0  0  0  0  0
  -22.7340  -10.2180   20.2650 C   0  0  0  0  0  3  0  0  0  0  0  0
  -21.6720   -6.9260   21.4790 O   0  0  0  0  0  0  0  0  0  0  0  0
  -21.6190   -6.1850   22.6320 C   0  0  0  0  0  0  0  0  0  0  0  0
  -21.1770   -6.7370   23.8540 C   0  0  0  0  0  3  0  0  0  0  0  0
  -21.0730   -5.9220   24.9980 C   0  0  0  0  0  3  0  0  0  0  0  0
  -21.4020   -4.5550   24.9220 C   0  0  0  0  0  0  0  0  0  0  0  0
  -21.8370   -4.0030   23.7050 C   0  0  0  0  0  3  0  0  0  0  0  0
  -21.9430   -4.8150   22.5630 C   0  0  0  0  0  0  0  0  0  0  0  0
  -22.3420   -4.2730   21.3880 F   0  0  0  0  0  0  0  0  0  0  0  0
  -21.2960   -3.7710   26.0200 F   0  0  0  0  0  0  0  0  0  0  0  0
  -22.7400  -13.5680   21.1350 C   0  0  0  0  0  0  0  0  0  0  0  0
  -22.0060  -12.8710   21.9950 N   0  0  0  0  0  0  0  0  0  0  0  0
  -22.3020  -14.5900   20.6090 O   0  0  0  0  0  0  0  0  0  0  0  0
  -22.3720  -12.0500   22.4500 H   0  0  0  0  0  0  0  0  0  0  0  0
  -21.0630  -13.1700   22.2050 H   0  0  0  0  0  0  0  0  0  0  0  0
  -25.3610  -15.2410   20.3220 N   0  0  0  0  0  0  0  0  0  0  0  0
  -24.5820  -15.8840   20.4190 H   0  0  0  0  0  0  0  0  0  0  0  0
  -26.1880  -15.6830   19.9440 H   0  0  0  0  0  0  0  0  0  0  0  0
  -27.4020  -24.9240   21.9980 C   0  0  0  0  0  1  0  0  0  0  0  0
  -28.3980  -25.0110   20.8290 C   0  0  0  0  0  3  0  0  0  0  0  0
  -28.3520  -26.3900   20.1710 O   0  0  0  0  0  0  0  0  0  0  0  0
  -24.6010  -31.8780   23.2310 C   0  0  0  0  0  0  0  0  0  0  0  0
  -27.2290  -27.2600   20.2000 C   0  0  0  0  0  0  0  0  0  0  0  0
  -23.4090  -30.4760   21.5850 C   0  0  0  0  0  3  0  0  0  0  0  0
  -24.8680  -28.9130   20.1690 C   0  0  0  0  0  0  0  0  0  0  0  0
  -25.9530  -30.7820   21.4150 C   0  0  0  0  0  2  0  0  0  0  0  0
  -26.0370  -29.3950   20.7720 C   0  0  0  0  0  0  0  0  0  0  0  0
  -27.2210  -28.5840   20.7670 C   0  0  0  0  0  3  0  0  0  0  0  0
  -26.0350  -26.8460   19.5740 C   0  0  0  0  0  3  0  0  0  0  0  0
  -24.8740  -27.6470   19.5580 C   0  0  0  0  0  3  0  0  0  0  0  0
  -23.6320  -29.7940   20.2090 C   0  0  0  0  0  2  0  0  0  0  0  0
  -24.6740  -31.0660   22.1340 N   0  0  0  0  0  0  0  0  0  0  0  0
  -23.5150  -32.1550   23.7620 O   0  0  0  0  0  0  0  0  0  0  0  0
  -22.7390  -29.4650   22.5470 C   0  0  0  0  0  0  0  0  0  0  0  0
  -21.4130  -29.2850   22.4130 N   0  0  0  0  0  0  0  0  0  0  0  0
  -23.4110  -28.8440   23.3730 O   0  0  0  0  0  0  0  0  0  0  0  0
  -20.9300  -29.8320   21.7130 H   0  0  0  0  0  0  0  0  0  0  0  0
  -18.0370  -28.0730   22.8960 C   0  0  0  0  0  0  0  0  0  0  0  0
  -20.5930  -28.3480   23.1810 C   0  0  0  0  0  3  0  0  0  0  0  0
  -20.7060  -26.9170   22.6080 C   0  0  0  0  0  2  0  0  0  0  0  0
  -19.6110  -26.5860   21.5890 C   0  0  0  0  0  2  0  0  0  0  0  0
  -18.2250  -26.7250   22.2240 C   0  0  0  0  0  2  0  0  0  0  0  0
  -19.1490  -28.8420   23.3320 C   0  0  0  0  0  0  0  0  0  0  0  0
  -18.9180  -30.1040   23.9230 C   0  0  0  0  0  3  0  0  0  0  0  0
  -17.6100  -30.5970   24.0850 C   0  0  0  0  0  3  0  0  0  0  0  0
  -16.5130  -29.8250   23.6650 C   0  0  0  0  0  3  0  0  0  0  0  0
  -16.7260  -28.5660   23.0760 C   0  0  0  0  0  3  0  0  0  0  0  0
  -25.8790  -32.5150   23.8600 C   0  0  0  0  0  3  0  0  0  0  0  0
  -25.5680  -33.9170   24.1800 N   0  0  0  0  0  0  0  0  0  0  0  0
  -25.9090  -34.9680   23.4220 C   0  0  0  0  0  0  0  0  0  0  0  0
  -26.5890  -34.8580   22.3980 O   0  0  0  0  0  0  0  0  0  0  0  0
  -24.9600  -34.0750   24.9710 H   0  0  0  0  0  0  0  0  0  0  0  0
  -24.1940  -36.7700   23.0420 C   0  0  0  0  0  1  0  0  0  0  0  0
  -25.4230  -36.3600   23.8700 C   0  0  0  0  0  3  0  0  0  0  0  0
  -27.5500  -37.2390   24.7280 C   0  0  0  0  0  1  0  0  0  0  0  0
  -26.4620  -37.4090   23.7680 N   0  0  0  0  0  0  0  0  0  0  0  0
  -26.0590  -38.3310   23.9050 H   0  0  0  0  0  0  0  0  0  0  0  0
  -26.3820  -31.7520   25.1490 C   0  0  1  0  0  0  0  0  0  0  0  0
  -25.2790  -31.5280   26.2100 C   0  0  0  0  0  1  0  0  0  0  0  0
  -26.9610  -30.3660   24.7770 C   0  0  0  0  0  1  0  0  0  0  0  0
  -27.5300  -32.5460   25.8120 C   0  0  0  0  0  1  0  0  0  0  0  0
  1 10  1  0
  1  3  1  0
  2  3  1  0
  2 52  1  0
  3  6  1  0
  4  1  2  0
  5  2  2  0
  7  9  1  0
  9 21  1  0
  9  8  2  0
 10  7  2  0
 10 12  1  0
 12 11  1  0
 12  8  1  0
 13 21  1  0
 14 19  1  0
 15 16  1  0
 15 14  1  0
 17 16  1  0
 17 26  1  0
 17 18  1  0
 19 13  1  0
 19 18  1  0
 20 13  2  0
 21 22  1  0
 23 24  2  0
 24 43  1  0
 25 24  1  0
 25 28  1  0
 26 23  1  0
 26 27  1  0
 27 25  2  0
 28 29  1  0
 29 30  2  0
 31 34  1  0
 31 30  1  0
 32 31  2  0
 33 32  1  0
 33 28  2  0
 34 35  1  0
 35 36  1  0
 36 37  2  0
 38 37  1  0
 38 42  1  0
 39 38  2  0
 40 35  2  0
 40 39  1  0
 41 40  1  0
 43 44  1  0
 44 47  1  0
 44 46  1  0
 45 43  2  0
 48 49  1  0
 48 23  1  0
 50 48  1  0
 52 51  1  0
 53 55  1  0
 53 52  1  0
 54 65  2  0
 55 60  1  0
 56 64  1  0
 56 66  1  0
 57 63  1  0
 57 59  1  0
 58 64  1  0
 59 58  1  0
 60 59  2  0
 61 55  2  0
 62 61  1  0
 62 57  2  0
 63 56  1  0
 64 54  1  0
 66 68  2  0
 67 66  1  0
 69 67  1  0
 70 79  2  0
 70 75  1  0
 71 67  1  0
 71 75  1  0
 72 71  1  0
 73 74  1  0
 73 72  1  0
 74 70  1  0
 75 76  2  0
 76 77  1  0
 78 77  2  0
 79 78  1  0
 80 54  1  0
 80 81  1  0
 80 90  1  0
 81 84  1  0
 82 86  1  0
 82 81  1  0
 83 82  2  0
 86 85  1  0
 88 86  1  0
 88 89  1  0
 88 87  1  0
 90 93  1  1
 90 91  1  0
 92 90  1  0
M  ISO  4  13 100  21 100  52 101  53 101
M  END
>  <TORSDO>  (71) 
F 18

>  <SCORE>  (71) 
-14.927

>  <name>  (71) 
70

>  <ligand_id>  (71) 
70

>  <original_smiles>  (71) 
[H]c1c([H])c([H])c2c(c1[H])C([H])([H])C([H])([H])C([H])([H])C2([H])N([H])C(=O)C1([H])N(C(=O)C([H])(N([H])C(=O)C([H])(N([H])C([H])([H])[H])C([H])([H])[H])C(C([H])([H])[H])(C([H])([H])[H])C([H])([H])[H])C([H])([H])c2c([H])c(OC([H])(C(=O)N([H])C(=O)c3c([H])c(N([H])C(=O)N4C([H])([H])C([H])([H])C([H])([H])C([H])(n5nc(-c6c([H])c([H])c(Oc7c([H])c([H])c(F)c([H])c7F)c([H])c6[H])c(C(=O)N([H])[H])c5N([H])[H])C4([H])[H])c([H])n3C([H])([H])[H])C([H])([H])[H])c([H])c([H])c2C1([H])[H]

>  <smiles>  (71) 
[H]c1c([H])c([H])c2c(c1[H])C([H])([H])C([H])([H])C([H])([H])C2([H])N([H])C(=O)C1([H])N(C(=O)C([H])(N([H])C(=O)C([H])(N([H])C([H])([H])[H])C([H])([H])[H])C(C([H])([H])[H])(C([H])([H])[H])C([H])([H])[H])C([H])([H])c2c([H])c(OC([H])(C(=O)N([H])C(=O)c3c([H])c(N([H])C(=O)N4C([H])([H])C([H])([H])C([H])([H])C([H])(n5nc(-c6c([H])c([H])c(Oc7c([H])c([H])c(F)c([H])c7F)c([H])c6[H])c(C(=O)N([H])[H])c5N([H])[H])C4([H])[H])c([H])n3C([H])([H])[H])C([H])([H])[H])c([H])c([H])c2C1([H])[H]

$$$$
71:0:0
     RDKit          3D

 94102  0  0  1  0  0  0  0  0999 V2000
  -27.6660  -19.5260   20.2070 C   0  0  0  0  0  3  0  0  0  0  0  0
  -28.0600  -17.1300   20.0560 C   0  0  0  0  0  3  0  0  0  0  0  0
  -29.8950  -18.6040   20.6400 C   0  0  0  0  0  0  0  0  0  0  0  0
  -29.0260  -19.7790   20.4970 C   0  0  0  0  0  0  0  0  0  0  0  0
  -29.4210  -17.2350   20.3990 C   0  0  0  0  0  0  0  0  0  0  0  0
  -27.1930  -18.2290   19.9850 C   0  0  0  0  0  0  0  0  0  0  0  0
  -31.3420  -18.8460   21.0190 C   0  0  0  0  0  1  0  0  0  0  0  0
  -25.8940  -18.0440   19.6410 F   0  0  0  0  0  0  0  0  0  0  0  0
  -30.7090  -14.9180   20.8300 C   0  0  0  0  0  0  0  0  0  0  0  0
  -30.6200  -12.5420   20.0490 C   0  0  0  0  0  2  0  0  0  0  0  0
  -29.8000  -12.3560   18.7550 C   0  0  0  0  0  2  0  0  0  0  0  0
  -28.3020  -12.2000   19.0760 C   0  0  0  0  0  2  0  0  0  0  0  0
  -27.7800  -13.2230   20.1210 C   0  0  0  0  0  3  0  0  0  0  0  0
  -28.7370  -13.3700   21.3230 C   0  0  0  0  0  2  0  0  0  0  0  0
  -30.0580  -13.7020   20.7750 N   0  0  0  0  0  0  0  0  0  0  0  0
  -31.9360  -14.9120   20.9650 O   0  0  0  0  0  0  0  0  0  0  0  0
  -30.1900  -15.9890   20.0740 N   0  0  0  0  0  0  0  0  0  0  0  0
  -25.3340  -13.8050   20.6650 C   0  0  0  0  0  0  0  0  0  0  0  0
  -24.2470  -13.0290   20.9480 C   0  0  0  0  0  0  0  0  0  0  0  0
  -24.7320  -11.6880   20.9990 C   0  0  0  0  0  0  0  0  0  0  0  0
  -26.4080  -12.9380   20.5330 N   0  0  0  0  0  0  0  0  0  0  0  0
  -26.0450  -11.6600   20.8110 N   0  0  0  0  0  0  0  0  0  0  0  0
  -24.0070  -10.4250   21.1550 C   0  0  0  0  0  0  0  0  0  0  0  0
  -24.3800   -9.4750   22.1300 C   0  0  0  0  0  3  0  0  0  0  0  0
  -23.6530   -8.2750   22.2710 C   0  0  0  0  0  3  0  0  0  0  0  0
  -22.5390   -8.0180   21.4390 C   0  0  0  0  0  0  0  0  0  0  0  0
  -22.1860   -8.9580   20.4540 C   0  0  0  0  0  3  0  0  0  0  0  0
  -22.9150  -10.1490   20.3110 C   0  0  0  0  0  3  0  0  0  0  0  0
  -21.7840   -6.8710   21.4930 O   0  0  0  0  0  0  0  0  0  0  0  0
  -21.6770   -6.1360   22.6450 C   0  0  0  0  0  0  0  0  0  0  0  0
  -21.1770   -6.6950   23.8410 C   0  0  0  0  0  3  0  0  0  0  0  0
  -21.0200   -5.8850   24.9820 C   0  0  0  0  0  3  0  0  0  0  0  0
  -21.3510   -4.5170   24.9280 C   0  0  0  0  0  0  0  0  0  0  0  0
  -21.8420   -3.9580   23.7360 C   0  0  0  0  0  3  0  0  0  0  0  0
  -22.0030   -4.7670   22.5960 C   0  0  0  0  0  0  0  0  0  0  0  0
  -22.4600   -4.2180   21.4440 F   0  0  0  0  0  0  0  0  0  0  0  0
  -21.1890   -3.7360   26.0220 F   0  0  0  0  0  0  0  0  0  0  0  0
  -22.8280  -13.5010   21.0700 C   0  0  0  0  0  0  0  0  0  0  0  0
  -22.0350  -12.8360   21.9040 N   0  0  0  0  0  0  0  0  0  0  0  0
  -22.4260  -14.4940   20.4640 O   0  0  0  0  0  0  0  0  0  0  0  0
  -22.3710  -12.0370   22.4220 H   0  0  0  0  0  0  0  0  0  0  0  0
  -21.0790  -13.1330   22.0350 H   0  0  0  0  0  0  0  0  0  0  0  0
  -25.4740  -15.1710   20.4890 N   0  0  0  0  0  0  0  0  0  0  0  0
  -24.6810  -15.7990   20.5520 H   0  0  0  0  0  0  0  0  0  0  0  0
  -26.3420  -15.6590   20.3490 H   0  0  0  0  0  0  0  0  0  0  0  0
  -31.3460  -16.8810   18.0780 C   0  0  0  0  0  2  0  0  0  0  0  0
  -30.5940  -15.9720   18.7270 C   0  0  0  0  0  3  0  0  0  0  0  0
  -28.8690  -22.3350   20.0710 C   0  0  0  0  0  0  0  0  0  0  0  0
  -29.4140  -21.2060   20.6710 N   0  0  0  0  0  0  0  0  0  0  0  0
  -28.1380  -22.2100   19.0850 O   0  0  0  0  0  0  0  0  0  0  0  0
  -30.1350  -21.3850   21.3570 H   0  0  0  0  0  0  0  0  0  0  0  0
  -29.1710  -23.8350   20.5380 C   0  0  0  0  0  3  0  0  0  0  0  0
  -28.1780  -24.9950   20.0160 C   0  0  0  0  0  3  0  0  0  0  0  0
  -28.3620  -26.4500   20.3330 O   0  0  0  0  0  0  0  0  0  0  0  0
  -24.6020  -31.9260   23.2460 C   0  0  0  0  0  0  0  0  0  0  0  0
  -27.2470  -27.3160   20.2550 C   0  0  0  0  0  0  0  0  0  0  0  0
  -23.4140  -30.5060   21.6160 C   0  0  0  0  0  3  0  0  0  0  0  0
  -24.8790  -28.9440   20.2110 C   0  0  0  0  0  0  0  0  0  0  0  0
  -25.9560  -30.8170   21.4520 C   0  0  0  0  0  2  0  0  0  0  0  0
  -26.0430  -29.4320   20.8180 C   0  0  0  0  0  0  0  0  0  0  0  0
  -27.2260  -28.6270   20.8340 C   0  0  0  0  0  3  0  0  0  0  0  0
  -26.0570  -26.8950   19.6140 C   0  0  0  0  0  3  0  0  0  0  0  0
  -24.8900  -27.6870   19.5950 C   0  0  0  0  0  3  0  0  0  0  0  0
  -23.6380  -29.8140   20.2430 C   0  0  0  0  0  2  0  0  0  0  0  0
  -24.6760  -31.1000   22.1620 N   0  0  0  0  0  0  0  0  0  0  0  0
  -23.5140  -32.2080   23.7680 O   0  0  0  0  0  0  0  0  0  0  0  0
  -22.7480  -29.4980   22.5840 C   0  0  0  0  0  0  0  0  0  0  0  0
  -21.4220  -29.3250   22.4570 N   0  0  0  0  0  0  0  0  0  0  0  0
  -23.4230  -28.8770   23.4090 O   0  0  0  0  0  0  0  0  0  0  0  0
  -20.9340  -29.8770   21.7640 H   0  0  0  0  0  0  0  0  0  0  0  0
  -18.0390  -28.1550   22.9730 C   0  0  0  0  0  0  0  0  0  0  0  0
  -20.5980  -28.3990   23.2370 C   0  0  0  0  0  3  0  0  0  0  0  0
  -20.6910  -26.9640   22.6700 C   0  0  0  0  0  2  0  0  0  0  0  0
  -19.5850  -26.6430   21.6590 C   0  0  0  0  0  2  0  0  0  0  0  0
  -18.2060  -26.8010   22.3040 C   0  0  0  0  0  2  0  0  0  0  0  0
  -19.1630  -28.9120   23.3970 C   0  0  0  0  0  0  0  0  0  0  0  0
  -18.9520  -30.1820   23.9790 C   0  0  0  0  0  3  0  0  0  0  0  0
  -17.6500  -30.6910   24.1450 C   0  0  0  0  0  3  0  0  0  0  0  0
  -16.5400  -29.9310   23.7370 C   0  0  0  0  0  3  0  0  0  0  0  0
  -16.7360  -28.6640   23.1580 C   0  0  0  0  0  3  0  0  0  0  0  0
  -25.8810  -32.5690   23.8690 C   0  0  0  0  0  3  0  0  0  0  0  0
  -26.3940  -31.8140   25.1570 C   0  0  1  0  0  0  0  0  0  0  0  0
  -25.2940  -31.5840   26.2210 C   0  0  0  0  0  1  0  0  0  0  0  0
  -26.9830  -30.4330   24.7830 C   0  0  0  0  0  1  0  0  0  0  0  0
  -27.5360  -32.6200   25.8180 C   0  0  0  0  0  1  0  0  0  0  0  0
  -25.5620  -33.9690   24.1850 N   0  0  0  0  0  0  0  0  0  0  0  0
  -25.9020  -35.0190   23.4260 C   0  0  0  0  0  0  0  0  0  0  0  0
  -26.5860  -34.9100   22.4070 O   0  0  0  0  0  0  0  0  0  0  0  0
  -24.9570  -34.1280   24.9760 H   0  0  0  0  0  0  0  0  0  0  0  0
  -24.1820  -36.8130   23.0310 C   0  0  0  0  0  1  0  0  0  0  0  0
  -25.4040  -36.4090   23.8710 C   0  0  0  0  0  3  0  0  0  0  0  0
  -27.5200  -37.2970   24.7470 C   0  0  0  0  0  1  0  0  0  0  0  0
  -26.4380  -37.4640   23.7800 N   0  0  0  0  0  0  0  0  0  0  0  0
  -26.0260  -38.3830   23.9170 H   0  0  0  0  0  0  0  0  0  0  0  0
  1  4  1  0
  2  5  2  0
  3  7  1  0
  4  3  2  0
  4 49  1  0
  5  3  1  0
  6  2  1  0
  6  1  2  0
  8  6  1  0
  9 16  2  0
 10 15  1  0
 11 12  1  0
 11 10  1  0
 13 12  1  0
 13 21  1  0
 13 14  1  0
 15  9  1  0
 15 14  1  0
 17  5  1  0
 17  9  1  0
 18 19  2  0
 19 20  1  0
 19 38  1  0
 20 23  1  0
 21 18  1  0
 21 22  1  0
 22 20  2  0
 23 24  1  0
 24 25  2  0
 26 29  1  0
 26 25  1  0
 27 26  2  0
 28 27  1  0
 28 23  2  0
 29 30  1  0
 30 31  1  0
 31 32  2  0
 33 32  1  0
 33 37  1  0
 34 33  2  0
 35 30  2  0
 35 34  1  0
 36 35  1  0
 38 39  1  0
 39 42  1  0
 39 41  1  0
 40 38  2  0
 43 44  1  0
 43 18  1  0
 45 43  1  0
 46 47  2  0
 47 17  1  0
 48 52  1  0
 48 49  1  0
 49 51  1  0
 50 48  2  0
 53 54  1  0
 53 52  2  0
 55 66  2  0
 56 54  1  0
 56 61  1  0
 57 65  1  0
 57 67  1  0
 58 64  1  0
 58 60  1  0
 59 65  1  0
 60 61  2  0
 60 59  1  0
 62 56  2  0
 63 62  1  0
 63 58  2  0
 64 57  1  0
 65 55  1  0
 67 69  2  0
 68 67  1  0
 70 68  1  0
 71 80  2  0
 71 76  1  0
 72 68  1  0
 72 76  1  0
 73 72  1  0
 74 75  1  0
 74 73  1  0
 75 71  1  0
 76 77  2  0
 77 78  1  0
 79 78  2  0
 80 79  1  0
 81 55  1  0
 81 86  1  0
 81 82  1  0
 82 85  1  1
 82 83  1  0
 84 82  1  0
 86 89  1  0
 87 91  1  0
 87 86  1  0
 88 87  2  0
 91 90  1  0
 93 91  1  0
 93 94  1  0
 93 92  1  0
M  ISO  4   9 100  17 100  53 101  54 101
M  END
>  <TORSDO>  (72) 
F 20

>  <SCORE>  (72) 
-13.862

>  <name>  (72) 
71

>  <ligand_id>  (72) 
71

>  <original_smiles>  (72) 
[H]C([H])=C([H])N(C(=O)N1C([H])([H])C([H])([H])C([H])([H])C([H])(n2nc(-c3c([H])c([H])c(Oc4c([H])c([H])c(F)c([H])c4F)c([H])c3[H])c(C(=O)N([H])[H])c2N([H])[H])C1([H])[H])c1c([H])c(F)c([H])c(N([H])C(=O)C([H])([H])C([H])([H])Oc2c([H])c([H])c3c(c2[H])C([H])([H])N(C(=O)C([H])(N([H])C(=O)C([H])(N([H])C([H])([H])[H])C([H])([H])[H])C(C([H])([H])[H])(C([H])([H])[H])C([H])([H])[H])C([H])(C(=O)N([H])C2([H])c4c([H])c([H])c([H])c([H])c4C([H])([H])C([H])([H])C2([H])[H])C3([H])[H])c1C([H])([H])[H]

>  <smiles>  (72) 
[H]C([H])=C([H])N(C(=O)N1C([H])([H])C([H])([H])C([H])([H])C([H])(n2nc(-c3c([H])c([H])c(Oc4c([H])c([H])c(F)c([H])c4F)c([H])c3[H])c(C(=O)N([H])[H])c2N([H])[H])C1([H])[H])c1c([H])c(F)c([H])c(N([H])C(=O)C([H])([H])C([H])([H])Oc2c([H])c([H])c3c(c2[H])C([H])([H])N(C(=O)C([H])(N([H])C(=O)C([H])(N([H])C([H])([H])[H])C([H])([H])[H])C(C([H])([H])[H])(C([H])([H])[H])C([H])([H])[H])C([H])(C(=O)N([H])C2([H])c4c([H])c([H])c([H])c([H])c4C([H])([H])C([H])([H])C2([H])[H])C3([H])[H])c1C([H])([H])[H]

$$$$
72:0:0
     RDKit          3D

 95103  0  0  1  0  0  0  0  0999 V2000
  -30.2360  -21.7200   20.8670 C   0  0  0  0  0  0  0  0  0  0  0  0
  -31.4470  -22.0390   22.0040 S   0  0  0  0  0  0  0  0  0  0  0  0
  -31.2430  -19.3770   20.4220 C   0  0  0  0  0  3  0  0  0  0  0  0
  -31.2250  -17.9480   20.3750 C   0  0  0  0  0  3  0  0  0  0  0  0
  -28.8360  -18.0310   20.4360 C   0  0  0  0  0  3  0  0  0  0  0  0
  -30.0780  -20.2070   20.5350 C   0  0  0  0  0  0  0  0  0  0  0  0
  -30.0110  -17.2210   20.4140 C   0  0  0  0  0  0  0  0  0  0  0  0
  -28.8510  -19.4680   20.4970 C   0  0  0  0  0  0  0  0  0  0  0  0
  -30.6780  -14.7030   20.0260 C   0  0  0  0  0  0  0  0  0  0  0  0
  -30.3950  -12.4850   18.9200 C   0  0  0  0  0  2  0  0  0  0  0  0
  -29.3760  -12.6490   17.7690 C   0  0  0  0  0  2  0  0  0  0  0  0
  -27.9290  -12.4980   18.2830 C   0  0  0  0  0  2  0  0  0  0  0  0
  -27.6610  -13.3300   19.5640 C   0  0  0  0  0  3  0  0  0  0  0  0
  -28.7830  -13.1280   20.6060 C   0  0  0  0  0  2  0  0  0  0  0  0
  -30.0560  -13.4800   19.9590 N   0  0  0  0  0  0  0  0  0  0  0  0
  -31.8200  -14.8560   19.5820 O   0  0  0  0  0  0  0  0  0  0  0  0
  -29.8870  -15.7500   20.4420 N   0  0  0  0  0  0  0  0  0  0  0  0
  -28.9940  -15.4220   20.7740 H   0  0  0  0  0  0  0  0  0  0  0  0
  -25.3290  -13.9510   20.4460 C   0  0  0  0  0  0  0  0  0  0  0  0
  -24.2720  -13.1870   20.8620 C   0  0  0  0  0  0  0  0  0  0  0  0
  -24.7050  -11.8290   20.7630 C   0  0  0  0  0  0  0  0  0  0  0  0
  -26.3380  -13.0590   20.1220 N   0  0  0  0  0  0  0  0  0  0  0  0
  -25.9730  -11.7760   20.3730 N   0  0  0  0  0  0  0  0  0  0  0  0
  -23.9670  -10.5740   20.9620 C   0  0  0  0  0  0  0  0  0  0  0  0
  -24.4220   -9.5830   21.8580 C   0  0  0  0  0  3  0  0  0  0  0  0
  -23.6850   -8.3930   22.0460 C   0  0  0  0  0  3  0  0  0  0  0  0
  -22.4780   -8.1870   21.3360 C   0  0  0  0  0  0  0  0  0  0  0  0
  -22.0420   -9.1670   20.4270 C   0  0  0  0  0  3  0  0  0  0  0  0
  -22.7780  -10.3480   20.2390 C   0  0  0  0  0  3  0  0  0  0  0  0
  -21.7100   -7.0520   21.4350 O   0  0  0  0  0  0  0  0  0  0  0  0
  -21.6780   -6.3030   22.5840 C   0  0  0  0  0  0  0  0  0  0  0  0
  -21.2690   -6.8500   23.8190 C   0  0  0  0  0  3  0  0  0  0  0  0
  -21.1850   -6.0270   24.9600 C   0  0  0  0  0  3  0  0  0  0  0  0
  -21.4990   -4.6570   24.8670 C   0  0  0  0  0  0  0  0  0  0  0  0
  -21.9000   -4.1100   23.6350 C   0  0  0  0  0  3  0  0  0  0  0  0
  -21.9860   -4.9300   22.4960 C   0  0  0  0  0  0  0  0  0  0  0  0
  -22.3530   -4.3920   21.3080 F   0  0  0  0  0  0  0  0  0  0  0  0
  -21.4100   -3.8650   25.9600 F   0  0  0  0  0  0  0  0  0  0  0  0
  -22.9030  -13.6790   21.2350 C   0  0  0  0  0  0  0  0  0  0  0  0
  -22.2200  -12.9760   22.1310 N   0  0  0  0  0  0  0  0  0  0  0  0
  -22.4510  -14.7240   20.7660 O   0  0  0  0  0  0  0  0  0  0  0  0
  -22.5980  -12.1300   22.5320 H   0  0  0  0  0  0  0  0  0  0  0  0
  -21.3040  -13.2880   22.4200 H   0  0  0  0  0  0  0  0  0  0  0  0
  -25.5070  -15.3230   20.2950 N   0  0  0  0  0  0  0  0  0  0  0  0
  -24.7550  -15.9820   20.4590 H   0  0  0  0  0  0  0  0  0  0  0  0
  -26.3190  -15.7510   19.8670 H   0  0  0  0  0  0  0  0  0  0  0  0
  -27.6140  -20.1190   20.5660 N   0  0  0  0  0  0  0  0  0  0  0  0
  -26.7940  -19.5340   20.6960 H   0  0  0  0  0  0  0  0  0  0  0  0
  -27.5510  -20.9530   21.1430 H   0  0  0  0  0  0  0  0  0  0  0  0
  -29.4450  -24.0850   20.3540 C   0  0  0  0  0  0  0  0  0  0  0  0
  -29.3970  -22.6880   20.3020 N   0  0  0  0  0  0  0  0  0  0  0  0
  -30.4100  -24.7190   20.7960 O   0  0  0  0  0  0  0  0  0  0  0  0
  -28.6200  -22.3140   19.7790 H   0  0  0  0  0  0  0  0  0  0  0  0
  -28.2570  -24.9830   19.8210 C   0  0  0  0  0  2  0  0  0  0  0  0
  -28.4220  -26.4560   20.0240 O   0  0  0  0  0  0  0  0  0  0  0  0
  -24.5260  -31.7150   23.0830 C   0  0  0  0  0  0  0  0  0  0  0  0
  -27.2840  -27.2800   19.9690 C   0  0  0  0  0  0  0  0  0  0  0  0
  -23.3750  -30.3250   21.3990 C   0  0  0  0  0  3  0  0  0  0  0  0
  -24.8780  -28.8390   19.9580 C   0  0  0  0  0  0  0  0  0  0  0  0
  -25.9080  -30.7060   21.2530 C   0  0  0  0  0  2  0  0  0  0  0  0
  -26.0290  -29.3430   20.5780 C   0  0  0  0  0  0  0  0  0  0  0  0
  -27.2340  -28.5780   20.5710 C   0  0  0  0  0  3  0  0  0  0  0  0
  -26.1080  -26.8310   19.3240 C   0  0  0  0  0  3  0  0  0  0  0  0
  -24.9210  -27.5890   19.3210 C   0  0  0  0  0  3  0  0  0  0  0  0
  -23.6210  -29.6830   20.0080 C   0  0  0  0  0  2  0  0  0  0  0  0
  -24.6200  -30.9330   21.9680 N   0  0  0  0  0  0  0  0  0  0  0  0
  -23.4300  -31.9550   23.6110 O   0  0  0  0  0  0  0  0  0  0  0  0
  -22.7250  -29.2720   22.3300 C   0  0  0  0  0  0  0  0  0  0  0  0
  -21.3990  -29.0950   22.2090 N   0  0  0  0  0  0  0  0  0  0  0  0
  -23.4140  -28.6220   23.1200 O   0  0  0  0  0  0  0  0  0  0  0  0
  -20.9030  -29.6730   21.5450 H   0  0  0  0  0  0  0  0  0  0  0  0
  -18.0220  -27.9120   22.7450 C   0  0  0  0  0  0  0  0  0  0  0  0
  -20.5900  -28.1290   22.9540 C   0  0  0  0  0  3  0  0  0  0  0  0
  -20.6580  -26.7270   22.3050 C   0  0  0  0  0  2  0  0  0  0  0  0
  -19.5230  -26.4680   21.3080 C   0  0  0  0  0  2  0  0  0  0  0  0
  -18.1620  -26.5970   21.9970 C   0  0  0  0  0  2  0  0  0  0  0  0
  -19.1620  -28.6390   23.1800 C   0  0  0  0  0  0  0  0  0  0  0  0
  -18.9750  -29.8720   23.8410 C   0  0  0  0  0  3  0  0  0  0  0  0
  -17.6820  -30.3790   24.0700 C   0  0  0  0  0  3  0  0  0  0  0  0
  -16.5570  -29.6490   23.6500 C   0  0  0  0  0  3  0  0  0  0  0  0
  -16.7270  -28.4160   22.9930 C   0  0  0  0  0  3  0  0  0  0  0  0
  -25.7860  -32.3640   23.7340 C   0  0  0  0  0  3  0  0  0  0  0  0
  -26.3060  -31.5770   24.9990 C   0  0  1  0  0  0  0  0  0  0  0  0
  -25.2070  -31.2850   26.0470 C   0  0  0  0  0  1  0  0  0  0  0  0
  -26.9300  -30.2240   24.5820 C   0  0  0  0  0  1  0  0  0  0  0  0
  -27.4290  -32.3840   25.6920 C   0  0  0  0  0  1  0  0  0  0  0  0
  -25.4380  -33.7460   24.0940 N   0  0  0  0  0  0  0  0  0  0  0  0
  -25.7470  -34.8250   23.3630 C   0  0  0  0  0  0  0  0  0  0  0  0
  -26.4250  -34.7630   22.3340 O   0  0  0  0  0  0  0  0  0  0  0  0
  -24.8350  -33.8660   24.8950 H   0  0  0  0  0  0  0  0  0  0  0  0
  -23.9770  -36.5830   23.0390 C   0  0  0  0  0  1  0  0  0  0  0  0
  -25.2220  -36.1900   23.8510 C   0  0  0  0  0  3  0  0  0  0  0  0
  -27.3230  -37.1130   24.7240 C   0  0  0  0  0  1  0  0  0  0  0  0
  -26.2290  -37.2710   23.7710 N   0  0  0  0  0  0  0  0  0  0  0  0
  -25.7980  -38.1780   23.9300 H   0  0  0  0  0  0  0  0  0  0  0  0
  1  2  2  0
  3  6  1  0
  4  7  1  0
  4  3  2  0
  5  8  1  0
  6  1  1  0
  7  5  2  0
  7 17  1  0
  8  6  2  0
  8 47  1  0
  9 17  1  0
 10 15  1  0
 11 12  1  0
 11 10  1  0
 13 12  1  0
 13 22  1  0
 13 14  1  0
 15  9  1  0
 15 14  1  0
 16  9  2  0
 17 18  1  0
 19 20  2  0
 20 39  1  0
 21 20  1  0
 21 24  1  0
 22 23  1  0
 22 19  1  0
 23 21  2  0
 24 25  1  0
 25 26  2  0
 27 30  1  0
 27 26  1  0
 28 27  2  0
 29 28  1  0
 29 24  2  0
 30 31  1  0
 31 32  1  0
 32 33  2  0
 34 33  1  0
 34 38  1  0
 35 34  2  0
 36 31  2  0
 36 35  1  0
 37 36  1  0
 39 40  1  0
 40 43  1  0
 40 42  1  0
 41 39  2  0
 44 19  1  0
 44 45  1  0
 46 44  1  0
 47 48  1  0
 47 49  1  0
 50 52  2  0
 51 50  1  0
 51  1  1  0
 53 51  1  0
 54 55  1  0
 54 50  1  0
 56 67  2  0
 57 55  1  0
 57 62  1  0
 58 66  1  0
 58 68  1  0
 59 65  1  0
 59 61  1  0
 60 66  1  0
 61 60  1  0
 62 61  2  0
 63 57  2  0
 64 63  1  0
 64 59  2  0
 65 58  1  0
 66 56  1  0
 68 70  2  0
 69 68  1  0
 71 69  1  0
 72 81  2  0
 72 77  1  0
 73 69  1  0
 73 77  1  0
 74 73  1  0
 75 76  1  0
 75 74  1  0
 76 72  1  0
 77 78  2  0
 78 79  1  0
 80 79  2  0
 81 80  1  0
 82 56  1  0
 82 87  1  0
 82 83  1  0
 83 86  1  1
 83 84  1  0
 85 83  1  0
 87 90  1  0
 88 92  1  0
 88 87  1  0
 89 88  2  0
 92 91  1  0
 94 92  1  0
 94 95  1  0
 94 93  1  0
M  ISO  4   9 100  17 100  54 101  55 101
M  END
>  <TORSDO>  (73) 
F 20

>  <SCORE>  (73) 
-13.901

>  <name>  (73) 
72

>  <ligand_id>  (73) 
72

>  <original_smiles>  (73) 
[H]c1c([H])c([H])c2c(c1[H])C([H])([H])C([H])([H])C([H])([H])C2([H])N([H])C(=O)C1([H])N(C(=O)C([H])(N([H])C(=O)C([H])(N([H])C([H])([H])[H])C([H])([H])[H])C(C([H])([H])[H])(C([H])([H])[H])C([H])([H])[H])C([H])([H])c2c([H])c(OC([H])([H])C(=O)N([H])C(=S)c3c([H])c([H])c(N([H])C(=O)N4C([H])([H])C([H])([H])C([H])([H])C([H])(n5nc(-c6c([H])c([H])c(Oc7c([H])c([H])c(F)c([H])c7F)c([H])c6[H])c(C(=O)N([H])[H])c5N([H])[H])C4([H])[H])c([H])c3N([H])[H])c([H])c([H])c2C1([H])[H]

>  <smiles>  (73) 
[H]c1c([H])c([H])c2c(c1[H])C([H])([H])C([H])([H])C([H])([H])C2([H])N([H])C(=O)C1([H])N(C(=O)C([H])(N([H])C(=O)C([H])(N([H])C([H])([H])[H])C([H])([H])[H])C(C([H])([H])[H])(C([H])([H])[H])C([H])([H])[H])C([H])([H])c2c([H])c(OC([H])([H])C(=O)N([H])C(=S)c3c([H])c([H])c(N([H])C(=O)N4C([H])([H])C([H])([H])C([H])([H])C([H])(n5nc(-c6c([H])c([H])c(Oc7c([H])c([H])c(F)c([H])c7F)c([H])c6[H])c(C(=O)N([H])[H])c5N([H])[H])C4([H])[H])c([H])c3N([H])[H])c([H])c([H])c2C1([H])[H]

$$$$
73:0:0
     RDKit          3D

100109  0  0  1  0  0  0  0  0999 V2000
  -27.5100  -15.8280   20.8670 C   0  0  0  0  0  3  0  0  0  0  0  0
  -28.7830  -15.2560   20.8520 C   0  0  0  0  0  3  0  0  0  0  0  0
  -28.3190  -17.5640   19.4210 C   0  0  0  0  0  3  0  0  0  0  0  0
  -29.6670  -17.1000   19.4040 C   0  0  0  0  0  0  0  0  0  0  0  0
  -27.2520  -16.9560   20.0920 C   0  0  0  0  0  0  0  0  0  0  0  0
  -29.8680  -15.7030   20.0620 C   0  0  0  0  0  0  0  0  0  0  0  0
  -31.3930  -13.4920   20.9500 C   0  0  0  0  0  0  0  0  0  0  0  0
  -31.3840  -10.9630   21.2690 C   0  0  0  0  0  2  0  0  0  0  0  0
  -30.7690  -10.1740   20.0910 C   0  0  0  0  0  2  0  0  0  0  0  0
  -29.2460  -10.0350   20.2650 C   0  0  0  0  0  2  0  0  0  0  0  0
  -28.5890  -11.3700   20.6960 C   0  0  0  0  0  3  0  0  0  0  0  0
  -29.3560  -12.0490   21.8420 C   0  0  0  0  0  2  0  0  0  0  0  0
  -30.7170  -12.3100   21.3340 N   0  0  0  0  0  0  0  0  0  0  0  0
  -32.6190  -13.4300   21.0890 O   0  0  0  0  0  0  0  0  0  0  0  0
  -30.9350  -14.5920   20.1020 N   0  0  0  0  0  0  0  0  0  0  0  0
  -31.7390  -14.8890   19.5650 H   0  0  0  0  0  0  0  0  0  0  0  0
  -26.1830  -12.1830   20.9420 C   0  0  0  0  0  0  0  0  0  0  0  0
  -25.0110  -11.5320   21.2090 C   0  0  0  0  0  0  0  0  0  0  0  0
  -25.3600  -10.1630   21.4310 C   0  0  0  0  0  0  0  0  0  0  0  0
  -27.1720  -11.2190   20.9960 N   0  0  0  0  0  0  0  0  0  0  0  0
  -26.6780  -10.0080   21.3630 N   0  0  0  0  0  0  0  0  0  0  0  0
  -24.5100   -8.9850   21.6430 C   0  0  0  0  0  0  0  0  0  0  0  0
  -24.4620   -8.3210   22.8890 C   0  0  0  0  0  3  0  0  0  0  0  0
  -23.6210   -7.2030   23.0730 C   0  0  0  0  0  3  0  0  0  0  0  0
  -22.8100   -6.7420   22.0080 C   0  0  0  0  0  0  0  0  0  0  0  0
  -22.8780   -7.3930   20.7630 C   0  0  0  0  0  3  0  0  0  0  0  0
  -23.7220   -8.5010   20.5790 C   0  0  0  0  0  3  0  0  0  0  0  0
  -21.9810   -5.6500   22.0870 O   0  0  0  0  0  0  0  0  0  0  0  0
  -21.0540   -5.5200   23.0890 C   0  0  0  0  0  0  0  0  0  0  0  0
  -19.9970   -6.4410   23.2510 C   0  0  0  0  0  3  0  0  0  0  0  0
  -19.0280   -6.2310   24.2520 C   0  0  0  0  0  3  0  0  0  0  0  0
  -19.1080   -5.0980   25.0840 C   0  0  0  0  0  0  0  0  0  0  0  0
  -20.1560   -4.1760   24.9190 C   0  0  0  0  0  3  0  0  0  0  0  0
  -21.1240   -4.3840   23.9220 C   0  0  0  0  0  0  0  0  0  0  0  0
  -22.1190   -3.4800   23.7540 F   0  0  0  0  0  0  0  0  0  0  0  0
  -18.1720   -4.8920   26.0400 F   0  0  0  0  0  0  0  0  0  0  0  0
  -23.6340  -12.1260   21.1610 C   0  0  0  0  0  0  0  0  0  0  0  0
  -22.6910  -11.5530   21.8990 N   0  0  0  0  0  0  0  0  0  0  0  0
  -23.3990  -13.1370   20.4980 O   0  0  0  0  0  0  0  0  0  0  0  0
  -22.8850  -10.7300   22.4480 H   0  0  0  0  0  0  0  0  0  0  0  0
  -21.7570  -11.9380   21.9000 H   0  0  0  0  0  0  0  0  0  0  0  0
  -26.4960  -13.5030   20.6300 N   0  0  0  0  0  0  0  0  0  0  0  0
  -25.7920  -14.2200   20.4940 H   0  0  0  0  0  0  0  0  0  0  0  0
  -27.4340  -13.8240   20.4320 H   0  0  0  0  0  0  0  0  0  0  0  0
  -31.4690  -18.8430   19.6180 C   0  0  0  0  0  0  0  0  0  0  0  0
  -29.9600  -19.6270   18.1650 C   0  0  0  0  0  2  0  0  0  0  0  0
  -30.8530  -21.0050   18.4090 C   0  0  0  0  0  3  0  0  0  0  0  0
  -31.5920  -20.4300   19.6520 C   0  0  1  0  0  0  0  0  0  0  0  0
  -30.9190  -20.9210   20.9490 C   0  0  0  0  0  1  0  0  0  0  0  0
  -33.0730  -20.8610   19.6530 C   0  0  0  0  0  1  0  0  0  0  0  0
  -30.4870  -18.3070   18.8410 N   0  0  0  0  0  0  0  0  0  0  0  0
  -32.2400  -18.1480   20.2870 O   0  0  0  0  0  0  0  0  0  0  0  0
  -30.2600  -22.6420   18.3480 C   0  0  0  0  0  2  0  0  0  0  0  0
  -30.8840  -24.0850   18.6190 O   0  0  0  0  0  0  0  0  0  0  0  0
  -28.3670  -29.4570   23.1390 C   0  0  0  0  0  0  0  0  0  0  0  0
  -30.0750  -25.2790   18.8700 C   0  0  0  0  0  0  0  0  0  0  0  0
  -27.0000  -28.8500   21.1830 C   0  0  0  0  0  3  0  0  0  0  0  0
  -28.1730  -27.4570   19.3640 C   0  0  0  0  0  0  0  0  0  0  0  0
  -29.5630  -28.5910   21.0830 C   0  0  0  0  0  2  0  0  0  0  0  0
  -29.3870  -27.4460   20.0600 C   0  0  0  0  0  0  0  0  0  0  0  0
  -30.3430  -26.3800   19.7980 C   0  0  0  0  0  3  0  0  0  0  0  0
  -28.8540  -25.4210   18.1740 C   0  0  0  0  0  3  0  0  0  0  0  0
  -27.9260  -26.4600   18.4100 C   0  0  0  0  0  3  0  0  0  0  0  0
  -27.1560  -28.5500   19.6690 C   0  0  0  0  0  2  0  0  0  0  0  0
  -28.3320  -28.9680   21.8600 N   0  0  0  0  0  0  0  0  0  0  0  0
  -27.3340  -29.8050   23.7320 O   0  0  0  0  0  0  0  0  0  0  0  0
  -26.0780  -27.7840   21.8290 C   0  0  0  0  0  0  0  0  0  0  0  0
  -24.7520  -27.9140   21.6360 N   0  0  0  0  0  0  0  0  0  0  0  0
  -26.5610  -26.8490   22.4740 O   0  0  0  0  0  0  0  0  0  0  0  0
  -24.4260  -28.7120   21.1070 H   0  0  0  0  0  0  0  0  0  0  0  0
  -21.1810  -27.3010   21.7230 C   0  0  0  0  0  0  0  0  0  0  0  0
  -23.7200  -26.9900   22.1120 C   0  0  0  0  0  3  0  0  0  0  0  0
  -23.6040  -25.7580   21.1840 C   0  0  0  0  0  2  0  0  0  0  0  0
  -22.5400  -25.9230   20.0930 C   0  0  0  0  0  2  0  0  0  0  0  0
  -21.1630  -26.1600   20.7190 C   0  0  0  0  0  2  0  0  0  0  0  0
  -22.3830  -27.7000   22.3650 C   0  0  0  0  0  0  0  0  0  0  0  0
  -22.3480  -28.7850   23.2680 C   0  0  0  0  0  3  0  0  0  0  0  0
  -21.1430  -29.4640   23.5310 C   0  0  0  0  0  3  0  0  0  0  0  0
  -19.9540  -29.0560   22.9030 C   0  0  0  0  0  3  0  0  0  0  0  0
  -19.9730  -27.9750   22.0050 C   0  0  0  0  0  3  0  0  0  0  0  0
  -29.7100  -29.6160   23.9150 C   0  0  0  0  0  3  0  0  0  0  0  0
  -29.9870  -28.4320   24.9220 C   0  0  1  0  0  0  0  0  0  0  0  0
  -28.8200  -28.1590   25.8990 C   0  0  0  0  0  1  0  0  0  0  0  0
  -30.2770  -27.1180   24.1620 C   0  0  0  0  0  1  0  0  0  0  0  0
  -31.2500  -28.7420   25.7570 C   0  0  0  0  0  1  0  0  0  0  0  0
  -29.6650  -30.9000   24.6340 N   0  0  0  0  0  0  0  0  0  0  0  0
  -30.3680  -31.9900   24.2990 C   0  0  0  0  0  0  0  0  0  0  0  0
  -31.1810  -31.9990   23.3720 O   0  0  0  0  0  0  0  0  0  0  0  0
  -28.9730  -30.9850   25.3650 H   0  0  0  0  0  0  0  0  0  0  0  0
  -29.3130  -34.2760   24.2970 C   0  0  0  0  0  1  0  0  0  0  0  0
  -30.1350  -33.2730   25.1220 C   0  0  0  0  0  3  0  0  0  0  0  0
  -32.0870  -33.1570   26.6070 C   0  0  0  0  0  1  0  0  0  0  0  0
  -31.3870  -33.9190   25.5770 N   0  0  0  0  0  0  0  0  0  0  0  0
  -31.2010  -34.8490   25.9400 H   0  0  0  0  0  0  0  0  0  0  0  0
  -25.9830  -17.5420   20.0170 N   0  0  0  0  0  0  0  0  0  0  0  0
  -25.9620  -18.5410   19.8560 H   0  0  0  0  0  0  0  0  0  0  0  0
  -24.4480  -15.3510   19.2170 C   0  0  0  0  0  1  0  0  0  0  0  0
  -24.3430  -16.4860   21.6690 O   0  0  0  0  0  0  0  0  0  0  0  0
  -23.4790  -17.8180   19.6710 O   0  0  0  0  0  0  0  0  0  0  0  0
  -24.4240  -16.8510   20.2460 S   0  0  1  0  0  0  0  0  0  0  0  0
  2  1  1  0
  3  5  1  0
  4  3  2  0
  4  6  1  0
  5  1  2  0
  6 15  1  0
  6  2  2  0
  7 14  2  0
  7 13  1  0
  8 13  1  0
  9 10  1  0
  9  8  1  0
 11 10  1  0
 11 20  1  0
 11 12  1  0
 13 12  1  0
 15  7  1  0
 16 15  1  0
 17 20  1  0
 17 18  2  0
 18 19  1  0
 19 22  1  0
 20 21  1  0
 21 19  2  0
 22 23  1  0
 23 24  2  0
 25 28  1  0
 25 24  1  0
 26 25  2  0
 27 26  1  0
 27 22  2  0
 28 29  1  0
 29 30  2  0
 29 34  1  0
 30 31  1  0
 31 32  2  0
 32 36  1  0
 33 32  1  0
 34 33  2  0
 35 34  1  0
 37 18  1  0
 37 38  1  0
 38 41  1  0
 38 40  1  0
 39 37  2  0
 42 17  1  0
 43 42  1  0
 44 42  1  0
 45 48  1  0
 45 52  2  0
 46 47  1  0
 46 51  1  0
 47 53  1  0
 47 48  1  0
 48 50  1  1
 48 49  1  0
 51  4  1  0
 51 45  1  0
 53 54  1  0
 54 56  1  0
 55 66  2  0
 56 61  1  0
 57 67  1  0
 57 65  1  0
 58 64  1  0
 58 60  1  0
 59 65  1  0
 60 59  1  0
 61 60  2  0
 62 63  1  0
 62 56  2  0
 63 58  2  0
 64 57  1  0
 65 55  1  0
 67 69  2  0
 68 67  1  0
 70 68  1  0
 71 80  2  0
 71 76  1  0
 72 68  1  0
 72 76  1  0
 73 72  1  0
 74 75  1  0
 74 73  1  0
 75 71  1  0
 76 77  2  0
 77 78  1  0
 79 78  2  0
 80 79  1  0
 81 55  1  0
 81 86  1  0
 81 82  1  0
 82 85  1  1
 82 83  1  0
 84 82  1  0
 86 89  1  0
 87 86  1  0
 87 91  1  0
 88 87  2  0
 91 90  1  0
 91 93  1  0
 93 94  1  0
 93 92  1  0
 95  5  1  0
 95100  1  0
 96 95  1  0
100 97  1  6
 99100  2  0
100 98  2  0
M  ISO  4   7 100  15 100  53 101  54 101
M  END
>  <TORSDO>  (74) 
F 20

>  <SCORE>  (74) 
-2.549

>  <name>  (74) 
73

>  <ligand_id>  (74) 
73

>  <original_smiles>  (74) 
[H]c1c([H])c([H])c2c(c1[H])C([H])([H])C([H])([H])C([H])([H])C2([H])N([H])C(=O)C1([H])N(C(=O)C([H])(N([H])C(=O)C([H])(N([H])C([H])([H])[H])C([H])([H])[H])C(C([H])([H])[H])(C([H])([H])[H])C([H])([H])[H])C([H])([H])c2c([H])c(OC([H])([H])C3([H])C([H])([H])N(c4c([H])c(N([H])S(=O)(=O)C([H])([H])[H])c([H])c([H])c4N([H])C(=O)N4C([H])([H])C([H])([H])C([H])([H])C([H])(n5nc(-c6c([H])c([H])c(Oc7c([H])c([H])c(F)c([H])c7F)c([H])c6[H])c(C(=O)N([H])[H])c5N([H])[H])C4([H])[H])C(=O)C3(C([H])([H])[H])C([H])([H])[H])c([H])c([H])c2C1([H])[H]

>  <smiles>  (74) 
[H]c1c([H])c([H])c2c(c1[H])C([H])([H])C([H])([H])C([H])([H])C2([H])N([H])C(=O)C1([H])N(C(=O)C([H])(N([H])C(=O)C([H])(N([H])C([H])([H])[H])C([H])([H])[H])C(C([H])([H])[H])(C([H])([H])[H])C([H])([H])[H])C([H])([H])c2c([H])c(OC([H])([H])C3([H])C([H])([H])N(c4c([H])c(N([H])S(=O)(=O)C([H])([H])[H])c([H])c([H])c4N([H])C(=O)N4C([H])([H])C([H])([H])C([H])([H])C([H])(n5nc(-c6c([H])c([H])c(Oc7c([H])c([H])c(F)c([H])c7F)c([H])c6[H])c(C(=O)N([H])[H])c5N([H])[H])C4([H])[H])C(=O)C3(C([H])([H])[H])C([H])([H])[H])c([H])c([H])c2C1([H])[H]

$$$$
74:0:0
     RDKit          3D

 93101  0  0  1  0  0  0  0  0999 V2000
  -28.8080  -22.3440   20.7680 C   0  0  0  0  0  0  0  0  0  0  0  0
  -29.3810  -21.2230   20.1700 N   0  0  0  0  0  0  0  0  0  0  0  0
  -28.1860  -22.2250   21.8270 O   0  0  0  0  0  0  0  0  0  0  0  0
  -29.6530  -21.3720   19.2070 H   0  0  0  0  0  0  0  0  0  0  0  0
  -29.5570  -18.6080   20.1770 C   0  0  0  0  0  3  0  0  0  0  0  0
  -31.0720  -17.4850   21.7080 C   0  0  0  0  0  3  0  0  0  0  0  0
  -30.7720  -19.9300   21.8360 C   0  0  0  0  0  0  0  0  0  0  0  0
  -30.1400  -17.3600   20.6590 C   0  0  0  0  0  0  0  0  0  0  0  0
  -29.8490  -19.9230   20.7450 C   0  0  0  0  0  0  0  0  0  0  0  0
  -31.3750  -18.7300   22.2850 C   0  0  0  0  0  0  0  0  0  0  0  0
  -31.1890  -21.2130   22.5420 C   0  0  0  0  0  1  0  0  0  0  0  0
  -32.2690  -18.7580   23.3030 F   0  0  0  0  0  0  0  0  0  0  0  0
  -30.5580  -14.8450   20.1300 C   0  0  0  0  0  0  0  0  0  0  0  0
  -30.3210  -12.5980   19.0640 C   0  0  0  0  0  2  0  0  0  0  0  0
  -29.3260  -12.6480   17.8850 C   0  0  0  0  0  2  0  0  0  0  0  0
  -27.8750  -12.4780   18.3790 C   0  0  0  0  0  2  0  0  0  0  0  0
  -27.5410  -13.3560   19.6140 C   0  0  0  0  0  3  0  0  0  0  0  0
  -28.6480  -13.2620   20.6790 C   0  0  0  0  0  2  0  0  0  0  0  0
  -29.9110  -13.6360   20.0300 N   0  0  0  0  0  0  0  0  0  0  0  0
  -31.7590  -14.9280   19.8560 O   0  0  0  0  0  0  0  0  0  0  0  0
  -29.7830  -15.9920   20.2130 N   0  0  0  0  0  0  0  0  0  0  0  0
  -28.8030  -15.8400   20.0230 H   0  0  0  0  0  0  0  0  0  0  0  0
  -25.1790  -13.9210   20.4460 C   0  0  0  0  0  0  0  0  0  0  0  0
  -24.1340  -13.1310   20.8450 C   0  0  0  0  0  0  0  0  0  0  0  0
  -24.6130  -11.7880   20.7880 C   0  0  0  0  0  0  0  0  0  0  0  0
  -26.2210  -13.0520   20.1620 N   0  0  0  0  0  0  0  0  0  0  0  0
  -25.8910  -11.7650   20.4350 N   0  0  0  0  0  0  0  0  0  0  0  0
  -23.9080  -10.5140   20.9900 C   0  0  0  0  0  0  0  0  0  0  0  0
  -24.3630   -9.5580   21.9250 C   0  0  0  0  0  3  0  0  0  0  0  0
  -23.6580   -8.3500   22.1160 C   0  0  0  0  0  3  0  0  0  0  0  0
  -22.4820   -8.0890   21.3760 C   0  0  0  0  0  0  0  0  0  0  0  0
  -22.0440   -9.0340   20.4300 C   0  0  0  0  0  3  0  0  0  0  0  0
  -22.7500  -10.2340   20.2370 C   0  0  0  0  0  3  0  0  0  0  0  0
  -21.7450   -6.9340   21.4810 O   0  0  0  0  0  0  0  0  0  0  0  0
  -21.7090   -6.2050   22.6430 C   0  0  0  0  0  0  0  0  0  0  0  0
  -21.2580   -6.7640   23.8590 C   0  0  0  0  0  3  0  0  0  0  0  0
  -21.1730   -5.9580   25.0140 C   0  0  0  0  0  3  0  0  0  0  0  0
  -21.5240   -4.5970   24.9510 C   0  0  0  0  0  0  0  0  0  0  0  0
  -21.9640   -4.0390   23.7380 C   0  0  0  0  0  3  0  0  0  0  0  0
  -22.0520   -4.8390   22.5880 C   0  0  0  0  0  0  0  0  0  0  0  0
  -22.4580   -4.2930   21.4160 F   0  0  0  0  0  0  0  0  0  0  0  0
  -21.4320   -3.8200   26.0560 F   0  0  0  0  0  0  0  0  0  0  0  0
  -22.7410  -13.5890   21.1600 C   0  0  0  0  0  0  0  0  0  0  0  0
  -22.0400  -12.8750   22.0360 N   0  0  0  0  0  0  0  0  0  0  0  0
  -22.2800  -14.6150   20.6620 O   0  0  0  0  0  0  0  0  0  0  0  0
  -22.4240  -12.0490   22.4690 H   0  0  0  0  0  0  0  0  0  0  0  0
  -21.1030  -13.1630   22.2770 H   0  0  0  0  0  0  0  0  0  0  0  0
  -25.3250  -15.2940   20.2790 N   0  0  0  0  0  0  0  0  0  0  0  0
  -24.5650  -15.9460   20.4490 H   0  0  0  0  0  0  0  0  0  0  0  0
  -26.1680  -15.7480   19.9550 H   0  0  0  0  0  0  0  0  0  0  0  0
  -28.8980  -23.8120   20.1210 C   0  0  0  0  0  3  0  0  0  0  0  0
  -28.0070  -25.0510   20.6840 C   0  0  0  0  0  3  0  0  0  0  0  0
  -28.2390  -26.4750   20.2350 O   0  0  0  0  0  0  0  0  0  0  0  0
  -24.5780  -31.9750   23.2250 C   0  0  0  0  0  0  0  0  0  0  0  0
  -27.1470  -27.3700   20.1880 C   0  0  0  0  0  0  0  0  0  0  0  0
  -23.3610  -30.5760   21.5920 C   0  0  0  0  0  3  0  0  0  0  0  0
  -24.8030  -29.0220   20.1520 C   0  0  0  0  0  0  0  0  0  0  0  0
  -25.9000  -30.8860   21.3930 C   0  0  0  0  0  2  0  0  0  0  0  0
  -25.9750  -29.5000   20.7510 C   0  0  0  0  0  0  0  0  0  0  0  0
  -27.1510  -28.6850   20.7590 C   0  0  0  0  0  3  0  0  0  0  0  0
  -25.9630  -26.9630   19.5360 C   0  0  0  0  0  3  0  0  0  0  0  0
  -24.8040  -27.7680   19.5210 C   0  0  0  0  0  3  0  0  0  0  0  0
  -23.5690  -29.9010   20.2080 C   0  0  0  0  0  2  0  0  0  0  0  0
  -24.6320  -31.1640   22.1260 N   0  0  0  0  0  0  0  0  0  0  0  0
  -23.4990  -32.2500   23.7700 O   0  0  0  0  0  0  0  0  0  0  0  0
  -22.7050  -29.5610   22.5590 C   0  0  0  0  0  0  0  0  0  0  0  0
  -21.3780  -29.3780   22.4440 N   0  0  0  0  0  0  0  0  0  0  0  0
  -23.3910  -28.9380   23.3750 O   0  0  0  0  0  0  0  0  0  0  0  0
  -20.8820  -29.9330   21.7590 H   0  0  0  0  0  0  0  0  0  0  0  0
  -18.0080  -28.1650   22.9640 C   0  0  0  0  0  0  0  0  0  0  0  0
  -20.5680  -28.4380   23.2220 C   0  0  0  0  0  3  0  0  0  0  0  0
  -20.6740  -27.0050   22.6530 C   0  0  0  0  0  2  0  0  0  0  0  0
  -19.5700  -26.6730   21.6440 C   0  0  0  0  0  2  0  0  0  0  0  0
  -18.1900  -26.8150   22.2920 C   0  0  0  0  0  2  0  0  0  0  0  0
  -19.1250  -28.9340   23.3860 C   0  0  0  0  0  0  0  0  0  0  0  0
  -18.9000  -30.1980   23.9740 C   0  0  0  0  0  3  0  0  0  0  0  0
  -17.5930  -30.6930   24.1410 C   0  0  0  0  0  3  0  0  0  0  0  0
  -16.4920  -29.9190   23.7350 C   0  0  0  0  0  3  0  0  0  0  0  0
  -16.7000  -28.6580   23.1500 C   0  0  0  0  0  3  0  0  0  0  0  0
  -25.8660  -32.6120   23.8370 C   0  0  0  0  0  3  0  0  0  0  0  0
  -26.3820  -31.8530   25.1200 C   0  0  1  0  0  0  0  0  0  0  0  0
  -25.2890  -31.6310   26.1910 C   0  0  0  0  0  1  0  0  0  0  0  0
  -26.9590  -30.4700   24.7370 C   0  0  0  0  0  1  0  0  0  0  0  0
  -27.5340  -32.6510   25.7710 C   0  0  0  0  0  1  0  0  0  0  0  0
  -25.5610  -34.0140   24.1590 N   0  0  0  0  0  0  0  0  0  0  0  0
  -25.8950  -35.0610   23.3950 C   0  0  0  0  0  0  0  0  0  0  0  0
  -26.5640  -34.9480   22.3640 O   0  0  0  0  0  0  0  0  0  0  0  0
  -24.9720  -34.1720   24.9640 H   0  0  0  0  0  0  0  0  0  0  0  0
  -24.1820  -36.8630   23.0290 C   0  0  0  0  0  1  0  0  0  0  0  0
  -25.4170  -36.4530   23.8490 C   0  0  0  0  0  3  0  0  0  0  0  0
  -27.5520  -37.3230   24.6880 C   0  0  0  0  0  1  0  0  0  0  0  0
  -26.4560  -37.5000   23.7410 N   0  0  0  0  0  0  0  0  0  0  0  0
  -26.0540  -38.4230   23.8910 H   0  0  0  0  0  0  0  0  0  0  0  0
  1  3  2  0
  2  9  1  0
  2  1  1  0
  4  2  1  0
  5  8  2  0
  5  9  1  0
  6 10  2  0
  7 10  1  0
  7 11  1  0
  8  6  1  0
  9  7  2  0
 10 12  1  0
 13 21  1  0
 14 19  1  0
 15 16  1  0
 15 14  1  0
 17 16  1  0
 17 26  1  0
 17 18  1  0
 19 13  1  0
 19 18  1  0
 20 13  2  0
 21  8  1  0
 22 21  1  0
 23 24  2  0
 24 43  1  0
 25 24  1  0
 25 28  1  0
 26 27  1  0
 26 23  1  0
 27 25  2  0
 28 29  1  0
 29 30  2  0
 31 34  1  0
 31 30  1  0
 32 31  2  0
 33 32  1  0
 33 28  2  0
 34 35  1  0
 35 36  1  0
 36 37  2  0
 38 37  1  0
 38 42  1  0
 39 38  2  0
 40 35  2  0
 40 39  1  0
 41 40  1  0
 43 44  1  0
 44 47  1  0
 44 46  1  0
 45 43  2  0
 48 23  1  0
 48 49  1  0
 50 48  1  0
 51 52  2  0
 51  1  1  0
 53 52  1  0
 54 65  2  0
 55 53  1  0
 55 60  1  0
 56 64  1  0
 56 66  1  0
 57 63  1  0
 57 59  1  0
 58 64  1  0
 59 60  2  0
 59 58  1  0
 61 55  2  0
 62 61  1  0
 62 57  2  0
 63 56  1  0
 64 54  1  0
 66 68  2  0
 67 66  1  0
 69 67  1  0
 70 79  2  0
 70 75  1  0
 71 67  1  0
 71 75  1  0
 72 71  1  0
 73 74  1  0
 73 72  1  0
 74 70  1  0
 75 76  2  0
 76 77  1  0
 78 77  2  0
 79 78  1  0
 80 54  1  0
 80 85  1  0
 80 81  1  0
 81 84  1  1
 81 82  1  0
 83 81  1  0
 85 88  1  0
 86 90  1  0
 86 85  1  0
 87 86  2  0
 90 89  1  0
 92 90  1  0
 92 93  1  0
 92 91  1  0
M  ISO  4  13 100  21 100  52 101  53 101
M  END
>  <TORSDO>  (75) 
F 19

>  <SCORE>  (75) 
-14.140

>  <name>  (75) 
74

>  <ligand_id>  (75) 
74

>  <original_smiles>  (75) 
[H]c1c([H])c([H])c2c(c1[H])C([H])([H])C([H])([H])C([H])([H])C2([H])N([H])C(=O)C1([H])N(C(=O)C([H])(N([H])C(=O)C([H])(N([H])C([H])([H])[H])C([H])([H])[H])C(C([H])([H])[H])(C([H])([H])[H])C([H])([H])[H])C([H])([H])c2c([H])c(OC([H])([H])C([H])([H])C(=O)N([H])c3c([H])c(N([H])C(=O)N4C([H])([H])C([H])([H])C([H])([H])C([H])(n5nc(-c6c([H])c([H])c(Oc7c([H])c([H])c(F)c([H])c7F)c([H])c6[H])c(C(=O)N([H])[H])c5N([H])[H])C4([H])[H])c([H])c(F)c3C([H])([H])[H])c([H])c([H])c2C1([H])[H]

>  <smiles>  (75) 
[H]c1c([H])c([H])c2c(c1[H])C([H])([H])C([H])([H])C([H])([H])C2([H])N([H])C(=O)C1([H])N(C(=O)C([H])(N([H])C(=O)C([H])(N([H])C([H])([H])[H])C([H])([H])[H])C(C([H])([H])[H])(C([H])([H])[H])C([H])([H])[H])C([H])([H])c2c([H])c(OC([H])([H])C([H])([H])C(=O)N([H])c3c([H])c(N([H])C(=O)N4C([H])([H])C([H])([H])C([H])([H])C([H])(n5nc(-c6c([H])c([H])c(Oc7c([H])c([H])c(F)c([H])c7F)c([H])c6[H])c(C(=O)N([H])[H])c5N([H])[H])C4([H])[H])c([H])c(F)c3C([H])([H])[H])c([H])c([H])c2C1([H])[H]

$$$$
75:0:0
     RDKit          3D

 97106  0  0  1  0  0  0  0  0999 V2000
  -28.8820  -21.6120   21.3450 C   0  0  0  0  0  0  0  0  0  0  0  0
  -29.0650  -23.1390   21.4450 C   0  0  0  0  0  2  0  0  0  0  0  0
  -31.0450  -21.9830   20.6650 C   0  0  0  0  0  2  0  0  0  0  0  0
  -30.4790  -23.4200   20.8960 C   0  0  0  0  0  3  0  0  0  0  0  0
  -29.9890  -20.9850   20.9230 N   0  0  0  0  0  0  0  0  0  0  0  0
  -27.8200  -21.0570   21.6610 O   0  0  0  0  0  0  0  0  0  0  0  0
  -29.7740  -18.6280   18.0450 C   0  0  0  0  0  3  0  0  0  0  0  0
  -29.7880  -19.7840   18.8400 C   0  0  0  0  0  3  0  0  0  0  0  0
  -29.9680  -17.3760   18.6420 C   0  0  0  0  0  3  0  0  0  0  0  0
  -30.0950  -18.4160   20.8720 C   0  0  0  0  0  0  0  0  0  0  0  0
  -29.9600  -19.7140   20.2340 C   0  0  0  0  0  0  0  0  0  0  0  0
  -30.1200  -17.2100   20.0410 C   0  0  0  0  0  0  0  0  0  0  0  0
  -30.1770  -18.4040   22.4130 C   0  0  0  0  0  1  0  0  0  0  0  0
  -30.8820  -14.7790   19.9560 C   0  0  0  0  0  0  0  0  0  0  0  0
  -30.6630  -12.6130   18.6910 C   0  0  0  0  0  2  0  0  0  0  0  0
  -29.5850  -12.7300   17.5880 C   0  0  0  0  0  2  0  0  0  0  0  0
  -28.1440  -12.5900   18.1310 C   0  0  0  0  0  2  0  0  0  0  0  0
  -27.9240  -13.3500   19.4600 C   0  0  0  0  0  3  0  0  0  0  0  0
  -29.0830  -12.9890   20.4100 C   0  0  0  0  0  2  0  0  0  0  0  0
  -30.3100  -13.5300   19.8040 N   0  0  0  0  0  0  0  0  0  0  0  0
  -31.9800  -14.9870   19.4080 O   0  0  0  0  0  0  0  0  0  0  0  0
  -29.1770  -15.6250   21.6270 C   0  0  0  0  0  1  0  0  0  0  0  0
  -30.1450  -15.8310   20.5380 N   0  0  0  0  0  0  0  0  0  0  0  0
  -25.6550  -13.9490   20.5320 C   0  0  0  0  0  0  0  0  0  0  0  0
  -24.6180  -13.1710   20.9670 C   0  0  0  0  0  0  0  0  0  0  0  0
  -25.0230  -11.8190   20.7470 C   0  0  0  0  0  0  0  0  0  0  0  0
  -26.6290  -13.0690   20.0700 N   0  0  0  0  0  0  0  0  0  0  0  0
  -26.2570  -11.7770   20.2600 N   0  0  0  0  0  0  0  0  0  0  0  0
  -24.2760  -10.5650   20.8960 C   0  0  0  0  0  0  0  0  0  0  0  0
  -24.7140   -9.5460   21.7710 C   0  0  0  0  0  3  0  0  0  0  0  0
  -23.9740   -8.3530   21.9060 C   0  0  0  0  0  3  0  0  0  0  0  0
  -22.7810   -8.1710   21.1690 C   0  0  0  0  0  0  0  0  0  0  0  0
  -22.3570   -9.1780   20.2880 C   0  0  0  0  0  3  0  0  0  0  0  0
  -23.0950  -10.3650   20.1500 C   0  0  0  0  0  3  0  0  0  0  0  0
  -22.0100   -7.0340   21.2230 O   0  0  0  0  0  0  0  0  0  0  0  0
  -21.8970   -6.2950   22.3710 C   0  0  0  0  0  0  0  0  0  0  0  0
  -21.3840   -6.8470   23.5670 C   0  0  0  0  0  3  0  0  0  0  0  0
  -21.2180   -6.0310   24.7060 C   0  0  0  0  0  3  0  0  0  0  0  0
  -21.5530   -4.6660   24.6490 C   0  0  0  0  0  0  0  0  0  0  0  0
  -22.0580   -4.1120   23.4600 C   0  0  0  0  0  3  0  0  0  0  0  0
  -22.2260   -4.9240   22.3240 C   0  0  0  0  0  0  0  0  0  0  0  0
  -22.6910   -4.3800   21.1740 F   0  0  0  0  0  0  0  0  0  0  0  0
  -21.3870   -3.8830   25.7410 F   0  0  0  0  0  0  0  0  0  0  0  0
  -23.2830  -13.6530   21.4550 C   0  0  0  0  0  0  0  0  0  0  0  0
  -22.6460  -12.9090   22.3540 N   0  0  0  0  0  0  0  0  0  0  0  0
  -22.8080  -14.7150   21.0630 O   0  0  0  0  0  0  0  0  0  0  0  0
  -23.0400  -12.0400   22.6860 H   0  0  0  0  0  0  0  0  0  0  0  0
  -21.7470  -13.2050   22.7090 H   0  0  0  0  0  0  0  0  0  0  0  0
  -25.8210  -15.3260   20.4590 N   0  0  0  0  0  0  0  0  0  0  0  0
  -25.0210  -15.9270   20.6480 H   0  0  0  0  0  0  0  0  0  0  0  0
  -26.5850  -15.7870   19.9800 H   0  0  0  0  0  0  0  0  0  0  0  0
  -30.3030  -25.2010   18.8500 C   0  0  0  0  0  0  0  0  0  0  0  0
  -30.6350  -24.1270   19.6010 N   0  0  0  0  0  0  0  0  0  0  0  0
  -30.7670  -25.1160   17.7150 O   0  0  0  0  0  0  0  0  0  0  0  0
  -31.2750  -23.5760   19.0420 H   0  0  0  0  0  0  0  0  0  0  0  0
  -29.5460  -26.5580   19.1320 C   0  0  0  0  0  2  0  0  0  0  0  0
  -28.5810  -26.6260   20.1800 O   0  0  0  0  0  0  0  0  0  0  0  0
  -24.6490  -31.7850   23.0350 C   0  0  0  0  0  0  0  0  0  0  0  0
  -27.4630  -27.4500   20.0100 C   0  0  0  0  0  0  0  0  0  0  0  0
  -23.4830  -30.3620   21.3720 C   0  0  0  0  0  3  0  0  0  0  0  0
  -25.0110  -28.8830   19.9380 C   0  0  0  0  0  0  0  0  0  0  0  0
  -26.0070  -30.8090   21.2010 C   0  0  0  0  0  2  0  0  0  0  0  0
  -26.1530  -29.4660   20.5150 C   0  0  0  0  0  0  0  0  0  0  0  0
  -27.3790  -28.7610   20.5430 C   0  0  0  0  0  3  0  0  0  0  0  0
  -26.3030  -26.8760   19.4560 C   0  0  0  0  0  3  0  0  0  0  0  0
  -25.0750  -27.5850   19.3870 C   0  0  0  0  0  3  0  0  0  0  0  0
  -23.7410  -29.6910   20.0020 C   0  0  0  0  0  2  0  0  0  0  0  0
  -24.7230  -30.9830   21.9340 N   0  0  0  0  0  0  0  0  0  0  0  0
  -23.5430  -32.0350   23.5550 O   0  0  0  0  0  0  0  0  0  0  0  0
  -22.8450  -29.3250   22.3290 C   0  0  0  0  0  0  0  0  0  0  0  0
  -21.5180  -29.1390   22.2200 N   0  0  0  0  0  0  0  0  0  0  0  0
  -23.5430  -28.6990   23.1280 O   0  0  0  0  0  0  0  0  0  0  0  0
  -21.0050  -29.7060   21.5630 H   0  0  0  0  0  0  0  0  0  0  0  0
  -18.1650  -27.9060   22.8240 C   0  0  0  0  0  0  0  0  0  0  0  0
  -20.7340  -28.1710   22.9970 C   0  0  0  0  0  3  0  0  0  0  0  0
  -20.8120  -26.7590   22.3820 C   0  0  0  0  0  2  0  0  0  0  0  0
  -19.6690  -26.4600   21.4010 C   0  0  0  0  0  2  0  0  0  0  0  0
  -18.3160  -26.5760   22.1060 C   0  0  0  0  0  2  0  0  0  0  0  0
  -19.2980  -28.6570   23.2350 C   0  0  0  0  0  0  0  0  0  0  0  0
  -19.0970  -29.8990   23.8720 C   0  0  0  0  0  3  0  0  0  0  0  0
  -17.7980  -30.3950   24.0950 C   0  0  0  0  0  3  0  0  0  0  0  0
  -16.6830  -29.6380   23.7030 C   0  0  0  0  0  3  0  0  0  0  0  0
  -16.8650  -28.3980   23.0680 C   0  0  0  0  0  3  0  0  0  0  0  0
  -25.9120  -32.4430   23.6650 C   0  0  0  0  0  3  0  0  0  0  0  0
  -26.4820  -31.6420   24.8990 C   0  0  1  0  0  0  0  0  0  0  0  0
  -25.4080  -31.3140   25.9600 C   0  0  0  0  0  1  0  0  0  0  0  0
  -27.1320  -30.3080   24.4470 C   0  0  0  0  0  1  0  0  0  0  0  0
  -27.5920  -32.4830   25.5670 C   0  0  0  0  0  1  0  0  0  0  0  0
  -25.5390  -33.8110   24.0580 N   0  0  0  0  0  0  0  0  0  0  0  0
  -25.7940  -34.9130   23.3380 C   0  0  0  0  0  0  0  0  0  0  0  0
  -26.4320  -34.8840   22.2830 O   0  0  0  0  0  0  0  0  0  0  0  0
  -24.9560  -33.8980   24.8730 H   0  0  0  0  0  0  0  0  0  0  0  0
  -23.9920  -36.6450   23.0870 C   0  0  0  0  0  1  0  0  0  0  0  0
  -25.2560  -36.2610   23.8680 C   0  0  0  0  0  3  0  0  0  0  0  0
  -27.3540  -37.2050   24.7160 C   0  0  0  0  0  1  0  0  0  0  0  0
  -26.2420  -37.3600   23.7820 N   0  0  0  0  0  0  0  0  0  0  0  0
  -25.7970  -38.2600   23.9550 H   0  0  0  0  0  0  0  0  0  0  0  0
  1  2  1  0
  1  6  2  0
  3  4  1  0
  3  5  1  0
  4 53  1  0
  4  2  1  0
  5  1  1  0
  7  9  2  0
  7  8  1  0
  8 11  2  0
  9 12  1  0
 10 13  1  0
 11 10  1  0
 11  5  1  0
 12 23  1  0
 12 10  2  0
 14 23  1  0
 15 20  1  0
 16 17  1  0
 16 15  1  0
 18 17  1  0
 18 27  1  0
 18 19  1  0
 20 14  1  0
 20 19  1  0
 21 14  2  0
 23 22  1  0
 24 25  2  0
 25 44  1  0
 26 29  1  0
 26 25  1  0
 27 28  1  0
 27 24  1  0
 28 26  2  0
 29 30  1  0
 30 31  2  0
 32 35  1  0
 32 31  1  0
 33 32  2  0
 34 33  1  0
 34 29  2  0
 35 36  1  0
 36 37  1  0
 37 38  2  0
 39 38  1  0
 39 43  1  0
 40 39  2  0
 41 36  2  0
 41 40  1  0
 42 41  1  0
 44 45  1  0
 45 47  1  0
 45 48  1  0
 46 44  2  0
 49 24  1  0
 49 50  1  0
 51 49  1  0
 52 56  1  0
 52 53  1  0
 54 52  2  0
 55 53  1  0
 56 57  1  0
 58 69  2  0
 59 57  1  0
 59 64  1  0
 60 68  1  0
 60 70  1  0
 61 67  1  0
 61 63  1  0
 62 68  1  0
 63 64  2  0
 63 62  1  0
 65 59  2  0
 66 65  1  0
 66 61  2  0
 67 60  1  0
 68 58  1  0
 70 72  2  0
 71 70  1  0
 73 71  1  0
 74 83  2  0
 74 79  1  0
 75 71  1  0
 75 79  1  0
 76 75  1  0
 77 78  1  0
 77 76  1  0
 78 74  1  0
 79 80  2  0
 80 81  1  0
 82 81  2  0
 83 82  1  0
 84 58  1  0
 84 89  1  0
 84 85  1  0
 85 88  1  1
 85 86  1  0
 87 85  1  0
 89 92  1  0
 90 94  1  0
 90 89  1  0
 91 90  2  0
 94 93  1  0
 96 94  1  0
 96 97  1  0
 96 95  1  0
M  ISO  4  14 100  23 100  56 101  57 101
M  END
>  <TORSDO>  (76) 
F 19

>  <SCORE>  (76) 
-12.097

>  <name>  (76) 
75

>  <ligand_id>  (76) 
75

>  <original_smiles>  (76) 
[H]c1c([H])c(N(C(=O)N2C([H])([H])C([H])([H])C([H])([H])C([H])(n3nc(-c4c([H])c([H])c(Oc5c([H])c([H])c(F)c([H])c5F)c([H])c4[H])c(C(=O)N([H])[H])c3N([H])[H])C2([H])[H])C([H])([H])[H])c(C([H])([H])[H])c(N2C(=O)C([H])([H])C([H])(N([H])C(=O)C([H])([H])Oc3c([H])c([H])c4c(c3[H])C([H])([H])N(C(=O)C([H])(N([H])C(=O)C([H])(N([H])C([H])([H])[H])C([H])([H])[H])C(C([H])([H])[H])(C([H])([H])[H])C([H])([H])[H])C([H])(C(=O)N([H])C3([H])c5c([H])c([H])c([H])c([H])c5C([H])([H])C([H])([H])C3([H])[H])C4([H])[H])C2([H])[H])c1[H]

>  <smiles>  (76) 
[H]c1c([H])c(N(C(=O)N2C([H])([H])C([H])([H])C([H])([H])C([H])(n3nc(-c4c([H])c([H])c(Oc5c([H])c([H])c(F)c([H])c5F)c([H])c4[H])c(C(=O)N([H])[H])c3N([H])[H])C2([H])[H])C([H])([H])[H])c(C([H])([H])[H])c(N2C(=O)C([H])([H])C([H])(N([H])C(=O)C([H])([H])Oc3c([H])c([H])c4c(c3[H])C([H])([H])N(C(=O)C([H])(N([H])C(=O)C([H])(N([H])C([H])([H])[H])C([H])([H])[H])C(C([H])([H])[H])(C([H])([H])[H])C([H])([H])[H])C([H])(C(=O)N([H])C3([H])c5c([H])c([H])c([H])c([H])c5C([H])([H])C([H])([H])C3([H])[H])C4([H])[H])C2([H])[H])c1[H]

$$$$
76:0:0
     RDKit          3D

 92100  0  0  1  0  0  0  0  0999 V2000
  -28.8930  -22.3250   19.7760 C   0  0  0  0  0  0  0  0  0  0  0  0
  -29.0710  -21.1070   20.4280 N   0  0  0  0  0  0  0  0  0  0  0  0
  -28.9610  -22.3830   18.5450 O   0  0  0  0  0  0  0  0  0  0  0  0
  -28.8170  -21.1150   21.4080 H   0  0  0  0  0  0  0  0  0  0  0  0
  -29.4310  -18.4970   20.5120 C   0  0  0  0  0  3  0  0  0  0  0  0
  -30.5370  -19.8620   18.8300 C   0  0  0  0  0  3  0  0  0  0  0  0
  -30.9160  -17.4430   18.8990 C   0  0  0  0  0  3  0  0  0  0  0  0
  -29.6440  -19.8210   19.9280 C   0  0  0  0  0  0  0  0  0  0  0  0
  -30.0660  -17.2750   20.0190 C   0  0  0  0  0  0  0  0  0  0  0  0
  -31.1480  -18.7040   18.3230 C   0  0  0  0  0  0  0  0  0  0  0  0
  -31.9780  -18.8020   17.2560 F   0  0  0  0  0  0  0  0  0  0  0  0
  -30.5950  -14.7370   20.3480 C   0  0  0  0  0  0  0  0  0  0  0  0
  -30.3740  -12.4590   19.3720 C   0  0  0  0  0  2  0  0  0  0  0  0
  -29.4420  -12.5440   18.1440 C   0  0  0  0  0  2  0  0  0  0  0  0
  -27.9700  -12.3840   18.5710 C   0  0  0  0  0  2  0  0  0  0  0  0
  -27.5990  -13.2720   19.7880 C   0  0  0  0  0  3  0  0  0  0  0  0
  -28.6560  -13.1860   20.9110 C   0  0  0  0  0  2  0  0  0  0  0  0
  -29.9570  -13.5200   20.3180 N   0  0  0  0  0  0  0  0  0  0  0  0
  -31.7900  -14.7970   20.0400 O   0  0  0  0  0  0  0  0  0  0  0  0
  -29.8450  -15.8930   20.5440 N   0  0  0  0  0  0  0  0  0  0  0  0
  -28.9480  -15.7350   20.9780 H   0  0  0  0  0  0  0  0  0  0  0  0
  -25.2130  -13.8650   20.5160 C   0  0  0  0  0  0  0  0  0  0  0  0
  -24.1470  -13.0920   20.8890 C   0  0  0  0  0  0  0  0  0  0  0  0
  -24.6100  -11.7410   20.8640 C   0  0  0  0  0  0  0  0  0  0  0  0
  -26.2560  -12.9850   20.2820 N   0  0  0  0  0  0  0  0  0  0  0  0
  -25.9010  -11.7020   20.5540 N   0  0  0  0  0  0  0  0  0  0  0  0
  -23.8840  -10.4790   21.0580 C   0  0  0  0  0  0  0  0  0  0  0  0
  -24.3260   -9.5050   21.9810 C   0  0  0  0  0  3  0  0  0  0  0  0
  -23.5990   -8.3100   22.1640 C   0  0  0  0  0  3  0  0  0  0  0  0
  -22.4150   -8.0780   21.4250 C   0  0  0  0  0  0  0  0  0  0  0  0
  -21.9910   -9.0400   20.4900 C   0  0  0  0  0  3  0  0  0  0  0  0
  -22.7180  -10.2280   20.3060 C   0  0  0  0  0  3  0  0  0  0  0  0
  -21.6580   -6.9360   21.5170 O   0  0  0  0  0  0  0  0  0  0  0  0
  -21.6350   -6.1770   22.6600 C   0  0  0  0  0  0  0  0  0  0  0  0
  -21.2560   -6.7220   23.9070 C   0  0  0  0  0  3  0  0  0  0  0  0
  -21.1780   -5.8910   25.0430 C   0  0  0  0  0  3  0  0  0  0  0  0
  -21.4720   -4.5180   24.9330 C   0  0  0  0  0  0  0  0  0  0  0  0
  -21.8440   -3.9740   23.6920 C   0  0  0  0  0  3  0  0  0  0  0  0
  -21.9230   -4.8020   22.5580 C   0  0  0  0  0  0  0  0  0  0  0  0
  -22.2620   -4.2690   21.3600 F   0  0  0  0  0  0  0  0  0  0  0  0
  -21.3910   -3.7180   26.0220 F   0  0  0  0  0  0  0  0  0  0  0  0
  -22.7500  -13.5710   21.1570 C   0  0  0  0  0  0  0  0  0  0  0  0
  -22.0200  -12.8800   22.0250 N   0  0  0  0  0  0  0  0  0  0  0  0
  -22.3140  -14.5930   20.6290 O   0  0  0  0  0  0  0  0  0  0  0  0
  -22.3860  -12.0550   22.4760 H   0  0  0  0  0  0  0  0  0  0  0  0
  -21.0820  -13.1830   22.2430 H   0  0  0  0  0  0  0  0  0  0  0  0
  -25.3770  -15.2350   20.3320 N   0  0  0  0  0  0  0  0  0  0  0  0
  -24.6080  -15.8880   20.4330 H   0  0  0  0  0  0  0  0  0  0  0  0
  -26.2200  -15.6690   19.9760 H   0  0  0  0  0  0  0  0  0  0  0  0
  -28.5460  -23.6970   20.5270 C   0  0  0  0  0  3  0  0  0  0  0  0
  -28.4200  -25.0510   19.6420 C   0  0  0  0  0  3  0  0  0  0  0  0
  -28.3360  -26.4320   20.2290 O   0  0  0  0  0  0  0  0  0  0  0  0
  -24.6170  -31.8690   23.2320 C   0  0  0  0  0  0  0  0  0  0  0  0
  -27.2020  -27.2750   20.1580 C   0  0  0  0  0  0  0  0  0  0  0  0
  -23.4020  -30.4700   21.6010 C   0  0  0  0  0  3  0  0  0  0  0  0
  -24.8400  -28.9160   20.1630 C   0  0  0  0  0  0  0  0  0  0  0  0
  -25.9430  -30.7780   21.4050 C   0  0  0  0  0  2  0  0  0  0  0  0
  -26.0150  -29.3970   20.7530 C   0  0  0  0  0  0  0  0  0  0  0  0
  -27.1950  -28.5880   20.7390 C   0  0  0  0  0  3  0  0  0  0  0  0
  -25.9970  -26.8530   19.5530 C   0  0  0  0  0  3  0  0  0  0  0  0
  -24.8370  -27.6520   19.5540 C   0  0  0  0  0  3  0  0  0  0  0  0
  -23.6060  -29.7940   20.2180 C   0  0  0  0  0  2  0  0  0  0  0  0
  -24.6730  -31.0590   22.1340 N   0  0  0  0  0  0  0  0  0  0  0  0
  -23.5360  -32.1480   23.7740 O   0  0  0  0  0  0  0  0  0  0  0  0
  -22.7450  -29.4550   22.5670 C   0  0  0  0  0  0  0  0  0  0  0  0
  -21.4180  -29.2770   22.4500 N   0  0  0  0  0  0  0  0  0  0  0  0
  -23.4280  -28.8310   23.3830 O   0  0  0  0  0  0  0  0  0  0  0  0
  -20.9240  -29.8330   21.7660 H   0  0  0  0  0  0  0  0  0  0  0  0
  -18.0450  -28.0700   22.9620 C   0  0  0  0  0  0  0  0  0  0  0  0
  -20.6040  -28.3380   23.2250 C   0  0  0  0  0  3  0  0  0  0  0  0
  -20.7080  -26.9050   22.6550 C   0  0  0  0  0  2  0  0  0  0  0  0
  -19.6050  -26.5750   21.6440 C   0  0  0  0  0  2  0  0  0  0  0  0
  -18.2250  -26.7180   22.2910 C   0  0  0  0  0  2  0  0  0  0  0  0
  -19.1630  -28.8370   23.3860 C   0  0  0  0  0  0  0  0  0  0  0  0
  -18.9410  -30.1020   23.9730 C   0  0  0  0  0  3  0  0  0  0  0  0
  -17.6340  -30.5980   24.1430 C   0  0  0  0  0  3  0  0  0  0  0  0
  -16.5330  -29.8280   23.7350 C   0  0  0  0  0  3  0  0  0  0  0  0
  -16.7380  -28.5660   23.1510 C   0  0  0  0  0  3  0  0  0  0  0  0
  -25.9040  -32.5020   23.8450 C   0  0  0  0  0  3  0  0  0  0  0  0
  -26.4290  -31.7310   25.1180 C   0  0  1  0  0  0  0  0  0  0  0  0
  -25.3460  -31.4940   26.1950 C   0  0  0  0  0  1  0  0  0  0  0  0
  -27.0080  -30.3520   24.7230 C   0  0  0  0  0  1  0  0  0  0  0  0
  -27.5830  -32.5260   25.7720 C   0  0  0  0  0  1  0  0  0  0  0  0
  -25.5920  -33.9000   24.1830 N   0  0  0  0  0  0  0  0  0  0  0  0
  -25.9140  -34.9580   23.4260 C   0  0  0  0  0  0  0  0  0  0  0  0
  -26.5740  -34.8620   22.3880 O   0  0  0  0  0  0  0  0  0  0  0  0
  -25.0030  -34.0480   24.9880 H   0  0  0  0  0  0  0  0  0  0  0  0
  -24.1750  -36.7490   23.1030 C   0  0  0  0  0  1  0  0  0  0  0  0
  -25.4280  -36.3430   23.8950 C   0  0  0  0  0  3  0  0  0  0  0  0
  -27.5730  -37.2310   24.6990 C   0  0  0  0  0  1  0  0  0  0  0  0
  -26.4550  -37.4020   23.7750 N   0  0  0  0  0  0  0  0  0  0  0  0
  -26.0460  -38.3190   23.9370 H   0  0  0  0  0  0  0  0  0  0  0  0
  1  2  1  0
  1 50  1  0
  2  4  1  0
  3  1  2  0
  6  8  1  0
  7  9  2  0
  8  2  1  0
  8  5  2  0
  9  5  1  0
  9 20  1  0
 10  6  2  0
 10  7  1  0
 11 10  1  0
 12 20  1  0
 13 18  1  0
 14 15  1  0
 14 13  1  0
 16 15  1  0
 16 25  1  0
 16 17  1  0
 18 12  1  0
 18 17  1  0
 19 12  2  0
 20 21  1  0
 22 23  2  0
 23 42  1  0
 24 23  1  0
 24 27  1  0
 25 22  1  0
 25 26  1  0
 26 24  2  0
 27 28  1  0
 28 29  2  0
 30 33  1  0
 30 29  1  0
 31 30  2  0
 32 31  1  0
 32 27  2  0
 33 34  1  0
 34 35  1  0
 35 36  2  0
 37 36  1  0
 37 41  1  0
 38 37  2  0
 39 34  2  0
 39 38  1  0
 40 39  1  0
 42 43  1  0
 43 46  1  0
 43 45  1  0
 44 42  2  0
 47 48  1  0
 47 22  1  0
 49 47  1  0
 51 52  1  0
 51 50  2  0
 53 64  2  0
 54 52  1  0
 54 59  1  0
 55 63  1  0
 55 65  1  0
 56 62  1  0
 56 58  1  0
 57 63  1  0
 58 57  1  0
 59 58  2  0
 60 61  1  0
 60 54  2  0
 61 56  2  0
 62 55  1  0
 63 53  1  0
 65 67  2  0
 66 65  1  0
 68 66  1  0
 69 78  2  0
 69 74  1  0
 70 66  1  0
 70 74  1  0
 71 70  1  0
 72 73  1  0
 72 71  1  0
 73 69  1  0
 74 75  2  0
 75 76  1  0
 77 76  2  0
 78 77  1  0
 79 53  1  0
 79 84  1  0
 79 80  1  0
 80 83  1  1
 80 81  1  0
 82 80  1  0
 84 87  1  0
 85 89  1  0
 85 84  1  0
 86 85  2  0
 89 88  1  0
 91 89  1  0
 91 92  1  0
 91 90  1  0
M  ISO  4  12 100  20 100  51 101  52 101
M  END
>  <TORSDO>  (77) 
F 19

>  <SCORE>  (77) 
-14.203

>  <name>  (77) 
76

>  <ligand_id>  (77) 
76

>  <original_smiles>  (77) 
[H]c1c([H])c([H])c2c(c1[H])C([H])([H])C([H])([H])C([H])([H])C2([H])N([H])C(=O)C1([H])N(C(=O)C([H])(N([H])C(=O)C([H])(N([H])C([H])([H])[H])C([H])([H])[H])C(C([H])([H])[H])(C([H])([H])[H])C([H])([H])[H])C([H])([H])c2c([H])c(OC([H])([H])C([H])([H])C(=O)N([H])c3c([H])c(F)c([H])c(N([H])C(=O)N4C([H])([H])C([H])([H])C([H])([H])C([H])(n5nc(-c6c([H])c([H])c(Oc7c([H])c([H])c(F)c([H])c7F)c([H])c6[H])c(C(=O)N([H])[H])c5N([H])[H])C4([H])[H])c3[H])c([H])c([H])c2C1([H])[H]

>  <smiles>  (77) 
[H]c1c([H])c([H])c2c(c1[H])C([H])([H])C([H])([H])C([H])([H])C2([H])N([H])C(=O)C1([H])N(C(=O)C([H])(N([H])C(=O)C([H])(N([H])C([H])([H])[H])C([H])([H])[H])C(C([H])([H])[H])(C([H])([H])[H])C([H])([H])[H])C([H])([H])c2c([H])c(OC([H])([H])C([H])([H])C(=O)N([H])c3c([H])c(F)c([H])c(N([H])C(=O)N4C([H])([H])C([H])([H])C([H])([H])C([H])(n5nc(-c6c([H])c([H])c(Oc7c([H])c([H])c(F)c([H])c7F)c([H])c6[H])c(C(=O)N([H])[H])c5N([H])[H])C4([H])[H])c3[H])c([H])c([H])c2C1([H])[H]

$$$$
77:0:0
     RDKit          3D

 95103  0  0  1  0  0  0  0  0999 V2000
  -29.6000  -19.8000   18.5640 C   0  0  0  0  0  3  0  0  0  0  0  0
  -30.0400  -17.3880   18.6420 C   0  0  0  0  0  3  0  0  0  0  0  0
  -29.5690  -18.6210   20.6900 C   0  0  0  0  0  3  0  0  0  0  0  0
  -29.8820  -18.5820   17.9070 C   0  0  0  0  0  0  0  0  0  0  0  0
  -29.4150  -19.8770   19.9640 C   0  0  0  0  0  0  0  0  0  0  0  0
  -29.9020  -17.3520   20.0470 C   0  0  0  0  0  0  0  0  0  0  0  0
  -30.7270  -14.9130   20.3120 C   0  0  0  0  0  0  0  0  0  0  0  0
  -30.5010  -12.6660   19.2590 C   0  0  0  0  0  2  0  0  0  0  0  0
  -29.5560  -12.8030   18.0440 C   0  0  0  0  0  2  0  0  0  0  0  0
  -28.0900  -12.6280   18.4820 C   0  0  0  0  0  2  0  0  0  0  0  0
  -27.7390  -13.4790   19.7330 C   0  0  0  0  0  3  0  0  0  0  0  0
  -28.8050  -13.3350   20.8430 C   0  0  0  0  0  2  0  0  0  0  0  0
  -30.1040  -13.6870   20.2580 N   0  0  0  0  0  0  0  0  0  0  0  0
  -31.8800  -15.0360   19.8850 O   0  0  0  0  0  0  0  0  0  0  0  0
  -29.9990  -16.0260   20.7090 N   0  0  0  0  0  0  0  0  0  0  0  0
  -29.2570  -15.8230   21.3640 H   0  0  0  0  0  0  0  0  0  0  0  0
  -25.3610  -14.0660   20.4970 C   0  0  0  0  0  0  0  0  0  0  0  0
  -24.2950  -13.2870   20.8590 C   0  0  0  0  0  0  0  0  0  0  0  0
  -24.7510  -11.9350   20.7890 C   0  0  0  0  0  0  0  0  0  0  0  0
  -26.3970  -13.1880   20.2250 N   0  0  0  0  0  0  0  0  0  0  0  0
  -26.0380  -11.8990   20.4650 N   0  0  0  0  0  0  0  0  0  0  0  0
  -24.0230  -10.6710   20.9540 C   0  0  0  0  0  0  0  0  0  0  0  0
  -24.4400   -9.6950   21.8870 C   0  0  0  0  0  3  0  0  0  0  0  0
  -23.7110   -8.4950   22.0410 C   0  0  0  0  0  3  0  0  0  0  0  0
  -22.5520   -8.2620   21.2630 C   0  0  0  0  0  0  0  0  0  0  0  0
  -22.1550   -9.2270   20.3200 C   0  0  0  0  0  3  0  0  0  0  0  0
  -22.8850  -10.4180   20.1640 C   0  0  0  0  0  3  0  0  0  0  0  0
  -21.7950   -7.1160   21.3280 O   0  0  0  0  0  0  0  0  0  0  0  0
  -21.6920   -6.3860   22.4850 C   0  0  0  0  0  0  0  0  0  0  0  0
  -21.1660   -6.9400   23.6730 C   0  0  0  0  0  3  0  0  0  0  0  0
  -21.0160   -6.1330   24.8180 C   0  0  0  0  0  3  0  0  0  0  0  0
  -21.3780   -4.7740   24.7760 C   0  0  0  0  0  0  0  0  0  0  0  0
  -21.8980   -4.2200   23.5920 C   0  0  0  0  0  3  0  0  0  0  0  0
  -22.0510   -5.0240   22.4500 C   0  0  0  0  0  0  0  0  0  0  0  0
  -22.5310   -4.4810   21.3050 F   0  0  0  0  0  0  0  0  0  0  0  0
  -21.2270   -3.9960   25.8730 F   0  0  0  0  0  0  0  0  0  0  0  0
  -22.9020  -13.7620   21.1560 C   0  0  0  0  0  0  0  0  0  0  0  0
  -22.1760  -13.0470   22.0070 N   0  0  0  0  0  0  0  0  0  0  0  0
  -22.4670  -14.8030   20.6660 O   0  0  0  0  0  0  0  0  0  0  0  0
  -22.5410  -12.2060   22.4310 H   0  0  0  0  0  0  0  0  0  0  0  0
  -21.2410  -13.3480   22.2430 H   0  0  0  0  0  0  0  0  0  0  0  0
  -25.5340  -15.4390   20.3580 N   0  0  0  0  0  0  0  0  0  0  0  0
  -24.7840  -16.1020   20.5190 H   0  0  0  0  0  0  0  0  0  0  0  0
  -26.3960  -15.8790   20.0600 H   0  0  0  0  0  0  0  0  0  0  0  0
  -30.0220  -18.5400   16.3910 C   0  0  1  0  0  0  0  0  0  0  0  0
  -29.6790  -19.6990   15.8260 F   0  0  0  0  0  0  0  0  0  0  0  0
  -31.2850  -18.2710   16.0670 F   0  0  0  0  0  0  0  0  0  0  0  0
  -29.2390  -17.5870   15.8860 F   0  0  0  0  0  0  0  0  0  0  0  0
  -28.6160  -22.3700   20.0330 C   0  0  0  0  0  0  0  0  0  0  0  0
  -29.1650  -21.2120   20.5790 N   0  0  0  0  0  0  0  0  0  0  0  0
  -27.9620  -22.3130   18.9890 O   0  0  0  0  0  0  0  0  0  0  0  0
  -29.4990  -21.3150   21.5270 H   0  0  0  0  0  0  0  0  0  0  0  0
  -28.7370  -23.8110   20.7230 C   0  0  0  0  0  3  0  0  0  0  0  0
  -28.0660  -25.0850   19.9840 C   0  0  0  0  0  3  0  0  0  0  0  0
  -28.2350  -26.5180   20.4270 O   0  0  0  0  0  0  0  0  0  0  0  0
  -24.5920  -32.0730   23.3670 C   0  0  0  0  0  0  0  0  0  0  0  0
  -27.1530  -27.4290   20.3370 C   0  0  0  0  0  0  0  0  0  0  0  0
  -23.3800  -30.6710   21.7400 C   0  0  0  0  0  3  0  0  0  0  0  0
  -24.8180  -29.1080   20.3150 C   0  0  0  0  0  0  0  0  0  0  0  0
  -25.9290  -30.9470   21.5740 C   0  0  0  0  0  2  0  0  0  0  0  0
  -25.9910  -29.5650   20.9280 C   0  0  0  0  0  0  0  0  0  0  0  0
  -27.1560  -28.7310   20.9430 C   0  0  0  0  0  3  0  0  0  0  0  0
  -25.9660  -27.0650   19.6570 C   0  0  0  0  0  3  0  0  0  0  0  0
  -24.8110  -27.8660   19.6710 C   0  0  0  0  0  3  0  0  0  0  0  0
  -23.5920  -29.9990   20.3590 C   0  0  0  0  0  2  0  0  0  0  0  0
  -24.6510  -31.2530   22.2780 N   0  0  0  0  0  0  0  0  0  0  0  0
  -23.5110  -32.3620   23.9010 O   0  0  0  0  0  0  0  0  0  0  0  0
  -22.7130  -29.6600   22.7060 C   0  0  0  0  0  0  0  0  0  0  0  0
  -21.3920  -29.4610   22.5620 N   0  0  0  0  0  0  0  0  0  0  0  0
  -23.3850  -29.0610   23.5490 O   0  0  0  0  0  0  0  0  0  0  0  0
  -20.9080  -29.9990   21.8570 H   0  0  0  0  0  0  0  0  0  0  0  0
  -18.0200  -28.2290   23.0250 C   0  0  0  0  0  0  0  0  0  0  0  0
  -20.5700  -28.5290   23.3380 C   0  0  0  0  0  3  0  0  0  0  0  0
  -20.7000  -27.0860   22.7980 C   0  0  0  0  0  2  0  0  0  0  0  0
  -19.6210  -26.7260   21.7710 C   0  0  0  0  0  2  0  0  0  0  0  0
  -18.2270  -26.8670   22.3850 C   0  0  0  0  0  2  0  0  0  0  0  0
  -19.1200  -29.0160   23.4590 C   0  0  0  0  0  0  0  0  0  0  0  0
  -18.8730  -30.2900   24.0150 C   0  0  0  0  0  3  0  0  0  0  0  0
  -17.5570  -30.7730   24.1510 C   0  0  0  0  0  3  0  0  0  0  0  0
  -16.4720  -29.9840   23.7330 C   0  0  0  0  0  3  0  0  0  0  0  0
  -16.7040  -28.7150   23.1730 C   0  0  0  0  0  3  0  0  0  0  0  0
  -25.8790  -32.7030   23.9800 C   0  0  0  0  0  3  0  0  0  0  0  0
  -26.3950  -31.9380   25.2600 C   0  0  1  0  0  0  0  0  0  0  0  0
  -25.2930  -31.6650   26.3090 C   0  0  0  0  0  1  0  0  0  0  0  0
  -27.0270  -30.5790   24.8790 C   0  0  0  0  0  1  0  0  0  0  0  0
  -27.5100  -32.7630   25.9470 C   0  0  0  0  0  1  0  0  0  0  0  0
  -25.5740  -34.1050   24.3050 N   0  0  0  0  0  0  0  0  0  0  0  0
  -25.8890  -35.1540   23.5340 C   0  0  0  0  0  0  0  0  0  0  0  0
  -26.5370  -35.0450   22.4890 O   0  0  0  0  0  0  0  0  0  0  0  0
  -24.9880  -34.2620   25.1110 H   0  0  0  0  0  0  0  0  0  0  0  0
  -24.1430  -36.9400   23.2200 C   0  0  0  0  0  1  0  0  0  0  0  0
  -25.4110  -36.5450   23.9940 C   0  0  0  0  0  3  0  0  0  0  0  0
  -27.5630  -37.4530   24.7570 C   0  0  0  0  0  1  0  0  0  0  0  0
  -26.4350  -37.6020   23.8400 N   0  0  0  0  0  0  0  0  0  0  0  0
  -26.0280  -38.5220   23.9850 H   0  0  0  0  0  0  0  0  0  0  0  0
  1  5  1  0
  2  6  2  0
  4  1  2  0
  4  2  1  0
  5 50  1  0
  5  3  2  0
  6  3  1  0
  6 15  1  0
  7 15  1  0
  8 13  1  0
  9 10  1  0
  9  8  1  0
 11 10  1  0
 11 20  1  0
 11 12  1  0
 13  7  1  0
 13 12  1  0
 14  7  2  0
 15 16  1  0
 17 18  2  0
 18 37  1  0
 19 18  1  0
 19 22  1  0
 20 21  1  0
 20 17  1  0
 21 19  2  0
 22 23  1  0
 23 24  2  0
 25 28  1  0
 25 24  1  0
 26 25  2  0
 27 26  1  0
 27 22  2  0
 28 29  1  0
 29 30  1  0
 30 31  2  0
 32 31  1  0
 32 36  1  0
 33 32  2  0
 34 29  2  0
 34 33  1  0
 35 34  1  0
 37 38  1  0
 38 41  1  0
 38 40  1  0
 39 37  2  0
 42 17  1  0
 42 43  1  0
 44 42  1  0
 45  4  1  0
 45 46  1  6
 47 45  1  0
 48 45  1  0
 49 50  1  0
 49 53  1  0
 50 52  1  0
 51 49  2  0
 54 55  1  0
 54 53  2  0
 56 67  2  0
 57 55  1  0
 57 62  1  0
 58 66  1  0
 58 68  1  0
 59 65  1  0
 59 61  1  0
 60 66  1  0
 61 62  2  0
 61 60  1  0
 63 64  1  0
 63 57  2  0
 64 59  2  0
 65 58  1  0
 66 56  1  0
 68 70  2  0
 69 68  1  0
 71 69  1  0
 72 81  2  0
 72 77  1  0
 73 69  1  0
 73 77  1  0
 74 73  1  0
 75 76  1  0
 75 74  1  0
 76 72  1  0
 77 78  2  0
 78 79  1  0
 80 79  2  0
 81 80  1  0
 82 56  1  0
 82 87  1  0
 82 83  1  0
 83 86  1  1
 83 84  1  0
 85 83  1  0
 87 90  1  0
 88 92  1  0
 88 87  1  0
 89 88  2  0
 92 91  1  0
 94 95  1  0
 94 92  1  0
 94 93  1  0
M  ISO  4   7 100  15 100  54 101  55 101
M  END
>  <TORSDO>  (78) 
F 20

>  <SCORE>  (78) 
-13.195

>  <name>  (78) 
77

>  <ligand_id>  (78) 
77

>  <original_smiles>  (78) 
[H]c1c([H])c([H])c2c(c1[H])C([H])([H])C([H])([H])C([H])([H])C2([H])N([H])C(=O)C1([H])N(C(=O)C([H])(N([H])C(=O)C([H])(N([H])C([H])([H])[H])C([H])([H])[H])C(C([H])([H])[H])(C([H])([H])[H])C([H])([H])[H])C([H])([H])c2c([H])c(OC([H])([H])C([H])([H])C(=O)N([H])c3c([H])c(N([H])C(=O)N4C([H])([H])C([H])([H])C([H])([H])C([H])(n5nc(-c6c([H])c([H])c(Oc7c([H])c([H])c(F)c([H])c7F)c([H])c6[H])c(C(=O)N([H])[H])c5N([H])[H])C4([H])[H])c([H])c(C(F)(F)F)c3[H])c([H])c([H])c2C1([H])[H]

>  <smiles>  (78) 
[H]c1c([H])c([H])c2c(c1[H])C([H])([H])C([H])([H])C([H])([H])C2([H])N([H])C(=O)C1([H])N(C(=O)C([H])(N([H])C(=O)C([H])(N([H])C([H])([H])[H])C([H])([H])[H])C(C([H])([H])[H])(C([H])([H])[H])C([H])([H])[H])C([H])([H])c2c([H])c(OC([H])([H])C([H])([H])C(=O)N([H])c3c([H])c(N([H])C(=O)N4C([H])([H])C([H])([H])C([H])([H])C([H])(n5nc(-c6c([H])c([H])c(Oc7c([H])c([H])c(F)c([H])c7F)c([H])c6[H])c(C(=O)N([H])[H])c5N([H])[H])C4([H])[H])c([H])c(C(F)(F)F)c3[H])c([H])c([H])c2C1([H])[H]

$$$$
78:0:0
     RDKit          3D

 92100  0  0  1  0  0  0  0  0999 V2000
  -28.9300  -23.2720   20.5350 C   0  0  0  0  0  0  0  0  0  0  0  0
  -28.7540  -21.8650   20.2170 N   0  0  0  0  0  0  0  0  0  0  0  0
  -29.7770  -23.5860   21.3740 O   0  0  0  0  0  0  0  0  0  0  0  0
  -27.9610  -21.7320   19.6030 H   0  0  0  0  0  0  0  0  0  0  0  0
  -30.7930  -20.6350   21.1430 C   0  0  0  0  0  3  0  0  0  0  0  0
  -31.2270  -18.1820   21.1510 C   0  0  0  0  0  3  0  0  0  0  0  0
  -29.1560  -19.0860   20.2690 C   0  0  0  0  0  3  0  0  0  0  0  0
  -31.6100  -19.5150   21.4390 C   0  0  0  0  0  0  0  0  0  0  0  0
  -29.5190  -20.5300   20.5360 C   0  0  0  0  0  0  0  0  0  0  0  0
  -29.9870  -17.8550   20.5650 C   0  0  0  0  0  0  0  0  0  0  0  0
  -32.9480  -19.7630   22.1110 C   0  0  0  0  0  1  0  0  0  0  0  0
  -30.4500  -15.1070   20.3270 C   0  0  0  0  0  0  0  0  0  0  0  0
  -30.3470  -12.7280   19.3890 C   0  0  0  0  0  2  0  0  0  0  0  0
  -29.4160  -12.6280   18.1580 C   0  0  0  0  0  2  0  0  0  0  0  0
  -27.9560  -12.4010   18.5950 C   0  0  0  0  0  2  0  0  0  0  0  0
  -27.5390  -13.3330   19.7640 C   0  0  0  0  0  3  0  0  0  0  0  0
  -28.5980  -13.3930   20.8850 C   0  0  0  0  0  2  0  0  0  0  0  0
  -29.8480  -13.8390   20.2560 N   0  0  0  0  0  0  0  0  0  0  0  0
  -31.6650  -15.1270   20.0940 O   0  0  0  0  0  0  0  0  0  0  0  0
  -29.6750  -16.3290   20.3960 N   0  0  0  0  0  0  0  0  0  0  0  0
  -28.6880  -16.1310   20.3560 H   0  0  0  0  0  0  0  0  0  0  0  0
  -25.1600  -13.8950   20.5100 C   0  0  0  0  0  0  0  0  0  0  0  0
  -24.1010  -13.1160   20.8830 C   0  0  0  0  0  0  0  0  0  0  0  0
  -24.5730  -11.7670   20.8560 C   0  0  0  0  0  0  0  0  0  0  0  0
  -26.2080  -13.0220   20.2700 N   0  0  0  0  0  0  0  0  0  0  0  0
  -25.8650  -11.7370   20.5450 N   0  0  0  0  0  0  0  0  0  0  0  0
  -23.8500  -10.5030   21.0480 C   0  0  0  0  0  0  0  0  0  0  0  0
  -24.2910   -9.5340   21.9770 C   0  0  0  0  0  3  0  0  0  0  0  0
  -23.5660   -8.3370   22.1600 C   0  0  0  0  0  3  0  0  0  0  0  0
  -22.3870   -8.1000   21.4150 C   0  0  0  0  0  0  0  0  0  0  0  0
  -21.9650   -9.0570   20.4760 C   0  0  0  0  0  3  0  0  0  0  0  0
  -22.6900  -10.2470   20.2910 C   0  0  0  0  0  3  0  0  0  0  0  0
  -21.6340   -6.9540   21.5070 O   0  0  0  0  0  0  0  0  0  0  0  0
  -21.6070   -6.1990   22.6520 C   0  0  0  0  0  0  0  0  0  0  0  0
  -21.2000   -6.7400   23.8910 C   0  0  0  0  0  3  0  0  0  0  0  0
  -21.1200   -5.9120   25.0280 C   0  0  0  0  0  3  0  0  0  0  0  0
  -21.4400   -4.5450   24.9280 C   0  0  0  0  0  0  0  0  0  0  0  0
  -21.8390   -4.0040   23.6940 C   0  0  0  0  0  3  0  0  0  0  0  0
  -21.9200   -4.8280   22.5590 C   0  0  0  0  0  0  0  0  0  0  0  0
  -22.2870   -4.2970   21.3670 F   0  0  0  0  0  0  0  0  0  0  0  0
  -21.3550   -3.7470   26.0190 F   0  0  0  0  0  0  0  0  0  0  0  0
  -22.7020  -13.5880   21.1490 C   0  0  0  0  0  0  0  0  0  0  0  0
  -21.9790  -12.8990   22.0240 N   0  0  0  0  0  0  0  0  0  0  0  0
  -22.2610  -14.6060   20.6170 O   0  0  0  0  0  0  0  0  0  0  0  0
  -22.3530  -12.0770   22.4740 H   0  0  0  0  0  0  0  0  0  0  0  0
  -21.0410  -13.1990   22.2460 H   0  0  0  0  0  0  0  0  0  0  0  0
  -25.3140  -15.2670   20.3280 N   0  0  0  0  0  0  0  0  0  0  0  0
  -24.5340  -15.9070   20.4280 H   0  0  0  0  0  0  0  0  0  0  0  0
  -26.1430  -15.7140   19.9600 H   0  0  0  0  0  0  0  0  0  0  0  0
  -28.3960  -24.5890   18.3760 C   0  0  0  0  0  1  0  0  0  0  0  0
  -28.0680  -24.5760   19.8800 C   0  0  0  0  0  3  0  0  0  0  0  0
  -28.2280  -26.0960   20.3290 O   0  0  0  0  0  0  0  0  0  0  0  0
  -24.6240  -31.8870   23.2630 C   0  0  0  0  0  0  0  0  0  0  0  0
  -27.1890  -27.1220   20.2300 C   0  0  0  0  0  0  0  0  0  0  0  0
  -23.4180  -30.4960   21.6280 C   0  0  0  0  0  3  0  0  0  0  0  0
  -24.8640  -28.9130   20.1940 C   0  0  0  0  0  0  0  0  0  0  0  0
  -25.9780  -30.7410   21.4600 C   0  0  0  0  0  2  0  0  0  0  0  0
  -26.0480  -29.3450   20.8050 C   0  0  0  0  0  0  0  0  0  0  0  0
  -27.2050  -28.4670   20.8050 C   0  0  0  0  0  3  0  0  0  0  0  0
  -25.9740  -26.8120   19.5750 C   0  0  0  0  0  3  0  0  0  0  0  0
  -24.8450  -27.6630   19.5590 C   0  0  0  0  0  3  0  0  0  0  0  0
  -23.6380  -29.8180   20.2490 C   0  0  0  0  0  2  0  0  0  0  0  0
  -24.6950  -31.0650   22.1720 N   0  0  0  0  0  0  0  0  0  0  0  0
  -23.5390  -32.1730   23.7940 O   0  0  0  0  0  0  0  0  0  0  0  0
  -22.7360  -29.4930   22.5900 C   0  0  0  0  0  0  0  0  0  0  0  0
  -21.4090  -29.3150   22.4580 N   0  0  0  0  0  0  0  0  0  0  0  0
  -23.4040  -28.8740   23.4220 O   0  0  0  0  0  0  0  0  0  0  0  0
  -20.9250  -29.8590   21.7570 H   0  0  0  0  0  0  0  0  0  0  0  0
  -18.0360  -28.0810   22.9340 C   0  0  0  0  0  0  0  0  0  0  0  0
  -20.5880  -28.3780   23.2290 C   0  0  0  0  0  3  0  0  0  0  0  0
  -20.7160  -26.9420   22.6730 C   0  0  0  0  0  2  0  0  0  0  0  0
  -19.6320  -26.5940   21.6480 C   0  0  0  0  0  2  0  0  0  0  0  0
  -18.2390  -26.7280   22.2720 C   0  0  0  0  0  2  0  0  0  0  0  0
  -19.1390  -28.8630   23.3680 C   0  0  0  0  0  0  0  0  0  0  0  0
  -18.8950  -30.1260   23.9490 C   0  0  0  0  0  3  0  0  0  0  0  0
  -17.5810  -30.6090   24.0970 C   0  0  0  0  0  3  0  0  0  0  0  0
  -16.4920  -29.8250   23.6760 C   0  0  0  0  0  3  0  0  0  0  0  0
  -16.7210  -28.5620   23.0990 C   0  0  0  0  0  3  0  0  0  0  0  0
  -25.9030  -32.5240   23.8890 C   0  0  0  0  0  3  0  0  0  0  0  0
  -25.5930  -33.9250   24.2150 N   0  0  0  0  0  0  0  0  0  0  0  0
  -25.9180  -34.9790   23.4540 C   0  0  0  0  0  0  0  0  0  0  0  0
  -26.5740  -34.8700   22.4130 O   0  0  0  0  0  0  0  0  0  0  0  0
  -25.0070  -34.0810   25.0230 H   0  0  0  0  0  0  0  0  0  0  0  0
  -24.1840  -36.7730   23.1290 C   0  0  0  0  0  1  0  0  0  0  0  0
  -25.4430  -36.3710   23.9140 C   0  0  0  0  0  3  0  0  0  0  0  0
  -27.5940  -37.2640   24.6950 C   0  0  0  0  0  1  0  0  0  0  0  0
  -26.4730  -37.4220   23.7710 N   0  0  0  0  0  0  0  0  0  0  0  0
  -26.0700  -38.3440   23.9160 H   0  0  0  0  0  0  0  0  0  0  0  0
  -26.4060  -31.7580   25.1760 C   0  0  1  0  0  0  0  0  0  0  0  0
  -25.3050  -31.5390   26.2400 C   0  0  0  0  0  1  0  0  0  0  0  0
  -26.9800  -30.3720   24.8040 C   0  0  0  0  0  1  0  0  0  0  0  0
  -27.5590  -32.5490   25.8380 C   0  0  0  0  0  1  0  0  0  0  0  0
  1  3  2  0
  2  1  1  0
  2  9  1  0
  4  2  1  0
  5  8  1  0
  6  8  2  0
  7  9  1  0
  7 10  2  0
  8 11  1  0
  9  5  2  0
 10  6  1  0
 12 20  1  0
 13 18  1  0
 14 15  1  0
 14 13  1  0
 16 15  1  0
 16 25  1  0
 16 17  1  0
 18 12  1  0
 18 17  1  0
 19 12  2  0
 20 10  1  0
 21 20  1  0
 22 23  2  0
 23 42  1  0
 24 23  1  0
 24 27  1  0
 25 22  1  0
 25 26  1  0
 26 24  2  0
 27 28  1  0
 28 29  2  0
 30 33  1  0
 30 29  1  0
 31 30  2  0
 32 31  1  0
 32 27  2  0
 33 34  1  0
 34 35  1  0
 35 36  2  0
 37 36  1  0
 37 41  1  0
 38 37  2  0
 39 34  2  0
 39 38  1  0
 40 39  1  0
 42 43  1  0
 43 46  1  0
 43 45  1  0
 44 42  2  0
 47 48  1  0
 47 22  1  0
 49 47  1  0
 51 50  1  0
 51 52  1  0
 51  1  1  0
 53 64  2  0
 54 52  1  0
 54 59  1  0
 55 63  1  0
 55 65  1  0
 56 62  1  0
 56 58  1  0
 57 63  1  0
 58 57  1  0
 59 58  2  0
 60 54  2  0
 61 60  1  0
 61 56  2  0
 62 55  1  0
 63 53  1  0
 65 67  2  0
 66 65  1  0
 68 66  1  0
 69 78  2  0
 69 74  1  0
 70 66  1  0
 70 74  1  0
 71 70  1  0
 72 73  1  0
 72 71  1  0
 73 69  1  0
 74 75  2  0
 75 76  1  0
 77 76  2  0
 78 77  1  0
 79 53  1  0
 79 80  1  0
 79 89  1  0
 80 83  1  0
 81 85  1  0
 81 80  1  0
 82 81  2  0
 85 84  1  0
 87 85  1  0
 87 88  1  0
 87 86  1  0
 89 92  1  1
 89 90  1  0
 91 89  1  0
M  ISO  4  12 100  20 100  51 101  52 101
M  END
>  <TORSDO>  (79) 
F 18

>  <SCORE>  (79) 
-15.319

>  <name>  (79) 
78

>  <ligand_id>  (79) 
78

>  <original_smiles>  (79) 
[H]c1c([H])c([H])c2c(c1[H])C([H])([H])C([H])([H])C([H])([H])C2([H])N([H])C(=O)C1([H])N(C(=O)C([H])(N([H])C(=O)C([H])(N([H])C([H])([H])[H])C([H])([H])[H])C(C([H])([H])[H])(C([H])([H])[H])C([H])([H])[H])C([H])([H])c2c([H])c(OC([H])(C(=O)N([H])c3c([H])c(N([H])C(=O)N4C([H])([H])C([H])([H])C([H])([H])C([H])(n5nc(-c6c([H])c([H])c(Oc7c([H])c([H])c(F)c([H])c7F)c([H])c6[H])c(C(=O)N([H])[H])c5N([H])[H])C4([H])[H])c([H])c(C([H])([H])[H])c3[H])C([H])([H])[H])c([H])c([H])c2C1([H])[H]

>  <smiles>  (79) 
[H]c1c([H])c([H])c2c(c1[H])C([H])([H])C([H])([H])C([H])([H])C2([H])N([H])C(=O)C1([H])N(C(=O)C([H])(N([H])C(=O)C([H])(N([H])C([H])([H])[H])C([H])([H])[H])C(C([H])([H])[H])(C([H])([H])[H])C([H])([H])[H])C([H])([H])c2c([H])c(OC([H])(C(=O)N([H])c3c([H])c(N([H])C(=O)N4C([H])([H])C([H])([H])C([H])([H])C([H])(n5nc(-c6c([H])c([H])c(Oc7c([H])c([H])c(F)c([H])c7F)c([H])c6[H])c(C(=O)N([H])[H])c5N([H])[H])C4([H])[H])c([H])c(C([H])([H])[H])c3[H])C([H])([H])[H])c([H])c([H])c2C1([H])[H]

$$$$
79:0:0
     RDKit          3D

 95103  0  0  1  0  0  0  0  0999 V2000
  -28.7510  -21.2030   20.6150 C   0  0  0  0  0  0  0  0  0  0  0  0
  -28.1940  -23.7940   20.4110 C   0  0  0  0  0  0  0  0  0  0  0  0
  -28.9550  -22.5150   20.1540 N   0  0  0  0  0  0  0  0  0  0  0  0
  -27.6650  -20.9710   21.3610 N   0  0  0  0  0  4  0  0  0  0  0  0
  -27.2480  -23.7860   21.2070 O   0  0  0  0  0  0  0  0  0  0  0  0
  -29.7780  -22.5320   19.5660 H   0  0  0  0  0  0  0  0  0  0  0  0
  -27.4900  -20.0630   21.7640 H   0  0  0  0  0  0  0  0  0  0  0  0
  -27.0560  -21.7470   21.5920 H   0  0  0  0  0  0  0  0  0  0  0  0
  -31.5950  -17.8600   20.0320 C   0  0  0  0  0  3  0  0  0  0  0  0
  -31.9540  -19.2130   19.8640 C   0  0  0  0  0  3  0  0  0  0  0  0
  -29.3330  -18.5730   20.5320 C   0  0  0  0  0  3  0  0  0  0  0  0
  -29.6820  -19.9910   20.3750 C   0  0  0  0  0  0  0  0  0  0  0  0
  -30.2760  -17.4640   20.3650 C   0  0  0  0  0  0  0  0  0  0  0  0
  -31.0260  -20.2570   20.0270 C   0  0  0  0  0  0  0  0  0  0  0  0
  -31.4480  -21.5340   19.8370 F   0  0  0  0  0  0  0  0  0  0  0  0
  -30.6760  -14.8480   20.2350 C   0  0  0  0  0  0  0  0  0  0  0  0
  -30.4320  -12.5920   19.1870 C   0  0  0  0  0  2  0  0  0  0  0  0
  -29.4750  -12.6970   17.9810 C   0  0  0  0  0  2  0  0  0  0  0  0
  -28.0140  -12.5160   18.4340 C   0  0  0  0  0  2  0  0  0  0  0  0
  -27.6670  -13.3710   19.6830 C   0  0  0  0  0  3  0  0  0  0  0  0
  -28.7490  -13.2650   20.7810 C   0  0  0  0  0  2  0  0  0  0  0  0
  -30.0300  -13.6310   20.1670 N   0  0  0  0  0  0  0  0  0  0  0  0
  -31.8540  -14.9000   19.8750 O   0  0  0  0  0  0  0  0  0  0  0  0
  -29.9400  -16.0050   20.5140 N   0  0  0  0  0  0  0  0  0  0  0  0
  -28.9930  -15.8100   20.7980 H   0  0  0  0  0  0  0  0  0  0  0  0
  -25.2940  -13.9370   20.4620 C   0  0  0  0  0  0  0  0  0  0  0  0
  -24.2420  -13.1550   20.8490 C   0  0  0  0  0  0  0  0  0  0  0  0
  -24.7110  -11.8070   20.7950 C   0  0  0  0  0  0  0  0  0  0  0  0
  -26.3370  -13.0670   20.1960 N   0  0  0  0  0  0  0  0  0  0  0  0
  -25.9950  -11.7790   20.4600 N   0  0  0  0  0  0  0  0  0  0  0  0
  -23.9940  -10.5410   20.9900 C   0  0  0  0  0  0  0  0  0  0  0  0
  -24.4370   -9.5790   21.9250 C   0  0  0  0  0  3  0  0  0  0  0  0
  -23.7220   -8.3750   22.1060 C   0  0  0  0  0  3  0  0  0  0  0  0
  -22.5500   -8.1250   21.3540 C   0  0  0  0  0  0  0  0  0  0  0  0
  -22.1270   -9.0750   20.4090 C   0  0  0  0  0  3  0  0  0  0  0  0
  -22.8410  -10.2710   20.2250 C   0  0  0  0  0  3  0  0  0  0  0  0
  -21.8050   -6.9750   21.4460 O   0  0  0  0  0  0  0  0  0  0  0  0
  -21.7490   -6.2440   22.6060 C   0  0  0  0  0  0  0  0  0  0  0  0
  -21.2870   -6.8020   23.8170 C   0  0  0  0  0  3  0  0  0  0  0  0
  -21.1790   -5.9960   24.9680 C   0  0  0  0  0  3  0  0  0  0  0  0
  -21.5250   -4.6320   24.9090 C   0  0  0  0  0  0  0  0  0  0  0  0
  -21.9800   -4.0740   23.7020 C   0  0  0  0  0  3  0  0  0  0  0  0
  -22.0880   -4.8770   22.5540 C   0  0  0  0  0  0  0  0  0  0  0  0
  -22.5090   -4.3280   21.3880 F   0  0  0  0  0  0  0  0  0  0  0  0
  -21.4150   -3.8560   26.0120 F   0  0  0  0  0  0  0  0  0  0  0  0
  -22.8490  -13.6250   21.1520 C   0  0  0  0  0  0  0  0  0  0  0  0
  -22.1400  -12.9120   22.0210 N   0  0  0  0  0  0  0  0  0  0  0  0
  -22.3990  -14.6550   20.6540 O   0  0  0  0  0  0  0  0  0  0  0  0
  -22.5180  -12.0780   22.4450 H   0  0  0  0  0  0  0  0  0  0  0  0
  -21.2060  -13.2060   22.2670 H   0  0  0  0  0  0  0  0  0  0  0  0
  -25.4470  -15.3120   20.2870 N   0  0  0  0  0  0  0  0  0  0  0  0
  -24.6630  -15.9490   20.3820 H   0  0  0  0  0  0  0  0  0  0  0  0
  -26.2590  -15.7420   19.8660 H   0  0  0  0  0  0  0  0  0  0  0  0
  -28.5420  -25.1430   19.6090 C   0  0  0  0  0  2  0  0  0  0  0  0
  -28.3910  -26.4870   20.2810 O   0  0  0  0  0  0  0  0  0  0  0  0
  -24.6170  -31.9170   23.2400 C   0  0  0  0  0  0  0  0  0  0  0  0
  -27.2630  -27.3360   20.1840 C   0  0  0  0  0  0  0  0  0  0  0  0
  -23.4310  -30.5150   21.5920 C   0  0  0  0  0  3  0  0  0  0  0  0
  -24.8940  -28.9690   20.1630 C   0  0  0  0  0  0  0  0  0  0  0  0
  -25.9720  -30.8340   21.4250 C   0  0  0  0  0  2  0  0  0  0  0  0
  -26.0580  -29.4540   20.7730 C   0  0  0  0  0  0  0  0  0  0  0  0
  -27.2380  -28.6460   20.7770 C   0  0  0  0  0  3  0  0  0  0  0  0
  -26.0740  -26.9130   19.5520 C   0  0  0  0  0  3  0  0  0  0  0  0
  -24.9070  -27.7080   19.5440 C   0  0  0  0  0  3  0  0  0  0  0  0
  -23.6550  -29.8450   20.2100 C   0  0  0  0  0  2  0  0  0  0  0  0
  -24.6930  -31.1080   22.1410 N   0  0  0  0  0  0  0  0  0  0  0  0
  -23.5290  -32.1860   23.7700 O   0  0  0  0  0  0  0  0  0  0  0  0
  -22.7680  -29.4950   22.5490 C   0  0  0  0  0  0  0  0  0  0  0  0
  -21.4410  -29.3140   22.4250 N   0  0  0  0  0  0  0  0  0  0  0  0
  -23.4480  -28.8660   23.3640 O   0  0  0  0  0  0  0  0  0  0  0  0
  -20.9480  -29.8770   21.7460 H   0  0  0  0  0  0  0  0  0  0  0  0
  -18.0690  -28.1110   22.9330 C   0  0  0  0  0  0  0  0  0  0  0  0
  -20.6280  -28.3700   23.1930 C   0  0  0  0  0  3  0  0  0  0  0  0
  -20.7290  -26.9430   22.6070 C   0  0  0  0  0  2  0  0  0  0  0  0
  -19.6250  -26.6280   21.5940 C   0  0  0  0  0  2  0  0  0  0  0  0
  -18.2440  -26.7680   22.2440 C   0  0  0  0  0  2  0  0  0  0  0  0
  -19.1890  -28.8710   23.3650 C   0  0  0  0  0  0  0  0  0  0  0  0
  -18.9710  -30.1280   23.9670 C   0  0  0  0  0  3  0  0  0  0  0  0
  -17.6680  -30.6280   24.1430 C   0  0  0  0  0  3  0  0  0  0  0  0
  -16.5620  -29.8670   23.7260 C   0  0  0  0  0  3  0  0  0  0  0  0
  -16.7640  -28.6090   23.1270 C   0  0  0  0  0  3  0  0  0  0  0  0
  -25.8920  -32.5600   23.8700 C   0  0  0  0  0  3  0  0  0  0  0  0
  -25.5740  -33.9590   24.1890 N   0  0  0  0  0  0  0  0  0  0  0  0
  -25.9120  -35.0110   23.4310 C   0  0  0  0  0  0  0  0  0  0  0  0
  -26.5910  -34.9050   22.4060 O   0  0  0  0  0  0  0  0  0  0  0  0
  -24.9710  -34.1140   24.9830 H   0  0  0  0  0  0  0  0  0  0  0  0
  -24.1870  -36.8030   23.0520 C   0  0  0  0  0  1  0  0  0  0  0  0
  -25.4180  -36.4010   23.8800 C   0  0  0  0  0  3  0  0  0  0  0  0
  -27.5390  -37.2940   24.7330 C   0  0  0  0  0  1  0  0  0  0  0  0
  -26.4500  -37.4540   23.7750 N   0  0  0  0  0  0  0  0  0  0  0  0
  -26.0420  -38.3750   23.9070 H   0  0  0  0  0  0  0  0  0  0  0  0
  -26.3980  -31.8000   25.1590 C   0  0  1  0  0  0  0  0  0  0  0  0
  -25.2960  -31.5700   26.2180 C   0  0  0  0  0  1  0  0  0  0  0  0
  -26.9860  -30.4200   24.7860 C   0  0  0  0  0  1  0  0  0  0  0  0
  -27.5400  -32.6000   25.8280 C   0  0  0  0  0  1  0  0  0  0  0  0
  1  4  2  0
  2  5  2  0
  3  2  1  0
  3  1  1  0
  4  8  1  0
  4  7  1  0
  6  3  1  0
  9 13  1  0
 10 14  1  0
 10  9  2  0
 12 11  1  0
 12  1  1  0
 13 24  1  0
 13 11  2  0
 14 12  2  0
 15 14  1  0
 16 24  1  0
 17 22  1  0
 18 19  1  0
 18 17  1  0
 20 19  1  0
 20 29  1  0
 20 21  1  0
 22 16  1  0
 22 21  1  0
 23 16  2  0
 24 25  1  0
 26 27  2  0
 27 46  1  0
 28 27  1  0
 28 31  1  0
 29 30  1  0
 29 26  1  0
 30 28  2  0
 31 32  1  0
 32 33  2  0
 34 37  1  0
 34 33  1  0
 35 34  2  0
 36 35  1  0
 36 31  2  0
 37 38  1  0
 38 39  1  0
 39 40  2  0
 41 40  1  0
 41 45  1  0
 42 41  2  0
 43 38  2  0
 43 42  1  0
 44 43  1  0
 46 47  1  0
 47 50  1  0
 47 49  1  0
 48 46  2  0
 51 52  1  0
 51 26  1  0
 53 51  1  0
 54 55  1  0
 54  2  1  0
 56 67  2  0
 57 55  1  0
 57 62  1  0
 58 66  1  0
 58 68  1  0
 59 65  1  0
 59 61  1  0
 60 66  1  0
 61 62  2  0
 61 60  1  0
 63 57  2  0
 64 63  1  0
 64 59  2  0
 65 58  1  0
 66 56  1  0
 68 70  2  0
 69 68  1  0
 71 69  1  0
 72 81  2  0
 72 77  1  0
 73 69  1  0
 73 77  1  0
 74 73  1  0
 75 76  1  0
 75 74  1  0
 76 72  1  0
 77 78  2  0
 78 79  1  0
 80 79  2  0
 81 80  1  0
 82 56  1  0
 82 83  1  0
 82 92  1  0
 83 86  1  0
 84 88  1  0
 84 83  1  0
 85 84  2  0
 88 87  1  0
 90 88  1  0
 90 91  1  0
 90 89  1  0
 92 95  1  1
 92 93  1  0
 94 92  1  0
M  ISO  4  16 100  24 100  54 101  55 101
M  END
>  <TORSDO>  (80) 
F 18

>  <SCORE>  (80) 
-14.745

>  <name>  (80) 
79

>  <ligand_id>  (80) 
79

>  <original_smiles>  (80) 
[H]c1c([H])c([H])c2c(c1[H])C([H])([H])C([H])([H])C([H])([H])C2([H])N([H])C(=O)C1([H])N(C(=O)C([H])(N([H])C(=O)C([H])(N([H])C([H])([H])[H])C([H])([H])[H])C(C([H])([H])[H])(C([H])([H])[H])C([H])([H])[H])C([H])([H])c2c([H])c(OC([H])([H])C(=O)N([H])C(c3c([H])c(N([H])C(=O)N4C([H])([H])C([H])([H])C([H])([H])C([H])(n5nc(-c6c([H])c([H])c(Oc7c([H])c([H])c(F)c([H])c7F)c([H])c6[H])c(C(=O)N([H])[H])c5N([H])[H])C4([H])[H])c([H])c([H])c3F)=[N+]([H])[H])c([H])c([H])c2C1([H])[H]

>  <smiles>  (80) 
[H]c1c([H])c([H])c2c(c1[H])C([H])([H])C([H])([H])C([H])([H])C2([H])N([H])C(=O)C1([H])N(C(=O)C([H])(N([H])C(=O)C([H])(N([H])C([H])([H])[H])C([H])([H])[H])C(C([H])([H])[H])(C([H])([H])[H])C([H])([H])[H])C([H])([H])c2c([H])c(OC([H])([H])C(=O)N([H])C(c3c([H])c(N([H])C(=O)N4C([H])([H])C([H])([H])C([H])([H])C([H])(n5nc(-c6c([H])c([H])c(Oc7c([H])c([H])c(F)c([H])c7F)c([H])c6[H])c(C(=O)N([H])[H])c5N([H])[H])C4([H])[H])c([H])c([H])c3F)=[N+]([H])[H])c([H])c([H])c2C1([H])[H]

$$$$
80:0:0
     RDKit          3D

100108  0  0  1  0  0  0  0  0999 V2000
  -28.9360  -23.1720   20.8390 C   0  0  0  0  0  3  0  0  0  0  0  0
  -29.1120  -20.6710   20.1800 C   0  0  0  0  0  0  0  0  0  0  0  0
  -29.5940  -21.9250   20.3300 N   0  0  0  0  0  0  0  0  0  0  0  0
  -27.8280  -20.4400   20.4530 N   0  0  0  0  0  4  0  0  0  0  0  0
  -30.5300  -22.0650   19.9700 H   0  0  0  0  0  0  0  0  0  0  0  0
  -27.4620  -19.5130   20.3010 H   0  0  0  0  0  0  0  0  0  0  0  0
  -27.1670  -21.1920   20.5300 H   0  0  0  0  0  0  0  0  0  0  0  0
  -32.0330  -18.8560   18.6140 C   0  0  0  0  0  3  0  0  0  0  0  0
  -31.1300  -19.8680   18.9750 C   0  0  0  0  0  3  0  0  0  0  0  0
  -31.8030  -17.5260   19.0000 C   0  0  0  0  0  3  0  0  0  0  0  0
  -29.7580  -18.2030   20.1300 C   0  0  0  0  0  3  0  0  0  0  0  0
  -29.9970  -19.5610   19.7610 C   0  0  0  0  0  0  0  0  0  0  0  0
  -30.6390  -17.1560   19.7290 C   0  0  0  0  0  0  0  0  0  0  0  0
  -30.9790  -14.6590   19.6580 C   0  0  0  0  0  0  0  0  0  0  0  0
  -30.6000  -12.3850   18.7920 C   0  0  0  0  0  2  0  0  0  0  0  0
  -29.5800  -12.4610   17.6370 C   0  0  0  0  0  2  0  0  0  0  0  0
  -28.1470  -12.3480   18.1870 C   0  0  0  0  0  2  0  0  0  0  0  0
  -27.8820  -13.3030   19.3830 C   0  0  0  0  0  3  0  0  0  0  0  0
  -29.0220  -13.2440   20.4250 C   0  0  0  0  0  2  0  0  0  0  0  0
  -30.2920  -13.4830   19.7250 N   0  0  0  0  0  0  0  0  0  0  0  0
  -32.0810  -14.7110   19.1120 O   0  0  0  0  0  0  0  0  0  0  0  0
  -30.3320  -15.7810   20.0650 N   0  0  0  0  0  0  0  0  0  0  0  0
  -29.4350  -15.6150   20.4970 H   0  0  0  0  0  0  0  0  0  0  0  0
  -25.5950  -13.9550   20.3590 C   0  0  0  0  0  0  0  0  0  0  0  0
  -24.5410  -13.2040   20.8040 C   0  0  0  0  0  0  0  0  0  0  0  0
  -24.9450  -11.8400   20.6730 C   0  0  0  0  0  0  0  0  0  0  0  0
  -26.5770  -13.0510   19.9890 N   0  0  0  0  0  0  0  0  0  0  0  0
  -26.1950  -11.7720   20.2360 N   0  0  0  0  0  0  0  0  0  0  0  0
  -24.1930  -10.5950   20.8850 C   0  0  0  0  0  0  0  0  0  0  0  0
  -24.6180   -9.6260   21.8200 C   0  0  0  0  0  3  0  0  0  0  0  0
  -23.8680   -8.4480   22.0220 C   0  0  0  0  0  3  0  0  0  0  0  0
  -22.6770   -8.2310   21.2880 C   0  0  0  0  0  0  0  0  0  0  0  0
  -22.2680   -9.1890   20.3440 C   0  0  0  0  0  3  0  0  0  0  0  0
  -23.0200  -10.3590   20.1400 C   0  0  0  0  0  3  0  0  0  0  0  0
  -21.9010   -7.1020   21.3970 O   0  0  0  0  0  0  0  0  0  0  0  0
  -21.7760   -6.4250   22.5840 C   0  0  0  0  0  0  0  0  0  0  0  0
  -21.2680   -7.0460   23.7450 C   0  0  0  0  0  3  0  0  0  0  0  0
  -21.0900   -6.2960   24.9240 C   0  0  0  0  0  3  0  0  0  0  0  0
  -21.4130   -4.9260   24.9430 C   0  0  0  0  0  0  0  0  0  0  0  0
  -21.9150   -4.3040   23.7870 C   0  0  0  0  0  3  0  0  0  0  0  0
  -22.0920   -5.0510   22.6090 C   0  0  0  0  0  0  0  0  0  0  0  0
  -22.5550   -4.4440   21.4910 F   0  0  0  0  0  0  0  0  0  0  0  0
  -21.2340   -4.2030   26.0740 F   0  0  0  0  0  0  0  0  0  0  0  0
  -23.1970  -13.7160   21.2360 C   0  0  0  0  0  0  0  0  0  0  0  0
  -22.5420  -13.0190   22.1590 N   0  0  0  0  0  0  0  0  0  0  0  0
  -22.7420  -14.7690   20.7930 O   0  0  0  0  0  0  0  0  0  0  0  0
  -22.9270  -12.1660   22.5380 H   0  0  0  0  0  0  0  0  0  0  0  0
  -21.6450  -13.3430   22.4900 H   0  0  0  0  0  0  0  0  0  0  0  0
  -25.7940  -15.3270   20.2200 N   0  0  0  0  0  0  0  0  0  0  0  0
  -25.0620  -16.0000   20.4190 H   0  0  0  0  0  0  0  0  0  0  0  0
  -26.6200  -15.7450   19.8130 H   0  0  0  0  0  0  0  0  0  0  0  0
  -28.8790  -24.2840   19.7350 C   0  0  0  0  0  0  0  0  0  0  0  0
  -29.2630  -24.0770   18.5780 O   0  0  0  0  0  0  0  0  0  0  0  0
  -28.3350  -25.6750   20.1460 C   0  0  0  0  0  2  0  0  0  0  0  0
  -28.2990  -26.6570   19.0840 O   0  0  0  0  0  0  0  0  0  0  0  0
  -24.6780  -31.4230   22.9450 C   0  0  0  0  0  0  0  0  0  0  0  0
  -27.1680  -27.4350   19.1910 C   0  0  0  0  0  0  0  0  0  0  0  0
  -23.3770  -30.1510   21.2710 C   0  0  0  0  0  3  0  0  0  0  0  0
  -24.7470  -28.8460   19.5580 C   0  0  0  0  0  0  0  0  0  0  0  0
  -25.8630  -30.6360   20.8980 C   0  0  0  0  0  2  0  0  0  0  0  0
  -25.9380  -29.3480   20.1020 C   0  0  0  0  0  0  0  0  0  0  0  0
  -27.1550  -28.6500   19.9170 C   0  0  0  0  0  3  0  0  0  0  0  0
  -25.9670  -26.9620   18.6250 C   0  0  0  0  0  3  0  0  0  0  0  0
  -24.7570  -27.6550   18.8120 C   0  0  0  0  0  3  0  0  0  0  0  0
  -23.4850  -29.6400   19.8090 C   0  0  0  0  0  2  0  0  0  0  0  0
  -24.6620  -30.7460   21.7630 N   0  0  0  0  0  0  0  0  0  0  0  0
  -23.6410  -31.5900   23.6030 O   0  0  0  0  0  0  0  0  0  0  0  0
  -22.8500  -29.0060   22.1640 C   0  0  0  0  0  0  0  0  0  0  0  0
  -21.5470  -28.7000   22.0430 N   0  0  0  0  0  0  0  0  0  0  0  0
  -23.6090  -28.3970   22.9240 O   0  0  0  0  0  0  0  0  0  0  0  0
  -20.9900  -29.2510   21.4060 H   0  0  0  0  0  0  0  0  0  0  0  0
  -18.3520  -27.0530   22.3970 C   0  0  0  0  0  0  0  0  0  0  0  0
  -20.8440  -27.6370   22.7600 C   0  0  0  0  0  3  0  0  0  0  0  0
  -21.1510  -26.2530   22.1430 C   0  0  0  0  0  2  0  0  0  0  0  0
  -20.1320  -25.8230   21.0830 C   0  0  0  0  0  2  0  0  0  0  0  0
  -18.7250  -25.7630   21.6870 C   0  0  0  0  0  2  0  0  0  0  0  0
  -19.3470  -27.9400   22.8870 C   0  0  0  0  0  0  0  0  0  0  0  0
  -18.9450  -29.1420   23.5100 C   0  0  0  0  0  3  0  0  0  0  0  0
  -17.5810  -29.4610   23.6480 C   0  0  0  0  0  3  0  0  0  0  0  0
  -16.6010  -28.5710   23.1750 C   0  0  0  0  0  3  0  0  0  0  0  0
  -16.9860  -27.3690   22.5560 C   0  0  0  0  0  3  0  0  0  0  0  0
  -25.9930  -32.0410   23.5170 C   0  0  0  0  0  3  0  0  0  0  0  0
  -25.6720  -33.3860   24.0120 N   0  0  0  0  0  0  0  0  0  0  0  0
  -25.9510  -34.5220   23.3580 C   0  0  0  0  0  0  0  0  0  0  0  0
  -26.5780  -34.5470   22.2950 O   0  0  0  0  0  0  0  0  0  0  0  0
  -25.1090  -33.4380   24.8480 H   0  0  0  0  0  0  0  0  0  0  0  0
  -24.1860  -36.3100   23.2530 C   0  0  0  0  0  1  0  0  0  0  0  0
  -25.4550  -35.8400   23.9830 C   0  0  0  0  0  3  0  0  0  0  0  0
  -27.5970  -36.6640   24.8550 C   0  0  0  0  0  1  0  0  0  0  0  0
  -26.4670  -36.9180   23.9650 N   0  0  0  0  0  0  0  0  0  0  0  0
  -26.0510  -37.8070   24.2280 H   0  0  0  0  0  0  0  0  0  0  0  0
  -26.6450  -31.1670   24.6570 C   0  0  1  0  0  0  0  0  0  0  0  0
  -25.6620  -30.7880   25.7890 C   0  0  0  0  0  1  0  0  0  0  0  0
  -27.2250  -29.8570   24.0750 C   0  0  0  0  0  1  0  0  0  0  0  0
  -27.8320  -31.9310   25.2900 C   0  0  0  0  0  1  0  0  0  0  0  0
  -29.6770  -23.6940   22.1060 C   0  0  0  0  0  2  0  0  0  0  0  0
  -31.3140  -22.8240   23.7420 C   0  0  0  0  0  1  0  0  0  0  0  0
  -28.9230  -22.4410   24.1150 C   0  0  0  0  0  1  0  0  0  0  0  0
  -29.9890  -22.6320   23.1020 N   0  0  1  0  0  4  0  0  0  0  0  0
  -30.0680  -21.7670   22.5930 H   0  0  0  0  0  0  0  0  0  0  0  0
  1 96  1  0
  2  3  1  0
  2  4  2  0
  3  1  1  0
  4  7  1  0
  5  3  1  0
  6  4  1  0
  8  9  2  0
  8 10  1  0
  9 12  1  0
 10 13  2  0
 12 11  2  0
 12  2  1  0
 13 22  1  0
 13 11  1  0
 14 20  1  0
 14 22  1  0
 15 20  1  0
 16 17  1  0
 16 15  1  0
 18 17  1  0
 18 27  1  0
 18 19  1  0
 20 19  1  0
 21 14  2  0
 22 23  1  0
 24 25  2  0
 25 44  1  0
 26 25  1  0
 26 29  1  0
 27 28  1  0
 27 24  1  0
 28 26  2  0
 29 30  1  0
 30 31  2  0
 32 35  1  0
 32 31  1  0
 33 32  2  0
 34 33  1  0
 34 29  2  0
 35 36  1  0
 36 41  2  0
 36 37  1  0
 37 38  2  0
 38 39  1  0
 39 43  1  0
 40 39  2  0
 41 40  1  0
 42 41  1  0
 44 45  1  0
 45 48  1  0
 45 47  1  0
 46 44  2  0
 49 24  1  0
 49 50  1  0
 51 49  1  0
 52 54  1  0
 52  1  1  0
 53 52  2  0
 55 57  1  0
 55 54  1  0
 56 67  2  0
 57 62  1  0
 58 66  1  0
 58 68  1  0
 59 65  1  0
 59 61  1  0
 60 66  1  0
 61 60  1  0
 62 61  2  0
 63 64  1  0
 63 57  2  0
 64 59  2  0
 65 58  1  0
 66 56  1  0
 68 70  2  0
 69 68  1  0
 71 69  1  0
 72 81  2  0
 72 77  1  0
 73 69  1  0
 73 77  1  0
 74 73  1  0
 75 76  1  0
 75 74  1  0
 76 72  1  0
 77 78  2  0
 78 79  1  0
 80 79  2  0
 81 80  1  0
 82 56  1  0
 82 83  1  0
 82 92  1  0
 83 86  1  0
 84 88  1  0
 84 83  1  0
 85 84  2  0
 88 87  1  0
 90 88  1  0
 90 91  1  0
 90 89  1  0
 92 95  1  1
 92 93  1  0
 94 92  1  0
 96 99  1  0
 99 97  1  0
 99 98  1  0
 99100  1  6
M  ISO  4  14 100  22 100  54 101  55 101
M  END
>  <TORSDO>  (81) 
F 22

>  <SCORE>  (81) 
-9.589

>  <name>  (81) 
80

>  <ligand_id>  (81) 
80

>  <original_smiles>  (81) 
[H]c1c([H])c(C(N([H])C([H])(C(=O)C([H])([H])Oc2c([H])c([H])c3c(c2[H])C([H])([H])N(C(=O)C([H])(N([H])C(=O)C([H])(N([H])C([H])([H])[H])C([H])([H])[H])C(C([H])([H])[H])(C([H])([H])[H])C([H])([H])[H])C([H])(C(=O)N([H])C2([H])c4c([H])c([H])c([H])c([H])c4C([H])([H])C([H])([H])C2([H])[H])C3([H])[H])C([H])([H])[N+]([H])(C([H])([H])[H])C([H])([H])[H])=[N+]([H])[H])c([H])c(N([H])C(=O)N2C([H])([H])C([H])([H])C([H])([H])C([H])(n3nc(-c4c([H])c([H])c(Oc5c([H])c([H])c(F)c([H])c5F)c([H])c4[H])c(C(=O)N([H])[H])c3N([H])[H])C2([H])[H])c1[H]

>  <smiles>  (81) 
[H]c1c([H])c(C(N([H])C([H])(C(=O)C([H])([H])Oc2c([H])c([H])c3c(c2[H])C([H])([H])N(C(=O)C([H])(N([H])C(=O)C([H])(N([H])C([H])([H])[H])C([H])([H])[H])C(C([H])([H])[H])(C([H])([H])[H])C([H])([H])[H])C([H])(C(=O)N([H])C2([H])c4c([H])c([H])c([H])c([H])c4C([H])([H])C([H])([H])C2([H])[H])C3([H])[H])C([H])([H])[N+]([H])(C([H])([H])[H])C([H])([H])[H])=[N+]([H])[H])c([H])c(N([H])C(=O)N2C([H])([H])C([H])([H])C([H])([H])C([H])(n3nc(-c4c([H])c([H])c(Oc5c([H])c([H])c(F)c([H])c5F)c([H])c4[H])c(C(=O)N([H])[H])c3N([H])[H])C2([H])[H])c1[H]

$$$$
81:0:0
     RDKit          3D

 93101  0  0  1  0  0  0  0  0999 V2000
  -29.1160  -22.3190   19.7070 C   0  0  0  0  0  0  0  0  0  0  0  0
  -29.4640  -21.1360   20.3520 N   0  0  0  0  0  0  0  0  0  0  0  0
  -28.7960  -22.2980   18.5160 O   0  0  0  0  0  0  0  0  0  0  0  0
  -29.5160  -21.2030   21.3600 H   0  0  0  0  0  0  0  0  0  0  0  0
  -30.6880  -19.8950   18.5910 C   0  0  0  0  0  3  0  0  0  0  0  0
  -31.0350  -17.4750   18.5700 C   0  0  0  0  0  3  0  0  0  0  0  0
  -29.7340  -18.5070   20.3590 C   0  0  0  0  0  0  0  0  0  0  0  0
  -29.9190  -19.8390   19.7760 C   0  0  0  0  0  0  0  0  0  0  0  0
  -30.2990  -17.2940   19.7660 C   0  0  0  0  0  0  0  0  0  0  0  0
  -31.2300  -18.7430   17.9990 C   0  0  0  0  0  0  0  0  0  0  0  0
  -28.9170  -18.3550   21.6300 C   0  0  0  0  0  1  0  0  0  0  0  0
  -31.9540  -18.8560   16.8600 F   0  0  0  0  0  0  0  0  0  0  0  0
  -30.8230  -14.7510   19.9660 C   0  0  0  0  0  0  0  0  0  0  0  0
  -30.5290  -12.5090   18.9260 C   0  0  0  0  0  2  0  0  0  0  0  0
  -29.5320  -12.6350   17.7540 C   0  0  0  0  0  2  0  0  0  0  0  0
  -28.0860  -12.4650   18.2570 C   0  0  0  0  0  2  0  0  0  0  0  0
  -27.7860  -13.3150   19.5210 C   0  0  0  0  0  3  0  0  0  0  0  0
  -28.9040  -13.1930   20.5800 C   0  0  0  0  0  2  0  0  0  0  0  0
  -30.1710  -13.5400   19.9290 N   0  0  0  0  0  0  0  0  0  0  0  0
  -31.9930  -14.8220   19.5770 O   0  0  0  0  0  0  0  0  0  0  0  0
  -30.1060  -15.9020   20.2670 N   0  0  0  0  0  0  0  0  0  0  0  0
  -29.2410  -15.7370   20.7610 H   0  0  0  0  0  0  0  0  0  0  0  0
  -25.4420  -13.8810   20.3950 C   0  0  0  0  0  0  0  0  0  0  0  0
  -24.3980  -13.0970   20.8010 C   0  0  0  0  0  0  0  0  0  0  0  0
  -24.8570  -11.7470   20.7060 C   0  0  0  0  0  0  0  0  0  0  0  0
  -26.4700  -13.0100   20.0760 N   0  0  0  0  0  0  0  0  0  0  0  0
  -26.1290  -11.7200   20.3260 N   0  0  0  0  0  0  0  0  0  0  0  0
  -24.1400  -10.4800   20.8990 C   0  0  0  0  0  0  0  0  0  0  0  0
  -24.5600   -9.5310   21.8570 C   0  0  0  0  0  3  0  0  0  0  0  0
  -23.8410   -8.3280   22.0380 C   0  0  0  0  0  3  0  0  0  0  0  0
  -22.6890   -8.0660   21.2590 C   0  0  0  0  0  0  0  0  0  0  0  0
  -22.2880   -9.0040   20.2910 C   0  0  0  0  0  3  0  0  0  0  0  0
  -23.0070  -10.1970   20.1090 C   0  0  0  0  0  3  0  0  0  0  0  0
  -21.9430   -6.9160   21.3480 O   0  0  0  0  0  0  0  0  0  0  0  0
  -21.7940   -6.2440   22.5350 C   0  0  0  0  0  0  0  0  0  0  0  0
  -21.2230   -6.8570   23.6710 C   0  0  0  0  0  3  0  0  0  0  0  0
  -21.0250   -6.1100   24.8490 C   0  0  0  0  0  3  0  0  0  0  0  0
  -21.3880   -4.7510   24.8920 C   0  0  0  0  0  0  0  0  0  0  0  0
  -21.9520   -4.1370   23.7600 C   0  0  0  0  0  3  0  0  0  0  0  0
  -22.1520   -4.8820   22.5840 C   0  0  0  0  0  0  0  0  0  0  0  0
  -22.6770   -4.2800   21.4890 F   0  0  0  0  0  0  0  0  0  0  0  0
  -21.1910   -4.0300   26.0210 F   0  0  0  0  0  0  0  0  0  0  0  0
  -23.0170  -13.5660   21.1610 C   0  0  0  0  0  0  0  0  0  0  0  0
  -22.3370  -12.8460   22.0450 N   0  0  0  0  0  0  0  0  0  0  0  0
  -22.5530  -14.6050   20.6920 O   0  0  0  0  0  0  0  0  0  0  0  0
  -22.7260  -12.0070   22.4470 H   0  0  0  0  0  0  0  0  0  0  0  0
  -21.4120  -13.1420   22.3270 H   0  0  0  0  0  0  0  0  0  0  0  0
  -25.5970  -15.2570   20.2460 N   0  0  0  0  0  0  0  0  0  0  0  0
  -24.8330  -15.9040   20.4070 H   0  0  0  0  0  0  0  0  0  0  0  0
  -26.4150  -15.7030   19.8490 H   0  0  0  0  0  0  0  0  0  0  0  0
  -29.0890  -23.7450   20.4330 C   0  0  0  0  0  3  0  0  0  0  0  0
  -28.1560  -24.9260   19.8420 C   0  0  0  0  0  3  0  0  0  0  0  0
  -28.3300  -26.3780   20.2030 O   0  0  0  0  0  0  0  0  0  0  0  0
  -24.6020  -31.8530   23.1510 C   0  0  0  0  0  0  0  0  0  0  0  0
  -27.2300  -27.2630   20.1120 C   0  0  0  0  0  0  0  0  0  0  0  0
  -23.4090  -30.4520   21.5090 C   0  0  0  0  0  3  0  0  0  0  0  0
  -24.8690  -28.9040   20.0850 C   0  0  0  0  0  0  0  0  0  0  0  0
  -25.9530  -30.7620   21.3410 C   0  0  0  0  0  2  0  0  0  0  0  0
  -26.0360  -29.3820   20.6940 C   0  0  0  0  0  0  0  0  0  0  0  0
  -27.2170  -28.5730   20.6990 C   0  0  0  0  0  3  0  0  0  0  0  0
  -26.0440  -26.8640   19.4510 C   0  0  0  0  0  3  0  0  0  0  0  0
  -24.8780  -27.6530   19.4510 C   0  0  0  0  0  3  0  0  0  0  0  0
  -23.6310  -29.7770   20.1300 C   0  0  0  0  0  2  0  0  0  0  0  0
  -24.6740  -31.0410   22.0550 N   0  0  0  0  0  0  0  0  0  0  0  0
  -23.5150  -32.1300   23.6780 O   0  0  0  0  0  0  0  0  0  0  0  0
  -22.7430  -29.4340   22.4660 C   0  0  0  0  0  0  0  0  0  0  0  0
  -21.4160  -29.2650   22.3440 N   0  0  0  0  0  0  0  0  0  0  0  0
  -23.4210  -28.8010   23.2800 O   0  0  0  0  0  0  0  0  0  0  0  0
  -20.9280  -29.8290   21.6610 H   0  0  0  0  0  0  0  0  0  0  0  0
  -18.0300  -28.0940   22.8610 C   0  0  0  0  0  0  0  0  0  0  0  0
  -20.5930  -28.3300   23.1140 C   0  0  0  0  0  3  0  0  0  0  0  0
  -20.6780  -26.9020   22.5290 C   0  0  0  0  0  2  0  0  0  0  0  0
  -19.5670  -26.5950   21.5200 C   0  0  0  0  0  2  0  0  0  0  0  0
  -18.1900  -26.7480   22.1750 C   0  0  0  0  0  2  0  0  0  0  0  0
  -19.1580  -28.8440   23.2880 C   0  0  0  0  0  0  0  0  0  0  0  0
  -18.9550  -30.1050   23.8900 C   0  0  0  0  0  3  0  0  0  0  0  0
  -17.6550  -30.6160   24.0680 C   0  0  0  0  0  3  0  0  0  0  0  0
  -16.5420  -29.8630   23.6560 C   0  0  0  0  0  3  0  0  0  0  0  0
  -16.7300  -28.6040   23.0580 C   0  0  0  0  0  3  0  0  0  0  0  0
  -25.8800  -32.4900   23.7780 C   0  0  0  0  0  3  0  0  0  0  0  0
  -26.4150  -31.6980   25.0350 C   0  0  1  0  0  0  0  0  0  0  0  0
  -25.3300  -31.4180   26.1020 C   0  0  0  0  0  1  0  0  0  0  0  0
  -27.0200  -30.3410   24.6100 C   0  0  0  0  0  1  0  0  0  0  0  0
  -27.5550  -32.4970   25.7100 C   0  0  0  0  0  1  0  0  0  0  0  0
  -25.5520  -33.8760   24.1450 N   0  0  0  0  0  0  0  0  0  0  0  0
  -25.8500  -34.9510   23.4030 C   0  0  0  0  0  0  0  0  0  0  0  0
  -26.5010  -34.8810   22.3560 O   0  0  0  0  0  0  0  0  0  0  0  0
  -24.9720  -34.0020   24.9620 H   0  0  0  0  0  0  0  0  0  0  0  0
  -24.0850  -36.7220   23.1240 C   0  0  0  0  0  1  0  0  0  0  0  0
  -25.3490  -36.3210   23.9010 C   0  0  0  0  0  3  0  0  0  0  0  0
  -27.4800  -37.2290   24.7170 C   0  0  0  0  0  1  0  0  0  0  0  0
  -26.3610  -37.3940   23.7920 N   0  0  0  0  0  0  0  0  0  0  0  0
  -25.9420  -38.3030   23.9600 H   0  0  0  0  0  0  0  0  0  0  0  0
  1  2  1  0
  1 51  1  0
  2  4  1  0
  3  1  2  0
  5  8  1  0
  6  9  2  0
  7 11  1  0
  8  2  1  0
  8  7  2  0
  9 21  1  0
  9  7  1  0
 10  6  1  0
 10  5  2  0
 12 10  1  0
 13 21  1  0
 14 19  1  0
 15 16  1  0
 15 14  1  0
 17 16  1  0
 17 26  1  0
 17 18  1  0
 19 13  1  0
 19 18  1  0
 20 13  2  0
 21 22  1  0
 23 24  2  0
 24 43  1  0
 25 24  1  0
 25 28  1  0
 26 27  1  0
 26 23  1  0
 27 25  2  0
 28 29  1  0
 29 30  2  0
 31 34  1  0
 31 30  1  0
 32 31  2  0
 33 32  1  0
 33 28  2  0
 34 35  1  0
 35 40  2  0
 35 36  1  0
 36 37  2  0
 37 38  1  0
 38 42  1  0
 39 38  2  0
 40 39  1  0
 41 40  1  0
 43 44  1  0
 44 47  1  0
 44 46  1  0
 45 43  2  0
 48 23  1  0
 48 49  1  0
 50 48  1  0
 52 53  1  0
 52 51  2  0
 54 65  2  0
 55 53  1  0
 55 60  1  0
 56 64  1  0
 56 66  1  0
 57 63  1  0
 57 59  1  0
 58 64  1  0
 59 60  2  0
 59 58  1  0
 61 55  2  0
 62 61  1  0
 62 57  2  0
 63 56  1  0
 64 54  1  0
 66 68  2  0
 67 66  1  0
 69 67  1  0
 70 79  2  0
 70 75  1  0
 71 67  1  0
 71 75  1  0
 72 71  1  0
 73 74  1  0
 73 72  1  0
 74 70  1  0
 75 76  2  0
 76 77  1  0
 78 77  2  0
 79 78  1  0
 80 54  1  0
 80 85  1  0
 80 81  1  0
 81 84  1  1
 81 82  1  0
 83 81  1  0
 85 88  1  0
 86 90  1  0
 86 85  1  0
 87 86  2  0
 90 89  1  0
 92 90  1  0
 92 93  1  0
 92 91  1  0
M  ISO  4  13 100  21 100  52 101  53 101
M  END
>  <TORSDO>  (82) 
F 19

>  <SCORE>  (82) 
-12.932

>  <name>  (82) 
81

>  <ligand_id>  (82) 
81

>  <original_smiles>  (82) 
[H]c1c([H])c([H])c2c(c1[H])C([H])([H])C([H])([H])C([H])([H])C2([H])N([H])C(=O)C1([H])N(C(=O)C([H])(N([H])C(=O)C([H])(N([H])C([H])([H])[H])C([H])([H])[H])C(C([H])([H])[H])(C([H])([H])[H])C([H])([H])[H])C([H])([H])c2c([H])c(OC([H])([H])C([H])([H])C(=O)N([H])c3c([H])c(F)c([H])c(N([H])C(=O)N4C([H])([H])C([H])([H])C([H])([H])C([H])(n5nc(-c6c([H])c([H])c(Oc7c([H])c([H])c(F)c([H])c7F)c([H])c6[H])c(C(=O)N([H])[H])c5N([H])[H])C4([H])[H])c3C([H])([H])[H])c([H])c([H])c2C1([H])[H]

>  <smiles>  (82) 
[H]c1c([H])c([H])c2c(c1[H])C([H])([H])C([H])([H])C([H])([H])C2([H])N([H])C(=O)C1([H])N(C(=O)C([H])(N([H])C(=O)C([H])(N([H])C([H])([H])[H])C([H])([H])[H])C(C([H])([H])[H])(C([H])([H])[H])C([H])([H])[H])C([H])([H])c2c([H])c(OC([H])([H])C([H])([H])C(=O)N([H])c3c([H])c(F)c([H])c(N([H])C(=O)N4C([H])([H])C([H])([H])C([H])([H])C([H])(n5nc(-c6c([H])c([H])c(Oc7c([H])c([H])c(F)c([H])c7F)c([H])c6[H])c(C(=O)N([H])[H])c5N([H])[H])C4([H])[H])c3C([H])([H])[H])c([H])c([H])c2C1([H])[H]

$$$$
82:0:0
     RDKit          3D

101110  0  0  1  0  0  0  0  0999 V2000
  -28.7310  -17.7540   20.3620 C   0  0  0  0  0  3  0  0  0  0  0  0
  -30.7720  -18.0440   21.5990 C   0  0  0  0  0  3  0  0  0  0  0  0
  -29.5920  -20.0580   20.6910 C   0  0  0  0  0  0  0  0  0  0  0  0
  -29.8140  -17.1470   21.0580 C   0  0  0  0  0  0  0  0  0  0  0  0
  -28.6120  -19.1660   20.1600 C   0  0  0  0  0  0  0  0  0  0  0  0
  -30.6630  -19.4580   21.4190 C   0  0  0  0  0  0  0  0  0  0  0  0
  -31.6200  -20.2510   21.9630 F   0  0  0  0  0  0  0  0  0  0  0  0
  -30.7210  -14.7000   20.7730 C   0  0  0  0  0  0  0  0  0  0  0  0
  -30.6090  -12.5140   19.5840 C   0  0  0  0  0  2  0  0  0  0  0  0
  -29.6830  -12.6860   18.3580 C   0  0  0  0  0  2  0  0  0  0  0  0
  -28.2030  -12.4880   18.7440 C   0  0  0  0  0  2  0  0  0  0  0  0
  -27.8080  -13.2680   20.0250 C   0  0  0  0  0  3  0  0  0  0  0  0
  -28.8460  -13.0490   21.1500 C   0  0  0  0  0  2  0  0  0  0  0  0
  -30.1580  -13.4580   20.6230 N   0  0  0  0  0  0  0  0  0  0  0  0
  -31.8850  -14.9250   20.4290 O   0  0  0  0  0  0  0  0  0  0  0  0
  -29.8420  -15.6820   21.1630 N   0  0  0  0  0  0  0  0  0  0  0  0
  -28.9570  -15.2800   21.4250 H   0  0  0  0  0  0  0  0  0  0  0  0
  -25.4070  -13.8090   20.7590 C   0  0  0  0  0  0  0  0  0  0  0  0
  -24.3360  -13.0080   21.0510 C   0  0  0  0  0  0  0  0  0  0  0  0
  -24.7970  -11.6650   20.9060 C   0  0  0  0  0  0  0  0  0  0  0  0
  -26.4530  -12.9490   20.4620 N   0  0  0  0  0  0  0  0  0  0  0  0
  -26.0910  -11.6490   20.6100 N   0  0  0  0  0  0  0  0  0  0  0  0
  -24.0660  -10.3920   20.9700 C   0  0  0  0  0  0  0  0  0  0  0  0
  -24.4950   -9.3410   21.8100 C   0  0  0  0  0  3  0  0  0  0  0  0
  -23.7690   -8.1330   21.8720 C   0  0  0  0  0  3  0  0  0  0  0  0
  -22.6000   -7.9690   21.0910 C   0  0  0  0  0  0  0  0  0  0  0  0
  -22.1870   -9.0090   20.2420 C   0  0  0  0  0  3  0  0  0  0  0  0
  -22.9150  -10.2100   20.1780 C   0  0  0  0  0  3  0  0  0  0  0  0
  -21.8480   -6.8220   21.0680 O   0  0  0  0  0  0  0  0  0  0  0  0
  -21.7410   -6.0040   22.1640 C   0  0  0  0  0  0  0  0  0  0  0  0
  -21.2540   -6.4790   23.4020 C   0  0  0  0  0  3  0  0  0  0  0  0
  -21.0960   -5.5910   24.4830 C   0  0  0  0  0  3  0  0  0  0  0  0
  -21.4160   -4.2280   24.3290 C   0  0  0  0  0  0  0  0  0  0  0  0
  -21.8990   -3.7510   23.0980 C   0  0  0  0  0  3  0  0  0  0  0  0
  -22.0570   -4.6380   22.0170 C   0  0  0  0  0  0  0  0  0  0  0  0
  -22.5010   -4.1680   20.8250 F   0  0  0  0  0  0  0  0  0  0  0  0
  -21.2560   -3.3730   25.3660 F   0  0  0  0  0  0  0  0  0  0  0  0
  -22.9360  -13.4620   21.3470 C   0  0  0  0  0  0  0  0  0  0  0  0
  -22.2080  -12.7070   22.1630 N   0  0  0  0  0  0  0  0  0  0  0  0
  -22.4920  -14.5160   20.8920 O   0  0  0  0  0  0  0  0  0  0  0  0
  -22.5790  -11.8540   22.5540 H   0  0  0  0  0  0  0  0  0  0  0  0
  -21.2650  -12.9850   22.4000 H   0  0  0  0  0  0  0  0  0  0  0  0
  -25.5790  -15.1860   20.6990 N   0  0  0  0  0  0  0  0  0  0  0  0
  -24.8540  -15.8540   20.9420 H   0  0  0  0  0  0  0  0  0  0  0  0
  -26.4190  -15.6410   20.3650 H   0  0  0  0  0  0  0  0  0  0  0  0
  -30.1330  -22.1110   19.3970 C   0  0  0  0  0  0  0  0  0  0  0  0
  -28.7280  -22.5190   21.1610 C   0  0  0  0  0  2  0  0  0  0  0  0
  -29.7650  -23.6090   19.2810 C   0  0  0  0  0  3  0  0  0  0  0  0
  -29.1630  -23.9510   20.6600 C   0  0  0  0  0  3  0  0  0  0  0  0
  -29.5590  -21.5090   20.4550 N   0  0  0  0  0  0  0  0  0  0  0  0
  -30.8740  -21.5560   18.5790 O   0  0  0  0  0  0  0  0  0  0  0  0
  -30.6950  -25.9870   18.7270 C   0  0  0  0  0  1  0  0  0  0  0  0
  -30.9620  -24.4760   18.8120 C   0  0  0  0  0  2  0  0  0  0  0  0
  -28.0210  -25.0570   20.6890 C   0  0  0  0  0  2  0  0  0  0  0  0
  -28.3140  -26.4520   20.3010 O   0  0  0  0  0  0  0  0  0  0  0  0
  -24.6690  -31.8450   23.3780 C   0  0  0  0  0  0  0  0  0  0  0  0
  -27.2340  -27.3360   20.2510 C   0  0  0  0  0  0  0  0  0  0  0  0
  -23.4820  -30.5580   21.6370 C   0  0  0  0  0  3  0  0  0  0  0  0
  -24.9320  -29.0170   20.2070 C   0  0  0  0  0  0  0  0  0  0  0  0
  -26.0340  -30.7970   21.5620 C   0  0  0  0  0  2  0  0  0  0  0  0
  -26.0900  -29.4440   20.8680 C   0  0  0  0  0  0  0  0  0  0  0  0
  -27.2480  -28.6140   20.8830 C   0  0  0  0  0  3  0  0  0  0  0  0
  -26.0650  -26.9700   19.5450 C   0  0  0  0  0  3  0  0  0  0  0  0
  -24.9190  -27.7840   19.5370 C   0  0  0  0  0  3  0  0  0  0  0  0
  -23.7250  -29.9330   20.2390 C   0  0  0  0  0  2  0  0  0  0  0  0
  -24.7450  -31.0810   22.2500 N   0  0  0  0  0  0  0  0  0  0  0  0
  -23.5760  -32.1400   23.8840 O   0  0  0  0  0  0  0  0  0  0  0  0
  -22.7520  -29.5250   22.5280 C   0  0  0  0  0  0  0  0  0  0  0  0
  -21.4330  -29.3740   22.3170 N   0  0  0  0  0  0  0  0  0  0  0  0
  -23.3710  -28.8660   23.3660 O   0  0  0  0  0  0  0  0  0  0  0  0
  -20.9970  -29.9580   21.6170 H   0  0  0  0  0  0  0  0  0  0  0  0
  -18.0040  -28.2710   22.6240 C   0  0  0  0  0  0  0  0  0  0  0  0
  -20.5540  -28.4350   23.0150 C   0  0  0  0  0  3  0  0  0  0  0  0
  -20.6360  -27.0250   22.3880 C   0  0  0  0  0  2  0  0  0  0  0  0
  -19.5700  -26.7790   21.3130 C   0  0  0  0  0  2  0  0  0  0  0  0
  -18.1670  -26.9450   21.9020 C   0  0  0  0  0  2  0  0  0  0  0  0
  -19.1250  -28.9780   23.1330 C   0  0  0  0  0  0  0  0  0  0  0  0
  -18.9200  -30.2220   23.7670 C   0  0  0  0  0  3  0  0  0  0  0  0
  -17.6260  -30.7600   23.8970 C   0  0  0  0  0  3  0  0  0  0  0  0
  -16.5180  -30.0490   23.4030 C   0  0  0  0  0  3  0  0  0  0  0  0
  -16.7080  -28.8070   22.7740 C   0  0  0  0  0  3  0  0  0  0  0  0
  -25.9490  -32.4030   24.0730 C   0  0  0  0  0  3  0  0  0  0  0  0
  -25.7060  -33.8200   24.3750 N   0  0  0  0  0  0  0  0  0  0  0  0
  -26.1670  -34.8440   23.6440 C   0  0  0  0  0  0  0  0  0  0  0  0
  -26.9110  -34.6890   22.6710 O   0  0  0  0  0  0  0  0  0  0  0  0
  -25.0570  -34.0190   25.1220 H   0  0  0  0  0  0  0  0  0  0  0  0
  -24.6170  -36.7550   23.1260 C   0  0  0  0  0  1  0  0  0  0  0  0
  -25.7350  -36.2640   24.0580 C   0  0  0  0  0  3  0  0  0  0  0  0
  -27.8320  -36.9940   25.1090 C   0  0  0  0  0  1  0  0  0  0  0  0
  -26.8470  -37.2390   24.0580 N   0  0  0  0  0  0  0  0  0  0  0  0
  -26.4950  -38.1870   24.1680 H   0  0  0  0  0  0  0  0  0  0  0  0
  -26.3390  -31.6150   25.3840 C   0  0  1  0  0  0  0  0  0  0  0  0
  -25.1710  -31.4630   26.3870 C   0  0  0  0  0  1  0  0  0  0  0  0
  -26.8510  -30.1980   25.0380 C   0  0  0  0  0  1  0  0  0  0  0  0
  -27.4980  -32.3420   26.1050 C   0  0  0  0  0  1  0  0  0  0  0  0
  -27.5610  -19.6750   19.3770 N   0  0  0  0  0  0  0  0  0  0  0  0
  -27.3520  -20.6510   19.5230 H   0  0  0  0  0  0  0  0  0  0  0  0
  -25.3910  -20.1210   17.6680 C   0  0  0  0  0  1  0  0  0  0  0  0
  -26.9180  -17.9240   17.6090 O   0  0  0  0  0  0  0  0  0  0  0  0
  -25.4260  -18.2970   19.6520 O   0  0  0  0  0  0  0  0  0  0  0  0
  -26.2820  -18.8260   18.5790 S   0  0  1  0  0  0  0  0  0  0  0  0
  1  4  1  0
  3  6  2  0
  4 16  1  0
  4  2  2  0
  5  1  2  0
  5  3  1  0
  6  2  1  0
  6  7  1  0
  8 16  1  0
  9 14  1  0
 10 11  1  0
 10  9  1  0
 12 11  1  0
 12 21  1  0
 12 13  1  0
 14  8  1  0
 14 13  1  0
 15  8  2  0
 16 17  1  0
 18 19  2  0
 19 38  1  0
 20 23  1  0
 20 19  1  0
 21 22  1  0
 21 18  1  0
 22 20  2  0
 23 24  1  0
 24 25  2  0
 26 25  1  0
 27 26  2  0
 28 27  1  0
 28 23  2  0
 29 26  1  0
 29 30  1  0
 30 31  1  0
 31 32  2  0
 33 32  1  0
 33 37  1  0
 34 33  2  0
 35 30  2  0
 35 34  1  0
 36 35  1  0
 38 39  1  0
 39 42  1  0
 39 41  1  0
 40 38  2  0
 43 18  1  0
 43 44  1  0
 45 43  1  0
 46 50  1  0
 48 53  1  0
 48 46  1  0
 48 49  1  0
 49 54  1  0
 49 47  1  0
 50  3  1  0
 50 47  1  0
 51 46  2  0
 52 53  1  0
 55 54  1  0
 56 67  2  0
 57 55  1  0
 57 62  1  0
 58 66  1  0
 58 68  1  0
 59 65  1  0
 59 61  1  0
 60 66  1  0
 61 62  2  0
 61 60  1  0
 63 57  2  0
 64 63  1  0
 64 59  2  0
 65 58  1  0
 66 56  1  0
 68 70  2  0
 69 68  1  0
 71 69  1  0
 72 81  2  0
 72 77  1  0
 73 69  1  0
 73 77  1  0
 74 73  1  0
 75 76  1  0
 75 74  1  0
 76 72  1  0
 77 78  2  0
 78 79  1  0
 80 79  2  0
 81 80  1  0
 82 56  1  0
 82 83  1  0
 82 92  1  0
 83 86  1  0
 84 88  1  0
 84 83  1  0
 85 84  2  0
 88 87  1  0
 90 88  1  0
 90 91  1  0
 90 89  1  0
 92 95  1  1
 92 93  1  0
 94 92  1  0
 96 97  1  0
 96  5  1  0
101 98  1  6
 99101  2  0
101 96  1  0
101100  2  0
M  ISO  4   8 100  16 100  54 101  55 101
M  END
>  <TORSDO>  (83) 
F 21

>  <SCORE>  (83) 
-11.374

>  <name>  (83) 
82

>  <ligand_id>  (83) 
82

>  <original_smiles>  (83) 
[H]c1c([H])c([H])c2c(c1[H])C([H])([H])C([H])([H])C([H])([H])C2([H])N([H])C(=O)C1([H])N(C(=O)C([H])(N([H])C(=O)C([H])(N([H])C([H])([H])[H])C([H])([H])[H])C(C([H])([H])[H])(C([H])([H])[H])C([H])([H])[H])C([H])([H])c2c([H])c(OC([H])([H])C3([H])C([H])([H])N(c4c(F)c([H])c(N([H])C(=O)N5C([H])([H])C([H])([H])C([H])([H])C([H])(n6nc(-c7c([H])c([H])c(Oc8c([H])c([H])c(F)c([H])c8F)c([H])c7[H])c(C(=O)N([H])[H])c6N([H])[H])C5([H])[H])c([H])c4N([H])S(=O)(=O)C([H])([H])[H])C(=O)C3([H])C([H])([H])C([H])([H])[H])c([H])c([H])c2C1([H])[H]

>  <smiles>  (83) 
[H]c1c([H])c([H])c2c(c1[H])C([H])([H])C([H])([H])C([H])([H])C2([H])N([H])C(=O)C1([H])N(C(=O)C([H])(N([H])C(=O)C([H])(N([H])C([H])([H])[H])C([H])([H])[H])C(C([H])([H])[H])(C([H])([H])[H])C([H])([H])[H])C([H])([H])c2c([H])c(OC([H])([H])C3([H])C([H])([H])N(c4c(F)c([H])c(N([H])C(=O)N5C([H])([H])C([H])([H])C([H])([H])C([H])(n6nc(-c7c([H])c([H])c(Oc8c([H])c([H])c(F)c([H])c8F)c([H])c7[H])c(C(=O)N([H])[H])c6N([H])[H])C5([H])[H])c([H])c4N([H])S(=O)(=O)C([H])([H])[H])C(=O)C3([H])C([H])([H])C([H])([H])[H])c([H])c([H])c2C1([H])[H]

$$$$
83:0:0
     RDKit          3D

 92100  0  0  1  0  0  0  0  0999 V2000
  -28.8340  -22.4890   19.5740 C   0  0  0  0  0  0  0  0  0  0  0  0
  -29.0830  -21.2980   20.2770 N   0  0  0  0  0  0  0  0  0  0  0  0
  -28.7250  -22.4520   18.3470 O   0  0  0  0  0  0  0  0  0  0  0  0
  -28.9380  -21.3660   21.2750 H   0  0  0  0  0  0  0  0  0  0  0  0
  -29.4230  -18.6430   20.4390 C   0  0  0  0  0  3  0  0  0  0  0  0
  -30.3820  -19.9390   18.6190 C   0  0  0  0  0  3  0  0  0  0  0  0
  -30.7630  -17.5120   18.7530 C   0  0  0  0  0  3  0  0  0  0  0  0
  -29.5890  -19.9580   19.7910 C   0  0  0  0  0  0  0  0  0  0  0  0
  -30.0110  -17.3840   19.9440 C   0  0  0  0  0  0  0  0  0  0  0  0
  -30.9430  -18.7520   18.1100 C   0  0  0  0  0  0  0  0  0  0  0  0
  -31.6720  -18.8010   16.9700 F   0  0  0  0  0  0  0  0  0  0  0  0
  -30.5760  -14.8260   20.3200 C   0  0  0  0  0  0  0  0  0  0  0  0
  -30.3730  -12.5250   19.3670 C   0  0  0  0  0  2  0  0  0  0  0  0
  -29.4410  -12.5830   18.1370 C   0  0  0  0  0  2  0  0  0  0  0  0
  -27.9710  -12.4130   18.5620 C   0  0  0  0  0  2  0  0  0  0  0  0
  -27.5940  -13.3090   19.7710 C   0  0  0  0  0  3  0  0  0  0  0  0
  -28.6500  -13.2430   20.8940 C   0  0  0  0  0  2  0  0  0  0  0  0
  -29.9450  -13.5970   20.3010 N   0  0  0  0  0  0  0  0  0  0  0  0
  -31.7700  -14.8810   20.0130 O   0  0  0  0  0  0  0  0  0  0  0  0
  -29.8270  -15.9990   20.5110 N   0  0  0  0  0  0  0  0  0  0  0  0
  -28.9390  -15.8430   20.9630 H   0  0  0  0  0  0  0  0  0  0  0  0
  -25.2080  -13.9010   20.4910 C   0  0  0  0  0  0  0  0  0  0  0  0
  -24.1410  -13.1280   20.8580 C   0  0  0  0  0  0  0  0  0  0  0  0
  -24.6040  -11.7770   20.8330 C   0  0  0  0  0  0  0  0  0  0  0  0
  -26.2510  -13.0200   20.2630 N   0  0  0  0  0  0  0  0  0  0  0  0
  -25.8960  -11.7380   20.5340 N   0  0  0  0  0  0  0  0  0  0  0  0
  -23.8730  -10.5150   21.0230 C   0  0  0  0  0  0  0  0  0  0  0  0
  -24.2990   -9.5500   21.9620 C   0  0  0  0  0  3  0  0  0  0  0  0
  -23.5680   -8.3560   22.1440 C   0  0  0  0  0  3  0  0  0  0  0  0
  -22.3970   -8.1170   21.3860 C   0  0  0  0  0  0  0  0  0  0  0  0
  -21.9880   -9.0720   20.4370 C   0  0  0  0  0  3  0  0  0  0  0  0
  -22.7200  -10.2580   20.2550 C   0  0  0  0  0  3  0  0  0  0  0  0
  -21.6410   -6.9740   21.4760 O   0  0  0  0  0  0  0  0  0  0  0  0
  -21.5870   -6.2340   22.6300 C   0  0  0  0  0  0  0  0  0  0  0  0
  -21.1620   -6.7930   23.8540 C   0  0  0  0  0  3  0  0  0  0  0  0
  -21.0560   -5.9800   25.0000 C   0  0  0  0  0  3  0  0  0  0  0  0
  -21.3630   -4.6090   24.9220 C   0  0  0  0  0  0  0  0  0  0  0  0
  -21.7830   -4.0490   23.7010 C   0  0  0  0  0  3  0  0  0  0  0  0
  -21.8900   -4.8600   22.5580 C   0  0  0  0  0  0  0  0  0  0  0  0
  -22.2720   -4.3120   21.3780 F   0  0  0  0  0  0  0  0  0  0  0  0
  -21.2560   -3.8250   26.0180 F   0  0  0  0  0  0  0  0  0  0  0  0
  -22.7430  -13.6070   21.1190 C   0  0  0  0  0  0  0  0  0  0  0  0
  -22.0080  -12.9170   21.9840 N   0  0  0  0  0  0  0  0  0  0  0  0
  -22.3090  -14.6290   20.5890 O   0  0  0  0  0  0  0  0  0  0  0  0
  -22.3690  -12.0870   22.4320 H   0  0  0  0  0  0  0  0  0  0  0  0
  -21.0700  -13.2210   22.2010 H   0  0  0  0  0  0  0  0  0  0  0  0
  -25.3690  -15.2710   20.3070 N   0  0  0  0  0  0  0  0  0  0  0  0
  -24.5990  -15.9210   20.4160 H   0  0  0  0  0  0  0  0  0  0  0  0
  -26.2130  -15.7130   19.9650 H   0  0  0  0  0  0  0  0  0  0  0  0
  -28.6990  -23.8140   20.3070 C   0  0  0  0  0  3  0  0  0  0  0  0
  -28.2890  -25.0150   19.7130 C   0  0  0  0  0  3  0  0  0  0  0  0
  -28.2810  -26.3500   20.2480 O   0  0  0  0  0  0  0  0  0  0  0  0
  -24.6130  -31.8730   23.2320 C   0  0  0  0  0  0  0  0  0  0  0  0
  -27.1900  -27.2550   20.1480 C   0  0  0  0  0  0  0  0  0  0  0  0
  -23.3970  -30.4770   21.5990 C   0  0  0  0  0  3  0  0  0  0  0  0
  -24.8360  -28.9230   20.1500 C   0  0  0  0  0  0  0  0  0  0  0  0
  -25.9390  -30.7710   21.4050 C   0  0  0  0  0  2  0  0  0  0  0  0
  -26.0110  -29.3900   20.7500 C   0  0  0  0  0  0  0  0  0  0  0  0
  -27.1840  -28.5680   20.7410 C   0  0  0  0  0  3  0  0  0  0  0  0
  -25.9900  -26.8600   19.5150 C   0  0  0  0  0  3  0  0  0  0  0  0
  -24.8310  -27.6680   19.5210 C   0  0  0  0  0  3  0  0  0  0  0  0
  -23.6000  -29.8020   20.2160 C   0  0  0  0  0  2  0  0  0  0  0  0
  -24.6680  -31.0620   22.1340 N   0  0  0  0  0  0  0  0  0  0  0  0
  -23.5330  -32.1530   23.7740 O   0  0  0  0  0  0  0  0  0  0  0  0
  -22.7350  -29.4640   22.5630 C   0  0  0  0  0  0  0  0  0  0  0  0
  -21.4090  -29.2830   22.4370 N   0  0  0  0  0  0  0  0  0  0  0  0
  -23.4140  -28.8440   23.3840 O   0  0  0  0  0  0  0  0  0  0  0  0
  -20.9180  -29.8340   21.7460 H   0  0  0  0  0  0  0  0  0  0  0  0
  -18.0380  -28.0610   22.9320 C   0  0  0  0  0  0  0  0  0  0  0  0
  -20.5940  -28.3420   23.2100 C   0  0  0  0  0  3  0  0  0  0  0  0
  -20.7090  -26.9080   22.6450 C   0  0  0  0  0  2  0  0  0  0  0  0
  -19.6140  -26.5720   21.6270 C   0  0  0  0  0  2  0  0  0  0  0  0
  -18.2280  -26.7100   22.2630 C   0  0  0  0  0  2  0  0  0  0  0  0
  -19.1500  -28.8350   23.3610 C   0  0  0  0  0  0  0  0  0  0  0  0
  -18.9180  -30.1000   23.9440 C   0  0  0  0  0  3  0  0  0  0  0  0
  -17.6090  -30.5910   24.1020 C   0  0  0  0  0  3  0  0  0  0  0  0
  -16.5120  -29.8140   23.6900 C   0  0  0  0  0  3  0  0  0  0  0  0
  -16.7280  -28.5500   23.1110 C   0  0  0  0  0  3  0  0  0  0  0  0
  -25.8980  -32.5050   23.8480 C   0  0  0  0  0  3  0  0  0  0  0  0
  -26.4210  -31.7330   25.1210 C   0  0  1  0  0  0  0  0  0  0  0  0
  -25.3350  -31.4950   26.1960 C   0  0  0  0  0  1  0  0  0  0  0  0
  -26.9990  -30.3540   24.7260 C   0  0  0  0  0  1  0  0  0  0  0  0
  -27.5770  -32.5230   25.7760 C   0  0  0  0  0  1  0  0  0  0  0  0
  -25.5930  -33.9030   24.1870 N   0  0  0  0  0  0  0  0  0  0  0  0
  -25.9160  -34.9600   23.4280 C   0  0  0  0  0  0  0  0  0  0  0  0
  -26.5720  -34.8600   22.3890 O   0  0  0  0  0  0  0  0  0  0  0  0
  -25.0130  -34.0580   24.9980 H   0  0  0  0  0  0  0  0  0  0  0  0
  -24.1800  -36.7520   23.1070 C   0  0  0  0  0  1  0  0  0  0  0  0
  -25.4350  -36.3470   23.8980 C   0  0  0  0  0  3  0  0  0  0  0  0
  -27.5800  -37.2300   24.7010 C   0  0  0  0  0  1  0  0  0  0  0  0
  -26.4640  -37.4010   23.7740 N   0  0  0  0  0  0  0  0  0  0  0  0
  -26.0600  -38.3200   23.9310 H   0  0  0  0  0  0  0  0  0  0  0  0
  1  2  1  0
  1 50  1  0
  2  4  1  0
  3  1  2  0
  6  8  1  0
  7  9  2  0
  8  2  1  0
  8  5  2  0
  9  5  1  0
  9 20  1  0
 10  6  2  0
 10  7  1  0
 11 10  1  0
 12 20  1  0
 13 18  1  0
 14 15  1  0
 14 13  1  0
 16 15  1  0
 16 25  1  0
 16 17  1  0
 18 12  1  0
 18 17  1  0
 19 12  2  0
 20 21  1  0
 22 23  2  0
 23 42  1  0
 24 23  1  0
 24 27  1  0
 25 22  1  0
 25 26  1  0
 26 24  2  0
 27 28  1  0
 28 29  2  0
 30 33  1  0
 30 29  1  0
 31 30  2  0
 32 31  1  0
 32 27  2  0
 33 34  1  0
 34 35  1  0
 35 36  2  0
 37 36  1  0
 37 41  1  0
 38 37  2  0
 39 34  2  0
 39 38  1  0
 40 39  1  0
 42 43  1  0
 43 46  1  0
 43 45  1  0
 44 42  2  0
 47 48  1  0
 47 22  1  0
 49 47  1  0
 51 52  1  0
 51 50  2  0
 53 64  2  0
 54 52  1  0
 54 59  1  0
 55 63  1  0
 55 65  1  0
 56 62  1  0
 56 58  1  0
 57 63  1  0
 58 57  1  0
 59 58  2  0
 60 61  1  0
 60 54  2  0
 61 56  2  0
 62 55  1  0
 63 53  1  0
 65 67  2  0
 66 65  1  0
 68 66  1  0
 69 78  2  0
 69 74  1  0
 70 66  1  0
 70 74  1  0
 71 70  1  0
 72 73  1  0
 72 71  1  0
 73 69  1  0
 74 75  2  0
 75 76  1  0
 77 76  2  0
 78 77  1  0
 79 53  1  0
 79 84  1  0
 79 80  1  0
 80 83  1  1
 80 81  1  0
 82 80  1  0
 84 87  1  0
 85 89  1  0
 85 84  1  0
 86 85  2  0
 89 88  1  0
 91 89  1  0
 91 92  1  0
 91 90  1  0
M  ISO  4  12 100  20 100  51 101  52 101
M  END
>  <TORSDO>  (84) 
F 18

>  <SCORE>  (84) 
-14.632

>  <name>  (84) 
83

>  <ligand_id>  (84) 
83

>  <original_smiles>  (84) 
[H]C(Oc1c([H])c([H])c2c(c1[H])C([H])([H])N(C(=O)C([H])(N([H])C(=O)C([H])(N([H])C([H])([H])[H])C([H])([H])[H])C(C([H])([H])[H])(C([H])([H])[H])C([H])([H])[H])C([H])(C(=O)N([H])C1([H])c3c([H])c([H])c([H])c([H])c3C([H])([H])C([H])([H])C1([H])[H])C2([H])[H])=C([H])C(=O)N([H])c1c([H])c(F)c([H])c(N([H])C(=O)N2C([H])([H])C([H])([H])C([H])([H])C([H])(n3nc(-c4c([H])c([H])c(Oc5c([H])c([H])c(F)c([H])c5F)c([H])c4[H])c(C(=O)N([H])[H])c3N([H])[H])C2([H])[H])c1[H]

>  <smiles>  (84) 
[H]C(Oc1c([H])c([H])c2c(c1[H])C([H])([H])N(C(=O)C([H])(N([H])C(=O)C([H])(N([H])C([H])([H])[H])C([H])([H])[H])C(C([H])([H])[H])(C([H])([H])[H])C([H])([H])[H])C([H])(C(=O)N([H])C1([H])c3c([H])c([H])c([H])c([H])c3C([H])([H])C([H])([H])C1([H])[H])C2([H])[H])=C([H])C(=O)N([H])c1c([H])c(F)c([H])c(N([H])C(=O)N2C([H])([H])C([H])([H])C([H])([H])C([H])(n3nc(-c4c([H])c([H])c(Oc5c([H])c([H])c(F)c([H])c5F)c([H])c4[H])c(C(=O)N([H])[H])c3N([H])[H])C2([H])[H])c1[H]

$$$$
85:0:0
     RDKit          3D

102111  0  0  1  0  0  0  0  0999 V2000
  -31.0170  -20.0040   20.8960 C   0  0  0  0  0  3  0  0  0  0  0  0
  -31.5360  -17.6110   20.7770 C   0  0  0  0  0  3  0  0  0  0  0  0
  -29.3300  -18.4330   20.1480 C   0  0  0  0  0  3  0  0  0  0  0  0
  -31.9360  -18.9430   21.0440 C   0  0  0  0  0  0  0  0  0  0  0  0
  -29.7020  -19.8170   20.4190 C   0  0  0  0  0  0  0  0  0  0  0  0
  -30.2280  -17.2970   20.3370 C   0  0  0  0  0  0  0  0  0  0  0  0
  -34.5490  -18.3480   19.7290 C   0  0  0  0  0  0  0  0  0  0  0  0
  -33.3160  -19.2290   21.5930 C   0  0  0  0  0  0  0  0  0  0  0  0
  -35.9930  -20.8800   19.7700 C   0  0  0  0  0  2  0  0  0  0  0  0
  -36.5340  -19.7880   18.8540 C   0  0  0  0  0  2  0  0  0  0  0  0
  -35.4540  -20.2220   21.0420 C   0  0  0  0  0  2  0  0  0  0  0  0
  -35.4830  -18.6970   18.5280 C   0  0  1  0  0  0  0  0  0  0  0  0
  -36.2350  -17.4290   18.0660 C   0  0  0  0  0  1  0  0  0  0  0  0
  -34.5870  -19.1710   17.3600 C   0  0  0  0  0  1  0  0  0  0  0  0
  -34.3880  -19.2420   20.7500 N   0  0  0  0  0  0  0  0  0  0  0  0
  -33.9410  -17.2740   19.6810 O   0  0  0  0  0  0  0  0  0  0  0  0
  -33.4140  -19.5380   22.7880 O   0  0  0  0  0  0  0  0  0  0  0  0
  -30.6220  -14.7150   20.0540 C   0  0  0  0  0  0  0  0  0  0  0  0
  -30.3840  -12.3960   19.1430 C   0  0  0  0  0  2  0  0  0  0  0  0
  -29.3980  -12.3990   17.9560 C   0  0  0  0  0  2  0  0  0  0  0  0
  -27.9480  -12.2400   18.4550 C   0  0  0  0  0  2  0  0  0  0  0  0
  -27.6140  -13.1820   19.6420 C   0  0  0  0  0  3  0  0  0  0  0  0
  -28.7210  -13.1620   20.7190 C   0  0  0  0  0  2  0  0  0  0  0  0
  -29.9840  -13.4940   20.0510 N   0  0  0  0  0  0  0  0  0  0  0  0
  -31.8040  -14.7830   19.7100 O   0  0  0  0  0  0  0  0  0  0  0  0
  -29.8510  -15.8650   20.1840 N   0  0  0  0  0  0  0  0  0  0  0  0
  -28.8610  -15.6840   20.2080 H   0  0  0  0  0  0  0  0  0  0  0  0
  -25.2850  -13.8070   20.5090 C   0  0  0  0  0  0  0  0  0  0  0  0
  -24.2220  -13.0460   20.9150 C   0  0  0  0  0  0  0  0  0  0  0  0
  -24.6510  -11.6870   20.8280 C   0  0  0  0  0  0  0  0  0  0  0  0
  -26.2940  -12.9100   20.1990 N   0  0  0  0  0  0  0  0  0  0  0  0
  -25.9240  -11.6290   20.4540 N   0  0  0  0  0  0  0  0  0  0  0  0
  -23.9070  -10.4360   21.0270 C   0  0  0  0  0  0  0  0  0  0  0  0
  -24.3500   -9.4480   21.9320 C   0  0  0  0  0  3  0  0  0  0  0  0
  -23.6050   -8.2620   22.1200 C   0  0  0  0  0  3  0  0  0  0  0  0
  -22.4040   -8.0570   21.3990 C   0  0  0  0  0  0  0  0  0  0  0  0
  -21.9810   -9.0350   20.4800 C   0  0  0  0  0  3  0  0  0  0  0  0
  -22.7250  -10.2100   20.2920 C   0  0  0  0  0  3  0  0  0  0  0  0
  -21.6310   -6.9260   21.4970 O   0  0  0  0  0  0  0  0  0  0  0  0
  -21.6090   -6.1620   22.6370 C   0  0  0  0  0  0  0  0  0  0  0  0
  -21.2210   -6.6990   23.8840 C   0  0  0  0  0  3  0  0  0  0  0  0
  -21.1470   -5.8620   25.0170 C   0  0  0  0  0  3  0  0  0  0  0  0
  -21.4540   -4.4940   24.9030 C   0  0  0  0  0  0  0  0  0  0  0  0
  -21.8370   -3.9580   23.6620 C   0  0  0  0  0  3  0  0  0  0  0  0
  -21.9130   -4.7910   22.5310 C   0  0  0  0  0  0  0  0  0  0  0  0
  -22.2610   -4.2650   21.3310 F   0  0  0  0  0  0  0  0  0  0  0  0
  -21.3760   -3.6900   25.9890 F   0  0  0  0  0  0  0  0  0  0  0  0
  -22.8520  -13.5450   21.2700 C   0  0  0  0  0  0  0  0  0  0  0  0
  -22.1610  -12.8560   22.1710 N   0  0  0  0  0  0  0  0  0  0  0  0
  -22.4030  -14.5820   20.7800 O   0  0  0  0  0  0  0  0  0  0  0  0
  -22.5400  -12.0160   22.5850 H   0  0  0  0  0  0  0  0  0  0  0  0
  -21.2450  -13.1730   22.4540 H   0  0  0  0  0  0  0  0  0  0  0  0
  -25.4660  -15.1780   20.3560 N   0  0  0  0  0  0  0  0  0  0  0  0
  -24.7140  -15.8370   20.5210 H   0  0  0  0  0  0  0  0  0  0  0  0
  -26.2870  -15.6090   19.9540 H   0  0  0  0  0  0  0  0  0  0  0  0
  -28.9890  -22.3240   20.6780 C   0  0  0  0  0  0  0  0  0  0  0  0
  -28.8720  -21.0320   20.1640 N   0  0  0  0  0  0  0  0  0  0  0  0
  -29.6230  -22.5160   21.7170 O   0  0  0  0  0  0  0  0  0  0  0  0
  -28.1720  -20.9280   19.4440 H   0  0  0  0  0  0  0  0  0  0  0  0
  -28.3150  -23.6130   20.0060 C   0  0  0  0  0  2  0  0  0  0  0  0
  -28.1170  -24.9730   20.8720 C   0  0  0  0  0  2  0  0  0  0  0  0
  -28.2800  -26.3520   20.3030 O   0  0  0  0  0  0  0  0  0  0  0  0
  -24.5790  -31.8510   23.2670 C   0  0  0  0  0  0  0  0  0  0  0  0
  -27.1770  -27.2240   20.2860 C   0  0  0  0  0  0  0  0  0  0  0  0
  -23.3770  -30.4410   21.6340 C   0  0  0  0  0  3  0  0  0  0  0  0
  -24.8270  -28.8640   20.2330 C   0  0  0  0  0  0  0  0  0  0  0  0
  -25.9190  -30.7420   21.4580 C   0  0  0  0  0  2  0  0  0  0  0  0
  -25.9970  -29.3540   20.8270 C   0  0  0  0  0  0  0  0  0  0  0  0
  -27.1780  -28.5480   20.8370 C   0  0  0  0  0  3  0  0  0  0  0  0
  -25.9870  -26.7890   19.6730 C   0  0  0  0  0  3  0  0  0  0  0  0
  -24.8250  -27.5890   19.6460 C   0  0  0  0  0  3  0  0  0  0  0  0
  -23.5950  -29.7470   20.2650 C   0  0  0  0  0  2  0  0  0  0  0  0
  -24.6430  -31.0320   22.1760 N   0  0  0  0  0  0  0  0  0  0  0  0
  -23.4960  -32.1430   23.7920 O   0  0  0  0  0  0  0  0  0  0  0  0
  -22.7010  -29.4430   22.6060 C   0  0  0  0  0  0  0  0  0  0  0  0
  -21.3840  -29.2300   22.4370 N   0  0  0  0  0  0  0  0  0  0  0  0
  -23.3620  -28.8590   23.4670 O   0  0  0  0  0  0  0  0  0  0  0  0
  -20.9110  -29.7530   21.7140 H   0  0  0  0  0  0  0  0  0  0  0  0
  -18.0280  -27.9330   22.8170 C   0  0  0  0  0  0  0  0  0  0  0  0
  -20.5580  -28.2990   23.2070 C   0  0  0  0  0  3  0  0  0  0  0  0
  -20.7390  -26.8490   22.7030 C   0  0  0  0  0  2  0  0  0  0  0  0
  -19.7040  -26.4400   21.6490 C   0  0  0  0  0  2  0  0  0  0  0  0
  -18.2850  -26.5620   22.2140 C   0  0  0  0  0  2  0  0  0  0  0  0
  -19.0960  -28.7540   23.2680 C   0  0  0  0  0  0  0  0  0  0  0  0
  -18.8040  -30.0320   23.7920 C   0  0  0  0  0  3  0  0  0  0  0  0
  -17.4760  -30.4910   23.8710 C   0  0  0  0  0  3  0  0  0  0  0  0
  -16.4220  -29.6680   23.4390 C   0  0  0  0  0  3  0  0  0  0  0  0
  -16.6980  -28.3910   22.9170 C   0  0  0  0  0  3  0  0  0  0  0  0
  -25.8630  -32.4840   23.8890 C   0  0  0  0  0  3  0  0  0  0  0  0
  -26.3580  -31.7330   25.1850 C   0  0  1  0  0  0  0  0  0  0  0  0
  -25.2490  -31.5170   26.2430 C   0  0  0  0  0  1  0  0  0  0  0  0
  -26.9410  -30.3470   24.8280 C   0  0  0  0  0  1  0  0  0  0  0  0
  -27.5060  -32.5330   25.8470 C   0  0  0  0  0  1  0  0  0  0  0  0
  -25.5650  -33.8920   24.1910 N   0  0  0  0  0  0  0  0  0  0  0  0
  -25.9130  -34.9280   23.4160 C   0  0  0  0  0  0  0  0  0  0  0  0
  -26.5890  -34.7980   22.3910 O   0  0  0  0  0  0  0  0  0  0  0  0
  -24.9670  -34.0690   24.9840 H   0  0  0  0  0  0  0  0  0  0  0  0
  -24.2010  -36.7280   23.0230 C   0  0  0  0  0  1  0  0  0  0  0  0
  -25.4380  -36.3300   23.8430 C   0  0  0  0  0  3  0  0  0  0  0  0
  -27.5780  -37.2150   24.6580 C   0  0  0  0  0  1  0  0  0  0  0  0
  -26.4810  -37.3710   23.7070 N   0  0  0  0  0  0  0  0  0  0  0  0
  -26.0820  -38.2970   23.8340 H   0  0  0  0  0  0  0  0  0  0  0  0
  1  4  1  0
  2  4  2  0
  3  6  2  0
  3  5  1  0
  4  8  1  0
  5  1  2  0
  6  2  1  0
  7 15  1  0
  8 17  2  0
  9 11  1  0
 10  9  1  0
 12 10  1  0
 12  7  1  0
 12 13  1  6
 14 12  1  0
 15 11  1  0
 15  8  1  0
 16  7  2  0
 18 26  1  0
 19 24  1  0
 20 21  1  0
 20 19  1  0
 22 21  1  0
 22 31  1  0
 22 23  1  0
 24 18  1  0
 24 23  1  0
 25 18  2  0
 26 27  1  0
 26  6  1  0
 28 29  2  0
 29 48  1  0
 30 29  1  0
 30 33  1  0
 31 32  1  0
 31 28  1  0
 32 30  2  0
 33 34  1  0
 34 35  2  0
 36 39  1  0
 36 35  1  0
 37 36  2  0
 38 37  1  0
 38 33  2  0
 39 40  1  0
 40 41  1  0
 41 42  2  0
 43 42  1  0
 43 47  1  0
 44 43  2  0
 45 40  2  0
 45 44  1  0
 46 45  1  0
 48 49  1  0
 49 52  1  0
 49 51  1  0
 50 48  2  0
 53 28  1  0
 53 54  1  0
 55 53  1  0
 56 58  2  0
 57  5  1  0
 57 56  1  0
 59 57  1  0
 60 56  1  0
 60 61  1  0
 62 61  1  0
 63 74  2  0
 64 62  1  0
 64 69  1  0
 65 73  1  0
 65 75  1  0
 66 72  1  0
 66 68  1  0
 67 73  1  0
 68 69  2  0
 68 67  1  0
 70 64  2  0
 71 70  1  0
 71 66  2  0
 72 65  1  0
 73 63  1  0
 75 77  2  0
 76 75  1  0
 78 76  1  0
 79 88  2  0
 79 84  1  0
 80 76  1  0
 80 84  1  0
 81 80  1  0
 82 83  1  0
 82 81  1  0
 83 79  1  0
 84 85  2  0
 85 86  1  0
 87 86  2  0
 88 87  1  0
 89 63  1  0
 89 94  1  0
 89 90  1  0
 90 93  1  1
 90 91  1  0
 92 90  1  0
 94 97  1  0
 95 99  1  0
 95 94  1  0
 96 95  2  0
 99 98  1  0
101102  1  0
101 99  1  0
101100  1  0
M  ISO  4  18 100  26 100  61 101  62 101
M  END
>  <TORSDO>  (85) 
F 20

>  <SCORE>  (85) 
-14.039

>  <name>  (85) 
85

>  <ligand_id>  (85) 
85

>  <original_smiles>  (85) 
[H]c1c([H])c([H])c2c(c1[H])C([H])([H])C([H])([H])C([H])([H])C2([H])N([H])C(=O)C1([H])N(C(=O)C([H])(N([H])C(=O)C([H])(N([H])C([H])([H])[H])C([H])([H])[H])C(C([H])([H])[H])(C([H])([H])[H])C([H])([H])[H])C([H])([H])c2c([H])c(OC([H])([H])C([H])([H])C(=O)N([H])c3c([H])c(C(=O)N4C(=O)C(C([H])([H])[H])(C([H])([H])[H])C([H])([H])C([H])([H])C4([H])[H])c([H])c(N([H])C(=O)N4C([H])([H])C([H])([H])C([H])([H])C([H])(n5nc(-c6c([H])c([H])c(Oc7c([H])c([H])c(F)c([H])c7F)c([H])c6[H])c(C(=O)N([H])[H])c5N([H])[H])C4([H])[H])c3[H])c([H])c([H])c2C1([H])[H]

>  <smiles>  (85) 
[H]c1c([H])c([H])c2c(c1[H])C([H])([H])C([H])([H])C([H])([H])C2([H])N([H])C(=O)C1([H])N(C(=O)C([H])(N([H])C(=O)C([H])(N([H])C([H])([H])[H])C([H])([H])[H])C(C([H])([H])[H])(C([H])([H])[H])C([H])([H])[H])C([H])([H])c2c([H])c(OC([H])([H])C([H])([H])C(=O)N([H])c3c([H])c(C(=O)N4C(=O)C(C([H])([H])[H])(C([H])([H])[H])C([H])([H])C([H])([H])C4([H])[H])c([H])c(N([H])C(=O)N4C([H])([H])C([H])([H])C([H])([H])C([H])(n5nc(-c6c([H])c([H])c(Oc7c([H])c([H])c(F)c([H])c7F)c([H])c6[H])c(C(=O)N([H])[H])c5N([H])[H])C4([H])[H])c3[H])c([H])c([H])c2C1([H])[H]

$$$$
86:0:0
     RDKit          3D

 94103  0  0  1  0  0  0  0  0999 V2000
  -29.5990  -23.6210   21.1440 C   0  0  0  0  0  3  0  0  0  0  0  0
  -28.4240  -22.4190   19.5470 C   0  0  0  0  0  2  0  0  0  0  0  0
  -28.8250  -23.8950   19.8790 C   0  0  0  0  0  3  0  0  0  0  0  0
  -29.8770  -22.3610   21.3040 N   0  0  0  0  0  2  0  0  0  0  0  0
  -29.3320  -21.5870   20.3630 N   0  0  0  0  0  0  0  0  0  0  0  0
  -30.3720  -19.4290   21.1050 C   0  0  0  0  0  3  0  0  0  0  0  0
  -30.4730  -18.0040   21.0900 C   0  0  0  0  0  3  0  0  0  0  0  0
  -28.6630  -19.3470   19.4300 C   0  0  0  0  0  3  0  0  0  0  0  0
  -28.7560  -17.9220   19.4010 C   0  0  0  0  0  0  0  0  0  0  0  0
  -29.4480  -20.1510   20.2940 C   0  0  0  0  0  0  0  0  0  0  0  0
  -29.6520  -17.2030   20.2540 C   0  0  0  0  0  0  0  0  0  0  0  0
  -27.8530  -17.1970   18.4190 C   0  0  0  0  0  1  0  0  0  0  0  0
  -30.4420  -14.7190   20.1060 C   0  0  0  0  0  0  0  0  0  0  0  0
  -30.2630  -12.4700   19.0560 C   0  0  0  0  0  2  0  0  0  0  0  0
  -29.2450  -12.5630   17.8980 C   0  0  0  0  0  2  0  0  0  0  0  0
  -27.8040  -12.3550   18.4070 C   0  0  0  0  0  2  0  0  0  0  0  0
  -27.4860  -13.2040   19.6660 C   0  0  0  0  0  3  0  0  0  0  0  0
  -28.6100  -13.0880   20.7190 C   0  0  0  0  0  2  0  0  0  0  0  0
  -29.8730  -13.4720   20.0660 N   0  0  0  0  0  0  0  0  0  0  0  0
  -31.5960  -14.9130   19.7130 O   0  0  0  0  0  0  0  0  0  0  0  0
  -29.5720  -15.7450   20.3810 N   0  0  0  0  0  0  0  0  0  0  0  0
  -28.6430  -15.4030   20.5660 H   0  0  0  0  0  0  0  0  0  0  0  0
  -25.1360  -13.7430   20.5570 C   0  0  0  0  0  0  0  0  0  0  0  0
  -24.1040  -12.9430   20.9610 C   0  0  0  0  0  0  0  0  0  0  0  0
  -24.5790  -11.6010   20.8500 C   0  0  0  0  0  0  0  0  0  0  0  0
  -26.1740  -12.8870   20.2230 N   0  0  0  0  0  0  0  0  0  0  0  0
  -25.8490  -11.5910   20.4610 N   0  0  0  0  0  0  0  0  0  0  0  0
  -23.8800  -10.3230   21.0360 C   0  0  0  0  0  0  0  0  0  0  0  0
  -24.3380   -9.3600   21.9630 C   0  0  0  0  0  3  0  0  0  0  0  0
  -23.6400   -8.1460   22.1360 C   0  0  0  0  0  3  0  0  0  0  0  0
  -22.4710   -7.8860   21.3810 C   0  0  0  0  0  0  0  0  0  0  0  0
  -22.0330   -8.8390   20.4440 C   0  0  0  0  0  3  0  0  0  0  0  0
  -22.7320  -10.0450   20.2680 C   0  0  0  0  0  3  0  0  0  0  0  0
  -21.7410   -6.7250   21.4650 O   0  0  0  0  0  0  0  0  0  0  0  0
  -21.6570   -6.0100   22.6330 C   0  0  0  0  0  0  0  0  0  0  0  0
  -21.0940   -6.5620   23.8040 C   0  0  0  0  0  3  0  0  0  0  0  0
  -20.9620   -5.7700   24.9630 C   0  0  0  0  0  3  0  0  0  0  0  0
  -21.3850   -4.4270   24.9500 C   0  0  0  0  0  0  0  0  0  0  0  0
  -21.9410   -3.8760   23.7830 C   0  0  0  0  0  3  0  0  0  0  0  0
  -22.0740   -4.6640   22.6270 C   0  0  0  0  0  0  0  0  0  0  0  0
  -22.5910   -4.1210   21.4990 F   0  0  0  0  0  0  0  0  0  0  0  0
  -21.2530   -3.6630   26.0590 F   0  0  0  0  0  0  0  0  0  0  0  0
  -22.7190  -13.3910   21.3340 C   0  0  0  0  0  0  0  0  0  0  0  0
  -22.0540  -12.6610   22.2220 N   0  0  0  0  0  0  0  0  0  0  0  0
  -22.2360  -14.4240   20.8740 O   0  0  0  0  0  0  0  0  0  0  0  0
  -22.4570  -11.8250   22.6190 H   0  0  0  0  0  0  0  0  0  0  0  0
  -21.1280  -12.9460   22.5110 H   0  0  0  0  0  0  0  0  0  0  0  0
  -25.2700  -15.1200   20.4240 N   0  0  0  0  0  0  0  0  0  0  0  0
  -24.4980  -15.7520   20.6070 H   0  0  0  0  0  0  0  0  0  0  0  0
  -26.0840  -15.5870   20.0550 H   0  0  0  0  0  0  0  0  0  0  0  0
  -30.0420  -24.3660   23.4310 C   0  0  0  0  0  2  0  0  0  0  0  0
  -30.0150  -24.6230   22.1080 C   0  0  0  0  0  3  0  0  0  0  0  0
  -27.6700  -24.9930   19.9720 C   0  0  0  0  0  2  0  0  0  0  0  0
  -27.9330  -26.4370   19.7170 O   0  0  0  0  0  0  0  0  0  0  0  0
  -24.3700  -31.7290   23.1060 C   0  0  0  0  0  0  0  0  0  0  0  0
  -26.8310  -27.3080   19.7470 C   0  0  0  0  0  0  0  0  0  0  0  0
  -23.1010  -30.4370   21.4280 C   0  0  0  0  0  3  0  0  0  0  0  0
  -24.4910  -28.9510   19.8800 C   0  0  0  0  0  0  0  0  0  0  0  0
  -25.6390  -30.7300   21.1950 C   0  0  0  0  0  2  0  0  0  0  0  0
  -25.6800  -29.3880   20.4770 C   0  0  0  0  0  0  0  0  0  0  0  0
  -26.8540  -28.5770   20.4050 C   0  0  0  0  0  3  0  0  0  0  0  0
  -25.6240  -26.9430   19.1070 C   0  0  0  0  0  3  0  0  0  0  0  0
  -24.4660  -27.7350   19.1840 C   0  0  0  0  0  3  0  0  0  0  0  0
  -23.2680  -29.8350   20.0070 C   0  0  0  0  0  2  0  0  0  0  0  0
  -24.3900  -30.9790   21.9660 N   0  0  0  0  0  0  0  0  0  0  0  0
  -23.3050  -31.9920   23.6840 O   0  0  0  0  0  0  0  0  0  0  0  0
  -22.4510  -29.3780   22.3500 C   0  0  0  0  0  0  0  0  0  0  0  0
  -21.1200  -29.2210   22.2460 N   0  0  0  0  0  0  0  0  0  0  0  0
  -23.1420  -28.7030   23.1180 O   0  0  0  0  0  0  0  0  0  0  0  0
  -20.6240  -29.8170   21.5990 H   0  0  0  0  0  0  0  0  0  0  0  0
  -17.7340  -28.0690   22.7960 C   0  0  0  0  0  0  0  0  0  0  0  0
  -20.3060  -28.2540   22.9860 C   0  0  0  0  0  3  0  0  0  0  0  0
  -20.3520  -26.8600   22.3190 C   0  0  0  0  0  2  0  0  0  0  0  0
  -19.2080  -26.6260   21.3280 C   0  0  0  0  0  2  0  0  0  0  0  0
  -17.8530  -26.7610   22.0320 C   0  0  0  0  0  2  0  0  0  0  0  0
  -18.8860  -28.7780   23.2300 C   0  0  0  0  0  0  0  0  0  0  0  0
  -18.7190  -30.0060   23.9070 C   0  0  0  0  0  3  0  0  0  0  0  0
  -17.4340  -30.5240   24.1530 C   0  0  0  0  0  3  0  0  0  0  0  0
  -16.2970  -29.8100   23.7360 C   0  0  0  0  0  3  0  0  0  0  0  0
  -16.4480  -28.5840   23.0630 C   0  0  0  0  0  3  0  0  0  0  0  0
  -25.6780  -32.3090   23.7250 C   0  0  0  0  0  3  0  0  0  0  0  0
  -26.1880  -31.4920   24.9750 C   0  0  1  0  0  0  0  0  0  0  0  0
  -25.1010  -31.2550   26.0500 C   0  0  0  0  0  1  0  0  0  0  0  0
  -26.7320  -30.1090   24.5450 C   0  0  0  0  0  1  0  0  0  0  0  0
  -27.3680  -32.2380   25.6420 C   0  0  0  0  0  1  0  0  0  0  0  0
  -25.4130  -33.7060   24.0920 N   0  0  0  0  0  0  0  0  0  0  0  0
  -25.7570  -34.7680   23.3500 C   0  0  0  0  0  0  0  0  0  0  0  0
  -26.4020  -34.6700   22.3030 O   0  0  0  0  0  0  0  0  0  0  0  0
  -24.8400  -33.8560   24.9090 H   0  0  0  0  0  0  0  0  0  0  0  0
  -24.0710  -36.6150   23.0710 C   0  0  0  0  0  1  0  0  0  0  0  0
  -25.3150  -36.1580   23.8480 C   0  0  0  0  0  3  0  0  0  0  0  0
  -27.4830  -36.9750   24.6650 C   0  0  0  0  0  1  0  0  0  0  0  0
  -26.3740  -37.1860   23.7380 N   0  0  0  0  0  0  0  0  0  0  0  0
  -25.9930  -38.1130   23.9030 H   0  0  0  0  0  0  0  0  0  0  0  0
  1  4  1  0
  1 52  1  0
  2  3  1  0
  2  5  1  0
  3 53  1  0
  3  1  1  0
  5  4  1  0
  7  6  1  0
  8 10  1  0
  9  8  2  0
  9 11  1  0
 10  5  1  0
 10  6  2  0
 11 21  1  0
 11  7  2  0
 12  9  1  0
 13 21  1  0
 14 19  1  0
 15 16  1  0
 15 14  1  0
 17 16  1  0
 17 26  1  0
 17 18  1  0
 19 13  1  0
 19 18  1  0
 20 13  2  0
 21 22  1  0
 23 24  2  0
 24 43  1  0
 25 24  1  0
 25 28  1  0
 26 27  1  0
 26 23  1  0
 27 25  2  0
 28 29  1  0
 29 30  2  0
 31 34  1  0
 31 30  1  0
 32 31  2  0
 33 32  1  0
 33 28  2  0
 34 35  1  0
 35 36  1  0
 36 37  2  0
 38 37  1  0
 38 42  1  0
 39 38  2  0
 40 35  2  0
 40 39  1  0
 41 40  1  0
 43 44  1  0
 44 47  1  0
 44 46  1  0
 45 43  2  0
 48 23  1  0
 48 49  1  0
 50 48  1  0
 52 51  2  0
 54 56  1  0
 54 53  1  0
 55 66  2  0
 56 61  1  0
 57 65  1  0
 57 67  1  0
 58 64  1  0
 58 60  1  0
 59 65  1  0
 60 59  1  0
 61 60  2  0
 62 63  1  0
 62 56  2  0
 63 58  2  0
 64 57  1  0
 65 55  1  0
 67 69  2  0
 68 67  1  0
 70 68  1  0
 71 80  2  0
 71 76  1  0
 72 68  1  0
 72 76  1  0
 73 72  1  0
 74 75  1  0
 74 73  1  0
 75 71  1  0
 76 77  2  0
 77 78  1  0
 79 78  2  0
 80 79  1  0
 81 55  1  0
 81 86  1  0
 81 82  1  0
 82 85  1  1
 82 83  1  0
 84 82  1  0
 86 89  1  0
 87 91  1  0
 87 86  1  0
 88 87  2  0
 91 90  1  0
 93 91  1  0
 93 94  1  0
 93 92  1  0
M  ISO  4  13 100  21 100  53 101  54 101
M  END
>  <TORSDO>  (86) 
F 19

>  <SCORE>  (86) 
-13.678

>  <name>  (86) 
86

>  <ligand_id>  (86) 
86

>  <original_smiles>  (86) 
[H]C([H])=C([H])C1=NN(c2c([H])c([H])c(N([H])C(=O)N3C([H])([H])C([H])([H])C([H])([H])C([H])(n4nc(-c5c([H])c([H])c(Oc6c([H])c([H])c(F)c([H])c6F)c([H])c5[H])c(C(=O)N([H])[H])c4N([H])[H])C3([H])[H])c(C([H])([H])[H])c2[H])C([H])([H])C1([H])C([H])([H])Oc1c([H])c([H])c2c(c1[H])C([H])([H])N(C(=O)C([H])(N([H])C(=O)C([H])(N([H])C([H])([H])[H])C([H])([H])[H])C(C([H])([H])[H])(C([H])([H])[H])C([H])([H])[H])C([H])(C(=O)N([H])C1([H])c3c([H])c([H])c([H])c([H])c3C([H])([H])C([H])([H])C1([H])[H])C2([H])[H]

>  <smiles>  (86) 
[H]C([H])=C([H])C1=NN(c2c([H])c([H])c(N([H])C(=O)N3C([H])([H])C([H])([H])C([H])([H])C([H])(n4nc(-c5c([H])c([H])c(Oc6c([H])c([H])c(F)c([H])c6F)c([H])c5[H])c(C(=O)N([H])[H])c4N([H])[H])C3([H])[H])c(C([H])([H])[H])c2[H])C([H])([H])C1([H])C([H])([H])Oc1c([H])c([H])c2c(c1[H])C([H])([H])N(C(=O)C([H])(N([H])C(=O)C([H])(N([H])C([H])([H])[H])C([H])([H])[H])C(C([H])([H])[H])(C([H])([H])[H])C([H])([H])[H])C([H])(C(=O)N([H])C1([H])c3c([H])c([H])c([H])c([H])c3C([H])([H])C([H])([H])C1([H])[H])C2([H])[H]

$$$$
87:0:0
     RDKit          3D

 95104  0  0  1  0  0  0  0  0999 V2000
  -28.8360  -23.8950   19.9120 C   0  0  0  0  0  0  0  0  0  0  0  0
  -26.4930  -23.8640   22.2500 C   0  0  0  0  0  2  0  0  0  0  0  0
  -26.8770  -22.4290   21.9080 C   0  0  0  0  0  2  0  0  0  0  0  0
  -26.6480  -24.8340   21.0760 C   0  0  0  0  0  2  0  0  0  0  0  0
  -28.3890  -22.2340   21.7580 C   0  0  0  0  0  2  0  0  0  0  0  0
  -28.1110  -25.1540   20.6430 C   0  0  0  0  0  3  0  0  0  0  0  0
  -28.9250  -22.5900   20.4400 N   0  0  0  0  0  0  0  0  0  0  0  0
  -29.3770  -24.1440   18.8310 O   0  0  0  0  0  0  0  0  0  0  0  0
  -28.2720  -26.5230   19.9860 O   0  0  0  0  0  0  0  0  0  0  0  0
  -24.5370  -31.8700   23.1840 C   0  0  0  0  0  0  0  0  0  0  0  0
  -27.2030  -27.4520   19.9430 C   0  0  0  0  0  0  0  0  0  0  0  0
  -23.3670  -30.5630   21.4470 C   0  0  0  0  0  3  0  0  0  0  0  0
  -24.8500  -29.0970   19.9560 C   0  0  0  0  0  0  0  0  0  0  0  0
  -25.9120  -30.8840   21.3340 C   0  0  0  0  0  2  0  0  0  0  0  0
  -26.0060  -29.5420   20.6100 C   0  0  0  0  0  0  0  0  0  0  0  0
  -27.1880  -28.7310   20.5980 C   0  0  0  0  0  3  0  0  0  0  0  0
  -26.0430  -27.0990   19.2210 C   0  0  0  0  0  3  0  0  0  0  0  0
  -24.8740  -27.8840   19.2480 C   0  0  0  0  0  3  0  0  0  0  0  0
  -23.6090  -29.9640   20.0350 C   0  0  0  0  0  2  0  0  0  0  0  0
  -24.6230  -31.1230   22.0450 N   0  0  0  0  0  0  0  0  0  0  0  0
  -23.4430  -32.1160   23.7140 O   0  0  0  0  0  0  0  0  0  0  0  0
  -22.6880  -29.4960   22.3420 C   0  0  0  0  0  0  0  0  0  0  0  0
  -21.3600  -29.3440   22.2080 N   0  0  0  0  0  0  0  0  0  0  0  0
  -23.3570  -28.8100   23.1190 O   0  0  0  0  0  0  0  0  0  0  0  0
  -20.8800  -29.9520   21.5580 H   0  0  0  0  0  0  0  0  0  0  0  0
  -17.9560  -28.2340   22.7190 C   0  0  0  0  0  0  0  0  0  0  0  0
  -20.5310  -28.3660   22.9160 C   0  0  0  0  0  3  0  0  0  0  0  0
  -20.5510  -26.9970   22.1970 C   0  0  0  0  0  2  0  0  0  0  0  0
  -19.4030  -26.8250   21.1940 C   0  0  0  0  0  2  0  0  0  0  0  0
  -18.0530  -26.9550   21.9020 C   0  0  0  0  0  2  0  0  0  0  0  0
  -19.1200  -28.9050   23.1820 C   0  0  0  0  0  0  0  0  0  0  0  0
  -18.9720  -30.1090   23.9060 C   0  0  0  0  0  3  0  0  0  0  0  0
  -17.6970  -30.6420   24.1700 C   0  0  0  0  0  3  0  0  0  0  0  0
  -16.5500  -29.9660   23.7240 C   0  0  0  0  0  3  0  0  0  0  0  0
  -16.6790  -28.7640   23.0030 C   0  0  0  0  0  3  0  0  0  0  0  0
  -25.8060  -32.4730   23.8630 C   0  0  0  0  0  3  0  0  0  0  0  0
  -25.5150  -33.8790   24.1800 N   0  0  0  0  0  0  0  0  0  0  0  0
  -25.8950  -34.9240   23.4330 C   0  0  0  0  0  0  0  0  0  0  0  0
  -26.5910  -34.8030   22.4210 O   0  0  0  0  0  0  0  0  0  0  0  0
  -24.9010  -34.0480   24.9630 H   0  0  0  0  0  0  0  0  0  0  0  0
  -24.2130  -36.7540   23.0320 C   0  0  0  0  0  1  0  0  0  0  0  0
  -25.4270  -36.3260   23.8740 C   0  0  0  0  0  3  0  0  0  0  0  0
  -27.5540  -37.1740   24.7600 C   0  0  0  0  0  1  0  0  0  0  0  0
  -26.4850  -37.3550   23.7810 N   0  0  0  0  0  0  0  0  0  0  0  0
  -26.0960  -38.2860   23.9050 H   0  0  0  0  0  0  0  0  0  0  0  0
  -26.2420  -31.6930   25.1640 C   0  0  1  0  0  0  0  0  0  0  0  0
  -25.0950  -31.4840   26.1800 C   0  0  0  0  0  1  0  0  0  0  0  0
  -26.8090  -30.3000   24.8040 C   0  0  0  0  0  1  0  0  0  0  0  0
  -27.3800  -32.4600   25.8790 C   0  0  0  0  0  1  0  0  0  0  0  0
  -29.8770  -21.4720   19.9650 C   0  0  0  0  0  2  0  0  0  0  0  0
  -28.3690  -18.4050   18.0800 C   0  0  0  0  0  3  0  0  0  0  0  0
  -28.9880  -17.2850   18.6630 C   0  0  0  0  0  3  0  0  0  0  0  0
  -30.0410  -18.7620   20.2740 C   0  0  0  0  0  3  0  0  0  0  0  0
  -28.5790  -19.7140   18.5640 C   0  0  0  0  0  0  0  0  0  0  0  0
  -29.4580  -19.9540   19.6500 C   0  0  0  0  0  0  0  0  0  0  0  0
  -29.8190  -17.3980   19.7950 C   0  0  0  0  0  0  0  0  0  0  0  0
  -27.8680  -20.8570   17.8600 C   0  0  0  0  0  1  0  0  0  0  0  0
  -30.8940  -15.0140   20.0160 C   0  0  0  0  0  0  0  0  0  0  0  0
  -30.6960  -12.7040   19.0730 C   0  0  0  0  0  2  0  0  0  0  0  0
  -29.7270  -12.7390   17.8670 C   0  0  0  0  0  2  0  0  0  0  0  0
  -28.2680  -12.5680   18.3330 C   0  0  0  0  0  2  0  0  0  0  0  0
  -27.9200  -13.4840   19.5360 C   0  0  0  0  0  3  0  0  0  0  0  0
  -29.0030  -13.4150   20.6370 C   0  0  0  0  0  2  0  0  0  0  0  0
  -30.2890  -13.7710   20.0190 N   0  0  0  0  0  0  0  0  0  0  0  0
  -32.0360  -15.1340   19.5620 O   0  0  0  0  0  0  0  0  0  0  0  0
  -30.1730  -16.1140   20.4640 N   0  0  0  0  0  0  0  0  0  0  0  0
  -29.4080  -15.7840   21.0300 H   0  0  0  0  0  0  0  0  0  0  0  0
  -25.5640  -14.1220   20.3320 C   0  0  0  0  0  0  0  0  0  0  0  0
  -24.4910  -13.3680   20.7190 C   0  0  0  0  0  0  0  0  0  0  0  0
  -24.9250  -12.0070   20.6600 C   0  0  0  0  0  0  0  0  0  0  0  0
  -26.5820  -13.2230   20.0580 N   0  0  0  0  0  0  0  0  0  0  0  0
  -26.2040  -11.9440   20.3160 N   0  0  0  0  0  0  0  0  0  0  0  0
  -24.1770  -10.7590   20.8580 C   0  0  0  0  0  0  0  0  0  0  0  0
  -24.5820   -9.7980   21.8110 C   0  0  0  0  0  3  0  0  0  0  0  0
  -23.8370   -8.6140   21.9940 C   0  0  0  0  0  3  0  0  0  0  0  0
  -22.6730   -8.3810   21.2260 C   0  0  0  0  0  0  0  0  0  0  0  0
  -22.2860   -9.3300   20.2640 C   0  0  0  0  0  3  0  0  0  0  0  0
  -23.0300  -10.5070   20.0780 C   0  0  0  0  0  3  0  0  0  0  0  0
  -21.9030   -7.2480   21.3170 O   0  0  0  0  0  0  0  0  0  0  0  0
  -21.7920   -6.5450   22.4900 C   0  0  0  0  0  0  0  0  0  0  0  0
  -21.2760   -7.1340   23.6640 C   0  0  0  0  0  3  0  0  0  0  0  0
  -21.1160   -6.3580   24.8290 C   0  0  0  0  0  3  0  0  0  0  0  0
  -21.4610   -4.9930   24.8200 C   0  0  0  0  0  0  0  0  0  0  0  0
  -21.9690   -4.4030   23.6490 C   0  0  0  0  0  3  0  0  0  0  0  0
  -22.1310   -5.1760   22.4870 C   0  0  0  0  0  0  0  0  0  0  0  0
  -22.6030   -4.5990   21.3560 F   0  0  0  0  0  0  0  0  0  0  0  0
  -21.2990   -4.2450   25.9370 F   0  0  0  0  0  0  0  0  0  0  0  0
  -23.1120  -13.8710   21.0360 C   0  0  0  0  0  0  0  0  0  0  0  0
  -22.3980  -13.1870   21.9210 N   0  0  0  0  0  0  0  0  0  0  0  0
  -22.6780  -14.9060   20.5310 O   0  0  0  0  0  0  0  0  0  0  0  0
  -22.7600  -12.3520   22.3570 H   0  0  0  0  0  0  0  0  0  0  0  0
  -21.4710  -13.5050   22.1710 H   0  0  0  0  0  0  0  0  0  0  0  0
  -25.7490  -15.4930   20.1710 N   0  0  0  0  0  0  0  0  0  0  0  0
  -24.9930  -16.1540   20.3150 H   0  0  0  0  0  0  0  0  0  0  0  0
  -26.6030  -15.9340   19.8560 H   0  0  0  0  0  0  0  0  0  0  0  0
  1  7  1  0
  1  6  1  0
  3  2  1  0
  4  2  1  0
  5  3  1  0
  6  9  1  0
  6  4  1  0
  7  5  1  0
  8  1  2  0
 10 21  2  0
 11  9  1  0
 11 16  1  0
 12 20  1  0
 12 22  1  0
 13 19  1  0
 13 15  1  0
 14 20  1  0
 15 14  1  0
 16 15  2  0
 17 18  1  0
 17 11  2  0
 18 13  2  0
 19 12  1  0
 20 10  1  0
 22 24  2  0
 23 22  1  0
 25 23  1  0
 26 35  2  0
 26 31  1  0
 27 23  1  0
 27 31  1  0
 28 27  1  0
 29 30  1  0
 29 28  1  0
 30 26  1  0
 31 32  2  0
 32 33  1  0
 34 33  2  0
 35 34  1  0
 36 10  1  0
 36 37  1  0
 36 46  1  0
 37 40  1  0
 38 42  1  0
 38 37  1  0
 39 38  2  0
 42 41  1  0
 44 42  1  0
 44 45  1  0
 44 43  1  0
 46 49  1  1
 46 47  1  0
 48 46  1  0
 50  7  1  0
 51 54  2  0
 51 52  1  0
 52 56  2  0
 54 55  1  0
 55 50  1  0
 55 53  2  0
 56 53  1  0
 56 66  1  0
 57 54  1  0
 58 64  1  0
 58 66  1  0
 59 64  1  0
 60 61  1  0
 60 59  1  0
 62 61  1  0
 62 71  1  0
 62 63  1  0
 64 63  1  0
 65 58  2  0
 66 67  1  0
 68 69  2  0
 69 88  1  0
 70 69  1  0
 70 73  1  0
 71 72  1  0
 71 68  1  0
 72 70  2  0
 73 74  1  0
 74 75  2  0
 76 79  1  0
 76 75  1  0
 77 76  2  0
 78 77  1  0
 78 73  2  0
 79 80  1  0
 80 81  1  0
 81 82  2  0
 83 82  1  0
 83 87  1  0
 84 83  2  0
 85 80  2  0
 85 84  1  0
 86 85  1  0
 88 89  1  0
 89 92  1  0
 89 91  1  0
 90 88  2  0
 93 94  1  0
 93 68  1  0
 95 93  1  0
M  ISO  4   6 101   9 101  58 100  66 100
M  END
>  <TORSDO>  (87) 
F 18

>  <SCORE>  (87) 
-13.904

>  <name>  (87) 
87

>  <ligand_id>  (87) 
87

>  <original_smiles>  (87) 
[H]c1c([H])c([H])c2c(c1[H])C([H])([H])C([H])([H])C([H])([H])C2([H])N([H])C(=O)C1([H])N(C(=O)C([H])(N([H])C(=O)C([H])(N([H])C([H])([H])[H])C([H])([H])[H])C(C([H])([H])[H])(C([H])([H])[H])C([H])([H])[H])C([H])([H])c2c([H])c(OC3([H])C(=O)N(C([H])([H])c4c([H])c(N([H])C(=O)N5C([H])([H])C([H])([H])C([H])([H])C([H])(n6nc(-c7c([H])c([H])c(Oc8c([H])c([H])c(F)c([H])c8F)c([H])c7[H])c(C(=O)N([H])[H])c6N([H])[H])C5([H])[H])c([H])c([H])c4C([H])([H])[H])C([H])([H])C([H])([H])C([H])([H])C3([H])[H])c([H])c([H])c2C1([H])[H]

>  <smiles>  (87) 
[H]c1c([H])c([H])c2c(c1[H])C([H])([H])C([H])([H])C([H])([H])C2([H])N([H])C(=O)C1([H])N(C(=O)C([H])(N([H])C(=O)C([H])(N([H])C([H])([H])[H])C([H])([H])[H])C(C([H])([H])[H])(C([H])([H])[H])C([H])([H])[H])C([H])([H])c2c([H])c(OC3([H])C(=O)N(C([H])([H])c4c([H])c(N([H])C(=O)N5C([H])([H])C([H])([H])C([H])([H])C([H])(n6nc(-c7c([H])c([H])c(Oc8c([H])c([H])c(F)c([H])c8F)c([H])c7[H])c(C(=O)N([H])[H])c6N([H])[H])C5([H])[H])c([H])c([H])c4C([H])([H])[H])C([H])([H])C([H])([H])C([H])([H])C3([H])[H])c([H])c([H])c2C1([H])[H]

$$$$
88:0:0
     RDKit          3D

 96104  0  0  1  0  0  0  0  0999 V2000
  -29.9170  -21.6510   20.9550 C   0  0  0  0  0  0  0  0  0  0  0  0
  -30.6670  -22.0940   21.9640 N   0  0  0  0  0  4  0  0  0  0  0  0
  -29.2360  -22.6300   20.2600 N   0  0  0  0  0  0  0  0  0  0  0  0
  -31.2790  -21.4400   22.4320 H   0  0  0  0  0  0  0  0  0  0  0  0
  -30.6790  -23.0530   22.2610 H   0  0  0  0  0  0  0  0  0  0  0  0
  -28.6990  -22.3030   19.4650 H   0  0  0  0  0  0  0  0  0  0  0  0
  -28.7340  -19.4160   20.4250 C   0  0  0  0  0  3  0  0  0  0  0  0
  -31.0850  -17.9330   20.8420 C   0  0  0  0  0  3  0  0  0  0  0  0
  -29.9120  -20.1480   20.7190 C   0  0  0  0  0  0  0  0  0  0  0  0
  -29.8930  -17.2060   20.6060 C   0  0  0  0  0  0  0  0  0  0  0  0
  -28.7270  -17.9880   20.3820 C   0  0  0  0  0  0  0  0  0  0  0  0
  -31.0930  -19.3600   20.9020 C   0  0  0  0  0  0  0  0  0  0  0  0
  -27.5590  -17.3460   20.1370 F   0  0  0  0  0  0  0  0  0  0  0  0
  -32.2690  -19.9700   21.1900 F   0  0  0  0  0  0  0  0  0  0  0  0
  -30.5850  -14.7080   20.3380 C   0  0  0  0  0  0  0  0  0  0  0  0
  -30.3620  -12.4840   19.2470 C   0  0  0  0  0  2  0  0  0  0  0  0
  -29.3880  -12.6260   18.0560 C   0  0  0  0  0  2  0  0  0  0  0  0
  -27.9230  -12.4660   18.5140 C   0  0  0  0  0  2  0  0  0  0  0  0
  -27.5940  -13.3130   19.7730 C   0  0  0  0  0  3  0  0  0  0  0  0
  -28.6760  -13.1360   20.8620 C   0  0  0  0  0  2  0  0  0  0  0  0
  -29.9730  -13.4840   20.2580 N   0  0  0  0  0  0  0  0  0  0  0  0
  -31.7480  -14.8770   19.9570 O   0  0  0  0  0  0  0  0  0  0  0  0
  -29.7550  -15.7500   20.6530 N   0  0  0  0  0  0  0  0  0  0  0  0
  -28.8120  -15.4490   20.8430 H   0  0  0  0  0  0  0  0  0  0  0  0
  -25.2200  -13.9120   20.5530 C   0  0  0  0  0  0  0  0  0  0  0  0
  -24.1570  -13.1380   20.9330 C   0  0  0  0  0  0  0  0  0  0  0  0
  -24.6130  -11.7860   20.8720 C   0  0  0  0  0  0  0  0  0  0  0  0
  -26.2550  -13.0320   20.2830 N   0  0  0  0  0  0  0  0  0  0  0  0
  -25.8970  -11.7460   20.5360 N   0  0  0  0  0  0  0  0  0  0  0  0
  -23.8850  -10.5230   21.0590 C   0  0  0  0  0  0  0  0  0  0  0  0
  -24.3240   -9.5470   21.9790 C   0  0  0  0  0  3  0  0  0  0  0  0
  -23.5970   -8.3500   22.1550 C   0  0  0  0  0  3  0  0  0  0  0  0
  -22.4160   -8.1220   21.4080 C   0  0  0  0  0  0  0  0  0  0  0  0
  -21.9960   -9.0880   20.4780 C   0  0  0  0  0  3  0  0  0  0  0  0
  -22.7230  -10.2760   20.3000 C   0  0  0  0  0  3  0  0  0  0  0  0
  -21.6600   -6.9780   21.4930 O   0  0  0  0  0  0  0  0  0  0  0  0
  -21.6080   -6.2340   22.6440 C   0  0  0  0  0  0  0  0  0  0  0  0
  -21.1410   -6.7750   23.8630 C   0  0  0  0  0  3  0  0  0  0  0  0
  -21.0390   -5.9550   25.0040 C   0  0  0  0  0  3  0  0  0  0  0  0
  -21.3930   -4.5940   24.9290 C   0  0  0  0  0  0  0  0  0  0  0  0
  -21.8520   -4.0530   23.7160 C   0  0  0  0  0  3  0  0  0  0  0  0
  -21.9560   -4.8690   22.5760 C   0  0  0  0  0  0  0  0  0  0  0  0
  -22.3800   -4.3370   21.4040 F   0  0  0  0  0  0  0  0  0  0  0  0
  -21.2880   -3.8040   26.0230 F   0  0  0  0  0  0  0  0  0  0  0  0
  -22.7670  -13.6170   21.2420 C   0  0  0  0  0  0  0  0  0  0  0  0
  -22.0530  -12.9070   22.1080 N   0  0  0  0  0  0  0  0  0  0  0  0
  -22.3240  -14.6550   20.7520 O   0  0  0  0  0  0  0  0  0  0  0  0
  -22.4250  -12.0670   22.5270 H   0  0  0  0  0  0  0  0  0  0  0  0
  -21.1210  -13.2080   22.3560 H   0  0  0  0  0  0  0  0  0  0  0  0
  -25.3810  -15.2860   20.3970 N   0  0  0  0  0  0  0  0  0  0  0  0
  -24.6150  -15.9300   20.5510 H   0  0  0  0  0  0  0  0  0  0  0  0
  -26.2280  -15.7590   20.1030 H   0  0  0  0  0  0  0  0  0  0  0  0
  -30.6270  -24.5960   19.5460 C   0  0  0  0  0  1  0  0  0  0  0  0
  -29.4020  -24.1510   20.3640 C   0  0  0  0  0  3  0  0  0  0  0  0
  -28.1660  -25.0820   20.0020 C   0  0  0  0  0  2  0  0  0  0  0  0
  -28.3320  -26.5420   20.2070 O   0  0  0  0  0  0  0  0  0  0  0  0
  -24.5930  -31.9240   23.2210 C   0  0  0  0  0  0  0  0  0  0  0  0
  -27.2010  -27.3720   20.1590 C   0  0  0  0  0  0  0  0  0  0  0  0
  -23.3850  -30.5240   21.5840 C   0  0  0  0  0  3  0  0  0  0  0  0
  -24.8320  -28.9750   20.1550 C   0  0  0  0  0  0  0  0  0  0  0  0
  -25.9230  -30.8470   21.3920 C   0  0  0  0  0  2  0  0  0  0  0  0
  -26.0020  -29.4680   20.7460 C   0  0  0  0  0  0  0  0  0  0  0  0
  -27.1900  -28.6790   20.7380 C   0  0  0  0  0  3  0  0  0  0  0  0
  -26.0060  -26.9290   19.5480 C   0  0  0  0  0  3  0  0  0  0  0  0
  -24.8350  -27.7100   19.5480 C   0  0  0  0  0  3  0  0  0  0  0  0
  -23.5960  -29.8470   20.2040 C   0  0  0  0  0  2  0  0  0  0  0  0
  -24.6520  -31.1150   22.1220 N   0  0  0  0  0  0  0  0  0  0  0  0
  -23.5100  -32.1990   23.7590 O   0  0  0  0  0  0  0  0  0  0  0  0
  -22.7260  -29.5080   22.5460 C   0  0  0  0  0  0  0  0  0  0  0  0
  -21.3990  -29.3310   22.4230 N   0  0  0  0  0  0  0  0  0  0  0  0
  -23.4070  -28.8810   23.3620 O   0  0  0  0  0  0  0  0  0  0  0  0
  -20.9090  -29.8880   21.7360 H   0  0  0  0  0  0  0  0  0  0  0  0
  -18.0180  -28.1590   22.9490 C   0  0  0  0  0  0  0  0  0  0  0  0
  -20.5820  -28.3950   23.1960 C   0  0  0  0  0  3  0  0  0  0  0  0
  -20.6660  -26.9670   22.6080 C   0  0  0  0  0  2  0  0  0  0  0  0
  -19.5520  -26.6610   21.6040 C   0  0  0  0  0  2  0  0  0  0  0  0
  -18.1770  -26.8150   22.2610 C   0  0  0  0  0  2  0  0  0  0  0  0
  -19.1470  -28.9090   23.3730 C   0  0  0  0  0  0  0  0  0  0  0  0
  -18.9450  -30.1710   23.9750 C   0  0  0  0  0  3  0  0  0  0  0  0
  -17.6460  -30.6820   24.1560 C   0  0  0  0  0  3  0  0  0  0  0  0
  -16.5310  -29.9300   23.7480 C   0  0  0  0  0  3  0  0  0  0  0  0
  -16.7180  -28.6700   23.1500 C   0  0  0  0  0  3  0  0  0  0  0  0
  -25.8770  -32.5550   23.8400 C   0  0  0  0  0  3  0  0  0  0  0  0
  -26.4020  -31.7760   25.1090 C   0  0  1  0  0  0  0  0  0  0  0  0
  -25.3140  -31.5230   26.1770 C   0  0  0  0  0  1  0  0  0  0  0  0
  -26.9920  -30.4060   24.7020 C   0  0  0  0  0  1  0  0  0  0  0  0
  -27.5490  -32.5710   25.7750 C   0  0  0  0  0  1  0  0  0  0  0  0
  -25.5650  -33.9500   24.1830 N   0  0  0  0  0  0  0  0  0  0  0  0
  -25.8730  -35.0080   23.4220 C   0  0  0  0  0  0  0  0  0  0  0  0
  -26.5200  -34.9130   22.3740 O   0  0  0  0  0  0  0  0  0  0  0  0
  -24.9910  -34.0980   25.0000 H   0  0  0  0  0  0  0  0  0  0  0  0
  -24.1250  -36.7890   23.1150 C   0  0  0  0  0  1  0  0  0  0  0  0
  -25.3880  -36.3910   23.8950 C   0  0  0  0  0  3  0  0  0  0  0  0
  -27.5300  -37.2940   24.6850 C   0  0  0  0  0  1  0  0  0  0  0  0
  -26.4110  -37.4520   23.7610 N   0  0  0  0  0  0  0  0  0  0  0  0
  -26.0000  -38.3680   23.9140 H   0  0  0  0  0  0  0  0  0  0  0  0
  1  2  2  0
  2  5  1  0
  2  4  1  0
  3 54  1  0
  3  1  1  0
  6  3  1  0
  7  9  1  0
  8 12  1  0
  9 12  2  0
  9  1  1  0
 10 23  1  0
 10  8  2  0
 11  7  2  0
 11 10  1  0
 12 14  1  0
 13 11  1  0
 15 23  1  0
 16 21  1  0
 17 18  1  0
 17 16  1  0
 19 18  1  0
 19 28  1  0
 19 20  1  0
 21 15  1  0
 21 20  1  0
 22 15  2  0
 23 24  1  0
 25 26  2  0
 26 45  1  0
 27 26  1  0
 27 30  1  0
 28 29  1  0
 28 25  1  0
 29 27  2  0
 30 31  1  0
 31 32  2  0
 33 36  1  0
 33 32  1  0
 34 33  2  0
 35 34  1  0
 35 30  2  0
 36 37  1  0
 37 38  1  0
 38 39  2  0
 40 39  1  0
 40 44  1  0
 41 40  2  0
 42 37  2  0
 42 41  1  0
 43 42  1  0
 45 46  1  0
 46 49  1  0
 46 48  1  0
 47 45  2  0
 50 51  1  0
 50 25  1  0
 52 50  1  0
 54 53  1  0
 55 56  1  0
 55 54  1  0
 57 68  2  0
 58 56  1  0
 58 63  1  0
 59 67  1  0
 59 69  1  0
 60 66  1  0
 60 62  1  0
 61 67  1  0
 62 61  1  0
 63 62  2  0
 64 65  1  0
 64 58  2  0
 65 60  2  0
 66 59  1  0
 67 57  1  0
 69 71  2  0
 70 69  1  0
 72 70  1  0
 73 82  2  0
 73 78  1  0
 74 70  1  0
 74 78  1  0
 75 74  1  0
 76 77  1  0
 76 75  1  0
 77 73  1  0
 78 79  2  0
 79 80  1  0
 81 80  2  0
 82 81  1  0
 83 57  1  0
 83 88  1  0
 83 84  1  0
 84 87  1  1
 84 85  1  0
 86 84  1  0
 88 91  1  0
 89 93  1  0
 89 88  1  0
 90 89  2  0
 93 92  1  0
 95 93  1  0
 95 96  1  0
 95 94  1  0
M  ISO  4  15 100  23 100  55 101  56 101
M  END
>  <TORSDO>  (88) 
F 19

>  <SCORE>  (88) 
-14.811

>  <name>  (88) 
88

>  <ligand_id>  (88) 
88

>  <original_smiles>  (88) 
[H]c1c([H])c([H])c2c(c1[H])C([H])([H])C([H])([H])C([H])([H])C2([H])N([H])C(=O)C1([H])N(C(=O)C([H])(N([H])C(=O)C([H])(N([H])C([H])([H])[H])C([H])([H])[H])C(C([H])([H])[H])(C([H])([H])[H])C([H])([H])[H])C([H])([H])c2c([H])c(OC([H])([H])C([H])([N+]([H])=C(c3c([H])c(F)c(N([H])C(=O)N4C([H])([H])C([H])([H])C([H])([H])C([H])(n5nc(-c6c([H])c([H])c(Oc7c([H])c([H])c(F)c([H])c7F)c([H])c6[H])c(C(=O)N([H])[H])c5N([H])[H])C4([H])[H])c([H])c3F)N([H])[H])C([H])([H])[H])c([H])c([H])c2C1([H])[H]

>  <smiles>  (88) 
[H]c1c([H])c([H])c2c(c1[H])C([H])([H])C([H])([H])C([H])([H])C2([H])N([H])C(=O)C1([H])N(C(=O)C([H])(N([H])C(=O)C([H])(N([H])C([H])([H])[H])C([H])([H])[H])C(C([H])([H])[H])(C([H])([H])[H])C([H])([H])[H])C([H])([H])c2c([H])c(OC([H])([H])C([H])([N+]([H])=C(c3c([H])c(F)c(N([H])C(=O)N4C([H])([H])C([H])([H])C([H])([H])C([H])(n5nc(-c6c([H])c([H])c(Oc7c([H])c([H])c(F)c([H])c7F)c([H])c6[H])c(C(=O)N([H])[H])c5N([H])[H])C4([H])[H])c([H])c3F)N([H])[H])C([H])([H])[H])c([H])c([H])c2C1([H])[H]

$$$$
89:0:0
     RDKit          3D

 93101  0  0  1  0  0  0  0  0999 V2000
  -27.6190  -20.6690   19.7670 C   0  0  0  0  0  3  0  0  0  0  0  0
  -29.8010  -19.9150   20.5120 C   0  0  0  0  0  3  0  0  0  0  0  0
  -27.2720  -19.3260   19.5110 C   0  0  0  0  0  0  0  0  0  0  0  0
  -29.4810  -18.5130   20.2300 C   0  0  0  0  0  0  0  0  0  0  0  0
  -28.8800  -21.0270   20.2930 C   0  0  0  0  0  0  0  0  0  0  0  0
  -28.1840  -18.2690   19.7280 C   0  0  0  0  0  0  0  0  0  0  0  0
  -25.8710  -19.0120   19.0260 C   0  0  0  0  0  1  0  0  0  0  0  0
  -27.7950  -17.0020   19.4550 F   0  0  0  0  0  0  0  0  0  0  0  0
  -28.5160  -23.6280   20.2180 C   0  0  0  0  0  0  0  0  0  0  0  0
  -29.1000  -22.4520   20.6900 N   0  0  0  0  0  0  0  0  0  0  0  0
  -28.0780  -23.6860   19.0660 O   0  0  0  0  0  0  0  0  0  0  0  0
  -29.6510  -22.5840   21.5250 H   0  0  0  0  0  0  0  0  0  0  0  0
  -28.3650  -24.9370   21.1390 C   0  0  0  0  0  2  0  0  0  0  0  0
  -28.5010  -26.3110   20.5500 O   0  0  0  0  0  0  0  0  0  0  0  0
  -24.6140  -31.8410   23.2740 C   0  0  0  0  0  0  0  0  0  0  0  0
  -27.3840  -27.1700   20.5100 C   0  0  0  0  0  0  0  0  0  0  0  0
  -23.4990  -30.3890   21.6170 C   0  0  0  0  0  3  0  0  0  0  0  0
  -25.0240  -28.7900   20.3230 C   0  0  0  0  0  0  0  0  0  0  0  0
  -26.0460  -30.7030   21.5580 C   0  0  0  0  0  2  0  0  0  0  0  0
  -26.1630  -29.3000   20.9640 C   0  0  0  0  0  0  0  0  0  0  0  0
  -27.3480  -28.5020   21.0430 C   0  0  0  0  0  3  0  0  0  0  0  0
  -26.2250  -26.7140   19.8540 C   0  0  0  0  0  3  0  0  0  0  0  0
  -25.0590  -27.5040   19.7580 C   0  0  0  0  0  3  0  0  0  0  0  0
  -23.7870  -29.6650   20.2760 C   0  0  0  0  0  2  0  0  0  0  0  0
  -24.7360  -30.9980   22.2060 N   0  0  0  0  0  0  0  0  0  0  0  0
  -23.5050  -32.1320   23.7430 O   0  0  0  0  0  0  0  0  0  0  0  0
  -22.7880  -29.4040   22.5750 C   0  0  0  0  0  0  0  0  0  0  0  0
  -21.4630  -29.2490   22.4120 N   0  0  0  0  0  0  0  0  0  0  0  0
  -23.4290  -28.7820   23.4250 O   0  0  0  0  0  0  0  0  0  0  0  0
  -21.0050  -29.7950   21.6960 H   0  0  0  0  0  0  0  0  0  0  0  0
  -18.0410  -28.1850   22.8980 C   0  0  0  0  0  0  0  0  0  0  0  0
  -20.6060  -28.3380   23.1730 C   0  0  0  0  0  3  0  0  0  0  0  0
  -20.6520  -26.9110   22.5840 C   0  0  0  0  0  2  0  0  0  0  0  0
  -19.5410  -26.6400   21.5640 C   0  0  0  0  0  2  0  0  0  0  0  0
  -18.1650  -26.8370   22.2070 C   0  0  0  0  0  2  0  0  0  0  0  0
  -19.1880  -28.8970   23.3370 C   0  0  0  0  0  0  0  0  0  0  0  0
  -19.0210  -30.1580   23.9470 C   0  0  0  0  0  3  0  0  0  0  0  0
  -17.7360  -30.7090   24.1160 C   0  0  0  0  0  3  0  0  0  0  0  0
  -16.6040  -29.9960   23.6900 C   0  0  0  0  0  3  0  0  0  0  0  0
  -16.7560  -28.7340   23.0880 C   0  0  0  0  0  3  0  0  0  0  0  0
  -25.8630  -32.4970   23.9420 C   0  0  0  0  0  3  0  0  0  0  0  0
  -26.3310  -31.7510   25.2510 C   0  0  1  0  0  0  0  0  0  0  0  0
  -25.1890  -31.4870   26.2580 C   0  0  0  0  0  1  0  0  0  0  0  0
  -26.9790  -30.3910   24.9050 C   0  0  0  0  0  1  0  0  0  0  0  0
  -27.4170  -32.5860   25.9700 C   0  0  0  0  0  1  0  0  0  0  0  0
  -25.5240  -33.8990   24.2390 N   0  0  0  0  0  0  0  0  0  0  0  0
  -25.8460  -34.9410   23.4610 C   0  0  0  0  0  0  0  0  0  0  0  0
  -26.5270  -34.8270   22.4390 O   0  0  0  0  0  0  0  0  0  0  0  0
  -24.9210  -34.0590   25.0320 H   0  0  0  0  0  0  0  0  0  0  0  0
  -24.0810  -36.6900   23.0670 C   0  0  0  0  0  1  0  0  0  0  0  0
  -25.3310  -36.3300   23.8870 C   0  0  0  0  0  3  0  0  0  0  0  0
  -27.4360  -37.2910   24.7070 C   0  0  0  0  0  1  0  0  0  0  0  0
  -26.3420  -37.4010   23.7450 N   0  0  0  0  0  0  0  0  0  0  0  0
  -25.9130  -38.3150   23.8550 H   0  0  0  0  0  0  0  0  0  0  0  0
  -30.4790  -17.2780   20.4640 C   0  0  0  0  0  2  0  0  0  0  0  0
  -30.7480  -14.6480   20.2380 C   0  0  0  0  0  0  0  0  0  0  0  0
  -30.4630  -12.3980   19.1800 C   0  0  0  0  0  2  0  0  0  0  0  0
  -29.4850  -12.4970   17.9900 C   0  0  0  0  0  2  0  0  0  0  0  0
  -28.0240  -12.3600   18.4590 C   0  0  0  0  0  2  0  0  0  0  0  0
  -27.7080  -13.2260   19.7090 C   0  0  0  0  0  3  0  0  0  0  0  0
  -28.8030  -13.0970   20.7890 C   0  0  0  0  0  2  0  0  0  0  0  0
  -30.0840  -13.4440   20.1600 N   0  0  0  0  0  0  0  0  0  0  0  0
  -31.9310  -14.7190   19.8960 O   0  0  0  0  0  0  0  0  0  0  0  0
  -30.0270  -15.8070   20.4950 N   0  0  0  0  0  0  0  0  0  0  0  0
  -29.0450  -15.6750   20.6910 H   0  0  0  0  0  0  0  0  0  0  0  0
  -25.3510  -13.8330   20.5240 C   0  0  0  0  0  0  0  0  0  0  0  0
  -24.2810  -13.0680   20.8960 C   0  0  0  0  0  0  0  0  0  0  0  0
  -24.7200  -11.7110   20.8190 C   0  0  0  0  0  0  0  0  0  0  0  0
  -26.3750  -12.9460   20.2360 N   0  0  0  0  0  0  0  0  0  0  0  0
  -26.0040  -11.6620   20.4790 N   0  0  0  0  0  0  0  0  0  0  0  0
  -23.9740  -10.4570   20.9930 C   0  0  0  0  0  0  0  0  0  0  0  0
  -24.3810   -9.4750   21.9240 C   0  0  0  0  0  3  0  0  0  0  0  0
  -23.6330   -8.2900   22.0900 C   0  0  0  0  0  3  0  0  0  0  0  0
  -22.4630   -8.0740   21.3240 C   0  0  0  0  0  0  0  0  0  0  0  0
  -22.0730   -9.0420   20.3820 C   0  0  0  0  0  3  0  0  0  0  0  0
  -22.8230  -10.2200   20.2130 C   0  0  0  0  0  3  0  0  0  0  0  0
  -21.6910   -6.9380   21.3990 O   0  0  0  0  0  0  0  0  0  0  0  0
  -21.5850   -6.2160   22.5600 C   0  0  0  0  0  0  0  0  0  0  0  0
  -21.0410   -6.7730   23.7390 C   0  0  0  0  0  3  0  0  0  0  0  0
  -20.8870   -5.9750   24.8890 C   0  0  0  0  0  3  0  0  0  0  0  0
  -21.2660   -4.6190   24.8630 C   0  0  0  0  0  0  0  0  0  0  0  0
  -21.8020   -4.0610   23.6890 C   0  0  0  0  0  3  0  0  0  0  0  0
  -21.9580   -4.8570   22.5410 C   0  0  0  0  0  0  0  0  0  0  0  0
  -22.4560   -4.3080   21.4060 F   0  0  0  0  0  0  0  0  0  0  0  0
  -21.1100   -3.8490   25.9650 F   0  0  0  0  0  0  0  0  0  0  0  0
  -22.8970  -13.5600   21.2100 C   0  0  0  0  0  0  0  0  0  0  0  0
  -22.1840  -12.8690   22.0910 N   0  0  0  0  0  0  0  0  0  0  0  0
  -22.4590  -14.5960   20.7090 O   0  0  0  0  0  0  0  0  0  0  0  0
  -22.5490  -12.0300   22.5170 H   0  0  0  0  0  0  0  0  0  0  0  0
  -21.2570  -13.1820   22.3440 H   0  0  0  0  0  0  0  0  0  0  0  0
  -25.5250  -15.2060   20.3860 N   0  0  0  0  0  0  0  0  0  0  0  0
  -24.7690  -15.8620   20.5440 H   0  0  0  0  0  0  0  0  0  0  0  0
  -26.3930  -15.6660   20.1280 H   0  0  0  0  0  0  0  0  0  0  0  0
  1  5  1  0
  3  6  1  0
  3  1  2  0
  4 55  1  0
  4  2  1  0
  5  2  2  0
  5 10  1  0
  6  4  2  0
  7  3  1  0
  8  6  1  0
  9 10  1  0
  9 13  1  0
 10 12  1  0
 11  9  2  0
 14 13  1  0
 15 26  2  0
 16 14  1  0
 16 21  1  0
 17 25  1  0
 17 27  1  0
 18 20  1  0
 19 25  1  0
 20 21  2  0
 20 19  1  0
 22 16  2  0
 23 22  1  0
 23 18  2  0
 24 18  1  0
 24 17  1  0
 25 15  1  0
 27 29  2  0
 28 27  1  0
 30 28  1  0
 31 40  2  0
 31 36  1  0
 32 28  1  0
 32 36  1  0
 33 32  1  0
 34 35  1  0
 34 33  1  0
 35 31  1  0
 36 37  2  0
 37 38  1  0
 39 38  2  0
 40 39  1  0
 41 15  1  0
 41 46  1  0
 41 42  1  0
 42 45  1  1
 42 43  1  0
 44 42  1  0
 46 49  1  0
 47 51  1  0
 47 46  1  0
 48 47  2  0
 51 50  1  0
 53 54  1  0
 53 51  1  0
 53 52  1  0
 55 64  1  0
 56 64  1  0
 57 62  1  0
 58 59  1  0
 58 57  1  0
 60 59  1  0
 60 69  1  0
 60 61  1  0
 62 56  1  0
 62 61  1  0
 63 56  2  0
 64 65  1  0
 66 67  2  0
 67 86  1  0
 68 67  1  0
 68 71  1  0
 69 70  1  0
 69 66  1  0
 70 68  2  0
 71 72  1  0
 72 73  2  0
 74 77  1  0
 74 73  1  0
 75 74  2  0
 76 75  1  0
 76 71  2  0
 77 78  1  0
 78 79  1  0
 79 80  2  0
 81 80  1  0
 81 85  1  0
 82 81  2  0
 83 78  2  0
 83 82  1  0
 84 83  1  0
 86 87  1  0
 87 90  1  0
 87 89  1  0
 88 86  2  0
 91 66  1  0
 91 92  1  0
 93 91  1  0
M  ISO  4  13 101  14 101  56 100  64 100
M  END
>  <TORSDO>  (89) 
F 19

>  <SCORE>  (89) 
-13.715

>  <name>  (89) 
89

>  <ligand_id>  (89) 
89

>  <original_smiles>  (89) 
[H]c1c([H])c([H])c2c(c1[H])C([H])([H])C([H])([H])C([H])([H])C2([H])N([H])C(=O)C1([H])N(C(=O)C([H])(N([H])C(=O)C([H])(N([H])C([H])([H])[H])C([H])([H])[H])C(C([H])([H])[H])(C([H])([H])[H])C([H])([H])[H])C([H])([H])c2c([H])c(OC([H])([H])C(=O)N([H])c3c([H])c(C([H])([H])[H])c(F)c(C([H])([H])N([H])C(=O)N4C([H])([H])C([H])([H])C([H])([H])C([H])(n5nc(-c6c([H])c([H])c(Oc7c([H])c([H])c(F)c([H])c7F)c([H])c6[H])c(C(=O)N([H])[H])c5N([H])[H])C4([H])[H])c3[H])c([H])c([H])c2C1([H])[H]

>  <smiles>  (89) 
[H]c1c([H])c([H])c2c(c1[H])C([H])([H])C([H])([H])C([H])([H])C2([H])N([H])C(=O)C1([H])N(C(=O)C([H])(N([H])C(=O)C([H])(N([H])C([H])([H])[H])C([H])([H])[H])C(C([H])([H])[H])(C([H])([H])[H])C([H])([H])[H])C([H])([H])c2c([H])c(OC([H])([H])C(=O)N([H])c3c([H])c(C([H])([H])[H])c(F)c(C([H])([H])N([H])C(=O)N4C([H])([H])C([H])([H])C([H])([H])C([H])(n5nc(-c6c([H])c([H])c(Oc7c([H])c([H])c(F)c([H])c7F)c([H])c6[H])c(C(=O)N([H])[H])c5N([H])[H])C4([H])[H])c3[H])c([H])c([H])c2C1([H])[H]

$$$$
90:0:0
     RDKit          3D

 92100  0  0  1  0  0  0  0  0999 V2000
  -30.9530  -20.6600   20.5610 C   0  0  0  0  0  3  0  0  0  0  0  0
  -31.4010  -18.2160   20.6110 C   0  0  0  0  0  3  0  0  0  0  0  0
  -31.8400  -19.5590   20.6600 C   0  0  0  0  0  0  0  0  0  0  0  0
  -29.5520  -20.5190   20.4160 C   0  0  0  0  0  0  0  0  0  0  0  0
  -30.0450  -17.8550   20.4640 C   0  0  0  0  0  0  0  0  0  0  0  0
  -29.1370  -19.0640   20.3740 C   0  0  0  0  0  0  0  0  0  0  0  0
  -33.3250  -19.8270   20.8170 C   0  0  0  0  0  1  0  0  0  0  0  0
  -27.8120  -18.8150   20.2390 F   0  0  0  0  0  0  0  0  0  0  0  0
  -30.4830  -15.1030   20.3240 C   0  0  0  0  0  0  0  0  0  0  0  0
  -30.3810  -12.7270   19.3880 C   0  0  0  0  0  2  0  0  0  0  0  0
  -29.4390  -12.6330   18.1640 C   0  0  0  0  0  2  0  0  0  0  0  0
  -27.9870  -12.3930   18.6160 C   0  0  0  0  0  2  0  0  0  0  0  0
  -27.5750  -13.3210   19.7880 C   0  0  0  0  0  3  0  0  0  0  0  0
  -28.6410  -13.3830   20.9020 C   0  0  0  0  0  2  0  0  0  0  0  0
  -29.8880  -13.8330   20.2680 N   0  0  0  0  0  0  0  0  0  0  0  0
  -31.6910  -15.1230   20.0600 O   0  0  0  0  0  0  0  0  0  0  0  0
  -29.7160  -16.3230   20.4490 N   0  0  0  0  0  0  0  0  0  0  0  0
  -28.7280  -16.1370   20.5370 H   0  0  0  0  0  0  0  0  0  0  0  0
  -25.2040  -13.8660   20.5740 C   0  0  0  0  0  0  0  0  0  0  0  0
  -24.1520  -13.0790   20.9480 C   0  0  0  0  0  0  0  0  0  0  0  0
  -24.6260  -11.7310   20.8940 C   0  0  0  0  0  0  0  0  0  0  0  0
  -26.2500  -12.9990   20.3070 N   0  0  0  0  0  0  0  0  0  0  0  0
  -25.9140  -11.7090   20.5670 N   0  0  0  0  0  0  0  0  0  0  0  0
  -23.9090  -10.4620   21.0760 C   0  0  0  0  0  0  0  0  0  0  0  0
  -24.3580   -9.4830   21.9880 C   0  0  0  0  0  3  0  0  0  0  0  0
  -23.6390   -8.2810   22.1600 C   0  0  0  0  0  3  0  0  0  0  0  0
  -22.4550   -8.0490   21.4200 C   0  0  0  0  0  0  0  0  0  0  0  0
  -22.0240   -9.0180   20.4960 C   0  0  0  0  0  3  0  0  0  0  0  0
  -22.7450  -10.2110   20.3220 C   0  0  0  0  0  3  0  0  0  0  0  0
  -21.7050   -6.9010   21.5020 O   0  0  0  0  0  0  0  0  0  0  0  0
  -21.6780   -6.1390   22.6430 C   0  0  0  0  0  0  0  0  0  0  0  0
  -21.2560   -6.6670   23.8830 C   0  0  0  0  0  3  0  0  0  0  0  0
  -21.1770   -5.8310   25.0140 C   0  0  0  0  0  3  0  0  0  0  0  0
  -21.5120   -4.4680   24.9080 C   0  0  0  0  0  0  0  0  0  0  0  0
  -21.9290   -3.9390   23.6740 C   0  0  0  0  0  3  0  0  0  0  0  0
  -22.0090   -4.7720   22.5440 C   0  0  0  0  0  0  0  0  0  0  0  0
  -22.3910   -4.2530   21.3520 F   0  0  0  0  0  0  0  0  0  0  0  0
  -21.4300   -3.6630   25.9930 F   0  0  0  0  0  0  0  0  0  0  0  0
  -22.7550  -13.5430   21.2390 C   0  0  0  0  0  0  0  0  0  0  0  0
  -22.0430  -12.8370   22.1090 N   0  0  0  0  0  0  0  0  0  0  0  0
  -22.3050  -14.5690   20.7290 O   0  0  0  0  0  0  0  0  0  0  0  0
  -22.4200  -12.0070   22.5410 H   0  0  0  0  0  0  0  0  0  0  0  0
  -21.1060  -13.1310   22.3480 H   0  0  0  0  0  0  0  0  0  0  0  0
  -25.3540  -15.2410   20.4100 N   0  0  0  0  0  0  0  0  0  0  0  0
  -24.5780  -15.8810   20.5350 H   0  0  0  0  0  0  0  0  0  0  0  0
  -26.1800  -15.6930   20.0420 H   0  0  0  0  0  0  0  0  0  0  0  0
  -28.9610  -23.2610   20.3980 C   0  0  0  0  0  0  0  0  0  0  0  0
  -28.6960  -21.8330   20.3100 N   0  0  0  0  0  0  0  0  0  0  0  0
  -30.1050  -23.6320   20.6670 O   0  0  0  0  0  0  0  0  0  0  0  0
  -27.7200  -21.6460   20.1260 H   0  0  0  0  0  0  0  0  0  0  0  0
  -27.8670  -24.5270   20.1730 C   0  0  0  0  0  2  0  0  0  0  0  0
  -28.1960  -26.0770   20.3360 O   0  0  0  0  0  0  0  0  0  0  0  0
  -24.6350  -31.9210   23.2550 C   0  0  0  0  0  0  0  0  0  0  0  0
  -27.1710  -27.1140   20.2610 C   0  0  0  0  0  0  0  0  0  0  0  0
  -23.4290  -30.5250   21.6240 C   0  0  0  0  0  3  0  0  0  0  0  0
  -24.8660  -28.9240   20.2100 C   0  0  0  0  0  0  0  0  0  0  0  0
  -25.9900  -30.7530   21.4650 C   0  0  0  0  0  2  0  0  0  0  0  0
  -26.0530  -29.3510   20.8190 C   0  0  0  0  0  0  0  0  0  0  0  0
  -27.2040  -28.4650   20.8230 C   0  0  0  0  0  3  0  0  0  0  0  0
  -25.9570  -26.8080   19.6080 C   0  0  0  0  0  3  0  0  0  0  0  0
  -24.8360  -27.6680   19.5860 C   0  0  0  0  0  3  0  0  0  0  0  0
  -23.6480  -29.8380   20.2500 C   0  0  0  0  0  2  0  0  0  0  0  0
  -24.7060  -31.0890   22.1690 N   0  0  0  0  0  0  0  0  0  0  0  0
  -23.5500  -32.2170   23.7790 O   0  0  0  0  0  0  0  0  0  0  0  0
  -22.7370  -29.5310   22.5920 C   0  0  0  0  0  0  0  0  0  0  0  0
  -21.4080  -29.3700   22.4650 N   0  0  0  0  0  0  0  0  0  0  0  0
  -23.4010  -28.9060   23.4230 O   0  0  0  0  0  0  0  0  0  0  0  0
  -20.9260  -29.9240   21.7710 H   0  0  0  0  0  0  0  0  0  0  0  0
  -18.0180  -28.1880   22.9690 C   0  0  0  0  0  0  0  0  0  0  0  0
  -20.5780  -28.4430   23.2420 C   0  0  0  0  0  3  0  0  0  0  0  0
  -20.6760  -27.0050   22.6820 C   0  0  0  0  0  2  0  0  0  0  0  0
  -19.5760  -26.6770   21.6660 C   0  0  0  0  0  2  0  0  0  0  0  0
  -18.1930  -26.8320   22.3040 C   0  0  0  0  0  2  0  0  0  0  0  0
  -19.1380  -28.9500   23.3950 C   0  0  0  0  0  0  0  0  0  0  0  0
  -18.9200  -30.2170   23.9790 C   0  0  0  0  0  3  0  0  0  0  0  0
  -17.6160  -30.7220   24.1390 C   0  0  0  0  0  3  0  0  0  0  0  0
  -16.5100  -29.9560   23.7280 C   0  0  0  0  0  3  0  0  0  0  0  0
  -16.7120  -28.6910   23.1480 C   0  0  0  0  0  3  0  0  0  0  0  0
  -25.9150  -32.5540   23.8810 C   0  0  0  0  0  3  0  0  0  0  0  0
  -25.6090  -33.9570   24.2070 N   0  0  0  0  0  0  0  0  0  0  0  0
  -25.9180  -35.0070   23.4360 C   0  0  0  0  0  0  0  0  0  0  0  0
  -26.5560  -34.8980   22.3850 O   0  0  0  0  0  0  0  0  0  0  0  0
  -25.0400  -34.1160   25.0260 H   0  0  0  0  0  0  0  0  0  0  0  0
  -24.1660  -36.7920   23.1510 C   0  0  0  0  0  1  0  0  0  0  0  0
  -25.4480  -36.4000   23.9020 C   0  0  0  0  0  3  0  0  0  0  0  0
  -27.6140  -37.3100   24.6200 C   0  0  0  0  0  1  0  0  0  0  0  0
  -26.4690  -37.4570   23.7260 N   0  0  0  0  0  0  0  0  0  0  0  0
  -26.0640  -38.3780   23.8780 H   0  0  0  0  0  0  0  0  0  0  0  0
  -26.4180  -31.7900   25.1680 C   0  0  1  0  0  0  0  0  0  0  0  0
  -25.3170  -31.5710   26.2310 C   0  0  0  0  0  1  0  0  0  0  0  0
  -26.9920  -30.4040   24.7970 C   0  0  0  0  0  1  0  0  0  0  0  0
  -27.5700  -32.5810   25.8290 C   0  0  0  0  0  1  0  0  0  0  0  0
  1  3  1  0
  2  3  2  0
  3  7  1  0
  4  1  2  0
  5  2  1  0
  6  4  1  0
  6  5  2  0
  8  6  1  0
  9 17  1  0
 10 15  1  0
 11 12  1  0
 11 10  1  0
 13 12  1  0
 13 22  1  0
 13 14  1  0
 15  9  1  0
 15 14  1  0
 16  9  2  0
 17  5  1  0
 17 18  1  0
 19 20  2  0
 20 39  1  0
 21 20  1  0
 21 24  1  0
 22 23  1  0
 22 19  1  0
 23 21  2  0
 24 25  1  0
 25 26  2  0
 27 30  1  0
 27 26  1  0
 28 27  2  0
 29 28  1  0
 29 24  2  0
 30 31  1  0
 31 32  1  0
 32 33  2  0
 34 33  1  0
 34 38  1  0
 35 34  2  0
 36 31  2  0
 36 35  1  0
 37 36  1  0
 39 40  1  0
 40 43  1  0
 40 42  1  0
 41 39  2  0
 44 45  1  0
 44 19  1  0
 46 44  1  0
 47 49  2  0
 48 47  1  0
 48  4  1  0
 50 48  1  0
 51 52  1  0
 51 47  1  0
 53 64  2  0
 54 52  1  0
 54 59  1  0
 55 63  1  0
 55 65  1  0
 56 62  1  0
 56 58  1  0
 57 63  1  0
 58 59  2  0
 58 57  1  0
 60 54  2  0
 61 60  1  0
 61 56  2  0
 62 55  1  0
 63 53  1  0
 65 67  2  0
 66 65  1  0
 68 66  1  0
 69 78  2  0
 69 74  1  0
 70 66  1  0
 70 74  1  0
 71 70  1  0
 72 73  1  0
 72 71  1  0
 73 69  1  0
 74 75  2  0
 75 76  1  0
 77 76  2  0
 78 77  1  0
 79 53  1  0
 79 80  1  0
 79 89  1  0
 80 83  1  0
 81 85  1  0
 81 80  1  0
 82 81  2  0
 85 84  1  0
 87 88  1  0
 87 85  1  0
 87 86  1  0
 89 92  1  1
 89 90  1  0
 91 89  1  0
M  ISO  4   9 100  17 100  51 101  52 101
M  END
>  <TORSDO>  (90) 
F 18

>  <SCORE>  (90) 
-14.885

>  <name>  (90) 
90

>  <ligand_id>  (90) 
90

>  <original_smiles>  (90) 
[H]c1c([H])c([H])c2c(c1[H])C([H])([H])C([H])([H])C([H])([H])C2([H])N([H])C(=O)C1([H])N(C(=O)C([H])(N([H])C(=O)C([H])(N([H])C([H])([H])[H])C([H])([H])[H])C(C([H])([H])[H])(C([H])([H])[H])C([H])([H])[H])C([H])([H])c2c([H])c(OC([H])([H])C(=O)N([H])c3c([H])c(C([H])([H])[H])c([H])c(N([H])C(=O)N4C([H])([H])C([H])([H])C([H])([H])C([H])(n5nc(-c6c([H])c([H])c(Oc7c([H])c([H])c(F)c([H])c7F)c([H])c6[H])c(C(=O)N([H])[H])c5N([H])[H])C4([H])[H])c3F)c([H])c([H])c2C1([H])[H]

>  <smiles>  (90) 
[H]c1c([H])c([H])c2c(c1[H])C([H])([H])C([H])([H])C([H])([H])C2([H])N([H])C(=O)C1([H])N(C(=O)C([H])(N([H])C(=O)C([H])(N([H])C([H])([H])[H])C([H])([H])[H])C(C([H])([H])[H])(C([H])([H])[H])C([H])([H])[H])C([H])([H])c2c([H])c(OC([H])([H])C(=O)N([H])c3c([H])c(C([H])([H])[H])c([H])c(N([H])C(=O)N4C([H])([H])C([H])([H])C([H])([H])C([H])(n5nc(-c6c([H])c([H])c(Oc7c([H])c([H])c(F)c([H])c7F)c([H])c6[H])c(C(=O)N([H])[H])c5N([H])[H])C4([H])[H])c3F)c([H])c([H])c2C1([H])[H]

$$$$
91:0:0
     RDKit          3D

 92100  0  0  1  0  0  0  0  0999 V2000
  -30.3560  -20.0850   22.7470 C   0  0  0  0  0  3  0  0  0  0  0  0
  -29.8980  -21.2510   22.1020 C   0  0  0  0  0  3  0  0  0  0  0  0
  -29.6190  -19.9500   20.0810 C   0  0  0  0  0  3  0  0  0  0  0  0
  -30.4680  -18.8430   22.0820 C   0  0  0  0  0  0  0  0  0  0  0  0
  -30.0890  -18.7240   20.7200 C   0  0  0  0  0  0  0  0  0  0  0  0
  -29.5240  -21.2440   20.7420 C   0  0  0  0  0  0  0  0  0  0  0  0
  -31.0340  -17.6690   22.8630 C   0  0  0  0  0  1  0  0  0  0  0  0
  -29.1020  -23.8320   20.4830 C   0  0  0  0  0  0  0  0  0  0  0  0
  -28.9990  -22.4900   20.1160 N   0  0  0  0  0  0  0  0  0  0  0  0
  -29.9370  -24.2110   21.3100 O   0  0  0  0  0  0  0  0  0  0  0  0
  -28.4080  -22.3390   19.3100 H   0  0  0  0  0  0  0  0  0  0  0  0
  -28.1480  -24.9380   19.8260 C   0  0  0  0  0  2  0  0  0  0  0  0
  -28.3670  -26.3970   20.1490 O   0  0  0  0  0  0  0  0  0  0  0  0
  -24.6310  -31.8550   23.1450 C   0  0  0  0  0  0  0  0  0  0  0  0
  -27.2670  -27.2880   20.0710 C   0  0  0  0  0  0  0  0  0  0  0  0
  -23.4360  -30.4460   21.5120 C   0  0  0  0  0  3  0  0  0  0  0  0
  -24.8950  -28.9160   20.0680 C   0  0  0  0  0  0  0  0  0  0  0  0
  -25.9740  -30.7800   21.3200 C   0  0  0  0  0  2  0  0  0  0  0  0
  -26.0640  -29.4000   20.6680 C   0  0  0  0  0  0  0  0  0  0  0  0
  -27.2510  -28.5970   20.6630 C   0  0  0  0  0  3  0  0  0  0  0  0
  -26.0750  -26.8860   19.4230 C   0  0  0  0  0  3  0  0  0  0  0  0
  -24.9060  -27.6680   19.4320 C   0  0  0  0  0  3  0  0  0  0  0  0
  -23.6510  -29.7800   20.1290 C   0  0  0  0  0  2  0  0  0  0  0  0
  -24.7000  -31.0470   22.0490 N   0  0  0  0  0  0  0  0  0  0  0  0
  -23.5480  -32.1200   23.6870 O   0  0  0  0  0  0  0  0  0  0  0  0
  -22.7900  -29.4190   22.4750 C   0  0  0  0  0  0  0  0  0  0  0  0
  -21.4650  -29.2290   22.3590 N   0  0  0  0  0  0  0  0  0  0  0  0
  -23.4820  -28.7990   23.2870 O   0  0  0  0  0  0  0  0  0  0  0  0
  -20.9670  -29.7830   21.6750 H   0  0  0  0  0  0  0  0  0  0  0  0
  -18.0950  -28.0250   22.9120 C   0  0  0  0  0  0  0  0  0  0  0  0
  -20.6590  -28.2820   23.1330 C   0  0  0  0  0  3  0  0  0  0  0  0
  -20.7490  -26.8580   22.5370 C   0  0  0  0  0  2  0  0  0  0  0  0
  -19.6270  -26.5480   21.5420 C   0  0  0  0  0  2  0  0  0  0  0  0
  -18.2590  -26.6850   22.2160 C   0  0  0  0  0  2  0  0  0  0  0  0
  -19.2220  -28.7820   23.3280 C   0  0  0  0  0  0  0  0  0  0  0  0
  -19.0140  -30.0380   23.9400 C   0  0  0  0  0  3  0  0  0  0  0  0
  -17.7120  -30.5350   24.1400 C   0  0  0  0  0  3  0  0  0  0  0  0
  -16.6010  -29.7740   23.7390 C   0  0  0  0  0  3  0  0  0  0  0  0
  -16.7930  -28.5210   23.1310 C   0  0  0  0  0  3  0  0  0  0  0  0
  -25.9090  -32.5040   23.7620 C   0  0  0  0  0  3  0  0  0  0  0  0
  -26.4490  -31.7310   25.0290 C   0  0  1  0  0  0  0  0  0  0  0  0
  -25.3670  -31.4620   26.1010 C   0  0  0  0  0  1  0  0  0  0  0  0
  -27.0560  -30.3670   24.6230 C   0  0  0  0  0  1  0  0  0  0  0  0
  -27.5900  -32.5390   25.6890 C   0  0  0  0  0  1  0  0  0  0  0  0
  -25.5800  -33.8940   24.1080 N   0  0  0  0  0  0  0  0  0  0  0  0
  -25.8910  -34.9600   23.3580 C   0  0  0  0  0  0  0  0  0  0  0  0
  -26.5550  -34.8780   22.3220 O   0  0  0  0  0  0  0  0  0  0  0  0
  -24.9890  -34.0310   24.9140 H   0  0  0  0  0  0  0  0  0  0  0  0
  -24.1490  -36.7450   23.0180 C   0  0  0  0  0  1  0  0  0  0  0  0
  -25.3870  -36.3380   23.8330 C   0  0  0  0  0  3  0  0  0  0  0  0
  -27.5010  -37.2360   24.7010 C   0  0  0  0  0  1  0  0  0  0  0  0
  -26.4100  -37.4020   23.7450 N   0  0  0  0  0  0  0  0  0  0  0  0
  -25.9930  -38.3180   23.8940 H   0  0  0  0  0  0  0  0  0  0  0  0
  -30.3110  -17.3560   19.9230 C   0  0  0  0  0  2  0  0  0  0  0  0
  -30.7990  -14.8010   20.2610 C   0  0  0  0  0  0  0  0  0  0  0  0
  -30.5600  -12.5300   19.2590 C   0  0  0  0  0  2  0  0  0  0  0  0
  -29.6220  -12.6220   18.0350 C   0  0  0  0  0  2  0  0  0  0  0  0
  -28.1500  -12.4690   18.4640 C   0  0  0  0  0  2  0  0  0  0  0  0
  -27.7910  -13.3470   19.6910 C   0  0  0  0  0  3  0  0  0  0  0  0
  -28.8530  -13.2510   20.8090 C   0  0  0  0  0  2  0  0  0  0  0  0
  -30.1550  -13.5850   20.2160 N   0  0  0  0  0  0  0  0  0  0  0  0
  -31.9740  -14.8820   19.8940 O   0  0  0  0  0  0  0  0  0  0  0  0
  -30.0530  -15.9490   20.4750 N   0  0  0  0  0  0  0  0  0  0  0  0
  -29.1140  -15.7860   20.8010 H   0  0  0  0  0  0  0  0  0  0  0  0
  -25.4070  -13.9500   20.4200 C   0  0  0  0  0  0  0  0  0  0  0  0
  -24.3390  -13.1810   20.7950 C   0  0  0  0  0  0  0  0  0  0  0  0
  -24.7960  -11.8280   20.7640 C   0  0  0  0  0  0  0  0  0  0  0  0
  -26.4460  -13.0640   20.1830 N   0  0  0  0  0  0  0  0  0  0  0  0
  -26.0850  -11.7840   20.4530 N   0  0  0  0  0  0  0  0  0  0  0  0
  -24.0610  -10.5690   20.9570 C   0  0  0  0  0  0  0  0  0  0  0  0
  -24.4700   -9.6160   21.9160 C   0  0  0  0  0  3  0  0  0  0  0  0
  -23.7370   -8.4220   22.0960 C   0  0  0  0  0  3  0  0  0  0  0  0
  -22.5810   -8.1740   21.3180 C   0  0  0  0  0  0  0  0  0  0  0  0
  -22.1930   -9.1140   20.3480 C   0  0  0  0  0  3  0  0  0  0  0  0
  -22.9260  -10.2990   20.1660 C   0  0  0  0  0  3  0  0  0  0  0  0
  -21.8250   -7.0300   21.4060 O   0  0  0  0  0  0  0  0  0  0  0  0
  -21.7220   -6.3250   22.5780 C   0  0  0  0  0  0  0  0  0  0  0  0
  -21.2020   -6.9060   23.7560 C   0  0  0  0  0  3  0  0  0  0  0  0
  -21.0490   -6.1240   24.9180 C   0  0  0  0  0  3  0  0  0  0  0  0
  -21.4030   -4.7620   24.9030 C   0  0  0  0  0  0  0  0  0  0  0  0
  -21.9150   -4.1800   23.7300 C   0  0  0  0  0  3  0  0  0  0  0  0
  -22.0700   -4.9600   22.5710 C   0  0  0  0  0  0  0  0  0  0  0  0
  -22.5420   -4.3880   21.4370 F   0  0  0  0  0  0  0  0  0  0  0  0
  -21.2490   -4.0070   26.0160 F   0  0  0  0  0  0  0  0  0  0  0  0
  -22.9450  -13.6640   21.0690 C   0  0  0  0  0  0  0  0  0  0  0  0
  -22.2150  -12.9730   21.9370 N   0  0  0  0  0  0  0  0  0  0  0  0
  -22.5110  -14.6900   20.5460 O   0  0  0  0  0  0  0  0  0  0  0  0
  -22.5760  -12.1400   22.3800 H   0  0  0  0  0  0  0  0  0  0  0  0
  -21.2810  -13.2820   22.1640 H   0  0  0  0  0  0  0  0  0  0  0  0
  -25.5790  -15.3200   20.2420 N   0  0  0  0  0  0  0  0  0  0  0  0
  -24.8220  -15.9860   20.3550 H   0  0  0  0  0  0  0  0  0  0  0  0
  -26.4310  -15.7460   19.8990 H   0  0  0  0  0  0  0  0  0  0  0  0
  2  1  1  0
  3  5  2  0
  3  6  1  0
  4  1  2  0
  4  7  1  0
  5  4  1  0
  6  2  2  0
  8 10  2  0
  9  8  1  0
  9  6  1  0
 11  9  1  0
 12 13  1  0
 12  8  1  0
 14 25  2  0
 15 13  1  0
 15 20  1  0
 16 24  1  0
 16 26  1  0
 17 23  1  0
 17 19  1  0
 18 24  1  0
 19 18  1  0
 20 19  2  0
 21 22  1  0
 21 15  2  0
 22 17  2  0
 23 16  1  0
 24 14  1  0
 26 28  2  0
 27 26  1  0
 29 27  1  0
 30 39  2  0
 30 35  1  0
 31 27  1  0
 31 35  1  0
 32 31  1  0
 33 34  1  0
 33 32  1  0
 34 30  1  0
 35 36  2  0
 36 37  1  0
 38 37  2  0
 39 38  1  0
 40 14  1  0
 40 45  1  0
 40 41  1  0
 41 44  1  1
 41 42  1  0
 43 41  1  0
 45 48  1  0
 46 50  1  0
 46 45  1  0
 47 46  2  0
 50 49  1  0
 52 50  1  0
 52 53  1  0
 52 51  1  0
 54 63  1  0
 54  5  1  0
 55 63  1  0
 56 61  1  0
 57 58  1  0
 57 56  1  0
 59 58  1  0
 59 68  1  0
 59 60  1  0
 61 55  1  0
 61 60  1  0
 62 55  2  0
 63 64  1  0
 65 66  2  0
 66 85  1  0
 67 66  1  0
 67 70  1  0
 68 65  1  0
 68 69  1  0
 69 67  2  0
 70 71  1  0
 71 72  2  0
 73 76  1  0
 73 72  1  0
 74 73  2  0
 75 74  1  0
 75 70  2  0
 76 77  1  0
 77 78  1  0
 78 79  2  0
 80 79  1  0
 80 84  1  0
 81 80  2  0
 82 77  2  0
 82 81  1  0
 83 82  1  0
 85 86  1  0
 86 89  1  0
 86 88  1  0
 87 85  2  0
 90 91  1  0
 90 65  1  0
 92 90  1  0
M  ISO  4  12 101  13 101  55 100  63 100
M  END
>  <TORSDO>  (91) 
F 19

>  <SCORE>  (91) 
-13.455

>  <name>  (91) 
91

>  <ligand_id>  (91) 
91

>  <original_smiles>  (91) 
[H]c1c([H])c([H])c2c(c1[H])C([H])([H])C([H])([H])C([H])([H])C2([H])N([H])C(=O)C1([H])N(C(=O)C([H])(N([H])C(=O)C([H])(N([H])C([H])([H])[H])C([H])([H])[H])C(C([H])([H])[H])(C([H])([H])[H])C([H])([H])[H])C([H])([H])c2c([H])c(OC([H])([H])C(=O)N([H])c3c([H])c([H])c(C([H])([H])[H])c(C([H])([H])N([H])C(=O)N4C([H])([H])C([H])([H])C([H])([H])C([H])(n5nc(-c6c([H])c([H])c(Oc7c([H])c([H])c(F)c([H])c7F)c([H])c6[H])c(C(=O)N([H])[H])c5N([H])[H])C4([H])[H])c3[H])c([H])c([H])c2C1([H])[H]

>  <smiles>  (91) 
[H]c1c([H])c([H])c2c(c1[H])C([H])([H])C([H])([H])C([H])([H])C2([H])N([H])C(=O)C1([H])N(C(=O)C([H])(N([H])C(=O)C([H])(N([H])C([H])([H])[H])C([H])([H])[H])C(C([H])([H])[H])(C([H])([H])[H])C([H])([H])[H])C([H])([H])c2c([H])c(OC([H])([H])C(=O)N([H])c3c([H])c([H])c(C([H])([H])[H])c(C([H])([H])N([H])C(=O)N4C([H])([H])C([H])([H])C([H])([H])C([H])(n5nc(-c6c([H])c([H])c(Oc7c([H])c([H])c(F)c([H])c7F)c([H])c6[H])c(C(=O)N([H])[H])c5N([H])[H])C4([H])[H])c3[H])c([H])c([H])c2C1([H])[H]

$$$$
92:0:0
     RDKit          3D

 90 98  0  0  1  0  0  0  0  0999 V2000
  -28.8320  -23.2330   20.0960 C   0  0  0  0  0  0  0  0  0  0  0  0
  -28.6710  -21.8480   20.5030 N   0  0  0  0  0  0  0  0  0  0  0  0
  -29.7880  -23.5210   19.3730 O   0  0  0  0  0  0  0  0  0  0  0  0
  -27.9490  -21.7490   21.2050 H   0  0  0  0  0  0  0  0  0  0  0  0
  -30.5230  -19.3250   18.2460 C   0  0  0  0  0  3  0  0  0  0  0  0
  -30.0090  -20.4950   18.8390 C   0  0  0  0  0  3  0  0  0  0  0  0
  -29.2080  -19.0820   20.6290 C   0  0  0  0  0  3  0  0  0  0  0  0
  -30.3880  -18.0240   18.7890 C   0  0  0  0  0  0  0  0  0  0  0  0
  -29.2920  -20.4800   20.0500 C   0  0  0  0  0  0  0  0  0  0  0  0
  -29.7680  -17.7940   20.0560 C   0  0  0  0  0  0  0  0  0  0  0  0
  -30.8680  -16.9000   17.8850 C   0  0  0  0  0  1  0  0  0  0  0  0
  -29.6270  -16.3930   20.5640 O   0  0  0  0  0  0  0  0  0  0  0  0
  -30.5350  -15.0940   20.4050 C   0  0  0  0  0  0  0  0  0  0  0  0
  -30.4150  -12.6840   19.5170 C   0  0  0  0  0  2  0  0  0  0  0  0
  -29.5260  -12.6360   18.2510 C   0  0  0  0  0  2  0  0  0  0  0  0
  -28.0500  -12.4290   18.6340 C   0  0  0  0  0  2  0  0  0  0  0  0
  -27.6040  -13.3650   19.7890 C   0  0  0  0  0  3  0  0  0  0  0  0
  -28.6130  -13.4130   20.9510 C   0  0  0  0  0  2  0  0  0  0  0  0
  -29.9100  -13.7840   20.3910 N   0  0  0  0  0  0  0  0  0  0  0  0
  -31.7420  -15.1480   20.1470 O   0  0  0  0  0  0  0  0  0  0  0  0
  -25.2120  -13.9380   20.4650 C   0  0  0  0  0  0  0  0  0  0  0  0
  -24.1400  -13.1650   20.8170 C   0  0  0  0  0  0  0  0  0  0  0  0
  -24.6080  -11.8150   20.8200 C   0  0  0  0  0  0  0  0  0  0  0  0
  -26.2590  -13.0600   20.2590 N   0  0  0  0  0  0  0  0  0  0  0  0
  -25.9080  -11.7790   20.5420 N   0  0  0  0  0  0  0  0  0  0  0  0
  -23.8790  -10.5550   21.0070 C   0  0  0  0  0  0  0  0  0  0  0  0
  -24.2900   -9.5940   21.9580 C   0  0  0  0  0  3  0  0  0  0  0  0
  -23.5560   -8.4010   22.1330 C   0  0  0  0  0  3  0  0  0  0  0  0
  -22.3980   -8.1580   21.3560 C   0  0  0  0  0  0  0  0  0  0  0  0
  -22.0070   -9.1060   20.3950 C   0  0  0  0  0  3  0  0  0  0  0  0
  -22.7410  -10.2910   20.2180 C   0  0  0  0  0  3  0  0  0  0  0  0
  -21.6390   -7.0160   21.4400 O   0  0  0  0  0  0  0  0  0  0  0  0
  -21.5660   -6.2820   22.5960 C   0  0  0  0  0  0  0  0  0  0  0  0
  -21.1250   -6.8460   23.8120 C   0  0  0  0  0  3  0  0  0  0  0  0
  -21.0010   -6.0390   24.9600 C   0  0  0  0  0  3  0  0  0  0  0  0
  -21.3090   -4.6660   24.8930 C   0  0  0  0  0  0  0  0  0  0  0  0
  -21.7440   -4.1000   23.6810 C   0  0  0  0  0  3  0  0  0  0  0  0
  -21.8700   -4.9070   22.5360 C   0  0  0  0  0  0  0  0  0  0  0  0
  -22.2690   -4.3510   21.3650 F   0  0  0  0  0  0  0  0  0  0  0  0
  -21.1830   -3.8880   25.9930 F   0  0  0  0  0  0  0  0  0  0  0  0
  -22.7360  -13.6440   21.0390 C   0  0  0  0  0  0  0  0  0  0  0  0
  -21.9850  -12.9650   21.8990 N   0  0  0  0  0  0  0  0  0  0  0  0
  -22.3130  -14.6590   20.4860 O   0  0  0  0  0  0  0  0  0  0  0  0
  -22.3390  -12.1450   22.3680 H   0  0  0  0  0  0  0  0  0  0  0  0
  -21.0420  -13.2720   22.0890 H   0  0  0  0  0  0  0  0  0  0  0  0
  -25.3790  -15.3080   20.2780 N   0  0  0  0  0  0  0  0  0  0  0  0
  -24.6140  -15.9670   20.3730 H   0  0  0  0  0  0  0  0  0  0  0  0
  -26.2460  -15.7460   19.9930 H   0  0  0  0  0  0  0  0  0  0  0  0
  -27.8620  -24.5470   20.5150 C   0  0  0  0  0  2  0  0  0  0  0  0
  -28.1860  -26.0750   20.2050 O   0  0  0  0  0  0  0  0  0  0  0  0
  -24.5900  -31.8730   23.1860 C   0  0  0  0  0  0  0  0  0  0  0  0
  -27.1520  -27.1030   20.1720 C   0  0  0  0  0  0  0  0  0  0  0  0
  -23.3860  -30.4640   21.5620 C   0  0  0  0  0  3  0  0  0  0  0  0
  -24.8320  -28.8840   20.1350 C   0  0  0  0  0  0  0  0  0  0  0  0
  -25.9420  -30.7250   21.3850 C   0  0  0  0  0  2  0  0  0  0  0  0
  -26.0170  -29.3250   20.7400 C   0  0  0  0  0  0  0  0  0  0  0  0
  -27.1790  -28.4520   20.7370 C   0  0  0  0  0  3  0  0  0  0  0  0
  -25.9450  -26.7880   19.5140 C   0  0  0  0  0  3  0  0  0  0  0  0
  -24.8130  -27.6330   19.5030 C   0  0  0  0  0  3  0  0  0  0  0  0
  -23.6040  -29.7840   20.1850 C   0  0  0  0  0  2  0  0  0  0  0  0
  -24.6600  -31.0440   22.0990 N   0  0  0  0  0  0  0  0  0  0  0  0
  -23.5050  -32.1550   23.7190 O   0  0  0  0  0  0  0  0  0  0  0  0
  -22.7160  -29.4590   22.5340 C   0  0  0  0  0  0  0  0  0  0  0  0
  -21.3870  -29.2850   22.4220 N   0  0  0  0  0  0  0  0  0  0  0  0
  -23.3970  -28.8380   23.3530 O   0  0  0  0  0  0  0  0  0  0  0  0
  -20.8920  -29.8400   21.7360 H   0  0  0  0  0  0  0  0  0  0  0  0
  -18.0150  -28.0690   22.9610 C   0  0  0  0  0  0  0  0  0  0  0  0
  -20.5760  -28.3480   23.2040 C   0  0  0  0  0  3  0  0  0  0  0  0
  -20.6790  -26.9130   22.6370 C   0  0  0  0  0  2  0  0  0  0  0  0
  -19.5710  -26.5790   21.6330 C   0  0  0  0  0  2  0  0  0  0  0  0
  -18.1940  -26.7190   22.2870 C   0  0  0  0  0  2  0  0  0  0  0  0
  -19.1330  -28.8410   23.3770 C   0  0  0  0  0  0  0  0  0  0  0  0
  -18.9100  -30.1040   23.9680 C   0  0  0  0  0  3  0  0  0  0  0  0
  -17.6030  -30.5950   24.1460 C   0  0  0  0  0  3  0  0  0  0  0  0
  -16.5010  -29.8210   23.7450 C   0  0  0  0  0  3  0  0  0  0  0  0
  -16.7080  -28.5610   23.1580 C   0  0  0  0  0  3  0  0  0  0  0  0
  -25.8670  -32.5210   23.8020 C   0  0  0  0  0  3  0  0  0  0  0  0
  -26.4010  -31.7500   25.0730 C   0  0  1  0  0  0  0  0  0  0  0  0
  -25.3200  -31.5020   26.1520 C   0  0  0  0  0  1  0  0  0  0  0  0
  -26.9920  -30.3770   24.6780 C   0  0  0  0  0  1  0  0  0  0  0  0
  -27.5520  -32.5520   25.7260 C   0  0  0  0  0  1  0  0  0  0  0  0
  -25.5430  -33.9140   24.1490 N   0  0  0  0  0  0  0  0  0  0  0  0
  -25.8540  -34.9810   23.4010 C   0  0  0  0  0  0  0  0  0  0  0  0
  -26.5110  -34.8970   22.3600 O   0  0  0  0  0  0  0  0  0  0  0  0
  -24.9620  -34.0520   24.9620 H   0  0  0  0  0  0  0  0  0  0  0  0
  -24.1070  -36.7660   23.0920 C   0  0  0  0  0  1  0  0  0  0  0  0
  -25.3610  -36.3600   23.8830 C   0  0  0  0  0  3  0  0  0  0  0  0
  -27.4970  -37.2550   24.7000 C   0  0  0  0  0  1  0  0  0  0  0  0
  -26.3830  -37.4250   23.7720 N   0  0  0  0  0  0  0  0  0  0  0  0
  -25.9700  -38.3390   23.9380 H   0  0  0  0  0  0  0  0  0  0  0  0
  1  2  1  0
  1 49  1  0
  2  4  1  0
  3  1  2  0
  5  8  2  0
  5  6  1  0
  6  9  2  0
  8 10  1  0
  9  2  1  0
  9  7  1  0
 10 12  1  0
 10  7  2  0
 11  8  1  0
 13 12  1  0
 14 19  1  0
 15 16  1  0
 15 14  1  0
 17 16  1  0
 17 24  1  0
 17 18  1  0
 19 13  1  0
 19 18  1  0
 20 13  2  0
 21 22  2  0
 22 23  1  0
 22 41  1  0
 23 26  1  0
 24 21  1  0
 24 25  1  0
 25 23  2  0
 26 27  1  0
 27 28  2  0
 29 32  1  0
 29 28  1  0
 30 29  2  0
 31 30  1  0
 31 26  2  0
 32 33  1  0
 33 34  1  0
 34 35  2  0
 36 35  1  0
 36 40  1  0
 37 36  2  0
 38 33  2  0
 38 37  1  0
 39 38  1  0
 41 42  1  0
 42 45  1  0
 42 44  1  0
 43 41  2  0
 46 47  1  0
 46 21  1  0
 48 46  1  0
 50 49  1  0
 51 62  2  0
 52 50  1  0
 52 57  1  0
 53 61  1  0
 53 63  1  0
 54 60  1  0
 54 56  1  0
 55 61  1  0
 56 55  1  0
 57 56  2  0
 58 52  2  0
 59 58  1  0
 59 54  2  0
 60 53  1  0
 61 51  1  0
 63 65  2  0
 64 63  1  0
 66 64  1  0
 67 76  2  0
 67 72  1  0
 68 64  1  0
 68 72  1  0
 69 68  1  0
 70 71  1  0
 70 69  1  0
 71 67  1  0
 72 73  2  0
 73 74  1  0
 75 74  2  0
 76 75  1  0
 77 51  1  0
 77 82  1  0
 77 78  1  0
 78 81  1  1
 78 79  1  0
 80 78  1  0
 82 85  1  0
 83 87  1  0
 83 82  1  0
 84 83  2  0
 87 86  1  0
 89 87  1  0
 89 90  1  0
 89 88  1  0
M  ISO  4  12 100  13 100  49 101  50 101
M  END
>  <TORSDO>  (92) 
F 19

>  <SCORE>  (92) 
-13.901

>  <name>  (92) 
92

>  <ligand_id>  (92) 
92

>  <original_smiles>  (92) 
[H]c1c([H])c([H])c2c(c1[H])C([H])([H])C([H])([H])C([H])([H])C2([H])N([H])C(=O)C1([H])N(C(=O)C([H])(N([H])C(=O)C([H])(N([H])C([H])([H])[H])C([H])([H])[H])C(C([H])([H])[H])(C([H])([H])[H])C([H])([H])[H])C([H])([H])c2c([H])c(OC([H])([H])C(=O)N([H])c3c([H])c([H])c(C([H])([H])[H])c(OC(=O)N4C([H])([H])C([H])([H])C([H])([H])C([H])(n5nc(-c6c([H])c([H])c(Oc7c([H])c([H])c(F)c([H])c7F)c([H])c6[H])c(C(=O)N([H])[H])c5N([H])[H])C4([H])[H])c3[H])c([H])c([H])c2C1([H])[H]

>  <smiles>  (92) 
[H]c1c([H])c([H])c2c(c1[H])C([H])([H])C([H])([H])C([H])([H])C2([H])N([H])C(=O)C1([H])N(C(=O)C([H])(N([H])C(=O)C([H])(N([H])C([H])([H])[H])C([H])([H])[H])C(C([H])([H])[H])(C([H])([H])[H])C([H])([H])[H])C([H])([H])c2c([H])c(OC([H])([H])C(=O)N([H])c3c([H])c([H])c(C([H])([H])[H])c(OC(=O)N4C([H])([H])C([H])([H])C([H])([H])C([H])(n5nc(-c6c([H])c([H])c(Oc7c([H])c([H])c(F)c([H])c7F)c([H])c6[H])c(C(=O)N([H])[H])c5N([H])[H])C4([H])[H])c3[H])c([H])c([H])c2C1([H])[H]

$$$$
