0:0:0
     RDKit          3D

 96105  0  0  1  0  0  0  0  0999 V2000
  -30.3130  -19.6290   21.6240 C   0  0  0  0  0  3  0  0  0  0  0  0
  -30.4400  -18.2030   21.6960 C   0  0  0  0  0  3  0  0  0  0  0  0
  -29.0680  -19.4360   19.6340 C   0  0  0  0  0  3  0  0  0  0  0  0
  -29.1770  -18.0020   19.6690 C   0  0  0  0  0  0  0  0  0  0  0  0
  -29.6080  -20.3340   20.6030 C   0  0  0  0  0  0  0  0  0  0  0  0
  -29.8750  -17.3310   20.7260 C   0  0  0  0  0  0  0  0  0  0  0  0
  -30.6610  -14.8240   20.6740 C   0  0  0  0  0  0  0  0  0  0  0  0
  -30.5580  -12.5390   19.6710 C   0  0  0  0  0  2  0  0  0  0  0  0
  -29.6540  -12.6040   18.4190 C   0  0  0  0  0  2  0  0  0  0  0  0
  -28.1710  -12.4180   18.7970 C   0  0  0  0  0  2  0  0  0  0  0  0
  -27.7500  -13.3010   20.0020 C   0  0  0  0  0  3  0  0  0  0  0  0
  -28.7700  -13.2050   21.1570 C   0  0  0  0  0  2  0  0  0  0  0  0
  -30.0880  -13.5750   20.6160 N   0  0  0  0  0  0  0  0  0  0  0  0
  -31.8380  -14.9960   20.3450 O   0  0  0  0  0  0  0  0  0  0  0  0
  -29.8070  -15.8700   20.9570 N   0  0  0  0  0  0  0  0  0  0  0  0
  -28.8840  -15.5400   21.1970 H   0  0  0  0  0  0  0  0  0  0  0  0
  -25.3350  -13.8870   20.6530 C   0  0  0  0  0  0  0  0  0  0  0  0
  -24.2610  -13.1080   20.9870 C   0  0  0  0  0  0  0  0  0  0  0  0
  -24.7290  -11.7590   20.9600 C   0  0  0  0  0  0  0  0  0  0  0  0
  -26.3890  -13.0120   20.4430 N   0  0  0  0  0  0  0  0  0  0  0  0
  -26.0280  -11.7270   20.6890 N   0  0  0  0  0  0  0  0  0  0  0  0
  -24.0030  -10.4930   21.1170 C   0  0  0  0  0  0  0  0  0  0  0  0
  -24.3990   -9.5280   22.0700 C   0  0  0  0  0  3  0  0  0  0  0  0
  -23.6730   -8.3270   22.2160 C   0  0  0  0  0  3  0  0  0  0  0  0
  -22.5370   -8.0820   21.4090 C   0  0  0  0  0  0  0  0  0  0  0  0
  -22.1600   -9.0350   20.4460 C   0  0  0  0  0  3  0  0  0  0  0  0
  -22.8880  -10.2280   20.2990 C   0  0  0  0  0  3  0  0  0  0  0  0
  -21.7870   -6.9320   21.4630 O   0  0  0  0  0  0  0  0  0  0  0  0
  -21.6790   -6.1970   22.6160 C   0  0  0  0  0  0  0  0  0  0  0  0
  -21.1500   -6.7470   23.8040 C   0  0  0  0  0  3  0  0  0  0  0  0
  -20.9920   -5.9380   24.9470 C   0  0  0  0  0  3  0  0  0  0  0  0
  -21.3510   -4.5770   24.9010 C   0  0  0  0  0  0  0  0  0  0  0  0
  -21.8730   -4.0260   23.7180 C   0  0  0  0  0  3  0  0  0  0  0  0
  -22.0330   -4.8330   22.5780 C   0  0  0  0  0  0  0  0  0  0  0  0
  -22.5160   -4.2910   21.4340 F   0  0  0  0  0  0  0  0  0  0  0  0
  -21.1930   -3.7970   25.9960 F   0  0  0  0  0  0  0  0  0  0  0  0
  -22.8540  -13.5790   21.2170 C   0  0  0  0  0  0  0  0  0  0  0  0
  -22.0970  -12.8660   22.0450 N   0  0  0  0  0  0  0  0  0  0  0  0
  -22.4310  -14.6110   20.7000 O   0  0  0  0  0  0  0  0  0  0  0  0
  -22.4490  -12.0300   22.4850 H   0  0  0  0  0  0  0  0  0  0  0  0
  -21.1510  -13.1630   22.2400 H   0  0  0  0  0  0  0  0  0  0  0  0
  -25.4950  -15.2590   20.4860 N   0  0  0  0  0  0  0  0  0  0  0  0
  -24.7000  -15.8860   20.5360 H   0  0  0  0  0  0  0  0  0  0  0  0
  -26.2980  -15.6840   20.0350 H   0  0  0  0  0  0  0  0  0  0  0  0
  -29.6920  -22.9260   21.3710 C   0  0  0  0  0  0  0  0  0  0  0  0
  -28.5200  -22.5380   19.7120 C   0  0  0  0  0  2  0  0  0  0  0  0
  -29.1250  -23.8990   20.2420 C   0  0  2  0  0  0  0  0  0  0  0  0
  -30.2850  -24.5020   19.4410 C   0  0  0  0  0  1  0  0  0  0  0  0
  -29.4890  -21.8110   20.5430 N   0  0  0  0  0  0  0  0  0  0  0  0
  -30.0950  -23.0170   22.5120 O   0  0  0  0  0  0  0  0  0  0  0  0
  -28.1780  -25.0970   20.7530 C   0  0  0  0  0  2  0  0  0  0  0  0
  -28.3910  -26.5250   20.3440 O   0  0  0  0  0  0  0  0  0  0  0  0
  -24.6090  -31.9860   23.2550 C   0  0  0  0  0  0  0  0  0  0  0  0
  -27.2730  -27.3830   20.2980 C   0  0  0  0  0  0  0  0  0  0  0  0
  -23.4260  -30.5510   21.6320 C   0  0  0  0  0  3  0  0  0  0  0  0
  -24.8980  -28.9880   20.2410 C   0  0  0  0  0  0  0  0  0  0  0  0
  -25.9650  -30.8830   21.4610 C   0  0  0  0  0  2  0  0  0  0  0  0
  -26.0610  -29.4930   20.8380 C   0  0  0  0  0  0  0  0  0  0  0  0
  -27.2530  -28.7020   20.8550 C   0  0  0  0  0  3  0  0  0  0  0  0
  -26.0920  -26.9440   19.6610 C   0  0  0  0  0  3  0  0  0  0  0  0
  -24.9170  -27.7190   19.6410 C   0  0  0  0  0  3  0  0  0  0  0  0
  -23.6540  -29.8550   20.2660 C   0  0  0  0  0  2  0  0  0  0  0  0
  -24.6850  -31.1590   22.1720 N   0  0  0  0  0  0  0  0  0  0  0  0
  -23.5210  -32.2650   23.7800 O   0  0  0  0  0  0  0  0  0  0  0  0
  -22.7650  -29.5460   22.6060 C   0  0  0  0  0  0  0  0  0  0  0  0
  -21.4430  -29.3490   22.4680 N   0  0  0  0  0  0  0  0  0  0  0  0
  -23.4420  -28.9450   23.4440 O   0  0  0  0  0  0  0  0  0  0  0  0
  -20.9550  -29.8850   21.7650 H   0  0  0  0  0  0  0  0  0  0  0  0
  -18.0710  -28.1390   22.9750 C   0  0  0  0  0  0  0  0  0  0  0  0
  -20.6270  -28.4170   23.2490 C   0  0  0  0  0  3  0  0  0  0  0  0
  -20.7390  -26.9780   22.6940 C   0  0  0  0  0  2  0  0  0  0  0  0
  -19.6420  -26.6360   21.6810 C   0  0  0  0  0  2  0  0  0  0  0  0
  -18.2580  -26.7810   22.3180 C   0  0  0  0  0  2  0  0  0  0  0  0
  -19.1840  -28.9130   23.3980 C   0  0  0  0  0  0  0  0  0  0  0  0
  -18.9560  -30.1820   23.9730 C   0  0  0  0  0  3  0  0  0  0  0  0
  -17.6470  -30.6770   24.1290 C   0  0  0  0  0  3  0  0  0  0  0  0
  -16.5490  -29.9010   23.7220 C   0  0  0  0  0  3  0  0  0  0  0  0
  -16.7620  -28.6330   23.1510 C   0  0  0  0  0  3  0  0  0  0  0  0
  -25.8830  -32.6390   23.8740 C   0  0  0  0  0  3  0  0  0  0  0  0
  -26.4060  -31.8850   25.1590 C   0  0  1  0  0  0  0  0  0  0  0  0
  -25.3050  -31.6080   26.2080 C   0  0  0  0  0  1  0  0  0  0  0  0
  -27.0440  -30.5290   24.7770 C   0  0  0  0  0  1  0  0  0  0  0  0
  -27.5170  -32.7190   25.8390 C   0  0  0  0  0  1  0  0  0  0  0  0
  -25.5560  -34.0370   24.1930 N   0  0  0  0  0  0  0  0  0  0  0  0
  -25.8920  -35.0900   23.4360 C   0  0  0  0  0  0  0  0  0  0  0  0
  -26.5800  -34.9880   22.4170 O   0  0  0  0  0  0  0  0  0  0  0  0
  -24.9480  -34.1890   24.9840 H   0  0  0  0  0  0  0  0  0  0  0  0
  -24.1730  -36.8800   23.0290 C   0  0  0  0  0  1  0  0  0  0  0  0
  -25.3880  -36.4760   23.8810 C   0  0  0  0  0  3  0  0  0  0  0  0
  -27.4880  -37.3680   24.7870 C   0  0  0  0  0  1  0  0  0  0  0  0
  -26.4200  -37.5320   23.8030 N   0  0  0  0  0  0  0  0  0  0  0  0
  -26.0070  -38.4520   23.9360 H   0  0  0  0  0  0  0  0  0  0  0  0
  -28.4750  -17.2070   18.5690 C   0  0  1  0  0  0  0  0  0  0  0  0
  -28.1370  -17.9720   17.5290 F   0  0  0  0  0  0  0  0  0  0  0  0
  -29.2530  -16.2290   18.1070 F   0  0  0  0  0  0  0  0  0  0  0  0
  -27.3610  -16.6700   19.0630 F   0  0  0  0  0  0  0  0  0  0  0  0
  1  2  1  0
  3  4  2  0
  3  5  1  0
  4  6  1  0
  5  1  2  0
  6 15  1  0
  6  2  2  0
  7 15  1  0
  8 13  1  0
  9 10  1  0
  9  8  1  0
 11 10  1  0
 11 20  1  0
 11 12  1  0
 13  7  1  0
 13 12  1  0
 14  7  2  0
 15 16  1  0
 17 18  2  0
 18 37  1  0
 19 18  1  0
 19 22  1  0
 20 17  1  0
 20 21  1  0
 21 19  2  0
 22 23  1  0
 23 24  2  0
 25 28  1  0
 25 24  1  0
 26 25  2  0
 27 26  1  0
 27 22  2  0
 28 29  1  0
 29 30  1  0
 30 31  2  0
 32 31  1  0
 32 36  1  0
 33 32  2  0
 34 29  2  0
 34 33  1  0
 35 34  1  0
 37 38  1  0
 38 41  1  0
 38 40  1  0
 39 37  2  0
 42 43  1  0
 42 17  1  0
 44 42  1  0
 45 50  2  0
 46 47  1  0
 46 49  1  0
 47 48  1  6
 47 51  1  0
 47 45  1  0
 49  5  1  0
 49 45  1  0
 52 51  1  0
 53 64  2  0
 54 52  1  0
 54 59  1  0
 55 63  1  0
 55 65  1  0
 56 62  1  0
 56 58  1  0
 57 63  1  0
 58 59  2  0
 58 57  1  0
 60 54  2  0
 61 60  1  0
 61 56  2  0
 62 55  1  0
 63 53  1  0
 65 67  2  0
 66 65  1  0
 68 66  1  0
 69 78  2  0
 69 74  1  0
 70 66  1  0
 70 74  1  0
 71 70  1  0
 72 73  1  0
 72 71  1  0
 73 69  1  0
 74 75  2  0
 75 76  1  0
 77 76  2  0
 78 77  1  0
 79 53  1  0
 79 84  1  0
 79 80  1  0
 80 83  1  1
 80 81  1  0
 82 80  1  0
 84 87  1  0
 85 89  1  0
 85 84  1  0
 86 85  2  0
 89 88  1  0
 91 89  1  0
 91 92  1  0
 91 90  1  0
 93 96  1  1
 93  4  1  0
 94 93  1  0
 95 93  1  0
M  ISO  4   7 100  15 100  51 101  52 101
M  END
>  <TORSDO>  (1) 
F 19

>  <SCORE>  (1) 
-14.336

>  <name>  (1) 
0

>  <ligand_id>  (1) 
0

>  <original_smiles>  (1) 
[H]c1c([H])c([H])c2c(c1[H])C([H])([H])C([H])([H])C([H])([H])C2([H])N([H])C(=O)C1([H])N(C(=O)C([H])(N([H])C(=O)C([H])(N([H])C([H])([H])[H])C([H])([H])[H])C(C([H])([H])[H])(C([H])([H])[H])C([H])([H])[H])C([H])([H])c2c([H])c(OC([H])([H])C3(C([H])([H])[H])C(=O)N(c4c([H])c([H])c(N([H])C(=O)N5C([H])([H])C([H])([H])C([H])([H])C([H])(n6nc(-c7c([H])c([H])c(Oc8c([H])c([H])c(F)c([H])c8F)c([H])c7[H])c(C(=O)N([H])[H])c6N([H])[H])C5([H])[H])c(C(F)(F)F)c4[H])C3([H])[H])c([H])c([H])c2C1([H])[H]

>  <smiles>  (1) 
[H]c1c([H])c([H])c2c(c1[H])C([H])([H])C([H])([H])C([H])([H])C2([H])N([H])C(=O)C1([H])N(C(=O)C([H])(N([H])C(=O)C([H])(N([H])C([H])([H])[H])C([H])([H])[H])C(C([H])([H])[H])(C([H])([H])[H])C([H])([H])[H])C([H])([H])c2c([H])c(OC([H])([H])C3(C([H])([H])[H])C(=O)N(c4c([H])c([H])c(N([H])C(=O)N5C([H])([H])C([H])([H])C([H])([H])C([H])(n6nc(-c7c([H])c([H])c(Oc8c([H])c([H])c(F)c([H])c8F)c([H])c7[H])c(C(=O)N([H])[H])c6N([H])[H])C5([H])[H])c(C(F)(F)F)c4[H])C3([H])[H])c([H])c([H])c2C1([H])[H]

$$$$
1:0:0
     RDKit          3D

 97105  0  0  1  0  0  0  0  0999 V2000
  -30.0190  -21.1230   19.3820 C   0  0  0  0  0  0  0  0  0  0  0  0
  -29.1010  -23.4560   19.7410 C   0  0  0  0  0  0  0  0  0  0  0  0
  -29.2550  -22.0410   20.0360 N   0  0  0  0  0  0  0  0  0  0  0  0
  -30.7310  -21.4870   18.3070 N   0  0  0  0  0  4  0  0  0  0  0  0
  -29.7310  -24.0120   18.8330 O   0  0  0  0  0  0  0  0  0  0  0  0
  -28.7580  -21.6270   20.8100 H   0  0  0  0  0  0  0  0  0  0  0  0
  -31.4120  -20.8460   17.9220 H   0  0  0  0  0  0  0  0  0  0  0  0
  -30.7000  -22.4500   17.9940 H   0  0  0  0  0  0  0  0  0  0  0  0
  -28.8900  -19.0120   20.1800 C   0  0  0  0  0  3  0  0  0  0  0  0
  -31.3100  -17.5880   20.1030 C   0  0  0  0  0  3  0  0  0  0  0  0
  -30.0690  -19.6980   19.8010 C   0  0  0  0  0  0  0  0  0  0  0  0
  -30.1240  -16.8940   20.4440 C   0  0  0  0  0  0  0  0  0  0  0  0
  -28.9210  -17.6340   20.4960 C   0  0  0  0  0  0  0  0  0  0  0  0
  -31.2840  -18.9620   19.7790 C   0  0  0  0  0  0  0  0  0  0  0  0
  -27.7700  -16.9970   20.8200 F   0  0  0  0  0  0  0  0  0  0  0  0
  -32.4450  -19.5570   19.4080 F   0  0  0  0  0  0  0  0  0  0  0  0
  -30.7100  -14.4800   20.1240 C   0  0  0  0  0  0  0  0  0  0  0  0
  -30.3140  -12.3730   18.9200 C   0  0  0  0  0  2  0  0  0  0  0  0
  -29.3120  -12.6670   17.7830 C   0  0  0  0  0  2  0  0  0  0  0  0
  -27.8590  -12.5400   18.2830 C   0  0  0  0  0  2  0  0  0  0  0  0
  -27.6120  -13.2960   19.6180 C   0  0  0  0  0  3  0  0  0  0  0  0
  -28.7290  -13.0020   20.6450 C   0  0  0  0  0  2  0  0  0  0  0  0
  -30.0230  -13.3120   20.0150 N   0  0  0  0  0  0  0  0  0  0  0  0
  -31.8150  -14.6480   19.6040 O   0  0  0  0  0  0  0  0  0  0  0  0
  -30.0430  -15.4890   20.7200 N   0  0  0  0  0  0  0  0  0  0  0  0
  -29.1810  -15.2140   21.1660 H   0  0  0  0  0  0  0  0  0  0  0  0
  -25.2540  -13.8820   20.4650 C   0  0  0  0  0  0  0  0  0  0  0  0
  -24.2060  -13.1010   20.8700 C   0  0  0  0  0  0  0  0  0  0  0  0
  -24.6630  -11.7500   20.7800 C   0  0  0  0  0  0  0  0  0  0  0  0
  -26.2850  -13.0080   20.1590 N   0  0  0  0  0  0  0  0  0  0  0  0
  -25.9360  -11.7180   20.4040 N   0  0  0  0  0  0  0  0  0  0  0  0
  -23.9440  -10.4850   20.9760 C   0  0  0  0  0  0  0  0  0  0  0  0
  -24.3940   -9.5150   21.8980 C   0  0  0  0  0  3  0  0  0  0  0  0
  -23.6750   -8.3130   22.0820 C   0  0  0  0  0  3  0  0  0  0  0  0
  -22.4910   -8.0750   21.3430 C   0  0  0  0  0  0  0  0  0  0  0  0
  -22.0610   -9.0340   20.4100 C   0  0  0  0  0  3  0  0  0  0  0  0
  -22.7800  -10.2260   20.2240 C   0  0  0  0  0  3  0  0  0  0  0  0
  -21.7400   -6.9280   21.4390 O   0  0  0  0  0  0  0  0  0  0  0  0
  -21.6770   -6.2040   22.6020 C   0  0  0  0  0  0  0  0  0  0  0  0
  -21.1880   -6.7640   23.8030 C   0  0  0  0  0  3  0  0  0  0  0  0
  -21.0740   -5.9640   24.9560 C   0  0  0  0  0  3  0  0  0  0  0  0
  -21.4370   -4.6050   24.9120 C   0  0  0  0  0  0  0  0  0  0  0  0
  -21.9180   -4.0440   23.7160 C   0  0  0  0  0  3  0  0  0  0  0  0
  -22.0340   -4.8410   22.5630 C   0  0  0  0  0  0  0  0  0  0  0  0
  -22.4780   -4.2890   21.4070 F   0  0  0  0  0  0  0  0  0  0  0  0
  -21.3200   -3.8360   26.0190 F   0  0  0  0  0  0  0  0  0  0  0  0
  -22.8270  -13.5730   21.2320 C   0  0  0  0  0  0  0  0  0  0  0  0
  -22.1450  -12.8530   22.1150 N   0  0  0  0  0  0  0  0  0  0  0  0
  -22.3660  -14.6150   20.7680 O   0  0  0  0  0  0  0  0  0  0  0  0
  -22.5270  -12.0070   22.5100 H   0  0  0  0  0  0  0  0  0  0  0  0
  -21.2210  -13.1510   22.3990 H   0  0  0  0  0  0  0  0  0  0  0  0
  -25.4090  -15.2570   20.3170 N   0  0  0  0  0  0  0  0  0  0  0  0
  -24.6490  -15.9040   20.4920 H   0  0  0  0  0  0  0  0  0  0  0  0
  -26.2690  -15.7240   20.0570 H   0  0  0  0  0  0  0  0  0  0  0  0
  -28.0780  -24.2250   20.5970 C   0  0  0  0  0  2  0  0  0  0  0  0
  -28.5240  -25.6360   21.0800 C   0  0  0  0  0  2  0  0  0  0  0  0
  -28.4300  -26.7060   20.1240 O   0  0  0  0  0  0  0  0  0  0  0  0
  -24.6040  -31.8850   23.2290 C   0  0  0  0  0  0  0  0  0  0  0  0
  -27.2660  -27.4400   20.1650 C   0  0  0  0  0  0  0  0  0  0  0  0
  -23.4070  -30.4800   21.5820 C   0  0  0  0  0  3  0  0  0  0  0  0
  -24.8720  -28.9420   20.1670 C   0  0  0  0  0  0  0  0  0  0  0  0
  -25.9350  -30.8380   21.4010 C   0  0  0  0  0  2  0  0  0  0  0  0
  -26.0260  -29.4660   20.7630 C   0  0  0  0  0  0  0  0  0  0  0  0
  -27.2270  -28.7220   20.7590 C   0  0  0  0  0  3  0  0  0  0  0  0
  -26.0980  -26.9270   19.5640 C   0  0  0  0  0  3  0  0  0  0  0  0
  -24.9010  -27.6690   19.5690 C   0  0  0  0  0  3  0  0  0  0  0  0
  -23.6270  -29.7990   20.2040 C   0  0  0  0  0  2  0  0  0  0  0  0
  -24.6660  -31.0830   22.1280 N   0  0  0  0  0  0  0  0  0  0  0  0
  -23.5190  -32.1570   23.7620 O   0  0  0  0  0  0  0  0  0  0  0  0
  -22.7520  -29.4590   22.5380 C   0  0  0  0  0  0  0  0  0  0  0  0
  -21.4260  -29.2830   22.4110 N   0  0  0  0  0  0  0  0  0  0  0  0
  -23.4340  -28.8250   23.3500 O   0  0  0  0  0  0  0  0  0  0  0  0
  -20.9380  -29.8450   21.7270 H   0  0  0  0  0  0  0  0  0  0  0  0
  -18.0420  -28.1300   22.9270 C   0  0  0  0  0  0  0  0  0  0  0  0
  -20.6050  -28.3480   23.1770 C   0  0  0  0  0  3  0  0  0  0  0  0
  -20.6830  -26.9220   22.5810 C   0  0  0  0  0  2  0  0  0  0  0  0
  -19.5660  -26.6290   21.5740 C   0  0  0  0  0  2  0  0  0  0  0  0
  -18.1930  -26.7860   22.2340 C   0  0  0  0  0  2  0  0  0  0  0  0
  -19.1750  -28.8700   23.3560 C   0  0  0  0  0  0  0  0  0  0  0  0
  -18.9800  -30.1290   23.9630 C   0  0  0  0  0  3  0  0  0  0  0  0
  -17.6860  -30.6480   24.1480 C   0  0  0  0  0  3  0  0  0  0  0  0
  -16.5660  -29.9040   23.7350 C   0  0  0  0  0  3  0  0  0  0  0  0
  -16.7450  -28.6470   23.1320 C   0  0  0  0  0  3  0  0  0  0  0  0
  -25.8850  -32.5180   23.8550 C   0  0  0  0  0  3  0  0  0  0  0  0
  -26.4010  -31.7440   25.1300 C   0  0  1  0  0  0  0  0  0  0  0  0
  -25.3030  -31.4970   26.1910 C   0  0  0  0  0  1  0  0  0  0  0  0
  -26.9910  -30.3710   24.7330 C   0  0  0  0  0  1  0  0  0  0  0  0
  -27.5450  -32.5410   25.8010 C   0  0  0  0  0  1  0  0  0  0  0  0
  -25.5740  -33.9160   24.1840 N   0  0  0  0  0  0  0  0  0  0  0  0
  -25.9080  -34.9680   23.4260 C   0  0  0  0  0  0  0  0  0  0  0  0
  -26.5830  -34.8640   22.3970 O   0  0  0  0  0  0  0  0  0  0  0  0
  -24.9790  -34.0720   24.9840 H   0  0  0  0  0  0  0  0  0  0  0  0
  -24.1860  -36.7600   23.0520 C   0  0  0  0  0  1  0  0  0  0  0  0
  -25.4180  -36.3550   23.8790 C   0  0  0  0  0  3  0  0  0  0  0  0
  -27.5370  -37.2390   24.7470 C   0  0  0  0  0  1  0  0  0  0  0  0
  -26.4530  -37.4070   23.7820 N   0  0  0  0  0  0  0  0  0  0  0  0
  -26.0460  -38.3280   23.9240 H   0  0  0  0  0  0  0  0  0  0  0  0
  1 11  1  0
  1  3  1  0
  2  3  1  0
  2 55  1  0
  3  6  1  0
  4  1  2  0
  5  2  2  0
  7  4  1  0
  8  4  1  0
  9 13  1  0
 10 12  1  0
 11  9  2  0
 12 13  2  0
 12 25  1  0
 13 15  1  0
 14 11  1  0
 14 10  2  0
 16 14  1  0
 17 25  1  0
 18 23  1  0
 19 20  1  0
 19 18  1  0
 21 20  1  0
 21 30  1  0
 21 22  1  0
 23 17  1  0
 23 22  1  0
 24 17  2  0
 25 26  1  0
 27 28  2  0
 28 47  1  0
 29 28  1  0
 29 32  1  0
 30 31  1  0
 30 27  1  0
 31 29  2  0
 32 33  1  0
 33 34  2  0
 35 38  1  0
 35 34  1  0
 36 35  2  0
 37 36  1  0
 37 32  2  0
 38 39  1  0
 39 40  1  0
 40 41  2  0
 42 41  1  0
 42 46  1  0
 43 42  2  0
 44 39  2  0
 44 43  1  0
 45 44  1  0
 47 48  1  0
 48 51  1  0
 48 50  1  0
 49 47  2  0
 52 27  1  0
 52 53  1  0
 54 52  1  0
 55 56  1  0
 57 59  1  0
 57 56  1  0
 58 69  2  0
 59 64  1  0
 60 68  1  0
 60 70  1  0
 61 67  1  0
 61 63  1  0
 62 68  1  0
 63 62  1  0
 64 63  2  0
 65 66  1  0
 65 59  2  0
 66 61  2  0
 67 60  1  0
 68 58  1  0
 70 72  2  0
 71 70  1  0
 73 71  1  0
 74 83  2  0
 74 79  1  0
 75 71  1  0
 75 79  1  0
 76 75  1  0
 77 78  1  0
 77 76  1  0
 78 74  1  0
 79 80  2  0
 80 81  1  0
 82 81  2  0
 83 82  1  0
 84 58  1  0
 84 89  1  0
 84 85  1  0
 85 88  1  1
 85 86  1  0
 87 85  1  0
 89 92  1  0
 90 94  1  0
 90 89  1  0
 91 90  2  0
 94 93  1  0
 96 94  1  0
 96 97  1  0
 96 95  1  0
M  ISO  4  17 100  25 100  56 101  57 101
M  END
>  <TORSDO>  (2) 
F 19

>  <SCORE>  (2) 
-14.408

>  <name>  (2) 
1

>  <ligand_id>  (2) 
1

>  <original_smiles>  (2) 
[H]c1c([H])c([H])c2c(c1[H])C([H])([H])C([H])([H])C([H])([H])C2([H])N([H])C(=O)C1([H])N(C(=O)C([H])(N([H])C(=O)C([H])(N([H])C([H])([H])[H])C([H])([H])[H])C(C([H])([H])[H])(C([H])([H])[H])C([H])([H])[H])C([H])([H])c2c([H])c(OC([H])([H])C([H])([H])C(=O)N([H])C(c3c([H])c(F)c(N([H])C(=O)N4C([H])([H])C([H])([H])C([H])([H])C([H])(n5nc(-c6c([H])c([H])c(Oc7c([H])c([H])c(F)c([H])c7F)c([H])c6[H])c(C(=O)N([H])[H])c5N([H])[H])C4([H])[H])c([H])c3F)=[N+]([H])[H])c([H])c([H])c2C1([H])[H]

>  <smiles>  (2) 
[H]c1c([H])c([H])c2c(c1[H])C([H])([H])C([H])([H])C([H])([H])C2([H])N([H])C(=O)C1([H])N(C(=O)C([H])(N([H])C(=O)C([H])(N([H])C([H])([H])[H])C([H])([H])[H])C(C([H])([H])[H])(C([H])([H])[H])C([H])([H])[H])C([H])([H])c2c([H])c(OC([H])([H])C([H])([H])C(=O)N([H])C(c3c([H])c(F)c(N([H])C(=O)N4C([H])([H])C([H])([H])C([H])([H])C([H])(n5nc(-c6c([H])c([H])c(Oc7c([H])c([H])c(F)c([H])c7F)c([H])c6[H])c(C(=O)N([H])[H])c5N([H])[H])C4([H])[H])c([H])c3F)=[N+]([H])[H])c([H])c([H])c2C1([H])[H]

$$$$
2:0:0
     RDKit          3D

 95104  0  0  1  0  0  0  0  0999 V2000
  -28.0890  -23.4860   18.6130 C   0  0  0  0  0  0  0  0  0  0  0  0
  -28.4170  -22.1240   17.9750 C   0  0  0  0  0  2  0  0  0  0  0  0
  -28.1050  -20.8860   18.8490 C   0  0  0  0  0  2  0  0  0  0  0  0
  -28.9100  -22.3590   20.7290 C   0  0  0  0  0  2  0  0  0  0  0  0
  -27.9990  -23.5780   20.1520 C   0  0  2  0  0  0  0  0  0  0  0  0
  -26.5340  -23.2930   20.5680 C   0  0  0  0  0  1  0  0  0  0  0  0
  -28.7280  -20.9560   20.1720 N   0  0  0  0  0  0  0  0  0  0  0  0
  -27.8770  -24.4600   17.8860 O   0  0  0  0  0  0  0  0  0  0  0  0
  -31.6250  -19.0020   21.6070 C   0  0  0  0  0  3  0  0  0  0  0  0
  -30.7550  -20.0450   21.2330 C   0  0  0  0  0  3  0  0  0  0  0  0
  -31.3110  -17.6530   21.3600 C   0  0  0  0  0  3  0  0  0  0  0  0
  -29.5310  -19.7990   20.5700 C   0  0  0  0  0  0  0  0  0  0  0  0
  -30.1070  -17.2880   20.7210 C   0  0  0  0  0  0  0  0  0  0  0  0
  -29.2260  -18.3830   20.3320 C   0  0  0  0  0  0  0  0  0  0  0  0
  -28.0570  -18.0530   19.7280 F   0  0  0  0  0  0  0  0  0  0  0  0
  -30.5950  -14.7280   20.4550 C   0  0  0  0  0  0  0  0  0  0  0  0
  -30.4300  -12.4430   19.4600 C   0  0  0  0  0  2  0  0  0  0  0  0
  -29.5050  -12.5000   18.2230 C   0  0  0  0  0  2  0  0  0  0  0  0
  -28.0320  -12.3260   18.6410 C   0  0  0  0  0  2  0  0  0  0  0  0
  -27.6390  -13.2250   19.8450 C   0  0  0  0  0  3  0  0  0  0  0  0
  -28.6830  -13.1530   20.9790 C   0  0  0  0  0  2  0  0  0  0  0  0
  -29.9800  -13.5030   20.3890 N   0  0  0  0  0  0  0  0  0  0  0  0
  -31.7960  -14.8280   20.1800 O   0  0  0  0  0  0  0  0  0  0  0  0
  -29.7840  -15.8500   20.5570 N   0  0  0  0  0  0  0  0  0  0  0  0
  -28.7970  -15.6500   20.5100 H   0  0  0  0  0  0  0  0  0  0  0  0
  -25.2500  -13.8180   20.5660 C   0  0  0  0  0  0  0  0  0  0  0  0
  -24.1780  -13.0450   20.9200 C   0  0  0  0  0  0  0  0  0  0  0  0
  -24.6370  -11.6920   20.8760 C   0  0  0  0  0  0  0  0  0  0  0  0
  -26.2910  -12.9380   20.3230 N   0  0  0  0  0  0  0  0  0  0  0  0
  -25.9290  -11.6530   20.5730 N   0  0  0  0  0  0  0  0  0  0  0  0
  -23.9040  -10.4290   21.0410 C   0  0  0  0  0  0  0  0  0  0  0  0
  -24.3600   -9.4210   21.9190 C   0  0  0  0  0  3  0  0  0  0  0  0
  -23.6270   -8.2240   22.0750 C   0  0  0  0  0  3  0  0  0  0  0  0
  -22.4260   -8.0280   21.3530 C   0  0  0  0  0  0  0  0  0  0  0  0
  -21.9880   -9.0250   20.4640 C   0  0  0  0  0  3  0  0  0  0  0  0
  -22.7210  -10.2130   20.3060 C   0  0  0  0  0  3  0  0  0  0  0  0
  -21.6630   -6.8870   21.4230 O   0  0  0  0  0  0  0  0  0  0  0  0
  -21.6860   -6.0730   22.5270 C   0  0  0  0  0  0  0  0  0  0  0  0
  -21.4020   -6.5630   23.8210 C   0  0  0  0  0  3  0  0  0  0  0  0
  -21.3660   -5.6780   24.9170 C   0  0  0  0  0  3  0  0  0  0  0  0
  -21.6040   -4.3040   24.7210 C   0  0  0  0  0  0  0  0  0  0  0  0
  -21.8820   -3.8130   23.4340 C   0  0  0  0  0  3  0  0  0  0  0  0
  -21.9200   -4.6960   22.3400 C   0  0  0  0  0  0  0  0  0  0  0  0
  -22.1670   -4.2150   21.0980 F   0  0  0  0  0  0  0  0  0  0  0  0
  -21.5630   -3.4530   25.7730 F   0  0  0  0  0  0  0  0  0  0  0  0
  -22.7810  -13.5250   21.1860 C   0  0  0  0  0  0  0  0  0  0  0  0
  -22.0430  -12.8270   22.0420 N   0  0  0  0  0  0  0  0  0  0  0  0
  -22.3510  -14.5560   20.6710 O   0  0  0  0  0  0  0  0  0  0  0  0
  -22.4050  -11.9940   22.4840 H   0  0  0  0  0  0  0  0  0  0  0  0
  -21.1060  -13.1300   22.2650 H   0  0  0  0  0  0  0  0  0  0  0  0
  -25.4170  -15.1900   20.4040 N   0  0  0  0  0  0  0  0  0  0  0  0
  -24.6360  -15.8300   20.4990 H   0  0  0  0  0  0  0  0  0  0  0  0
  -26.2480  -15.6310   20.0330 H   0  0  0  0  0  0  0  0  0  0  0  0
  -28.3790  -25.0650   20.7350 C   0  0  0  0  0  2  0  0  0  0  0  0
  -28.3270  -26.4140   20.0720 O   0  0  0  0  0  0  0  0  0  0  0  0
  -24.6330  -31.8560   23.1990 C   0  0  0  0  0  0  0  0  0  0  0  0
  -27.2070  -27.2620   20.1390 C   0  0  0  0  0  0  0  0  0  0  0  0
  -23.4260  -30.4800   21.5410 C   0  0  0  0  0  3  0  0  0  0  0  0
  -24.8670  -28.9150   20.1240 C   0  0  0  0  0  0  0  0  0  0  0  0
  -25.9700  -30.7690   21.3760 C   0  0  0  0  0  2  0  0  0  0  0  0
  -26.0390  -29.3880   20.7260 C   0  0  0  0  0  0  0  0  0  0  0  0
  -27.2160  -28.5760   20.7150 C   0  0  0  0  0  3  0  0  0  0  0  0
  -26.0160  -26.8500   19.5140 C   0  0  0  0  0  3  0  0  0  0  0  0
  -24.8590  -27.6530   19.5090 C   0  0  0  0  0  3  0  0  0  0  0  0
  -23.6450  -29.8090   20.1600 C   0  0  0  0  0  2  0  0  0  0  0  0
  -24.6950  -31.0550   22.0940 N   0  0  0  0  0  0  0  0  0  0  0  0
  -23.5490  -32.1350   23.7330 O   0  0  0  0  0  0  0  0  0  0  0  0
  -22.7490  -29.4630   22.4890 C   0  0  0  0  0  0  0  0  0  0  0  0
  -21.4200  -29.3060   22.3640 N   0  0  0  0  0  0  0  0  0  0  0  0
  -23.4190  -28.8170   23.2990 O   0  0  0  0  0  0  0  0  0  0  0  0
  -20.9360  -29.8820   21.6880 H   0  0  0  0  0  0  0  0  0  0  0  0
  -18.0300  -28.1370   22.8480 C   0  0  0  0  0  0  0  0  0  0  0  0
  -20.5910  -28.3710   23.1250 C   0  0  0  0  0  3  0  0  0  0  0  0
  -20.6780  -26.9420   22.5410 C   0  0  0  0  0  2  0  0  0  0  0  0
  -19.5760  -26.6370   21.5210 C   0  0  0  0  0  2  0  0  0  0  0  0
  -18.1940  -26.7920   22.1620 C   0  0  0  0  0  2  0  0  0  0  0  0
  -19.1550  -28.8850   23.2870 C   0  0  0  0  0  0  0  0  0  0  0  0
  -18.9470  -30.1450   23.8870 C   0  0  0  0  0  3  0  0  0  0  0  0
  -17.6470  -30.6570   24.0570 C   0  0  0  0  0  3  0  0  0  0  0  0
  -16.5360  -29.9080   23.6330 C   0  0  0  0  0  3  0  0  0  0  0  0
  -16.7300  -28.6500   23.0330 C   0  0  0  0  0  3  0  0  0  0  0  0
  -25.9160  -32.4760   23.8310 C   0  0  0  0  0  3  0  0  0  0  0  0
  -25.5980  -33.8550   24.2250 N   0  0  0  0  0  0  0  0  0  0  0  0
  -25.9070  -34.9440   23.5080 C   0  0  0  0  0  0  0  0  0  0  0  0
  -26.5610  -34.8920   22.4630 O   0  0  0  0  0  0  0  0  0  0  0  0
  -25.0220  -33.9680   25.0450 H   0  0  0  0  0  0  0  0  0  0  0  0
  -24.1490  -36.7270   23.2620 C   0  0  0  0  0  1  0  0  0  0  0  0
  -25.4120  -36.3070   24.0330 C   0  0  0  0  0  3  0  0  0  0  0  0
  -27.5580  -37.1800   24.8460 C   0  0  0  0  0  1  0  0  0  0  0  0
  -26.4280  -37.3790   23.9430 N   0  0  0  0  0  0  0  0  0  0  0  0
  -26.0160  -38.2860   24.1460 H   0  0  0  0  0  0  0  0  0  0  0  0
  -26.4520  -31.6590   25.0710 C   0  0  1  0  0  0  0  0  0  0  0  0
  -25.3760  -31.3770   26.1450 C   0  0  0  0  0  1  0  0  0  0  0  0
  -27.0350  -30.2990   24.6230 C   0  0  0  0  0  1  0  0  0  0  0  0
  -27.6090  -32.4320   25.7490 C   0  0  0  0  0  1  0  0  0  0  0  0
  1  5  1  0
  2  1  1  0
  2  3  1  0
  3  7  1  0
  5  6  1  6
  5  4  1  0
  5 54  1  0
  7 12  1  0
  7  4  1  0
  8  1  2  0
 10  9  2  0
 11  9  1  0
 12 10  1  0
 13 11  2  0
 14 12  2  0
 14 13  1  0
 15 14  1  0
 16 24  1  0
 17 22  1  0
 18 19  1  0
 18 17  1  0
 20 19  1  0
 20 29  1  0
 20 21  1  0
 22 16  1  0
 22 21  1  0
 23 16  2  0
 24 13  1  0
 25 24  1  0
 26 27  2  0
 27 46  1  0
 28 27  1  0
 28 31  1  0
 29 26  1  0
 29 30  1  0
 30 28  2  0
 31 32  1  0
 32 33  2  0
 34 37  1  0
 34 33  1  0
 35 34  2  0
 36 35  1  0
 36 31  2  0
 37 38  1  0
 38 39  1  0
 39 40  2  0
 41 40  1  0
 41 45  1  0
 42 41  2  0
 43 38  2  0
 43 42  1  0
 44 43  1  0
 46 47  1  0
 47 50  1  0
 47 49  1  0
 48 46  2  0
 51 52  1  0
 51 26  1  0
 53 51  1  0
 55 57  1  0
 55 54  1  0
 56 67  2  0
 57 62  1  0
 58 66  1  0
 58 68  1  0
 59 65  1  0
 59 61  1  0
 60 66  1  0
 61 60  1  0
 62 61  2  0
 63 57  2  0
 64 63  1  0
 64 59  2  0
 65 58  1  0
 66 56  1  0
 68 70  2  0
 69 68  1  0
 71 69  1  0
 72 81  2  0
 72 77  1  0
 73 69  1  0
 73 77  1  0
 74 73  1  0
 75 76  1  0
 75 74  1  0
 76 72  1  0
 77 78  2  0
 78 79  1  0
 80 79  2  0
 81 80  1  0
 82 56  1  0
 82 83  1  0
 82 92  1  0
 83 86  1  0
 84 88  1  0
 84 83  1  0
 85 84  2  0
 88 87  1  0
 90 88  1  0
 90 91  1  0
 90 89  1  0
 92 95  1  1
 92 93  1  0
 94 92  1  0
M  ISO  4  16 100  24 100  54 101  55 101
M  END
>  <TORSDO>  (3) 
F 18

>  <SCORE>  (3) 
-15.129

>  <name>  (3) 
2

>  <ligand_id>  (3) 
2

>  <original_smiles>  (3) 
[H]c1c([H])c(N([H])C(=O)N2C([H])([H])C([H])([H])C([H])([H])C([H])(n3nc(-c4c([H])c([H])c(Oc5c([H])c([H])c(F)c([H])c5F)c([H])c4[H])c(C(=O)N([H])[H])c3N([H])[H])C2([H])[H])c(F)c(N2C([H])([H])C([H])([H])C(=O)C(C([H])([H])[H])(C([H])([H])Oc3c([H])c([H])c4c(c3[H])C([H])([H])N(C(=O)C([H])(N([H])C(=O)C([H])(N([H])C([H])([H])[H])C([H])([H])[H])C(C([H])([H])[H])(C([H])([H])[H])C([H])([H])[H])C([H])(C(=O)N([H])C3([H])c5c([H])c([H])c([H])c([H])c5C([H])([H])C([H])([H])C3([H])[H])C4([H])[H])C2([H])[H])c1[H]

>  <smiles>  (3) 
[H]c1c([H])c(N([H])C(=O)N2C([H])([H])C([H])([H])C([H])([H])C([H])(n3nc(-c4c([H])c([H])c(Oc5c([H])c([H])c(F)c([H])c5F)c([H])c4[H])c(C(=O)N([H])[H])c3N([H])[H])C2([H])[H])c(F)c(N2C([H])([H])C([H])([H])C(=O)C(C([H])([H])[H])(C([H])([H])Oc3c([H])c([H])c4c(c3[H])C([H])([H])N(C(=O)C([H])(N([H])C(=O)C([H])(N([H])C([H])([H])[H])C([H])([H])[H])C(C([H])([H])[H])(C([H])([H])[H])C([H])([H])[H])C([H])(C(=O)N([H])C3([H])c5c([H])c([H])c([H])c([H])c5C([H])([H])C([H])([H])C3([H])[H])C4([H])[H])C2([H])[H])c1[H]

$$$$
3:0:0
     RDKit          3D

 92100  0  0  1  0  0  0  0  0999 V2000
  -28.8210  -22.4640   19.7310 C   0  0  0  0  0  0  0  0  0  0  0  0
  -29.2700  -21.3230   20.4230 N   0  0  0  0  0  0  0  0  0  0  0  0
  -28.4590  -22.3460   18.5580 O   0  0  0  0  0  0  0  0  0  0  0  0
  -29.3890  -21.4560   21.4180 H   0  0  0  0  0  0  0  0  0  0  0  0
  -30.2540  -19.8970   18.6190 C   0  0  0  0  0  3  0  0  0  0  0  0
  -30.6670  -18.6800   18.0410 C   0  0  0  0  0  3  0  0  0  0  0  0
  -29.5960  -18.6660   20.6060 C   0  0  0  0  0  3  0  0  0  0  0  0
  -29.6690  -19.9600   19.9050 C   0  0  0  0  0  0  0  0  0  0  0  0
  -30.0380  -17.3790   20.0400 C   0  0  0  0  0  0  0  0  0  0  0  0
  -30.5440  -17.4500   18.7160 C   0  0  0  0  0  0  0  0  0  0  0  0
  -30.8840  -16.3290   18.0380 F   0  0  0  0  0  0  0  0  0  0  0  0
  -30.6490  -14.8510   20.4760 C   0  0  0  0  0  0  0  0  0  0  0  0
  -30.4670  -12.5420   19.5310 C   0  0  0  0  0  2  0  0  0  0  0  0
  -29.5730  -12.6190   18.2740 C   0  0  0  0  0  2  0  0  0  0  0  0
  -28.0870  -12.4630   18.6530 C   0  0  0  0  0  2  0  0  0  0  0  0
  -27.6830  -13.3340   19.8740 C   0  0  0  0  0  3  0  0  0  0  0  0
  -28.7170  -13.2610   21.0190 C   0  0  0  0  0  2  0  0  0  0  0  0
  -30.0240  -13.6180   20.4530 N   0  0  0  0  0  0  0  0  0  0  0  0
  -31.8500  -14.9110   20.1950 O   0  0  0  0  0  0  0  0  0  0  0  0
  -29.9020  -16.0160   20.6710 N   0  0  0  0  0  0  0  0  0  0  0  0
  -29.0210  -15.8580   21.1350 H   0  0  0  0  0  0  0  0  0  0  0  0
  -25.2750  -13.9080   20.5310 C   0  0  0  0  0  0  0  0  0  0  0  0
  -24.2010  -13.1320   20.8710 C   0  0  0  0  0  0  0  0  0  0  0  0
  -24.6710  -11.7820   20.8630 C   0  0  0  0  0  0  0  0  0  0  0  0
  -26.3290  -13.0340   20.3300 N   0  0  0  0  0  0  0  0  0  0  0  0
  -25.9710  -11.7490   20.5940 N   0  0  0  0  0  0  0  0  0  0  0  0
  -23.9410  -10.5190   21.0460 C   0  0  0  0  0  0  0  0  0  0  0  0
  -24.3500   -9.5610   21.9990 C   0  0  0  0  0  3  0  0  0  0  0  0
  -23.6200   -8.3650   22.1710 C   0  0  0  0  0  3  0  0  0  0  0  0
  -22.4670   -8.1170   21.3890 C   0  0  0  0  0  0  0  0  0  0  0  0
  -22.0750   -9.0650   20.4280 C   0  0  0  0  0  3  0  0  0  0  0  0
  -22.8060  -10.2520   20.2530 C   0  0  0  0  0  3  0  0  0  0  0  0
  -21.7130   -6.9720   21.4690 O   0  0  0  0  0  0  0  0  0  0  0  0
  -21.6350   -6.2390   22.6270 C   0  0  0  0  0  0  0  0  0  0  0  0
  -21.1720   -6.8020   23.8350 C   0  0  0  0  0  3  0  0  0  0  0  0
  -21.0390   -5.9970   24.9830 C   0  0  0  0  0  3  0  0  0  0  0  0
  -21.3610   -4.6280   24.9240 C   0  0  0  0  0  0  0  0  0  0  0  0
  -21.8180   -4.0640   23.7210 C   0  0  0  0  0  3  0  0  0  0  0  0
  -21.9520   -4.8670   22.5740 C   0  0  0  0  0  0  0  0  0  0  0  0
  -22.3700   -4.3140   21.4110 F   0  0  0  0  0  0  0  0  0  0  0  0
  -21.2290   -3.8510   26.0240 F   0  0  0  0  0  0  0  0  0  0  0  0
  -22.7960  -13.6070   21.0990 C   0  0  0  0  0  0  0  0  0  0  0  0
  -22.0460  -12.9150   21.9500 N   0  0  0  0  0  0  0  0  0  0  0  0
  -22.3710  -14.6250   20.5570 O   0  0  0  0  0  0  0  0  0  0  0  0
  -22.4000  -12.0880   22.4060 H   0  0  0  0  0  0  0  0  0  0  0  0
  -21.1020  -13.2180   22.1460 H   0  0  0  0  0  0  0  0  0  0  0  0
  -25.4410  -15.2790   20.3570 N   0  0  0  0  0  0  0  0  0  0  0  0
  -24.6810  -15.9380   20.4880 H   0  0  0  0  0  0  0  0  0  0  0  0
  -26.3140  -15.7250   20.1090 H   0  0  0  0  0  0  0  0  0  0  0  0
  -28.7610  -23.8290   20.4100 C   0  0  0  0  0  3  0  0  0  0  0  0
  -28.3210  -25.0080   19.7910 C   0  0  0  0  0  3  0  0  0  0  0  0
  -28.3200  -26.3680   20.2690 O   0  0  0  0  0  0  0  0  0  0  0  0
  -24.6000  -31.8860   23.2120 C   0  0  0  0  0  0  0  0  0  0  0  0
  -27.2200  -27.2670   20.1620 C   0  0  0  0  0  0  0  0  0  0  0  0
  -23.3990  -30.4840   21.5730 C   0  0  0  0  0  3  0  0  0  0  0  0
  -24.8540  -28.9260   20.1410 C   0  0  0  0  0  0  0  0  0  0  0  0
  -25.9430  -30.7860   21.3950 C   0  0  0  0  0  2  0  0  0  0  0  0
  -26.0240  -29.4050   20.7410 C   0  0  0  0  0  0  0  0  0  0  0  0
  -27.2050  -28.5880   20.7400 C   0  0  0  0  0  3  0  0  0  0  0  0
  -26.0210  -26.8610   19.5350 C   0  0  0  0  0  3  0  0  0  0  0  0
  -24.8600  -27.6630   19.5260 C   0  0  0  0  0  3  0  0  0  0  0  0
  -23.6170  -29.8070   20.1920 C   0  0  0  0  0  2  0  0  0  0  0  0
  -24.6660  -31.0740   22.1140 N   0  0  0  0  0  0  0  0  0  0  0  0
  -23.5160  -32.1590   23.7490 O   0  0  0  0  0  0  0  0  0  0  0  0
  -22.7360  -29.4690   22.5370 C   0  0  0  0  0  0  0  0  0  0  0  0
  -21.4090  -29.2920   22.4180 N   0  0  0  0  0  0  0  0  0  0  0  0
  -23.4180  -28.8440   23.3540 O   0  0  0  0  0  0  0  0  0  0  0  0
  -20.9170  -29.8460   21.7300 H   0  0  0  0  0  0  0  0  0  0  0  0
  -18.0370  -28.0850   22.9460 C   0  0  0  0  0  0  0  0  0  0  0  0
  -20.5970  -28.3510   23.1940 C   0  0  0  0  0  3  0  0  0  0  0  0
  -20.6970  -26.9190   22.6170 C   0  0  0  0  0  2  0  0  0  0  0  0
  -19.5880  -26.5960   21.6100 C   0  0  0  0  0  2  0  0  0  0  0  0
  -18.2110  -26.7380   22.2650 C   0  0  0  0  0  2  0  0  0  0  0  0
  -19.1580  -28.8490   23.3690 C   0  0  0  0  0  0  0  0  0  0  0  0
  -18.9390  -30.1090   23.9670 C   0  0  0  0  0  3  0  0  0  0  0  0
  -17.6340  -30.6040   24.1460 C   0  0  0  0  0  3  0  0  0  0  0  0
  -16.5290  -29.8390   23.7380 C   0  0  0  0  0  3  0  0  0  0  0  0
  -16.7310  -28.5790   23.1440 C   0  0  0  0  0  3  0  0  0  0  0  0
  -25.8790  -32.5260   23.8330 C   0  0  0  0  0  3  0  0  0  0  0  0
  -26.4020  -31.7600   25.1090 C   0  0  1  0  0  0  0  0  0  0  0  0
  -25.3140  -31.5220   26.1820 C   0  0  0  0  0  1  0  0  0  0  0  0
  -26.9860  -30.3820   24.7230 C   0  0  0  0  0  1  0  0  0  0  0  0
  -27.5560  -32.5570   25.7630 C   0  0  0  0  0  1  0  0  0  0  0  0
  -25.5650  -33.9230   24.1680 N   0  0  0  0  0  0  0  0  0  0  0  0
  -25.8860  -34.9820   23.4120 C   0  0  0  0  0  0  0  0  0  0  0  0
  -26.5500  -34.8870   22.3760 O   0  0  0  0  0  0  0  0  0  0  0  0
  -24.9830  -34.0740   24.9780 H   0  0  0  0  0  0  0  0  0  0  0  0
  -24.1560  -36.7770   23.0600 C   0  0  0  0  0  1  0  0  0  0  0  0
  -25.3930  -36.3670   23.8770 C   0  0  0  0  0  3  0  0  0  0  0  0
  -27.5200  -37.2500   24.7280 C   0  0  0  0  0  1  0  0  0  0  0  0
  -26.4240  -37.4240   23.7790 N   0  0  0  0  0  0  0  0  0  0  0  0
  -26.0140  -38.3420   23.9320 H   0  0  0  0  0  0  0  0  0  0  0  0
  1 50  1  0
  1  2  1  0
  2  4  1  0
  3  1  2  0
  5  8  1  0
  6  5  2  0
  6 10  1  0
  8  2  1  0
  8  7  2  0
  9  7  1  0
  9 20  1  0
 10  9  2  0
 11 10  1  0
 12 20  1  0
 13 18  1  0
 14 15  1  0
 14 13  1  0
 16 15  1  0
 16 25  1  0
 16 17  1  0
 18 12  1  0
 18 17  1  0
 19 12  2  0
 20 21  1  0
 22 23  2  0
 23 42  1  0
 24 23  1  0
 24 27  1  0
 25 22  1  0
 25 26  1  0
 26 24  2  0
 27 28  1  0
 28 29  2  0
 30 33  1  0
 30 29  1  0
 31 30  2  0
 32 31  1  0
 32 27  2  0
 33 34  1  0
 34 35  1  0
 35 36  2  0
 37 36  1  0
 37 41  1  0
 38 37  2  0
 39 34  2  0
 39 38  1  0
 40 39  1  0
 42 43  1  0
 43 46  1  0
 43 45  1  0
 44 42  2  0
 47 48  1  0
 47 22  1  0
 49 47  1  0
 51 52  1  0
 51 50  2  0
 53 64  2  0
 54 52  1  0
 54 59  1  0
 55 63  1  0
 55 65  1  0
 56 62  1  0
 56 58  1  0
 57 63  1  0
 58 57  1  0
 59 58  2  0
 60 54  2  0
 61 60  1  0
 61 56  2  0
 62 55  1  0
 63 53  1  0
 65 67  2  0
 66 65  1  0
 68 66  1  0
 69 78  2  0
 69 74  1  0
 70 66  1  0
 70 74  1  0
 71 70  1  0
 72 73  1  0
 72 71  1  0
 73 69  1  0
 74 75  2  0
 75 76  1  0
 77 76  2  0
 78 77  1  0
 79 53  1  0
 79 84  1  0
 79 80  1  0
 80 83  1  1
 80 81  1  0
 82 80  1  0
 84 87  1  0
 85 89  1  0
 85 84  1  0
 86 85  2  0
 89 88  1  0
 91 89  1  0
 91 92  1  0
 91 90  1  0
M  ISO  4  12 100  20 100  51 101  52 101
M  END
>  <TORSDO>  (4) 
F 18

>  <SCORE>  (4) 
-14.586

>  <name>  (4) 
3

>  <ligand_id>  (4) 
3

>  <original_smiles>  (4) 
[H]C(Oc1c([H])c([H])c2c(c1[H])C([H])([H])N(C(=O)C([H])(N([H])C(=O)C([H])(N([H])C([H])([H])[H])C([H])([H])[H])C(C([H])([H])[H])(C([H])([H])[H])C([H])([H])[H])C([H])(C(=O)N([H])C1([H])c3c([H])c([H])c([H])c([H])c3C([H])([H])C([H])([H])C1([H])[H])C2([H])[H])=C([H])C(=O)N([H])c1c([H])c([H])c(F)c(N([H])C(=O)N2C([H])([H])C([H])([H])C([H])([H])C([H])(n3nc(-c4c([H])c([H])c(Oc5c([H])c([H])c(F)c([H])c5F)c([H])c4[H])c(C(=O)N([H])[H])c3N([H])[H])C2([H])[H])c1[H]

>  <smiles>  (4) 
[H]C(Oc1c([H])c([H])c2c(c1[H])C([H])([H])N(C(=O)C([H])(N([H])C(=O)C([H])(N([H])C([H])([H])[H])C([H])([H])[H])C(C([H])([H])[H])(C([H])([H])[H])C([H])([H])[H])C([H])(C(=O)N([H])C1([H])c3c([H])c([H])c([H])c([H])c3C([H])([H])C([H])([H])C1([H])[H])C2([H])[H])=C([H])C(=O)N([H])c1c([H])c([H])c(F)c(N([H])C(=O)N2C([H])([H])C([H])([H])C([H])([H])C([H])(n3nc(-c4c([H])c([H])c(Oc5c([H])c([H])c(F)c([H])c5F)c([H])c4[H])c(C(=O)N([H])[H])c3N([H])[H])C2([H])[H])c1[H]

$$$$
4:0:0
     RDKit          3D

 95103  0  0  1  0  0  0  0  0999 V2000
  -29.9280  -21.5900   19.7470 C   0  0  0  0  0  0  0  0  0  0  0  0
  -29.1850  -24.0680   19.9090 C   0  0  0  0  0  0  0  0  0  0  0  0
  -29.1520  -22.6170   20.2660 N   0  0  0  0  0  0  0  0  0  0  0  0
  -30.8010  -21.9090   18.7850 N   0  0  0  0  0  4  0  0  0  0  0  0
  -29.9870  -24.4930   19.0670 O   0  0  0  0  0  0  0  0  0  0  0  0
  -28.5110  -22.2840   20.9720 H   0  0  0  0  0  0  0  0  0  0  0  0
  -31.4940  -21.2320   18.4960 H   0  0  0  0  0  0  0  0  0  0  0  0
  -30.8850  -22.8780   18.5020 H   0  0  0  0  0  0  0  0  0  0  0  0
  -28.6990  -19.3800   20.3620 C   0  0  0  0  0  3  0  0  0  0  0  0
  -28.6950  -17.9610   20.5590 C   0  0  0  0  0  3  0  0  0  0  0  0
  -31.0780  -17.8920   20.3060 C   0  0  0  0  0  3  0  0  0  0  0  0
  -29.8970  -20.1040   20.1170 C   0  0  0  0  0  0  0  0  0  0  0  0
  -29.8770  -17.1660   20.5100 C   0  0  0  0  0  0  0  0  0  0  0  0
  -31.0890  -19.3090   20.1190 C   0  0  0  0  0  0  0  0  0  0  0  0
  -32.2910  -19.8960   19.8970 F   0  0  0  0  0  0  0  0  0  0  0  0
  -30.5910  -14.6660   20.2970 C   0  0  0  0  0  0  0  0  0  0  0  0
  -30.3780  -12.4420   19.2040 C   0  0  0  0  0  2  0  0  0  0  0  0
  -29.4120  -12.5840   18.0060 C   0  0  0  0  0  2  0  0  0  0  0  0
  -27.9470  -12.4150   18.4560 C   0  0  0  0  0  2  0  0  0  0  0  0
  -27.6070  -13.2580   19.7130 C   0  0  0  0  0  3  0  0  0  0  0  0
  -28.6840  -13.0850   20.8090 C   0  0  0  0  0  2  0  0  0  0  0  0
  -29.9830  -13.4400   20.2170 N   0  0  0  0  0  0  0  0  0  0  0  0
  -31.7470  -14.8320   19.8920 O   0  0  0  0  0  0  0  0  0  0  0  0
  -29.7840  -15.7090   20.6790 N   0  0  0  0  0  0  0  0  0  0  0  0
  -28.8820  -15.3880   20.9940 H   0  0  0  0  0  0  0  0  0  0  0  0
  -25.2220  -13.8470   20.4660 C   0  0  0  0  0  0  0  0  0  0  0  0
  -24.1640  -13.0690   20.8500 C   0  0  0  0  0  0  0  0  0  0  0  0
  -24.6300  -11.7200   20.8090 C   0  0  0  0  0  0  0  0  0  0  0  0
  -26.2660  -12.9710   20.2130 N   0  0  0  0  0  0  0  0  0  0  0  0
  -25.9170  -11.6870   20.4810 N   0  0  0  0  0  0  0  0  0  0  0  0
  -23.9120  -10.4550   21.0040 C   0  0  0  0  0  0  0  0  0  0  0  0
  -24.3500   -9.4930   21.9420 C   0  0  0  0  0  3  0  0  0  0  0  0
  -23.6320   -8.2930   22.1240 C   0  0  0  0  0  3  0  0  0  0  0  0
  -22.4600   -8.0440   21.3700 C   0  0  0  0  0  0  0  0  0  0  0  0
  -22.0400   -8.9940   20.4220 C   0  0  0  0  0  3  0  0  0  0  0  0
  -22.7600  -10.1860   20.2370 C   0  0  0  0  0  3  0  0  0  0  0  0
  -21.7130   -6.8950   21.4630 O   0  0  0  0  0  0  0  0  0  0  0  0
  -21.6580   -6.1630   22.6220 C   0  0  0  0  0  0  0  0  0  0  0  0
  -21.1980   -6.7230   23.8340 C   0  0  0  0  0  3  0  0  0  0  0  0
  -21.0920   -5.9170   24.9860 C   0  0  0  0  0  3  0  0  0  0  0  0
  -21.4350   -4.5530   24.9260 C   0  0  0  0  0  0  0  0  0  0  0  0
  -21.8880   -3.9930   23.7180 C   0  0  0  0  0  3  0  0  0  0  0  0
  -21.9960   -4.7960   22.5680 C   0  0  0  0  0  0  0  0  0  0  0  0
  -22.4120   -4.2480   21.4020 F   0  0  0  0  0  0  0  0  0  0  0  0
  -21.3260   -3.7770   26.0290 F   0  0  0  0  0  0  0  0  0  0  0  0
  -22.7680  -13.5410   21.1410 C   0  0  0  0  0  0  0  0  0  0  0  0
  -22.0530  -12.8370   22.0110 N   0  0  0  0  0  0  0  0  0  0  0  0
  -22.3210  -14.5690   20.6330 O   0  0  0  0  0  0  0  0  0  0  0  0
  -22.4270  -12.0060   22.4440 H   0  0  0  0  0  0  0  0  0  0  0  0
  -21.1170  -13.1350   22.2480 H   0  0  0  0  0  0  0  0  0  0  0  0
  -25.3780  -15.2190   20.2870 N   0  0  0  0  0  0  0  0  0  0  0  0
  -24.5960  -15.8580   20.3850 H   0  0  0  0  0  0  0  0  0  0  0  0
  -26.1860  -15.6470   19.8540 H   0  0  0  0  0  0  0  0  0  0  0  0
  -28.1850  -25.0740   20.5990 C   0  0  0  0  0  2  0  0  0  0  0  0
  -28.3630  -26.5020   20.2190 O   0  0  0  0  0  0  0  0  0  0  0  0
  -24.5920  -31.8710   23.2440 C   0  0  0  0  0  0  0  0  0  0  0  0
  -27.2320  -27.3320   20.1990 C   0  0  0  0  0  0  0  0  0  0  0  0
  -23.3970  -30.4670   21.6000 C   0  0  0  0  0  3  0  0  0  0  0  0
  -24.8580  -28.9230   20.1780 C   0  0  0  0  0  0  0  0  0  0  0  0
  -25.9340  -30.8000   21.4210 C   0  0  0  0  0  2  0  0  0  0  0  0
  -26.0220  -29.4220   20.7760 C   0  0  0  0  0  0  0  0  0  0  0  0
  -27.2140  -28.6390   20.7750 C   0  0  0  0  0  3  0  0  0  0  0  0
  -26.0500  -26.8860   19.5690 C   0  0  0  0  0  3  0  0  0  0  0  0
  -24.8740  -27.6600   19.5650 C   0  0  0  0  0  3  0  0  0  0  0  0
  -23.6170  -29.7910   20.2210 C   0  0  0  0  0  2  0  0  0  0  0  0
  -24.6590  -31.0640   22.1450 N   0  0  0  0  0  0  0  0  0  0  0  0
  -23.5060  -32.1430   23.7760 O   0  0  0  0  0  0  0  0  0  0  0  0
  -22.7360  -29.4480   22.5580 C   0  0  0  0  0  0  0  0  0  0  0  0
  -21.4110  -29.2700   22.4310 N   0  0  0  0  0  0  0  0  0  0  0  0
  -23.4150  -28.8200   23.3740 O   0  0  0  0  0  0  0  0  0  0  0  0
  -20.9220  -29.8280   21.7450 H   0  0  0  0  0  0  0  0  0  0  0  0
  -18.0310  -28.0860   22.9390 C   0  0  0  0  0  0  0  0  0  0  0  0
  -20.5910  -28.3320   23.2000 C   0  0  0  0  0  3  0  0  0  0  0  0
  -20.6850  -26.9030   22.6140 C   0  0  0  0  0  2  0  0  0  0  0  0
  -19.5770  -26.5920   21.6020 C   0  0  0  0  0  2  0  0  0  0  0  0
  -18.1990  -26.7390   22.2530 C   0  0  0  0  0  2  0  0  0  0  0  0
  -19.1550  -28.8390   23.3680 C   0  0  0  0  0  0  0  0  0  0  0  0
  -18.9440  -30.1000   23.9690 C   0  0  0  0  0  3  0  0  0  0  0  0
  -17.6420  -30.6060   24.1440 C   0  0  0  0  0  3  0  0  0  0  0  0
  -16.5330  -29.8480   23.7310 C   0  0  0  0  0  3  0  0  0  0  0  0
  -16.7280  -28.5900   23.1340 C   0  0  0  0  0  3  0  0  0  0  0  0
  -25.8700  -32.5070   23.8690 C   0  0  0  0  0  3  0  0  0  0  0  0
  -25.5580  -33.9060   24.1930 N   0  0  0  0  0  0  0  0  0  0  0  0
  -25.8940  -34.9560   23.4320 C   0  0  0  0  0  0  0  0  0  0  0  0
  -26.5700  -34.8500   22.4050 O   0  0  0  0  0  0  0  0  0  0  0  0
  -24.9580  -34.0620   24.9900 H   0  0  0  0  0  0  0  0  0  0  0  0
  -24.1730  -36.7530   23.0560 C   0  0  0  0  0  1  0  0  0  0  0  0
  -25.4040  -36.3460   23.8830 C   0  0  0  0  0  3  0  0  0  0  0  0
  -27.5290  -37.2300   24.7380 C   0  0  0  0  0  1  0  0  0  0  0  0
  -26.4390  -37.3980   23.7800 N   0  0  0  0  0  0  0  0  0  0  0  0
  -26.0340  -38.3180   23.9200 H   0  0  0  0  0  0  0  0  0  0  0  0
  -26.3810  -31.7420   25.1520 C   0  0  1  0  0  0  0  0  0  0  0  0
  -25.2830  -31.5070   26.2150 C   0  0  0  0  0  1  0  0  0  0  0  0
  -26.9680  -30.3630   24.7690 C   0  0  0  0  0  1  0  0  0  0  0  0
  -27.5280  -32.5400   25.8160 C   0  0  0  0  0  1  0  0  0  0  0  0
  1 12  1  0
  1  3  1  0
  2  3  1  0
  2 54  1  0
  3  6  1  0
  4  1  2  0
  5  2  2  0
  7  4  1  0
  8  4  1  0
  9 10  1  0
 11 13  1  0
 12 14  1  0
 12  9  2  0
 13 10  2  0
 13 24  1  0
 14 11  2  0
 15 14  1  0
 16 24  1  0
 17 22  1  0
 18 19  1  0
 18 17  1  0
 20 19  1  0
 20 29  1  0
 20 21  1  0
 22 16  1  0
 22 21  1  0
 23 16  2  0
 24 25  1  0
 26 27  2  0
 27 46  1  0
 28 27  1  0
 28 31  1  0
 29 26  1  0
 29 30  1  0
 30 28  2  0
 31 32  1  0
 32 33  2  0
 34 37  1  0
 34 33  1  0
 35 34  2  0
 36 35  1  0
 36 31  2  0
 37 38  1  0
 38 39  1  0
 39 40  2  0
 41 40  1  0
 41 45  1  0
 42 41  2  0
 43 38  2  0
 43 42  1  0
 44 43  1  0
 46 47  1  0
 47 50  1  0
 47 49  1  0
 48 46  2  0
 51 52  1  0
 51 26  1  0
 53 51  1  0
 55 54  1  0
 56 67  2  0
 57 55  1  0
 57 62  1  0
 58 66  1  0
 58 68  1  0
 59 65  1  0
 59 61  1  0
 60 66  1  0
 61 60  1  0
 62 61  2  0
 63 57  2  0
 64 63  1  0
 64 59  2  0
 65 58  1  0
 66 56  1  0
 68 70  2  0
 69 68  1  0
 71 69  1  0
 72 81  2  0
 72 77  1  0
 73 69  1  0
 73 77  1  0
 74 73  1  0
 75 76  1  0
 75 74  1  0
 76 72  1  0
 77 78  2  0
 78 79  1  0
 80 79  2  0
 81 80  1  0
 82 56  1  0
 82 83  1  0
 82 92  1  0
 83 86  1  0
 84 88  1  0
 84 83  1  0
 85 84  2  0
 88 87  1  0
 90 88  1  0
 90 91  1  0
 90 89  1  0
 92 95  1  1
 92 93  1  0
 94 92  1  0
M  ISO  4  16 100  24 100  54 101  55 101
M  END
>  <TORSDO>  (5) 
F 18

>  <SCORE>  (5) 
-14.803

>  <name>  (5) 
4

>  <ligand_id>  (5) 
4

>  <original_smiles>  (5) 
[H]c1c([H])c([H])c2c(c1[H])C([H])([H])C([H])([H])C([H])([H])C2([H])N([H])C(=O)C1([H])N(C(=O)C([H])(N([H])C(=O)C([H])(N([H])C([H])([H])[H])C([H])([H])[H])C(C([H])([H])[H])(C([H])([H])[H])C([H])([H])[H])C([H])([H])c2c([H])c(OC([H])([H])C(=O)N([H])C(c3c([H])c([H])c(N([H])C(=O)N4C([H])([H])C([H])([H])C([H])([H])C([H])(n5nc(-c6c([H])c([H])c(Oc7c([H])c([H])c(F)c([H])c7F)c([H])c6[H])c(C(=O)N([H])[H])c5N([H])[H])C4([H])[H])c([H])c3F)=[N+]([H])[H])c([H])c([H])c2C1([H])[H]

>  <smiles>  (5) 
[H]c1c([H])c([H])c2c(c1[H])C([H])([H])C([H])([H])C([H])([H])C2([H])N([H])C(=O)C1([H])N(C(=O)C([H])(N([H])C(=O)C([H])(N([H])C([H])([H])[H])C([H])([H])[H])C(C([H])([H])[H])(C([H])([H])[H])C([H])([H])[H])C([H])([H])c2c([H])c(OC([H])([H])C(=O)N([H])C(c3c([H])c([H])c(N([H])C(=O)N4C([H])([H])C([H])([H])C([H])([H])C([H])(n5nc(-c6c([H])c([H])c(Oc7c([H])c([H])c(F)c([H])c7F)c([H])c6[H])c(C(=O)N([H])[H])c5N([H])[H])C4([H])[H])c([H])c3F)=[N+]([H])[H])c([H])c([H])c2C1([H])[H]

$$$$
5:0:0
     RDKit          3D

 97105  0  0  1  0  0  0  0  0999 V2000
  -29.2270  -21.2680   19.8660 C   0  0  0  0  0  0  0  0  0  0  0  0
  -28.6010  -23.7740   19.9420 C   0  0  0  0  0  0  0  0  0  0  0  0
  -28.5550  -24.0590   18.6220 N   0  0  0  0  0  4  0  0  0  0  0  0
  -29.2580  -21.2070   18.5260 N   0  0  0  0  0  4  0  0  0  0  0  0
  -28.9030  -22.4960   20.4780 N   0  0  0  0  0  0  0  0  0  0  0  0
  -28.4360  -25.0290   18.3650 H   0  0  0  0  0  0  0  0  0  0  0  0
  -28.4050  -23.3710   17.9010 H   0  0  0  0  0  0  0  0  0  0  0  0
  -29.4210  -20.3090   18.1010 H   0  0  0  0  0  0  0  0  0  0  0  0
  -29.5910  -22.0090   18.0200 H   0  0  0  0  0  0  0  0  0  0  0  0
  -28.8650  -22.4380   21.4810 H   0  0  0  0  0  0  0  0  0  0  0  0
  -30.5930  -20.0350   21.6180 C   0  0  0  0  0  3  0  0  0  0  0  0
  -31.1790  -18.8840   22.1910 C   0  0  0  0  0  3  0  0  0  0  0  0
  -29.3820  -18.5770   20.0980 C   0  0  0  0  0  3  0  0  0  0  0  0
  -29.6790  -19.9430   20.5450 C   0  0  0  0  0  0  0  0  0  0  0  0
  -29.9840  -17.3660   20.6710 C   0  0  0  0  0  0  0  0  0  0  0  0
  -30.8880  -17.5810   21.7360 C   0  0  0  0  0  0  0  0  0  0  0  0
  -31.4580  -16.5310   22.3760 F   0  0  0  0  0  0  0  0  0  0  0  0
  -30.4410  -14.8240   20.1330 C   0  0  0  0  0  0  0  0  0  0  0  0
  -30.2120  -12.5750   19.0440 C   0  0  0  0  0  2  0  0  0  0  0  0
  -29.2150  -12.6710   17.8680 C   0  0  0  0  0  2  0  0  0  0  0  0
  -27.7690  -12.4690   18.3620 C   0  0  0  0  0  2  0  0  0  0  0  0
  -27.4460  -13.3140   19.6230 C   0  0  0  0  0  3  0  0  0  0  0  0
  -28.5590  -13.2070   20.6880 C   0  0  0  0  0  2  0  0  0  0  0  0
  -29.8150  -13.5980   20.0370 N   0  0  0  0  0  0  0  0  0  0  0  0
  -31.6230  -14.9270   19.7950 O   0  0  0  0  0  0  0  0  0  0  0  0
  -29.6440  -15.9580   20.3030 N   0  0  0  0  0  0  0  0  0  0  0  0
  -28.6570  -15.7690   20.2600 H   0  0  0  0  0  0  0  0  0  0  0  0
  -25.0900  -13.8720   20.4700 C   0  0  0  0  0  0  0  0  0  0  0  0
  -24.0470  -13.0830   20.8700 C   0  0  0  0  0  0  0  0  0  0  0  0
  -24.5160  -11.7370   20.7900 C   0  0  0  0  0  0  0  0  0  0  0  0
  -26.1280  -13.0050   20.1680 N   0  0  0  0  0  0  0  0  0  0  0  0
  -25.7930  -11.7140   20.4220 N   0  0  0  0  0  0  0  0  0  0  0  0
  -23.8060  -10.4650   20.9830 C   0  0  0  0  0  0  0  0  0  0  0  0
  -24.2470   -9.5080   21.9230 C   0  0  0  0  0  3  0  0  0  0  0  0
  -23.5360   -8.3030   22.1060 C   0  0  0  0  0  3  0  0  0  0  0  0
  -22.3710   -8.0430   21.3460 C   0  0  0  0  0  0  0  0  0  0  0  0
  -21.9480   -8.9890   20.3940 C   0  0  0  0  0  3  0  0  0  0  0  0
  -22.6590  -10.1870   20.2120 C   0  0  0  0  0  3  0  0  0  0  0  0
  -21.6320   -6.8890   21.4370 O   0  0  0  0  0  0  0  0  0  0  0  0
  -21.5550   -6.1730   22.6040 C   0  0  0  0  0  0  0  0  0  0  0  0
  -21.0490   -6.7400   23.7940 C   0  0  0  0  0  3  0  0  0  0  0  0
  -20.9230   -5.9490   24.9530 C   0  0  0  0  0  3  0  0  0  0  0  0
  -21.2920   -4.5910   24.9230 C   0  0  0  0  0  0  0  0  0  0  0  0
  -21.7910   -4.0230   23.7370 C   0  0  0  0  0  3  0  0  0  0  0  0
  -21.9190   -4.8110   22.5810 C   0  0  0  0  0  0  0  0  0  0  0  0
  -22.3810   -4.2540   21.4360 F   0  0  0  0  0  0  0  0  0  0  0  0
  -21.1640   -3.8280   26.0330 F   0  0  0  0  0  0  0  0  0  0  0  0
  -22.6590  -13.5450   21.2090 C   0  0  0  0  0  0  0  0  0  0  0  0
  -21.9660  -12.8230   22.0820 N   0  0  0  0  0  0  0  0  0  0  0  0
  -22.1970  -14.5830   20.7350 O   0  0  0  0  0  0  0  0  0  0  0  0
  -22.3500  -11.9820   22.4870 H   0  0  0  0  0  0  0  0  0  0  0  0
  -21.0380  -13.1170   22.3490 H   0  0  0  0  0  0  0  0  0  0  0  0
  -25.2360  -15.2470   20.3150 N   0  0  0  0  0  0  0  0  0  0  0  0
  -24.4650  -15.8860   20.4680 H   0  0  0  0  0  0  0  0  0  0  0  0
  -26.0460  -15.7000   19.9110 H   0  0  0  0  0  0  0  0  0  0  0  0
  -28.2220  -25.0410   20.8130 C   0  0  0  0  0  2  0  0  0  0  0  0
  -28.3710  -26.4380   20.2550 O   0  0  0  0  0  0  0  0  0  0  0  0
  -24.6010  -31.9110   23.2380 C   0  0  0  0  0  0  0  0  0  0  0  0
  -27.2590  -27.3120   20.2440 C   0  0  0  0  0  0  0  0  0  0  0  0
  -23.4220  -30.5010   21.5930 C   0  0  0  0  0  3  0  0  0  0  0  0
  -24.8940  -28.9430   20.1910 C   0  0  0  0  0  0  0  0  0  0  0  0
  -25.9630  -30.8250   21.4290 C   0  0  0  0  0  2  0  0  0  0  0  0
  -26.0590  -29.4390   20.7910 C   0  0  0  0  0  0  0  0  0  0  0  0
  -27.2480  -28.6390   20.7970 C   0  0  0  0  0  3  0  0  0  0  0  0
  -26.0690  -26.8760   19.6270 C   0  0  0  0  0  3  0  0  0  0  0  0
  -24.9040  -27.6700   19.5990 C   0  0  0  0  0  3  0  0  0  0  0  0
  -23.6540  -29.8190   20.2200 C   0  0  0  0  0  2  0  0  0  0  0  0
  -24.6810  -31.0980   22.1440 N   0  0  0  0  0  0  0  0  0  0  0  0
  -23.5110  -32.1830   23.7610 O   0  0  0  0  0  0  0  0  0  0  0  0
  -22.7550  -29.4860   22.5530 C   0  0  0  0  0  0  0  0  0  0  0  0
  -21.4290  -29.3030   22.4160 N   0  0  0  0  0  0  0  0  0  0  0  0
  -23.4280  -28.8650   23.3780 O   0  0  0  0  0  0  0  0  0  0  0  0
  -20.9450  -29.8590   21.7260 H   0  0  0  0  0  0  0  0  0  0  0  0
  -18.0500  -28.1020   22.8960 C   0  0  0  0  0  0  0  0  0  0  0  0
  -20.6070  -28.3610   23.1780 C   0  0  0  0  0  3  0  0  0  0  0  0
  -20.7150  -26.9310   22.5980 C   0  0  0  0  0  2  0  0  0  0  0  0
  -19.6130  -26.6020   21.5860 C   0  0  0  0  0  2  0  0  0  0  0  0
  -18.2290  -26.7540   22.2200 C   0  0  0  0  0  2  0  0  0  0  0  0
  -19.1670  -28.8630   23.3340 C   0  0  0  0  0  0  0  0  0  0  0  0
  -18.9430  -30.1230   23.9300 C   0  0  0  0  0  3  0  0  0  0  0  0
  -17.6360  -30.6220   24.0930 C   0  0  0  0  0  3  0  0  0  0  0  0
  -16.5350  -29.8580   23.6700 C   0  0  0  0  0  3  0  0  0  0  0  0
  -16.7430  -28.6000   23.0760 C   0  0  0  0  0  3  0  0  0  0  0  0
  -25.8730  -32.5550   23.8720 C   0  0  0  0  0  3  0  0  0  0  0  0
  -25.5520  -33.9540   24.1910 N   0  0  0  0  0  0  0  0  0  0  0  0
  -25.8810  -35.0050   23.4280 C   0  0  0  0  0  0  0  0  0  0  0  0
  -26.5540  -34.8990   22.3990 O   0  0  0  0  0  0  0  0  0  0  0  0
  -24.9570  -34.1090   24.9920 H   0  0  0  0  0  0  0  0  0  0  0  0
  -24.1550  -36.7950   23.0440 C   0  0  0  0  0  1  0  0  0  0  0  0
  -25.3850  -36.3950   23.8760 C   0  0  0  0  0  3  0  0  0  0  0  0
  -27.5030  -37.2870   24.7410 C   0  0  0  0  0  1  0  0  0  0  0  0
  -26.4180  -37.4490   23.7760 N   0  0  0  0  0  0  0  0  0  0  0  0
  -26.0080  -38.3690   23.9100 H   0  0  0  0  0  0  0  0  0  0  0  0
  -26.3740  -31.7960   25.1600 C   0  0  1  0  0  0  0  0  0  0  0  0
  -25.2680  -31.5590   26.2150 C   0  0  0  0  0  1  0  0  0  0  0  0
  -26.9700  -30.4190   24.7850 C   0  0  0  0  0  1  0  0  0  0  0  0
  -27.5130  -32.6000   25.8320 C   0  0  0  0  0  1  0  0  0  0  0  0
  1  5  1  0
  1 14  1  0
  2  5  1  0
  2 56  1  0
  3  2  2  0
  4  1  2  0
  5 10  1  0
  6  3  1  0
  7  3  1  0
  8  4  1  0
  9  4  1  0
 11 12  1  0
 13 14  1  0
 13 15  2  0
 14 11  2  0
 15 16  1  0
 16 12  2  0
 16 17  1  0
 18 26  1  0
 19 24  1  0
 20 21  1  0
 20 19  1  0
 22 21  1  0
 22 31  1  0
 22 23  1  0
 24 18  1  0
 24 23  1  0
 25 18  2  0
 26 15  1  0
 27 26  1  0
 28 29  2  0
 29 48  1  0
 30 29  1  0
 30 33  1  0
 31 32  1  0
 31 28  1  0
 32 30  2  0
 33 34  1  0
 34 35  2  0
 36 39  1  0
 36 35  1  0
 37 36  2  0
 38 37  1  0
 38 33  2  0
 39 40  1  0
 40 41  1  0
 41 42  2  0
 43 42  1  0
 43 47  1  0
 44 43  2  0
 45 40  2  0
 45 44  1  0
 46 45  1  0
 48 49  1  0
 49 52  1  0
 49 51  1  0
 50 48  2  0
 53 54  1  0
 53 28  1  0
 55 53  1  0
 57 56  1  0
 58 69  2  0
 59 57  1  0
 59 64  1  0
 60 68  1  0
 60 70  1  0
 61 67  1  0
 61 63  1  0
 62 68  1  0
 63 64  2  0
 63 62  1  0
 65 59  2  0
 66 65  1  0
 66 61  2  0
 67 60  1  0
 68 58  1  0
 70 72  2  0
 71 70  1  0
 73 71  1  0
 74 83  2  0
 74 79  1  0
 75 71  1  0
 75 79  1  0
 76 75  1  0
 77 78  1  0
 77 76  1  0
 78 74  1  0
 79 80  2  0
 80 81  1  0
 82 81  2  0
 83 82  1  0
 84 58  1  0
 84 85  1  0
 84 94  1  0
 85 88  1  0
 86 90  1  0
 86 85  1  0
 87 86  2  0
 90 89  1  0
 92 90  1  0
 92 93  1  0
 92 91  1  0
 94 97  1  1
 94 95  1  0
 96 94  1  0
M  ISO  4  18 100  26 100  56 101  57 101
M  END
>  <TORSDO>  (6) 
F 18

>  <SCORE>  (6) 
-14.688

>  <name>  (6) 
5

>  <ligand_id>  (6) 
5

>  <original_smiles>  (6) 
[H]c1c([H])c([H])c2c(c1[H])C([H])([H])C([H])([H])C([H])([H])C2([H])N([H])C(=O)C1([H])N(C(=O)C([H])(N([H])C(=O)C([H])(N([H])C([H])([H])[H])C([H])([H])[H])C(C([H])([H])[H])(C([H])([H])[H])C([H])([H])[H])C([H])([H])c2c([H])c(OC([H])([H])C(N([H])C(c3c([H])c([H])c(F)c(N([H])C(=O)N4C([H])([H])C([H])([H])C([H])([H])C([H])(n5nc(-c6c([H])c([H])c(Oc7c([H])c([H])c(F)c([H])c7F)c([H])c6[H])c(C(=O)N([H])[H])c5N([H])[H])C4([H])[H])c3[H])=[N+]([H])[H])=[N+]([H])[H])c([H])c([H])c2C1([H])[H]

>  <smiles>  (6) 
[H]c1c([H])c([H])c2c(c1[H])C([H])([H])C([H])([H])C([H])([H])C2([H])N([H])C(=O)C1([H])N(C(=O)C([H])(N([H])C(=O)C([H])(N([H])C([H])([H])[H])C([H])([H])[H])C(C([H])([H])[H])(C([H])([H])[H])C([H])([H])[H])C([H])([H])c2c([H])c(OC([H])([H])C(N([H])C(c3c([H])c([H])c(F)c(N([H])C(=O)N4C([H])([H])C([H])([H])C([H])([H])C([H])(n5nc(-c6c([H])c([H])c(Oc7c([H])c([H])c(F)c([H])c7F)c([H])c6[H])c(C(=O)N([H])[H])c5N([H])[H])C4([H])[H])c3[H])=[N+]([H])[H])=[N+]([H])[H])c([H])c([H])c2C1([H])[H]

$$$$
6:0:0
     RDKit          3D

100109  0  0  1  0  0  0  0  0999 V2000
  -31.2750  -19.3380   20.7170 C   0  0  0  0  0  3  0  0  0  0  0  0
  -31.2010  -17.9050   20.7300 C   0  0  0  0  0  3  0  0  0  0  0  0
  -29.0200  -19.4520   19.9560 C   0  0  0  0  0  3  0  0  0  0  0  0
  -30.1710  -20.1620   20.3390 C   0  0  0  0  0  0  0  0  0  0  0  0
  -30.0140  -17.1950   20.3860 C   0  0  0  0  0  0  0  0  0  0  0  0
  -28.9140  -18.0300   20.0080 C   0  0  0  0  0  0  0  0  0  0  0  0
  -30.6830  -14.6630   20.2010 C   0  0  0  0  0  0  0  0  0  0  0  0
  -30.4830  -12.4020   19.1690 C   0  0  0  0  0  2  0  0  0  0  0  0
  -29.4970  -12.4920   17.9830 C   0  0  0  0  0  2  0  0  0  0  0  0
  -28.0430  -12.3010   18.4630 C   0  0  0  0  0  2  0  0  0  0  0  0
  -27.7060  -13.1660   19.7060 C   0  0  0  0  0  3  0  0  0  0  0  0
  -28.8070  -13.0610   20.7860 C   0  0  0  0  0  2  0  0  0  0  0  0
  -30.0830  -13.4270   20.1550 N   0  0  0  0  0  0  0  0  0  0  0  0
  -31.8510  -14.8090   19.8250 O   0  0  0  0  0  0  0  0  0  0  0  0
  -29.8520  -15.7310   20.4640 N   0  0  0  0  0  0  0  0  0  0  0  0
  -28.9100  -15.4400   20.6690 H   0  0  0  0  0  0  0  0  0  0  0  0
  -25.3440  -13.7240   20.5370 C   0  0  0  0  0  0  0  0  0  0  0  0
  -24.2890  -12.9530   20.9270 C   0  0  0  0  0  0  0  0  0  0  0  0
  -24.7510  -11.6070   20.8400 C   0  0  0  0  0  0  0  0  0  0  0  0
  -26.3800  -12.8600   20.2390 N   0  0  0  0  0  0  0  0  0  0  0  0
  -26.0310  -11.5720   20.4820 N   0  0  0  0  0  0  0  0  0  0  0  0
  -24.0300  -10.3470   21.0220 C   0  0  0  0  0  0  0  0  0  0  0  0
  -24.4760   -9.3670   21.9350 C   0  0  0  0  0  3  0  0  0  0  0  0
  -23.7520   -8.1680   22.1040 C   0  0  0  0  0  3  0  0  0  0  0  0
  -22.5700   -7.9440   21.3600 C   0  0  0  0  0  0  0  0  0  0  0  0
  -22.1430   -8.9130   20.4360 C   0  0  0  0  0  3  0  0  0  0  0  0
  -22.8670  -10.1040   20.2640 C   0  0  0  0  0  3  0  0  0  0  0  0
  -21.8180   -6.7980   21.4410 O   0  0  0  0  0  0  0  0  0  0  0  0
  -21.7450   -6.0670   22.5990 C   0  0  0  0  0  0  0  0  0  0  0  0
  -21.2910   -6.6330   23.8100 C   0  0  0  0  0  3  0  0  0  0  0  0
  -21.1670   -5.8280   24.9590 C   0  0  0  0  0  3  0  0  0  0  0  0
  -21.4860   -4.4580   24.9000 C   0  0  0  0  0  0  0  0  0  0  0  0
  -21.9340   -3.8920   23.6930 C   0  0  0  0  0  3  0  0  0  0  0  0
  -22.0610   -4.6940   22.5450 C   0  0  0  0  0  0  0  0  0  0  0  0
  -22.4740   -4.1400   21.3800 F   0  0  0  0  0  0  0  0  0  0  0  0
  -21.3580   -3.6830   26.0010 F   0  0  0  0  0  0  0  0  0  0  0  0
  -22.9080  -13.4360   21.2660 C   0  0  0  0  0  0  0  0  0  0  0  0
  -22.2130  -12.7280   22.1480 N   0  0  0  0  0  0  0  0  0  0  0  0
  -22.4560  -14.4750   20.7860 O   0  0  0  0  0  0  0  0  0  0  0  0
  -22.5910  -11.8880   22.5590 H   0  0  0  0  0  0  0  0  0  0  0  0
  -21.2880  -13.0320   22.4180 H   0  0  0  0  0  0  0  0  0  0  0  0
  -25.5010  -15.0830   20.3870 N   0  0  0  0  0  0  0  0  0  0  0  0
  -24.7450  -15.7410   20.5470 H   0  0  0  0  0  0  0  0  0  0  0  0
  -26.3600  -15.5130   20.0860 H   0  0  0  0  0  0  0  0  0  0  0  0
  -30.9900  -22.4880   20.9470 C   0  0  0  0  0  0  0  0  0  0  0  0
  -28.9870  -22.4450   19.8460 C   0  0  0  0  0  2  0  0  0  0  0  0
  -29.3830  -23.9630   19.8530 C   0  0  0  0  0  3  0  0  0  0  0  0
  -30.5220  -23.9710   20.9020 C   0  0  1  0  0  0  0  0  0  0  0  0
  -30.0360  -24.3800   22.3100 C   0  0  0  0  0  1  0  0  0  0  0  0
  -31.6770  -24.8980   20.4670 C   0  0  0  0  0  1  0  0  0  0  0  0
  -30.1370  -21.6390   20.3300 N   0  0  0  0  0  0  0  0  0  0  0  0
  -32.0450  -22.1680   21.5060 O   0  0  0  0  0  0  0  0  0  0  0  0
  -28.1660  -24.9870   19.9810 C   0  0  0  0  0  2  0  0  0  0  0  0
  -28.3550  -26.4470   19.8490 O   0  0  0  0  0  0  0  0  0  0  0  0
  -24.6160  -31.7190   23.0730 C   0  0  0  0  0  0  0  0  0  0  0  0
  -27.2070  -27.2610   19.8610 C   0  0  0  0  0  0  0  0  0  0  0  0
  -23.3900  -30.3640   21.4120 C   0  0  0  0  0  3  0  0  0  0  0  0
  -24.8250  -28.8530   19.9330 C   0  0  0  0  0  0  0  0  0  0  0  0
  -25.9260  -30.6930   21.2050 C   0  0  0  0  0  2  0  0  0  0  0  0
  -26.0000  -29.3330   20.5230 C   0  0  0  0  0  0  0  0  0  0  0  0
  -27.1920  -28.5500   20.4780 C   0  0  0  0  0  3  0  0  0  0  0  0
  -26.0030  -26.8340   19.2500 C   0  0  0  0  0  3  0  0  0  0  0  0
  -24.8270  -27.6070   19.2890 C   0  0  0  0  0  3  0  0  0  0  0  0
  -23.5870  -29.7220   20.0140 C   0  0  0  0  0  2  0  0  0  0  0  0
  -24.6640  -30.9400   21.9530 N   0  0  0  0  0  0  0  0  0  0  0  0
  -23.5400  -31.9840   23.6290 O   0  0  0  0  0  0  0  0  0  0  0  0
  -22.7390  -29.3230   22.3530 C   0  0  0  0  0  0  0  0  0  0  0  0
  -21.4070  -29.1760   22.2620 N   0  0  0  0  0  0  0  0  0  0  0  0
  -23.4300  -28.6530   23.1250 O   0  0  0  0  0  0  0  0  0  0  0  0
  -20.9080  -29.7680   21.6120 H   0  0  0  0  0  0  0  0  0  0  0  0
  -18.0220  -28.0360   22.8320 C   0  0  0  0  0  0  0  0  0  0  0  0
  -20.5930  -28.2260   23.0220 C   0  0  0  0  0  3  0  0  0  0  0  0
  -20.6410  -26.8170   22.3860 C   0  0  0  0  0  2  0  0  0  0  0  0
  -19.4970  -26.5620   21.3990 C   0  0  0  0  0  2  0  0  0  0  0  0
  -18.1420  -26.7120   22.0960 C   0  0  0  0  0  2  0  0  0  0  0  0
  -19.1720  -28.7540   23.2520 C   0  0  0  0  0  0  0  0  0  0  0  0
  -19.0040  -29.9960   23.9020 C   0  0  0  0  0  3  0  0  0  0  0  0
  -17.7180  -30.5200   24.1340 C   0  0  0  0  0  3  0  0  0  0  0  0
  -16.5820  -29.7980   23.7290 C   0  0  0  0  0  3  0  0  0  0  0  0
  -16.7350  -28.5570   23.0840 C   0  0  0  0  0  3  0  0  0  0  0  0
  -25.9080  -32.3330   23.6960 C   0  0  0  0  0  3  0  0  0  0  0  0
  -26.4540  -31.5130   24.9280 C   0  0  1  0  0  0  0  0  0  0  0  0
  -25.3870  -31.2380   26.0140 C   0  0  0  0  0  1  0  0  0  0  0  0
  -27.0210  -30.1490   24.4710 C   0  0  0  0  0  1  0  0  0  0  0  0
  -27.6230  -32.2780   25.5900 C   0  0  0  0  0  1  0  0  0  0  0  0
  -25.5970  -33.7140   24.0890 N   0  0  0  0  0  0  0  0  0  0  0  0
  -25.8960  -34.7990   23.3610 C   0  0  0  0  0  0  0  0  0  0  0  0
  -26.5310  -34.7410   22.3050 O   0  0  0  0  0  0  0  0  0  0  0  0
  -25.0280  -33.8320   24.9140 H   0  0  0  0  0  0  0  0  0  0  0  0
  -24.1320  -36.5800   23.1460 C   0  0  0  0  0  1  0  0  0  0  0  0
  -25.4120  -36.1640   23.8880 C   0  0  0  0  0  3  0  0  0  0  0  0
  -27.5710  -37.0480   24.6550 C   0  0  0  0  0  1  0  0  0  0  0  0
  -26.4260  -37.2340   23.7670 N   0  0  0  0  0  0  0  0  0  0  0  0
  -26.0160  -38.1420   23.9640 H   0  0  0  0  0  0  0  0  0  0  0  0
  -26.4960  -18.0210   20.0270 C   0  0  0  0  0  0  0  0  0  0  0  0
  -27.6640  -17.5070   19.5960 N   0  0  0  0  0  0  0  0  0  0  0  0
  -26.3410  -18.4480   21.1740 O   0  0  0  0  0  0  0  0  0  0  0  0
  -27.6610  -17.0700   18.6850 H   0  0  0  0  0  0  0  0  0  0  0  0
  -24.2030  -18.3510   19.2830 C   0  0  0  0  0  2  0  0  0  0  0  0
  -25.4670  -17.9850   19.0020 C   0  0  0  0  0  3  0  0  0  0  0  0
  1  2  1  0
  3  6  2  0
  3  4  1  0
  4  1  2  0
  5 15  1  0
  5  2  2  0
  6  5  1  0
  7 15  1  0
  8 13  1  0
  9 10  1  0
  9  8  1  0
 11 10  1  0
 11 20  1  0
 11 12  1  0
 13  7  1  0
 13 12  1  0
 14  7  2  0
 15 16  1  0
 17 18  2  0
 18 37  1  0
 19 18  1  0
 19 22  1  0
 20 21  1  0
 20 17  1  0
 21 19  2  0
 22 23  1  0
 23 24  2  0
 25 28  1  0
 25 24  1  0
 26 25  2  0
 27 26  1  0
 27 22  2  0
 28 29  1  0
 29 30  1  0
 30 31  2  0
 32 31  1  0
 32 36  1  0
 33 32  2  0
 34 29  2  0
 34 33  1  0
 35 34  1  0
 37 38  1  0
 38 41  1  0
 38 40  1  0
 39 37  2  0
 42 17  1  0
 42 43  1  0
 44 42  1  0
 45 52  2  0
 46 47  1  0
 46 51  1  0
 47 53  1  0
 47 48  1  0
 48 45  1  0
 48 49  1  1
 50 48  1  0
 51  4  1  0
 51 45  1  0
 54 56  1  0
 54 53  1  0
 55 66  2  0
 56 61  1  0
 57 65  1  0
 57 67  1  0
 58 64  1  0
 58 60  1  0
 59 65  1  0
 60 59  1  0
 61 60  2  0
 62 63  1  0
 62 56  2  0
 63 58  2  0
 64 57  1  0
 65 55  1  0
 67 69  2  0
 68 67  1  0
 70 68  1  0
 71 80  2  0
 71 76  1  0
 72 68  1  0
 72 76  1  0
 73 72  1  0
 74 75  1  0
 74 73  1  0
 75 71  1  0
 76 77  2  0
 77 78  1  0
 79 78  2  0
 80 79  1  0
 81 55  1  0
 81 86  1  0
 81 82  1  0
 82 85  1  1
 82 83  1  0
 84 82  1  0
 86 89  1  0
 87 91  1  0
 87 86  1  0
 88 87  2  0
 91 90  1  0
 93 91  1  0
 93 94  1  0
 93 92  1  0
 95 97  2  0
 96  6  1  0
 96 95  1  0
 98 96  1  0
100 99  2  0
100 95  1  0
M  ISO  4   7 100  15 100  53 101  54 101
M  END
>  <TORSDO>  (7) 
F 20

>  <SCORE>  (7) 
-11.051

>  <name>  (7) 
6

>  <ligand_id>  (7) 
6

>  <original_smiles>  (7) 
[H]C([H])=C([H])C(=O)N([H])c1c([H])c(N2C(=O)C(C([H])([H])[H])(C([H])([H])[H])C([H])(C([H])([H])Oc3c([H])c([H])c4c(c3[H])C([H])([H])N(C(=O)C([H])(N([H])C(=O)C([H])(N([H])C([H])([H])[H])C([H])([H])[H])C(C([H])([H])[H])(C([H])([H])[H])C([H])([H])[H])C([H])(C(=O)N([H])C3([H])c5c([H])c([H])c([H])c([H])c5C([H])([H])C([H])([H])C3([H])[H])C4([H])[H])C2([H])[H])c([H])c([H])c1N([H])C(=O)N1C([H])([H])C([H])([H])C([H])([H])C([H])(n2nc(-c3c([H])c([H])c(Oc4c([H])c([H])c(F)c([H])c4F)c([H])c3[H])c(C(=O)N([H])[H])c2N([H])[H])C1([H])[H]

>  <smiles>  (7) 
[H]C([H])=C([H])C(=O)N([H])c1c([H])c(N2C(=O)C(C([H])([H])[H])(C([H])([H])[H])C([H])(C([H])([H])Oc3c([H])c([H])c4c(c3[H])C([H])([H])N(C(=O)C([H])(N([H])C(=O)C([H])(N([H])C([H])([H])[H])C([H])([H])[H])C(C([H])([H])[H])(C([H])([H])[H])C([H])([H])[H])C([H])(C(=O)N([H])C3([H])c5c([H])c([H])c([H])c([H])c5C([H])([H])C([H])([H])C3([H])[H])C4([H])[H])C2([H])[H])c([H])c([H])c1N([H])C(=O)N1C([H])([H])C([H])([H])C([H])([H])C([H])(n2nc(-c3c([H])c([H])c(Oc4c([H])c([H])c(F)c([H])c4F)c([H])c3[H])c(C(=O)N([H])[H])c2N([H])[H])C1([H])[H]

$$$$
7:0:0
     RDKit          3D

 94103  0  0  1  0  0  0  0  0999 V2000
  -30.0070  -22.7190   22.4230 C   0  0  0  0  0  3  0  0  0  0  0  0
  -29.5030  -23.8060   21.8070 C   0  0  0  0  0  3  0  0  0  0  0  0
  -30.2010  -21.4220   21.7680 C   0  0  0  0  0  0  0  0  0  0  0  0
  -28.6370  -22.2880   20.0320 C   0  0  0  0  0  2  0  0  0  0  0  0
  -29.0740  -23.8010   20.3650 C   0  0  0  0  0  3  0  0  0  0  0  0
  -29.4320  -21.1350   20.6700 N   0  0  0  0  0  0  0  0  0  0  0  0
  -31.0570  -20.6460   22.2020 O   0  0  0  0  0  0  0  0  0  0  0  0
  -29.2010  -19.5880   18.7100 C   0  0  0  0  0  3  0  0  0  0  0  0
  -29.5190  -17.1540   18.7850 C   0  0  0  0  0  3  0  0  0  0  0  0
  -29.6720  -18.4830   20.8160 C   0  0  0  0  0  3  0  0  0  0  0  0
  -29.2310  -18.3320   18.0690 C   0  0  0  0  0  0  0  0  0  0  0  0
  -29.4370  -19.7400   20.0970 C   0  0  0  0  0  0  0  0  0  0  0  0
  -29.7440  -17.1800   20.1760 C   0  0  0  0  0  0  0  0  0  0  0  0
  -28.9240  -18.2520   16.5880 C   0  0  0  0  0  1  0  0  0  0  0  0
  -30.5950  -14.7640   20.4200 C   0  0  0  0  0  0  0  0  0  0  0  0
  -30.3680  -12.5080   19.3880 C   0  0  0  0  0  2  0  0  0  0  0  0
  -29.4540  -12.6380   18.1480 C   0  0  0  0  0  2  0  0  0  0  0  0
  -27.9720  -12.4840   18.5590 C   0  0  0  0  0  2  0  0  0  0  0  0
  -27.6050  -13.3400   19.8020 C   0  0  0  0  0  3  0  0  0  0  0  0
  -28.6500  -13.2100   20.9330 C   0  0  0  0  0  2  0  0  0  0  0  0
  -29.9630  -13.5440   20.3660 N   0  0  0  0  0  0  0  0  0  0  0  0
  -31.7470  -14.8780   19.9920 O   0  0  0  0  0  0  0  0  0  0  0  0
  -29.8890  -15.8730   20.8520 N   0  0  0  0  0  0  0  0  0  0  0  0
  -29.1180  -15.6430   21.4630 H   0  0  0  0  0  0  0  0  0  0  0  0
  -25.2070  -13.9400   20.5010 C   0  0  0  0  0  0  0  0  0  0  0  0
  -24.1350  -13.1720   20.8680 C   0  0  0  0  0  0  0  0  0  0  0  0
  -24.5950  -11.8190   20.8470 C   0  0  0  0  0  0  0  0  0  0  0  0
  -26.2500  -13.0570   20.2750 N   0  0  0  0  0  0  0  0  0  0  0  0
  -25.8880  -11.7760   20.5450 N   0  0  0  0  0  0  0  0  0  0  0  0
  -23.8650  -10.5590   21.0430 C   0  0  0  0  0  0  0  0  0  0  0  0
  -24.2970   -9.5860   21.9700 C   0  0  0  0  0  3  0  0  0  0  0  0
  -23.5620   -8.3940   22.1500 C   0  0  0  0  0  3  0  0  0  0  0  0
  -22.3810   -8.1670   21.4010 C   0  0  0  0  0  0  0  0  0  0  0  0
  -21.9710   -9.1300   20.4620 C   0  0  0  0  0  3  0  0  0  0  0  0
  -22.7080  -10.3110   20.2800 C   0  0  0  0  0  3  0  0  0  0  0  0
  -21.6170   -7.0290   21.4910 O   0  0  0  0  0  0  0  0  0  0  0  0
  -21.5760   -6.2770   22.6400 C   0  0  0  0  0  0  0  0  0  0  0  0
  -21.1810   -6.8270   23.8770 C   0  0  0  0  0  3  0  0  0  0  0  0
  -21.0840   -6.0020   25.0160 C   0  0  0  0  0  3  0  0  0  0  0  0
  -21.3780   -4.6290   24.9190 C   0  0  0  0  0  0  0  0  0  0  0  0
  -21.7700   -4.0790   23.6860 C   0  0  0  0  0  3  0  0  0  0  0  0
  -21.8650   -4.9010   22.5480 C   0  0  0  0  0  0  0  0  0  0  0  0
  -22.2210   -4.3600   21.3560 F   0  0  0  0  0  0  0  0  0  0  0  0
  -21.2830   -3.8340   26.0120 F   0  0  0  0  0  0  0  0  0  0  0  0
  -22.7370  -13.6580   21.1290 C   0  0  0  0  0  0  0  0  0  0  0  0
  -22.0000  -12.9700   21.9940 N   0  0  0  0  0  0  0  0  0  0  0  0
  -22.3080  -14.6840   20.6040 O   0  0  0  0  0  0  0  0  0  0  0  0
  -22.3610  -12.1430   22.4450 H   0  0  0  0  0  0  0  0  0  0  0  0
  -21.0620  -13.2780   22.2140 H   0  0  0  0  0  0  0  0  0  0  0  0
  -25.3840  -15.3080   20.3170 N   0  0  0  0  0  0  0  0  0  0  0  0
  -24.6340  -15.9750   20.4420 H   0  0  0  0  0  0  0  0  0  0  0  0
  -26.2510  -15.7340   20.0150 H   0  0  0  0  0  0  0  0  0  0  0  0
  -28.0510  -24.9950   19.9970 C   0  0  0  0  0  2  0  0  0  0  0  0
  -28.2880  -26.4510   20.2760 O   0  0  0  0  0  0  0  0  0  0  0  0
  -24.6110  -31.9600   23.2560 C   0  0  0  0  0  0  0  0  0  0  0  0
  -27.1850  -27.3390   20.2180 C   0  0  0  0  0  0  0  0  0  0  0  0
  -23.3970  -30.5600   21.6280 C   0  0  0  0  0  3  0  0  0  0  0  0
  -24.8350  -28.9900   20.2090 C   0  0  0  0  0  0  0  0  0  0  0  0
  -25.9400  -30.8580   21.4350 C   0  0  0  0  0  2  0  0  0  0  0  0
  -26.0130  -29.4700   20.7970 C   0  0  0  0  0  0  0  0  0  0  0  0
  -27.1900  -28.6560   20.7910 C   0  0  0  0  0  3  0  0  0  0  0  0
  -25.9770  -26.9260   19.6070 C   0  0  0  0  0  3  0  0  0  0  0  0
  -24.8180  -27.7230   19.6110 C   0  0  0  0  0  3  0  0  0  0  0  0
  -23.6060  -29.8730   20.2530 C   0  0  0  0  0  2  0  0  0  0  0  0
  -24.6700  -31.1460   22.1640 N   0  0  0  0  0  0  0  0  0  0  0  0
  -23.5300  -32.2500   23.7890 O   0  0  0  0  0  0  0  0  0  0  0  0
  -22.7260  -29.5560   22.5980 C   0  0  0  0  0  0  0  0  0  0  0  0
  -21.3970  -29.3830   22.4720 N   0  0  0  0  0  0  0  0  0  0  0  0
  -23.4000  -28.9320   23.4230 O   0  0  0  0  0  0  0  0  0  0  0  0
  -20.9130  -29.9450   21.7850 H   0  0  0  0  0  0  0  0  0  0  0  0
  -18.0170  -28.1870   22.9710 C   0  0  0  0  0  0  0  0  0  0  0  0
  -20.5740  -28.4530   23.2470 C   0  0  0  0  0  3  0  0  0  0  0  0
  -20.6800  -27.0150   22.6880 C   0  0  0  0  0  2  0  0  0  0  0  0
  -19.5820  -26.6770   21.6740 C   0  0  0  0  0  2  0  0  0  0  0  0
  -18.1980  -26.8310   22.3110 C   0  0  0  0  0  2  0  0  0  0  0  0
  -19.1320  -28.9550   23.3970 C   0  0  0  0  0  0  0  0  0  0  0  0
  -18.9120  -30.2240   23.9750 C   0  0  0  0  0  3  0  0  0  0  0  0
  -17.6070  -30.7250   24.1320 C   0  0  0  0  0  3  0  0  0  0  0  0
  -16.5040  -29.9550   23.7230 C   0  0  0  0  0  3  0  0  0  0  0  0
  -16.7100  -28.6870   23.1500 C   0  0  0  0  0  3  0  0  0  0  0  0
  -25.8960  -32.5940   23.8760 C   0  0  0  0  0  3  0  0  0  0  0  0
  -25.5920  -33.9930   24.2090 N   0  0  0  0  0  0  0  0  0  0  0  0
  -25.9070  -35.0450   23.4430 C   0  0  0  0  0  0  0  0  0  0  0  0
  -26.5580  -34.9410   22.3990 O   0  0  0  0  0  0  0  0  0  0  0  0
  -25.0180  -34.1460   25.0260 H   0  0  0  0  0  0  0  0  0  0  0  0
  -24.1680  -36.8340   23.1300 C   0  0  0  0  0  1  0  0  0  0  0  0
  -25.4300  -36.4360   23.9100 C   0  0  0  0  0  3  0  0  0  0  0  0
  -27.5850  -37.3230   24.6830 C   0  0  0  0  0  1  0  0  0  0  0  0
  -26.4600  -37.4900   23.7670 N   0  0  0  0  0  0  0  0  0  0  0  0
  -26.0550  -38.4100   23.9240 H   0  0  0  0  0  0  0  0  0  0  0  0
  -26.4140  -31.8260   25.1520 C   0  0  1  0  0  0  0  0  0  0  0  0
  -25.3230  -31.5900   26.2240 C   0  0  0  0  0  1  0  0  0  0  0  0
  -26.9920  -30.4490   24.7590 C   0  0  0  0  0  1  0  0  0  0  0  0
  -27.5690  -32.6180   25.8090 C   0  0  0  0  0  1  0  0  0  0  0  0
  2  1  2  0
  3  7  2  0
  3  1  1  0
  4  5  1  0
  4  6  1  0
  5 53  1  0
  5  2  1  0
  6  3  1  0
  8 12  1  0
  9 13  2  0
 11  8  2  0
 11  9  1  0
 12  6  1  0
 12 10  2  0
 13 10  1  0
 13 23  1  0
 14 11  1  0
 15 23  1  0
 16 21  1  0
 17 18  1  0
 17 16  1  0
 19 18  1  0
 19 28  1  0
 19 20  1  0
 21 15  1  0
 21 20  1  0
 22 15  2  0
 23 24  1  0
 25 26  2  0
 26 45  1  0
 27 26  1  0
 27 30  1  0
 28 25  1  0
 28 29  1  0
 29 27  2  0
 30 31  1  0
 31 32  2  0
 33 36  1  0
 33 32  1  0
 34 33  2  0
 35 34  1  0
 35 30  2  0
 36 37  1  0
 37 38  1  0
 38 39  2  0
 40 39  1  0
 40 44  1  0
 41 40  2  0
 42 37  2  0
 42 41  1  0
 43 42  1  0
 45 46  1  0
 46 49  1  0
 46 48  1  0
 47 45  2  0
 50 51  1  0
 50 25  1  0
 52 50  1  0
 53 54  1  0
 55 66  2  0
 56 54  1  0
 56 61  1  0
 57 65  1  0
 57 67  1  0
 58 64  1  0
 58 60  1  0
 59 65  1  0
 60 59  1  0
 61 60  2  0
 62 63  1  0
 62 56  2  0
 63 58  2  0
 64 57  1  0
 65 55  1  0
 67 69  2  0
 68 67  1  0
 70 68  1  0
 71 80  2  0
 71 76  1  0
 72 68  1  0
 72 76  1  0
 73 72  1  0
 74 75  1  0
 74 73  1  0
 75 71  1  0
 76 77  2  0
 77 78  1  0
 79 78  2  0
 80 79  1  0
 81 55  1  0
 81 82  1  0
 81 91  1  0
 82 85  1  0
 83 87  1  0
 83 82  1  0
 84 83  2  0
 87 86  1  0
 89 87  1  0
 89 90  1  0
 89 88  1  0
 91 94  1  1
 91 92  1  0
 93 91  1  0
M  ISO  4  15 100  23 100  53 101  54 101
M  END
>  <TORSDO>  (8) 
F 18

>  <SCORE>  (8) 
-14.852

>  <name>  (8) 
7

>  <ligand_id>  (8) 
7

>  <original_smiles>  (8) 
[H]C1=C([H])C([H])(C([H])([H])Oc2c([H])c([H])c3c(c2[H])C([H])([H])N(C(=O)C([H])(N([H])C(=O)C([H])(N([H])C([H])([H])[H])C([H])([H])[H])C(C([H])([H])[H])(C([H])([H])[H])C([H])([H])[H])C([H])(C(=O)N([H])C2([H])c4c([H])c([H])c([H])c([H])c4C([H])([H])C([H])([H])C2([H])[H])C3([H])[H])C([H])([H])N(c2c([H])c(N([H])C(=O)N3C([H])([H])C([H])([H])C([H])([H])C([H])(n4nc(-c5c([H])c([H])c(Oc6c([H])c([H])c(F)c([H])c6F)c([H])c5[H])c(C(=O)N([H])[H])c4N([H])[H])C3([H])[H])c([H])c(C([H])([H])[H])c2[H])C1=O

>  <smiles>  (8) 
[H]C1=C([H])C([H])(C([H])([H])Oc2c([H])c([H])c3c(c2[H])C([H])([H])N(C(=O)C([H])(N([H])C(=O)C([H])(N([H])C([H])([H])[H])C([H])([H])[H])C(C([H])([H])[H])(C([H])([H])[H])C([H])([H])[H])C([H])(C(=O)N([H])C2([H])c4c([H])c([H])c([H])c([H])c4C([H])([H])C([H])([H])C2([H])[H])C3([H])[H])C([H])([H])N(c2c([H])c(N([H])C(=O)N3C([H])([H])C([H])([H])C([H])([H])C([H])(n4nc(-c5c([H])c([H])c(Oc6c([H])c([H])c(F)c([H])c6F)c([H])c5[H])c(C(=O)N([H])[H])c4N([H])[H])C3([H])[H])c([H])c(C([H])([H])[H])c2[H])C1=O

$$$$
8:0:0
     RDKit          3D

 97105  0  0  1  0  0  0  0  0999 V2000
  -29.5180  -21.5650   21.0720 C   0  0  0  0  0  0  0  0  0  0  0  0
  -29.5580  -21.8930   22.3670 N   0  0  0  0  0  4  0  0  0  0  0  0
  -29.3280  -22.6130   20.2020 N   0  0  0  0  0  0  0  0  0  0  0  0
  -29.7020  -21.1720   23.0580 H   0  0  0  0  0  0  0  0  0  0  0  0
  -29.3970  -22.8320   22.6830 H   0  0  0  0  0  0  0  0  0  0  0  0
  -29.3410  -22.3550   19.2230 H   0  0  0  0  0  0  0  0  0  0  0  0
  -28.7590  -19.1710   21.3920 C   0  0  0  0  0  3  0  0  0  0  0  0
  -28.8970  -17.7600   21.2770 C   0  0  0  0  0  3  0  0  0  0  0  0
  -30.8460  -18.0510   19.9020 C   0  0  0  0  0  3  0  0  0  0  0  0
  -29.6510  -20.0790   20.7630 C   0  0  0  0  0  0  0  0  0  0  0  0
  -29.9490  -17.1510   20.5480 C   0  0  0  0  0  0  0  0  0  0  0  0
  -30.6990  -19.4790   20.0010 C   0  0  0  0  0  0  0  0  0  0  0  0
  -31.6150  -20.2710   19.3910 F   0  0  0  0  0  0  0  0  0  0  0  0
  -30.7300  -14.7270   19.8970 C   0  0  0  0  0  0  0  0  0  0  0  0
  -30.4630  -12.5340   18.7380 C   0  0  0  0  0  2  0  0  0  0  0  0
  -29.4170  -12.7070   17.6130 C   0  0  0  0  0  2  0  0  0  0  0  0
  -27.9790  -12.5390   18.1510 C   0  0  0  0  0  2  0  0  0  0  0  0
  -27.7300  -13.3430   19.4550 C   0  0  0  0  0  3  0  0  0  0  0  0
  -28.8720  -13.1120   20.4690 C   0  0  0  0  0  2  0  0  0  0  0  0
  -30.1340  -13.4940   19.8110 N   0  0  0  0  0  0  0  0  0  0  0  0
  -31.8260  -14.9560   19.3730 O   0  0  0  0  0  0  0  0  0  0  0  0
  -29.9610  -15.6860   20.4980 N   0  0  0  0  0  0  0  0  0  0  0  0
  -29.1650  -15.2640   20.9480 H   0  0  0  0  0  0  0  0  0  0  0  0
  -25.4100  -13.9280   20.3910 C   0  0  0  0  0  0  0  0  0  0  0  0
  -24.3690  -13.1460   20.8130 C   0  0  0  0  0  0  0  0  0  0  0  0
  -24.8130  -11.7940   20.6860 C   0  0  0  0  0  0  0  0  0  0  0  0
  -26.4220  -13.0510   20.0320 N   0  0  0  0  0  0  0  0  0  0  0  0
  -26.0720  -11.7610   20.2650 N   0  0  0  0  0  0  0  0  0  0  0  0
  -24.0930  -10.5300   20.8820 C   0  0  0  0  0  0  0  0  0  0  0  0
  -24.5280   -9.5700   21.8220 C   0  0  0  0  0  3  0  0  0  0  0  0
  -23.8090   -8.3710   22.0070 C   0  0  0  0  0  3  0  0  0  0  0  0
  -22.6380   -8.1210   21.2520 C   0  0  0  0  0  0  0  0  0  0  0  0
  -22.2200   -9.0700   20.3030 C   0  0  0  0  0  3  0  0  0  0  0  0
  -22.9400  -10.2630   20.1160 C   0  0  0  0  0  3  0  0  0  0  0  0
  -21.8910   -6.9720   21.3450 O   0  0  0  0  0  0  0  0  0  0  0  0
  -21.7510   -6.3000   22.5330 C   0  0  0  0  0  0  0  0  0  0  0  0
  -21.1870   -6.9120   23.6750 C   0  0  0  0  0  3  0  0  0  0  0  0
  -20.9970   -6.1640   24.8520 C   0  0  0  0  0  3  0  0  0  0  0  0
  -21.3580   -4.8040   24.8900 C   0  0  0  0  0  0  0  0  0  0  0  0
  -21.9130   -4.1910   23.7530 C   0  0  0  0  0  3  0  0  0  0  0  0
  -22.1060   -4.9360   22.5770 C   0  0  0  0  0  0  0  0  0  0  0  0
  -22.6210   -4.3360   21.4790 F   0  0  0  0  0  0  0  0  0  0  0  0
  -21.1660   -4.0830   26.0190 F   0  0  0  0  0  0  0  0  0  0  0  0
  -23.0030  -13.6210   21.2180 C   0  0  0  0  0  0  0  0  0  0  0  0
  -22.3460  -12.9020   22.1190 N   0  0  0  0  0  0  0  0  0  0  0  0
  -22.5310  -14.6670   20.7680 O   0  0  0  0  0  0  0  0  0  0  0  0
  -22.7390  -12.0540   22.5000 H   0  0  0  0  0  0  0  0  0  0  0  0
  -21.4330  -13.2000   22.4330 H   0  0  0  0  0  0  0  0  0  0  0  0
  -25.5700  -15.3030   20.2590 N   0  0  0  0  0  0  0  0  0  0  0  0
  -24.8080  -15.9450   20.4440 H   0  0  0  0  0  0  0  0  0  0  0  0
  -26.3650  -15.7490   19.8170 H   0  0  0  0  0  0  0  0  0  0  0  0
  -29.4560  -24.1160   20.4850 C   0  0  0  0  0  3  0  0  0  0  0  0
  -30.8600  -24.5550   20.0320 C   0  0  0  0  0  0  0  0  0  0  0  0
  -31.4370  -25.8280   20.6350 C   0  0  0  0  0  1  0  0  0  0  0  0
  -31.5240  -23.9210   19.2080 O   0  0  0  0  0  0  0  0  0  0  0  0
  -28.3650  -25.0920   19.8500 C   0  0  0  0  0  2  0  0  0  0  0  0
  -28.4640  -26.5460   20.1420 O   0  0  0  0  0  0  0  0  0  0  0  0
  -24.5220  -31.7260   23.2140 C   0  0  0  0  0  0  0  0  0  0  0  0
  -27.3170  -27.3520   20.0690 C   0  0  0  0  0  0  0  0  0  0  0  0
  -23.3850  -30.3420   21.5160 C   0  0  0  0  0  3  0  0  0  0  0  0
  -24.9030  -28.8850   20.0610 C   0  0  0  0  0  0  0  0  0  0  0  0
  -25.9130  -30.7520   21.3710 C   0  0  0  0  0  2  0  0  0  0  0  0
  -26.0460  -29.3960   20.6890 C   0  0  0  0  0  0  0  0  0  0  0  0
  -27.2570  -28.6410   20.6820 C   0  0  0  0  0  3  0  0  0  0  0  0
  -26.1560  -26.8970   19.4090 C   0  0  0  0  0  3  0  0  0  0  0  0
  -24.9610  -27.6430   19.4090 C   0  0  0  0  0  3  0  0  0  0  0  0
  -23.6350  -29.7170   20.1180 C   0  0  0  0  0  2  0  0  0  0  0  0
  -24.6250  -30.9560   22.0910 N   0  0  0  0  0  0  0  0  0  0  0  0
  -23.4250  -31.9490   23.7420 O   0  0  0  0  0  0  0  0  0  0  0  0
  -22.7450  -29.2730   22.4350 C   0  0  0  0  0  0  0  0  0  0  0  0
  -21.4310  -29.0430   22.2720 N   0  0  0  0  0  0  0  0  0  0  0  0
  -23.4300  -28.6540   23.2530 O   0  0  0  0  0  0  0  0  0  0  0  0
  -20.9340  -29.5940   21.5860 H   0  0  0  0  0  0  0  0  0  0  0  0
  -18.0890  -27.7210   22.6790 C   0  0  0  0  0  0  0  0  0  0  0  0
  -20.6340  -28.0570   23.0020 C   0  0  0  0  0  3  0  0  0  0  0  0
  -20.7920  -26.6470   22.3860 C   0  0  0  0  0  2  0  0  0  0  0  0
  -19.7170  -26.3210   21.3430 C   0  0  0  0  0  2  0  0  0  0  0  0
  -18.3210  -26.3990   21.9660 C   0  0  0  0  0  2  0  0  0  0  0  0
  -19.1740  -28.5070   23.1500 C   0  0  0  0  0  0  0  0  0  0  0  0
  -18.9000  -29.7450   23.7730 C   0  0  0  0  0  3  0  0  0  0  0  0
  -17.5750  -30.1940   23.9300 C   0  0  0  0  0  3  0  0  0  0  0  0
  -16.5050  -29.4040   23.4730 C   0  0  0  0  0  3  0  0  0  0  0  0
  -16.7640  -28.1690   22.8530 C   0  0  0  0  0  3  0  0  0  0  0  0
  -25.7760  -32.3770   23.8730 C   0  0  0  0  0  3  0  0  0  0  0  0
  -26.2510  -31.6270   25.1780 C   0  0  1  0  0  0  0  0  0  0  0  0
  -25.1200  -31.3840   26.2060 C   0  0  0  0  0  1  0  0  0  0  0  0
  -26.8680  -30.2550   24.8200 C   0  0  0  0  0  1  0  0  0  0  0  0
  -27.3670  -32.4430   25.8730 C   0  0  0  0  0  1  0  0  0  0  0  0
  -25.4430  -33.7760   24.1740 N   0  0  0  0  0  0  0  0  0  0  0  0
  -25.7700  -34.8200   23.3990 C   0  0  0  0  0  0  0  0  0  0  0  0
  -26.4550  -34.7060   22.3790 O   0  0  0  0  0  0  0  0  0  0  0  0
  -24.8380  -33.9380   24.9650 H   0  0  0  0  0  0  0  0  0  0  0  0
  -24.0050  -36.5680   23.0030 C   0  0  0  0  0  1  0  0  0  0  0  0
  -25.2550  -36.2090   23.8240 C   0  0  0  0  0  3  0  0  0  0  0  0
  -27.3710  -37.1560   24.6310 C   0  0  0  0  0  1  0  0  0  0  0  0
  -26.2660  -37.2820   23.6850 N   0  0  0  0  0  0  0  0  0  0  0  0
  -25.8390  -38.1950   23.8170 H   0  0  0  0  0  0  0  0  0  0  0  0
  1  2  2  0
  2  5  1  0
  2  4  1  0
  3 52  1  0
  3  1  1  0
  6  3  1  0
  8  7  1  0
  9 12  2  0
  9 11  1  0
 10  1  1  0
 10  7  2  0
 11  8  2  0
 12 10  1  0
 13 12  1  0
 14 22  1  0
 15 20  1  0
 16 17  1  0
 16 15  1  0
 18 17  1  0
 18 27  1  0
 18 19  1  0
 20 14  1  0
 20 19  1  0
 21 14  2  0
 22 11  1  0
 22 23  1  0
 24 25  2  0
 25 44  1  0
 26 25  1  0
 26 29  1  0
 27 28  1  0
 27 24  1  0
 28 26  2  0
 29 30  1  0
 30 31  2  0
 32 35  1  0
 32 31  1  0
 33 32  2  0
 34 33  1  0
 34 29  2  0
 35 36  1  0
 36 41  2  0
 36 37  1  0
 37 38  2  0
 38 39  1  0
 39 43  1  0
 40 39  2  0
 41 40  1  0
 42 41  1  0
 44 45  1  0
 45 48  1  0
 45 47  1  0
 46 44  2  0
 49 24  1  0
 49 50  1  0
 51 49  1  0
 52 56  1  0
 53 52  1  0
 53 54  1  0
 55 53  2  0
 56 57  1  0
 58 69  2  0
 59 57  1  0
 59 64  1  0
 60 68  1  0
 60 70  1  0
 61 67  1  0
 61 63  1  0
 62 68  1  0
 63 62  1  0
 64 63  2  0
 65 66  1  0
 65 59  2  0
 66 61  2  0
 67 60  1  0
 68 58  1  0
 70 72  2  0
 71 70  1  0
 73 71  1  0
 74 83  2  0
 74 79  1  0
 75 71  1  0
 75 79  1  0
 76 75  1  0
 77 78  1  0
 77 76  1  0
 78 74  1  0
 79 80  2  0
 80 81  1  0
 82 81  2  0
 83 82  1  0
 84 58  1  0
 84 89  1  0
 84 85  1  0
 85 88  1  1
 85 86  1  0
 87 85  1  0
 89 92  1  0
 90 94  1  0
 90 89  1  0
 91 90  2  0
 94 93  1  0
 96 97  1  0
 96 94  1  0
 96 95  1  0
M  ISO  4  14 100  22 100  56 101  57 101
M  END
>  <TORSDO>  (9) 
F 20

>  <SCORE>  (9) 
-12.395

>  <name>  (9) 
8

>  <ligand_id>  (9) 
8

>  <original_smiles>  (9) 
[H]c1c([H])c([H])c2c(c1[H])C([H])([H])C([H])([H])C([H])([H])C2([H])N([H])C(=O)C1([H])N(C(=O)C([H])(N([H])C(=O)C([H])(N([H])C([H])([H])[H])C([H])([H])[H])C(C([H])([H])[H])(C([H])([H])[H])C([H])([H])[H])C([H])([H])c2c([H])c(OC([H])([H])C([H])(C(=O)C([H])([H])[H])[N+]([H])=C(c3c([H])c([H])c(N([H])C(=O)N4C([H])([H])C([H])([H])C([H])([H])C([H])(n5nc(-c6c([H])c([H])c(Oc7c([H])c([H])c(F)c([H])c7F)c([H])c6[H])c(C(=O)N([H])[H])c5N([H])[H])C4([H])[H])c([H])c3F)N([H])[H])c([H])c([H])c2C1([H])[H]

>  <smiles>  (9) 
[H]c1c([H])c([H])c2c(c1[H])C([H])([H])C([H])([H])C([H])([H])C2([H])N([H])C(=O)C1([H])N(C(=O)C([H])(N([H])C(=O)C([H])(N([H])C([H])([H])[H])C([H])([H])[H])C(C([H])([H])[H])(C([H])([H])[H])C([H])([H])[H])C([H])([H])c2c([H])c(OC([H])([H])C([H])(C(=O)C([H])([H])[H])[N+]([H])=C(c3c([H])c([H])c(N([H])C(=O)N4C([H])([H])C([H])([H])C([H])([H])C([H])(n5nc(-c6c([H])c([H])c(Oc7c([H])c([H])c(F)c([H])c7F)c([H])c6[H])c(C(=O)N([H])[H])c5N([H])[H])C4([H])[H])c([H])c3F)N([H])[H])c([H])c([H])c2C1([H])[H]

$$$$
9:0:0
     RDKit          3D

 92100  0  0  1  0  0  0  0  0999 V2000
  -28.6580  -18.2720   20.1360 C   0  0  0  0  0  3  0  0  0  0  0  0
  -30.9750  -18.6740   20.1720 C   0  0  0  0  0  3  0  0  0  0  0  0
  -28.3900  -19.6890   20.0210 C   0  0  0  0  0  0  0  0  0  0  0  0
  -29.9480  -17.6600   20.2080 C   0  0  0  0  0  0  0  0  0  0  0  0
  -29.4060  -20.7080   19.9750 C   0  0  0  0  0  0  0  0  0  0  0  0
  -30.7230  -20.1170   20.0590 C   0  0  0  0  0  0  0  0  0  0  0  0
  -26.9290  -20.1050   19.9330 C   0  0  0  0  0  1  0  0  0  0  0  0
  -31.7970  -20.9400   19.9850 F   0  0  0  0  0  0  0  0  0  0  0  0
  -30.8620  -15.0280   20.0240 C   0  0  0  0  0  0  0  0  0  0  0  0
  -30.7160  -12.6940   19.0460 C   0  0  0  0  0  2  0  0  0  0  0  0
  -29.7440  -12.7130   17.8400 C   0  0  0  0  0  2  0  0  0  0  0  0
  -28.2830  -12.5370   18.3000 C   0  0  0  0  0  2  0  0  0  0  0  0
  -27.9340  -13.4330   19.5170 C   0  0  0  0  0  3  0  0  0  0  0  0
  -29.0180  -13.3600   20.6150 C   0  0  0  0  0  2  0  0  0  0  0  0
  -30.2900  -13.7600   19.9930 N   0  0  0  0  0  0  0  0  0  0  0  0
  -32.0410  -15.1460   19.6690 O   0  0  0  0  0  0  0  0  0  0  0  0
  -30.0140  -16.1280   20.3020 N   0  0  0  0  0  0  0  0  0  0  0  0
  -29.1300  -15.7510   20.6020 H   0  0  0  0  0  0  0  0  0  0  0  0
  -25.5790  -14.0570   20.3080 C   0  0  0  0  0  0  0  0  0  0  0  0
  -24.5090  -13.3000   20.7000 C   0  0  0  0  0  0  0  0  0  0  0  0
  -24.9440  -11.9420   20.6470 C   0  0  0  0  0  0  0  0  0  0  0  0
  -26.6000  -13.1600   20.0380 N   0  0  0  0  0  0  0  0  0  0  0  0
  -26.2270  -11.8820   20.3060 N   0  0  0  0  0  0  0  0  0  0  0  0
  -24.1970  -10.6920   20.8430 C   0  0  0  0  0  0  0  0  0  0  0  0
  -24.6100   -9.7230   21.7840 C   0  0  0  0  0  3  0  0  0  0  0  0
  -23.8630   -8.5390   21.9670 C   0  0  0  0  0  3  0  0  0  0  0  0
  -22.6880   -8.3160   21.2100 C   0  0  0  0  0  0  0  0  0  0  0  0
  -22.2940   -9.2740   20.2590 C   0  0  0  0  0  3  0  0  0  0  0  0
  -23.0410  -10.4500   20.0740 C   0  0  0  0  0  3  0  0  0  0  0  0
  -21.9140   -7.1840   21.3030 O   0  0  0  0  0  0  0  0  0  0  0  0
  -21.8170   -6.4730   22.4720 C   0  0  0  0  0  0  0  0  0  0  0  0
  -21.2700   -7.0370   23.6450 C   0  0  0  0  0  3  0  0  0  0  0  0
  -21.1250   -6.2470   24.8040 C   0  0  0  0  0  3  0  0  0  0  0  0
  -21.5180   -4.8960   24.7900 C   0  0  0  0  0  0  0  0  0  0  0  0
  -22.0580   -4.3310   23.6220 C   0  0  0  0  0  3  0  0  0  0  0  0
  -22.2050   -5.1170   22.4650 C   0  0  0  0  0  0  0  0  0  0  0  0
  -22.7060   -4.5620   21.3360 F   0  0  0  0  0  0  0  0  0  0  0  0
  -21.3710   -4.1360   25.9010 F   0  0  0  0  0  0  0  0  0  0  0  0
  -23.1280  -13.8040   21.0050 C   0  0  0  0  0  0  0  0  0  0  0  0
  -22.4110  -13.1290   21.8980 N   0  0  0  0  0  0  0  0  0  0  0  0
  -22.6930  -14.8310   20.4850 O   0  0  0  0  0  0  0  0  0  0  0  0
  -22.7760  -12.2990   22.3410 H   0  0  0  0  0  0  0  0  0  0  0  0
  -21.4860  -13.4510   22.1430 H   0  0  0  0  0  0  0  0  0  0  0  0
  -25.7630  -15.4240   20.1290 N   0  0  0  0  0  0  0  0  0  0  0  0
  -24.9890  -16.0730   20.2160 H   0  0  0  0  0  0  0  0  0  0  0  0
  -26.5610  -15.8250   19.6540 H   0  0  0  0  0  0  0  0  0  0  0  0
  -29.3920  -23.4920   20.0290 C   0  0  0  0  0  0  0  0  0  0  0  0
  -28.9920  -22.1680   19.7210 N   0  0  0  0  0  0  0  0  0  0  0  0
  -30.3970  -23.6990   20.7130 O   0  0  0  0  0  0  0  0  0  0  0  0
  -28.1160  -22.2080   19.2200 H   0  0  0  0  0  0  0  0  0  0  0  0
  -28.5270  -24.7990   19.4850 C   0  0  0  0  0  2  0  0  0  0  0  0
  -28.7340  -26.2760   19.9350 O   0  0  0  0  0  0  0  0  0  0  0  0
  -24.6250  -31.5940   22.9860 C   0  0  0  0  0  0  0  0  0  0  0  0
  -27.6350  -27.2110   19.8580 C   0  0  0  0  0  0  0  0  0  0  0  0
  -23.5960  -30.2180   21.2200 C   0  0  0  0  0  3  0  0  0  0  0  0
  -25.2080  -28.8170   19.7930 C   0  0  0  0  0  0  0  0  0  0  0  0
  -26.1350  -30.6420   21.2060 C   0  0  0  0  0  2  0  0  0  0  0  0
  -26.3260  -29.2940   20.4890 C   0  0  0  0  0  0  0  0  0  0  0  0
  -27.5400  -28.5080   20.5080 C   0  0  0  0  0  3  0  0  0  0  0  0
  -26.4850  -26.8420   19.1220 C   0  0  0  0  0  3  0  0  0  0  0  0
  -25.3000  -27.6050   19.0950 C   0  0  0  0  0  3  0  0  0  0  0  0
  -23.9270  -29.6340   19.8220 C   0  0  0  0  0  2  0  0  0  0  0  0
  -24.8010  -30.8380   21.8600 N   0  0  0  0  0  0  0  0  0  0  0  0
  -23.4980  -31.7870   23.4680 O   0  0  0  0  0  0  0  0  0  0  0  0
  -22.9340  -29.1220   22.0910 C   0  0  0  0  0  0  0  0  0  0  0  0
  -21.6100  -28.9380   21.9430 N   0  0  0  0  0  0  0  0  0  0  0  0
  -23.6130  -28.4420   22.8650 O   0  0  0  0  0  0  0  0  0  0  0  0
  -21.1170  -29.5400   21.2980 H   0  0  0  0  0  0  0  0  0  0  0  0
  -18.2300  -27.7240   22.4320 C   0  0  0  0  0  0  0  0  0  0  0  0
  -20.8010  -27.9280   22.6320 C   0  0  0  0  0  3  0  0  0  0  0  0
  -20.8610  -26.5700   21.8970 C   0  0  0  0  0  2  0  0  0  0  0  0
  -19.7200  -26.3750   20.8930 C   0  0  0  0  0  2  0  0  0  0  0  0
  -18.3640  -26.4590   21.5990 C   0  0  0  0  0  2  0  0  0  0  0  0
  -19.3740  -28.4220   22.9030 C   0  0  0  0  0  0  0  0  0  0  0  0
  -19.1930  -29.6090   23.6440 C   0  0  0  0  0  3  0  0  0  0  0  0
  -17.9010  -30.0990   23.9150 C   0  0  0  0  0  3  0  0  0  0  0  0
  -16.7730  -29.3970   23.4560 C   0  0  0  0  0  3  0  0  0  0  0  0
  -16.9390  -28.2100   22.7210 C   0  0  0  0  0  3  0  0  0  0  0  0
  -25.8290  -32.2680   23.7100 C   0  0  0  0  0  3  0  0  0  0  0  0
  -25.4390  -33.6490   24.0340 N   0  0  0  0  0  0  0  0  0  0  0  0
  -25.7590  -34.7250   23.3030 C   0  0  0  0  0  0  0  0  0  0  0  0
  -26.4800  -34.6620   22.3040 O   0  0  0  0  0  0  0  0  0  0  0  0
  -24.8010  -33.7680   24.8080 H   0  0  0  0  0  0  0  0  0  0  0  0
  -23.9600  -36.4390   22.8980 C   0  0  0  0  0  1  0  0  0  0  0  0
  -25.1900  -36.0870   23.7510 C   0  0  0  0  0  3  0  0  0  0  0  0
  -27.2320  -37.0830   24.6820 C   0  0  0  0  0  1  0  0  0  0  0  0
  -26.1750  -37.1880   23.6800 N   0  0  0  0  0  0  0  0  0  0  0  0
  -25.7170  -38.0890   23.7930 H   0  0  0  0  0  0  0  0  0  0  0  0
  -26.2760  -31.5010   25.0170 C   0  0  1  0  0  0  0  0  0  0  0  0
  -25.1170  -31.2240   26.0030 C   0  0  0  0  0  1  0  0  0  0  0  0
  -26.9230  -30.1420   24.6640 C   0  0  0  0  0  1  0  0  0  0  0  0
  -27.3550  -32.3220   25.7610 C   0  0  0  0  0  1  0  0  0  0  0  0
  1  4  1  0
  2  4  2  0
  3  1  2  0
  4 17  1  0
  5  3  1  0
  5  6  2  0
  6  2  1  0
  7  3  1  0
  8  6  1  0
  9 17  1  0
 10 15  1  0
 11 12  1  0
 11 10  1  0
 13 12  1  0
 13 22  1  0
 13 14  1  0
 15  9  1  0
 15 14  1  0
 16  9  2  0
 17 18  1  0
 19 20  2  0
 20 39  1  0
 21 20  1  0
 21 24  1  0
 22 23  1  0
 22 19  1  0
 23 21  2  0
 24 25  1  0
 25 26  2  0
 27 30  1  0
 27 26  1  0
 28 27  2  0
 29 28  1  0
 29 24  2  0
 30 31  1  0
 31 32  1  0
 32 33  2  0
 34 33  1  0
 34 38  1  0
 35 34  2  0
 36 31  2  0
 36 35  1  0
 37 36  1  0
 39 40  1  0
 40 43  1  0
 40 42  1  0
 41 39  2  0
 44 45  1  0
 44 19  1  0
 46 44  1  0
 47 49  2  0
 48  5  1  0
 48 47  1  0
 50 48  1  0
 51 52  1  0
 51 47  1  0
 53 64  2  0
 54 52  1  0
 54 59  1  0
 55 63  1  0
 55 65  1  0
 56 62  1  0
 56 58  1  0
 57 63  1  0
 58 59  2  0
 58 57  1  0
 60 54  2  0
 61 60  1  0
 61 56  2  0
 62 55  1  0
 63 53  1  0
 65 67  2  0
 66 65  1  0
 68 66  1  0
 69 78  2  0
 69 74  1  0
 70 66  1  0
 70 74  1  0
 71 70  1  0
 72 73  1  0
 72 71  1  0
 73 69  1  0
 74 75  2  0
 75 76  1  0
 77 76  2  0
 78 77  1  0
 79 53  1  0
 79 80  1  0
 79 89  1  0
 80 83  1  0
 81 85  1  0
 81 80  1  0
 82 81  2  0
 85 84  1  0
 87 85  1  0
 87 88  1  0
 87 86  1  0
 89 92  1  1
 89 90  1  0
 91 89  1  0
M  ISO  4   9 100  17 100  51 101  52 101
M  END
>  <TORSDO>  (10) 
F 18

>  <SCORE>  (10) 
-13.339

>  <name>  (10) 
9

>  <ligand_id>  (10) 
9

>  <original_smiles>  (10) 
[H]c1c([H])c([H])c2c(c1[H])C([H])([H])C([H])([H])C([H])([H])C2([H])N([H])C(=O)C1([H])N(C(=O)C([H])(N([H])C(=O)C([H])(N([H])C([H])([H])[H])C([H])([H])[H])C(C([H])([H])[H])(C([H])([H])[H])C([H])([H])[H])C([H])([H])c2c([H])c(OC([H])([H])C(=O)N([H])c3c(F)c([H])c(N([H])C(=O)N4C([H])([H])C([H])([H])C([H])([H])C([H])(n5nc(-c6c([H])c([H])c(Oc7c([H])c([H])c(F)c([H])c7F)c([H])c6[H])c(C(=O)N([H])[H])c5N([H])[H])C4([H])[H])c([H])c3C([H])([H])[H])c([H])c([H])c2C1([H])[H]

>  <smiles>  (10) 
[H]c1c([H])c([H])c2c(c1[H])C([H])([H])C([H])([H])C([H])([H])C2([H])N([H])C(=O)C1([H])N(C(=O)C([H])(N([H])C(=O)C([H])(N([H])C([H])([H])[H])C([H])([H])[H])C(C([H])([H])[H])(C([H])([H])[H])C([H])([H])[H])C([H])([H])c2c([H])c(OC([H])([H])C(=O)N([H])c3c(F)c([H])c(N([H])C(=O)N4C([H])([H])C([H])([H])C([H])([H])C([H])(n5nc(-c6c([H])c([H])c(Oc7c([H])c([H])c(F)c([H])c7F)c([H])c6[H])c(C(=O)N([H])[H])c5N([H])[H])C4([H])[H])c([H])c3C([H])([H])[H])c([H])c([H])c2C1([H])[H]

$$$$
10:0:0
     RDKit          3D

 93101  0  0  1  0  0  0  0  0999 V2000
  -28.7960  -23.6800   20.1850 C   0  0  0  0  0  0  0  0  0  0  0  0
  -30.4560  -21.8720   19.7900 C   0  0  0  0  0  0  0  0  0  0  0  0
  -28.0590  -24.8640   20.3530 C   0  0  0  0  0  3  0  0  0  0  0  0
  -30.2530  -23.4210   19.8570 C   0  0  0  0  0  2  0  0  0  0  0  0
  -28.2500  -22.2210   20.2970 C   0  0  0  0  0  2  0  0  0  0  0  0
  -29.3230  -21.1730   20.0380 N   0  0  0  0  0  0  0  0  0  0  0  0
  -31.5560  -21.3750   19.5320 O   0  0  0  0  0  0  0  0  0  0  0  0
  -27.7140  -19.3280   20.0390 C   0  0  0  0  0  3  0  0  0  0  0  0
  -27.2650  -18.0060   20.1390 C   0  0  0  0  0  3  0  0  0  0  0  0
  -30.0200  -18.5200   20.1470 C   0  0  0  0  0  3  0  0  0  0  0  0
  -29.0860  -19.6730   20.0670 C   0  0  0  0  0  0  0  0  0  0  0  0
  -29.5600  -17.1160   20.2320 C   0  0  0  0  0  0  0  0  0  0  0  0
  -28.1640  -16.9430   20.2670 C   0  0  0  0  0  3  0  0  0  0  0  0
  -27.6620  -15.7050   20.4810 F   0  0  0  0  0 15  0  0  0  0  0  0
  -30.7960  -14.7310   19.8230 C   0  0  0  0  0  0  0  0  0  0  0  0
  -30.5870  -12.3690   18.9590 C   0  0  0  0  0  2  0  0  0  0  0  0
  -29.5970  -12.3440   17.7710 C   0  0  0  0  0  2  0  0  0  0  0  0
  -28.1390  -12.2140   18.2600 C   0  0  0  0  0  2  0  0  0  0  0  0
  -27.8200  -13.1860   19.4280 C   0  0  0  0  0  3  0  0  0  0  0  0
  -28.9210  -13.1310   20.5130 C   0  0  0  0  0  2  0  0  0  0  0  0
  -30.2020  -13.4770   19.8720 N   0  0  0  0  0  0  0  0  0  0  0  0
  -31.8760  -14.8630   19.2380 O   0  0  0  0  0  0  0  0  0  0  0  0
  -30.1970  -15.7810   20.5070 N   0  0  0  0  0  0  0  0  0  0  0  0
  -29.5880  -15.3270   21.1740 H   0  0  0  0  0  0  0  0  0  0  0  0
  -25.4780  -13.8730   20.2350 C   0  0  0  0  0  0  0  0  0  0  0  0
  -24.4030  -13.1480   20.6670 C   0  0  0  0  0  0  0  0  0  0  0  0
  -24.8090  -11.7790   20.6180 C   0  0  0  0  0  0  0  0  0  0  0  0
  -26.4840  -12.9540   19.9730 N   0  0  0  0  0  0  0  0  0  0  0  0
  -26.0830  -11.6860   20.2540 N   0  0  0  0  0  0  0  0  0  0  0  0
  -24.0350  -10.5510   20.8410 C   0  0  0  0  0  0  0  0  0  0  0  0
  -24.4430   -9.5800   21.7820 C   0  0  0  0  0  3  0  0  0  0  0  0
  -23.6690   -8.4180   21.9910 C   0  0  0  0  0  3  0  0  0  0  0  0
  -22.4740   -8.2190   21.2610 C   0  0  0  0  0  0  0  0  0  0  0  0
  -22.0840   -9.1780   20.3080 C   0  0  0  0  0  3  0  0  0  0  0  0
  -22.8570  -10.3310   20.0970 C   0  0  0  0  0  3  0  0  0  0  0  0
  -21.6720   -7.1100   21.3810 O   0  0  0  0  0  0  0  0  0  0  0  0
  -21.5860   -6.4090   22.5570 C   0  0  0  0  0  0  0  0  0  0  0  0
  -21.1840   -7.0240   23.7640 C   0  0  0  0  0  3  0  0  0  0  0  0
  -21.0420   -6.2520   24.9340 C   0  0  0  0  0  3  0  0  0  0  0  0
  -21.2910   -4.8660   24.8990 C   0  0  0  0  0  0  0  0  0  0  0  0
  -21.6870   -4.2530   23.6970 C   0  0  0  0  0  3  0  0  0  0  0  0
  -21.8310   -5.0210   22.5300 C   0  0  0  0  0  0  0  0  0  0  0  0
  -22.1920   -4.4220   21.3690 F   0  0  0  0  0  0  0  0  0  0  0  0
  -21.1480   -4.1210   26.0200 F   0  0  0  0  0  0  0  0  0  0  0  0
  -23.0460  -13.6880   21.0100 C   0  0  0  0  0  0  0  0  0  0  0  0
  -22.3390  -13.0350   21.9250 N   0  0  0  0  0  0  0  0  0  0  0  0
  -22.6240  -14.7260   20.5030 O   0  0  0  0  0  0  0  0  0  0  0  0
  -22.6910  -12.1950   22.3580 H   0  0  0  0  0  0  0  0  0  0  0  0
  -21.4300  -13.3830   22.1980 H   0  0  0  0  0  0  0  0  0  0  0  0
  -25.6700  -15.2310   20.0210 N   0  0  0  0  0  0  0  0  0  0  0  0
  -24.9490  -15.9160   20.2150 H   0  0  0  0  0  0  0  0  0  0  0  0
  -26.5750  -15.6420   19.8370 H   0  0  0  0  0  0  0  0  0  0  0  0
  -28.3670  -26.2700   20.2810 O   0  0  0  0  0  0  0  0  0  0  0  0
  -24.5130  -31.7680   23.1840 C   0  0  0  0  0  0  0  0  0  0  0  0
  -27.2900  -27.2010   20.2030 C   0  0  0  0  0  0  0  0  0  0  0  0
  -23.3900  -30.3620   21.4960 C   0  0  0  0  0  3  0  0  0  0  0  0
  -24.9150  -28.8370   20.1080 C   0  0  0  0  0  0  0  0  0  0  0  0
  -25.9350  -30.6990   21.4100 C   0  0  0  0  0  2  0  0  0  0  0  0
  -26.0590  -29.3190   20.7580 C   0  0  0  0  0  0  0  0  0  0  0  0
  -27.2500  -28.5140   20.7970 C   0  0  0  0  0  3  0  0  0  0  0  0
  -26.1260  -26.8050   19.5060 C   0  0  0  0  0  3  0  0  0  0  0  0
  -24.9560  -27.5890   19.4690 C   0  0  0  0  0  3  0  0  0  0  0  0
  -23.6650  -29.6990   20.1200 C   0  0  0  0  0  2  0  0  0  0  0  0
  -24.6290  -30.9630   22.0860 N   0  0  0  0  0  0  0  0  0  0  0  0
  -23.4060  -32.0280   23.6800 O   0  0  0  0  0  0  0  0  0  0  0  0
  -22.7040  -29.3320   22.4280 C   0  0  0  0  0  0  0  0  0  0  0  0
  -21.3780  -29.1620   22.2780 N   0  0  0  0  0  0  0  0  0  0  0  0
  -23.3660  -28.6910   23.2480 O   0  0  0  0  0  0  0  0  0  0  0  0
  -20.9020  -29.7320   21.5930 H   0  0  0  0  0  0  0  0  0  0  0  0
  -17.9880  -27.9740   22.7240 C   0  0  0  0  0  0  0  0  0  0  0  0
  -20.5460  -28.2130   23.0200 C   0  0  0  0  0  3  0  0  0  0  0  0
  -20.6430  -26.7930   22.4140 C   0  0  0  0  0  2  0  0  0  0  0  0
  -19.5490  -26.5010   21.3830 C   0  0  0  0  0  2  0  0  0  0  0  0
  -18.1630  -26.6400   22.0170 C   0  0  0  0  0  2  0  0  0  0  0  0
  -19.1080  -28.7190   23.1810 C   0  0  0  0  0  0  0  0  0  0  0  0
  -18.8900  -29.9690   23.8010 C   0  0  0  0  0  3  0  0  0  0  0  0
  -17.5860  -30.4720   23.9690 C   0  0  0  0  0  3  0  0  0  0  0  0
  -16.4810  -29.7220   23.5290 C   0  0  0  0  0  3  0  0  0  0  0  0
  -16.6830  -28.4750   22.9110 C   0  0  0  0  0  3  0  0  0  0  0  0
  -25.7610  -32.4190   23.8540 C   0  0  0  0  0  3  0  0  0  0  0  0
  -25.4190  -33.8120   24.1780 N   0  0  0  0  0  0  0  0  0  0  0  0
  -25.7530  -34.8740   23.4320 C   0  0  0  0  0  0  0  0  0  0  0  0
  -26.4490  -34.7850   22.4180 O   0  0  0  0  0  0  0  0  0  0  0  0
  -24.8040  -33.9550   24.9650 H   0  0  0  0  0  0  0  0  0  0  0  0
  -24.0010  -36.6390   23.0480 C   0  0  0  0  0  1  0  0  0  0  0  0
  -25.2330  -36.2530   23.8820 C   0  0  0  0  0  3  0  0  0  0  0  0
  -27.3370  -37.1720   24.7550 C   0  0  0  0  0  1  0  0  0  0  0  0
  -26.2490  -37.3250   23.7920 N   0  0  0  0  0  0  0  0  0  0  0  0
  -25.8240  -38.2360   23.9350 H   0  0  0  0  0  0  0  0  0  0  0  0
  -26.2420  -31.6530   25.1480 C   0  0  1  0  0  0  0  0  0  0  0  0
  -25.1130  -31.3960   26.1740 C   0  0  0  0  0  1  0  0  0  0  0  0
  -26.8610  -30.2860   24.7790 C   0  0  0  0  0  1  0  0  0  0  0  0
  -27.3540  -32.4650   25.8530 C   0  0  0  0  0  1  0  0  0  0  0  0
  1  5  1  0
  1  3  2  0
  2  4  1  0
  2  6  1  0
  4  1  1  0
  6 11  1  0
  6  5  1  0
  7  2  2  0
  8 11  2  0
  8  9  1  0
  9 13  2  0
 10 12  2  0
 11 10  1  0
 12 13  1  0
 12 23  1  0
 15 21  1  0
 15 23  1  0
 16 21  1  0
 17 18  1  0
 17 16  1  0
 19 18  1  0
 19 28  1  0
 19 20  1  0
 21 20  1  0
 22 15  2  0
 23 24  1  0
 25 26  2  0
 26 45  1  0
 27 26  1  0
 27 30  1  0
 28 25  1  0
 28 29  1  0
 29 27  2  0
 30 31  1  0
 31 32  2  0
 33 36  1  0
 33 32  1  0
 34 33  2  0
 35 34  1  0
 35 30  2  0
 36 37  1  0
 37 38  1  0
 38 39  2  0
 40 39  1  0
 40 44  1  0
 41 40  2  0
 42 37  2  0
 42 41  1  0
 43 42  1  0
 45 46  1  0
 46 49  1  0
 46 48  1  0
 47 45  2  0
 50 51  1  0
 50 25  1  0
 52 50  1  0
 53  3  1  0
 54 65  2  0
 55 53  1  0
 55 60  1  0
 56 64  1  0
 56 66  1  0
 57 63  1  0
 57 59  1  0
 58 64  1  0
 59 60  2  0
 59 58  1  0
 61 55  2  0
 62 61  1  0
 62 57  2  0
 63 56  1  0
 64 54  1  0
 66 68  2  0
 67 66  1  0
 69 67  1  0
 70 79  2  0
 70 75  1  0
 71 67  1  0
 71 75  1  0
 72 71  1  0
 73 74  1  0
 73 72  1  0
 74 70  1  0
 75 76  2  0
 76 77  1  0
 78 77  2  0
 79 78  1  0
 80 54  1  0
 80 81  1  0
 80 90  1  0
 81 84  1  0
 82 86  1  0
 82 81  1  0
 83 82  2  0
 86 85  1  0
 88 86  1  0
 88 89  1  0
 88 87  1  0
 90 93  1  1
 90 91  1  0
 92 90  1  0
M  ISO  4   3 101  15 100  23 100  53 101
M  END
>  <TORSDO>  (11) 
F 17

>  <SCORE>  (11) 
-15.157

>  <name>  (11) 
10

>  <ligand_id>  (11) 
10

>  <original_smiles>  (11) 
[H]C(Oc1c([H])c([H])c2c(c1[H])C([H])([H])N(C(=O)C([H])(N([H])C(=O)C([H])(N([H])C([H])([H])[H])C([H])([H])[H])C(C([H])([H])[H])(C([H])([H])[H])C([H])([H])[H])C([H])(C(=O)N([H])C1([H])c3c([H])c([H])c([H])c([H])c3C([H])([H])C([H])([H])C1([H])[H])C2([H])[H])=C1C([H])([H])C(=O)N(c2c([H])c([H])c(F)c(N([H])C(=O)N3C([H])([H])C([H])([H])C([H])([H])C([H])(n4nc(-c5c([H])c([H])c(Oc6c([H])c([H])c(F)c([H])c6F)c([H])c5[H])c(C(=O)N([H])[H])c4N([H])[H])C3([H])[H])c2[H])C1([H])[H]

>  <smiles>  (11) 
[H]C(Oc1c([H])c([H])c2c(c1[H])C([H])([H])N(C(=O)C([H])(N([H])C(=O)C([H])(N([H])C([H])([H])[H])C([H])([H])[H])C(C([H])([H])[H])(C([H])([H])[H])C([H])([H])[H])C([H])(C(=O)N([H])C1([H])c3c([H])c([H])c([H])c([H])c3C([H])([H])C([H])([H])C1([H])[H])C2([H])[H])=C1C([H])([H])C(=O)N(c2c([H])c([H])c(F)c(N([H])C(=O)N3C([H])([H])C([H])([H])C([H])([H])C([H])(n4nc(-c5c([H])c([H])c(Oc6c([H])c([H])c(F)c([H])c6F)c([H])c5[H])c(C(=O)N([H])[H])c4N([H])[H])C3([H])[H])c2[H])C1([H])[H]

$$$$
11:0:0
     RDKit          3D

 96104  0  0  1  0  0  0  0  0999 V2000
  -30.5530  -17.4330   21.9370 C   0  0  0  0  0  3  0  0  0  0  0  0
  -30.3440  -19.8820   21.9020 C   0  0  0  0  0  3  0  0  0  0  0  0
  -29.9590  -18.5830   19.8770 C   0  0  0  0  0  3  0  0  0  0  0  0
  -30.5880  -18.6770   22.6110 C   0  0  0  0  0  0  0  0  0  0  0  0
  -30.2410  -17.3300   20.5620 C   0  0  0  0  0  0  0  0  0  0  0  0
  -30.0200  -19.8950   20.5160 C   0  0  0  0  0  0  0  0  0  0  0  0
  -30.8470  -14.8770   19.8120 C   0  0  0  0  0  0  0  0  0  0  0  0
  -30.5990  -12.6100   18.7610 C   0  0  0  0  0  2  0  0  0  0  0  0
  -29.5700  -12.6710   17.6070 C   0  0  0  0  0  2  0  0  0  0  0  0
  -28.1290  -12.5100   18.1360 C   0  0  0  0  0  2  0  0  0  0  0  0
  -27.8460  -13.4090   19.3670 C   0  0  0  0  0  3  0  0  0  0  0  0
  -28.9700  -13.2950   20.4170 C   0  0  0  0  0  2  0  0  0  0  0  0
  -30.2270  -13.6510   19.7450 N   0  0  0  0  0  0  0  0  0  0  0  0
  -32.0160  -15.0020   19.4330 O   0  0  0  0  0  0  0  0  0  0  0  0
  -30.0180  -15.9710   20.0180 N   0  0  0  0  0  0  0  0  0  0  0  0
  -29.0490  -15.6880   20.0400 H   0  0  0  0  0  0  0  0  0  0  0  0
  -25.5320  -14.0590   20.2720 C   0  0  0  0  0  0  0  0  0  0  0  0
  -24.4760  -13.3050   20.7030 C   0  0  0  0  0  0  0  0  0  0  0  0
  -24.8950  -11.9410   20.6130 C   0  0  0  0  0  0  0  0  0  0  0  0
  -26.5300  -13.1540   19.9440 N   0  0  0  0  0  0  0  0  0  0  0  0
  -26.1590  -11.8760   20.2120 N   0  0  0  0  0  0  0  0  0  0  0  0
  -24.1480  -10.6960   20.8300 C   0  0  0  0  0  0  0  0  0  0  0  0
  -24.5760   -9.7360   21.7750 C   0  0  0  0  0  3  0  0  0  0  0  0
  -23.8320   -8.5530   21.9780 C   0  0  0  0  0  3  0  0  0  0  0  0
  -22.6490   -8.3240   21.2360 C   0  0  0  0  0  0  0  0  0  0  0  0
  -22.2430   -9.2710   20.2800 C   0  0  0  0  0  3  0  0  0  0  0  0
  -22.9850  -10.4450   20.0750 C   0  0  0  0  0  3  0  0  0  0  0  0
  -21.8780   -7.1920   21.3470 O   0  0  0  0  0  0  0  0  0  0  0  0
  -21.7840   -6.4980   22.5260 C   0  0  0  0  0  0  0  0  0  0  0  0
  -21.2740   -7.0900   23.7020 C   0  0  0  0  0  3  0  0  0  0  0  0
  -21.1330   -6.3180   24.8740 C   0  0  0  0  0  3  0  0  0  0  0  0
  -21.4900   -4.9570   24.8690 C   0  0  0  0  0  0  0  0  0  0  0  0
  -21.9960   -4.3650   23.6970 C   0  0  0  0  0  3  0  0  0  0  0  0
  -22.1390   -5.1330   22.5290 C   0  0  0  0  0  0  0  0  0  0  0  0
  -22.6060   -4.5530   21.3970 F   0  0  0  0  0  0  0  0  0  0  0  0
  -21.3490   -4.2150   25.9910 F   0  0  0  0  0  0  0  0  0  0  0  0
  -23.1150  -13.8130   21.0830 C   0  0  0  0  0  0  0  0  0  0  0  0
  -22.4290  -13.1190   21.9850 N   0  0  0  0  0  0  0  0  0  0  0  0
  -22.6690  -14.8590   20.6100 O   0  0  0  0  0  0  0  0  0  0  0  0
  -22.8030  -12.2720   22.3840 H   0  0  0  0  0  0  0  0  0  0  0  0
  -21.5180  -13.4410   22.2800 H   0  0  0  0  0  0  0  0  0  0  0  0
  -25.7140  -15.4290   20.1100 N   0  0  0  0  0  0  0  0  0  0  0  0
  -24.9510  -16.0780   20.2640 H   0  0  0  0  0  0  0  0  0  0  0  0
  -26.5290  -15.8670   19.7010 H   0  0  0  0  0  0  0  0  0  0  0  0
  -30.9330  -18.6960   24.0780 C   0  0  0  0  0  0  0  0  0  0  0  0
  -30.3860  -19.6430   24.8310 N   0  0  0  0  0  0  0  0  0  0  0  0
  -31.6550  -17.8300   24.5740 O   0  0  0  0  0  0  0  0  0  0  0  0
  -29.7550  -20.3230   24.4310 H   0  0  0  0  0  0  0  0  0  0  0  0
  -30.5750  -19.6640   25.8230 H   0  0  0  0  0  0  0  0  0  0  0  0
  -29.1740  -22.3460   20.2720 C   0  0  0  0  0  0  0  0  0  0  0  0
  -30.5870  -21.3490   18.5390 C   0  0  0  0  0  1  0  0  0  0  0  0
  -29.8680  -21.2140   19.8130 N   0  0  0  0  0  0  0  0  0  0  0  0
  -28.3970  -22.2480   21.2280 O   0  0  0  0  0  0  0  0  0  0  0  0
  -29.3120  -23.8180   19.6240 C   0  0  0  0  0  3  0  0  0  0  0  0
  -28.1870  -24.9540   19.9220 C   0  0  0  0  0  3  0  0  0  0  0  0
  -28.3910  -26.4290   19.6320 O   0  0  0  0  0  0  0  0  0  0  0  0
  -24.5780  -31.6200   23.0260 C   0  0  0  0  0  0  0  0  0  0  0  0
  -27.2710  -27.2970   19.6620 C   0  0  0  0  0  0  0  0  0  0  0  0
  -23.3940  -30.2950   21.3130 C   0  0  0  0  0  3  0  0  0  0  0  0
  -24.8670  -28.8820   19.7680 C   0  0  0  0  0  0  0  0  0  0  0  0
  -25.9240  -30.6890   21.1200 C   0  0  0  0  0  2  0  0  0  0  0  0
  -26.0360  -29.3520   20.3860 C   0  0  0  0  0  0  0  0  0  0  0  0
  -27.2390  -28.5770   20.3200 C   0  0  0  0  0  3  0  0  0  0  0  0
  -26.0800  -26.9070   19.0070 C   0  0  0  0  0  3  0  0  0  0  0  0
  -24.8980  -27.6690   19.0680 C   0  0  0  0  0  3  0  0  0  0  0  0
  -23.6080  -29.7180   19.8900 C   0  0  0  0  0  2  0  0  0  0  0  0
  -24.6510  -30.8850   21.8770 N   0  0  0  0  0  0  0  0  0  0  0  0
  -23.4930  -31.8300   23.5900 O   0  0  0  0  0  0  0  0  0  0  0  0
  -22.7770  -29.1980   22.2150 C   0  0  0  0  0  0  0  0  0  0  0  0
  -21.4510  -28.9970   22.1040 N   0  0  0  0  0  0  0  0  0  0  0  0
  -23.4880  -28.5370   22.9750 O   0  0  0  0  0  0  0  0  0  0  0  0
  -20.9320  -29.5980   21.4800 H   0  0  0  0  0  0  0  0  0  0  0  0
  -18.1060  -27.7140   22.6230 C   0  0  0  0  0  0  0  0  0  0  0  0
  -20.6730  -27.9870   22.8230 C   0  0  0  0  0  3  0  0  0  0  0  0
  -20.7680  -26.6080   22.1340 C   0  0  0  0  0  2  0  0  0  0  0  0
  -19.6350  -26.3520   21.1360 C   0  0  0  0  0  2  0  0  0  0  0  0
  -18.2730  -26.4250   21.8340 C   0  0  0  0  0  2  0  0  0  0  0  0
  -19.2300  -28.4550   23.0730 C   0  0  0  0  0  0  0  0  0  0  0  0
  -19.0170  -29.6640   23.7680 C   0  0  0  0  0  3  0  0  0  0  0  0
  -17.7120  -30.1300   24.0240 C   0  0  0  0  0  3  0  0  0  0  0  0
  -16.6030  -29.3840   23.5890 C   0  0  0  0  0  3  0  0  0  0  0  0
  -16.8010  -28.1800   22.8930 C   0  0  0  0  0  3  0  0  0  0  0  0
  -25.8480  -32.2490   23.6740 C   0  0  0  0  0  3  0  0  0  0  0  0
  -26.3800  -31.4410   24.9210 C   0  0  1  0  0  0  0  0  0  0  0  0
  -25.2930  -31.1470   25.9790 C   0  0  0  0  0  1  0  0  0  0  0  0
  -26.9860  -30.0900   24.4740 C   0  0  0  0  0  1  0  0  0  0  0  0
  -27.5090  -32.2340   25.6190 C   0  0  0  0  0  1  0  0  0  0  0  0
  -25.5140  -33.6280   24.0610 N   0  0  0  0  0  0  0  0  0  0  0  0
  -25.8120  -34.7180   23.3450 C   0  0  0  0  0  0  0  0  0  0  0  0
  -26.4680  -34.6720   22.3000 O   0  0  0  0  0  0  0  0  0  0  0  0
  -24.9380  -33.7400   24.8820 H   0  0  0  0  0  0  0  0  0  0  0  0
  -24.0330  -36.4810   23.0970 C   0  0  0  0  0  1  0  0  0  0  0  0
  -25.3000  -36.0730   23.8690 C   0  0  0  0  0  3  0  0  0  0  0  0
  -27.4190  -36.9890   24.7060 C   0  0  0  0  0  1  0  0  0  0  0  0
  -26.3010  -37.1580   23.7810 N   0  0  0  0  0  0  0  0  0  0  0  0
  -25.8680  -38.0600   23.9650 H   0  0  0  0  0  0  0  0  0  0  0  0
  1  4  1  0
  2  4  2  0
  3  6  2  0
  3  5  1  0
  4 45  1  0
  5  1  2  0
  6  2  1  0
  7 15  1  0
  8 13  1  0
  9 10  1  0
  9  8  1  0
 11 10  1  0
 11 20  1  0
 11 12  1  0
 13  7  1  0
 13 12  1  0
 14  7  2  0
 15 16  1  0
 15  5  1  0
 17 18  2  0
 18 37  1  0
 19 18  1  0
 19 22  1  0
 20 21  1  0
 20 17  1  0
 21 19  2  0
 22 23  1  0
 23 24  2  0
 25 28  1  0
 25 24  1  0
 26 25  2  0
 27 26  1  0
 27 22  2  0
 28 29  1  0
 29 34  2  0
 29 30  1  0
 30 31  2  0
 32 31  1  0
 32 36  1  0
 33 32  2  0
 34 33  1  0
 35 34  1  0
 37 38  1  0
 38 41  1  0
 38 40  1  0
 39 37  2  0
 42 43  1  0
 42 17  1  0
 44 42  1  0
 45 47  2  0
 45 46  1  0
 46 49  1  0
 48 46  1  0
 50 53  2  0
 51 52  1  0
 52 50  1  0
 52  6  1  0
 54 55  2  0
 54 50  1  0
 56 58  1  0
 56 55  1  0
 57 68  2  0
 58 63  1  0
 59 67  1  0
 59 69  1  0
 60 66  1  0
 60 62  1  0
 61 67  1  0
 62 61  1  0
 63 62  2  0
 64 65  1  0
 64 58  2  0
 65 60  2  0
 66 59  1  0
 67 57  1  0
 69 71  2  0
 70 69  1  0
 72 70  1  0
 73 82  2  0
 73 78  1  0
 74 70  1  0
 74 78  1  0
 75 74  1  0
 76 77  1  0
 76 75  1  0
 77 73  1  0
 78 79  2  0
 79 80  1  0
 81 80  2  0
 82 81  1  0
 83 57  1  0
 83 88  1  0
 83 84  1  0
 84 87  1  1
 84 85  1  0
 86 84  1  0
 88 91  1  0
 89 93  1  0
 89 88  1  0
 90 89  2  0
 93 92  1  0
 95 93  1  0
 95 96  1  0
 95 94  1  0
M  ISO  4   7 100  15 100  55 101  56 101
M  END
>  <TORSDO>  (12) 
F 20

>  <SCORE>  (12) 
-10.315

>  <name>  (12) 
11

>  <ligand_id>  (12) 
11

>  <original_smiles>  (12) 
[H]c1c([H])c([H])c2c(c1[H])C([H])([H])C([H])([H])C([H])([H])C2([H])N([H])C(=O)C1([H])N(C(=O)C([H])(N([H])C(=O)C([H])(N([H])C([H])([H])[H])C([H])([H])[H])C(C([H])([H])[H])(C([H])([H])[H])C([H])([H])[H])C([H])([H])c2c([H])c(OC([H])([H])C([H])([H])C(=O)N(c3c([H])c(C(=O)N([H])[H])c([H])c(N([H])C(=O)N4C([H])([H])C([H])([H])C([H])([H])C([H])(n5nc(-c6c([H])c([H])c(Oc7c([H])c([H])c(F)c([H])c7F)c([H])c6[H])c(C(=O)N([H])[H])c5N([H])[H])C4([H])[H])c3[H])C([H])([H])[H])c([H])c([H])c2C1([H])[H]

>  <smiles>  (12) 
[H]c1c([H])c([H])c2c(c1[H])C([H])([H])C([H])([H])C([H])([H])C2([H])N([H])C(=O)C1([H])N(C(=O)C([H])(N([H])C(=O)C([H])(N([H])C([H])([H])[H])C([H])([H])[H])C(C([H])([H])[H])(C([H])([H])[H])C([H])([H])[H])C([H])([H])c2c([H])c(OC([H])([H])C([H])([H])C(=O)N(c3c([H])c(C(=O)N([H])[H])c([H])c(N([H])C(=O)N4C([H])([H])C([H])([H])C([H])([H])C([H])(n5nc(-c6c([H])c([H])c(Oc7c([H])c([H])c(F)c([H])c7F)c([H])c6[H])c(C(=O)N([H])[H])c5N([H])[H])C4([H])[H])c3[H])C([H])([H])[H])c([H])c([H])c2C1([H])[H]

$$$$
12:0:0
     RDKit          3D

 93101  0  0  1  0  0  0  0  0999 V2000
  -29.1510  -22.4370   20.0410 C   0  0  0  0  0  0  0  0  0  0  0  0
  -28.7780  -21.1000   20.1880 N   0  0  0  0  0  0  0  0  0  0  0  0
  -30.3430  -22.7300   19.9410 O   0  0  0  0  0  0  0  0  0  0  0  0
  -27.8220  -20.9640   20.4930 H   0  0  0  0  0  0  0  0  0  0  0  0
  -30.3000  -19.8960   18.6370 C   0  0  0  0  0  3  0  0  0  0  0  0
  -29.3430  -18.5260   20.4050 C   0  0  0  0  0  3  0  0  0  0  0  0
  -30.8660  -18.7320   18.0770 C   0  0  0  0  0  0  0  0  0  0  0  0
  -29.4930  -19.8480   19.7960 C   0  0  0  0  0  0  0  0  0  0  0  0
  -29.9710  -17.3070   19.8880 C   0  0  0  0  0  0  0  0  0  0  0  0
  -30.6910  -17.4660   18.6750 C   0  0  0  0  0  0  0  0  0  0  0  0
  -31.6310  -18.8340   16.7680 C   0  0  0  0  0  1  0  0  0  0  0  0
  -31.1750  -16.3910   18.0090 F   0  0  0  0  0  0  0  0  0  0  0  0
  -30.6010  -14.7980   20.3350 C   0  0  0  0  0  0  0  0  0  0  0  0
  -30.4350  -12.4980   19.3900 C   0  0  0  0  0  2  0  0  0  0  0  0
  -29.5100  -12.5630   18.1550 C   0  0  0  0  0  2  0  0  0  0  0  0
  -28.0380  -12.3790   18.5740 C   0  0  0  0  0  2  0  0  0  0  0  0
  -27.6460  -13.2710   19.7830 C   0  0  0  0  0  3  0  0  0  0  0  0
  -28.6970  -13.2090   20.9120 C   0  0  0  0  0  2  0  0  0  0  0  0
  -29.9930  -13.5620   20.3220 N   0  0  0  0  0  0  0  0  0  0  0  0
  -31.8060  -14.8750   20.0860 O   0  0  0  0  0  0  0  0  0  0  0  0
  -29.8080  -15.9360   20.4690 N   0  0  0  0  0  0  0  0  0  0  0  0
  -28.9100  -15.7590   20.8910 H   0  0  0  0  0  0  0  0  0  0  0  0
  -25.2510  -13.8450   20.4960 C   0  0  0  0  0  0  0  0  0  0  0  0
  -24.1890  -13.0640   20.8640 C   0  0  0  0  0  0  0  0  0  0  0  0
  -24.6640  -11.7160   20.8430 C   0  0  0  0  0  0  0  0  0  0  0  0
  -26.3030  -12.9730   20.2690 N   0  0  0  0  0  0  0  0  0  0  0  0
  -25.9570  -11.6880   20.5440 N   0  0  0  0  0  0  0  0  0  0  0  0
  -23.9470  -10.4490   21.0350 C   0  0  0  0  0  0  0  0  0  0  0  0
  -24.3860   -9.4860   21.9690 C   0  0  0  0  0  3  0  0  0  0  0  0
  -23.6680   -8.2840   22.1480 C   0  0  0  0  0  3  0  0  0  0  0  0
  -22.4970   -8.0370   21.3950 C   0  0  0  0  0  0  0  0  0  0  0  0
  -22.0770   -8.9890   20.4500 C   0  0  0  0  0  3  0  0  0  0  0  0
  -22.7950  -10.1820   20.2680 C   0  0  0  0  0  3  0  0  0  0  0  0
  -21.7500   -6.8870   21.4840 O   0  0  0  0  0  0  0  0  0  0  0  0
  -21.7110   -6.1410   22.6340 C   0  0  0  0  0  0  0  0  0  0  0  0
  -21.2870   -6.6880   23.8640 C   0  0  0  0  0  3  0  0  0  0  0  0
  -21.1960   -5.8690   25.0070 C   0  0  0  0  0  3  0  0  0  0  0  0
  -21.5190   -4.5010   24.9200 C   0  0  0  0  0  0  0  0  0  0  0  0
  -21.9370   -3.9520   23.6960 C   0  0  0  0  0  3  0  0  0  0  0  0
  -22.0280   -4.7700   22.5560 C   0  0  0  0  0  0  0  0  0  0  0  0
  -22.4110   -4.2310   21.3720 F   0  0  0  0  0  0  0  0  0  0  0  0
  -21.4250   -3.7110   26.0160 F   0  0  0  0  0  0  0  0  0  0  0  0
  -22.7860  -13.5300   21.1190 C   0  0  0  0  0  0  0  0  0  0  0  0
  -22.0560  -12.8340   21.9830 N   0  0  0  0  0  0  0  0  0  0  0  0
  -22.3460  -14.5500   20.5890 O   0  0  0  0  0  0  0  0  0  0  0  0
  -22.4230  -12.0110   22.4380 H   0  0  0  0  0  0  0  0  0  0  0  0
  -21.1120  -13.1300   22.1920 H   0  0  0  0  0  0  0  0  0  0  0  0
  -25.4050  -15.2150   20.3120 N   0  0  0  0  0  0  0  0  0  0  0  0
  -24.6310  -15.8630   20.4170 H   0  0  0  0  0  0  0  0  0  0  0  0
  -26.2440  -15.6620   19.9650 H   0  0  0  0  0  0  0  0  0  0  0  0
  -28.0990  -23.6540   19.9820 C   0  0  0  0  0  2  0  0  0  0  0  0
  -28.3290  -25.0650   20.7610 C   0  0  0  0  0  2  0  0  0  0  0  0
  -28.3500  -26.4450   20.1580 O   0  0  0  0  0  0  0  0  0  0  0  0
  -24.5990  -31.8780   23.2490 C   0  0  0  0  0  0  0  0  0  0  0  0
  -27.2230  -27.2900   20.2060 C   0  0  0  0  0  0  0  0  0  0  0  0
  -23.4030  -30.4750   21.6060 C   0  0  0  0  0  3  0  0  0  0  0  0
  -24.8590  -28.9150   20.1900 C   0  0  0  0  0  0  0  0  0  0  0  0
  -25.9430  -30.7950   21.4250 C   0  0  0  0  0  2  0  0  0  0  0  0
  -26.0290  -29.4090   20.7830 C   0  0  0  0  0  0  0  0  0  0  0  0
  -27.2180  -28.6110   20.7690 C   0  0  0  0  0  3  0  0  0  0  0  0
  -26.0270  -26.8480   19.6080 C   0  0  0  0  0  3  0  0  0  0  0  0
  -24.8620  -27.6420   19.5930 C   0  0  0  0  0  3  0  0  0  0  0  0
  -23.6220  -29.7930   20.2290 C   0  0  0  0  0  2  0  0  0  0  0  0
  -24.6690  -31.0680   22.1500 N   0  0  0  0  0  0  0  0  0  0  0  0
  -23.5120  -32.1530   23.7800 O   0  0  0  0  0  0  0  0  0  0  0  0
  -22.7380  -29.4620   22.5700 C   0  0  0  0  0  0  0  0  0  0  0  0
  -21.4110  -29.2840   22.4410 N   0  0  0  0  0  0  0  0  0  0  0  0
  -23.4160  -28.8360   23.3890 O   0  0  0  0  0  0  0  0  0  0  0  0
  -20.9250  -29.8420   21.7540 H   0  0  0  0  0  0  0  0  0  0  0  0
  -18.0350  -28.0780   22.9300 C   0  0  0  0  0  0  0  0  0  0  0  0
  -20.5920  -28.3440   23.2080 C   0  0  0  0  0  3  0  0  0  0  0  0
  -20.6980  -26.9130   22.6320 C   0  0  0  0  0  2  0  0  0  0  0  0
  -19.6010  -26.5880   21.6140 C   0  0  0  0  0  2  0  0  0  0  0  0
  -18.2170  -26.7280   22.2540 C   0  0  0  0  0  2  0  0  0  0  0  0
  -19.1500  -28.8430   23.3640 C   0  0  0  0  0  0  0  0  0  0  0  0
  -18.9250  -30.1050   23.9550 C   0  0  0  0  0  3  0  0  0  0  0  0
  -17.6180  -30.6000   24.1200 C   0  0  0  0  0  3  0  0  0  0  0  0
  -16.5180  -29.8330   23.7020 C   0  0  0  0  0  3  0  0  0  0  0  0
  -16.7260  -28.5730   23.1120 C   0  0  0  0  0  3  0  0  0  0  0  0
  -25.8770  -32.5150   23.8770 C   0  0  0  0  0  3  0  0  0  0  0  0
  -26.3830  -31.7500   25.1620 C   0  0  1  0  0  0  0  0  0  0  0  0
  -25.2820  -31.5240   26.2240 C   0  0  0  0  0  1  0  0  0  0  0  0
  -26.9640  -30.3680   24.7830 C   0  0  0  0  0  1  0  0  0  0  0  0
  -27.5310  -32.5460   25.8260 C   0  0  0  0  0  1  0  0  0  0  0  0
  -25.5650  -33.9150   24.1990 N   0  0  0  0  0  0  0  0  0  0  0  0
  -25.9020  -34.9660   23.4400 C   0  0  0  0  0  0  0  0  0  0  0  0
  -26.5770  -34.8600   22.4130 O   0  0  0  0  0  0  0  0  0  0  0  0
  -24.9630  -34.0720   24.9940 H   0  0  0  0  0  0  0  0  0  0  0  0
  -24.1770  -36.7630   23.0780 C   0  0  0  0  0  1  0  0  0  0  0  0
  -25.4160  -36.3580   23.8930 C   0  0  0  0  0  3  0  0  0  0  0  0
  -27.5490  -37.2430   24.7270 C   0  0  0  0  0  1  0  0  0  0  0  0
  -26.4500  -37.4090   23.7800 N   0  0  0  0  0  0  0  0  0  0  0  0
  -26.0440  -38.3300   23.9220 H   0  0  0  0  0  0  0  0  0  0  0  0
  1  2  1  0
  2  4  1  0
  3  1  2  0
  5  8  1  0
  7  5  2  0
  7 10  1  0
  8  2  1  0
  8  6  2  0
  9  6  1  0
  9 21  1  0
 10  9  2  0
 11  7  1  0
 12 10  1  0
 13 21  1  0
 14 19  1  0
 15 16  1  0
 15 14  1  0
 17 16  1  0
 17 26  1  0
 17 18  1  0
 19 13  1  0
 19 18  1  0
 20 13  2  0
 21 22  1  0
 23 24  2  0
 24 43  1  0
 25 24  1  0
 25 28  1  0
 26 23  1  0
 26 27  1  0
 27 25  2  0
 28 29  1  0
 29 30  2  0
 31 34  1  0
 31 30  1  0
 32 31  2  0
 33 32  1  0
 33 28  2  0
 34 35  1  0
 35 36  1  0
 36 37  2  0
 38 37  1  0
 38 42  1  0
 39 38  2  0
 40 35  2  0
 40 39  1  0
 41 40  1  0
 43 44  1  0
 44 47  1  0
 44 46  1  0
 45 43  2  0
 48 49  1  0
 48 23  1  0
 50 48  1  0
 51  1  1  0
 51 52  1  0
 53 55  1  0
 53 52  1  0
 54 65  2  0
 55 60  1  0
 56 64  1  0
 56 66  1  0
 57 63  1  0
 57 59  1  0
 58 64  1  0
 59 58  1  0
 60 59  2  0
 61 55  2  0
 62 61  1  0
 62 57  2  0
 63 56  1  0
 64 54  1  0
 66 68  2  0
 67 66  1  0
 69 67  1  0
 70 79  2  0
 70 75  1  0
 71 67  1  0
 71 75  1  0
 72 71  1  0
 73 74  1  0
 73 72  1  0
 74 70  1  0
 75 76  2  0
 76 77  1  0
 78 77  2  0
 79 78  1  0
 80 54  1  0
 80 85  1  0
 80 81  1  0
 81 84  1  1
 81 82  1  0
 83 81  1  0
 85 88  1  0
 86 90  1  0
 86 85  1  0
 87 86  2  0
 90 89  1  0
 92 90  1  0
 92 93  1  0
 92 91  1  0
M  ISO  4  13 100  21 100  52 101  53 101
M  END
>  <TORSDO>  (13) 
F 19

>  <SCORE>  (13) 
-14.288

>  <name>  (13) 
12

>  <ligand_id>  (13) 
12

>  <original_smiles>  (13) 
[H]c1c([H])c([H])c2c(c1[H])C([H])([H])C([H])([H])C([H])([H])C2([H])N([H])C(=O)C1([H])N(C(=O)C([H])(N([H])C(=O)C([H])(N([H])C([H])([H])[H])C([H])([H])[H])C(C([H])([H])[H])(C([H])([H])[H])C([H])([H])[H])C([H])([H])c2c([H])c(OC([H])([H])C([H])([H])C(=O)N([H])c3c([H])c(N([H])C(=O)N4C([H])([H])C([H])([H])C([H])([H])C([H])(n5nc(-c6c([H])c([H])c(Oc7c([H])c([H])c(F)c([H])c7F)c([H])c6[H])c(C(=O)N([H])[H])c5N([H])[H])C4([H])[H])c(F)c(C([H])([H])[H])c3[H])c([H])c([H])c2C1([H])[H]

>  <smiles>  (13) 
[H]c1c([H])c([H])c2c(c1[H])C([H])([H])C([H])([H])C([H])([H])C2([H])N([H])C(=O)C1([H])N(C(=O)C([H])(N([H])C(=O)C([H])(N([H])C([H])([H])[H])C([H])([H])[H])C(C([H])([H])[H])(C([H])([H])[H])C([H])([H])[H])C([H])([H])c2c([H])c(OC([H])([H])C([H])([H])C(=O)N([H])c3c([H])c(N([H])C(=O)N4C([H])([H])C([H])([H])C([H])([H])C([H])(n5nc(-c6c([H])c([H])c(Oc7c([H])c([H])c(F)c([H])c7F)c([H])c6[H])c(C(=O)N([H])[H])c5N([H])[H])C4([H])[H])c(F)c(C([H])([H])[H])c3[H])c([H])c([H])c2C1([H])[H]

$$$$
13:0:0
     RDKit          3D

 93101  0  0  1  0  0  0  0  0999 V2000
  -29.0190  -22.3690   20.8230 C   0  0  0  0  0  0  0  0  0  0  0  0
  -29.2420  -21.1550   20.1830 N   0  0  0  0  0  0  0  0  0  0  0  0
  -28.9230  -22.4060   22.0520 O   0  0  0  0  0  0  0  0  0  0  0  0
  -29.0550  -21.1530   19.1910 H   0  0  0  0  0  0  0  0  0  0  0  0
  -31.3290  -17.5520   21.5460 C   0  0  0  0  0  3  0  0  0  0  0  0
  -31.7100  -18.8470   21.9450 C   0  0  0  0  0  3  0  0  0  0  0  0
  -30.2080  -17.3430   20.7150 C   0  0  0  0  0  0  0  0  0  0  0  0
  -29.8640  -19.8970   20.6910 C   0  0  0  0  0  0  0  0  0  0  0  0
  -31.0070  -19.9950   21.5260 C   0  0  0  0  0  0  0  0  0  0  0  0
  -29.4830  -18.5410   20.2970 C   0  0  0  0  0  0  0  0  0  0  0  0
  -31.4950  -21.2020   21.9010 F   0  0  0  0  0  0  0  0  0  0  0  0
  -28.4030  -18.3850   19.4930 F   0  0  0  0  0  0  0  0  0  0  0  0
  -30.5830  -14.7990   20.2310 C   0  0  0  0  0  0  0  0  0  0  0  0
  -30.3480  -12.5420   19.1750 C   0  0  0  0  0  2  0  0  0  0  0  0
  -29.3800  -12.6170   17.9750 C   0  0  0  0  0  2  0  0  0  0  0  0
  -27.9230  -12.4330   18.4420 C   0  0  0  0  0  2  0  0  0  0  0  0
  -27.5740  -13.3160   19.6700 C   0  0  0  0  0  3  0  0  0  0  0  0
  -28.6590  -13.2290   20.7650 C   0  0  0  0  0  2  0  0  0  0  0  0
  -29.9370  -13.5870   20.1370 N   0  0  0  0  0  0  0  0  0  0  0  0
  -31.7730  -14.8830   19.9140 O   0  0  0  0  0  0  0  0  0  0  0  0
  -29.8150  -15.9430   20.4080 N   0  0  0  0  0  0  0  0  0  0  0  0
  -28.8220  -15.7880   20.3520 H   0  0  0  0  0  0  0  0  0  0  0  0
  -25.2010  -13.9000   20.4540 C   0  0  0  0  0  0  0  0  0  0  0  0
  -24.1460  -13.1220   20.8420 C   0  0  0  0  0  0  0  0  0  0  0  0
  -24.6110  -11.7710   20.7940 C   0  0  0  0  0  0  0  0  0  0  0  0
  -26.2420  -13.0230   20.1900 N   0  0  0  0  0  0  0  0  0  0  0  0
  -25.8950  -11.7380   20.4570 N   0  0  0  0  0  0  0  0  0  0  0  0
  -23.8910  -10.5060   20.9880 C   0  0  0  0  0  0  0  0  0  0  0  0
  -24.3250   -9.5460   21.9280 C   0  0  0  0  0  3  0  0  0  0  0  0
  -23.6050   -8.3460   22.1110 C   0  0  0  0  0  3  0  0  0  0  0  0
  -22.4360   -8.0980   21.3520 C   0  0  0  0  0  0  0  0  0  0  0  0
  -22.0210   -9.0480   20.4020 C   0  0  0  0  0  3  0  0  0  0  0  0
  -22.7420  -10.2380   20.2190 C   0  0  0  0  0  3  0  0  0  0  0  0
  -21.6860   -6.9500   21.4450 O   0  0  0  0  0  0  0  0  0  0  0  0
  -21.6230   -6.2230   22.6060 C   0  0  0  0  0  0  0  0  0  0  0  0
  -21.1500   -6.7830   23.8120 C   0  0  0  0  0  3  0  0  0  0  0  0
  -21.0380   -5.9810   24.9650 C   0  0  0  0  0  3  0  0  0  0  0  0
  -21.3870   -4.6190   24.9120 C   0  0  0  0  0  0  0  0  0  0  0  0
  -21.8540   -4.0570   23.7120 C   0  0  0  0  0  3  0  0  0  0  0  0
  -21.9680   -4.8560   22.5610 C   0  0  0  0  0  0  0  0  0  0  0  0
  -22.3980   -4.3050   21.4000 F   0  0  0  0  0  0  0  0  0  0  0  0
  -21.2720   -3.8450   26.0180 F   0  0  0  0  0  0  0  0  0  0  0  0
  -22.7540  -13.5940   21.1420 C   0  0  0  0  0  0  0  0  0  0  0  0
  -22.0390  -12.8840   22.0080 N   0  0  0  0  0  0  0  0  0  0  0  0
  -22.3090  -14.6290   20.6470 O   0  0  0  0  0  0  0  0  0  0  0  0
  -22.4130  -12.0490   22.4320 H   0  0  0  0  0  0  0  0  0  0  0  0
  -21.1030  -13.1810   22.2490 H   0  0  0  0  0  0  0  0  0  0  0  0
  -25.3580  -15.2720   20.2770 N   0  0  0  0  0  0  0  0  0  0  0  0
  -24.5870  -15.9180   20.4010 H   0  0  0  0  0  0  0  0  0  0  0  0
  -26.1820  -15.7130   19.8890 H   0  0  0  0  0  0  0  0  0  0  0  0
  -28.8350  -23.7570   20.0330 C   0  0  0  0  0  2  0  0  0  0  0  0
  -28.1200  -25.0350   20.7350 C   0  0  0  0  0  2  0  0  0  0  0  0
  -28.3170  -26.4520   20.2630 O   0  0  0  0  0  0  0  0  0  0  0  0
  -24.5640  -31.9100   23.2500 C   0  0  0  0  0  0  0  0  0  0  0  0
  -27.2100  -27.3260   20.2380 C   0  0  0  0  0  0  0  0  0  0  0  0
  -23.3790  -30.5090   21.5970 C   0  0  0  0  0  3  0  0  0  0  0  0
  -24.8490  -28.9560   20.1870 C   0  0  0  0  0  0  0  0  0  0  0  0
  -25.9220  -30.8270   21.4400 C   0  0  0  0  0  2  0  0  0  0  0  0
  -26.0120  -29.4450   20.7970 C   0  0  0  0  0  0  0  0  0  0  0  0
  -27.1980  -28.6430   20.8070 C   0  0  0  0  0  3  0  0  0  0  0  0
  -26.0280  -26.9000   19.5980 C   0  0  0  0  0  3  0  0  0  0  0  0
  -24.8610  -27.6910   19.5740 C   0  0  0  0  0  3  0  0  0  0  0  0
  -23.6110  -29.8310   20.2200 C   0  0  0  0  0  2  0  0  0  0  0  0
  -24.6400  -31.1010   22.1520 N   0  0  0  0  0  0  0  0  0  0  0  0
  -23.4740  -32.1840   23.7740 O   0  0  0  0  0  0  0  0  0  0  0  0
  -22.7070  -29.4920   22.5510 C   0  0  0  0  0  0  0  0  0  0  0  0
  -21.3820  -29.3120   22.4140 N   0  0  0  0  0  0  0  0  0  0  0  0
  -23.3780  -28.8690   23.3790 O   0  0  0  0  0  0  0  0  0  0  0  0
  -20.9010  -29.8690   21.7210 H   0  0  0  0  0  0  0  0  0  0  0  0
  -18.0000  -28.1210   22.8930 C   0  0  0  0  0  0  0  0  0  0  0  0
  -20.5580  -28.3730   23.1760 C   0  0  0  0  0  3  0  0  0  0  0  0
  -20.6600  -26.9450   22.5930 C   0  0  0  0  0  2  0  0  0  0  0  0
  -19.5610  -26.6320   21.5720 C   0  0  0  0  0  2  0  0  0  0  0  0
  -18.1770  -26.7750   22.2120 C   0  0  0  0  0  2  0  0  0  0  0  0
  -19.1190  -28.8790   23.3320 C   0  0  0  0  0  0  0  0  0  0  0  0
  -18.9010  -30.1380   23.9310 C   0  0  0  0  0  3  0  0  0  0  0  0
  -17.5960  -30.6410   24.0940 C   0  0  0  0  0  3  0  0  0  0  0  0
  -16.4910  -29.8810   23.6720 C   0  0  0  0  0  3  0  0  0  0  0  0
  -16.6950  -28.6220   23.0770 C   0  0  0  0  0  3  0  0  0  0  0  0
  -25.8360  -32.5460   23.8870 C   0  0  0  0  0  3  0  0  0  0  0  0
  -26.3280  -31.7890   25.1800 C   0  0  1  0  0  0  0  0  0  0  0  0
  -25.2160  -31.5660   26.2330 C   0  0  0  0  0  1  0  0  0  0  0  0
  -26.9150  -30.4070   24.8160 C   0  0  0  0  0  1  0  0  0  0  0  0
  -27.4700  -32.5870   25.8530 C   0  0  0  0  0  1  0  0  0  0  0  0
  -25.5260  -33.9490   24.1960 N   0  0  0  0  0  0  0  0  0  0  0  0
  -25.8800  -34.9930   23.4350 C   0  0  0  0  0  0  0  0  0  0  0  0
  -26.5700  -34.8770   22.4200 O   0  0  0  0  0  0  0  0  0  0  0  0
  -24.9150  -34.1130   24.9820 H   0  0  0  0  0  0  0  0  0  0  0  0
  -24.1780  -36.8010   23.0220 C   0  0  0  0  0  1  0  0  0  0  0  0
  -25.3920  -36.3890   23.8710 C   0  0  0  0  0  3  0  0  0  0  0  0
  -27.5060  -37.2630   24.7640 C   0  0  0  0  0  1  0  0  0  0  0  0
  -26.4370  -37.4330   23.7840 N   0  0  0  0  0  0  0  0  0  0  0  0
  -26.0350  -38.3590   23.9100 H   0  0  0  0  0  0  0  0  0  0  0  0
  1  3  2  0
  2  8  1  0
  2  1  1  0
  4  2  1  0
  5  6  1  0
  7  5  2  0
  8  9  1  0
  9 11  1  0
  9  6  2  0
 10  8  2  0
 10  7  1  0
 12 10  1  0
 13 21  1  0
 14 19  1  0
 15 16  1  0
 15 14  1  0
 17 16  1  0
 17 26  1  0
 17 18  1  0
 19 13  1  0
 19 18  1  0
 20 13  2  0
 21  7  1  0
 22 21  1  0
 23 24  2  0
 24 43  1  0
 25 24  1  0
 25 28  1  0
 26 23  1  0
 26 27  1  0
 27 25  2  0
 28 29  1  0
 29 30  2  0
 31 34  1  0
 31 30  1  0
 32 31  2  0
 33 32  1  0
 33 28  2  0
 34 35  1  0
 35 36  1  0
 36 37  2  0
 38 37  1  0
 38 42  1  0
 39 38  2  0
 40 35  2  0
 40 39  1  0
 41 40  1  0
 43 44  1  0
 44 47  1  0
 44 46  1  0
 45 43  2  0
 48 49  1  0
 48 23  1  0
 50 48  1  0
 51 52  1  0
 51  1  1  0
 53 52  1  0
 54 65  2  0
 55 53  1  0
 55 60  1  0
 56 64  1  0
 56 66  1  0
 57 63  1  0
 57 59  1  0
 58 64  1  0
 59 60  2  0
 59 58  1  0
 61 55  2  0
 62 61  1  0
 62 57  2  0
 63 56  1  0
 64 54  1  0
 66 68  2  0
 67 66  1  0
 69 67  1  0
 70 79  2  0
 70 75  1  0
 71 67  1  0
 71 75  1  0
 72 71  1  0
 73 74  1  0
 73 72  1  0
 74 70  1  0
 75 76  2  0
 76 77  1  0
 78 77  2  0
 79 78  1  0
 80 54  1  0
 80 85  1  0
 80 81  1  0
 81 84  1  1
 81 82  1  0
 83 81  1  0
 85 88  1  0
 86 90  1  0
 86 85  1  0
 87 86  2  0
 90 89  1  0
 92 90  1  0
 92 93  1  0
 92 91  1  0
M  ISO  4  13 100  21 100  52 101  53 101
M  END
>  <TORSDO>  (14) 
F 19

>  <SCORE>  (14) 
-14.664

>  <name>  (14) 
13

>  <ligand_id>  (14) 
13

>  <original_smiles>  (14) 
[H]c1c([H])c([H])c2c(c1[H])C([H])([H])C([H])([H])C([H])([H])C2([H])N([H])C(=O)C1([H])N(C(=O)C([H])(N([H])C(=O)C([H])(N([H])C([H])([H])[H])C([H])([H])[H])C(C([H])([H])[H])(C([H])([H])[H])C([H])([H])[H])C([H])([H])c2c([H])c(OC([H])([H])C([H])([H])C(=O)N([H])c3c(F)c([H])c([H])c(N([H])C(=O)N4C([H])([H])C([H])([H])C([H])([H])C([H])(n5nc(-c6c([H])c([H])c(Oc7c([H])c([H])c(F)c([H])c7F)c([H])c6[H])c(C(=O)N([H])[H])c5N([H])[H])C4([H])[H])c3F)c([H])c([H])c2C1([H])[H]

>  <smiles>  (14) 
[H]c1c([H])c([H])c2c(c1[H])C([H])([H])C([H])([H])C([H])([H])C2([H])N([H])C(=O)C1([H])N(C(=O)C([H])(N([H])C(=O)C([H])(N([H])C([H])([H])[H])C([H])([H])[H])C(C([H])([H])[H])(C([H])([H])[H])C([H])([H])[H])C([H])([H])c2c([H])c(OC([H])([H])C([H])([H])C(=O)N([H])c3c(F)c([H])c([H])c(N([H])C(=O)N4C([H])([H])C([H])([H])C([H])([H])C([H])(n5nc(-c6c([H])c([H])c(Oc7c([H])c([H])c(F)c([H])c7F)c([H])c6[H])c(C(=O)N([H])[H])c5N([H])[H])C4([H])[H])c3F)c([H])c([H])c2C1([H])[H]

$$$$
14:0:0
     RDKit          3D

 92100  0  0  1  0  0  0  0  0999 V2000
  -30.7860  -19.2450   18.3060 C   0  0  0  0  0  3  0  0  0  0  0  0
  -29.1640  -19.0400   20.4970 C   0  0  0  0  0  3  0  0  0  0  0  0
  -30.1440  -20.4250   18.7580 C   0  0  0  0  0  0  0  0  0  0  0  0
  -29.3060  -20.4310   19.9130 C   0  0  0  0  0  0  0  0  0  0  0  0
  -29.8310  -17.7590   20.0320 C   0  0  0  0  0  0  0  0  0  0  0  0
  -30.6370  -17.9730   18.8910 C   0  0  0  0  0  0  0  0  0  0  0  0
  -30.3390  -21.6500   17.8760 C   0  0  0  0  0  1  0  0  0  0  0  0
  -31.2340  -16.9350   18.2610 F   0  0  0  0  0  0  0  0  0  0  0  0
  -30.4470  -15.0610   20.3290 C   0  0  0  0  0  0  0  0  0  0  0  0
  -30.3550  -12.6710   19.4400 C   0  0  0  0  0  2  0  0  0  0  0  0
  -29.4350  -12.5990   18.1980 C   0  0  0  0  0  2  0  0  0  0  0  0
  -27.9740  -12.3700   18.6280 C   0  0  0  0  0  2  0  0  0  0  0  0
  -27.5550  -13.3000   19.7970 C   0  0  0  0  0  3  0  0  0  0  0  0
  -28.6050  -13.3460   20.9280 C   0  0  0  0  0  2  0  0  0  0  0  0
  -29.8650  -13.7830   20.3150 N   0  0  0  0  0  0  0  0  0  0  0  0
  -31.6550  -15.0850   20.0700 O   0  0  0  0  0  0  0  0  0  0  0  0
  -29.6810  -16.2750   20.5120 N   0  0  0  0  0  0  0  0  0  0  0  0
  -28.7810  -16.0910   20.9270 H   0  0  0  0  0  0  0  0  0  0  0  0
  -25.1780  -13.8680   20.5420 C   0  0  0  0  0  0  0  0  0  0  0  0
  -24.1150  -13.0930   20.9120 C   0  0  0  0  0  0  0  0  0  0  0  0
  -24.5800  -11.7420   20.8770 C   0  0  0  0  0  0  0  0  0  0  0  0
  -26.2210  -12.9930   20.2960 N   0  0  0  0  0  0  0  0  0  0  0  0
  -25.8710  -11.7070   20.5640 N   0  0  0  0  0  0  0  0  0  0  0  0
  -23.8520  -10.4800   21.0630 C   0  0  0  0  0  0  0  0  0  0  0  0
  -24.2880   -9.5050   21.9890 C   0  0  0  0  0  3  0  0  0  0  0  0
  -23.5600   -8.3090   22.1640 C   0  0  0  0  0  3  0  0  0  0  0  0
  -22.3830   -8.0780   21.4150 C   0  0  0  0  0  0  0  0  0  0  0  0
  -21.9640   -9.0420   20.4800 C   0  0  0  0  0  3  0  0  0  0  0  0
  -22.6930  -10.2300   20.3030 C   0  0  0  0  0  3  0  0  0  0  0  0
  -21.6250   -6.9350   21.5010 O   0  0  0  0  0  0  0  0  0  0  0  0
  -21.5850   -6.1820   22.6470 C   0  0  0  0  0  0  0  0  0  0  0  0
  -21.1640   -6.7250   23.8810 C   0  0  0  0  0  3  0  0  0  0  0  0
  -21.0740   -5.8980   25.0190 C   0  0  0  0  0  3  0  0  0  0  0  0
  -21.3910   -4.5310   24.9240 C   0  0  0  0  0  0  0  0  0  0  0  0
  -21.8040   -3.9870   23.6950 C   0  0  0  0  0  3  0  0  0  0  0  0
  -21.8980   -4.8110   22.5600 C   0  0  0  0  0  0  0  0  0  0  0  0
  -22.2770   -4.2780   21.3730 F   0  0  0  0  0  0  0  0  0  0  0  0
  -21.2960   -3.7350   26.0150 F   0  0  0  0  0  0  0  0  0  0  0  0
  -22.7180  -13.5720   21.1800 C   0  0  0  0  0  0  0  0  0  0  0  0
  -21.9890  -12.8790   22.0470 N   0  0  0  0  0  0  0  0  0  0  0  0
  -22.2820  -14.5950   20.6560 O   0  0  0  0  0  0  0  0  0  0  0  0
  -22.3550  -12.0540   22.4980 H   0  0  0  0  0  0  0  0  0  0  0  0
  -21.0510  -13.1840   22.2660 H   0  0  0  0  0  0  0  0  0  0  0  0
  -25.3420  -15.2390   20.3630 N   0  0  0  0  0  0  0  0  0  0  0  0
  -24.5660  -15.8860   20.4530 H   0  0  0  0  0  0  0  0  0  0  0  0
  -26.1770  -15.6700   19.9870 H   0  0  0  0  0  0  0  0  0  0  0  0
  -28.8810  -23.1850   20.2490 C   0  0  0  0  0  0  0  0  0  0  0  0
  -28.5600  -21.7690   20.2690 N   0  0  0  0  0  0  0  0  0  0  0  0
  -30.0670  -23.5080   20.3400 O   0  0  0  0  0  0  0  0  0  0  0  0
  -27.5810  -21.6230   20.4790 H   0  0  0  0  0  0  0  0  0  0  0  0
  -27.7970  -24.4770   20.1490 C   0  0  0  0  0  2  0  0  0  0  0  0
  -28.1640  -26.0250   20.2610 O   0  0  0  0  0  0  0  0  0  0  0  0
  -24.6140  -31.8550   23.2500 C   0  0  0  0  0  0  0  0  0  0  0  0
  -27.1490  -27.0760   20.2020 C   0  0  0  0  0  0  0  0  0  0  0  0
  -23.4100  -30.4750   21.6060 C   0  0  0  0  0  3  0  0  0  0  0  0
  -24.8490  -28.8900   20.1740 C   0  0  0  0  0  0  0  0  0  0  0  0
  -25.9720  -30.7020   21.4530 C   0  0  0  0  0  2  0  0  0  0  0  0
  -26.0350  -29.3080   20.7900 C   0  0  0  0  0  0  0  0  0  0  0  0
  -27.1870  -28.4200   20.7830 C   0  0  0  0  0  3  0  0  0  0  0  0
  -25.9360  -26.7840   19.5420 C   0  0  0  0  0  3  0  0  0  0  0  0
  -24.8160  -27.6440   19.5330 C   0  0  0  0  0  3  0  0  0  0  0  0
  -23.6310  -29.8040   20.2240 C   0  0  0  0  0  2  0  0  0  0  0  0
  -24.6860  -31.0340   22.1570 N   0  0  0  0  0  0  0  0  0  0  0  0
  -23.5290  -32.1440   23.7780 O   0  0  0  0  0  0  0  0  0  0  0  0
  -22.7190  -29.4690   22.5620 C   0  0  0  0  0  0  0  0  0  0  0  0
  -21.3910  -29.3040   22.4310 N   0  0  0  0  0  0  0  0  0  0  0  0
  -23.3850  -28.8390   23.3890 O   0  0  0  0  0  0  0  0  0  0  0  0
  -20.9100  -29.8660   21.7430 H   0  0  0  0  0  0  0  0  0  0  0  0
  -18.0050  -28.1020   22.9160 C   0  0  0  0  0  0  0  0  0  0  0  0
  -20.5630  -28.3680   23.1980 C   0  0  0  0  0  3  0  0  0  0  0  0
  -20.6680  -26.9350   22.6270 C   0  0  0  0  0  2  0  0  0  0  0  0
  -19.5730  -26.6100   21.6050 C   0  0  0  0  0  2  0  0  0  0  0  0
  -18.1880  -26.7540   22.2400 C   0  0  0  0  0  2  0  0  0  0  0  0
  -19.1210  -28.8670   23.3510 C   0  0  0  0  0  0  0  0  0  0  0  0
  -18.8940  -30.1280   23.9460 C   0  0  0  0  0  3  0  0  0  0  0  0
  -17.5880  -30.6240   24.1060 C   0  0  0  0  0  3  0  0  0  0  0  0
  -16.4870  -29.8570   23.6860 C   0  0  0  0  0  3  0  0  0  0  0  0
  -16.6980  -28.5980   23.0970 C   0  0  0  0  0  3  0  0  0  0  0  0
  -25.8930  -32.4840   23.8830 C   0  0  0  0  0  3  0  0  0  0  0  0
  -25.5860  -33.8840   24.2170 N   0  0  0  0  0  0  0  0  0  0  0  0
  -25.9140  -34.9410   23.4620 C   0  0  0  0  0  0  0  0  0  0  0  0
  -26.5690  -34.8380   22.4210 O   0  0  0  0  0  0  0  0  0  0  0  0
  -25.0000  -34.0370   25.0240 H   0  0  0  0  0  0  0  0  0  0  0  0
  -24.1800  -36.7410   23.1530 C   0  0  0  0  0  1  0  0  0  0  0  0
  -25.4400  -36.3320   23.9320 C   0  0  0  0  0  3  0  0  0  0  0  0
  -27.5950  -37.2140   24.7110 C   0  0  0  0  0  1  0  0  0  0  0  0
  -26.4710  -37.3840   23.7950 N   0  0  0  0  0  0  0  0  0  0  0  0
  -26.0690  -38.3050   23.9530 H   0  0  0  0  0  0  0  0  0  0  0  0
  -26.3920  -31.7120   25.1670 C   0  0  1  0  0  0  0  0  0  0  0  0
  -25.2890  -31.4890   26.2280 C   0  0  0  0  0  1  0  0  0  0  0  0
  -26.9620  -30.3260   24.7890 C   0  0  0  0  0  1  0  0  0  0  0  0
  -27.5490  -32.4960   25.8310 C   0  0  0  0  0  1  0  0  0  0  0  0
  1  3  2  0
  1  6  1  0
  3  4  1  0
  4 48  1  0
  4  2  2  0
  5  2  1  0
  5 17  1  0
  6  5  2  0
  7  3  1  0
  8  6  1  0
  9 17  1  0
 10 15  1  0
 11 12  1  0
 11 10  1  0
 13 12  1  0
 13 22  1  0
 13 14  1  0
 15  9  1  0
 15 14  1  0
 16  9  2  0
 17 18  1  0
 19 20  2  0
 20 39  1  0
 21 20  1  0
 21 24  1  0
 22 19  1  0
 22 23  1  0
 23 21  2  0
 24 25  1  0
 25 26  2  0
 27 30  1  0
 27 26  1  0
 28 27  2  0
 29 28  1  0
 29 24  2  0
 30 31  1  0
 31 32  1  0
 32 33  2  0
 34 33  1  0
 34 38  1  0
 35 34  2  0
 36 31  2  0
 36 35  1  0
 37 36  1  0
 39 40  1  0
 40 43  1  0
 40 42  1  0
 41 39  2  0
 44 45  1  0
 44 19  1  0
 46 44  1  0
 47 48  1  0
 47 49  2  0
 48 50  1  0
 51 47  1  0
 51 52  1  0
 53 64  2  0
 54 52  1  0
 54 59  1  0
 55 63  1  0
 55 65  1  0
 56 62  1  0
 56 58  1  0
 57 63  1  0
 58 57  1  0
 59 58  2  0
 60 54  2  0
 61 60  1  0
 61 56  2  0
 62 55  1  0
 63 53  1  0
 65 67  2  0
 66 65  1  0
 68 66  1  0
 69 78  2  0
 69 74  1  0
 70 66  1  0
 70 74  1  0
 71 70  1  0
 72 73  1  0
 72 71  1  0
 73 69  1  0
 74 75  2  0
 75 76  1  0
 77 76  2  0
 78 77  1  0
 79 53  1  0
 79 80  1  0
 79 89  1  0
 80 83  1  0
 81 85  1  0
 81 80  1  0
 82 81  2  0
 85 84  1  0
 87 85  1  0
 87 88  1  0
 87 86  1  0
 89 92  1  1
 89 90  1  0
 91 89  1  0
M  ISO  4   9 100  17 100  51 101  52 101
M  END
>  <TORSDO>  (15) 
F 18

>  <SCORE>  (15) 
-14.628

>  <name>  (15) 
14

>  <ligand_id>  (15) 
14

>  <original_smiles>  (15) 
[H]c1c([H])c([H])c2c(c1[H])C([H])([H])C([H])([H])C([H])([H])C2([H])N([H])C(=O)C1([H])N(C(=O)C([H])(N([H])C(=O)C([H])(N([H])C([H])([H])[H])C([H])([H])[H])C(C([H])([H])[H])(C([H])([H])[H])C([H])([H])[H])C([H])([H])c2c([H])c(OC([H])([H])C(=O)N([H])c3c([H])c(N([H])C(=O)N4C([H])([H])C([H])([H])C([H])([H])C([H])(n5nc(-c6c([H])c([H])c(Oc7c([H])c([H])c(F)c([H])c7F)c([H])c6[H])c(C(=O)N([H])[H])c5N([H])[H])C4([H])[H])c(F)c([H])c3C([H])([H])[H])c([H])c([H])c2C1([H])[H]

>  <smiles>  (15) 
[H]c1c([H])c([H])c2c(c1[H])C([H])([H])C([H])([H])C([H])([H])C2([H])N([H])C(=O)C1([H])N(C(=O)C([H])(N([H])C(=O)C([H])(N([H])C([H])([H])[H])C([H])([H])[H])C(C([H])([H])[H])(C([H])([H])[H])C([H])([H])[H])C([H])([H])c2c([H])c(OC([H])([H])C(=O)N([H])c3c([H])c(N([H])C(=O)N4C([H])([H])C([H])([H])C([H])([H])C([H])(n5nc(-c6c([H])c([H])c(Oc7c([H])c([H])c(F)c([H])c7F)c([H])c6[H])c(C(=O)N([H])[H])c5N([H])[H])C4([H])[H])c(F)c([H])c3C([H])([H])[H])c([H])c([H])c2C1([H])[H]

$$$$
15:0:0
     RDKit          3D

 90 98  0  0  1  0  0  0  0  0999 V2000
  -27.1660  -21.4700   19.9820 O   0  0  0  0  0  0  0  0  0  0  0  0
  -28.3870  -21.7810   22.1370 O   0  0  0  0  0  0  0  0  0  0  0  0
  -28.4470  -21.7290   20.6640 S   0  0  1  0  0  0  0  0  0  0  0  0
  -31.6370  -19.3910   19.2190 C   0  0  0  0  0  3  0  0  0  0  0  0
  -31.3480  -18.0420   19.5300 C   0  0  0  0  0  3  0  0  0  0  0  0
  -30.7710  -20.4520   19.5660 C   0  0  0  0  0  3  0  0  0  0  0  0
  -29.2910  -18.7850   20.5620 C   0  0  0  0  0  3  0  0  0  0  0  0
  -30.1680  -17.6480   20.2130 C   0  0  0  0  0  0  0  0  0  0  0  0
  -29.5700  -20.2020   20.2480 C   0  0  0  0  0  0  0  0  0  0  0  0
  -30.6550  -14.9950   20.2340 C   0  0  0  0  0  0  0  0  0  0  0  0
  -30.4780  -12.6750   19.2640 C   0  0  0  0  0  2  0  0  0  0  0  0
  -29.5370  -12.6870   18.0370 C   0  0  0  0  0  2  0  0  0  0  0  0
  -28.0720  -12.4920   18.4760 C   0  0  0  0  0  2  0  0  0  0  0  0
  -27.6880  -13.3920   19.6800 C   0  0  0  0  0  3  0  0  0  0  0  0
  -28.7540  -13.3700   20.7970 C   0  0  0  0  0  2  0  0  0  0  0  0
  -30.0320  -13.7540   20.1880 N   0  0  0  0  0  0  0  0  0  0  0  0
  -31.8460  -15.0410   19.9110 O   0  0  0  0  0  0  0  0  0  0  0  0
  -29.9020  -16.1690   20.4680 N   0  0  0  0  0  0  0  0  0  0  0  0
  -28.9690  -15.9660   20.7930 H   0  0  0  0  0  0  0  0  0  0  0  0
  -25.3110  -13.9570   20.4510 C   0  0  0  0  0  0  0  0  0  0  0  0
  -24.2550  -13.1750   20.8300 C   0  0  0  0  0  0  0  0  0  0  0  0
  -24.7240  -11.8270   20.7850 C   0  0  0  0  0  0  0  0  0  0  0  0
  -26.3550  -13.0860   20.1900 N   0  0  0  0  0  0  0  0  0  0  0  0
  -26.0110  -11.7980   20.4570 N   0  0  0  0  0  0  0  0  0  0  0  0
  -24.0060  -10.5600   20.9770 C   0  0  0  0  0  0  0  0  0  0  0  0
  -24.4340   -9.6030   21.9240 C   0  0  0  0  0  3  0  0  0  0  0  0
  -23.7140   -8.4020   22.1040 C   0  0  0  0  0  3  0  0  0  0  0  0
  -22.5520   -8.1480   21.3360 C   0  0  0  0  0  0  0  0  0  0  0  0
  -22.1440   -9.0940   20.3790 C   0  0  0  0  0  3  0  0  0  0  0  0
  -22.8640  -10.2860   20.1970 C   0  0  0  0  0  3  0  0  0  0  0  0
  -21.8050   -6.9980   21.4220 O   0  0  0  0  0  0  0  0  0  0  0  0
  -21.7200   -6.2840   22.5890 C   0  0  0  0  0  0  0  0  0  0  0  0
  -21.2160   -6.8540   23.7790 C   0  0  0  0  0  3  0  0  0  0  0  0
  -21.0810   -6.0620   24.9370 C   0  0  0  0  0  3  0  0  0  0  0  0
  -21.4380   -4.7010   24.9060 C   0  0  0  0  0  0  0  0  0  0  0  0
  -21.9350   -4.1300   23.7220 C   0  0  0  0  0  3  0  0  0  0  0  0
  -22.0720   -4.9190   22.5660 C   0  0  0  0  0  0  0  0  0  0  0  0
  -22.5310   -4.3580   21.4210 F   0  0  0  0  0  0  0  0  0  0  0  0
  -21.3010   -3.9380   26.0170 F   0  0  0  0  0  0  0  0  0  0  0  0
  -22.8590  -13.6440   21.1190 C   0  0  0  0  0  0  0  0  0  0  0  0
  -22.1420  -12.9430   21.9890 N   0  0  0  0  0  0  0  0  0  0  0  0
  -22.4130  -14.6720   20.6090 O   0  0  0  0  0  0  0  0  0  0  0  0
  -22.5170  -12.1180   22.4320 H   0  0  0  0  0  0  0  0  0  0  0  0
  -21.2040  -13.2400   22.2200 H   0  0  0  0  0  0  0  0  0  0  0  0
  -25.4650  -15.3290   20.2810 N   0  0  0  0  0  0  0  0  0  0  0  0
  -24.6860  -15.9700   20.3990 H   0  0  0  0  0  0  0  0  0  0  0  0
  -26.2930  -15.7760   19.9090 H   0  0  0  0  0  0  0  0  0  0  0  0
  -28.9950  -23.5620   20.0890 C   0  0  0  0  0  3  0  0  0  0  0  0
  -28.0030  -24.8560   20.3840 C   0  0  0  0  0  3  0  0  0  0  0  0
  -28.2840  -26.3440   20.0880 O   0  0  0  0  0  0  0  0  0  0  0  0
  -24.6560  -31.9260   23.1660 C   0  0  0  0  0  0  0  0  0  0  0  0
  -27.2130  -27.2940   20.0620 C   0  0  0  0  0  0  0  0  0  0  0  0
  -23.4400  -30.5470   21.5240 C   0  0  0  0  0  3  0  0  0  0  0  0
  -24.8750  -29.0000   20.0680 C   0  0  0  0  0  0  0  0  0  0  0  0
  -25.9880  -30.8330   21.3320 C   0  0  0  0  0  2  0  0  0  0  0  0
  -26.0580  -29.4530   20.6660 C   0  0  0  0  0  0  0  0  0  0  0  0
  -27.2300  -28.6160   20.6450 C   0  0  0  0  0  3  0  0  0  0  0  0
  -26.0090  -26.9360   19.4170 C   0  0  0  0  0  3  0  0  0  0  0  0
  -24.8610  -27.7520   19.4280 C   0  0  0  0  0  3  0  0  0  0  0  0
  -23.6450  -29.8880   20.1340 C   0  0  0  0  0  2  0  0  0  0  0  0
  -24.7150  -31.1220   22.0610 N   0  0  0  0  0  0  0  0  0  0  0  0
  -23.5760  -32.1980   23.7110 O   0  0  0  0  0  0  0  0  0  0  0  0
  -22.7800  -29.5220   22.4790 C   0  0  0  0  0  0  0  0  0  0  0  0
  -21.4510  -29.3510   22.3680 N   0  0  0  0  0  0  0  0  0  0  0  0
  -23.4650  -28.8850   23.2850 O   0  0  0  0  0  0  0  0  0  0  0  0
  -20.9560  -29.9160   21.6930 H   0  0  0  0  0  0  0  0  0  0  0  0
  -18.0770  -28.1480   22.9030 C   0  0  0  0  0  0  0  0  0  0  0  0
  -20.6390  -28.4040   23.1380 C   0  0  0  0  0  3  0  0  0  0  0  0
  -20.7320  -26.9790   22.5450 C   0  0  0  0  0  2  0  0  0  0  0  0
  -19.6150  -26.6700   21.5410 C   0  0  0  0  0  2  0  0  0  0  0  0
  -18.2430  -26.8070   22.2070 C   0  0  0  0  0  2  0  0  0  0  0  0
  -19.2020  -28.9050   23.3260 C   0  0  0  0  0  0  0  0  0  0  0  0
  -18.9930  -30.1590   23.9400 C   0  0  0  0  0  3  0  0  0  0  0  0
  -17.6900  -30.6560   24.1330 C   0  0  0  0  0  3  0  0  0  0  0  0
  -16.5790  -29.8970   23.7240 C   0  0  0  0  0  3  0  0  0  0  0  0
  -16.7740  -28.6450   23.1140 C   0  0  0  0  0  3  0  0  0  0  0  0
  -25.9410  -32.5560   23.7850 C   0  0  0  0  0  3  0  0  0  0  0  0
  -26.4690  -31.7740   25.0510 C   0  0  1  0  0  0  0  0  0  0  0  0
  -25.3850  -31.5270   26.1270 C   0  0  0  0  0  1  0  0  0  0  0  0
  -27.0500  -30.3990   24.6470 C   0  0  0  0  0  1  0  0  0  0  0  0
  -27.6220  -32.5650   25.7100 C   0  0  0  0  0  1  0  0  0  0  0  0
  -25.6280  -33.9490   24.1370 N   0  0  0  0  0  0  0  0  0  0  0  0
  -25.9420  -35.0150   23.3910 C   0  0  0  0  0  0  0  0  0  0  0  0
  -26.5940  -34.9300   22.3460 O   0  0  0  0  0  0  0  0  0  0  0  0
  -25.0440  -34.0900   24.9500 H   0  0  0  0  0  0  0  0  0  0  0  0
  -24.2050  -36.8130   23.0910 C   0  0  0  0  0  1  0  0  0  0  0  0
  -25.4580  -36.3960   23.8780 C   0  0  0  0  0  3  0  0  0  0  0  0
  -27.6000  -37.2750   24.6960 C   0  0  0  0  0  1  0  0  0  0  0  0
  -26.4860  -37.4530   23.7690 N   0  0  0  0  0  0  0  0  0  0  0  0
  -26.0790  -38.3700   23.9330 H   0  0  0  0  0  0  0  0  0  0  0  0
  1  3  2  0
  3  2  2  0
  4  5  2  0
  4  6  1  0
  5  8  1  0
  6  9  2  0
  8 18  1  0
  8  7  2  0
  9  7  1  0
  9  3  1  0
 10 18  1  0
 11 16  1  0
 12 13  1  0
 12 11  1  0
 14 13  1  0
 14 23  1  0
 14 15  1  0
 16 10  1  0
 16 15  1  0
 17 10  2  0
 18 19  1  0
 20 21  2  0
 21 40  1  0
 22 21  1  0
 22 25  1  0
 23 20  1  0
 23 24  1  0
 24 22  2  0
 25 26  1  0
 26 27  2  0
 28 31  1  0
 28 27  1  0
 29 28  2  0
 30 29  1  0
 30 25  2  0
 31 32  1  0
 32 33  1  0
 33 34  2  0
 35 34  1  0
 35 39  1  0
 36 35  2  0
 37 32  2  0
 37 36  1  0
 38 37  1  0
 40 41  1  0
 41 44  1  0
 41 43  1  0
 42 40  2  0
 45 46  1  0
 45 20  1  0
 47 45  1  0
 48 49  2  0
  3 48  1  6
 50 49  1  0
 51 62  2  0
 52 50  1  0
 52 57  1  0
 53 61  1  0
 53 63  1  0
 54 60  1  0
 54 56  1  0
 55 61  1  0
 56 55  1  0
 57 56  2  0
 58 59  1  0
 58 52  2  0
 59 54  2  0
 60 53  1  0
 61 51  1  0
 63 65  2  0
 64 63  1  0
 66 64  1  0
 67 76  2  0
 67 72  1  0
 68 64  1  0
 68 72  1  0
 69 68  1  0
 70 71  1  0
 70 69  1  0
 71 67  1  0
 72 73  2  0
 73 74  1  0
 75 74  2  0
 76 75  1  0
 77 51  1  0
 77 82  1  0
 77 78  1  0
 78 81  1  1
 78 79  1  0
 80 78  1  0
 82 85  1  0
 83 87  1  0
 83 82  1  0
 84 83  2  0
 87 86  1  0
 89 87  1  0
 89 90  1  0
 89 88  1  0
M  ISO  4  10 100  18 100  49 101  50 101
M  END
>  <TORSDO>  (16) 
F 19

>  <SCORE>  (16) 
-14.794

>  <name>  (16) 
15

>  <ligand_id>  (16) 
15

>  <original_smiles>  (16) 
[H]c1c([H])c([H])c2c(c1[H])C([H])([H])C([H])([H])C([H])([H])C2([H])N([H])C(=O)C1([H])N(C(=O)C([H])(N([H])C(=O)C([H])(N([H])C([H])([H])[H])C([H])([H])[H])C(C([H])([H])[H])(C([H])([H])[H])C([H])([H])[H])C([H])([H])c2c([H])c(OC([H])([H])C([H])([H])S(=O)(=O)c3c([H])c([H])c([H])c(N([H])C(=O)N4C([H])([H])C([H])([H])C([H])([H])C([H])(n5nc(-c6c([H])c([H])c(Oc7c([H])c([H])c(F)c([H])c7F)c([H])c6[H])c(C(=O)N([H])[H])c5N([H])[H])C4([H])[H])c3[H])c([H])c([H])c2C1([H])[H]

>  <smiles>  (16) 
[H]c1c([H])c([H])c2c(c1[H])C([H])([H])C([H])([H])C([H])([H])C2([H])N([H])C(=O)C1([H])N(C(=O)C([H])(N([H])C(=O)C([H])(N([H])C([H])([H])[H])C([H])([H])[H])C(C([H])([H])[H])(C([H])([H])[H])C([H])([H])[H])C([H])([H])c2c([H])c(OC([H])([H])C([H])([H])S(=O)(=O)c3c([H])c([H])c([H])c(N([H])C(=O)N4C([H])([H])C([H])([H])C([H])([H])C([H])(n5nc(-c6c([H])c([H])c(Oc7c([H])c([H])c(F)c([H])c7F)c([H])c6[H])c(C(=O)N([H])[H])c5N([H])[H])C4([H])[H])c3[H])c([H])c([H])c2C1([H])[H]

$$$$
16:0:0
     RDKit          3D

 95103  0  0  1  0  0  0  0  0999 V2000
  -29.3780  -18.7410   20.2110 C   0  0  0  0  0  3  0  0  0  0  0  0
  -31.0560  -17.7780   21.6910 C   0  0  0  0  0  3  0  0  0  0  0  0
  -30.0690  -17.5390   20.7130 C   0  0  0  0  0  0  0  0  0  0  0  0
  -29.6490  -20.1140   20.6710 C   0  0  0  0  0  0  0  0  0  0  0  0
  -30.6520  -20.2140   21.6740 C   0  0  0  0  0  0  0  0  0  0  0  0
  -31.3300  -19.0740   22.1640 C   0  0  0  0  0  0  0  0  0  0  0  0
  -32.2760  -19.2360   23.1240 F   0  0  0  0  0  0  0  0  0  0  0  0
  -30.5930  -14.9600   20.3400 C   0  0  0  0  0  0  0  0  0  0  0  0
  -30.4660  -12.6450   19.3720 C   0  0  0  0  0  2  0  0  0  0  0  0
  -29.5250  -12.6340   18.1480 C   0  0  0  0  0  2  0  0  0  0  0  0
  -28.0600  -12.4310   18.5850 C   0  0  0  0  0  2  0  0  0  0  0  0
  -27.6580  -13.3460   19.7730 C   0  0  0  0  0  3  0  0  0  0  0  0
  -28.7190  -13.3320   20.8930 C   0  0  0  0  0  2  0  0  0  0  0  0
  -29.9930  -13.7180   20.2750 N   0  0  0  0  0  0  0  0  0  0  0  0
  -31.8010  -15.0510   20.1030 O   0  0  0  0  0  0  0  0  0  0  0  0
  -29.7780  -16.1030   20.3740 N   0  0  0  0  0  0  0  0  0  0  0  0
  -28.8020  -15.8970   20.2290 H   0  0  0  0  0  0  0  0  0  0  0  0
  -25.2750  -13.9100   20.5270 C   0  0  0  0  0  0  0  0  0  0  0  0
  -24.2180  -13.1230   20.8940 C   0  0  0  0  0  0  0  0  0  0  0  0
  -24.6910  -11.7760   20.8460 C   0  0  0  0  0  0  0  0  0  0  0  0
  -26.3230  -13.0400   20.2740 N   0  0  0  0  0  0  0  0  0  0  0  0
  -25.9810  -11.7520   20.5310 N   0  0  0  0  0  0  0  0  0  0  0  0
  -23.9750  -10.5060   21.0240 C   0  0  0  0  0  0  0  0  0  0  0  0
  -24.4060   -9.5390   21.9580 C   0  0  0  0  0  3  0  0  0  0  0  0
  -23.6870   -8.3350   22.1240 C   0  0  0  0  0  3  0  0  0  0  0  0
  -22.5250   -8.0900   21.3540 C   0  0  0  0  0  0  0  0  0  0  0  0
  -22.1140   -9.0460   20.4090 C   0  0  0  0  0  3  0  0  0  0  0  0
  -22.8330  -10.2410   20.2420 C   0  0  0  0  0  3  0  0  0  0  0  0
  -21.7800   -6.9390   21.4300 O   0  0  0  0  0  0  0  0  0  0  0  0
  -21.7030   -6.2050   22.5870 C   0  0  0  0  0  0  0  0  0  0  0  0
  -21.2040   -6.7580   23.7870 C   0  0  0  0  0  3  0  0  0  0  0  0
  -21.0760   -5.9500   24.9340 C   0  0  0  0  0  3  0  0  0  0  0  0
  -21.4360   -4.5900   24.8830 C   0  0  0  0  0  0  0  0  0  0  0  0
  -21.9280   -4.0370   23.6870 C   0  0  0  0  0  3  0  0  0  0  0  0
  -22.0580   -4.8420   22.5420 C   0  0  0  0  0  0  0  0  0  0  0  0
  -22.5120   -4.2980   21.3870 F   0  0  0  0  0  0  0  0  0  0  0  0
  -21.3070   -3.8120   25.9820 F   0  0  0  0  0  0  0  0  0  0  0  0
  -22.8180  -13.5870   21.1730 C   0  0  0  0  0  0  0  0  0  0  0  0
  -22.0930  -12.8710   22.0270 N   0  0  0  0  0  0  0  0  0  0  0  0
  -22.3740  -14.6190   20.6700 O   0  0  0  0  0  0  0  0  0  0  0  0
  -22.4650  -12.0370   22.4550 H   0  0  0  0  0  0  0  0  0  0  0  0
  -21.1540  -13.1630   22.2570 H   0  0  0  0  0  0  0  0  0  0  0  0
  -25.4250  -15.2840   20.3620 N   0  0  0  0  0  0  0  0  0  0  0  0
  -24.6480  -15.9250   20.4840 H   0  0  0  0  0  0  0  0  0  0  0  0
  -26.2550  -15.7360   20.0030 H   0  0  0  0  0  0  0  0  0  0  0  0
  -28.5610  -22.5280   20.7110 C   0  0  0  0  0  0  0  0  0  0  0  0
  -29.1090  -21.4000   20.0890 N   0  0  0  0  0  0  0  0  0  0  0  0
  -28.0340  -22.3900   21.8180 O   0  0  0  0  0  0  0  0  0  0  0  0
  -29.3270  -21.5330   19.1130 H   0  0  0  0  0  0  0  0  0  0  0  0
  -28.6330  -23.8940   20.0410 C   0  0  0  0  0  3  0  0  0  0  0  0
  -28.0290  -25.0660   20.5150 C   0  0  0  0  0  3  0  0  0  0  0  0
  -28.1590  -26.4240   20.0520 O   0  0  0  0  0  0  0  0  0  0  0  0
  -24.5560  -31.9460   23.2320 C   0  0  0  0  0  0  0  0  0  0  0  0
  -27.0710  -27.3330   20.1070 C   0  0  0  0  0  0  0  0  0  0  0  0
  -23.3130  -30.5590   21.6130 C   0  0  0  0  0  3  0  0  0  0  0  0
  -24.7270  -29.0010   20.1510 C   0  0  0  0  0  0  0  0  0  0  0  0
  -25.8530  -30.8570   21.3730 C   0  0  0  0  0  2  0  0  0  0  0  0
  -25.9160  -29.4720   20.7220 C   0  0  0  0  0  0  0  0  0  0  0  0
  -27.0930  -28.6530   20.6860 C   0  0  0  0  0  3  0  0  0  0  0  0
  -25.8580  -26.9310   19.5140 C   0  0  0  0  0  3  0  0  0  0  0  0
  -24.7030  -27.7390   19.5350 C   0  0  0  0  0  3  0  0  0  0  0  0
  -23.4980  -29.8890   20.2260 C   0  0  0  0  0  2  0  0  0  0  0  0
  -24.5960  -31.1400   22.1290 N   0  0  0  0  0  0  0  0  0  0  0  0
  -23.4840  -32.2220   23.7910 O   0  0  0  0  0  0  0  0  0  0  0  0
  -22.6670  -29.5410   22.5850 C   0  0  0  0  0  0  0  0  0  0  0  0
  -21.3430  -29.3420   22.4640 N   0  0  0  0  0  0  0  0  0  0  0  0
  -23.3580  -28.9350   23.4080 O   0  0  0  0  0  0  0  0  0  0  0  0
  -20.8420  -29.8840   21.7740 H   0  0  0  0  0  0  0  0  0  0  0  0
  -17.9930  -28.0670   22.9710 C   0  0  0  0  0  0  0  0  0  0  0  0
  -20.5430  -28.3950   23.2450 C   0  0  0  0  0  3  0  0  0  0  0  0
  -20.6830  -26.9580   22.6910 C   0  0  0  0  0  2  0  0  0  0  0  0
  -19.5940  -26.5950   21.6780 C   0  0  0  0  0  2  0  0  0  0  0  0
  -18.2060  -26.7140   22.3140 C   0  0  0  0  0  2  0  0  0  0  0  0
  -19.0900  -28.8630   23.3930 C   0  0  0  0  0  0  0  0  0  0  0  0
  -18.8370  -30.1270   23.9680 C   0  0  0  0  0  3  0  0  0  0  0  0
  -17.5190  -30.5970   24.1250 C   0  0  0  0  0  3  0  0  0  0  0  0
  -16.4350  -29.7990   23.7180 C   0  0  0  0  0  3  0  0  0  0  0  0
  -16.6740  -28.5360   23.1470 C   0  0  0  0  0  3  0  0  0  0  0  0
  -25.8500  -32.5780   23.8300 C   0  0  0  0  0  3  0  0  0  0  0  0
  -26.3820  -31.8120   25.1030 C   0  0  1  0  0  0  0  0  0  0  0  0
  -25.3030  -31.5870   26.1880 C   0  0  0  0  0  1  0  0  0  0  0  0
  -26.9520  -30.4300   24.7110 C   0  0  0  0  0  1  0  0  0  0  0  0
  -27.5460  -32.6040   25.7420 C   0  0  0  0  0  1  0  0  0  0  0  0
  -25.5520  -33.9800   24.1580 N   0  0  0  0  0  0  0  0  0  0  0  0
  -25.8850  -35.0300   23.3970 C   0  0  0  0  0  0  0  0  0  0  0  0
  -26.5450  -34.9210   22.3590 O   0  0  0  0  0  0  0  0  0  0  0  0
  -24.9650  -34.1400   24.9650 H   0  0  0  0  0  0  0  0  0  0  0  0
  -24.1860  -36.8490   23.0420 C   0  0  0  0  0  1  0  0  0  0  0  0
  -25.4160  -36.4240   23.8590 C   0  0  0  0  0  3  0  0  0  0  0  0
  -27.5550  -37.2770   24.7110 C   0  0  0  0  0  1  0  0  0  0  0  0
  -26.4650  -37.4630   23.7570 N   0  0  0  0  0  0  0  0  0  0  0  0
  -26.0700  -38.3890   23.9030 H   0  0  0  0  0  0  0  0  0  0  0  0
  -31.0390  -21.4440   22.2060 N   0  0  0  0  0  0  0  0  0  0  0  0
  -30.2680  -22.0920   22.3350 H   0  0  0  0  0  0  0  0  0  0  0  0
  -31.5920  -21.3530   23.0520 H   0  0  0  0  0  0  0  0  0  0  0  0
  1  4  2  0
  1  3  1  0
  2  6  1  0
  3  2  2  0
  4  5  1  0
  5  6  2  0
  5 93  1  0
  6  7  1  0
  8 16  1  0
  9 14  1  0
 10 11  1  0
 10  9  1  0
 12 11  1  0
 12 21  1  0
 12 13  1  0
 14  8  1  0
 14 13  1  0
 15  8  2  0
 16  3  1  0
 17 16  1  0
 18 19  2  0
 19 38  1  0
 20 19  1  0
 20 23  1  0
 21 18  1  0
 21 22  1  0
 22 20  2  0
 23 24  1  0
 24 25  2  0
 26 29  1  0
 26 25  1  0
 27 26  2  0
 28 27  1  0
 28 23  2  0
 29 30  1  0
 30 31  1  0
 31 32  2  0
 33 32  1  0
 33 37  1  0
 34 33  2  0
 35 30  2  0
 35 34  1  0
 36 35  1  0
 38 39  1  0
 39 42  1  0
 39 41  1  0
 40 38  2  0
 43 44  1  0
 43 18  1  0
 45 43  1  0
 46 48  2  0
 47  4  1  0
 47 46  1  0
 49 47  1  0
 50 51  2  0
 50 46  1  0
 52 54  1  0
 52 51  1  0
 53 64  2  0
 54 59  1  0
 55 63  1  0
 55 65  1  0
 56 62  1  0
 56 58  1  0
 57 63  1  0
 58 57  1  0
 59 58  2  0
 60 61  1  0
 60 54  2  0
 61 56  2  0
 62 55  1  0
 63 53  1  0
 65 67  2  0
 66 65  1  0
 68 66  1  0
 69 78  2  0
 69 74  1  0
 70 66  1  0
 70 74  1  0
 71 70  1  0
 72 73  1  0
 72 71  1  0
 73 69  1  0
 74 75  2  0
 75 76  1  0
 77 76  2  0
 78 77  1  0
 79 53  1  0
 79 84  1  0
 79 80  1  0
 80 83  1  1
 80 81  1  0
 82 80  1  0
 84 87  1  0
 85 89  1  0
 85 84  1  0
 86 85  2  0
 89 88  1  0
 91 89  1  0
 91 92  1  0
 91 90  1  0
 93 94  1  0
 93 95  1  0
M  ISO  4   8 100  16 100  51 101  52 101
M  END
>  <TORSDO>  (17) 
F 19

>  <SCORE>  (17) 
-14.717

>  <name>  (17) 
16

>  <ligand_id>  (17) 
16

>  <original_smiles>  (17) 
[H]C(Oc1c([H])c([H])c2c(c1[H])C([H])([H])N(C(=O)C([H])(N([H])C(=O)C([H])(N([H])C([H])([H])[H])C([H])([H])[H])C(C([H])([H])[H])(C([H])([H])[H])C([H])([H])[H])C([H])(C(=O)N([H])C1([H])c3c([H])c([H])c([H])c([H])c3C([H])([H])C([H])([H])C1([H])[H])C2([H])[H])=C([H])C(=O)N([H])c1c([H])c(N([H])C(=O)N2C([H])([H])C([H])([H])C([H])([H])C([H])(n3nc(-c4c([H])c([H])c(Oc5c([H])c([H])c(F)c([H])c5F)c([H])c4[H])c(C(=O)N([H])[H])c3N([H])[H])C2([H])[H])c([H])c(F)c1N([H])[H]

>  <smiles>  (17) 
[H]C(Oc1c([H])c([H])c2c(c1[H])C([H])([H])N(C(=O)C([H])(N([H])C(=O)C([H])(N([H])C([H])([H])[H])C([H])([H])[H])C(C([H])([H])[H])(C([H])([H])[H])C([H])([H])[H])C([H])(C(=O)N([H])C1([H])c3c([H])c([H])c([H])c([H])c3C([H])([H])C([H])([H])C1([H])[H])C2([H])[H])=C([H])C(=O)N([H])c1c([H])c(N([H])C(=O)N2C([H])([H])C([H])([H])C([H])([H])C([H])(n3nc(-c4c([H])c([H])c(Oc5c([H])c([H])c(F)c([H])c5F)c([H])c4[H])c(C(=O)N([H])[H])c3N([H])[H])C2([H])[H])c([H])c(F)c1N([H])[H]

$$$$
17:0:0
     RDKit          3D

 97105  0  0  1  0  0  0  0  0999 V2000
  -29.1790  -20.6910   20.7930 C   0  0  0  0  0  0  0  0  0  0  0  0
  -28.1880  -20.4930   21.6620 N   0  0  0  0  0  4  0  0  0  0  0  0
  -29.6100  -21.9730   20.6090 N   0  0  0  0  0  0  0  0  0  0  0  0
  -27.9280  -19.5380   21.8770 H   0  0  0  0  0  0  0  0  0  0  0  0
  -27.7430  -21.2380   22.1690 H   0  0  0  0  0  0  0  0  0  0  0  0
  -30.3880  -22.0850   19.9720 H   0  0  0  0  0  0  0  0  0  0  0  0
  -30.2160  -19.7280   18.7330 C   0  0  0  0  0  3  0  0  0  0  0  0
  -30.7110  -18.6460   17.9800 C   0  0  0  0  0  3  0  0  0  0  0  0
  -29.7490  -19.5290   20.0520 C   0  0  0  0  0  0  0  0  0  0  0  0
  -30.3160  -17.1050   19.8470 C   0  0  0  0  0  0  0  0  0  0  0  0
  -30.7470  -17.3460   18.5150 C   0  0  0  0  0  0  0  0  0  0  0  0
  -29.8060  -18.2050   20.5970 C   0  0  0  0  0  0  0  0  0  0  0  0
  -31.1400  -16.3320   17.7060 F   0  0  0  0  0  0  0  0  0  0  0  0
  -29.3370  -17.9610   21.8480 F   0  0  0  0  0  0  0  0  0  0  0  0
  -31.0140  -14.7080   20.0240 C   0  0  0  0  0  0  0  0  0  0  0  0
  -30.6700  -12.5280   18.9380 C   0  0  0  0  0  2  0  0  0  0  0  0
  -29.6720  -12.7450   17.7800 C   0  0  0  0  0  2  0  0  0  0  0  0
  -28.2190  -12.6170   18.2800 C   0  0  0  0  0  2  0  0  0  0  0  0
  -27.9490  -13.4480   19.5640 C   0  0  0  0  0  3  0  0  0  0  0  0
  -29.0590  -13.2260   20.6170 C   0  0  0  0  0  2  0  0  0  0  0  0
  -30.3540  -13.5170   19.9820 N   0  0  0  0  0  0  0  0  0  0  0  0
  -32.1600  -14.8450   19.5900 O   0  0  0  0  0  0  0  0  0  0  0  0
  -30.2780  -15.7750   20.4100 N   0  0  0  0  0  0  0  0  0  0  0  0
  -29.4720  -15.5740   20.9810 H   0  0  0  0  0  0  0  0  0  0  0  0
  -25.6070  -14.0720   20.4220 C   0  0  0  0  0  0  0  0  0  0  0  0
  -24.5460  -13.3080   20.8280 C   0  0  0  0  0  0  0  0  0  0  0  0
  -24.9800  -11.9500   20.7340 C   0  0  0  0  0  0  0  0  0  0  0  0
  -26.6200  -13.1800   20.1090 N   0  0  0  0  0  0  0  0  0  0  0  0
  -26.2510  -11.8970   20.3550 N   0  0  0  0  0  0  0  0  0  0  0  0
  -24.2420  -10.6950   20.9270 C   0  0  0  0  0  0  0  0  0  0  0  0
  -24.6530   -9.7340   21.8770 C   0  0  0  0  0  3  0  0  0  0  0  0
  -23.9150   -8.5440   22.0570 C   0  0  0  0  0  3  0  0  0  0  0  0
  -22.7520   -8.3050   21.2850 C   0  0  0  0  0  0  0  0  0  0  0  0
  -22.3610   -9.2550   20.3240 C   0  0  0  0  0  3  0  0  0  0  0  0
  -23.1000  -10.4360   20.1440 C   0  0  0  0  0  3  0  0  0  0  0  0
  -21.9900   -7.1670   21.3720 O   0  0  0  0  0  0  0  0  0  0  0  0
  -21.8400   -6.4890   22.5550 C   0  0  0  0  0  0  0  0  0  0  0  0
  -21.2730   -7.0980   23.6960 C   0  0  0  0  0  3  0  0  0  0  0  0
  -21.0730   -6.3430   24.8710 C   0  0  0  0  0  3  0  0  0  0  0  0
  -21.4330   -4.9830   24.9040 C   0  0  0  0  0  0  0  0  0  0  0  0
  -21.9930   -4.3750   23.7670 C   0  0  0  0  0  3  0  0  0  0  0  0
  -22.1930   -5.1260   22.5950 C   0  0  0  0  0  0  0  0  0  0  0  0
  -22.7140   -4.5290   21.4970 F   0  0  0  0  0  0  0  0  0  0  0  0
  -21.2340   -4.2570   26.0280 F   0  0  0  0  0  0  0  0  0  0  0  0
  -23.1760  -13.8000   21.1900 C   0  0  0  0  0  0  0  0  0  0  0  0
  -22.4870  -13.0960   22.0810 N   0  0  0  0  0  0  0  0  0  0  0  0
  -22.7270  -14.8440   20.7180 O   0  0  0  0  0  0  0  0  0  0  0  0
  -22.8630  -12.2510   22.4830 H   0  0  0  0  0  0  0  0  0  0  0  0
  -21.5690  -13.4070   22.3660 H   0  0  0  0  0  0  0  0  0  0  0  0
  -25.7870  -15.4430   20.2720 N   0  0  0  0  0  0  0  0  0  0  0  0
  -25.0290  -16.1010   20.4200 H   0  0  0  0  0  0  0  0  0  0  0  0
  -26.6100  -15.8720   19.8700 H   0  0  0  0  0  0  0  0  0  0  0  0
  -30.0330  -23.3200   22.6580 C   0  0  0  0  0  1  0  0  0  0  0  0
  -29.2080  -23.2000   21.3660 C   0  0  0  0  0  3  0  0  0  0  0  0
  -29.3270  -24.5070   20.5610 C   0  0  0  0  0  3  0  0  0  0  0  0
  -28.4440  -25.5300   20.6660 C   0  0  0  0  0  3  0  0  0  0  0  0
  -28.5520  -26.7580   20.0330 O   0  0  0  0  0  0  0  0  0  0  0  0
  -24.6830  -31.8690   23.1960 C   0  0  0  0  0  0  0  0  0  0  0  0
  -27.4080  -27.5340   20.0210 C   0  0  0  0  0  0  0  0  0  0  0  0
  -23.5090  -30.4920   21.5110 C   0  0  0  0  0  3  0  0  0  0  0  0
  -24.9960  -29.0180   20.0500 C   0  0  0  0  0  0  0  0  0  0  0  0
  -26.0330  -30.8930   21.3380 C   0  0  0  0  0  2  0  0  0  0  0  0
  -26.1450  -29.5400   20.6600 C   0  0  0  0  0  0  0  0  0  0  0  0
  -27.3580  -28.8070   20.6410 C   0  0  0  0  0  3  0  0  0  0  0  0
  -26.2460  -27.0340   19.3980 C   0  0  0  0  0  3  0  0  0  0  0  0
  -25.0430  -27.7650   19.4130 C   0  0  0  0  0  3  0  0  0  0  0  0
  -23.7380  -29.8550   20.1140 C   0  0  0  0  0  2  0  0  0  0  0  0
  -24.7600  -31.0990   22.0730 N   0  0  0  0  0  0  0  0  0  0  0  0
  -23.5930  -32.1100   23.7350 O   0  0  0  0  0  0  0  0  0  0  0  0
  -22.8700  -29.4350   22.4400 C   0  0  0  0  0  0  0  0  0  0  0  0
  -21.5500  -29.2300   22.2950 N   0  0  0  0  0  0  0  0  0  0  0  0
  -23.5570  -28.8040   23.2470 O   0  0  0  0  0  0  0  0  0  0  0  0
  -21.0560  -29.7920   21.6170 H   0  0  0  0  0  0  0  0  0  0  0  0
  -18.1910  -27.9730   22.7470 C   0  0  0  0  0  0  0  0  0  0  0  0
  -20.7430  -28.2580   23.0350 C   0  0  0  0  0  3  0  0  0  0  0  0
  -20.8680  -26.8470   22.4150 C   0  0  0  0  0  2  0  0  0  0  0  0
  -19.7720  -26.5410   21.3880 C   0  0  0  0  0  2  0  0  0  0  0  0
  -18.3870  -26.6480   22.0310 C   0  0  0  0  0  2  0  0  0  0  0  0
  -19.2970  -28.7370   23.2040 C   0  0  0  0  0  0  0  0  0  0  0  0
  -19.0590  -29.9800   23.8310 C   0  0  0  0  0  3  0  0  0  0  0  0
  -17.7470  -30.4570   24.0060 C   0  0  0  0  0  3  0  0  0  0  0  0
  -16.6550  -29.6900   23.5650 C   0  0  0  0  0  3  0  0  0  0  0  0
  -16.8780  -28.4500   22.9420 C   0  0  0  0  0  3  0  0  0  0  0  0
  -25.9540  -32.5050   23.8400 C   0  0  0  0  0  3  0  0  0  0  0  0
  -26.4540  -31.7310   25.1200 C   0  0  1  0  0  0  0  0  0  0  0  0
  -25.3450  -31.4800   26.1680 C   0  0  0  0  0  1  0  0  0  0  0  0
  -27.0550  -30.3610   24.7300 C   0  0  0  0  0  1  0  0  0  0  0  0
  -27.5880  -32.5320   25.8050 C   0  0  0  0  0  1  0  0  0  0  0  0
  -25.6340  -33.9000   24.1680 N   0  0  0  0  0  0  0  0  0  0  0  0
  -25.9710  -34.9550   23.4140 C   0  0  0  0  0  0  0  0  0  0  0  0
  -26.6550  -34.8560   22.3910 O   0  0  0  0  0  0  0  0  0  0  0  0
  -25.0280  -34.0510   24.9610 H   0  0  0  0  0  0  0  0  0  0  0  0
  -24.2390  -36.7380   23.0350 C   0  0  0  0  0  1  0  0  0  0  0  0
  -25.4700  -36.3410   23.8650 C   0  0  0  0  0  3  0  0  0  0  0  0
  -27.5840  -37.2390   24.7350 C   0  0  0  0  0  1  0  0  0  0  0  0
  -26.4990  -37.3980   23.7690 N   0  0  0  0  0  0  0  0  0  0  0  0
  -26.0860  -38.3170   23.9040 H   0  0  0  0  0  0  0  0  0  0  0  0
  1  2  2  0
  2  4  1  0
  2  5  1  0
  3  1  1  0
  3 54  1  0
  6  3  1  0
  7  9  1  0
  8 11  1  0
  8  7  2  0
  9 12  2  0
  9  1  1  0
 10 23  1  0
 10 12  1  0
 11 10  2  0
 12 14  1  0
 13 11  1  0
 15 23  1  0
 16 21  1  0
 17 18  1  0
 17 16  1  0
 19 18  1  0
 19 28  1  0
 19 20  1  0
 21 15  1  0
 21 20  1  0
 22 15  2  0
 23 24  1  0
 25 26  2  0
 26 45  1  0
 27 26  1  0
 27 30  1  0
 28 29  1  0
 28 25  1  0
 29 27  2  0
 30 31  1  0
 31 32  2  0
 33 36  1  0
 33 32  1  0
 34 33  2  0
 35 34  1  0
 35 30  2  0
 36 37  1  0
 37 42  2  0
 37 38  1  0
 38 39  2  0
 39 40  1  0
 40 44  1  0
 41 40  2  0
 42 41  1  0
 43 42  1  0
 45 46  1  0
 46 49  1  0
 46 48  1  0
 47 45  2  0
 50 51  1  0
 50 25  1  0
 52 50  1  0
 54 53  1  0
 55 56  2  0
 55 54  1  0
 57 56  1  0
 58 69  2  0
 59 57  1  0
 59 64  1  0
 60 68  1  0
 60 70  1  0
 61 67  1  0
 61 63  1  0
 62 68  1  0
 63 62  1  0
 64 63  2  0
 65 66  1  0
 65 59  2  0
 66 61  2  0
 67 60  1  0
 68 58  1  0
 70 72  2  0
 71 70  1  0
 73 71  1  0
 74 83  2  0
 74 79  1  0
 75 71  1  0
 75 79  1  0
 76 75  1  0
 77 78  1  0
 77 76  1  0
 78 74  1  0
 79 80  2  0
 80 81  1  0
 82 81  2  0
 83 82  1  0
 84 58  1  0
 84 89  1  0
 84 85  1  0
 85 88  1  1
 85 86  1  0
 87 85  1  0
 89 92  1  0
 90 94  1  0
 90 89  1  0
 91 90  2  0
 94 93  1  0
 96 94  1  0
 96 97  1  0
 96 95  1  0
M  ISO  4  15 100  23 100  56 101  57 101
M  END
>  <TORSDO>  (18) 
F 19

>  <SCORE>  (18) 
-13.471

>  <name>  (18) 
17

>  <ligand_id>  (18) 
17

>  <original_smiles>  (18) 
[H]C(Oc1c([H])c([H])c2c(c1[H])C([H])([H])N(C(=O)C([H])(N([H])C(=O)C([H])(N([H])C([H])([H])[H])C([H])([H])[H])C(C([H])([H])[H])(C([H])([H])[H])C([H])([H])[H])C([H])(C(=O)N([H])C1([H])c3c([H])c([H])c([H])c([H])c3C([H])([H])C([H])([H])C1([H])[H])C2([H])[H])=C([H])C([H])([N+]([H])=C(c1c([H])c([H])c(F)c(N([H])C(=O)N2C([H])([H])C([H])([H])C([H])([H])C([H])(n3nc(-c4c([H])c([H])c(Oc5c([H])c([H])c(F)c([H])c5F)c([H])c4[H])c(C(=O)N([H])[H])c3N([H])[H])C2([H])[H])c1F)N([H])[H])C([H])([H])[H]

>  <smiles>  (18) 
[H]C(Oc1c([H])c([H])c2c(c1[H])C([H])([H])N(C(=O)C([H])(N([H])C(=O)C([H])(N([H])C([H])([H])[H])C([H])([H])[H])C(C([H])([H])[H])(C([H])([H])[H])C([H])([H])[H])C([H])(C(=O)N([H])C1([H])c3c([H])c([H])c([H])c([H])c3C([H])([H])C([H])([H])C1([H])[H])C2([H])[H])=C([H])C([H])([N+]([H])=C(c1c([H])c([H])c(F)c(N([H])C(=O)N2C([H])([H])C([H])([H])C([H])([H])C([H])(n3nc(-c4c([H])c([H])c(Oc5c([H])c([H])c(F)c([H])c5F)c([H])c4[H])c(C(=O)N([H])[H])c3N([H])[H])C2([H])[H])c1F)N([H])[H])C([H])([H])[H]

$$$$
18:0:0
     RDKit          3D

 93101  0  0  1  0  0  0  0  0999 V2000
  -29.4070  -22.4830   20.4610 C   0  0  0  0  0  0  0  0  0  0  0  0
  -29.2930  -21.1890   19.9540 N   0  0  0  0  0  0  0  0  0  0  0  0
  -30.1310  -22.7010   21.4350 O   0  0  0  0  0  0  0  0  0  0  0  0
  -28.5530  -21.0600   19.2770 H   0  0  0  0  0  0  0  0  0  0  0  0
  -31.4860  -20.1180   20.5240 C   0  0  0  0  0  3  0  0  0  0  0  0
  -32.3150  -19.0060   20.7670 C   0  0  0  0  0  3  0  0  0  0  0  0
  -30.1180  -19.9680   20.2090 C   0  0  0  0  0  0  0  0  0  0  0  0
  -30.4800  -17.4120   20.3640 C   0  0  0  0  0  0  0  0  0  0  0  0
  -31.8250  -17.6880   20.7200 C   0  0  0  0  0  0  0  0  0  0  0  0
  -29.6440  -18.5910   20.1050 C   0  0  0  0  0  0  0  0  0  0  0  0
  -32.6600  -16.6960   21.1110 F   0  0  0  0  0  0  0  0  0  0  0  0
  -28.3410  -18.4000   19.7840 F   0  0  0  0  0  0  0  0  0  0  0  0
  -30.6130  -14.8280   20.0330 C   0  0  0  0  0  0  0  0  0  0  0  0
  -30.3670  -12.5720   18.9370 C   0  0  0  0  0  2  0  0  0  0  0  0
  -29.3460  -12.6340   17.7750 C   0  0  0  0  0  2  0  0  0  0  0  0
  -27.9040  -12.4330   18.2820 C   0  0  0  0  0  2  0  0  0  0  0  0
  -27.6070  -13.2770   19.5470 C   0  0  0  0  0  3  0  0  0  0  0  0
  -28.7340  -13.0910   20.5850 C   0  0  0  0  0  2  0  0  0  0  0  0
  -29.9760  -13.5870   19.9570 N   0  0  0  0  0  0  0  0  0  0  0  0
  -31.7190  -14.9100   19.4850 O   0  0  0  0  0  0  0  0  0  0  0  0
  -28.8880  -15.9590   21.4830 C   0  0  0  0  0  1  0  0  0  0  0  0
  -29.9710  -16.0060   20.4930 N   0  0  0  0  0  0  0  0  0  0  0  0
  -25.2660  -13.8620   20.4260 C   0  0  0  0  0  0  0  0  0  0  0  0
  -24.2250  -13.0820   20.8480 C   0  0  0  0  0  0  0  0  0  0  0  0
  -24.6810  -11.7320   20.7550 C   0  0  0  0  0  0  0  0  0  0  0  0
  -26.2920  -12.9850   20.1090 N   0  0  0  0  0  0  0  0  0  0  0  0
  -25.9490  -11.6980   20.3660 N   0  0  0  0  0  0  0  0  0  0  0  0
  -23.9650  -10.4660   20.9580 C   0  0  0  0  0  0  0  0  0  0  0  0
  -24.4090   -9.5130   21.8990 C   0  0  0  0  0  3  0  0  0  0  0  0
  -23.6940   -8.3120   22.0920 C   0  0  0  0  0  3  0  0  0  0  0  0
  -22.5220   -8.0550   21.3410 C   0  0  0  0  0  0  0  0  0  0  0  0
  -22.0980   -8.9980   20.3880 C   0  0  0  0  0  3  0  0  0  0  0  0
  -22.8130  -10.1910   20.1950 C   0  0  0  0  0  3  0  0  0  0  0  0
  -21.7790   -6.9040   21.4400 O   0  0  0  0  0  0  0  0  0  0  0  0
  -21.6820   -6.2080   22.6180 C   0  0  0  0  0  0  0  0  0  0  0  0
  -21.1820   -6.8070   23.7950 C   0  0  0  0  0  3  0  0  0  0  0  0
  -21.0320   -6.0370   24.9670 C   0  0  0  0  0  3  0  0  0  0  0  0
  -21.3710   -4.6700   24.9590 C   0  0  0  0  0  0  0  0  0  0  0  0
  -21.8640   -4.0720   23.7860 C   0  0  0  0  0  3  0  0  0  0  0  0
  -22.0160   -4.8390   22.6180 C   0  0  0  0  0  0  0  0  0  0  0  0
  -22.4700   -4.2540   21.4830 F   0  0  0  0  0  0  0  0  0  0  0  0
  -21.2200   -3.9270   26.0810 F   0  0  0  0  0  0  0  0  0  0  0  0
  -22.8510  -13.5550   21.2230 C   0  0  0  0  0  0  0  0  0  0  0  0
  -22.1760  -12.8300   22.1090 N   0  0  0  0  0  0  0  0  0  0  0  0
  -22.3860  -14.5990   20.7670 O   0  0  0  0  0  0  0  0  0  0  0  0
  -22.5660  -11.9840   22.4940 H   0  0  0  0  0  0  0  0  0  0  0  0
  -21.2560  -13.1270   22.4060 H   0  0  0  0  0  0  0  0  0  0  0  0
  -25.4110  -15.2370   20.2620 N   0  0  0  0  0  0  0  0  0  0  0  0
  -24.6520  -15.8840   20.4400 H   0  0  0  0  0  0  0  0  0  0  0  0
  -26.2320  -15.6860   19.8760 H   0  0  0  0  0  0  0  0  0  0  0  0
  -28.6400  -23.7530   19.8410 C   0  0  0  0  0  2  0  0  0  0  0  0
  -28.3120  -25.0660   20.7470 C   0  0  0  0  0  2  0  0  0  0  0  0
  -28.4000  -26.4790   20.2450 O   0  0  0  0  0  0  0  0  0  0  0  0
  -24.6390  -31.9340   23.2510 C   0  0  0  0  0  0  0  0  0  0  0  0
  -27.2690  -27.3200   20.2630 C   0  0  0  0  0  0  0  0  0  0  0  0
  -23.4380  -30.5100   21.6290 C   0  0  0  0  0  3  0  0  0  0  0  0
  -24.8950  -28.9350   20.2280 C   0  0  0  0  0  0  0  0  0  0  0  0
  -25.9760  -30.8330   21.4340 C   0  0  0  0  0  2  0  0  0  0  0  0
  -26.0630  -29.4400   20.8120 C   0  0  0  0  0  0  0  0  0  0  0  0
  -27.2550  -28.6470   20.8090 C   0  0  0  0  0  3  0  0  0  0  0  0
  -26.0730  -26.8670   19.6680 C   0  0  0  0  0  3  0  0  0  0  0  0
  -24.9030  -27.6570   19.6450 C   0  0  0  0  0  3  0  0  0  0  0  0
  -23.6540  -29.8100   20.2600 C   0  0  0  0  0  2  0  0  0  0  0  0
  -24.7040  -31.1110   22.1610 N   0  0  0  0  0  0  0  0  0  0  0  0
  -23.5560  -32.2150   23.7840 O   0  0  0  0  0  0  0  0  0  0  0  0
  -22.7770  -29.5090   22.6060 C   0  0  0  0  0  0  0  0  0  0  0  0
  -21.4530  -29.3160   22.4740 N   0  0  0  0  0  0  0  0  0  0  0  0
  -23.4560  -28.9050   23.4400 O   0  0  0  0  0  0  0  0  0  0  0  0
  -20.9660  -29.8530   21.7700 H   0  0  0  0  0  0  0  0  0  0  0  0
  -18.0890  -28.0730   22.9570 C   0  0  0  0  0  0  0  0  0  0  0  0
  -20.6390  -28.3820   23.2540 C   0  0  0  0  0  3  0  0  0  0  0  0
  -20.7740  -26.9400   22.7110 C   0  0  0  0  0  2  0  0  0  0  0  0
  -19.6900  -26.5780   21.6890 C   0  0  0  0  0  2  0  0  0  0  0  0
  -18.2970  -26.7150   22.3090 C   0  0  0  0  0  2  0  0  0  0  0  0
  -19.1900  -28.8630   23.3840 C   0  0  0  0  0  0  0  0  0  0  0  0
  -18.9420  -30.1340   23.9460 C   0  0  0  0  0  3  0  0  0  0  0  0
  -17.6260  -30.6170   24.0830 C   0  0  0  0  0  3  0  0  0  0  0  0
  -16.5410  -29.8240   23.6710 C   0  0  0  0  0  3  0  0  0  0  0  0
  -16.7730  -28.5550   23.1130 C   0  0  0  0  0  3  0  0  0  0  0  0
  -25.9200  -32.5790   23.8650 C   0  0  0  0  0  3  0  0  0  0  0  0
  -26.4410  -31.8210   25.1470 C   0  0  1  0  0  0  0  0  0  0  0  0
  -25.3500  -31.5850   26.2170 C   0  0  0  0  0  1  0  0  0  0  0  0
  -27.0320  -30.4450   24.7660 C   0  0  0  0  0  1  0  0  0  0  0  0
  -27.5860  -32.6280   25.8050 C   0  0  0  0  0  1  0  0  0  0  0  0
  -25.6030  -33.9770   24.1880 N   0  0  0  0  0  0  0  0  0  0  0  0
  -25.9300  -35.0290   23.4240 C   0  0  0  0  0  0  0  0  0  0  0  0
  -26.6000  -34.9230   22.3930 O   0  0  0  0  0  0  0  0  0  0  0  0
  -25.0080  -34.1330   24.9870 H   0  0  0  0  0  0  0  0  0  0  0  0
  -24.1980  -36.8170   23.0570 C   0  0  0  0  0  1  0  0  0  0  0  0
  -25.4370  -36.4170   23.8750 C   0  0  0  0  0  3  0  0  0  0  0  0
  -27.5640  -37.3140   24.7140 C   0  0  0  0  0  1  0  0  0  0  0  0
  -26.4680  -37.4720   23.7620 N   0  0  0  0  0  0  0  0  0  0  0  0
  -26.0570  -38.3930   23.9000 H   0  0  0  0  0  0  0  0  0  0  0  0
  1  3  2  0
  2  7  1  0
  2  1  1  0
  4  2  1  0
  5  6  1  0
  7  5  2  0
  8 22  1  0
  8  9  1  0
  9  6  2  0
  9 11  1  0
 10  7  1  0
 10  8  2  0
 12 10  1  0
 13 22  1  0
 14 19  1  0
 15 16  1  0
 15 14  1  0
 17 16  1  0
 17 26  1  0
 17 18  1  0
 19 13  1  0
 19 18  1  0
 20 13  2  0
 22 21  1  0
 23 24  2  0
 24 43  1  0
 25 24  1  0
 25 28  1  0
 26 27  1  0
 26 23  1  0
 27 25  2  0
 28 29  1  0
 29 30  2  0
 31 34  1  0
 31 30  1  0
 32 31  2  0
 33 32  1  0
 33 28  2  0
 34 35  1  0
 35 36  1  0
 36 37  2  0
 38 37  1  0
 38 42  1  0
 39 38  2  0
 40 35  2  0
 40 39  1  0
 41 40  1  0
 43 44  1  0
 44 47  1  0
 44 46  1  0
 45 43  2  0
 48 23  1  0
 48 49  1  0
 50 48  1  0
 51  1  1  0
 51 52  1  0
 53 55  1  0
 53 52  1  0
 54 65  2  0
 55 60  1  0
 56 64  1  0
 56 66  1  0
 57 63  1  0
 57 59  1  0
 58 64  1  0
 59 58  1  0
 60 59  2  0
 61 55  2  0
 62 61  1  0
 62 57  2  0
 63 56  1  0
 64 54  1  0
 66 68  2  0
 67 66  1  0
 69 67  1  0
 70 79  2  0
 70 75  1  0
 71 67  1  0
 71 75  1  0
 72 71  1  0
 73 74  1  0
 73 72  1  0
 74 70  1  0
 75 76  2  0
 76 77  1  0
 78 77  2  0
 79 78  1  0
 80 54  1  0
 80 85  1  0
 80 81  1  0
 81 84  1  1
 81 82  1  0
 83 81  1  0
 85 88  1  0
 86 90  1  0
 86 85  1  0
 87 86  2  0
 90 89  1  0
 92 90  1  0
 92 93  1  0
 92 91  1  0
M  ISO  4  13 100  22 100  52 101  53 101
M  END
>  <TORSDO>  (19) 
F 19

>  <SCORE>  (19) 
-13.581

>  <name>  (19) 
18

>  <ligand_id>  (19) 
18

>  <original_smiles>  (19) 
[H]c1c([H])c([H])c2c(c1[H])C([H])([H])C([H])([H])C([H])([H])C2([H])N([H])C(=O)C1([H])N(C(=O)C([H])(N([H])C(=O)C([H])(N([H])C([H])([H])[H])C([H])([H])[H])C(C([H])([H])[H])(C([H])([H])[H])C([H])([H])[H])C([H])([H])c2c([H])c(OC([H])([H])C([H])([H])C(=O)N([H])c3c([H])c([H])c(F)c(N(C(=O)N4C([H])([H])C([H])([H])C([H])([H])C([H])(n5nc(-c6c([H])c([H])c(Oc7c([H])c([H])c(F)c([H])c7F)c([H])c6[H])c(C(=O)N([H])[H])c5N([H])[H])C4([H])[H])C([H])([H])[H])c3F)c([H])c([H])c2C1([H])[H]

>  <smiles>  (19) 
[H]c1c([H])c([H])c2c(c1[H])C([H])([H])C([H])([H])C([H])([H])C2([H])N([H])C(=O)C1([H])N(C(=O)C([H])(N([H])C(=O)C([H])(N([H])C([H])([H])[H])C([H])([H])[H])C(C([H])([H])[H])(C([H])([H])[H])C([H])([H])[H])C([H])([H])c2c([H])c(OC([H])([H])C([H])([H])C(=O)N([H])c3c([H])c([H])c(F)c(N(C(=O)N4C([H])([H])C([H])([H])C([H])([H])C([H])(n5nc(-c6c([H])c([H])c(Oc7c([H])c([H])c(F)c([H])c7F)c([H])c6[H])c(C(=O)N([H])[H])c5N([H])[H])C4([H])[H])C([H])([H])[H])c3F)c([H])c([H])c2C1([H])[H]

$$$$
19:0:0
     RDKit          3D

 99108  0  0  1  0  0  0  0  0999 V2000
  -31.2770  -23.4030   18.1510 C   0  0  0  0  0  0  0  0  0  0  0  0
  -30.8760  -21.9390   18.3900 C   0  0  0  0  0  2  0  0  0  0  0  0
  -29.0360  -22.6930   19.8420 C   0  0  0  0  0  2  0  0  0  0  0  0
  -29.4830  -24.2270   19.7090 C   0  0  0  0  0  3  0  0  0  0  0  0
  -31.2930  -25.7300   18.8020 C   0  0  0  0  0  1  0  0  0  0  0  0
  -30.1090  -21.6800   19.6180 N   0  0  0  0  0  0  0  0  0  0  0  0
  -30.6670  -24.4010   18.8340 N   0  0  0  0  0  0  0  0  0  0  0  0
  -32.2020  -23.6190   17.3610 O   0  0  0  0  0  0  0  0  0  0  0  0
  -28.8720  -19.4700   19.6170 C   0  0  0  0  0  3  0  0  0  0  0  0
  -31.0200  -19.5700   20.6270 C   0  0  0  0  0  3  0  0  0  0  0  0
  -28.8060  -18.0650   19.9010 C   0  0  0  0  0  0  0  0  0  0  0  0
  -29.9900  -20.2740   19.9420 C   0  0  0  0  0  0  0  0  0  0  0  0
  -29.9050  -17.3420   20.4940 C   0  0  0  0  0  0  0  0  0  0  0  0
  -30.9940  -18.1710   20.8900 C   0  0  0  0  0  0  0  0  0  0  0  0
  -32.0570  -17.6670   21.5540 F   0  0  0  0  0  0  0  0  0  0  0  0
  -30.6200  -14.8120   20.2320 C   0  0  0  0  0  0  0  0  0  0  0  0
  -30.4420  -12.5460   19.2120 C   0  0  0  0  0  2  0  0  0  0  0  0
  -29.4600  -12.5880   18.0210 C   0  0  0  0  0  2  0  0  0  0  0  0
  -28.0110  -12.3710   18.4980 C   0  0  0  0  0  2  0  0  0  0  0  0
  -27.6440  -13.2570   19.7170 C   0  0  0  0  0  3  0  0  0  0  0  0
  -28.7390  -13.2000   20.8060 C   0  0  0  0  0  2  0  0  0  0  0  0
  -30.0180  -13.5780   20.1870 N   0  0  0  0  0  0  0  0  0  0  0  0
  -31.7580  -14.9480   19.7860 O   0  0  0  0  0  0  0  0  0  0  0  0
  -29.8520  -15.8680   20.6700 N   0  0  0  0  0  0  0  0  0  0  0  0
  -28.9830  -15.5520   21.0770 H   0  0  0  0  0  0  0  0  0  0  0  0
  -25.2600  -13.7670   20.5370 C   0  0  0  0  0  0  0  0  0  0  0  0
  -24.2320  -12.9590   20.9340 C   0  0  0  0  0  0  0  0  0  0  0  0
  -24.7250  -11.6240   20.8480 C   0  0  0  0  0  0  0  0  0  0  0  0
  -26.3210  -12.9240   20.2490 N   0  0  0  0  0  0  0  0  0  0  0  0
  -26.0050  -11.6260   20.4950 N   0  0  0  0  0  0  0  0  0  0  0  0
  -24.0360  -10.3410   21.0270 C   0  0  0  0  0  0  0  0  0  0  0  0
  -24.4650   -9.4010   21.9890 C   0  0  0  0  0  3  0  0  0  0  0  0
  -23.7710   -8.1820   22.1570 C   0  0  0  0  0  3  0  0  0  0  0  0
  -22.6350   -7.8970   21.3620 C   0  0  0  0  0  0  0  0  0  0  0  0
  -22.2270   -8.8280   20.3900 C   0  0  0  0  0  3  0  0  0  0  0  0
  -22.9220  -10.0360   20.2200 C   0  0  0  0  0  3  0  0  0  0  0  0
  -21.9190   -6.7270   21.4380 O   0  0  0  0  0  0  0  0  0  0  0  0
  -21.8020   -6.0250   22.6110 C   0  0  0  0  0  0  0  0  0  0  0  0
  -21.2340   -6.6000   23.7680 C   0  0  0  0  0  3  0  0  0  0  0  0
  -21.0650   -5.8240   24.9330 C   0  0  0  0  0  3  0  0  0  0  0  0
  -21.4580   -4.4720   24.9390 C   0  0  0  0  0  0  0  0  0  0  0  0
  -22.0200   -3.8960   23.7870 C   0  0  0  0  0  3  0  0  0  0  0  0
  -22.1880   -4.6690   22.6250 C   0  0  0  0  0  0  0  0  0  0  0  0
  -22.7090   -4.1020   21.5090 F   0  0  0  0  0  0  0  0  0  0  0  0
  -21.2910   -3.7240   26.0540 F   0  0  0  0  0  0  0  0  0  0  0  0
  -22.8380  -13.4000   21.2760 C   0  0  0  0  0  0  0  0  0  0  0  0
  -22.1650  -12.6760   22.1630 N   0  0  0  0  0  0  0  0  0  0  0  0
  -22.3560  -14.4250   20.7980 O   0  0  0  0  0  0  0  0  0  0  0  0
  -22.5660  -11.8490   22.5810 H   0  0  0  0  0  0  0  0  0  0  0  0
  -21.2340  -12.9610   22.4320 H   0  0  0  0  0  0  0  0  0  0  0  0
  -25.3710  -15.1420   20.3700 N   0  0  0  0  0  0  0  0  0  0  0  0
  -24.5880  -15.7660   20.5170 H   0  0  0  0  0  0  0  0  0  0  0  0
  -26.2060  -15.6280   20.0780 H   0  0  0  0  0  0  0  0  0  0  0  0
  -27.4740  -17.4190   19.5300 C   0  0  1  0  0  0  0  0  0  0  0  0
  -26.4830  -18.1190   20.0860 F   0  0  0  0  0  0  0  0  0  0  0  0
  -27.3230  -17.4690   18.2070 F   0  0  0  0  0  0  0  0  0  0  0  0
  -27.3440  -16.1520   19.9240 F   0  0  0  0  0  0  0  0  0  0  0  0
  -28.2960  -25.2050   19.2900 C   0  0  0  0  0  2  0  0  0  0  0  0
  -28.4200  -26.6560   19.5280 O   0  0  0  0  0  0  0  0  0  0  0  0
  -24.6650  -31.6970   23.0500 C   0  0  0  0  0  0  0  0  0  0  0  0
  -27.2580  -27.4370   19.5900 C   0  0  0  0  0  0  0  0  0  0  0  0
  -23.4310  -30.4030   21.3460 C   0  0  0  0  0  3  0  0  0  0  0  0
  -24.8580  -28.9810   19.7720 C   0  0  0  0  0  0  0  0  0  0  0  0
  -25.9570  -30.7750   21.1160 C   0  0  0  0  0  2  0  0  0  0  0  0
  -26.0360  -29.4510   20.3680 C   0  0  0  0  0  0  0  0  0  0  0  0
  -27.2360  -28.6900   20.2680 C   0  0  0  0  0  3  0  0  0  0  0  0
  -26.0500  -27.0040   18.9910 C   0  0  0  0  0  3  0  0  0  0  0  0
  -24.8670  -27.7610   19.0790 C   0  0  0  0  0  3  0  0  0  0  0  0
  -23.6120  -29.8310   19.9150 C   0  0  0  0  0  2  0  0  0  0  0  0
  -24.7030  -30.9730   21.8930 N   0  0  0  0  0  0  0  0  0  0  0  0
  -23.5940  -31.9190   23.6330 O   0  0  0  0  0  0  0  0  0  0  0  0
  -22.8120  -29.3080   22.2480 C   0  0  0  0  0  0  0  0  0  0  0  0
  -21.4870  -29.1180   22.1420 N   0  0  0  0  0  0  0  0  0  0  0  0
  -23.5230  -28.6370   23.0010 O   0  0  0  0  0  0  0  0  0  0  0  0
  -20.9720  -29.7160   21.5110 H   0  0  0  0  0  0  0  0  0  0  0  0
  -18.1430  -27.8320   22.6290 C   0  0  0  0  0  0  0  0  0  0  0  0
  -20.7010  -28.1170   22.8650 C   0  0  0  0  0  3  0  0  0  0  0  0
  -20.8120  -26.7270   22.1950 C   0  0  0  0  0  2  0  0  0  0  0  0
  -19.6950  -26.4550   21.1820 C   0  0  0  0  0  2  0  0  0  0  0  0
  -18.3250  -26.5340   21.8620 C   0  0  0  0  0  2  0  0  0  0  0  0
  -19.2580  -28.5830   23.0870 C   0  0  0  0  0  0  0  0  0  0  0  0
  -19.0300  -29.8000   23.7660 C   0  0  0  0  0  3  0  0  0  0  0  0
  -17.7220  -30.2650   23.9930 C   0  0  0  0  0  3  0  0  0  0  0  0
  -16.6220  -29.5110   23.5490 C   0  0  0  0  0  3  0  0  0  0  0  0
  -16.8330  -28.2950   22.8740 C   0  0  0  0  0  3  0  0  0  0  0  0
  -25.9580  -32.3000   23.6800 C   0  0  0  0  0  3  0  0  0  0  0  0
  -26.5200  -31.4470   24.8830 C   0  0  1  0  0  0  0  0  0  0  0  0
  -25.4650  -31.1310   25.9690 C   0  0  0  0  0  1  0  0  0  0  0  0
  -27.0950  -30.1040   24.3790 C   0  0  0  0  0  1  0  0  0  0  0  0
  -27.6890  -32.2020   25.5590 C   0  0  0  0  0  1  0  0  0  0  0  0
  -25.6390  -33.6660   24.1200 N   0  0  0  0  0  0  0  0  0  0  0  0
  -25.9740  -34.7790   23.4530 C   0  0  0  0  0  0  0  0  0  0  0  0
  -26.6530  -34.7630   22.4230 O   0  0  0  0  0  0  0  0  0  0  0  0
  -25.0350  -33.7520   24.9240 H   0  0  0  0  0  0  0  0  0  0  0  0
  -24.2430  -36.5900   23.2290 C   0  0  0  0  0  1  0  0  0  0  0  0
  -25.4770  -36.1230   24.0180 C   0  0  0  0  0  3  0  0  0  0  0  0
  -27.5960  -36.9460   24.9480 C   0  0  0  0  0  1  0  0  0  0  0  0
  -26.5060  -37.1850   24.0050 N   0  0  0  0  0  0  0  0  0  0  0  0
  -26.0930  -38.0890   24.2190 H   0  0  0  0  0  0  0  0  0  0  0  0
  1  2  1  0
  1  7  1  0
  2  6  1  0
  4 58  1  0
  4  3  1  0
  5  7  1  0
  6  3  1  0
  6 12  1  0
  7  4  1  0
  8  1  2  0
  9 11  2  0
  9 12  1  0
 10 14  1  0
 11 13  1  0
 12 10  2  0
 13 24  1  0
 13 14  2  0
 14 15  1  0
 16 24  1  0
 17 22  1  0
 18 19  1  0
 18 17  1  0
 20 19  1  0
 20 29  1  0
 20 21  1  0
 22 16  1  0
 22 21  1  0
 23 16  2  0
 24 25  1  0
 26 27  2  0
 27 46  1  0
 28 27  1  0
 28 31  1  0
 29 30  1  0
 29 26  1  0
 30 28  2  0
 31 32  1  0
 32 33  2  0
 34 37  1  0
 34 33  1  0
 35 34  2  0
 36 35  1  0
 36 31  2  0
 37 38  1  0
 38 43  2  0
 38 39  1  0
 39 40  2  0
 40 41  1  0
 41 45  1  0
 42 41  2  0
 43 42  1  0
 44 43  1  0
 46 47  1  0
 47 50  1  0
 47 49  1  0
 48 46  2  0
 51 52  1  0
 51 26  1  0
 53 51  1  0
 54 11  1  0
 54 57  1  1
 54 55  1  0
 56 54  1  0
 58 59  1  0
 59 61  1  0
 60 71  2  0
 61 66  1  0
 62 70  1  0
 62 72  1  0
 63 69  1  0
 63 65  1  0
 64 70  1  0
 65 64  1  0
 66 65  2  0
 67 68  1  0
 67 61  2  0
 68 63  2  0
 69 62  1  0
 70 60  1  0
 72 74  2  0
 73 72  1  0
 75 73  1  0
 76 85  2  0
 76 81  1  0
 77 73  1  0
 77 81  1  0
 78 77  1  0
 79 80  1  0
 79 78  1  0
 80 76  1  0
 81 82  2  0
 82 83  1  0
 84 83  2  0
 85 84  1  0
 86 60  1  0
 86 91  1  0
 86 87  1  0
 87 90  1  1
 87 88  1  0
 89 87  1  0
 91 94  1  0
 92 96  1  0
 92 91  1  0
 93 92  2  0
 96 95  1  0
 98 96  1  0
 98 99  1  0
 98 97  1  0
M  ISO  4  16 100  24 100  58 101  59 101
M  END
>  <TORSDO>  (20) 
F 19

>  <SCORE>  (20) 
-14.245

>  <name>  (20) 
19

>  <ligand_id>  (20) 
19

>  <original_smiles>  (20) 
[H]c1c([H])c([H])c2c(c1[H])C([H])([H])C([H])([H])C([H])([H])C2([H])N([H])C(=O)C1([H])N(C(=O)C([H])(N([H])C(=O)C([H])(N([H])C([H])([H])[H])C([H])([H])[H])C(C([H])([H])[H])(C([H])([H])[H])C([H])([H])[H])C([H])([H])c2c([H])c(OC([H])([H])C3([H])N(C([H])([H])[H])C(=O)C([H])([H])N(c4c([H])c(F)c(N([H])C(=O)N5C([H])([H])C([H])([H])C([H])([H])C([H])(n6nc(-c7c([H])c([H])c(Oc8c([H])c([H])c(F)c([H])c8F)c([H])c7[H])c(C(=O)N([H])[H])c6N([H])[H])C5([H])[H])c(C(F)(F)F)c4[H])C3([H])[H])c([H])c([H])c2C1([H])[H]

>  <smiles>  (20) 
[H]c1c([H])c([H])c2c(c1[H])C([H])([H])C([H])([H])C([H])([H])C2([H])N([H])C(=O)C1([H])N(C(=O)C([H])(N([H])C(=O)C([H])(N([H])C([H])([H])[H])C([H])([H])[H])C(C([H])([H])[H])(C([H])([H])[H])C([H])([H])[H])C([H])([H])c2c([H])c(OC([H])([H])C3([H])N(C([H])([H])[H])C(=O)C([H])([H])N(c4c([H])c(F)c(N([H])C(=O)N5C([H])([H])C([H])([H])C([H])([H])C([H])(n6nc(-c7c([H])c([H])c(Oc8c([H])c([H])c(F)c([H])c8F)c([H])c7[H])c(C(=O)N([H])[H])c6N([H])[H])C5([H])[H])c(C(F)(F)F)c4[H])C3([H])[H])c([H])c([H])c2C1([H])[H]

$$$$
20:0:0
     RDKit          3D

 95104  0  0  1  0  0  0  0  0999 V2000
  -31.0410  -22.3790   20.5080 C   0  0  0  0  0  0  0  0  0  0  0  0
  -28.7840  -22.4010   20.1920 C   0  0  0  0  0  2  0  0  0  0  0  0
  -30.6110  -23.8630   20.4960 C   0  0  0  0  0  3  0  0  0  0  0  0
  -29.2410  -23.8650   19.7780 C   0  0  1  0  0  0  0  0  0  0  0  0
  -31.6740  -24.8380   19.9420 C   0  0  0  0  0  1  0  0  0  0  0  0
  -29.3860  -23.8980   18.2390 C   0  0  0  0  0  1  0  0  0  0  0  0
  -29.9970  -21.5410   20.2980 N   0  0  0  0  0  0  0  0  0  0  0  0
  -32.2140  -22.0500   20.7070 O   0  0  0  0  0  0  0  0  0  0  0  0
  -31.2300  -19.2990   20.2840 C   0  0  0  0  0  3  0  0  0  0  0  0
  -31.2500  -17.8700   20.3320 C   0  0  0  0  0  3  0  0  0  0  0  0
  -28.8420  -19.2880   20.4750 C   0  0  0  0  0  3  0  0  0  0  0  0
  -28.8500  -17.8570   20.5600 C   0  0  0  0  0  0  0  0  0  0  0  0
  -30.0240  -20.0620   20.3470 C   0  0  0  0  0  0  0  0  0  0  0  0
  -30.0640  -17.0980   20.4660 C   0  0  0  0  0  0  0  0  0  0  0  0
  -27.5020  -17.1810   20.7850 C   0  0  0  0  0  1  0  0  0  0  0  0
  -30.7340  -14.6330   19.8540 C   0  0  0  0  0  0  0  0  0  0  0  0
  -30.4350  -12.4480   18.6860 C   0  0  0  0  0  2  0  0  0  0  0  0
  -29.3650  -12.6090   17.5840 C   0  0  0  0  0  2  0  0  0  0  0  0
  -27.9450  -12.4100   18.1540 C   0  0  0  0  0  2  0  0  0  0  0  0
  -27.7110  -13.2090   19.4630 C   0  0  0  0  0  3  0  0  0  0  0  0
  -28.8810  -13.0030   20.4520 C   0  0  0  0  0  2  0  0  0  0  0  0
  -30.1210  -13.4070   19.7670 N   0  0  0  0  0  0  0  0  0  0  0  0
  -31.8160  -14.8380   19.2980 O   0  0  0  0  0  0  0  0  0  0  0  0
  -30.0190  -15.6250   20.4870 N   0  0  0  0  0  0  0  0  0  0  0  0
  -29.2130  -15.2540   20.9640 H   0  0  0  0  0  0  0  0  0  0  0  0
  -25.4160  -13.7580   20.4840 C   0  0  0  0  0  0  0  0  0  0  0  0
  -24.3870  -12.9640   20.9140 C   0  0  0  0  0  0  0  0  0  0  0  0
  -24.8230  -11.6170   20.7210 C   0  0  0  0  0  0  0  0  0  0  0  0
  -26.4180  -12.8950   20.0700 N   0  0  0  0  0  0  0  0  0  0  0  0
  -26.0700  -11.5970   20.2660 N   0  0  0  0  0  0  0  0  0  0  0  0
  -24.1060  -10.3470   20.8900 C   0  0  0  0  0  0  0  0  0  0  0  0
  -24.4980   -9.4010   21.8620 C   0  0  0  0  0  3  0  0  0  0  0  0
  -23.7790   -8.1960   22.0180 C   0  0  0  0  0  3  0  0  0  0  0  0
  -22.6580   -7.9260   21.2000 C   0  0  0  0  0  0  0  0  0  0  0  0
  -22.2860   -8.8620   20.2180 C   0  0  0  0  0  3  0  0  0  0  0  0
  -23.0040  -10.0570   20.0600 C   0  0  0  0  0  3  0  0  0  0  0  0
  -21.9180   -6.7690   21.2610 O   0  0  0  0  0  0  0  0  0  0  0  0
  -21.6470   -6.1490   22.4540 C   0  0  0  0  0  0  0  0  0  0  0  0
  -20.9650   -6.8120   23.4980 C   0  0  0  0  0  3  0  0  0  0  0  0
  -20.6440   -6.1180   24.6820 C   0  0  0  0  0  3  0  0  0  0  0  0
  -20.9970   -4.7610   24.8200 C   0  0  0  0  0  0  0  0  0  0  0  0
  -21.6730   -4.0980   23.7790 C   0  0  0  0  0  3  0  0  0  0  0  0
  -21.9930   -4.7920   22.5980 C   0  0  0  0  0  0  0  0  0  0  0  0
  -22.6250   -4.1430   21.5900 F   0  0  0  0  0  0  0  0  0  0  0  0
  -20.6830   -4.0910   25.9530 F   0  0  0  0  0  0  0  0  0  0  0  0
  -23.0360  -13.4250   21.3800 C   0  0  0  0  0  0  0  0  0  0  0  0
  -22.4110  -12.6810   22.2860 N   0  0  0  0  0  0  0  0  0  0  0  0
  -22.5450  -14.4770   20.9770 O   0  0  0  0  0  0  0  0  0  0  0  0
  -22.8230  -11.8310   22.6400 H   0  0  0  0  0  0  0  0  0  0  0  0
  -21.5090  -12.9720   22.6360 H   0  0  0  0  0  0  0  0  0  0  0  0
  -25.5780  -15.1380   20.3890 N   0  0  0  0  0  0  0  0  0  0  0  0
  -24.8230  -15.7840   20.5870 H   0  0  0  0  0  0  0  0  0  0  0  0
  -26.3650  -15.5850   19.9340 H   0  0  0  0  0  0  0  0  0  0  0  0
  -28.2670  -25.0580   20.2100 C   0  0  0  0  0  2  0  0  0  0  0  0
  -28.3780  -26.3870   19.5640 O   0  0  0  0  0  0  0  0  0  0  0  0
  -24.6360  -31.5560   22.9160 C   0  0  0  0  0  0  0  0  0  0  0  0
  -27.2440  -27.2110   19.5940 C   0  0  0  0  0  0  0  0  0  0  0  0
  -23.4120  -30.2280   21.2320 C   0  0  0  0  0  3  0  0  0  0  0  0
  -24.8520  -28.7710   19.6990 C   0  0  0  0  0  0  0  0  0  0  0  0
  -25.9390  -30.5980   21.0070 C   0  0  0  0  0  2  0  0  0  0  0  0
  -26.0250  -29.2540   20.2960 C   0  0  0  0  0  0  0  0  0  0  0  0
  -27.2240  -28.4860   20.2330 C   0  0  0  0  0  3  0  0  0  0  0  0
  -26.0550  -26.7820   18.9640 C   0  0  0  0  0  3  0  0  0  0  0  0
  -24.8680  -27.5400   19.0220 C   0  0  0  0  0  3  0  0  0  0  0  0
  -23.6050  -29.6230   19.8150 C   0  0  0  0  0  2  0  0  0  0  0  0
  -24.6820  -30.8090   21.7760 N   0  0  0  0  0  0  0  0  0  0  0  0
  -23.5620  -31.7920   23.4890 O   0  0  0  0  0  0  0  0  0  0  0  0
  -22.7830  -29.1560   22.1540 C   0  0  0  0  0  0  0  0  0  0  0  0
  -21.4530  -28.9790   22.0540 N   0  0  0  0  0  0  0  0  0  0  0  0
  -23.4880  -28.4900   22.9160 O   0  0  0  0  0  0  0  0  0  0  0  0
  -20.9450  -29.5690   21.4100 H   0  0  0  0  0  0  0  0  0  0  0  0
  -18.0860  -27.8100   22.6600 C   0  0  0  0  0  0  0  0  0  0  0  0
  -20.6600  -27.9980   22.7960 C   0  0  0  0  0  3  0  0  0  0  0  0
  -20.6960  -26.6180   22.1020 C   0  0  0  0  0  2  0  0  0  0  0  0
  -19.5290  -26.3990   21.1340 C   0  0  0  0  0  2  0  0  0  0  0  0
  -18.1910  -26.5180   21.8690 C   0  0  0  0  0  2  0  0  0  0  0  0
  -19.2440  -28.5130   23.0820 C   0  0  0  0  0  0  0  0  0  0  0  0
  -19.0900  -29.7280   23.7850 C   0  0  0  0  0  3  0  0  0  0  0  0
  -17.8080  -30.2370   24.0700 C   0  0  0  0  0  3  0  0  0  0  0  0
  -16.6640  -29.5280   23.6610 C   0  0  0  0  0  3  0  0  0  0  0  0
  -16.8040  -28.3150   22.9630 C   0  0  0  0  0  3  0  0  0  0  0  0
  -25.9250  -32.1710   23.5440 C   0  0  0  0  0  3  0  0  0  0  0  0
  -25.5860  -33.5170   24.0250 N   0  0  0  0  0  0  0  0  0  0  0  0
  -25.8550  -34.6520   23.3640 C   0  0  0  0  0  0  0  0  0  0  0  0
  -26.4830  -34.6750   22.3020 O   0  0  0  0  0  0  0  0  0  0  0  0
  -25.0190  -33.5700   24.8590 H   0  0  0  0  0  0  0  0  0  0  0  0
  -24.0680  -36.4190   23.2500 C   0  0  0  0  0  1  0  0  0  0  0  0
  -25.3460  -35.9700   23.9770 C   0  0  0  0  0  3  0  0  0  0  0  0
  -27.4770  -36.8340   24.8380 C   0  0  0  0  0  1  0  0  0  0  0  0
  -26.3450  -37.0600   23.9430 N   0  0  0  0  0  0  0  0  0  0  0  0
  -25.9190  -37.9480   24.1880 H   0  0  0  0  0  0  0  0  0  0  0  0
  -26.5230  -31.2970   24.7140 C   0  0  1  0  0  0  0  0  0  0  0  0
  -25.4870  -30.9170   25.7990 C   0  0  0  0  0  1  0  0  0  0  0  0
  -27.1290  -29.9860   24.1610 C   0  0  0  0  0  1  0  0  0  0  0  0
  -27.6810  -32.0610   25.3990 C   0  0  0  0  0  1  0  0  0  0  0  0
  1  8  2  0
  2  7  1  0
  3  5  1  0
  3  1  1  0
  4  6  1  6
  4  2  1  0
  4 54  1  0
  4  3  1  0
  7 13  1  0
  7  1  1  0
  9 10  2  0
  9 13  1  0
 10 14  1  0
 11 12  1  0
 12 15  1  0
 13 11  2  0
 14 24  1  0
 14 12  2  0
 16 24  1  0
 17 22  1  0
 18 19  1  0
 18 17  1  0
 20 19  1  0
 20 29  1  0
 20 21  1  0
 22 16  1  0
 22 21  1  0
 23 16  2  0
 24 25  1  0
 26 27  2  0
 27 46  1  0
 28 31  1  0
 28 27  1  0
 29 30  1  0
 29 26  1  0
 30 28  2  0
 31 32  1  0
 32 33  2  0
 34 37  1  0
 34 33  1  0
 35 34  2  0
 36 35  1  0
 36 31  2  0
 37 38  1  0
 38 43  2  0
 38 39  1  0
 39 40  2  0
 40 41  1  0
 41 45  1  0
 42 41  2  0
 43 42  1  0
 44 43  1  0
 46 47  1  0
 47 50  1  0
 47 49  1  0
 48 46  2  0
 51 26  1  0
 51 52  1  0
 53 51  1  0
 55 57  1  0
 55 54  1  0
 56 67  2  0
 57 62  1  0
 58 66  1  0
 58 68  1  0
 59 65  1  0
 59 61  1  0
 60 66  1  0
 61 60  1  0
 62 61  2  0
 63 64  1  0
 63 57  2  0
 64 59  2  0
 65 58  1  0
 66 56  1  0
 68 70  2  0
 69 68  1  0
 71 69  1  0
 72 81  2  0
 72 77  1  0
 73 69  1  0
 73 77  1  0
 74 73  1  0
 75 76  1  0
 75 74  1  0
 76 72  1  0
 77 78  2  0
 78 79  1  0
 80 79  2  0
 81 80  1  0
 82 56  1  0
 82 83  1  0
 82 92  1  0
 83 86  1  0
 84 88  1  0
 84 83  1  0
 85 84  2  0
 88 87  1  0
 90 88  1  0
 90 91  1  0
 90 89  1  0
 92 95  1  1
 92 93  1  0
 94 92  1  0
M  ISO  4  16 100  24 100  54 101  55 101
M  END
>  <TORSDO>  (21) 
F 18

>  <SCORE>  (21) 
-12.843

>  <name>  (21) 
20

>  <ligand_id>  (21) 
20

>  <original_smiles>  (21) 
[H]c1c([H])c([H])c2c(c1[H])C([H])([H])C([H])([H])C([H])([H])C2([H])N([H])C(=O)C1([H])N(C(=O)C([H])(N([H])C(=O)C([H])(N([H])C([H])([H])[H])C([H])([H])[H])C(C([H])([H])[H])(C([H])([H])[H])C([H])([H])[H])C([H])([H])c2c([H])c(OC([H])([H])C3(C([H])([H])[H])C([H])([H])N(c4c([H])c([H])c(N([H])C(=O)N5C([H])([H])C([H])([H])C([H])([H])C([H])(n6nc(-c7c([H])c([H])c(Oc8c([H])c([H])c(F)c([H])c8F)c([H])c7[H])c(C(=O)N([H])[H])c6N([H])[H])C5([H])[H])c(C([H])([H])[H])c4[H])C(=O)C3([H])C([H])([H])[H])c([H])c([H])c2C1([H])[H]

>  <smiles>  (21) 
[H]c1c([H])c([H])c2c(c1[H])C([H])([H])C([H])([H])C([H])([H])C2([H])N([H])C(=O)C1([H])N(C(=O)C([H])(N([H])C(=O)C([H])(N([H])C([H])([H])[H])C([H])([H])[H])C(C([H])([H])[H])(C([H])([H])[H])C([H])([H])[H])C([H])([H])c2c([H])c(OC([H])([H])C3(C([H])([H])[H])C([H])([H])N(c4c([H])c([H])c(N([H])C(=O)N5C([H])([H])C([H])([H])C([H])([H])C([H])(n6nc(-c7c([H])c([H])c(Oc8c([H])c([H])c(F)c([H])c8F)c([H])c7[H])c(C(=O)N([H])[H])c6N([H])[H])C5([H])[H])c(C([H])([H])[H])c4[H])C(=O)C3([H])C([H])([H])[H])c([H])c([H])c2C1([H])[H]

$$$$
21:0:0
     RDKit          3D

 98106  0  0  1  0  0  0  0  0999 V2000
  -29.6000  -18.4470   20.0050 C   0  0  0  0  0  3  0  0  0  0  0  0
  -30.9560  -17.2570   21.6340 C   0  0  0  0  0  3  0  0  0  0  0  0
  -30.6950  -19.7170   21.7910 C   0  0  0  0  0  0  0  0  0  0  0  0
  -30.1420  -17.1670   20.4920 C   0  0  0  0  0  0  0  0  0  0  0  0
  -29.8620  -19.7570   20.6280 C   0  0  0  0  0  0  0  0  0  0  0  0
  -31.2100  -18.4840   22.2730 C   0  0  0  0  0  0  0  0  0  0  0  0
  -31.9770  -18.4580   23.3900 F   0  0  0  0  0  0  0  0  0  0  0  0
  -30.5850  -14.6100   19.9330 C   0  0  0  0  0  0  0  0  0  0  0  0
  -30.2860  -12.3200   18.9330 C   0  0  0  0  0  2  0  0  0  0  0  0
  -29.2650  -12.3670   17.7750 C   0  0  0  0  0  2  0  0  0  0  0  0
  -27.8240  -12.2260   18.3090 C   0  0  0  0  0  2  0  0  0  0  0  0
  -27.5450  -13.1470   19.5280 C   0  0  0  0  0  3  0  0  0  0  0  0
  -28.6740  -13.0670   20.5750 C   0  0  0  0  0  2  0  0  0  0  0  0
  -29.9220  -13.4010   19.8790 N   0  0  0  0  0  0  0  0  0  0  0  0
  -31.7810  -14.6560   19.6260 O   0  0  0  0  0  0  0  0  0  0  0  0
  -29.8240  -15.7840   20.0070 N   0  0  0  0  0  0  0  0  0  0  0  0
  -28.8410  -15.6210   19.8510 H   0  0  0  0  0  0  0  0  0  0  0  0
  -25.2430  -13.8110   20.4380 C   0  0  0  0  0  0  0  0  0  0  0  0
  -24.1760  -13.0700   20.8680 C   0  0  0  0  0  0  0  0  0  0  0  0
  -24.5850  -11.7040   20.7840 C   0  0  0  0  0  0  0  0  0  0  0  0
  -26.2310  -12.8980   20.1140 N   0  0  0  0  0  0  0  0  0  0  0  0
  -25.8480  -11.6240   20.3860 N   0  0  0  0  0  0  0  0  0  0  0  0
  -23.8240  -10.4670   21.0010 C   0  0  0  0  0  0  0  0  0  0  0  0
  -24.2920   -9.4540   21.8680 C   0  0  0  0  0  3  0  0  0  0  0  0
  -23.5320   -8.2820   22.0760 C   0  0  0  0  0  3  0  0  0  0  0  0
  -22.2900   -8.1150   21.4180 C   0  0  0  0  0  0  0  0  0  0  0  0
  -21.8410   -9.1160   20.5390 C   0  0  0  0  0  3  0  0  0  0  0  0
  -22.6000  -10.2790   20.3290 C   0  0  0  0  0  3  0  0  0  0  0  0
  -21.4970   -7.0000   21.5390 O   0  0  0  0  0  0  0  0  0  0  0  0
  -21.5590   -6.1890   22.6440 C   0  0  0  0  0  0  0  0  0  0  0  0
  -21.3060   -6.6820   23.9440 C   0  0  0  0  0  3  0  0  0  0  0  0
  -21.3120   -5.8010   25.0430 C   0  0  0  0  0  3  0  0  0  0  0  0
  -21.5600   -4.4290   24.8460 C   0  0  0  0  0  0  0  0  0  0  0  0
  -21.8070   -3.9360   23.5530 C   0  0  0  0  0  3  0  0  0  0  0  0
  -21.8030   -4.8140   22.4550 C   0  0  0  0  0  0  0  0  0  0  0  0
  -22.0200   -4.3320   21.2080 F   0  0  0  0  0  0  0  0  0  0  0  0
  -21.5580   -3.5810   25.9020 F   0  0  0  0  0  0  0  0  0  0  0  0
  -22.8200  -13.5940   21.2410 C   0  0  0  0  0  0  0  0  0  0  0  0
  -22.1270  -12.9120   22.1470 N   0  0  0  0  0  0  0  0  0  0  0  0
  -22.3860  -14.6430   20.7640 O   0  0  0  0  0  0  0  0  0  0  0  0
  -22.4920  -12.0620   22.5500 H   0  0  0  0  0  0  0  0  0  0  0  0
  -21.2190  -13.2450   22.4400 H   0  0  0  0  0  0  0  0  0  0  0  0
  -25.4440  -15.1790   20.2720 N   0  0  0  0  0  0  0  0  0  0  0  0
  -24.7100  -15.8550   20.4510 H   0  0  0  0  0  0  0  0  0  0  0  0
  -26.2720  -15.5960   19.8660 H   0  0  0  0  0  0  0  0  0  0  0  0
  -28.6450  -22.0880   20.6680 C   0  0  0  0  0  0  0  0  0  0  0  0
  -29.4560  -21.1100   20.0920 N   0  0  0  0  0  0  0  0  0  0  0  0
  -27.7640  -21.6900   21.4420 O   0  0  0  0  0  0  0  0  0  0  0  0
  -30.0070  -21.4380   19.3100 H   0  0  0  0  0  0  0  0  0  0  0  0
  -28.8060  -23.5760   20.3080 C   0  0  0  0  0  3  0  0  0  0  0  0
  -28.3180  -24.8590   20.6350 C   0  0  0  0  0  3  0  0  0  0  0  0
  -28.4560  -26.1350   19.9950 O   0  0  0  0  0  0  0  0  0  0  0  0
  -24.7010  -31.6090   23.0780 C   0  0  0  0  0  0  0  0  0  0  0  0
  -27.3700  -27.0500   20.0060 C   0  0  0  0  0  0  0  0  0  0  0  0
  -23.5210  -30.2040   21.4300 C   0  0  0  0  0  3  0  0  0  0  0  0
  -24.9960  -28.6790   19.9920 C   0  0  0  0  0  0  0  0  0  0  0  0
  -26.0610  -30.5460   21.2540 C   0  0  0  0  0  2  0  0  0  0  0  0
  -26.1620  -29.1660   20.5990 C   0  0  0  0  0  0  0  0  0  0  0  0
  -27.3550  -28.3640   20.5930 C   0  0  0  0  0  3  0  0  0  0  0  0
  -26.1830  -26.6350   19.3710 C   0  0  0  0  0  3  0  0  0  0  0  0
  -25.0130  -27.4230   19.3640 C   0  0  0  0  0  3  0  0  0  0  0  0
  -23.7480  -29.5420   20.0450 C   0  0  0  0  0  2  0  0  0  0  0  0
  -24.7810  -30.8050   21.9770 N   0  0  0  0  0  0  0  0  0  0  0  0
  -23.6110  -31.8650   23.6130 O   0  0  0  0  0  0  0  0  0  0  0  0
  -22.8710  -29.1720   22.3840 C   0  0  0  0  0  0  0  0  0  0  0  0
  -21.5470  -28.9730   22.2560 N   0  0  0  0  0  0  0  0  0  0  0  0
  -23.5580  -28.5520   23.2010 O   0  0  0  0  0  0  0  0  0  0  0  0
  -21.0490  -29.5260   21.5710 H   0  0  0  0  0  0  0  0  0  0  0  0
  -18.1930  -27.7010   22.7400 C   0  0  0  0  0  0  0  0  0  0  0  0
  -20.7430  -28.0160   23.0210 C   0  0  0  0  0  3  0  0  0  0  0  0
  -20.8790  -26.5880   22.4430 C   0  0  0  0  0  2  0  0  0  0  0  0
  -19.7890  -26.2450   21.4240 C   0  0  0  0  0  2  0  0  0  0  0  0
  -18.4010  -26.3580   22.0610 C   0  0  0  0  0  2  0  0  0  0  0  0
  -19.2920  -28.4860   23.1770 C   0  0  0  0  0  0  0  0  0  0  0  0
  -19.0420  -29.7410   23.7730 C   0  0  0  0  0  3  0  0  0  0  0  0
  -17.7260  -30.2130   23.9370 C   0  0  0  0  0  3  0  0  0  0  0  0
  -16.6410  -29.4240   23.5160 C   0  0  0  0  0  3  0  0  0  0  0  0
  -16.8740  -28.1720   22.9240 C   0  0  0  0  0  3  0  0  0  0  0  0
  -25.9700  -32.2620   23.7070 C   0  0  0  0  0  3  0  0  0  0  0  0
  -26.5000  -31.4890   24.9750 C   0  0  1  0  0  0  0  0  0  0  0  0
  -25.4130  -31.2210   26.0410 C   0  0  0  0  0  1  0  0  0  0  0  0
  -27.1100  -30.1260   24.5720 C   0  0  0  0  0  1  0  0  0  0  0  0
  -27.6360  -32.2990   25.6450 C   0  0  0  0  0  1  0  0  0  0  0  0
  -25.6320  -33.6510   24.0550 N   0  0  0  0  0  0  0  0  0  0  0  0
  -25.9410  -34.7210   23.3110 C   0  0  0  0  0  0  0  0  0  0  0  0
  -26.6110  -34.6440   22.2760 O   0  0  0  0  0  0  0  0  0  0  0  0
  -25.0360  -33.7820   24.8590 H   0  0  0  0  0  0  0  0  0  0  0  0
  -24.1700  -36.4810   22.9970 C   0  0  0  0  0  1  0  0  0  0  0  0
  -25.4300  -36.0940   23.7890 C   0  0  0  0  0  3  0  0  0  0  0  0
  -27.5530  -37.0190   24.6080 C   0  0  0  0  0  1  0  0  0  0  0  0
  -26.4370  -37.1720   23.6760 N   0  0  0  0  0  0  0  0  0  0  0  0
  -26.0130  -38.0810   23.8340 H   0  0  0  0  0  0  0  0  0  0  0  0
  -31.0850  -20.9810   22.5670 C   0  0  0  0  0  2  0  0  0  0  0  0
  -33.2290  -21.6530   21.4980 C   0  0  0  0  0  0  0  0  0  0  0  0
  -33.9330  -22.7360   20.6940 C   0  0  0  0  0  1  0  0  0  0  0  0
  -31.9560  -21.8910   21.8230 N   0  0  0  0  0  0  0  0  0  0  0  0
  -33.8290  -20.6250   21.8120 O   0  0  0  0  0  0  0  0  0  0  0  0
  -31.5630  -22.7780   21.5410 H   0  0  0  0  0  0  0  0  0  0  0  0
  1  4  2  0
  1  5  1  0
  2  6  2  0
  3  6  1  0
  3 93  1  0
  4  2  1  0
  5  3  2  0
  6  7  1  0
  8 16  1  0
  9 14  1  0
 10 11  1  0
 10  9  1  0
 12 11  1  0
 12 21  1  0
 12 13  1  0
 14  8  1  0
 14 13  1  0
 15  8  2  0
 16  4  1  0
 17 16  1  0
 18 19  2  0
 19 38  1  0
 20 19  1  0
 20 23  1  0
 21 22  1  0
 21 18  1  0
 22 20  2  0
 23 24  1  0
 24 25  2  0
 26 29  1  0
 26 25  1  0
 27 26  2  0
 28 27  1  0
 28 23  2  0
 29 30  1  0
 30 31  1  0
 31 32  2  0
 33 32  1  0
 33 37  1  0
 34 33  2  0
 35 30  2  0
 35 34  1  0
 36 35  1  0
 38 39  1  0
 39 42  1  0
 39 41  1  0
 40 38  2  0
 43 18  1  0
 43 44  1  0
 45 43  1  0
 46 48  2  0
 47  5  1  0
 47 46  1  0
 49 47  1  0
 50 51  2  0
 50 46  1  0
 52 54  1  0
 52 51  1  0
 53 64  2  0
 54 59  1  0
 55 63  1  0
 55 65  1  0
 56 62  1  0
 56 58  1  0
 57 63  1  0
 58 57  1  0
 59 58  2  0
 60 54  2  0
 61 60  1  0
 61 56  2  0
 62 55  1  0
 63 53  1  0
 65 67  2  0
 66 65  1  0
 68 66  1  0
 69 78  2  0
 69 74  1  0
 70 66  1  0
 70 74  1  0
 71 70  1  0
 72 73  1  0
 72 71  1  0
 73 69  1  0
 74 75  2  0
 75 76  1  0
 77 76  2  0
 78 77  1  0
 79 53  1  0
 79 84  1  0
 79 80  1  0
 80 83  1  1
 80 81  1  0
 82 80  1  0
 84 87  1  0
 85 89  1  0
 85 84  1  0
 86 85  2  0
 89 88  1  0
 91 89  1  0
 91 92  1  0
 91 90  1  0
 94 97  2  0
 94 96  1  0
 95 94  1  0
 96 93  1  0
 98 96  1  0
M  ISO  4   8 100  16 100  51 101  52 101
M  END
>  <TORSDO>  (22) 
F 20

>  <SCORE>  (22) 
-12.522

>  <name>  (22) 
21

>  <ligand_id>  (22) 
21

>  <original_smiles>  (22) 
[H]C(Oc1c([H])c([H])c2c(c1[H])C([H])([H])N(C(=O)C([H])(N([H])C(=O)C([H])(N([H])C([H])([H])[H])C([H])([H])[H])C(C([H])([H])[H])(C([H])([H])[H])C([H])([H])[H])C([H])(C(=O)N([H])C1([H])c3c([H])c([H])c([H])c([H])c3C([H])([H])C([H])([H])C1([H])[H])C2([H])[H])=C([H])C(=O)N([H])c1c([H])c(N([H])C(=O)N2C([H])([H])C([H])([H])C([H])([H])C([H])(n3nc(-c4c([H])c([H])c(Oc5c([H])c([H])c(F)c([H])c5F)c([H])c4[H])c(C(=O)N([H])[H])c3N([H])[H])C2([H])[H])c([H])c(F)c1C([H])([H])N([H])C(=O)C([H])([H])[H]

>  <smiles>  (22) 
[H]C(Oc1c([H])c([H])c2c(c1[H])C([H])([H])N(C(=O)C([H])(N([H])C(=O)C([H])(N([H])C([H])([H])[H])C([H])([H])[H])C(C([H])([H])[H])(C([H])([H])[H])C([H])([H])[H])C([H])(C(=O)N([H])C1([H])c3c([H])c([H])c([H])c([H])c3C([H])([H])C([H])([H])C1([H])[H])C2([H])[H])=C([H])C(=O)N([H])c1c([H])c(N([H])C(=O)N2C([H])([H])C([H])([H])C([H])([H])C([H])(n3nc(-c4c([H])c([H])c(Oc5c([H])c([H])c(F)c([H])c5F)c([H])c4[H])c(C(=O)N([H])[H])c3N([H])[H])C2([H])[H])c([H])c(F)c1C([H])([H])N([H])C(=O)C([H])([H])[H]

$$$$
22:0:0
     RDKit          3D

 94102  0  0  1  0  0  0  0  0999 V2000
  -31.1900  -18.1980   21.3140 C   0  0  0  0  0  3  0  0  0  0  0  0
  -29.1710  -19.1380   20.3610 C   0  0  0  0  0  3  0  0  0  0  0  0
  -31.5360  -19.5060   21.7250 C   0  0  0  0  0  0  0  0  0  0  0  0
  -29.9880  -17.8970   20.6470 C   0  0  0  0  0  0  0  0  0  0  0  0
  -29.5050  -20.5710   20.7090 C   0  0  0  0  0  0  0  0  0  0  0  0
  -30.7190  -20.6410   21.4590 C   0  0  0  0  0  0  0  0  0  0  0  0
  -32.8340  -19.6710   22.5090 C   0  0  0  0  0  1  0  0  0  0  0  0
  -30.4890  -15.1660   20.3710 C   0  0  0  0  0  0  0  0  0  0  0  0
  -30.4160  -12.7930   19.4200 C   0  0  0  0  0  2  0  0  0  0  0  0
  -29.4790  -12.6800   18.1940 C   0  0  0  0  0  2  0  0  0  0  0  0
  -28.0270  -12.4270   18.6410 C   0  0  0  0  0  2  0  0  0  0  0  0
  -27.5970  -13.3650   19.7980 C   0  0  0  0  0  3  0  0  0  0  0  0
  -28.6550  -13.4390   20.9170 C   0  0  0  0  0  2  0  0  0  0  0  0
  -29.9010  -13.8970   20.2870 N   0  0  0  0  0  0  0  0  0  0  0  0
  -31.7080  -15.2020   20.1610 O   0  0  0  0  0  0  0  0  0  0  0  0
  -29.6990  -16.3790   20.4120 N   0  0  0  0  0  0  0  0  0  0  0  0
  -28.7170  -16.1770   20.3080 H   0  0  0  0  0  0  0  0  0  0  0  0
  -25.2200  -13.9080   20.5630 C   0  0  0  0  0  0  0  0  0  0  0  0
  -24.1660  -13.1200   20.9290 C   0  0  0  0  0  0  0  0  0  0  0  0
  -24.6430  -11.7740   20.8830 C   0  0  0  0  0  0  0  0  0  0  0  0
  -26.2690  -13.0440   20.3070 N   0  0  0  0  0  0  0  0  0  0  0  0
  -25.9340  -11.7540   20.5680 N   0  0  0  0  0  0  0  0  0  0  0  0
  -23.9280  -10.5020   21.0580 C   0  0  0  0  0  0  0  0  0  0  0  0
  -24.3740   -9.5240   21.9750 C   0  0  0  0  0  3  0  0  0  0  0  0
  -23.6560   -8.3200   22.1410 C   0  0  0  0  0  3  0  0  0  0  0  0
  -22.4800   -8.0840   21.3910 C   0  0  0  0  0  0  0  0  0  0  0  0
  -22.0540   -9.0520   20.4630 C   0  0  0  0  0  3  0  0  0  0  0  0
  -22.7720  -10.2470   20.2960 C   0  0  0  0  0  3  0  0  0  0  0  0
  -21.7330   -6.9350   21.4690 O   0  0  0  0  0  0  0  0  0  0  0  0
  -21.6970   -6.1740   22.6100 C   0  0  0  0  0  0  0  0  0  0  0  0
  -21.2600   -6.7050   23.8450 C   0  0  0  0  0  3  0  0  0  0  0  0
  -21.1740   -5.8710   24.9770 C   0  0  0  0  0  3  0  0  0  0  0  0
  -21.5140   -4.5080   24.8770 C   0  0  0  0  0  0  0  0  0  0  0  0
  -21.9430   -3.9770   23.6480 C   0  0  0  0  0  3  0  0  0  0  0  0
  -22.0320   -4.8090   22.5180 C   0  0  0  0  0  0  0  0  0  0  0  0
  -22.4260   -4.2880   21.3310 F   0  0  0  0  0  0  0  0  0  0  0  0
  -21.4220   -3.7050   25.9640 F   0  0  0  0  0  0  0  0  0  0  0  0
  -22.7640  -13.5810   21.2060 C   0  0  0  0  0  0  0  0  0  0  0  0
  -22.0440  -12.8710   22.0660 N   0  0  0  0  0  0  0  0  0  0  0  0
  -22.3180  -14.6060   20.6930 O   0  0  0  0  0  0  0  0  0  0  0  0
  -22.4180  -12.0410   22.5020 H   0  0  0  0  0  0  0  0  0  0  0  0
  -21.1040  -13.1630   22.2940 H   0  0  0  0  0  0  0  0  0  0  0  0
  -25.3680  -15.2830   20.3980 N   0  0  0  0  0  0  0  0  0  0  0  0
  -24.5900  -15.9240   20.5080 H   0  0  0  0  0  0  0  0  0  0  0  0
  -26.1980  -15.7310   20.0330 H   0  0  0  0  0  0  0  0  0  0  0  0
  -28.9340  -23.3240   20.3820 C   0  0  0  0  0  0  0  0  0  0  0  0
  -28.6730  -21.8930   20.4600 N   0  0  0  0  0  0  0  0  0  0  0  0
  -30.1020  -23.7100   20.3100 O   0  0  0  0  0  0  0  0  0  0  0  0
  -27.6870  -21.7060   20.3430 H   0  0  0  0  0  0  0  0  0  0  0  0
  -27.8130  -24.5790   20.2930 C   0  0  0  0  0  2  0  0  0  0  0  0
  -28.1690  -26.1290   20.3540 O   0  0  0  0  0  0  0  0  0  0  0  0
  -24.6290  -31.9860   23.2700 C   0  0  0  0  0  0  0  0  0  0  0  0
  -27.1490  -27.1710   20.2830 C   0  0  0  0  0  0  0  0  0  0  0  0
  -23.4170  -30.5870   21.6460 C   0  0  0  0  0  3  0  0  0  0  0  0
  -24.8500  -28.9840   20.2290 C   0  0  0  0  0  0  0  0  0  0  0  0
  -25.9760  -30.8140   21.4790 C   0  0  0  0  0  2  0  0  0  0  0  0
  -26.0360  -29.4090   20.8390 C   0  0  0  0  0  0  0  0  0  0  0  0
  -27.1880  -28.5210   20.8450 C   0  0  0  0  0  3  0  0  0  0  0  0
  -25.9370  -26.8690   19.6240 C   0  0  0  0  0  3  0  0  0  0  0  0
  -24.8170  -27.7300   19.6030 C   0  0  0  0  0  3  0  0  0  0  0  0
  -23.6320  -29.8970   20.2720 C   0  0  0  0  0  2  0  0  0  0  0  0
  -24.6950  -31.1520   22.1860 N   0  0  0  0  0  0  0  0  0  0  0  0
  -23.5440  -32.2860   23.7950 O   0  0  0  0  0  0  0  0  0  0  0  0
  -22.7270  -29.5950   22.6180 C   0  0  0  0  0  0  0  0  0  0  0  0
  -21.4000  -29.4240   22.4840 N   0  0  0  0  0  0  0  0  0  0  0  0
  -23.3900  -28.9810   23.4580 O   0  0  0  0  0  0  0  0  0  0  0  0
  -20.9190  -29.9680   21.7820 H   0  0  0  0  0  0  0  0  0  0  0  0
  -18.0170  -28.2190   22.9730 C   0  0  0  0  0  0  0  0  0  0  0  0
  -20.5720  -28.4980   23.2630 C   0  0  0  0  0  3  0  0  0  0  0  0
  -20.6860  -27.0560   22.7160 C   0  0  0  0  0  2  0  0  0  0  0  0
  -19.5960  -26.7110   21.6960 C   0  0  0  0  0  2  0  0  0  0  0  0
  -18.2070  -26.8600   22.3220 C   0  0  0  0  0  2  0  0  0  0  0  0
  -19.1280  -28.9940   23.4010 C   0  0  0  0  0  0  0  0  0  0  0  0
  -18.8950  -30.2650   23.9720 C   0  0  0  0  0  3  0  0  0  0  0  0
  -17.5860  -30.7600   24.1180 C   0  0  0  0  0  3  0  0  0  0  0  0
  -16.4900  -29.9840   23.7050 C   0  0  0  0  0  3  0  0  0  0  0  0
  -16.7070  -28.7150   23.1390 C   0  0  0  0  0  3  0  0  0  0  0  0
  -25.9100  -32.6200   23.8910 C   0  0  0  0  0  3  0  0  0  0  0  0
  -26.4170  -31.8560   25.1750 C   0  0  1  0  0  0  0  0  0  0  0  0
  -25.3180  -31.6320   26.2410 C   0  0  0  0  0  1  0  0  0  0  0  0
  -26.9940  -30.4720   24.8000 C   0  0  0  0  0  1  0  0  0  0  0  0
  -27.5700  -32.6480   25.8350 C   0  0  0  0  0  1  0  0  0  0  0  0
  -25.6050  -34.0220   24.2180 N   0  0  0  0  0  0  0  0  0  0  0  0
  -25.9210  -35.0740   23.4500 C   0  0  0  0  0  0  0  0  0  0  0  0
  -26.5670  -34.9660   22.4050 O   0  0  0  0  0  0  0  0  0  0  0  0
  -25.0270  -34.1800   25.0300 H   0  0  0  0  0  0  0  0  0  0  0  0
  -24.1810  -36.8670   23.1450 C   0  0  0  0  0  1  0  0  0  0  0  0
  -25.4490  -36.4660   23.9150 C   0  0  0  0  0  3  0  0  0  0  0  0
  -27.6090  -37.3640   24.6670 C   0  0  0  0  0  1  0  0  0  0  0  0
  -26.4760  -37.5190   23.7580 N   0  0  0  0  0  0  0  0  0  0  0  0
  -26.0740  -38.4410   23.9110 H   0  0  0  0  0  0  0  0  0  0  0  0
  -31.1290  -21.8450   22.0220 N   0  0  0  0  0  0  0  0  0  0  0  0
  -32.1110  -21.9200   22.2550 H   0  0  0  0  0  0  0  0  0  0  0  0
  -30.8020  -22.6670   21.5040 H   0  0  0  0  0  0  0  0  0  0  0  0
  1  3  1  0
  2  4  1  0
  2  5  2  0
  3  7  1  0
  4  1  2  0
  5  6  1  0
  6  3  2  0
  6 92  1  0
  8 16  1  0
  9 14  1  0
 10 11  1  0
 10  9  1  0
 12 11  1  0
 12 21  1  0
 12 13  1  0
 14  8  1  0
 14 13  1  0
 15  8  2  0
 16  4  1  0
 17 16  1  0
 18 19  2  0
 19 38  1  0
 20 19  1  0
 20 23  1  0
 21 18  1  0
 21 22  1  0
 22 20  2  0
 23 24  1  0
 24 25  2  0
 26 29  1  0
 26 25  1  0
 27 26  2  0
 28 27  1  0
 28 23  2  0
 29 30  1  0
 30 31  1  0
 31 32  2  0
 33 32  1  0
 33 37  1  0
 34 33  2  0
 35 30  2  0
 35 34  1  0
 36 35  1  0
 38 39  1  0
 39 42  1  0
 39 41  1  0
 40 38  2  0
 43 44  1  0
 43 18  1  0
 45 43  1  0
 46 47  1  0
 47  5  1  0
 48 46  2  0
 49 47  1  0
 50 51  1  0
 50 46  1  0
 52 63  2  0
 53 51  1  0
 53 58  1  0
 54 62  1  0
 54 64  1  0
 55 61  1  0
 55 57  1  0
 56 62  1  0
 57 58  2  0
 57 56  1  0
 59 53  2  0
 60 59  1  0
 60 55  2  0
 61 54  1  0
 62 52  1  0
 64 66  2  0
 65 64  1  0
 67 65  1  0
 68 77  2  0
 68 73  1  0
 69 65  1  0
 69 73  1  0
 70 69  1  0
 71 72  1  0
 71 70  1  0
 72 68  1  0
 73 74  2  0
 74 75  1  0
 76 75  2  0
 77 76  1  0
 78 52  1  0
 78 83  1  0
 78 79  1  0
 79 82  1  1
 79 80  1  0
 81 79  1  0
 83 86  1  0
 84 88  1  0
 84 83  1  0
 85 84  2  0
 88 87  1  0
 90 91  1  0
 90 88  1  0
 90 89  1  0
 92 93  1  0
 94 92  1  0
M  ISO  4   8 100  16 100  50 101  51 101
M  END
>  <TORSDO>  (23) 
F 19

>  <SCORE>  (23) 
-14.747

>  <name>  (23) 
22

>  <ligand_id>  (23) 
22

>  <original_smiles>  (23) 
[H]c1c([H])c([H])c2c(c1[H])C([H])([H])C([H])([H])C([H])([H])C2([H])N([H])C(=O)C1([H])N(C(=O)C([H])(N([H])C(=O)C([H])(N([H])C([H])([H])[H])C([H])([H])[H])C(C([H])([H])[H])(C([H])([H])[H])C([H])([H])[H])C([H])([H])c2c([H])c(OC([H])([H])C(=O)N([H])c3c([H])c(N([H])C(=O)N4C([H])([H])C([H])([H])C([H])([H])C([H])(n5nc(-c6c([H])c([H])c(Oc7c([H])c([H])c(F)c([H])c7F)c([H])c6[H])c(C(=O)N([H])[H])c5N([H])[H])C4([H])[H])c([H])c(C([H])([H])[H])c3N([H])[H])c([H])c([H])c2C1([H])[H]

>  <smiles>  (23) 
[H]c1c([H])c([H])c2c(c1[H])C([H])([H])C([H])([H])C([H])([H])C2([H])N([H])C(=O)C1([H])N(C(=O)C([H])(N([H])C(=O)C([H])(N([H])C([H])([H])[H])C([H])([H])[H])C(C([H])([H])[H])(C([H])([H])[H])C([H])([H])[H])C([H])([H])c2c([H])c(OC([H])([H])C(=O)N([H])c3c([H])c(N([H])C(=O)N4C([H])([H])C([H])([H])C([H])([H])C([H])(n5nc(-c6c([H])c([H])c(Oc7c([H])c([H])c(F)c([H])c7F)c([H])c6[H])c(C(=O)N([H])[H])c5N([H])[H])C4([H])[H])c([H])c(C([H])([H])[H])c3N([H])[H])c([H])c([H])c2C1([H])[H]

$$$$
23:0:0
     RDKit          3D

 93101  0  0  1  0  0  0  0  0999 V2000
  -29.6200  -21.7980   20.1990 C   0  0  0  0  0  0  0  0  0  0  0  0
  -29.3590  -20.5510   20.6680 N   0  0  0  0  0  0  0  0  0  0  0  0
  -30.2760  -22.0160   19.1760 O   0  0  0  0  0  0  0  0  0  0  0  0
  -29.0130  -20.5070   21.6130 H   0  0  0  0  0  0  0  0  0  0  0  0
  -29.5600  -16.7330   18.7430 C   0  0  0  0  0  3  0  0  0  0  0  0
  -29.2790  -17.8830   17.9950 C   0  0  0  0  0  3  0  0  0  0  0  0
  -29.7190  -18.0970   20.7600 C   0  0  0  0  0  3  0  0  0  0  0  0
  -29.7610  -16.8160   20.1380 C   0  0  0  0  0  0  0  0  0  0  0  0
  -29.4600  -19.2780   20.0040 C   0  0  0  0  0  0  0  0  0  0  0  0
  -29.2000  -19.1390   18.6170 C   0  0  0  0  0  0  0  0  0  0  0  0
  -28.8000  -20.1860   17.8620 F   0  0  0  0  0  0  0  0  0  0  0  0
  -30.6610  -14.5650   20.5180 C   0  0  0  0  0  0  0  0  0  0  0  0
  -30.4120  -12.3860   19.4040 C   0  0  0  0  0  2  0  0  0  0  0  0
  -29.4860  -12.5770   18.1820 C   0  0  0  0  0  2  0  0  0  0  0  0
  -28.0040  -12.4260   18.5930 C   0  0  0  0  0  2  0  0  0  0  0  0
  -27.6400  -13.2550   19.8520 C   0  0  0  0  0  3  0  0  0  0  0  0
  -28.6860  -13.0670   20.9760 C   0  0  0  0  0  2  0  0  0  0  0  0
  -30.0150  -13.3720   20.4190 N   0  0  0  0  0  0  0  0  0  0  0  0
  -31.8150  -14.7450   20.1270 O   0  0  0  0  0  0  0  0  0  0  0  0
  -29.8830  -15.6040   20.8900 N   0  0  0  0  0  0  0  0  0  0  0  0
  -29.0270  -15.3000   21.3280 H   0  0  0  0  0  0  0  0  0  0  0  0
  -25.2250  -13.8240   20.5430 C   0  0  0  0  0  0  0  0  0  0  0  0
  -24.1650  -13.0370   20.9090 C   0  0  0  0  0  0  0  0  0  0  0  0
  -24.6510  -11.6940   20.8890 C   0  0  0  0  0  0  0  0  0  0  0  0
  -26.2860  -12.9620   20.3200 N   0  0  0  0  0  0  0  0  0  0  0  0
  -25.9450  -11.6760   20.5900 N   0  0  0  0  0  0  0  0  0  0  0  0
  -23.9480  -10.4170   21.0810 C   0  0  0  0  0  0  0  0  0  0  0  0
  -24.3900   -9.4640   22.0270 C   0  0  0  0  0  3  0  0  0  0  0  0
  -23.6840   -8.2540   22.2060 C   0  0  0  0  0  3  0  0  0  0  0  0
  -22.5250   -7.9890   21.4380 C   0  0  0  0  0  0  0  0  0  0  0  0
  -22.1030   -8.9310   20.4840 C   0  0  0  0  0  3  0  0  0  0  0  0
  -22.8080  -10.1330   20.3040 C   0  0  0  0  0  3  0  0  0  0  0  0
  -21.7930   -6.8300   21.5230 O   0  0  0  0  0  0  0  0  0  0  0  0
  -21.7460   -6.0930   22.6790 C   0  0  0  0  0  0  0  0  0  0  0  0
  -21.2600   -6.6370   23.8880 C   0  0  0  0  0  3  0  0  0  0  0  0
  -21.1620   -5.8270   25.0360 C   0  0  0  0  0  3  0  0  0  0  0  0
  -21.5370   -4.4710   24.9760 C   0  0  0  0  0  0  0  0  0  0  0  0
  -22.0140   -3.9250   23.7710 C   0  0  0  0  0  3  0  0  0  0  0  0
  -22.1140   -4.7330   22.6250 C   0  0  0  0  0  0  0  0  0  0  0  0
  -22.5540   -4.1980   21.4610 F   0  0  0  0  0  0  0  0  0  0  0  0
  -21.4350   -3.6900   26.0750 F   0  0  0  0  0  0  0  0  0  0  0  0
  -22.7560  -13.4900   21.1640 C   0  0  0  0  0  0  0  0  0  0  0  0
  -22.0290  -12.7840   22.0220 N   0  0  0  0  0  0  0  0  0  0  0  0
  -22.3050  -14.5080   20.6370 O   0  0  0  0  0  0  0  0  0  0  0  0
  -22.4060  -11.9650   22.4760 H   0  0  0  0  0  0  0  0  0  0  0  0
  -21.0820  -13.0680   22.2280 H   0  0  0  0  0  0  0  0  0  0  0  0
  -25.3640  -15.1960   20.3580 N   0  0  0  0  0  0  0  0  0  0  0  0
  -24.5830  -15.8350   20.4530 H   0  0  0  0  0  0  0  0  0  0  0  0
  -26.2060  -15.6460   20.0240 H   0  0  0  0  0  0  0  0  0  0  0  0
  -29.1230  -22.9810   21.0610 C   0  0  0  0  0  2  0  0  0  0  0  0
  -29.4470  -24.4440   20.5950 C   0  0  0  0  0  2  0  0  0  0  0  0
  -28.2050  -25.2650   20.1580 C   0  0  0  0  0  2  0  0  0  0  0  0
  -28.3830  -26.7020   20.2280 O   0  0  0  0  0  0  0  0  0  0  0  0
  -24.5770  -31.9290   23.2960 C   0  0  0  0  0  0  0  0  0  0  0  0
  -27.2230  -27.4640   20.2040 C   0  0  0  0  0  0  0  0  0  0  0  0
  -23.3770  -30.5320   21.6450 C   0  0  0  0  0  3  0  0  0  0  0  0
  -24.8360  -29.0000   20.2190 C   0  0  0  0  0  0  0  0  0  0  0  0
  -25.9080  -30.8770   21.4660 C   0  0  0  0  0  2  0  0  0  0  0  0
  -25.9950  -29.5060   20.8190 C   0  0  0  0  0  0  0  0  0  0  0  0
  -27.1930  -28.7460   20.8090 C   0  0  0  0  0  3  0  0  0  0  0  0
  -26.0380  -26.9860   19.5930 C   0  0  0  0  0  3  0  0  0  0  0  0
  -24.8550  -27.7390   19.6030 C   0  0  0  0  0  3  0  0  0  0  0  0
  -23.5930  -29.8610   20.2630 C   0  0  0  0  0  2  0  0  0  0  0  0
  -24.6370  -31.1280   22.1920 N   0  0  0  0  0  0  0  0  0  0  0  0
  -23.4910  -32.2040   23.8270 O   0  0  0  0  0  0  0  0  0  0  0  0
  -22.7180  -29.5060   22.5990 C   0  0  0  0  0  0  0  0  0  0  0  0
  -21.3970  -29.3090   22.4490 N   0  0  0  0  0  0  0  0  0  0  0  0
  -23.3960  -28.8920   23.4270 O   0  0  0  0  0  0  0  0  0  0  0  0
  -20.9130  -29.8600   21.7550 H   0  0  0  0  0  0  0  0  0  0  0  0
  -18.0290  -28.0790   22.8840 C   0  0  0  0  0  0  0  0  0  0  0  0
  -20.5750  -28.3650   23.2070 C   0  0  0  0  0  3  0  0  0  0  0  0
  -20.7090  -26.9340   22.6370 C   0  0  0  0  0  2  0  0  0  0  0  0
  -19.6300  -26.5910   21.6070 C   0  0  0  0  0  2  0  0  0  0  0  0
  -18.2340  -26.7260   22.2220 C   0  0  0  0  0  2  0  0  0  0  0  0
  -19.1290  -28.8560   23.3320 C   0  0  0  0  0  0  0  0  0  0  0  0
  -18.8840  -30.1190   23.9130 C   0  0  0  0  0  3  0  0  0  0  0  0
  -17.5710  -30.6060   24.0480 C   0  0  0  0  0  3  0  0  0  0  0  0
  -16.4830  -29.8270   23.6130 C   0  0  0  0  0  3  0  0  0  0  0  0
  -16.7130  -28.5650   23.0370 C   0  0  0  0  0  3  0  0  0  0  0  0
  -25.8590  -32.5550   23.9220 C   0  0  0  0  0  3  0  0  0  0  0  0
  -26.3510  -31.8030   25.2190 C   0  0  1  0  0  0  0  0  0  0  0  0
  -25.2360  -31.5970   26.2690 C   0  0  0  0  0  1  0  0  0  0  0  0
  -26.9280  -30.4150   24.8590 C   0  0  0  0  0  1  0  0  0  0  0  0
  -27.4990  -32.5970   25.8850 C   0  0  0  0  0  1  0  0  0  0  0  0
  -25.5630  -33.9640   24.2220 N   0  0  0  0  0  0  0  0  0  0  0  0
  -25.9170  -34.9970   23.4470 C   0  0  0  0  0  0  0  0  0  0  0  0
  -26.5990  -34.8680   22.4270 O   0  0  0  0  0  0  0  0  0  0  0  0
  -24.9700  -34.1430   25.0190 H   0  0  0  0  0  0  0  0  0  0  0  0
  -24.2230  -36.8060   23.0200 C   0  0  0  0  0  1  0  0  0  0  0  0
  -25.4350  -36.4000   23.8710 C   0  0  0  0  0  3  0  0  0  0  0  0
  -27.5560  -37.2690   24.7520 C   0  0  0  0  0  1  0  0  0  0  0  0
  -26.4870  -37.4360   23.7710 N   0  0  0  0  0  0  0  0  0  0  0  0
  -26.0890  -38.3640   23.8880 H   0  0  0  0  0  0  0  0  0  0  0  0
  1  2  1  0
  1 50  1  0
  2  4  1  0
  3  1  2  0
  5  8  1  0
  6 10  1  0
  6  5  2  0
  8  7  2  0
  8 20  1  0
  9  2  1  0
  9  7  1  0
 10  9  2  0
 11 10  1  0
 12 20  1  0
 13 18  1  0
 14 15  1  0
 14 13  1  0
 16 15  1  0
 16 25  1  0
 16 17  1  0
 18 12  1  0
 18 17  1  0
 19 12  2  0
 20 21  1  0
 22 23  2  0
 23 42  1  0
 24 23  1  0
 24 27  1  0
 25 22  1  0
 25 26  1  0
 26 24  2  0
 27 28  1  0
 28 29  2  0
 30 33  1  0
 30 29  1  0
 31 30  2  0
 32 31  1  0
 32 27  2  0
 33 34  1  0
 34 35  1  0
 35 36  2  0
 37 36  1  0
 37 41  1  0
 38 37  2  0
 39 34  2  0
 39 38  1  0
 40 39  1  0
 42 43  1  0
 43 46  1  0
 43 45  1  0
 44 42  2  0
 47 48  1  0
 47 22  1  0
 49 47  1  0
 51 50  1  0
 52 53  1  0
 52 51  1  0
 54 65  2  0
 55 53  1  0
 55 60  1  0
 56 64  1  0
 56 66  1  0
 57 63  1  0
 57 59  1  0
 58 64  1  0
 59 58  1  0
 60 59  2  0
 61 62  1  0
 61 55  2  0
 62 57  2  0
 63 56  1  0
 64 54  1  0
 66 68  2  0
 67 66  1  0
 69 67  1  0
 70 79  2  0
 70 75  1  0
 71 67  1  0
 71 75  1  0
 72 71  1  0
 73 74  1  0
 73 72  1  0
 74 70  1  0
 75 76  2  0
 76 77  1  0
 78 77  2  0
 79 78  1  0
 80 54  1  0
 80 85  1  0
 80 81  1  0
 81 84  1  1
 81 82  1  0
 83 81  1  0
 85 88  1  0
 86 90  1  0
 86 85  1  0
 87 86  2  0
 90 89  1  0
 92 90  1  0
 92 93  1  0
 92 91  1  0
M  ISO  4  12 100  20 100  52 101  53 101
M  END
>  <TORSDO>  (24) 
F 20

>  <SCORE>  (24) 
-13.795

>  <name>  (24) 
23

>  <ligand_id>  (24) 
23

>  <original_smiles>  (24) 
[H]c1c([H])c([H])c2c(c1[H])C([H])([H])C([H])([H])C([H])([H])C2([H])N([H])C(=O)C1([H])N(C(=O)C([H])(N([H])C(=O)C([H])(N([H])C([H])([H])[H])C([H])([H])[H])C(C([H])([H])[H])(C([H])([H])[H])C([H])([H])[H])C([H])([H])c2c([H])c(OC([H])([H])C([H])([H])C([H])([H])C(=O)N([H])c3c([H])c(N([H])C(=O)N4C([H])([H])C([H])([H])C([H])([H])C([H])(n5nc(-c6c([H])c([H])c(Oc7c([H])c([H])c(F)c([H])c7F)c([H])c6[H])c(C(=O)N([H])[H])c5N([H])[H])C4([H])[H])c([H])c([H])c3F)c([H])c([H])c2C1([H])[H]

>  <smiles>  (24) 
[H]c1c([H])c([H])c2c(c1[H])C([H])([H])C([H])([H])C([H])([H])C2([H])N([H])C(=O)C1([H])N(C(=O)C([H])(N([H])C(=O)C([H])(N([H])C([H])([H])[H])C([H])([H])[H])C(C([H])([H])[H])(C([H])([H])[H])C([H])([H])[H])C([H])([H])c2c([H])c(OC([H])([H])C([H])([H])C([H])([H])C(=O)N([H])c3c([H])c(N([H])C(=O)N4C([H])([H])C([H])([H])C([H])([H])C([H])(n5nc(-c6c([H])c([H])c(Oc7c([H])c([H])c(F)c([H])c7F)c([H])c6[H])c(C(=O)N([H])[H])c5N([H])[H])C4([H])[H])c([H])c([H])c3F)c([H])c([H])c2C1([H])[H]

$$$$
24:0:0
     RDKit          3D

 93101  0  0  1  0  0  0  0  0999 V2000
  -28.8990  -22.3580   19.8800 C   0  0  0  0  0  0  0  0  0  0  0  0
  -29.2750  -21.2130   20.5860 N   0  0  0  0  0  0  0  0  0  0  0  0
  -28.7400  -22.3080   18.6570 O   0  0  0  0  0  0  0  0  0  0  0  0
  -29.2160  -21.3010   21.5920 H   0  0  0  0  0  0  0  0  0  0  0  0
  -30.4990  -19.8870   18.8680 C   0  0  0  0  0  3  0  0  0  0  0  0
  -29.6910  -18.6120   20.7650 C   0  0  0  0  0  3  0  0  0  0  0  0
  -30.9920  -18.7000   18.2970 C   0  0  0  0  0  0  0  0  0  0  0  0
  -29.7900  -19.9020   20.0870 C   0  0  0  0  0  0  0  0  0  0  0  0
  -30.2280  -17.3580   20.2340 C   0  0  0  0  0  0  0  0  0  0  0  0
  -30.8380  -17.4510   18.9450 C   0  0  0  0  0  0  0  0  0  0  0  0
  -31.6740  -18.7870   16.9400 C   0  0  0  0  0  1  0  0  0  0  0  0
  -31.3420  -16.0560   18.0440 Cl  0  0  0  0  0  0  0  0  0  0  0  0
  -30.8470  -14.8860   20.8480 C   0  0  0  0  0  0  0  0  0  0  0  0
  -30.7300  -12.5800   19.9170 C   0  0  0  0  0  2  0  0  0  0  0  0
  -29.8880  -12.6090   18.6210 C   0  0  0  0  0  2  0  0  0  0  0  0
  -28.3880  -12.4640   18.9350 C   0  0  0  0  0  2  0  0  0  0  0  0
  -27.9210  -13.3820   20.0960 C   0  0  0  0  0  3  0  0  0  0  0  0
  -28.8890  -13.3240   21.2970 C   0  0  0  0  0  2  0  0  0  0  0  0
  -30.2290  -13.6580   20.8000 N   0  0  0  0  0  0  0  0  0  0  0  0
  -32.0660  -14.9670   20.6710 O   0  0  0  0  0  0  0  0  0  0  0  0
  -30.0560  -16.0290   20.8960 N   0  0  0  0  0  0  0  0  0  0  0  0
  -29.1340  -15.8660   21.2690 H   0  0  0  0  0  0  0  0  0  0  0  0
  -25.4830  -13.9790   20.6210 C   0  0  0  0  0  0  0  0  0  0  0  0
  -24.3930  -13.2080   20.9220 C   0  0  0  0  0  0  0  0  0  0  0  0
  -24.8610  -11.8590   20.9600 C   0  0  0  0  0  0  0  0  0  0  0  0
  -26.5440  -13.0990   20.4870 N   0  0  0  0  0  0  0  0  0  0  0  0
  -26.1730  -11.8200   20.7570 N   0  0  0  0  0  0  0  0  0  0  0  0
  -24.1260  -10.5970   21.1200 C   0  0  0  0  0  0  0  0  0  0  0  0
  -24.4890   -9.6480   22.1010 C   0  0  0  0  0  3  0  0  0  0  0  0
  -23.7540   -8.4520   22.2480 C   0  0  0  0  0  3  0  0  0  0  0  0
  -22.6410   -8.1960   21.4120 C   0  0  0  0  0  0  0  0  0  0  0  0
  -22.2970   -9.1330   20.4210 C   0  0  0  0  0  3  0  0  0  0  0  0
  -23.0330  -10.3210   20.2730 C   0  0  0  0  0  3  0  0  0  0  0  0
  -21.8840   -7.0500   21.4650 O   0  0  0  0  0  0  0  0  0  0  0  0
  -21.7460   -6.3320   22.6250 C   0  0  0  0  0  0  0  0  0  0  0  0
  -21.2070   -6.9050   23.7970 C   0  0  0  0  0  3  0  0  0  0  0  0
  -21.0190   -6.1110   24.9460 C   0  0  0  0  0  3  0  0  0  0  0  0
  -21.3610   -4.7450   24.9240 C   0  0  0  0  0  0  0  0  0  0  0  0
  -21.8940   -4.1730   23.7560 C   0  0  0  0  0  3  0  0  0  0  0  0
  -22.0830   -4.9630   22.6090 C   0  0  0  0  0  0  0  0  0  0  0  0
  -22.5770   -4.4000   21.4800 F   0  0  0  0  0  0  0  0  0  0  0  0
  -21.1740   -3.9810   26.0250 F   0  0  0  0  0  0  0  0  0  0  0  0
  -22.9770  -13.6840   21.0680 C   0  0  0  0  0  0  0  0  0  0  0  0
  -22.1850  -13.0090   21.8940 N   0  0  0  0  0  0  0  0  0  0  0  0
  -22.5780  -14.6910   20.4840 O   0  0  0  0  0  0  0  0  0  0  0  0
  -22.5190  -12.1960   22.3900 H   0  0  0  0  0  0  0  0  0  0  0  0
  -21.2310  -13.3120   22.0340 H   0  0  0  0  0  0  0  0  0  0  0  0
  -25.6550  -15.3450   20.4230 N   0  0  0  0  0  0  0  0  0  0  0  0
  -24.8760  -15.9950   20.4500 H   0  0  0  0  0  0  0  0  0  0  0  0
  -26.5190  -15.7800   20.1270 H   0  0  0  0  0  0  0  0  0  0  0  0
  -28.5930  -23.7740   20.5630 C   0  0  0  0  0  3  0  0  0  0  0  0
  -28.3320  -25.0510   19.5940 C   0  0  0  0  0  3  0  0  0  0  0  0
  -28.2950  -26.4780   20.0750 O   0  0  0  0  0  0  0  0  0  0  0  0
  -24.5390  -31.8620   23.1340 C   0  0  0  0  0  0  0  0  0  0  0  0
  -27.1600  -27.3200   20.0090 C   0  0  0  0  0  0  0  0  0  0  0  0
  -23.3360  -30.4780   21.4820 C   0  0  0  0  0  3  0  0  0  0  0  0
  -24.7890  -28.9520   20.0290 C   0  0  0  0  0  0  0  0  0  0  0  0
  -25.8770  -30.8030   21.2950 C   0  0  0  0  0  2  0  0  0  0  0  0
  -25.9590  -29.4300   20.6280 C   0  0  0  0  0  0  0  0  0  0  0  0
  -27.1430  -28.6250   20.6090 C   0  0  0  0  0  3  0  0  0  0  0  0
  -25.9560  -26.9060   19.3910 C   0  0  0  0  0  3  0  0  0  0  0  0
  -24.7930  -27.6990   19.4010 C   0  0  0  0  0  3  0  0  0  0  0  0
  -23.5500  -29.8220   20.0920 C   0  0  0  0  0  2  0  0  0  0  0  0
  -24.6040  -31.0650   22.0270 N   0  0  0  0  0  0  0  0  0  0  0  0
  -23.4550  -32.1270   23.6760 O   0  0  0  0  0  0  0  0  0  0  0  0
  -22.6830  -29.4460   22.4320 C   0  0  0  0  0  0  0  0  0  0  0  0
  -21.3540  -29.2770   22.3230 N   0  0  0  0  0  0  0  0  0  0  0  0
  -23.3700  -28.8000   23.2280 O   0  0  0  0  0  0  0  0  0  0  0  0
  -20.8560  -29.8500   21.6550 H   0  0  0  0  0  0  0  0  0  0  0  0
  -17.9740  -28.1100   22.8760 C   0  0  0  0  0  0  0  0  0  0  0  0
  -20.5410  -28.3290   23.0880 C   0  0  0  0  0  3  0  0  0  0  0  0
  -20.6090  -26.9130   22.4710 C   0  0  0  0  0  2  0  0  0  0  0  0
  -19.4780  -26.6330   21.4760 C   0  0  0  0  0  2  0  0  0  0  0  0
  -18.1150  -26.7780   22.1580 C   0  0  0  0  0  2  0  0  0  0  0  0
  -19.1130  -28.8460   23.2980 C   0  0  0  0  0  0  0  0  0  0  0  0
  -18.9260  -30.0940   23.9300 C   0  0  0  0  0  3  0  0  0  0  0  0
  -17.6320  -30.6060   24.1450 C   0  0  0  0  0  3  0  0  0  0  0  0
  -16.5080  -29.8670   23.7380 C   0  0  0  0  0  3  0  0  0  0  0  0
  -16.6800  -28.6210   23.1100 C   0  0  0  0  0  3  0  0  0  0  0  0
  -25.8190  -32.4960   23.7600 C   0  0  0  0  0  3  0  0  0  0  0  0
  -26.3490  -31.7080   25.0200 C   0  0  1  0  0  0  0  0  0  0  0  0
  -25.2640  -31.4430   26.0900 C   0  0  0  0  0  1  0  0  0  0  0  0
  -26.9400  -30.3410   24.6030 C   0  0  0  0  0  1  0  0  0  0  0  0
  -27.4960  -32.5000   25.6890 C   0  0  0  0  0  1  0  0  0  0  0  0
  -25.4980  -33.8860   24.1170 N   0  0  0  0  0  0  0  0  0  0  0  0
  -25.8450  -34.9590   23.3950 C   0  0  0  0  0  0  0  0  0  0  0  0
  -26.5380  -34.8840   22.3770 O   0  0  0  0  0  0  0  0  0  0  0  0
  -24.8840  -34.0170   24.9070 H   0  0  0  0  0  0  0  0  0  0  0  0
  -24.1470  -36.7790   23.0230 C   0  0  0  0  0  1  0  0  0  0  0  0
  -25.3450  -36.3340   23.8780 C   0  0  0  0  0  3  0  0  0  0  0  0
  -27.4410  -37.1730   24.8440 C   0  0  0  0  0  1  0  0  0  0  0  0
  -26.3890  -37.3820   23.8530 N   0  0  0  0  0  0  0  0  0  0  0  0
  -25.9810  -38.3000   24.0110 H   0  0  0  0  0  0  0  0  0  0  0  0
  1 51  1  0
  1  2  1  0
  2  4  1  0
  3  1  2  0
  5  8  1  0
  7  5  2  0
  7 10  1  0
  8  2  1  0
  8  6  2  0
  9  6  1  0
  9 21  1  0
 10  9  2  0
 11  7  1  0
 12 10  1  0
 13 21  1  0
 14 19  1  0
 15 16  1  0
 15 14  1  0
 17 16  1  0
 17 26  1  0
 17 18  1  0
 19 13  1  0
 19 18  1  0
 20 13  2  0
 21 22  1  0
 23 24  2  0
 24 25  1  0
 24 43  1  0
 25 28  1  0
 26 23  1  0
 26 27  1  0
 27 25  2  0
 28 29  1  0
 29 30  2  0
 31 34  1  0
 31 30  1  0
 32 31  2  0
 33 32  1  0
 33 28  2  0
 34 35  1  0
 35 36  1  0
 36 37  2  0
 38 37  1  0
 38 42  1  0
 39 38  2  0
 40 35  2  0
 40 39  1  0
 41 40  1  0
 43 44  1  0
 44 47  1  0
 44 46  1  0
 45 43  2  0
 48 49  1  0
 48 23  1  0
 50 48  1  0
 52 53  1  0
 52 51  2  0
 54 65  2  0
 55 53  1  0
 55 60  1  0
 56 64  1  0
 56 66  1  0
 57 63  1  0
 57 59  1  0
 58 64  1  0
 59 58  1  0
 60 59  2  0
 61 62  1  0
 61 55  2  0
 62 57  2  0
 63 56  1  0
 64 54  1  0
 66 68  2  0
 67 66  1  0
 69 67  1  0
 70 79  2  0
 70 75  1  0
 71 67  1  0
 71 75  1  0
 72 71  1  0
 73 74  1  0
 73 72  1  0
 74 70  1  0
 75 76  2  0
 76 77  1  0
 78 77  2  0
 79 78  1  0
 80 54  1  0
 80 85  1  0
 80 81  1  0
 81 84  1  1
 81 82  1  0
 83 81  1  0
 85 88  1  0
 86 90  1  0
 86 85  1  0
 87 86  2  0
 90 89  1  0
 92 90  1  0
 92 93  1  0
 92 91  1  0
M  ISO  4  13 100  21 100  52 101  53 101
M  END
>  <TORSDO>  (25) 
F 19

>  <SCORE>  (25) 
-14.002

>  <name>  (25) 
24

>  <ligand_id>  (25) 
24

>  <original_smiles>  (25) 
[H]c1c([H])c([H])c2c(c1[H])C([H])([H])C([H])([H])C([H])([H])C2([H])N([H])C(=O)C1([H])N(C(=O)C([H])(N([H])C(=O)C([H])(N([H])C([H])([H])[H])C([H])([H])[H])C(C([H])([H])[H])(C([H])([H])[H])C([H])([H])[H])C([H])([H])c2c([H])c(OC([H])([H])C([H])([H])C(=O)N([H])c3c([H])c(N([H])C(=O)N4C([H])([H])C([H])([H])C([H])([H])C([H])(n5nc(-c6c([H])c([H])c(Oc7c([H])c([H])c(F)c([H])c7F)c([H])c6[H])c(C(=O)N([H])[H])c5N([H])[H])C4([H])[H])c(Cl)c(C([H])([H])[H])c3[H])c([H])c([H])c2C1([H])[H]

>  <smiles>  (25) 
[H]c1c([H])c([H])c2c(c1[H])C([H])([H])C([H])([H])C([H])([H])C2([H])N([H])C(=O)C1([H])N(C(=O)C([H])(N([H])C(=O)C([H])(N([H])C([H])([H])[H])C([H])([H])[H])C(C([H])([H])[H])(C([H])([H])[H])C([H])([H])[H])C([H])([H])c2c([H])c(OC([H])([H])C([H])([H])C(=O)N([H])c3c([H])c(N([H])C(=O)N4C([H])([H])C([H])([H])C([H])([H])C([H])(n5nc(-c6c([H])c([H])c(Oc7c([H])c([H])c(F)c([H])c7F)c([H])c6[H])c(C(=O)N([H])[H])c5N([H])[H])C4([H])[H])c(Cl)c(C([H])([H])[H])c3[H])c([H])c([H])c2C1([H])[H]

$$$$
25:0:0
     RDKit          3D

 96104  0  0  1  0  0  0  0  0999 V2000
  -29.9390  -20.5710   21.8750 C   0  0  0  0  0  3  0  0  0  0  0  0
  -30.7540  -18.2240   21.6460 C   0  0  0  0  0  3  0  0  0  0  0  0
  -29.6410  -19.3540   19.8080 C   0  0  0  0  0  3  0  0  0  0  0  0
  -30.5710  -19.4120   22.4020 C   0  0  0  0  0  0  0  0  0  0  0  0
  -29.4620  -20.6710   20.5470 C   0  0  0  0  0  0  0  0  0  0  0  0
  -30.2820  -18.0770   20.3280 C   0  0  0  0  0  0  0  0  0  0  0  0
  -31.0610  -15.3650   20.0210 C   0  0  0  0  0  0  0  0  0  0  0  0
  -30.9210  -12.9420   19.1670 C   0  0  0  0  0  2  0  0  0  0  0  0
  -29.9760  -12.7700   17.9530 C   0  0  0  0  0  2  0  0  0  0  0  0
  -28.5150  -12.5970   18.4100 C   0  0  0  0  0  2  0  0  0  0  0  0
  -28.1170  -13.6080   19.5150 C   0  0  0  0  0  3  0  0  0  0  0  0
  -29.1820  -13.7110   20.6250 C   0  0  0  0  0  2  0  0  0  0  0  0
  -30.4300  -14.1100   19.9610 N   0  0  0  0  0  0  0  0  0  0  0  0
  -32.2920  -15.3400   19.9080 O   0  0  0  0  0  0  0  0  0  0  0  0
  -30.3250  -16.5980   19.7950 N   0  0  0  0  0  0  0  0  0  0  0  0
  -29.4590  -16.3670   19.3340 H   0  0  0  0  0  0  0  0  0  0  0  0
  -25.7770  -14.2870   20.2780 C   0  0  0  0  0  0  0  0  0  0  0  0
  -24.6870  -13.5610   20.6660 C   0  0  0  0  0  0  0  0  0  0  0  0
  -25.0980  -12.1930   20.6580 C   0  0  0  0  0  0  0  0  0  0  0  0
  -26.7820  -13.3640   20.0420 N   0  0  0  0  0  0  0  0  0  0  0  0
  -26.3860  -12.0990   20.3420 N   0  0  0  0  0  0  0  0  0  0  0  0
  -24.3220  -10.9640   20.8740 C   0  0  0  0  0  0  0  0  0  0  0  0
  -24.6980  -10.0160   21.8500 C   0  0  0  0  0  3  0  0  0  0  0  0
  -23.9250   -8.8530   22.0530 C   0  0  0  0  0  3  0  0  0  0  0  0
  -22.7600   -8.6310   21.2800 C   0  0  0  0  0  0  0  0  0  0  0  0
  -22.4030   -9.5660   20.2940 C   0  0  0  0  0  3  0  0  0  0  0  0
  -23.1770  -10.7210   20.0890 C   0  0  0  0  0  3  0  0  0  0  0  0
  -21.9610   -7.5190   21.3910 O   0  0  0  0  0  0  0  0  0  0  0  0
  -21.8230   -6.8470   22.5780 C   0  0  0  0  0  0  0  0  0  0  0  0
  -21.3480   -7.4840   23.7450 C   0  0  0  0  0  3  0  0  0  0  0  0
  -21.1550   -6.7400   24.9250 C   0  0  0  0  0  3  0  0  0  0  0  0
  -21.4290   -5.3590   24.9400 C   0  0  0  0  0  0  0  0  0  0  0  0
  -21.8990   -4.7220   23.7780 C   0  0  0  0  0  3  0  0  0  0  0  0
  -22.0930   -5.4640   22.6000 C   0  0  0  0  0  0  0  0  0  0  0  0
  -22.5240   -4.8410   21.4770 F   0  0  0  0  0  0  0  0  0  0  0  0
  -21.2380   -4.6410   26.0710 F   0  0  0  0  0  0  0  0  0  0  0  0
  -23.3120  -14.1000   20.9300 C   0  0  0  0  0  0  0  0  0  0  0  0
  -22.5660  -13.4630   21.8260 N   0  0  0  0  0  0  0  0  0  0  0  0
  -22.9080  -15.1200   20.3740 O   0  0  0  0  0  0  0  0  0  0  0  0
  -22.9070  -12.6380   22.2970 H   0  0  0  0  0  0  0  0  0  0  0  0
  -21.6410  -13.8070   22.0440 H   0  0  0  0  0  0  0  0  0  0  0  0
  -25.9930  -15.6470   20.0750 N   0  0  0  0  0  0  0  0  0  0  0  0
  -25.2470  -16.3270   20.1690 H   0  0  0  0  0  0  0  0  0  0  0  0
  -26.8500  -16.0470   19.7180 H   0  0  0  0  0  0  0  0  0  0  0  0
  -31.0560  -19.4350   23.7860 C   0  0  0  0  0  0  0  0  0  0  0  0
  -30.9970  -18.3440   24.5460 N   0  0  0  0  0  0  0  0  0  0  0  0
  -31.5690  -20.5460   24.3100 N   0  0  0  0  0  4  0  0  0  0  0  0
  -30.5540  -17.5150   24.1810 H   0  0  0  0  0  0  0  0  0  0  0  0
  -31.3590  -18.3110   25.4870 H   0  0  0  0  0  0  0  0  0  0  0  0
  -31.6800  -21.3610   23.7260 H   0  0  0  0  0  0  0  0  0  0  0  0
  -31.8660  -20.6040   25.2710 H   0  0  0  0  0  0  0  0  0  0  0  0
  -28.2430  -23.0550   20.6730 C   0  0  0  0  0  3  0  0  0  0  0  0
  -27.1210  -22.5610   21.5610 C   0  0  0  0  0  1  0  0  0  0  0  0
  -29.0750  -22.1030   20.1170 N   0  0  0  0  0  2  0  0  0  0  0  0
  -28.3370  -24.7820   20.8130 C   0  0  0  0  0  2  0  0  0  0  0  0
  -27.9640  -26.0130   19.8780 O   0  0  0  0  0  0  0  0  0  0  0  0
  -24.6160  -31.9170   23.0910 C   0  0  0  0  0  0  0  0  0  0  0  0
  -26.9310  -27.0330   20.0400 C   0  0  0  0  0  0  0  0  0  0  0  0
  -23.3100  -30.5190   21.5400 C   0  0  0  0  0  3  0  0  0  0  0  0
  -24.6510  -28.8770   20.0820 C   0  0  0  0  0  0  0  0  0  0  0  0
  -25.8610  -30.7120   21.2440 C   0  0  0  0  0  2  0  0  0  0  0  0
  -25.8730  -29.2950   20.6260 C   0  0  0  0  0  0  0  0  0  0  0  0
  -27.0150  -28.3940   20.5770 C   0  0  0  0  0  3  0  0  0  0  0  0
  -25.6810  -26.7360   19.4600 C   0  0  0  0  0  3  0  0  0  0  0  0
  -24.5710  -27.6120   19.4790 C   0  0  0  0  0  3  0  0  0  0  0  0
  -23.4510  -29.8130   20.1660 C   0  0  0  0  0  2  0  0  0  0  0  0
  -24.6200  -31.0750   22.0110 N   0  0  0  0  0  0  0  0  0  0  0  0
  -23.5620  -32.2300   23.6680 O   0  0  0  0  0  0  0  0  0  0  0  0
  -22.6580  -29.5460   22.5540 C   0  0  0  0  0  0  0  0  0  0  0  0
  -21.3330  -29.3330   22.4450 N   0  0  0  0  0  0  0  0  0  0  0  0
  -23.3490  -28.9770   23.4030 O   0  0  0  0  0  0  0  0  0  0  0  0
  -20.8300  -29.8440   21.7330 H   0  0  0  0  0  0  0  0  0  0  0  0
  -18.0130  -27.9680   22.9450 C   0  0  0  0  0  0  0  0  0  0  0  0
  -20.5420  -28.4090   23.2630 C   0  0  0  0  0  3  0  0  0  0  0  0
  -20.7480  -26.9460   22.8060 C   0  0  0  0  0  2  0  0  0  0  0  0
  -19.7030  -26.4790   21.7890 C   0  0  0  0  0  2  0  0  0  0  0  0
  -18.2940  -26.5850   22.3810 C   0  0  0  0  0  2  0  0  0  0  0  0
  -19.0690  -28.8310   23.3450 C   0  0  0  0  0  0  0  0  0  0  0  0
  -18.7530  -30.1170   23.8340 C   0  0  0  0  0  3  0  0  0  0  0  0
  -17.4150  -30.5420   23.9280 C   0  0  0  0  0  3  0  0  0  0  0  0
  -16.3740  -29.6810   23.5440 C   0  0  0  0  0  3  0  0  0  0  0  0
  -16.6740  -28.3960   23.0570 C   0  0  0  0  0  3  0  0  0  0  0  0
  -25.9340  -32.5410   23.6460 C   0  0  0  0  0  3  0  0  0  0  0  0
  -26.5420  -31.7300   24.8560 C   0  0  1  0  0  0  0  0  0  0  0  0
  -25.5270  -31.4460   25.9880 C   0  0  0  0  0  1  0  0  0  0  0  0
  -27.1030  -30.3700   24.3810 C   0  0  0  0  0  1  0  0  0  0  0  0
  -27.7320  -32.5090   25.4620 C   0  0  0  0  0  1  0  0  0  0  0  0
  -25.6400  -33.9240   24.0540 N   0  0  0  0  0  0  0  0  0  0  0  0
  -25.9470  -35.0150   23.3390 C   0  0  0  0  0  0  0  0  0  0  0  0
  -26.5730  -34.9630   22.2780 O   0  0  0  0  0  0  0  0  0  0  0  0
  -25.0790  -34.0390   24.8860 H   0  0  0  0  0  0  0  0  0  0  0  0
  -24.2120  -36.8330   23.1620 C   0  0  0  0  0  1  0  0  0  0  0  0
  -25.4900  -36.3830   23.8900 C   0  0  0  0  0  3  0  0  0  0  0  0
  -27.6650  -37.2250   24.6610 C   0  0  0  0  0  1  0  0  0  0  0  0
  -26.5210  -37.4380   23.7770 N   0  0  0  0  0  0  0  0  0  0  0  0
  -26.1270  -38.3510   23.9830 H   0  0  0  0  0  0  0  0  0  0  0  0
  1  4  1  0
  2  4  2  0
  3  6  2  0
  3  5  1  0
  4 45  1  0
  5  1  2  0
  6  2  1  0
  8 13  1  0
  9 10  1  0
  9  8  1  0
 11 10  1  0
 11 20  1  0
 11 12  1  0
 13  7  1  0
 13 12  1  0
 14  7  2  0
 15  7  1  0
 15  6  1  0
 16 15  1  0
 17 18  2  0
 18 37  1  0
 19 18  1  0
 19 22  1  0
 20 17  1  0
 20 21  1  0
 21 19  2  0
 22 23  1  0
 23 24  2  0
 25 28  1  0
 25 24  1  0
 26 25  2  0
 27 26  1  0
 27 22  2  0
 28 29  1  0
 29 34  2  0
 29 30  1  0
 30 31  2  0
 31 32  1  0
 32 36  1  0
 33 32  2  0
 34 33  1  0
 35 34  1  0
 37 38  1  0
 38 41  1  0
 38 40  1  0
 39 37  2  0
 42 43  1  0
 42 17  1  0
 44 42  1  0
 45 47  2  0
 45 46  1  0
 46 49  1  0
 47 51  1  0
 48 46  1  0
 50 47  1  0
 52 55  1  0
 52 53  1  0
 54  5  1  0
 54 52  1  0
 56 58  1  0
 56 55  1  0
 57 68  2  0
 58 63  1  0
 59 67  1  0
 59 69  1  0
 60 66  1  0
 60 62  1  0
 61 67  1  0
 62 61  1  0
 63 62  2  0
 64 65  1  0
 64 58  2  0
 65 60  2  0
 66 59  1  0
 67 57  1  0
 69 71  2  0
 70 69  1  0
 72 70  1  0
 73 82  2  0
 73 78  1  0
 74 70  1  0
 74 78  1  0
 75 74  1  0
 76 77  1  0
 76 75  1  0
 77 73  1  0
 78 79  2  0
 79 80  1  0
 81 80  2  0
 82 81  1  0
 83 57  1  0
 83 88  1  0
 83 84  1  0
 84 87  1  1
 84 85  1  0
 86 84  1  0
 88 91  1  0
 89 93  1  0
 89 88  1  0
 90 89  2  0
 93 92  1  0
 95 93  1  0
 95 96  1  0
 95 94  1  0
M  ISO  4   7 100  15 100  55 101  56 101
M  END
>  <TORSDO>  (26) 
F 19

>  <SCORE>  (26) 
-13.240

>  <name>  (26) 
25

>  <ligand_id>  (26) 
25

>  <original_smiles>  (26) 
[H]c1c([H])c([H])c2c(c1[H])C([H])([H])C([H])([H])C([H])([H])C2([H])N([H])C(=O)C1([H])N(C(=O)C([H])(N([H])C(=O)C([H])(N([H])C([H])([H])[H])C([H])([H])[H])C(C([H])([H])[H])(C([H])([H])[H])C([H])([H])[H])C([H])([H])c2c([H])c(OC([H])([H])C(=Nc3c([H])c(C(N([H])[H])=[N+]([H])[H])c([H])c(N([H])C(=O)N4C([H])([H])C([H])([H])C([H])([H])C([H])(n5nc(-c6c([H])c([H])c(Oc7c([H])c([H])c(F)c([H])c7F)c([H])c6[H])c(C(=O)N([H])[H])c5N([H])[H])C4([H])[H])c3[H])C([H])([H])[H])c([H])c([H])c2C1([H])[H]

>  <smiles>  (26) 
[H]c1c([H])c([H])c2c(c1[H])C([H])([H])C([H])([H])C([H])([H])C2([H])N([H])C(=O)C1([H])N(C(=O)C([H])(N([H])C(=O)C([H])(N([H])C([H])([H])[H])C([H])([H])[H])C(C([H])([H])[H])(C([H])([H])[H])C([H])([H])[H])C([H])([H])c2c([H])c(OC([H])([H])C(=Nc3c([H])c(C(N([H])[H])=[N+]([H])[H])c([H])c(N([H])C(=O)N4C([H])([H])C([H])([H])C([H])([H])C([H])(n5nc(-c6c([H])c([H])c(Oc7c([H])c([H])c(F)c([H])c7F)c([H])c6[H])c(C(=O)N([H])[H])c5N([H])[H])C4([H])[H])c3[H])C([H])([H])[H])c([H])c([H])c2C1([H])[H]

$$$$
26:0:0
     RDKit          3D

 97106  0  0  1  0  0  0  0  0999 V2000
  -29.0890  -21.7240   21.1240 C   0  0  0  0  0  0  0  0  0  0  0  0
  -30.4150  -23.5480   19.3090 C   0  0  0  0  0  2  0  0  0  0  0  0
  -29.7520  -22.2230   18.8720 C   0  0  0  0  0  2  0  0  0  0  0  0
  -29.2050  -23.2760   21.5200 C   0  0  2  0  0  0  0  0  0  0  0  0
  -29.6740  -24.3650   20.4030 C   0  0  1  0  0  0  0  0  0  0  0  0
  -30.2000  -23.2610   22.7190 C   0  0  0  0  0  1  0  0  0  0  0  0
  -27.8470  -23.7020   22.1320 C   0  0  0  0  0  1  0  0  0  0  0  0
  -30.7510  -25.3580   20.9340 C   0  0  0  0  0  1  0  0  0  0  0  0
  -29.5500  -21.2160   19.9420 N   0  0  0  0  0  0  0  0  0  0  0  0
  -28.5830  -20.9670   21.9610 O   0  0  0  0  0  0  0  0  0  0  0  0
  -29.2210  -19.4260   18.2580 C   0  0  0  0  0  3  0  0  0  0  0  0
  -29.6890  -17.0560   18.6090 C   0  0  0  0  0  3  0  0  0  0  0  0
  -29.9710  -18.6510   20.4370 C   0  0  0  0  0  3  0  0  0  0  0  0
  -29.2640  -18.1050   17.7780 C   0  0  0  0  0  0  0  0  0  0  0  0
  -29.5880  -19.7670   19.5850 C   0  0  0  0  0  0  0  0  0  0  0  0
  -30.0370  -17.2840   19.9570 C   0  0  0  0  0  0  0  0  0  0  0  0
  -28.8070  -17.8020   16.3620 C   0  0  0  0  0  1  0  0  0  0  0  0
  -31.0340  -14.9970   20.4250 C   0  0  0  0  0  0  0  0  0  0  0  0
  -30.8230  -12.7510   19.3950 C   0  0  0  0  0  2  0  0  0  0  0  0
  -29.9170  -12.8820   18.1480 C   0  0  0  0  0  2  0  0  0  0  0  0
  -28.4320  -12.7470   18.5350 C   0  0  0  0  0  2  0  0  0  0  0  0
  -28.0480  -13.6090   19.7680 C   0  0  0  0  0  3  0  0  0  0  0  0
  -29.0750  -13.4590   20.9150 C   0  0  0  0  0  2  0  0  0  0  0  0
  -30.4010  -13.7820   20.3700 N   0  0  0  0  0  0  0  0  0  0  0  0
  -32.1990  -15.1250   20.0370 O   0  0  0  0  0  0  0  0  0  0  0  0
  -30.2890  -16.0970   20.7780 N   0  0  0  0  0  0  0  0  0  0  0  0
  -29.5090  -15.8510   21.3680 H   0  0  0  0  0  0  0  0  0  0  0  0
  -25.6450  -14.2260   20.4260 C   0  0  0  0  0  0  0  0  0  0  0  0
  -24.5600  -13.4640   20.7640 C   0  0  0  0  0  0  0  0  0  0  0  0
  -25.0090  -12.1060   20.7400 C   0  0  0  0  0  0  0  0  0  0  0  0
  -26.6850  -13.3360   20.2150 N   0  0  0  0  0  0  0  0  0  0  0  0
  -26.3070  -12.0560   20.4630 N   0  0  0  0  0  0  0  0  0  0  0  0
  -24.2670  -10.8500   20.9060 C   0  0  0  0  0  0  0  0  0  0  0  0
  -24.6340   -9.8960   21.8820 C   0  0  0  0  0  3  0  0  0  0  0  0
  -23.8910   -8.7050   22.0350 C   0  0  0  0  0  3  0  0  0  0  0  0
  -22.7670   -8.4600   21.2110 C   0  0  0  0  0  0  0  0  0  0  0  0
  -22.4190   -9.4020   20.2270 C   0  0  0  0  0  3  0  0  0  0  0  0
  -23.1630  -10.5840   20.0720 C   0  0  0  0  0  3  0  0  0  0  0  0
  -22.0040   -7.3170   21.2690 O   0  0  0  0  0  0  0  0  0  0  0  0
  -21.8310   -6.6280   22.4410 C   0  0  0  0  0  0  0  0  0  0  0  0
  -21.2490   -7.2250   23.5800 C   0  0  0  0  0  3  0  0  0  0  0  0
  -21.0250   -6.4590   24.7420 C   0  0  0  0  0  3  0  0  0  0  0  0
  -21.3750   -5.0960   24.7650 C   0  0  0  0  0  0  0  0  0  0  0  0
  -21.9510   -4.4980   23.6300 C   0  0  0  0  0  3  0  0  0  0  0  0
  -22.1750   -5.2620   22.4710 C   0  0  0  0  0  0  0  0  0  0  0  0
  -22.7100   -4.6760   21.3730 F   0  0  0  0  0  0  0  0  0  0  0  0
  -21.1560   -4.3570   25.8770 F   0  0  0  0  0  0  0  0  0  0  0  0
  -23.1600  -13.9550   21.0030 C   0  0  0  0  0  0  0  0  0  0  0  0
  -22.4110  -13.2790   21.8670 N   0  0  0  0  0  0  0  0  0  0  0  0
  -22.7380  -14.9750   20.4600 O   0  0  0  0  0  0  0  0  0  0  0  0
  -22.7630  -12.4550   22.3330 H   0  0  0  0  0  0  0  0  0  0  0  0
  -21.4740  -13.5940   22.0710 H   0  0  0  0  0  0  0  0  0  0  0  0
  -25.8350  -15.5940   20.2590 N   0  0  0  0  0  0  0  0  0  0  0  0
  -25.0900  -16.2720   20.3640 H   0  0  0  0  0  0  0  0  0  0  0  0
  -26.7110  -16.0090   19.9660 H   0  0  0  0  0  0  0  0  0  0  0  0
  -28.5680  -25.3680   19.7750 C   0  0  0  0  0  2  0  0  0  0  0  0
  -28.6060  -26.8040   20.1760 O   0  0  0  0  0  0  0  0  0  0  0  0
  -24.6540  -32.0000   23.2630 C   0  0  0  0  0  0  0  0  0  0  0  0
  -27.4550  -27.6040   20.1230 C   0  0  0  0  0  0  0  0  0  0  0  0
  -23.5230  -30.6100   21.5660 C   0  0  0  0  0  3  0  0  0  0  0  0
  -25.0420  -29.1450   20.1240 C   0  0  0  0  0  0  0  0  0  0  0  0
  -26.0540  -31.0080   21.4380 C   0  0  0  0  0  2  0  0  0  0  0  0
  -26.1850  -29.6510   20.7550 C   0  0  0  0  0  0  0  0  0  0  0  0
  -27.3920  -28.8900   20.7480 C   0  0  0  0  0  3  0  0  0  0  0  0
  -26.2870  -27.1530   19.4670 C   0  0  0  0  0  3  0  0  0  0  0  0
  -25.0950  -27.9030   19.4740 C   0  0  0  0  0  3  0  0  0  0  0  0
  -23.7810  -29.9810   20.1720 C   0  0  0  0  0  2  0  0  0  0  0  0
  -24.7610  -31.2240   22.1460 N   0  0  0  0  0  0  0  0  0  0  0  0
  -23.5540  -32.2300   23.7850 O   0  0  0  0  0  0  0  0  0  0  0  0
  -22.8760  -29.5480   22.4870 C   0  0  0  0  0  0  0  0  0  0  0  0
  -21.5630  -29.3150   22.3130 N   0  0  0  0  0  0  0  0  0  0  0  0
  -23.5540  -28.9360   23.3150 O   0  0  0  0  0  0  0  0  0  0  0  0
  -21.0740  -29.8640   21.6190 H   0  0  0  0  0  0  0  0  0  0  0  0
  -18.2240  -27.9790   22.6930 C   0  0  0  0  0  0  0  0  0  0  0  0
  -20.7620  -28.3300   23.0400 C   0  0  0  0  0  3  0  0  0  0  0  0
  -20.9350  -26.9160   22.4390 C   0  0  0  0  0  2  0  0  0  0  0  0
  -19.8740  -26.5740   21.3870 C   0  0  0  0  0  2  0  0  0  0  0  0
  -18.4700  -26.6530   21.9940 C   0  0  0  0  0  2  0  0  0  0  0  0
  -19.3000  -28.7730   23.1690 C   0  0  0  0  0  0  0  0  0  0  0  0
  -19.0150  -30.0150   23.7810 C   0  0  0  0  0  3  0  0  0  0  0  0
  -17.6880  -30.4610   23.9190 C   0  0  0  0  0  3  0  0  0  0  0  0
  -16.6260  -29.6640   23.4590 C   0  0  0  0  0  3  0  0  0  0  0  0
  -16.8950  -28.4250   22.8520 C   0  0  0  0  0  3  0  0  0  0  0  0
  -25.9050  -32.6560   23.9240 C   0  0  0  0  0  3  0  0  0  0  0  0
  -25.5650  -34.0530   24.2300 N   0  0  0  0  0  0  0  0  0  0  0  0
  -25.9110  -35.1030   23.4740 C   0  0  0  0  0  0  0  0  0  0  0  0
  -26.6200  -35.0010   22.4690 O   0  0  0  0  0  0  0  0  0  0  0  0
  -24.9390  -34.2070   25.0070 H   0  0  0  0  0  0  0  0  0  0  0  0
  -24.1720  -36.8690   23.0440 C   0  0  0  0  0  1  0  0  0  0  0  0
  -25.3900  -36.4900   23.9010 C   0  0  0  0  0  3  0  0  0  0  0  0
  -27.4800  -37.4150   24.7990 C   0  0  0  0  0  1  0  0  0  0  0  0
  -26.4110  -37.5560   23.8130 N   0  0  0  0  0  0  0  0  0  0  0  0
  -25.9860  -38.4720   23.9340 H   0  0  0  0  0  0  0  0  0  0  0  0
  -26.3830  -31.9050   25.2280 C   0  0  1  0  0  0  0  0  0  0  0  0
  -25.2440  -31.6240   26.2350 C   0  0  0  0  0  1  0  0  0  0  0  0
  -27.0420  -30.5530   24.8710 C   0  0  0  0  0  1  0  0  0  0  0  0
  -27.4640  -32.7440   25.9490 C   0  0  0  0  0  1  0  0  0  0  0  0
  1  4  1  0
  1 10  2  0
  2  5  1  0
  3  2  1  0
  3  9  1  0
  4  7  1  1
  4  6  1  0
  5  8  1  1
  5  4  1  0
  9  1  1  0
 11 15  1  0
 12 16  2  0
 14 11  2  0
 14 12  1  0
 15  9  1  0
 15 13  2  0
 16 13  1  0
 16 26  1  0
 17 14  1  0
 18 26  1  0
 19 24  1  0
 20 21  1  0
 20 19  1  0
 22 21  1  0
 22 31  1  0
 22 23  1  0
 24 18  1  0
 24 23  1  0
 25 18  2  0
 26 27  1  0
 28 29  2  0
 29 48  1  0
 30 29  1  0
 30 33  1  0
 31 28  1  0
 31 32  1  0
 32 30  2  0
 33 34  1  0
 34 35  2  0
 36 39  1  0
 36 35  1  0
 37 36  2  0
 38 37  1  0
 38 33  2  0
 39 40  1  0
 40 45  2  0
 40 41  1  0
 41 42  2  0
 42 43  1  0
 43 47  1  0
 44 43  2  0
 45 44  1  0
 46 45  1  0
 48 49  1  0
 49 52  1  0
 49 51  1  0
 50 48  2  0
 53 54  1  0
 53 28  1  0
 55 53  1  0
 56 57  1  0
 56  5  1  0
 58 69  2  0
 59 57  1  0
 59 64  1  0
 60 68  1  0
 60 70  1  0
 61 67  1  0
 61 63  1  0
 62 68  1  0
 63 62  1  0
 64 63  2  0
 65 66  1  0
 65 59  2  0
 66 61  2  0
 67 60  1  0
 68 58  1  0
 70 72  2  0
 71 70  1  0
 73 71  1  0
 74 83  2  0
 74 79  1  0
 75 71  1  0
 75 79  1  0
 76 75  1  0
 77 78  1  0
 77 76  1  0
 78 74  1  0
 79 80  2  0
 80 81  1  0
 82 81  2  0
 83 82  1  0
 84 58  1  0
 84 85  1  0
 84 94  1  0
 85 88  1  0
 86 90  1  0
 86 85  1  0
 87 86  2  0
 90 89  1  0
 92 90  1  0
 92 93  1  0
 92 91  1  0
 94 97  1  1
 94 95  1  0
 96 94  1  0
M  ISO  4  18 100  26 100  56 101  57 101
M  END
>  <TORSDO>  (27) 
F 18

>  <SCORE>  (27) 
-12.927

>  <name>  (27) 
26

>  <ligand_id>  (27) 
26

>  <original_smiles>  (27) 
[H]c1c([H])c([H])c2c(c1[H])C([H])([H])C([H])([H])C([H])([H])C2([H])N([H])C(=O)C1([H])N(C(=O)C([H])(N([H])C(=O)C([H])(N([H])C([H])([H])[H])C([H])([H])[H])C(C([H])([H])[H])(C([H])([H])[H])C([H])([H])[H])C([H])([H])c2c([H])c(OC([H])([H])C3(C([H])([H])[H])C([H])([H])C([H])([H])N(c4c([H])c(N([H])C(=O)N5C([H])([H])C([H])([H])C([H])([H])C([H])(n6nc(-c7c([H])c([H])c(Oc8c([H])c([H])c(F)c([H])c8F)c([H])c7[H])c(C(=O)N([H])[H])c6N([H])[H])C5([H])[H])c([H])c(C([H])([H])[H])c4[H])C(=O)C3(C([H])([H])[H])C([H])([H])[H])c([H])c([H])c2C1([H])[H]

>  <smiles>  (27) 
[H]c1c([H])c([H])c2c(c1[H])C([H])([H])C([H])([H])C([H])([H])C2([H])N([H])C(=O)C1([H])N(C(=O)C([H])(N([H])C(=O)C([H])(N([H])C([H])([H])[H])C([H])([H])[H])C(C([H])([H])[H])(C([H])([H])[H])C([H])([H])[H])C([H])([H])c2c([H])c(OC([H])([H])C3(C([H])([H])[H])C([H])([H])C([H])([H])N(c4c([H])c(N([H])C(=O)N5C([H])([H])C([H])([H])C([H])([H])C([H])(n6nc(-c7c([H])c([H])c(Oc8c([H])c([H])c(F)c([H])c8F)c([H])c7[H])c(C(=O)N([H])[H])c6N([H])[H])C5([H])[H])c([H])c(C([H])([H])[H])c4[H])C(=O)C3(C([H])([H])[H])C([H])([H])[H])c([H])c([H])c2C1([H])[H]

$$$$
27:0:0
     RDKit          3D

 96104  0  0  1  0  0  0  0  0999 V2000
  -30.2500  -21.7030   20.5650 C   0  0  0  0  0  0  0  0  0  0  0  0
  -29.4160  -24.1520   20.3370 C   0  0  0  0  0  0  0  0  0  0  0  0
  -29.3030  -22.6650   20.2340 N   0  0  0  0  0  0  0  0  0  0  0  0
  -31.4110  -22.1460   21.0670 N   0  0  0  0  0  4  0  0  0  0  0  0
  -30.4470  -24.6790   20.7780 O   0  0  0  0  0  0  0  0  0  0  0  0
  -28.4510  -22.2430   19.8910 H   0  0  0  0  0  0  0  0  0  0  0  0
  -32.1920  -21.5120   21.1640 H   0  0  0  0  0  0  0  0  0  0  0  0
  -31.5500  -23.1460   21.1690 H   0  0  0  0  0  0  0  0  0  0  0  0
  -28.8460  -18.0500   20.6160 C   0  0  0  0  0  3  0  0  0  0  0  0
  -31.2200  -17.9210   20.3260 C   0  0  0  0  0  3  0  0  0  0  0  0
  -30.1270  -20.1820   20.4460 C   0  0  0  0  0  0  0  0  0  0  0  0
  -30.0010  -17.2200   20.5040 C   0  0  0  0  0  0  0  0  0  0  0  0
  -28.9000  -19.4800   20.5840 C   0  0  0  0  0  0  0  0  0  0  0  0
  -31.2820  -19.3480   20.2970 C   0  0  0  0  0  0  0  0  0  0  0  0
  -27.7470  -20.1830   20.7150 F   0  0  0  0  0  0  0  0  0  0  0  0
  -32.5100  -19.9110   20.1590 F   0  0  0  0  0  0  0  0  0  0  0  0
  -30.6410  -14.7050   20.1700 C   0  0  0  0  0  0  0  0  0  0  0  0
  -30.3700  -12.4920   19.0640 C   0  0  0  0  0  2  0  0  0  0  0  0
  -29.3760  -12.6520   17.8920 C   0  0  0  0  0  2  0  0  0  0  0  0
  -27.9210  -12.4930   18.3800 C   0  0  0  0  0  2  0  0  0  0  0  0
  -27.6220  -13.3330   19.6490 C   0  0  0  0  0  3  0  0  0  0  0  0
  -28.7250  -13.1440   20.7170 C   0  0  0  0  0  2  0  0  0  0  0  0
  -30.0130  -13.4890   20.0930 N   0  0  0  0  0  0  0  0  0  0  0  0
  -31.7880  -14.8570   19.7360 O   0  0  0  0  0  0  0  0  0  0  0  0
  -29.8600  -15.7560   20.5830 N   0  0  0  0  0  0  0  0  0  0  0  0
  -28.9650  -15.4430   20.9250 H   0  0  0  0  0  0  0  0  0  0  0  0
  -25.2650  -13.9410   20.4710 C   0  0  0  0  0  0  0  0  0  0  0  0
  -24.2080  -13.1710   20.8740 C   0  0  0  0  0  0  0  0  0  0  0  0
  -24.6580  -11.8170   20.8050 C   0  0  0  0  0  0  0  0  0  0  0  0
  -26.2910  -13.0560   20.1830 N   0  0  0  0  0  0  0  0  0  0  0  0
  -25.9340  -11.7730   20.4440 N   0  0  0  0  0  0  0  0  0  0  0  0
  -23.9280  -10.5580   21.0050 C   0  0  0  0  0  0  0  0  0  0  0  0
  -24.3750   -9.5850   21.9260 C   0  0  0  0  0  3  0  0  0  0  0  0
  -23.6480   -8.3890   22.1140 C   0  0  0  0  0  3  0  0  0  0  0  0
  -22.4590   -8.1600   21.3820 C   0  0  0  0  0  0  0  0  0  0  0  0
  -22.0310   -9.1220   20.4500 C   0  0  0  0  0  3  0  0  0  0  0  0
  -22.7600  -10.3080   20.2600 C   0  0  0  0  0  3  0  0  0  0  0  0
  -21.7010   -7.0180   21.4790 O   0  0  0  0  0  0  0  0  0  0  0  0
  -21.6640   -6.2760   22.6330 C   0  0  0  0  0  0  0  0  0  0  0  0
  -21.2150   -6.8220   23.8550 C   0  0  0  0  0  3  0  0  0  0  0  0
  -21.1270   -6.0050   25.0010 C   0  0  0  0  0  3  0  0  0  0  0  0
  -21.4770   -4.6430   24.9230 C   0  0  0  0  0  0  0  0  0  0  0  0
  -21.9200   -4.0980   23.7050 C   0  0  0  0  0  3  0  0  0  0  0  0
  -22.0090   -4.9110   22.5630 C   0  0  0  0  0  0  0  0  0  0  0  0
  -22.4150   -4.3750   21.3870 F   0  0  0  0  0  0  0  0  0  0  0  0
  -21.3860   -3.8570   26.0210 F   0  0  0  0  0  0  0  0  0  0  0  0
  -22.8260  -13.6550   21.2070 C   0  0  0  0  0  0  0  0  0  0  0  0
  -22.1300  -12.9570   22.0970 N   0  0  0  0  0  0  0  0  0  0  0  0
  -22.3740  -14.6870   20.7130 O   0  0  0  0  0  0  0  0  0  0  0  0
  -22.5090  -12.1220   22.5180 H   0  0  0  0  0  0  0  0  0  0  0  0
  -21.2040  -13.2630   22.3620 H   0  0  0  0  0  0  0  0  0  0  0  0
  -25.4320  -15.3130   20.3010 N   0  0  0  0  0  0  0  0  0  0  0  0
  -24.6590  -15.9580   20.4200 H   0  0  0  0  0  0  0  0  0  0  0  0
  -26.2330  -15.7370   19.8530 H   0  0  0  0  0  0  0  0  0  0  0  0
  -28.2160  -25.0610   19.8740 C   0  0  0  0  0  2  0  0  0  0  0  0
  -28.3980  -26.5210   20.0960 O   0  0  0  0  0  0  0  0  0  0  0  0
  -24.5830  -31.8420   23.1270 C   0  0  0  0  0  0  0  0  0  0  0  0
  -27.2650  -27.3480   20.0420 C   0  0  0  0  0  0  0  0  0  0  0  0
  -23.4040  -30.4460   21.4670 C   0  0  0  0  0  3  0  0  0  0  0  0
  -24.8790  -28.9280   20.0340 C   0  0  0  0  0  0  0  0  0  0  0  0
  -25.9400  -30.7980   21.3000 C   0  0  0  0  0  2  0  0  0  0  0  0
  -26.0400  -29.4270   20.6410 C   0  0  0  0  0  0  0  0  0  0  0  0
  -27.2350  -28.6490   20.6330 C   0  0  0  0  0  3  0  0  0  0  0  0
  -26.0800  -26.9020   19.4130 C   0  0  0  0  0  3  0  0  0  0  0  0
  -24.9010  -27.6720   19.4110 C   0  0  0  0  0  3  0  0  0  0  0  0
  -23.6330  -29.7870   20.0820 C   0  0  0  0  0  2  0  0  0  0  0  0
  -24.6610  -31.0450   22.0220 N   0  0  0  0  0  0  0  0  0  0  0  0
  -23.4940  -32.1010   23.6590 O   0  0  0  0  0  0  0  0  0  0  0  0
  -22.7470  -29.4120   22.4140 C   0  0  0  0  0  0  0  0  0  0  0  0
  -21.4190  -29.2490   22.3020 N   0  0  0  0  0  0  0  0  0  0  0  0
  -23.4330  -28.7620   23.2080 O   0  0  0  0  0  0  0  0  0  0  0  0
  -20.9250  -29.8260   21.6360 H   0  0  0  0  0  0  0  0  0  0  0  0
  -18.0320  -28.1100   22.8620 C   0  0  0  0  0  0  0  0  0  0  0  0
  -20.6020  -28.3020   23.0630 C   0  0  0  0  0  3  0  0  0  0  0  0
  -20.6540  -26.8910   22.4330 C   0  0  0  0  0  2  0  0  0  0  0  0
  -19.5140  -26.6300   21.4430 C   0  0  0  0  0  2  0  0  0  0  0  0
  -18.1560  -26.7830   22.1340 C   0  0  0  0  0  2  0  0  0  0  0  0
  -19.1800  -28.8310   23.2850 C   0  0  0  0  0  0  0  0  0  0  0  0
  -19.0080  -30.0750   23.9280 C   0  0  0  0  0  3  0  0  0  0  0  0
  -17.7210  -30.5990   24.1530 C   0  0  0  0  0  3  0  0  0  0  0  0
  -16.5870  -29.8750   23.7450 C   0  0  0  0  0  3  0  0  0  0  0  0
  -16.7440  -28.6310   23.1060 C   0  0  0  0  0  3  0  0  0  0  0  0
  -25.8560  -32.4810   23.7630 C   0  0  0  0  0  3  0  0  0  0  0  0
  -25.5280  -33.8720   24.1090 N   0  0  0  0  0  0  0  0  0  0  0  0
  -25.8390  -34.9360   23.3570 C   0  0  0  0  0  0  0  0  0  0  0  0
  -26.5010  -34.8520   22.3190 O   0  0  0  0  0  0  0  0  0  0  0  0
  -24.9390  -34.0100   24.9160 H   0  0  0  0  0  0  0  0  0  0  0  0
  -24.0830  -36.7080   23.0340 C   0  0  0  0  0  1  0  0  0  0  0  0
  -25.3360  -36.3130   23.8320 C   0  0  0  0  0  3  0  0  0  0  0  0
  -27.4550  -37.2310   24.6690 C   0  0  0  0  0  1  0  0  0  0  0  0
  -26.3530  -37.3820   23.7220 N   0  0  0  0  0  0  0  0  0  0  0  0
  -25.9320  -38.2960   23.8670 H   0  0  0  0  0  0  0  0  0  0  0  0
  -26.3750  -31.7010   25.0330 C   0  0  1  0  0  0  0  0  0  0  0  0
  -25.2780  -31.4320   26.0890 C   0  0  0  0  0  1  0  0  0  0  0  0
  -26.9830  -30.3390   24.6280 C   0  0  0  0  0  1  0  0  0  0  0  0
  -27.5070  -32.5050   25.7160 C   0  0  0  0  0  1  0  0  0  0  0  0
  1  4  2  0
  2  5  2  0
  3  2  1  0
  3  1  1  0
  4  7  1  0
  4  8  1  0
  6  3  1  0
 10 12  1  0
 11  1  1  0
 11 13  2  0
 12 25  1  0
 12  9  2  0
 13  9  1  0
 13 15  1  0
 14 10  2  0
 14 11  1  0
 16 14  1  0
 17 25  1  0
 18 23  1  0
 19 20  1  0
 19 18  1  0
 21 20  1  0
 21 30  1  0
 21 22  1  0
 23 17  1  0
 23 22  1  0
 24 17  2  0
 25 26  1  0
 27 28  2  0
 28 47  1  0
 29 28  1  0
 29 32  1  0
 30 31  1  0
 30 27  1  0
 31 29  2  0
 32 33  1  0
 33 34  2  0
 35 38  1  0
 35 34  1  0
 36 35  2  0
 37 36  1  0
 37 32  2  0
 38 39  1  0
 39 40  1  0
 40 41  2  0
 42 41  1  0
 42 46  1  0
 43 42  2  0
 44 39  2  0
 44 43  1  0
 45 44  1  0
 47 48  1  0
 48 51  1  0
 48 50  1  0
 49 47  2  0
 52 53  1  0
 52 27  1  0
 54 52  1  0
 55 56  1  0
 55  2  1  0
 57 68  2  0
 58 56  1  0
 58 63  1  0
 59 67  1  0
 59 69  1  0
 60 66  1  0
 60 62  1  0
 61 67  1  0
 62 61  1  0
 63 62  2  0
 64 58  2  0
 65 64  1  0
 65 60  2  0
 66 59  1  0
 67 57  1  0
 69 71  2  0
 70 69  1  0
 72 70  1  0
 73 82  2  0
 73 78  1  0
 74 70  1  0
 74 78  1  0
 75 74  1  0
 76 77  1  0
 76 75  1  0
 77 73  1  0
 78 79  2  0
 79 80  1  0
 81 80  2  0
 82 81  1  0
 83 57  1  0
 83 84  1  0
 83 93  1  0
 84 87  1  0
 85 89  1  0
 85 84  1  0
 86 85  2  0
 89 88  1  0
 91 89  1  0
 91 92  1  0
 91 90  1  0
 93 96  1  1
 93 94  1  0
 95 93  1  0
M  ISO  4  17 100  25 100  55 101  56 101
M  END
>  <TORSDO>  (28) 
F 18

>  <SCORE>  (28) 
-14.929

>  <name>  (28) 
27

>  <ligand_id>  (28) 
27

>  <original_smiles>  (28) 
[H]c1c([H])c([H])c2c(c1[H])C([H])([H])C([H])([H])C([H])([H])C2([H])N([H])C(=O)C1([H])N(C(=O)C([H])(N([H])C(=O)C([H])(N([H])C([H])([H])[H])C([H])([H])[H])C(C([H])([H])[H])(C([H])([H])[H])C([H])([H])[H])C([H])([H])c2c([H])c(OC([H])([H])C(=O)N([H])C(c3c(F)c([H])c(N([H])C(=O)N4C([H])([H])C([H])([H])C([H])([H])C([H])(n5nc(-c6c([H])c([H])c(Oc7c([H])c([H])c(F)c([H])c7F)c([H])c6[H])c(C(=O)N([H])[H])c5N([H])[H])C4([H])[H])c([H])c3F)=[N+]([H])[H])c([H])c([H])c2C1([H])[H]

>  <smiles>  (28) 
[H]c1c([H])c([H])c2c(c1[H])C([H])([H])C([H])([H])C([H])([H])C2([H])N([H])C(=O)C1([H])N(C(=O)C([H])(N([H])C(=O)C([H])(N([H])C([H])([H])[H])C([H])([H])[H])C(C([H])([H])[H])(C([H])([H])[H])C([H])([H])[H])C([H])([H])c2c([H])c(OC([H])([H])C(=O)N([H])C(c3c(F)c([H])c(N([H])C(=O)N4C([H])([H])C([H])([H])C([H])([H])C([H])(n5nc(-c6c([H])c([H])c(Oc7c([H])c([H])c(F)c([H])c7F)c([H])c6[H])c(C(=O)N([H])[H])c5N([H])[H])C4([H])[H])c([H])c3F)=[N+]([H])[H])c([H])c([H])c2C1([H])[H]

$$$$
28:0:0
     RDKit          3D

 99108  0  0  1  0  0  0  0  0999 V2000
  -27.2740  -18.1250   20.7270 C   0  0  0  0  0  3  0  0  0  0  0  0
  -27.7810  -19.3760   20.3560 C   0  0  0  0  0  3  0  0  0  0  0  0
  -28.0970  -16.9920   20.7510 C   0  0  0  0  0  3  0  0  0  0  0  0
  -29.9640  -18.3440   19.9540 C   0  0  0  0  0  0  0  0  0  0  0  0
  -29.1280  -19.5630   19.9670 C   0  0  0  0  0  0  0  0  0  0  0  0
  -29.4470  -17.0270   20.3580 C   0  0  0  0  0  0  0  0  0  0  0  0
  -30.6700  -14.6990   19.8980 C   0  0  0  0  0  0  0  0  0  0  0  0
  -30.4160  -12.3920   18.9470 C   0  0  0  0  0  2  0  0  0  0  0  0
  -29.4180  -12.4490   17.7680 C   0  0  0  0  0  2  0  0  0  0  0  0
  -27.9650  -12.3100   18.2640 C   0  0  0  0  0  2  0  0  0  0  0  0
  -27.6630  -13.2320   19.4750 C   0  0  0  0  0  3  0  0  0  0  0  0
  -28.7710  -13.1280   20.5510 C   0  0  0  0  0  2  0  0  0  0  0  0
  -30.0580  -13.4600   19.9120 N   0  0  0  0  0  0  0  0  0  0  0  0
  -31.7340  -14.8620   19.2970 O   0  0  0  0  0  0  0  0  0  0  0  0
  -30.0870  -15.7100   20.6340 N   0  0  0  0  0  0  0  0  0  0  0  0
  -29.5400  -15.2320   21.3330 H   0  0  0  0  0  0  0  0  0  0  0  0
  -25.3390  -13.8920   20.3510 C   0  0  0  0  0  0  0  0  0  0  0  0
  -24.2660  -13.1530   20.7640 C   0  0  0  0  0  0  0  0  0  0  0  0
  -24.6650  -11.7860   20.6510 C   0  0  0  0  0  0  0  0  0  0  0  0
  -26.3330  -12.9820   20.0270 N   0  0  0  0  0  0  0  0  0  0  0  0
  -25.9330  -11.7060   20.2620 N   0  0  0  0  0  0  0  0  0  0  0  0
  -23.8900  -10.5520   20.8340 C   0  0  0  0  0  0  0  0  0  0  0  0
  -24.2600   -9.5840   21.7930 C   0  0  0  0  0  3  0  0  0  0  0  0
  -23.4870   -8.4140   21.9640 C   0  0  0  0  0  3  0  0  0  0  0  0
  -22.3320   -8.2050   21.1750 C   0  0  0  0  0  0  0  0  0  0  0  0
  -21.9800   -9.1620   20.2070 C   0  0  0  0  0  3  0  0  0  0  0  0
  -22.7530  -10.3230   20.0340 C   0  0  0  0  0  3  0  0  0  0  0  0
  -21.5360   -7.0870   21.2530 O   0  0  0  0  0  0  0  0  0  0  0  0
  -21.3340   -6.4300   22.4410 C   0  0  0  0  0  0  0  0  0  0  0  0
  -20.7490   -7.0690   23.5560 C   0  0  0  0  0  3  0  0  0  0  0  0
  -20.4960   -6.3380   24.7330 C   0  0  0  0  0  3  0  0  0  0  0  0
  -20.8150   -4.9690   24.7960 C   0  0  0  0  0  0  0  0  0  0  0  0
  -21.3930   -4.3290   23.6840 C   0  0  0  0  0  3  0  0  0  0  0  0
  -21.6480   -5.0570   22.5100 C   0  0  0  0  0  0  0  0  0  0  0  0
  -22.1840   -4.4300   21.4350 F   0  0  0  0  0  0  0  0  0  0  0  0
  -20.5650   -4.2640   25.9240 F   0  0  0  0  0  0  0  0  0  0  0  0
  -22.9120  -13.6810   21.1410 C   0  0  0  0  0  0  0  0  0  0  0  0
  -22.2150  -12.9940   22.0380 N   0  0  0  0  0  0  0  0  0  0  0  0
  -22.4870  -14.7400   20.6810 O   0  0  0  0  0  0  0  0  0  0  0  0
  -22.5730  -12.1380   22.4350 H   0  0  0  0  0  0  0  0  0  0  0  0
  -21.3100  -13.3330   22.3340 H   0  0  0  0  0  0  0  0  0  0  0  0
  -25.5340  -15.2600   20.1980 N   0  0  0  0  0  0  0  0  0  0  0  0
  -24.7820  -15.9210   20.3560 H   0  0  0  0  0  0  0  0  0  0  0  0
  -26.3520  -15.6830   19.7780 H   0  0  0  0  0  0  0  0  0  0  0  0
  -31.6940  -18.5110   18.2570 C   0  0  0  0  0  0  0  0  0  0  0  0
  -33.6930  -18.3210   19.5720 C   0  0  0  0  0  3  0  0  0  0  0  0
  -32.4360  -18.3140   20.4540 C   0  0  0  0  0  3  0  0  0  0  0  0
  -33.2190  -18.4920   18.1150 C   0  0  1  0  0  0  0  0  0  0  0  0
  -33.6580  -17.3070   17.2300 C   0  0  0  0  0  1  0  0  0  0  0  0
  -33.7130  -19.8190   17.5070 C   0  0  0  0  0  1  0  0  0  0  0  0
  -31.3140  -18.4420   19.5390 N   0  0  0  0  0  0  0  0  0  0  0  0
  -30.9400  -18.5900   17.2810 O   0  0  0  0  0  0  0  0  0  0  0  0
  -28.8040  -22.1140   19.3980 C   0  0  0  0  0  0  0  0  0  0  0  0
  -29.5610  -20.9840   19.7380 N   0  0  0  0  0  0  0  0  0  0  0  0
  -27.6910  -21.9740   18.8870 O   0  0  0  0  0  0  0  0  0  0  0  0
  -30.5280  -21.1780   19.9560 H   0  0  0  0  0  0  0  0  0  0  0  0
  -29.3020  -23.6380   19.5630 C   0  0  0  0  0  3  0  0  0  0  0  0
  -28.2300  -24.8510   19.3360 C   0  0  0  0  0  3  0  0  0  0  0  0
  -28.4690  -26.3150   19.6450 O   0  0  0  0  0  0  0  0  0  0  0  0
  -24.7320  -31.5260   23.1100 C   0  0  0  0  0  0  0  0  0  0  0  0
  -27.3620  -27.2080   19.6680 C   0  0  0  0  0  0  0  0  0  0  0  0
  -23.5330  -30.2560   21.3670 C   0  0  0  0  0  3  0  0  0  0  0  0
  -24.9880  -28.8380   19.8080 C   0  0  0  0  0  0  0  0  0  0  0  0
  -26.0730  -30.5960   21.2010 C   0  0  0  0  0  2  0  0  0  0  0  0
  -26.1620  -29.2730   20.4380 C   0  0  0  0  0  0  0  0  0  0  0  0
  -27.3500  -28.4720   20.3560 C   0  0  0  0  0  3  0  0  0  0  0  0
  -26.1600  -26.8520   19.0130 C   0  0  0  0  0  3  0  0  0  0  0  0
  -24.9930  -27.6370   19.0860 C   0  0  0  0  0  3  0  0  0  0  0  0
  -23.7460  -29.6990   19.9360 C   0  0  0  0  0  2  0  0  0  0  0  0
  -24.7990  -30.8060   21.9490 N   0  0  0  0  0  0  0  0  0  0  0  0
  -23.6480  -31.7500   23.6680 O   0  0  0  0  0  0  0  0  0  0  0  0
  -22.8810  -29.1590   22.2450 C   0  0  0  0  0  0  0  0  0  0  0  0
  -21.5550  -28.9800   22.1100 N   0  0  0  0  0  0  0  0  0  0  0  0
  -23.5670  -28.4740   23.0070 O   0  0  0  0  0  0  0  0  0  0  0  0
  -21.0570  -29.5890   21.4760 H   0  0  0  0  0  0  0  0  0  0  0  0
  -18.1890  -27.7160   22.5360 C   0  0  0  0  0  0  0  0  0  0  0  0
  -20.7480  -27.9750   22.8060 C   0  0  0  0  0  3  0  0  0  0  0  0
  -20.8550  -26.5970   22.1130 C   0  0  0  0  0  2  0  0  0  0  0  0
  -19.7480  -26.3510   21.0830 C   0  0  0  0  0  2  0  0  0  0  0  0
  -18.3710  -26.4300   21.7480 C   0  0  0  0  0  2  0  0  0  0  0  0
  -19.3060  -28.4500   23.0190 C   0  0  0  0  0  0  0  0  0  0  0  0
  -19.0810  -29.6560   23.7180 C   0  0  0  0  0  3  0  0  0  0  0  0
  -17.7740  -30.1290   23.9360 C   0  0  0  0  0  3  0  0  0  0  0  0
  -16.6720  -29.3920   23.4680 C   0  0  0  0  0  3  0  0  0  0  0  0
  -16.8810  -28.1870   22.7740 C   0  0  0  0  0  3  0  0  0  0  0  0
  -26.0100  -32.1180   23.7760 C   0  0  0  0  0  3  0  0  0  0  0  0
  -26.5170  -31.2730   25.0080 C   0  0  1  0  0  0  0  0  0  0  0  0
  -25.4190  -30.9840   26.0580 C   0  0  0  0  0  1  0  0  0  0  0  0
  -27.0930  -29.9150   24.5430 C   0  0  0  0  0  1  0  0  0  0  0  0
  -27.6700  -32.0210   25.7170 C   0  0  0  0  0  1  0  0  0  0  0  0
  -25.7000  -33.4960   24.1880 N   0  0  0  0  0  0  0  0  0  0  0  0
  -26.0170  -34.5930   23.4870 C   0  0  0  0  0  0  0  0  0  0  0  0
  -26.6720  -34.5500   22.4430 O   0  0  0  0  0  0  0  0  0  0  0  0
  -25.1150  -33.6020   25.0050 H   0  0  0  0  0  0  0  0  0  0  0  0
  -24.2700  -36.3900   23.2770 C   0  0  0  0  0  1  0  0  0  0  0  0
  -25.5340  -35.9500   24.0330 C   0  0  0  0  0  3  0  0  0  0  0  0
  -27.6770  -36.8110   24.8660 C   0  0  0  0  0  1  0  0  0  0  0  0
  -26.5570  -37.0160   23.9520 N   0  0  0  0  0  0  0  0  0  0  0  0
  -26.1460  -37.9250   24.1490 H   0  0  0  0  0  0  0  0  0  0  0  0
  1  3  1  0
  2  1  2  0
  4  5  2  0
  4  6  1  0
  5  2  1  0
  6 15  1  0
  6  3  2  0
  7 13  1  0
  7 15  1  0
  8 13  1  0
  9 10  1  0
  9  8  1  0
 11 10  1  0
 11 20  1  0
 11 12  1  0
 13 12  1  0
 14  7  2  0
 15 16  1  0
 17 18  2  0
 18 37  1  0
 19 18  1  0
 19 22  1  0
 20 21  1  0
 20 17  1  0
 21 19  2  0
 22 23  1  0
 23 24  2  0
 25 28  1  0
 25 24  1  0
 26 25  2  0
 27 26  1  0
 27 22  2  0
 28 29  1  0
 29 34  2  0
 29 30  1  0
 30 31  2  0
 31 32  1  0
 32 36  1  0
 33 32  2  0
 34 33  1  0
 35 34  1  0
 37 38  1  0
 38 41  1  0
 38 40  1  0
 39 37  2  0
 42 17  1  0
 42 43  1  0
 44 42  1  0
 45 51  1  0
 46 47  2  0
 48 45  1  0
 48 46  1  0
 48 49  1  6
 50 48  1  0
 51  4  1  0
 51 47  1  0
 52 45  2  0
 53 57  1  0
 53 54  1  0
 54 56  1  0
 54  5  1  0
 55 53  2  0
 58 57  2  0
 58 59  1  0
 59 61  1  0
 60 71  2  0
 61 66  1  0
 62 70  1  0
 62 72  1  0
 63 69  1  0
 63 65  1  0
 64 70  1  0
 65 64  1  0
 66 65  2  0
 67 68  1  0
 67 61  2  0
 68 63  2  0
 69 62  1  0
 70 60  1  0
 72 74  2  0
 73 72  1  0
 75 73  1  0
 76 85  2  0
 76 81  1  0
 77 73  1  0
 77 81  1  0
 78 77  1  0
 79 80  1  0
 79 78  1  0
 80 76  1  0
 81 82  2  0
 82 83  1  0
 84 83  2  0
 85 84  1  0
 86 60  1  0
 86 91  1  0
 86 87  1  0
 87 90  1  1
 87 88  1  0
 89 87  1  0
 91 94  1  0
 92 96  1  0
 92 91  1  0
 93 92  2  0
 96 95  1  0
 98 96  1  0
 98 99  1  0
 98 97  1  0
M  ISO  4   7 100  15 100  58 101  59 101
M  END
>  <TORSDO>  (29) 
F 20

>  <SCORE>  (29) 
-12.294

>  <name>  (29) 
28

>  <ligand_id>  (29) 
28

>  <original_smiles>  (29) 
[H]c1c([H])c(N([H])C(=O)N2C([H])([H])C([H])([H])C([H])([H])C([H])(n3nc(-c4c([H])c([H])c(Oc5c([H])c([H])c(F)c([H])c5F)c([H])c4[H])c(C(=O)N([H])[H])c3N([H])[H])C2([H])[H])c(N2C(=O)C(C([H])([H])[H])(C([H])([H])[H])C([H])([H])C2([H])[H])c(N([H])C(=O)C([H])([H])C([H])([H])Oc2c([H])c([H])c3c(c2[H])C([H])([H])N(C(=O)C([H])(N([H])C(=O)C([H])(N([H])C([H])([H])[H])C([H])([H])[H])C(C([H])([H])[H])(C([H])([H])[H])C([H])([H])[H])C([H])(C(=O)N([H])C2([H])c4c([H])c([H])c([H])c([H])c4C([H])([H])C([H])([H])C2([H])[H])C3([H])[H])c1[H]

>  <smiles>  (29) 
[H]c1c([H])c(N([H])C(=O)N2C([H])([H])C([H])([H])C([H])([H])C([H])(n3nc(-c4c([H])c([H])c(Oc5c([H])c([H])c(F)c([H])c5F)c([H])c4[H])c(C(=O)N([H])[H])c3N([H])[H])C2([H])[H])c(N2C(=O)C(C([H])([H])[H])(C([H])([H])[H])C([H])([H])C2([H])[H])c(N([H])C(=O)C([H])([H])C([H])([H])Oc2c([H])c([H])c3c(c2[H])C([H])([H])N(C(=O)C([H])(N([H])C(=O)C([H])(N([H])C([H])([H])[H])C([H])([H])[H])C(C([H])([H])[H])(C([H])([H])[H])C([H])([H])[H])C([H])(C(=O)N([H])C2([H])c4c([H])c([H])c([H])c([H])c4C([H])([H])C([H])([H])C2([H])[H])C3([H])[H])c1[H]

$$$$
29:0:0
     RDKit          3D

 93102  0  0  1  0  0  0  0  0999 V2000
  -28.4370  -22.2000   20.2680 C   0  0  0  0  0  0  0  0  0  0  0  0
  -30.1200  -23.5920   21.1300 C   0  0  0  0  0  2  0  0  0  0  0  0
  -30.4080  -22.0830   21.4120 C   0  0  0  0  0  2  0  0  0  0  0  0
  -28.6290  -23.6840   20.7810 C   0  0  0  0  0  3  0  0  0  0  0  0
  -29.3830  -21.3010   20.7170 N   0  0  0  0  0  0  0  0  0  0  0  0
  -27.4860  -21.8930   19.5420 O   0  0  0  0  0  0  0  0  0  0  0  0
  -30.3340  -18.6090   18.2730 C   0  0  0  0  0  3  0  0  0  0  0  0
  -30.0050  -19.8360   18.8650 C   0  0  0  0  0  3  0  0  0  0  0  0
  -29.7060  -18.6730   20.9850 C   0  0  0  0  0  3  0  0  0  0  0  0
  -30.3340  -17.4000   19.0000 C   0  0  0  0  0  0  0  0  0  0  0  0
  -29.6620  -19.9240   20.2260 C   0  0  0  0  0  0  0  0  0  0  0  0
  -30.0590  -17.3750   20.4010 C   0  0  0  0  0  0  0  0  0  0  0  0
  -30.5510  -16.1400   18.1860 C   0  0  0  0  0  1  0  0  0  0  0  0
  -30.8100  -14.9350   21.0550 C   0  0  0  0  0  0  0  0  0  0  0  0
  -30.7740  -12.5850   20.1970 C   0  0  0  0  0  2  0  0  0  0  0  0
  -29.9890  -12.5370   18.8670 C   0  0  0  0  0  2  0  0  0  0  0  0
  -28.4730  -12.4100   19.1170 C   0  0  0  0  0  2  0  0  0  0  0  0
  -27.9500  -13.3530   20.2350 C   0  0  0  0  0  3  0  0  0  0  0  0
  -28.8690  -13.3430   21.4760 C   0  0  0  0  0  2  0  0  0  0  0  0
  -30.2210  -13.6880   21.0210 N   0  0  0  0  0  0  0  0  0  0  0  0
  -32.0270  -15.0360   20.8710 O   0  0  0  0  0  0  0  0  0  0  0  0
  -29.9920  -16.0630   21.1200 N   0  0  0  0  0  0  0  0  0  0  0  0
  -29.0840  -15.8630   21.5120 H   0  0  0  0  0  0  0  0  0  0  0  0
  -25.4890  -13.9360   20.6670 C   0  0  0  0  0  0  0  0  0  0  0  0
  -24.3940  -13.1600   20.9350 C   0  0  0  0  0  0  0  0  0  0  0  0
  -24.8690  -11.8140   21.0020 C   0  0  0  0  0  0  0  0  0  0  0  0
  -26.5600  -13.0620   20.5800 N   0  0  0  0  0  0  0  0  0  0  0  0
  -26.1880  -11.7840   20.8490 N   0  0  0  0  0  0  0  0  0  0  0  0
  -24.1360  -10.5490   21.1480 C   0  0  0  0  0  0  0  0  0  0  0  0
  -24.4890   -9.6020   22.1350 C   0  0  0  0  0  3  0  0  0  0  0  0
  -23.7580   -8.4020   22.2700 C   0  0  0  0  0  3  0  0  0  0  0  0
  -22.6580   -8.1400   21.4180 C   0  0  0  0  0  0  0  0  0  0  0  0
  -22.3240   -9.0760   20.4240 C   0  0  0  0  0  3  0  0  0  0  0  0
  -23.0560  -10.2680   20.2870 C   0  0  0  0  0  3  0  0  0  0  0  0
  -21.9060   -6.9910   21.4580 O   0  0  0  0  0  0  0  0  0  0  0  0
  -21.7760   -6.2570   22.6090 C   0  0  0  0  0  0  0  0  0  0  0  0
  -21.2580   -6.8180   23.7960 C   0  0  0  0  0  3  0  0  0  0  0  0
  -21.0760   -6.0080   24.9360 C   0  0  0  0  0  3  0  0  0  0  0  0
  -21.4020   -4.6400   24.8880 C   0  0  0  0  0  0  0  0  0  0  0  0
  -21.9140   -4.0780   23.7050 C   0  0  0  0  0  3  0  0  0  0  0  0
  -22.0960   -4.8850   22.5680 C   0  0  0  0  0  0  0  0  0  0  0  0
  -22.5680   -4.3350   21.4230 F   0  0  0  0  0  0  0  0  0  0  0  0
  -21.2200   -3.8600   25.9800 F   0  0  0  0  0  0  0  0  0  0  0  0
  -22.9710  -13.6270   21.0290 C   0  0  0  0  0  0  0  0  0  0  0  0
  -22.1590  -12.9540   21.8380 N   0  0  0  0  0  0  0  0  0  0  0  0
  -22.5840  -14.6220   20.4190 O   0  0  0  0  0  0  0  0  0  0  0  0
  -22.4810  -12.1450   22.3470 H   0  0  0  0  0  0  0  0  0  0  0  0
  -21.2010  -13.2550   21.9500 H   0  0  0  0  0  0  0  0  0  0  0  0
  -25.6620  -15.3030   20.4670 N   0  0  0  0  0  0  0  0  0  0  0  0
  -24.8860  -15.9550   20.4820 H   0  0  0  0  0  0  0  0  0  0  0  0
  -26.5430  -15.7450   20.2300 H   0  0  0  0  0  0  0  0  0  0  0  0
  -28.0830  -24.9130   19.8640 C   0  0  0  0  0  2  0  0  0  0  0  0
  -28.2660  -26.3930   20.1290 O   0  0  0  0  0  0  0  0  0  0  0  0
  -24.5270  -31.8650   23.0900 C   0  0  0  0  0  0  0  0  0  0  0  0
  -27.1730  -27.2950   20.0220 C   0  0  0  0  0  0  0  0  0  0  0  0
  -23.3410  -30.4580   21.4480 C   0  0  0  0  0  3  0  0  0  0  0  0
  -24.8080  -28.9390   20.0020 C   0  0  0  0  0  0  0  0  0  0  0  0
  -25.8820  -30.7890   21.2760 C   0  0  0  0  0  2  0  0  0  0  0  0
  -25.9730  -29.4130   20.6180 C   0  0  0  0  0  0  0  0  0  0  0  0
  -27.1520  -28.5990   20.6280 C   0  0  0  0  0  3  0  0  0  0  0  0
  -25.9950  -26.9200   19.3320 C   0  0  0  0  0  3  0  0  0  0  0  0
  -24.8290  -27.7040   19.3420 C   0  0  0  0  0  3  0  0  0  0  0  0
  -23.5640  -29.8010   20.0600 C   0  0  0  0  0  2  0  0  0  0  0  0
  -24.6020  -31.0570   21.9920 N   0  0  0  0  0  0  0  0  0  0  0  0
  -23.4410  -32.1290   23.6260 O   0  0  0  0  0  0  0  0  0  0  0  0
  -22.6920  -29.4270   22.4040 C   0  0  0  0  0  0  0  0  0  0  0  0
  -21.3620  -29.2590   22.3030 N   0  0  0  0  0  0  0  0  0  0  0  0
  -23.3830  -28.7850   23.1990 O   0  0  0  0  0  0  0  0  0  0  0  0
  -20.8640  -29.8280   21.6310 H   0  0  0  0  0  0  0  0  0  0  0  0
  -17.9830  -28.0980   22.8800 C   0  0  0  0  0  0  0  0  0  0  0  0
  -20.5530  -28.3160   23.0760 C   0  0  0  0  0  3  0  0  0  0  0  0
  -20.6170  -26.8980   22.4640 C   0  0  0  0  0  2  0  0  0  0  0  0
  -19.4800  -26.6140   21.4780 C   0  0  0  0  0  2  0  0  0  0  0  0
  -18.1200  -26.7620   22.1680 C   0  0  0  0  0  2  0  0  0  0  0  0
  -19.1250  -28.8340   23.2930 C   0  0  0  0  0  0  0  0  0  0  0  0
  -18.9420  -30.0840   23.9210 C   0  0  0  0  0  3  0  0  0  0  0  0
  -17.6490  -30.5970   24.1430 C   0  0  0  0  0  3  0  0  0  0  0  0
  -16.5220  -29.8570   23.7470 C   0  0  0  0  0  3  0  0  0  0  0  0
  -16.6900  -28.6090   23.1200 C   0  0  0  0  0  3  0  0  0  0  0  0
  -25.8020  -32.5130   23.7110 C   0  0  0  0  0  3  0  0  0  0  0  0
  -25.4640  -33.8950   24.0820 N   0  0  0  0  0  0  0  0  0  0  0  0
  -25.8000  -34.9810   23.3720 C   0  0  0  0  0  0  0  0  0  0  0  0
  -26.4980  -34.9240   22.3550 O   0  0  0  0  0  0  0  0  0  0  0  0
  -24.8510  -34.0140   24.8750 H   0  0  0  0  0  0  0  0  0  0  0  0
  -24.0740  -36.7750   23.0220 C   0  0  0  0  0  1  0  0  0  0  0  0
  -25.2820  -36.3450   23.8680 C   0  0  0  0  0  3  0  0  0  0  0  0
  -27.3730  -37.2030   24.8260 C   0  0  0  0  0  1  0  0  0  0  0  0
  -26.3090  -37.4090   23.8470 N   0  0  0  0  0  0  0  0  0  0  0  0
  -25.8900  -38.3170   24.0220 H   0  0  0  0  0  0  0  0  0  0  0  0
  -26.3540  -31.7240   24.9620 C   0  0  1  0  0  0  0  0  0  0  0  0
  -25.2810  -31.4380   26.0380 C   0  0  0  0  0  1  0  0  0  0  0  0
  -26.9610  -30.3690   24.5320 C   0  0  0  0  0  1  0  0  0  0  0  0
  -27.4960  -32.5300   25.6270 C   0  0  0  0  0  1  0  0  0  0  0  0
  1  5  1  0
  1  4  1  0
  2  3  1  0
  4 52  1  0
  4  2  1  0
  5  3  1  0
  6  1  2  0
  7  8  2  0
  7 10  1  0
  8 11  1  0
 10 12  2  0
 11  5  1  0
 11  9  2  0
 12  9  1  0
 12 22  1  0
 13 10  1  0
 14 22  1  0
 15 20  1  0
 16 17  1  0
 16 15  1  0
 18 17  1  0
 18 27  1  0
 18 19  1  0
 20 14  1  0
 20 19  1  0
 21 14  2  0
 22 23  1  0
 24 25  2  0
 25 26  1  0
 25 44  1  0
 26 29  1  0
 27 24  1  0
 27 28  1  0
 28 26  2  0
 29 30  1  0
 30 31  2  0
 32 35  1  0
 32 31  1  0
 33 32  2  0
 34 33  1  0
 34 29  2  0
 35 36  1  0
 36 37  1  0
 37 38  2  0
 39 38  1  0
 39 43  1  0
 40 39  2  0
 41 36  2  0
 41 40  1  0
 42 41  1  0
 44 45  1  0
 45 48  1  0
 45 47  1  0
 46 44  2  0
 49 50  1  0
 49 24  1  0
 51 49  1  0
 52 53  1  0
 54 65  2  0
 55 53  1  0
 55 60  1  0
 56 64  1  0
 56 66  1  0
 57 63  1  0
 57 59  1  0
 58 64  1  0
 59 60  2  0
 59 58  1  0
 61 62  1  0
 61 55  2  0
 62 57  2  0
 63 56  1  0
 64 54  1  0
 66 68  2  0
 67 66  1  0
 69 67  1  0
 70 79  2  0
 70 75  1  0
 71 67  1  0
 71 75  1  0
 72 71  1  0
 73 74  1  0
 73 72  1  0
 74 70  1  0
 75 76  2  0
 76 77  1  0
 78 77  2  0
 79 78  1  0
 80 54  1  0
 80 81  1  0
 80 90  1  0
 81 84  1  0
 82 86  1  0
 82 81  1  0
 83 82  2  0
 86 85  1  0
 88 86  1  0
 88 89  1  0
 88 87  1  0
 90 93  1  1
 90 91  1  0
 92 90  1  0
M  ISO  4  14 100  22 100  52 101  53 101
M  END
>  <TORSDO>  (30) 
F 18

>  <SCORE>  (30) 
-14.186

>  <name>  (30) 
29

>  <ligand_id>  (30) 
29

>  <original_smiles>  (30) 
[H]c1c([H])c([H])c2c(c1[H])C([H])([H])C([H])([H])C([H])([H])C2([H])N([H])C(=O)C1([H])N(C(=O)C([H])(N([H])C(=O)C([H])(N([H])C([H])([H])[H])C([H])([H])[H])C(C([H])([H])[H])(C([H])([H])[H])C([H])([H])[H])C([H])([H])c2c([H])c(OC([H])([H])C3([H])C(=O)N(c4c([H])c([H])c(C([H])([H])[H])c(N([H])C(=O)N5C([H])([H])C([H])([H])C([H])([H])C([H])(n6nc(-c7c([H])c([H])c(Oc8c([H])c([H])c(F)c([H])c8F)c([H])c7[H])c(C(=O)N([H])[H])c6N([H])[H])C5([H])[H])c4[H])C([H])([H])C3([H])[H])c([H])c([H])c2C1([H])[H]

>  <smiles>  (30) 
[H]c1c([H])c([H])c2c(c1[H])C([H])([H])C([H])([H])C([H])([H])C2([H])N([H])C(=O)C1([H])N(C(=O)C([H])(N([H])C(=O)C([H])(N([H])C([H])([H])[H])C([H])([H])[H])C(C([H])([H])[H])(C([H])([H])[H])C([H])([H])[H])C([H])([H])c2c([H])c(OC([H])([H])C3([H])C(=O)N(c4c([H])c([H])c(C([H])([H])[H])c(N([H])C(=O)N5C([H])([H])C([H])([H])C([H])([H])C([H])(n6nc(-c7c([H])c([H])c(Oc8c([H])c([H])c(F)c([H])c8F)c([H])c7[H])c(C(=O)N([H])[H])c6N([H])[H])C5([H])[H])c4[H])C([H])([H])C3([H])[H])c([H])c([H])c2C1([H])[H]

$$$$
30:0:0
     RDKit          3D

 98106  0  0  1  0  0  0  0  0999 V2000
  -31.0660  -19.9970   19.3830 C   0  0  0  0  0  3  0  0  0  0  0  0
  -31.3560  -17.5630   19.2990 C   0  0  0  0  0  3  0  0  0  0  0  0
  -29.5740  -18.5350   20.6380 C   0  0  0  0  0  3  0  0  0  0  0  0
  -31.7610  -18.8610   18.9280 C   0  0  0  0  0  0  0  0  0  0  0  0
  -29.9380  -19.8890   20.2240 C   0  0  0  0  0  0  0  0  0  0  0  0
  -30.2750  -17.3330   20.1900 C   0  0  0  0  0  0  0  0  0  0  0  0
  -30.6210  -14.7440   20.3700 C   0  0  0  0  0  0  0  0  0  0  0  0
  -30.3620  -12.4760   19.3740 C   0  0  0  0  0  2  0  0  0  0  0  0
  -29.4330  -12.5570   18.1440 C   0  0  0  0  0  2  0  0  0  0  0  0
  -27.9640  -12.3940   18.5730 C   0  0  0  0  0  2  0  0  0  0  0  0
  -27.5890  -13.2920   19.7810 C   0  0  0  0  0  3  0  0  0  0  0  0
  -28.6450  -13.2210   20.9080 C   0  0  0  0  0  2  0  0  0  0  0  0
  -29.9470  -13.5460   20.3110 N   0  0  0  0  0  0  0  0  0  0  0  0
  -31.8210  -14.7620   20.0870 O   0  0  0  0  0  0  0  0  0  0  0  0
  -29.9130  -15.9280   20.5550 N   0  0  0  0  0  0  0  0  0  0  0  0
  -28.9710  -15.7990   20.8980 H   0  0  0  0  0  0  0  0  0  0  0  0
  -25.2000  -13.8830   20.4960 C   0  0  0  0  0  0  0  0  0  0  0  0
  -24.1320  -13.1100   20.8620 C   0  0  0  0  0  0  0  0  0  0  0  0
  -24.5950  -11.7580   20.8390 C   0  0  0  0  0  0  0  0  0  0  0  0
  -26.2450  -13.0030   20.2690 N   0  0  0  0  0  0  0  0  0  0  0  0
  -25.8880  -11.7210   20.5390 N   0  0  0  0  0  0  0  0  0  0  0  0
  -23.8660  -10.4970   21.0260 C   0  0  0  0  0  0  0  0  0  0  0  0
  -24.2900   -9.5310   21.9650 C   0  0  0  0  0  3  0  0  0  0  0  0
  -23.5610   -8.3360   22.1420 C   0  0  0  0  0  3  0  0  0  0  0  0
  -22.3930   -8.0970   21.3790 C   0  0  0  0  0  0  0  0  0  0  0  0
  -21.9890   -9.0520   20.4280 C   0  0  0  0  0  3  0  0  0  0  0  0
  -22.7190  -10.2380   20.2500 C   0  0  0  0  0  3  0  0  0  0  0  0
  -21.6360   -6.9530   21.4630 O   0  0  0  0  0  0  0  0  0  0  0  0
  -21.5760   -6.2140   22.6170 C   0  0  0  0  0  0  0  0  0  0  0  0
  -21.1390   -6.7720   23.8380 C   0  0  0  0  0  3  0  0  0  0  0  0
  -21.0260   -5.9600   24.9840 C   0  0  0  0  0  3  0  0  0  0  0  0
  -21.3410   -4.5900   24.9090 C   0  0  0  0  0  0  0  0  0  0  0  0
  -21.7730   -4.0310   23.6940 C   0  0  0  0  0  3  0  0  0  0  0  0
  -21.8880   -4.8410   22.5510 C   0  0  0  0  0  0  0  0  0  0  0  0
  -22.2830   -4.2930   21.3760 F   0  0  0  0  0  0  0  0  0  0  0  0
  -21.2270   -3.8070   26.0080 F   0  0  0  0  0  0  0  0  0  0  0  0
  -22.7330  -13.5870   21.1220 C   0  0  0  0  0  0  0  0  0  0  0  0
  -21.9970  -12.8910   21.9810 N   0  0  0  0  0  0  0  0  0  0  0  0
  -22.3010  -14.6140   20.6000 O   0  0  0  0  0  0  0  0  0  0  0  0
  -22.3590  -12.0590   22.4230 H   0  0  0  0  0  0  0  0  0  0  0  0
  -21.0590  -13.1950   22.1990 H   0  0  0  0  0  0  0  0  0  0  0  0
  -25.3640  -15.2530   20.3130 N   0  0  0  0  0  0  0  0  0  0  0  0
  -24.5920  -15.9040   20.4090 H   0  0  0  0  0  0  0  0  0  0  0  0
  -26.2030  -15.6870   19.9490 H   0  0  0  0  0  0  0  0  0  0  0  0
  -32.9210  -19.0440   18.0620 C   0  0  0  0  0  0  0  0  0  0  0  0
  -33.8750  -19.9160   18.3830 N   0  0  0  0  0  0  0  0  0  0  0  0
  -33.0340  -18.3480   16.9330 N   0  0  0  0  0  4  0  0  0  0  0  0
  -33.8240  -20.3940   19.2710 H   0  0  0  0  0  0  0  0  0  0  0  0
  -34.6860  -20.0780   17.8070 H   0  0  0  0  0  0  0  0  0  0  0  0
  -32.2800  -17.7390   16.6570 H   0  0  0  0  0  0  0  0  0  0  0  0
  -33.8120  -18.4590   16.3040 H   0  0  0  0  0  0  0  0  0  0  0  0
  -29.1850  -22.3640   19.9970 C   0  0  0  0  0  0  0  0  0  0  0  0
  -29.3110  -21.1590   20.6790 N   0  0  0  0  0  0  0  0  0  0  0  0
  -29.2590  -22.3780   18.7640 O   0  0  0  0  0  0  0  0  0  0  0  0
  -29.0290  -21.1780   21.6500 H   0  0  0  0  0  0  0  0  0  0  0  0
  -28.9420  -23.7710   20.7160 C   0  0  0  0  0  2  0  0  0  0  0  0
  -28.1710  -24.9540   19.9280 C   0  0  0  0  0  2  0  0  0  0  0  0
  -28.2970  -26.4060   20.2950 O   0  0  0  0  0  0  0  0  0  0  0  0
  -24.6030  -31.8870   23.2350 C   0  0  0  0  0  0  0  0  0  0  0  0
  -27.1970  -27.2890   20.1870 C   0  0  0  0  0  0  0  0  0  0  0  0
  -23.3990  -30.4930   21.5930 C   0  0  0  0  0  3  0  0  0  0  0  0
  -24.8450  -28.9430   20.1620 C   0  0  0  0  0  0  0  0  0  0  0  0
  -25.9410  -30.7940   21.4170 C   0  0  0  0  0  2  0  0  0  0  0  0
  -26.0150  -29.4130   20.7690 C   0  0  0  0  0  0  0  0  0  0  0  0
  -27.1910  -28.5980   20.7770 C   0  0  0  0  0  3  0  0  0  0  0  0
  -26.0120  -26.9000   19.5190 C   0  0  0  0  0  3  0  0  0  0  0  0
  -24.8500  -27.6950   19.5210 C   0  0  0  0  0  3  0  0  0  0  0  0
  -23.6100  -29.8210   20.2120 C   0  0  0  0  0  2  0  0  0  0  0  0
  -24.6680  -31.0760   22.1380 N   0  0  0  0  0  0  0  0  0  0  0  0
  -23.5180  -32.1680   23.7660 O   0  0  0  0  0  0  0  0  0  0  0  0
  -22.7310  -29.4770   22.5520 C   0  0  0  0  0  0  0  0  0  0  0  0
  -21.4040  -29.3070   22.4270 N   0  0  0  0  0  0  0  0  0  0  0  0
  -23.4050  -28.8440   23.3690 O   0  0  0  0  0  0  0  0  0  0  0  0
  -20.9180  -29.8690   21.7410 H   0  0  0  0  0  0  0  0  0  0  0  0
  -18.0160  -28.1310   22.9330 C   0  0  0  0  0  0  0  0  0  0  0  0
  -20.5790  -28.3720   23.1960 C   0  0  0  0  0  3  0  0  0  0  0  0
  -20.6700  -26.9420   22.6180 C   0  0  0  0  0  2  0  0  0  0  0  0
  -19.5630  -26.6290   21.6060 C   0  0  0  0  0  2  0  0  0  0  0  0
  -18.1830  -26.7820   22.2540 C   0  0  0  0  0  2  0  0  0  0  0  0
  -19.1430  -28.8840   23.3600 C   0  0  0  0  0  0  0  0  0  0  0  0
  -18.9330  -30.1460   23.9570 C   0  0  0  0  0  3  0  0  0  0  0  0
  -17.6330  -30.6550   24.1310 C   0  0  0  0  0  3  0  0  0  0  0  0
  -16.5230  -29.8980   23.7190 C   0  0  0  0  0  3  0  0  0  0  0  0
  -16.7150  -28.6380   23.1250 C   0  0  0  0  0  3  0  0  0  0  0  0
  -25.8850  -32.5170   23.8580 C   0  0  0  0  0  3  0  0  0  0  0  0
  -26.3950  -31.7500   25.1380 C   0  0  1  0  0  0  0  0  0  0  0  0
  -25.2990  -31.5200   26.2040 C   0  0  0  0  0  1  0  0  0  0  0  0
  -26.9750  -30.3690   24.7550 C   0  0  0  0  0  1  0  0  0  0  0  0
  -27.5470  -32.5430   25.7990 C   0  0  0  0  0  1  0  0  0  0  0  0
  -25.5760  -33.9180   24.1860 N   0  0  0  0  0  0  0  0  0  0  0  0
  -25.9060  -34.9700   23.4260 C   0  0  0  0  0  0  0  0  0  0  0  0
  -26.5720  -34.8650   22.3920 O   0  0  0  0  0  0  0  0  0  0  0  0
  -24.9840  -34.0720   24.9890 H   0  0  0  0  0  0  0  0  0  0  0  0
  -24.1790  -36.7690   23.0760 C   0  0  0  0  0  1  0  0  0  0  0  0
  -25.4230  -36.3620   23.8830 C   0  0  0  0  0  3  0  0  0  0  0  0
  -27.5630  -37.2450   24.7030 C   0  0  0  0  0  1  0  0  0  0  0  0
  -26.4580  -37.4130   23.7640 N   0  0  0  0  0  0  0  0  0  0  0  0
  -26.0540  -38.3340   23.9130 H   0  0  0  0  0  0  0  0  0  0  0  0
  1  5  1  0
  2  6  2  0
  4  2  1  0
  4  1  2  0
  5  3  2  0
  5 53  1  0
  6 15  1  0
  6  3  1  0
  7 15  1  0
  8 13  1  0
  9 10  1  0
  9  8  1  0
 11 10  1  0
 11 20  1  0
 11 12  1  0
 13  7  1  0
 13 12  1  0
 14  7  2  0
 15 16  1  0
 17 18  2  0
 18 37  1  0
 19 18  1  0
 19 22  1  0
 20 17  1  0
 20 21  1  0
 21 19  2  0
 22 23  1  0
 23 24  2  0
 25 28  1  0
 25 24  1  0
 26 25  2  0
 27 26  1  0
 27 22  2  0
 28 29  1  0
 29 30  1  0
 30 31  2  0
 32 31  1  0
 32 36  1  0
 33 32  2  0
 34 29  2  0
 34 33  1  0
 35 34  1  0
 37 38  1  0
 38 41  1  0
 38 40  1  0
 39 37  2  0
 42 43  1  0
 42 17  1  0
 44 42  1  0
 45 46  1  0
 45  4  1  0
 46 48  1  0
 47 45  2  0
 49 46  1  0
 50 47  1  0
 51 47  1  0
 52 53  1  0
 52 56  1  0
 53 55  1  0
 54 52  2  0
 57 58  1  0
 57 56  1  0
 59 70  2  0
 60 58  1  0
 60 65  1  0
 61 69  1  0
 61 71  1  0
 62 68  1  0
 62 64  1  0
 63 69  1  0
 64 65  2  0
 64 63  1  0
 66 67  1  0
 66 60  2  0
 67 62  2  0
 68 61  1  0
 69 59  1  0
 71 73  2  0
 72 71  1  0
 74 72  1  0
 75 84  2  0
 75 80  1  0
 76 72  1  0
 76 80  1  0
 77 76  1  0
 78 79  1  0
 78 77  1  0
 79 75  1  0
 80 81  2  0
 81 82  1  0
 83 82  2  0
 84 83  1  0
 85 59  1  0
 85 90  1  0
 85 86  1  0
 86 89  1  1
 86 87  1  0
 88 86  1  0
 90 93  1  0
 91 95  1  0
 91 90  1  0
 92 91  2  0
 95 94  1  0
 97 95  1  0
 97 98  1  0
 97 96  1  0
M  ISO  4   7 100  15 100  57 101  58 101
M  END
>  <TORSDO>  (31) 
F 20

>  <SCORE>  (31) 
-13.892

>  <name>  (31) 
30

>  <ligand_id>  (31) 
30

>  <original_smiles>  (31) 
[H]c1c([H])c([H])c2c(c1[H])C([H])([H])C([H])([H])C([H])([H])C2([H])N([H])C(=O)C1([H])N(C(=O)C([H])(N([H])C(=O)C([H])(N([H])C([H])([H])[H])C([H])([H])[H])C(C([H])([H])[H])(C([H])([H])[H])C([H])([H])[H])C([H])([H])c2c([H])c(OC([H])([H])C([H])([H])C(=O)N([H])c3c([H])c(C(N([H])[H])=[N+]([H])[H])c([H])c(N([H])C(=O)N4C([H])([H])C([H])([H])C([H])([H])C([H])(n5nc(-c6c([H])c([H])c(Oc7c([H])c([H])c(F)c([H])c7F)c([H])c6[H])c(C(=O)N([H])[H])c5N([H])[H])C4([H])[H])c3[H])c([H])c([H])c2C1([H])[H]

>  <smiles>  (31) 
[H]c1c([H])c([H])c2c(c1[H])C([H])([H])C([H])([H])C([H])([H])C2([H])N([H])C(=O)C1([H])N(C(=O)C([H])(N([H])C(=O)C([H])(N([H])C([H])([H])[H])C([H])([H])[H])C(C([H])([H])[H])(C([H])([H])[H])C([H])([H])[H])C([H])([H])c2c([H])c(OC([H])([H])C([H])([H])C(=O)N([H])c3c([H])c(C(N([H])[H])=[N+]([H])[H])c([H])c(N([H])C(=O)N4C([H])([H])C([H])([H])C([H])([H])C([H])(n5nc(-c6c([H])c([H])c(Oc7c([H])c([H])c(F)c([H])c7F)c([H])c6[H])c(C(=O)N([H])[H])c5N([H])[H])C4([H])[H])c3[H])c([H])c([H])c2C1([H])[H]

$$$$
31:0:0
     RDKit          3D

 93101  0  0  1  0  0  0  0  0999 V2000
  -29.6110  -22.0440   22.7810 O   0  0  0  0  0  0  0  0  0  0  0  0
  -27.5590  -21.6580   21.3590 O   0  0  0  0  0  0  0  0  0  0  0  0
  -29.0280  -21.7250   21.4680 S   0  0  2  0  0  0  0  0  0  0  0  0
  -29.4440  -17.9500   19.6920 C   0  0  0  0  0  3  0  0  0  0  0  0
  -30.7030  -17.9310   21.7590 C   0  0  0  0  0  3  0  0  0  0  0  0
  -29.2040  -19.3490   19.8410 C   0  0  0  0  0  3  0  0  0  0  0  0
  -30.4630  -19.3260   21.9080 C   0  0  0  0  0  3  0  0  0  0  0  0
  -30.1640  -17.2050   20.6690 C   0  0  0  0  0  0  0  0  0  0  0  0
  -29.6710  -20.0510   20.9800 C   0  0  0  0  0  0  0  0  0  0  0  0
  -30.8670  -14.7800   20.1810 C   0  0  0  0  0  0  0  0  0  0  0  0
  -30.6340  -12.5760   19.0550 C   0  0  0  0  0  2  0  0  0  0  0  0
  -29.6430  -12.7260   17.8770 C   0  0  0  0  0  2  0  0  0  0  0  0
  -28.1840  -12.5660   18.3500 C   0  0  0  0  0  2  0  0  0  0  0  0
  -27.8690  -13.4030   19.6200 C   0  0  0  0  0  3  0  0  0  0  0  0
  -28.9610  -13.2000   20.6940 C   0  0  0  0  0  2  0  0  0  0  0  0
  -30.2580  -13.5570   20.0890 N   0  0  0  0  0  0  0  0  0  0  0  0
  -31.9860  -14.9960   19.7030 O   0  0  0  0  0  0  0  0  0  0  0  0
  -30.0890  -15.7610   20.7130 N   0  0  0  0  0  0  0  0  0  0  0  0
  -29.2150  -15.3970   21.0610 H   0  0  0  0  0  0  0  0  0  0  0  0
  -25.4970  -14.0060   20.4170 C   0  0  0  0  0  0  0  0  0  0  0  0
  -24.4400  -13.2310   20.8100 C   0  0  0  0  0  0  0  0  0  0  0  0
  -24.8950  -11.8790   20.7460 C   0  0  0  0  0  0  0  0  0  0  0  0
  -26.5310  -13.1240   20.1390 N   0  0  0  0  0  0  0  0  0  0  0  0
  -26.1750  -11.8390   20.3960 N   0  0  0  0  0  0  0  0  0  0  0  0
  -24.1740  -10.6150   20.9440 C   0  0  0  0  0  0  0  0  0  0  0  0
  -24.5960   -9.6640   21.8970 C   0  0  0  0  0  3  0  0  0  0  0  0
  -23.8740   -8.4650   22.0810 C   0  0  0  0  0  3  0  0  0  0  0  0
  -22.7160   -8.2080   21.3090 C   0  0  0  0  0  0  0  0  0  0  0  0
  -22.3110   -9.1490   20.3450 C   0  0  0  0  0  3  0  0  0  0  0  0
  -23.0340  -10.3400   20.1600 C   0  0  0  0  0  3  0  0  0  0  0  0
  -21.9700   -7.0580   21.3990 O   0  0  0  0  0  0  0  0  0  0  0  0
  -21.8510   -6.3670   22.5770 C   0  0  0  0  0  0  0  0  0  0  0  0
  -21.3220   -6.9670   23.7420 C   0  0  0  0  0  3  0  0  0  0  0  0
  -21.1520   -6.2010   24.9130 C   0  0  0  0  0  3  0  0  0  0  0  0
  -21.4990   -4.8370   24.9180 C   0  0  0  0  0  0  0  0  0  0  0  0
  -22.0220   -4.2370   23.7590 C   0  0  0  0  0  3  0  0  0  0  0  0
  -22.1940   -5.0000   22.5920 C   0  0  0  0  0  0  0  0  0  0  0  0
  -22.6760   -4.4130   21.4710 F   0  0  0  0  0  0  0  0  0  0  0  0
  -21.3300   -4.1000   26.0410 F   0  0  0  0  0  0  0  0  0  0  0  0
  -23.0550  -13.7100   21.1340 C   0  0  0  0  0  0  0  0  0  0  0  0
  -22.3530  -13.0090   22.0180 N   0  0  0  0  0  0  0  0  0  0  0  0
  -22.6010  -14.7410   20.6380 O   0  0  0  0  0  0  0  0  0  0  0  0
  -22.7320  -12.1750   22.4420 H   0  0  0  0  0  0  0  0  0  0  0  0
  -21.4250  -13.3130   22.2790 H   0  0  0  0  0  0  0  0  0  0  0  0
  -25.6580  -15.3780   20.2530 N   0  0  0  0  0  0  0  0  0  0  0  0
  -24.8900  -16.0260   20.3910 H   0  0  0  0  0  0  0  0  0  0  0  0
  -26.4910  -15.8230   19.8900 H   0  0  0  0  0  0  0  0  0  0  0  0
  -29.5430  -24.3780   20.6830 C   0  0  0  0  0  0  0  0  0  0  0  0
  -29.5200  -22.9910   20.3520 N   0  0  0  0  0  0  0  0  0  0  0  0
  -30.0550  -24.7860   21.7310 O   0  0  0  0  0  0  0  0  0  0  0  0
  -29.1750  -22.7450   19.4250 H   0  0  0  0  0  0  0  0  0  0  0  0
  -28.8400  -25.3830   19.7110 C   0  0  0  0  0  2  0  0  0  0  0  0
  -28.8060  -26.7770   20.1920 O   0  0  0  0  0  0  0  0  0  0  0  0
  -24.6750  -31.8110   23.2360 C   0  0  0  0  0  0  0  0  0  0  0  0
  -27.6220  -27.5170   20.1210 C   0  0  0  0  0  0  0  0  0  0  0  0
  -23.5910  -30.3920   21.5290 C   0  0  0  0  0  3  0  0  0  0  0  0
  -25.1620  -28.9700   20.1010 C   0  0  0  0  0  0  0  0  0  0  0  0
  -26.1120  -30.8620   21.4200 C   0  0  0  0  0  2  0  0  0  0  0  0
  -26.2820  -29.5100   20.7420 C   0  0  0  0  0  0  0  0  0  0  0  0
  -27.5100  -28.7900   20.7520 C   0  0  0  0  0  3  0  0  0  0  0  0
  -26.4810  -27.0370   19.4340 C   0  0  0  0  0  3  0  0  0  0  0  0
  -25.2610  -27.7370   19.4400 C   0  0  0  0  0  3  0  0  0  0  0  0
  -23.8760  -29.7700   20.1360 C   0  0  0  0  0  2  0  0  0  0  0  0
  -24.8090  -31.0370   22.1200 N   0  0  0  0  0  0  0  0  0  0  0  0
  -23.5650  -32.0140   23.7490 O   0  0  0  0  0  0  0  0  0  0  0  0
  -22.9660  -29.3130   22.4410 C   0  0  0  0  0  0  0  0  0  0  0  0
  -21.6570  -29.0650   22.2680 N   0  0  0  0  0  0  0  0  0  0  0  0
  -23.6580  -28.7020   23.2580 O   0  0  0  0  0  0  0  0  0  0  0  0
  -21.1580  -29.6170   21.5850 H   0  0  0  0  0  0  0  0  0  0  0  0
  -18.3320  -27.7020   22.6600 C   0  0  0  0  0  0  0  0  0  0  0  0
  -20.8700  -28.0640   22.9890 C   0  0  0  0  0  3  0  0  0  0  0  0
  -21.0470  -26.6590   22.3650 C   0  0  0  0  0  2  0  0  0  0  0  0
  -19.9790  -26.3240   21.3210 C   0  0  0  0  0  2  0  0  0  0  0  0
  -18.5810  -26.3880   21.9400 C   0  0  0  0  0  2  0  0  0  0  0  0
  -19.4070  -28.4960   23.1400 C   0  0  0  0  0  0  0  0  0  0  0  0
  -19.1200  -29.7270   23.7680 C   0  0  0  0  0  3  0  0  0  0  0  0
  -17.7910  -30.1630   23.9290 C   0  0  0  0  0  3  0  0  0  0  0  0
  -16.7310  -29.3640   23.4650 C   0  0  0  0  0  3  0  0  0  0  0  0
  -17.0020  -28.1360   22.8380 C   0  0  0  0  0  3  0  0  0  0  0  0
  -25.9090  -32.4890   23.9080 C   0  0  0  0  0  3  0  0  0  0  0  0
  -26.3920  -31.7490   25.2150 C   0  0  1  0  0  0  0  0  0  0  0  0
  -25.2580  -31.4800   26.2310 C   0  0  0  0  0  1  0  0  0  0  0  0
  -27.0450  -30.3910   24.8660 C   0  0  0  0  0  1  0  0  0  0  0  0
  -27.4790  -32.5900   25.9250 C   0  0  0  0  0  1  0  0  0  0  0  0
  -25.5390  -33.8800   24.2100 N   0  0  0  0  0  0  0  0  0  0  0  0
  -25.8620  -34.9340   23.4490 C   0  0  0  0  0  0  0  0  0  0  0  0
  -26.5740  -34.8420   22.4460 O   0  0  0  0  0  0  0  0  0  0  0  0
  -24.9120  -34.0220   24.9870 H   0  0  0  0  0  0  0  0  0  0  0  0
  -24.0830  -36.6560   23.0050 C   0  0  0  0  0  1  0  0  0  0  0  0
  -25.3060  -36.3090   23.8670 C   0  0  0  0  0  3  0  0  0  0  0  0
  -27.3730  -37.2860   24.7650 C   0  0  0  0  0  1  0  0  0  0  0  0
  -26.3030  -37.3970   23.7770 N   0  0  0  0  0  0  0  0  0  0  0  0
  -25.8590  -38.3030   23.8940 H   0  0  0  0  0  0  0  0  0  0  0  0
  2  3  2  0
  3  1  2  0
  4  6  2  0
  4  8  1  0
  5  7  1  0
  6  9  1  0
  8 18  1  0
  8  5  2  0
  9  3  1  0
  9  7  2  0
 10 18  1  0
 11 16  1  0
 12 13  1  0
 12 11  1  0
 14 13  1  0
 14 23  1  0
 14 15  1  0
 16 10  1  0
 16 15  1  0
 17 10  2  0
 18 19  1  0
 20 21  2  0
 21 40  1  0
 22 21  1  0
 22 25  1  0
 23 24  1  0
 23 20  1  0
 24 22  2  0
 25 26  1  0
 26 27  2  0
 28 31  1  0
 28 27  1  0
 29 28  2  0
 30 29  1  0
 30 25  2  0
 31 32  1  0
 32 37  2  0
 32 33  1  0
 33 34  2  0
 34 35  1  0
 35 39  1  0
 36 35  2  0
 37 36  1  0
 38 37  1  0
 40 41  1  0
 41 44  1  0
 41 43  1  0
 42 40  2  0
 45 46  1  0
 45 20  1  0
 47 45  1  0
 48 50  2  0
 49 48  1  0
  3 49  1  6
 51 49  1  0
 52 53  1  0
 52 48  1  0
 54 65  2  0
 55 53  1  0
 55 60  1  0
 56 64  1  0
 56 66  1  0
 57 63  1  0
 57 59  1  0
 58 64  1  0
 59 60  2  0
 59 58  1  0
 61 62  1  0
 61 55  2  0
 62 57  2  0
 63 56  1  0
 64 54  1  0
 66 68  2  0
 67 66  1  0
 69 67  1  0
 70 79  2  0
 70 75  1  0
 71 67  1  0
 71 75  1  0
 72 71  1  0
 73 74  1  0
 73 72  1  0
 74 70  1  0
 75 76  2  0
 76 77  1  0
 78 77  2  0
 79 78  1  0
 80 54  1  0
 80 85  1  0
 80 81  1  0
 81 84  1  1
 81 82  1  0
 83 81  1  0
 85 88  1  0
 86 90  1  0
 86 85  1  0
 87 86  2  0
 90 89  1  0
 92 90  1  0
 92 93  1  0
 92 91  1  0
M  ISO  4  10 100  18 100  52 101  53 101
M  END
>  <TORSDO>  (32) 
F 19

>  <SCORE>  (32) 
-13.940

>  <name>  (32) 
31

>  <ligand_id>  (32) 
31

>  <original_smiles>  (32) 
[H]c1c([H])c([H])c2c(c1[H])C([H])([H])C([H])([H])C([H])([H])C2([H])N([H])C(=O)C1([H])N(C(=O)C([H])(N([H])C(=O)C([H])(N([H])C([H])([H])[H])C([H])([H])[H])C(C([H])([H])[H])(C([H])([H])[H])C([H])([H])[H])C([H])([H])c2c([H])c(OC([H])([H])C(=O)N([H])S(=O)(=O)c3c([H])c([H])c(N([H])C(=O)N4C([H])([H])C([H])([H])C([H])([H])C([H])(n5nc(-c6c([H])c([H])c(Oc7c([H])c([H])c(F)c([H])c7F)c([H])c6[H])c(C(=O)N([H])[H])c5N([H])[H])C4([H])[H])c([H])c3[H])c([H])c([H])c2C1([H])[H]

>  <smiles>  (32) 
[H]c1c([H])c([H])c2c(c1[H])C([H])([H])C([H])([H])C([H])([H])C2([H])N([H])C(=O)C1([H])N(C(=O)C([H])(N([H])C(=O)C([H])(N([H])C([H])([H])[H])C([H])([H])[H])C(C([H])([H])[H])(C([H])([H])[H])C([H])([H])[H])C([H])([H])c2c([H])c(OC([H])([H])C(=O)N([H])S(=O)(=O)c3c([H])c([H])c(N([H])C(=O)N4C([H])([H])C([H])([H])C([H])([H])C([H])(n5nc(-c6c([H])c([H])c(Oc7c([H])c([H])c(F)c([H])c7F)c([H])c6[H])c(C(=O)N([H])[H])c5N([H])[H])C4([H])[H])c([H])c3[H])c([H])c([H])c2C1([H])[H]

$$$$
32:0:0
     RDKit          3D

 99108  0  0  1  0  0  0  0  0999 V2000
  -27.5950  -21.5440   18.8780 C   0  0  0  0  0  3  0  0  0  0  0  0
  -29.2990  -23.3210   19.0820 C   0  0  0  0  0  2  0  0  0  0  0  0
  -26.6500  -22.5940   19.4250 C   0  0  0  0  0  3  0  0  0  0  0  0
  -26.7730  -23.9530   18.6960 C   0  0  0  0  0  3  0  0  0  0  0  0
  -28.1890  -24.5880   18.5660 C   0  0  0  0  0  3  0  0  0  0  0  0
  -26.7440  -22.6820   20.9550 C   0  0  0  0  0  1  0  0  0  0  0  0
  -26.1170  -23.7840   17.3060 C   0  0  0  0  0  1  0  0  0  0  0  0
  -27.5330  -19.4300   17.4130 C   0  0  0  0  0  1  0  0  0  0  0  0
  -28.9430  -21.7250   18.9590 N   0  0  0  0  0  0  0  0  0  0  0  0
  -26.9820  -20.4970   18.2670 N   0  0  0  0  0  0  0  0  0  0  0  0
  -25.9700  -20.4910   18.3040 H   0  0  0  0  0  0  0  0  0  0  0  0
  -30.7500  -18.0560   18.3550 C   0  0  0  0  0  3  0  0  0  0  0  0
  -30.2740  -19.4400   18.1550 C   0  0  0  0  0  3  0  0  0  0  0  0
  -30.3450  -18.1860   20.6320 C   0  0  0  0  0  3  0  0  0  0  0  0
  -30.8060  -17.2910   19.5960 C   0  0  0  0  0  0  0  0  0  0  0  0
  -29.7730  -20.3250   19.1830 C   0  0  0  0  0  0  0  0  0  0  0  0
  -29.8840  -19.5850   20.4500 C   0  0  0  0  0  0  0  0  0  0  0  0
  -31.4130  -15.7460   19.6830 C   0  0  0  0  0  0  0  0  0  0  0  0
  -31.3100  -13.2690   19.0330 C   0  0  0  0  0  2  0  0  0  0  0  0
  -30.3780  -13.0120   17.8250 C   0  0  0  0  0  2  0  0  0  0  0  0
  -28.9340  -12.7780   18.3030 C   0  0  0  0  0  2  0  0  0  0  0  0
  -28.4970  -13.8100   19.3750 C   0  0  0  0  0  3  0  0  0  0  0  0
  -29.5650  -14.0540   20.4600 C   0  0  0  0  0  2  0  0  0  0  0  0
  -30.7990  -14.4750   19.7790 N   0  0  0  0  0  0  0  0  0  0  0  0
  -32.6200  -15.6690   19.4260 O   0  0  0  0  0  0  0  0  0  0  0  0
  -26.1600  -14.3720   20.2290 C   0  0  0  0  0  0  0  0  0  0  0  0
  -25.1130  -13.5980   20.6400 C   0  0  0  0  0  0  0  0  0  0  0  0
  -25.5730  -12.2460   20.5880 C   0  0  0  0  0  0  0  0  0  0  0  0
  -27.1900  -13.4960   19.9400 N   0  0  0  0  0  0  0  0  0  0  0  0
  -26.8520  -12.2090   20.2250 N   0  0  0  0  0  0  0  0  0  0  0  0
  -24.8490  -10.9850   20.8060 C   0  0  0  0  0  0  0  0  0  0  0  0
  -25.1540  -10.1310   21.8890 C   0  0  0  0  0  3  0  0  0  0  0  0
  -24.4280   -8.9370   22.0880 C   0  0  0  0  0  3  0  0  0  0  0  0
  -23.3800   -8.5880   21.2030 C   0  0  0  0  0  0  0  0  0  0  0  0
  -23.0960   -9.4290   20.1120 C   0  0  0  0  0  3  0  0  0  0  0  0
  -23.8240  -10.6130   19.9130 C   0  0  0  0  0  3  0  0  0  0  0  0
  -22.6360   -7.4360   21.3030 O   0  0  0  0  0  0  0  0  0  0  0  0
  -22.1600   -6.9900   22.5090 C   0  0  0  0  0  0  0  0  0  0  0  0
  -21.3530   -7.7990   23.3380 C   0  0  0  0  0  3  0  0  0  0  0  0
  -20.8260   -7.2760   24.5350 C   0  0  0  0  0  3  0  0  0  0  0  0
  -21.0980   -5.9440   24.9030 C   0  0  0  0  0  0  0  0  0  0  0  0
  -21.8970   -5.1350   24.0770 C   0  0  0  0  0  3  0  0  0  0  0  0
  -22.4240   -5.6560   22.8820 C   0  0  0  0  0  0  0  0  0  0  0  0
  -23.1770   -4.8640   22.0780 F   0  0  0  0  0  0  0  0  0  0  0  0
  -20.5870   -5.4400   26.0500 F   0  0  0  0  0  0  0  0  0  0  0  0
  -23.7290  -14.0790   20.9640 C   0  0  0  0  0  0  0  0  0  0  0  0
  -23.0380  -13.3940   21.8690 N   0  0  0  0  0  0  0  0  0  0  0  0
  -23.2710  -15.0980   20.4480 O   0  0  0  0  0  0  0  0  0  0  0  0
  -23.4240  -12.5690   22.3030 H   0  0  0  0  0  0  0  0  0  0  0  0
  -22.1120  -13.6980   22.1310 H   0  0  0  0  0  0  0  0  0  0  0  0
  -26.3200  -15.7420   20.0430 N   0  0  0  0  0  0  0  0  0  0  0  0
  -25.5430  -16.3860   20.1420 H   0  0  0  0  0  0  0  0  0  0  0  0
  -27.1310  -16.1580   19.6060 H   0  0  0  0  0  0  0  0  0  0  0  0
  -30.1010  -21.3250   22.1260 C   0  0  0  0  0  0  0  0  0  0  0  0
  -29.7920  -21.6990   23.5720 C   0  0  0  0  0  1  0  0  0  0  0  0
  -29.5090  -20.2210   21.6540 N   0  0  0  0  0  0  0  0  0  0  0  0
  -30.8310  -22.0470   21.4440 O   0  0  0  0  0  0  0  0  0  0  0  0
  -28.9880  -19.6700   22.3240 H   0  0  0  0  0  0  0  0  0  0  0  0
  -28.2110  -26.2420   18.6340 O   0  0  0  0  0  0  0  0  0  0  0  0
  -24.6620  -31.2820   22.9270 C   0  0  0  0  0  0  0  0  0  0  0  0
  -27.1410  -27.2620   18.8140 C   0  0  0  0  0  0  0  0  0  0  0  0
  -23.3770  -30.1100   21.1840 C   0  0  0  0  0  3  0  0  0  0  0  0
  -24.7520  -28.9320   19.3550 C   0  0  0  0  0  0  0  0  0  0  0  0
  -25.8960  -30.5460   20.8390 C   0  0  0  0  0  2  0  0  0  0  0  0
  -25.9730  -29.2920   19.9360 C   0  0  0  0  0  0  0  0  0  0  0  0
  -27.1540  -28.4690   19.6640 C   0  0  0  0  0  3  0  0  0  0  0  0
  -25.8930  -27.1330   18.1600 C   0  0  0  0  0  3  0  0  0  0  0  0
  -24.7310  -27.8740   18.4510 C   0  0  0  0  0  3  0  0  0  0  0  0
  -23.4930  -29.7220   19.6890 C   0  0  0  0  0  2  0  0  0  0  0  0
  -24.6700  -30.6660   21.7030 N   0  0  0  0  0  0  0  0  0  0  0  0
  -23.6210  -31.3830   23.5970 O   0  0  0  0  0  0  0  0  0  0  0  0
  -22.8620  -28.8980   22.0000 C   0  0  0  0  0  0  0  0  0  0  0  0
  -21.5530  -28.5970   21.9060 N   0  0  0  0  0  0  0  0  0  0  0  0
  -23.6410  -28.2340   22.6890 O   0  0  0  0  0  0  0  0  0  0  0  0
  -20.9710  -29.1890   21.3300 H   0  0  0  0  0  0  0  0  0  0  0  0
  -18.3740  -26.8900   22.2800 C   0  0  0  0  0  0  0  0  0  0  0  0
  -20.8820  -27.4680   22.5560 C   0  0  0  0  0  3  0  0  0  0  0  0
  -21.1600  -26.1470   21.8020 C   0  0  0  0  0  2  0  0  0  0  0  0
  -20.0860  -25.8070   20.7640 C   0  0  0  0  0  2  0  0  0  0  0  0
  -18.7140  -25.6760   21.4320 C   0  0  0  0  0  2  0  0  0  0  0  0
  -19.3910  -27.7390   22.7940 C   0  0  0  0  0  0  0  0  0  0  0  0
  -19.0170  -28.8710   23.5500 C   0  0  0  0  0  3  0  0  0  0  0  0
  -17.6600  -29.1580   23.7960 C   0  0  0  0  0  3  0  0  0  0  0  0
  -16.6590  -28.3070   23.2960 C   0  0  0  0  0  3  0  0  0  0  0  0
  -17.0180  -27.1740   22.5450 C   0  0  0  0  0  3  0  0  0  0  0  0
  -25.9550  -31.8990   23.5350 C   0  0  0  0  0  3  0  0  0  0  0  0
  -25.6280  -33.2490   24.0230 N   0  0  0  0  0  0  0  0  0  0  0  0
  -25.9070  -34.3880   23.3730 C   0  0  0  0  0  0  0  0  0  0  0  0
  -26.5360  -34.4120   22.3120 O   0  0  0  0  0  0  0  0  0  0  0  0
  -25.0750  -33.3030   24.8670 H   0  0  0  0  0  0  0  0  0  0  0  0
  -24.1460  -36.1820   23.2640 C   0  0  0  0  0  1  0  0  0  0  0  0
  -25.4110  -35.7090   23.9970 C   0  0  0  0  0  3  0  0  0  0  0  0
  -27.5500  -36.5300   24.8810 C   0  0  0  0  0  1  0  0  0  0  0  0
  -26.4270  -36.7850   23.9830 N   0  0  0  0  0  0  0  0  0  0  0  0
  -26.0100  -37.6760   24.2420 H   0  0  0  0  0  0  0  0  0  0  0  0
  -26.5630  -31.0290   24.7060 C   0  0  1  0  0  0  0  0  0  0  0  0
  -25.5410  -30.6760   25.8110 C   0  0  0  0  0  1  0  0  0  0  0  0
  -27.1440  -29.7000   24.1700 C   0  0  0  0  0  1  0  0  0  0  0  0
  -27.7390  -31.7860   25.3670 C   0  0  0  0  0  1  0  0  0  0  0  0
  1 10  1  0
  1  9  1  0
  1  3  1  0
  3  6  1  0
  4  7  1  0
  4  3  1  0
  5 59  1  0
  5  4  1  0
  5  2  1  0
  8 10  1  0
  9  2  1  0
  9 16  1  0
 10 11  1  0
 12 15  1  0
 13 12  2  0
 13 16  1  0
 15 18  1  0
 15 14  2  0
 16 17  2  0
 17 14  1  0
 17 56  1  0
 18 24  1  0
 19 24  1  0
 20 21  1  0
 20 19  1  0
 22 21  1  0
 22 29  1  0
 22 23  1  0
 24 23  1  0
 25 18  2  0
 26 27  2  0
 27 46  1  0
 28 27  1  0
 28 31  1  0
 29 30  1  0
 29 26  1  0
 30 28  2  0
 31 32  1  0
 32 33  2  0
 34 37  1  0
 34 33  1  0
 35 34  2  0
 36 35  1  0
 36 31  2  0
 37 38  1  0
 38 43  2  0
 38 39  1  0
 39 40  2  0
 40 41  1  0
 41 45  1  0
 42 41  2  0
 43 42  1  0
 44 43  1  0
 46 47  1  0
 47 50  1  0
 47 49  1  0
 48 46  2  0
 51 52  1  0
 51 26  1  0
 53 51  1  0
 54 55  1  0
 56 54  1  0
 56 58  1  0
 57 54  2  0
 59 61  1  0
 60 71  2  0
 61 66  1  0
 62 70  1  0
 62 72  1  0
 63 69  1  0
 63 65  1  0
 64 70  1  0
 65 64  1  0
 66 65  2  0
 67 68  1  0
 67 61  2  0
 68 63  2  0
 69 62  1  0
 70 60  1  0
 72 74  2  0
 73 72  1  0
 75 73  1  0
 76 85  2  0
 76 81  1  0
 77 73  1  0
 77 81  1  0
 78 77  1  0
 79 80  1  0
 79 78  1  0
 80 76  1  0
 81 82  2  0
 82 83  1  0
 84 83  2  0
 85 84  1  0
 86 60  1  0
 86 87  1  0
 86 96  1  0
 87 90  1  0
 88 92  1  0
 88 87  1  0
 89 88  2  0
 92 91  1  0
 94 92  1  0
 94 95  1  0
 94 93  1  0
 96 99  1  1
 96 97  1  0
 98 96  1  0
M  ISO  4   5 101  15 100  18 100  59 101
M  END
>  <TORSDO>  (33) 
F 18

>  <SCORE>  (33) 
-11.923

>  <name>  (33) 
32

>  <ligand_id>  (33) 
32

>  <original_smiles>  (33) 
[H]c1c([H])c([H])c2c(c1[H])C([H])([H])C([H])([H])C([H])([H])C2([H])N([H])C(=O)C1([H])N(C(=O)C([H])(N([H])C(=O)C([H])(N([H])C([H])([H])[H])C([H])([H])[H])C(C([H])([H])[H])(C([H])([H])[H])C([H])([H])[H])C([H])([H])c2c([H])c(OC3([H])C([H])([H])N(c4c([H])c([H])c(C(=O)N5C([H])([H])C([H])([H])C([H])([H])C([H])(n6nc(-c7c([H])c([H])c(Oc8c([H])c([H])c(F)c([H])c8F)c([H])c7[H])c(C(=O)N([H])[H])c6N([H])[H])C5([H])[H])c([H])c4N([H])C(=O)C([H])([H])[H])C(=[N+]([H])C([H])([H])[H])C([H])(C([H])([H])[H])C3([H])C([H])([H])[H])c([H])c([H])c2C1([H])[H]

>  <smiles>  (33) 
[H]c1c([H])c([H])c2c(c1[H])C([H])([H])C([H])([H])C([H])([H])C2([H])N([H])C(=O)C1([H])N(C(=O)C([H])(N([H])C(=O)C([H])(N([H])C([H])([H])[H])C([H])([H])[H])C(C([H])([H])[H])(C([H])([H])[H])C([H])([H])[H])C([H])([H])c2c([H])c(OC3([H])C([H])([H])N(c4c([H])c([H])c(C(=O)N5C([H])([H])C([H])([H])C([H])([H])C([H])(n6nc(-c7c([H])c([H])c(Oc8c([H])c([H])c(F)c([H])c8F)c([H])c7[H])c(C(=O)N([H])[H])c6N([H])[H])C5([H])[H])c([H])c4N([H])C(=O)C([H])([H])[H])C(=[N+]([H])C([H])([H])[H])C([H])(C([H])([H])[H])C3([H])C([H])([H])[H])c([H])c([H])c2C1([H])[H]

$$$$
33:0:0
     RDKit          3D

 93101  0  0  1  0  0  0  0  0999 V2000
  -28.7240  -22.0950   19.9910 C   0  0  0  0  0  0  0  0  0  0  0  0
  -29.5200  -20.9630   20.2080 N   0  0  0  0  0  0  0  0  0  0  0  0
  -27.6790  -21.9910   19.3470 O   0  0  0  0  0  0  0  0  0  0  0  0
  -30.4590  -21.1480   20.5350 H   0  0  0  0  0  0  0  0  0  0  0  0
  -27.7800  -19.2110   20.0170 C   0  0  0  0  0  3  0  0  0  0  0  0
  -28.1580  -16.8080   20.1890 C   0  0  0  0  0  3  0  0  0  0  0  0
  -27.2830  -17.9000   20.0490 C   0  0  0  0  0  0  0  0  0  0  0  0
  -29.1570  -19.5070   20.1370 C   0  0  0  0  0  0  0  0  0  0  0  0
  -29.5540  -16.9600   20.3110 C   0  0  0  0  0  0  0  0  0  0  0  0
  -30.0490  -18.3430   20.2990 C   0  0  0  0  0  0  0  0  0  0  0  0
  -25.7850  -17.6800   19.9750 C   0  0  0  0  0  1  0  0  0  0  0  0
  -31.3710  -18.5630   20.4960 F   0  0  0  0  0  0  0  0  0  0  0  0
  -30.7950  -14.6110   19.9770 C   0  0  0  0  0  0  0  0  0  0  0  0
  -30.5770  -12.2510   19.1380 C   0  0  0  0  0  2  0  0  0  0  0  0
  -29.6120  -12.2270   17.9300 C   0  0  0  0  0  2  0  0  0  0  0  0
  -28.1480  -12.1080   18.3960 C   0  0  0  0  0  2  0  0  0  0  0  0
  -27.8110  -13.1000   19.5390 C   0  0  0  0  0  3  0  0  0  0  0  0
  -28.8860  -13.0640   20.6520 C   0  0  0  0  0  2  0  0  0  0  0  0
  -30.1880  -13.3690   20.0340 N   0  0  0  0  0  0  0  0  0  0  0  0
  -31.8770  -14.7420   19.3990 O   0  0  0  0  0  0  0  0  0  0  0  0
  -30.1860  -15.6510   20.6520 N   0  0  0  0  0  0  0  0  0  0  0  0
  -29.6220  -15.2010   21.3550 H   0  0  0  0  0  0  0  0  0  0  0  0
  -25.4690  -13.8120   20.3160 C   0  0  0  0  0  0  0  0  0  0  0  0
  -24.3810  -13.0990   20.7380 C   0  0  0  0  0  0  0  0  0  0  0  0
  -24.7750  -11.7260   20.7010 C   0  0  0  0  0  0  0  0  0  0  0  0
  -26.4650  -12.8830   20.0650 N   0  0  0  0  0  0  0  0  0  0  0  0
  -26.0530  -11.6210   20.3510 N   0  0  0  0  0  0  0  0  0  0  0  0
  -23.9890  -10.5050   20.9220 C   0  0  0  0  0  0  0  0  0  0  0  0
  -24.4080   -9.5140   21.8360 C   0  0  0  0  0  3  0  0  0  0  0  0
  -23.6240   -8.3570   22.0430 C   0  0  0  0  0  3  0  0  0  0  0  0
  -22.4110   -8.1860   21.3370 C   0  0  0  0  0  0  0  0  0  0  0  0
  -22.0100   -9.1670   20.4120 C   0  0  0  0  0  3  0  0  0  0  0  0
  -22.7940  -10.3140   20.2020 C   0  0  0  0  0  3  0  0  0  0  0  0
  -21.5990   -7.0850   21.4560 O   0  0  0  0  0  0  0  0  0  0  0  0
  -21.5580   -6.3410   22.6070 C   0  0  0  0  0  0  0  0  0  0  0  0
  -21.2370   -6.9170   23.8560 C   0  0  0  0  0  3  0  0  0  0  0  0
  -21.1400   -6.1050   25.0020 C   0  0  0  0  0  3  0  0  0  0  0  0
  -21.3540   -4.7170   24.9030 C   0  0  0  0  0  0  0  0  0  0  0  0
  -21.6680   -4.1400   23.6600 C   0  0  0  0  0  3  0  0  0  0  0  0
  -21.7680   -4.9500   22.5140 C   0  0  0  0  0  0  0  0  0  0  0  0
  -22.0510   -4.3860   21.3160 F   0  0  0  0  0  0  0  0  0  0  0  0
  -21.2520   -3.9340   26.0020 F   0  0  0  0  0  0  0  0  0  0  0  0
  -23.0220  -13.6530   21.0570 C   0  0  0  0  0  0  0  0  0  0  0  0
  -22.2940  -13.0080   21.9600 N   0  0  0  0  0  0  0  0  0  0  0  0
  -22.6180  -14.6940   20.5400 O   0  0  0  0  0  0  0  0  0  0  0  0
  -22.6330  -12.1650   22.4010 H   0  0  0  0  0  0  0  0  0  0  0  0
  -21.3830  -13.3620   22.2170 H   0  0  0  0  0  0  0  0  0  0  0  0
  -25.6790  -15.1660   20.0980 N   0  0  0  0  0  0  0  0  0  0  0  0
  -24.9290  -15.8390   20.1960 H   0  0  0  0  0  0  0  0  0  0  0  0
  -26.5160  -15.5600   19.6890 H   0  0  0  0  0  0  0  0  0  0  0  0
  -29.0890  -23.5890   20.4700 C   0  0  0  0  0  3  0  0  0  0  0  0
  -28.0610  -24.8050   20.1070 C   0  0  0  0  0  3  0  0  0  0  0  0
  -28.2860  -26.2720   20.4050 O   0  0  0  0  0  0  0  0  0  0  0  0
  -24.5790  -31.8550   23.2500 C   0  0  0  0  0  0  0  0  0  0  0  0
  -27.1930  -27.1760   20.3130 C   0  0  0  0  0  0  0  0  0  0  0  0
  -23.3840  -30.4300   21.6300 C   0  0  0  0  0  3  0  0  0  0  0  0
  -24.8400  -28.8400   20.2460 C   0  0  0  0  0  0  0  0  0  0  0  0
  -25.9310  -30.7180   21.4660 C   0  0  0  0  0  2  0  0  0  0  0  0
  -26.0110  -29.3220   20.8450 C   0  0  0  0  0  0  0  0  0  0  0  0
  -27.1880  -28.5030   20.8670 C   0  0  0  0  0  3  0  0  0  0  0  0
  -25.9950  -26.7680   19.6780 C   0  0  0  0  0  3  0  0  0  0  0  0
  -24.8380  -27.5710   19.6510 C   0  0  0  0  0  3  0  0  0  0  0  0
  -23.6090  -29.7260   20.2660 C   0  0  0  0  0  2  0  0  0  0  0  0
  -24.6510  -31.0200   22.1710 N   0  0  0  0  0  0  0  0  0  0  0  0
  -23.4910  -32.1500   23.7690 O   0  0  0  0  0  0  0  0  0  0  0  0
  -22.7040  -29.4370   22.6050 C   0  0  0  0  0  0  0  0  0  0  0  0
  -21.3770  -29.2700   22.4740 N   0  0  0  0  0  0  0  0  0  0  0  0
  -23.3710  -28.8210   23.4410 O   0  0  0  0  0  0  0  0  0  0  0  0
  -20.8970  -29.8180   21.7750 H   0  0  0  0  0  0  0  0  0  0  0  0
  -17.9870  -28.1020   22.9750 C   0  0  0  0  0  0  0  0  0  0  0  0
  -20.5460  -28.3530   23.2570 C   0  0  0  0  0  3  0  0  0  0  0  0
  -20.6410  -26.9090   22.7120 C   0  0  0  0  0  2  0  0  0  0  0  0
  -19.5450  -26.5720   21.6960 C   0  0  0  0  0  2  0  0  0  0  0  0
  -18.1590  -26.7390   22.3270 C   0  0  0  0  0  2  0  0  0  0  0  0
  -19.1080  -28.8670   23.3980 C   0  0  0  0  0  0  0  0  0  0  0  0
  -18.8920  -30.1410   23.9640 C   0  0  0  0  0  3  0  0  0  0  0  0
  -17.5900  -30.6530   24.1120 C   0  0  0  0  0  3  0  0  0  0  0  0
  -16.4830  -29.8870   23.7050 C   0  0  0  0  0  3  0  0  0  0  0  0
  -16.6830  -28.6140   23.1430 C   0  0  0  0  0  3  0  0  0  0  0  0
  -25.8570  -32.4960   23.8730 C   0  0  0  0  0  3  0  0  0  0  0  0
  -26.3650  -31.7410   25.1620 C   0  0  1  0  0  0  0  0  0  0  0  0
  -25.2650  -31.5190   26.2270 C   0  0  0  0  0  1  0  0  0  0  0  0
  -26.9490  -30.3590   24.7950 C   0  0  0  0  0  1  0  0  0  0  0  0
  -27.5120  -32.5430   25.8210 C   0  0  0  0  0  1  0  0  0  0  0  0
  -25.5460  -33.8980   24.1840 N   0  0  0  0  0  0  0  0  0  0  0  0
  -25.8780  -34.9430   23.4140 C   0  0  0  0  0  0  0  0  0  0  0  0
  -26.5480  -34.8280   22.3840 O   0  0  0  0  0  0  0  0  0  0  0  0
  -24.9500  -34.0630   24.9830 H   0  0  0  0  0  0  0  0  0  0  0  0
  -24.1470  -36.7310   23.0440 C   0  0  0  0  0  1  0  0  0  0  0  0
  -25.3910  -36.3380   23.8560 C   0  0  0  0  0  3  0  0  0  0  0  0
  -27.5320  -37.2330   24.6630 C   0  0  0  0  0  1  0  0  0  0  0  0
  -26.4240  -37.3900   23.7240 N   0  0  0  0  0  0  0  0  0  0  0  0
  -26.0180  -38.3120   23.8630 H   0  0  0  0  0  0  0  0  0  0  0  0
  1  2  1  0
  1 51  1  0
  2  4  1  0
  3  1  2  0
  5  7  2  0
  5  8  1  0
  6  9  2  0
  7  6  1  0
  8  2  1  0
  8 10  2  0
  9 21  1  0
 10  9  1  0
 10 12  1  0
 11  7  1  0
 13 19  1  0
 13 21  1  0
 14 19  1  0
 15 16  1  0
 15 14  1  0
 17 16  1  0
 17 26  1  0
 17 18  1  0
 19 18  1  0
 20 13  2  0
 21 22  1  0
 23 24  2  0
 24 43  1  0
 25 24  1  0
 25 28  1  0
 26 23  1  0
 26 27  1  0
 27 25  2  0
 28 29  1  0
 29 30  2  0
 31 34  1  0
 31 30  1  0
 32 31  2  0
 33 32  1  0
 33 28  2  0
 34 35  1  0
 35 36  1  0
 36 37  2  0
 38 37  1  0
 38 42  1  0
 39 38  2  0
 40 35  2  0
 40 39  1  0
 41 40  1  0
 43 44  1  0
 44 47  1  0
 44 46  1  0
 45 43  2  0
 48 49  1  0
 48 23  1  0
 50 48  1  0
 52 53  1  0
 52 51  2  0
 54 65  2  0
 55 53  1  0
 55 60  1  0
 56 64  1  0
 56 66  1  0
 57 63  1  0
 57 59  1  0
 58 64  1  0
 59 60  2  0
 59 58  1  0
 61 55  2  0
 62 61  1  0
 62 57  2  0
 63 56  1  0
 64 54  1  0
 66 68  2  0
 67 66  1  0
 69 67  1  0
 70 79  2  0
 70 75  1  0
 71 67  1  0
 71 75  1  0
 72 71  1  0
 73 74  1  0
 73 72  1  0
 74 70  1  0
 75 76  2  0
 76 77  1  0
 78 77  2  0
 79 78  1  0
 80 54  1  0
 80 85  1  0
 80 81  1  0
 81 84  1  1
 81 82  1  0
 83 81  1  0
 85 88  1  0
 86 90  1  0
 86 85  1  0
 87 86  2  0
 90 89  1  0
 92 90  1  0
 92 93  1  0
 92 91  1  0
M  ISO  4  13 100  21 100  52 101  53 101
M  END
>  <TORSDO>  (34) 
F 19

>  <SCORE>  (34) 
-14.372

>  <name>  (34) 
33

>  <ligand_id>  (34) 
33

>  <original_smiles>  (34) 
[H]c1c([H])c([H])c2c(c1[H])C([H])([H])C([H])([H])C([H])([H])C2([H])N([H])C(=O)C1([H])N(C(=O)C([H])(N([H])C(=O)C([H])(N([H])C([H])([H])[H])C([H])([H])[H])C(C([H])([H])[H])(C([H])([H])[H])C([H])([H])[H])C([H])([H])c2c([H])c(OC([H])([H])C([H])([H])C(=O)N([H])c3c([H])c(C([H])([H])[H])c([H])c(N([H])C(=O)N4C([H])([H])C([H])([H])C([H])([H])C([H])(n5nc(-c6c([H])c([H])c(Oc7c([H])c([H])c(F)c([H])c7F)c([H])c6[H])c(C(=O)N([H])[H])c5N([H])[H])C4([H])[H])c3F)c([H])c([H])c2C1([H])[H]

>  <smiles>  (34) 
[H]c1c([H])c([H])c2c(c1[H])C([H])([H])C([H])([H])C([H])([H])C2([H])N([H])C(=O)C1([H])N(C(=O)C([H])(N([H])C(=O)C([H])(N([H])C([H])([H])[H])C([H])([H])[H])C(C([H])([H])[H])(C([H])([H])[H])C([H])([H])[H])C([H])([H])c2c([H])c(OC([H])([H])C([H])([H])C(=O)N([H])c3c([H])c(C([H])([H])[H])c([H])c(N([H])C(=O)N4C([H])([H])C([H])([H])C([H])([H])C([H])(n5nc(-c6c([H])c([H])c(Oc7c([H])c([H])c(F)c([H])c7F)c([H])c6[H])c(C(=O)N([H])[H])c5N([H])[H])C4([H])[H])c3F)c([H])c([H])c2C1([H])[H]

$$$$
34:0:0
     RDKit          3D

 96104  0  0  1  0  0  0  0  0999 V2000
  -29.9870  -19.2850   19.6240 C   0  0  0  0  0  3  0  0  0  0  0  0
  -30.0610  -20.4950   21.7210 C   0  0  0  0  0  3  0  0  0  0  0  0
  -30.5420  -18.0430   21.6540 C   0  0  0  0  0  0  0  0  0  0  0  0
  -29.7770  -20.6050   20.3540 C   0  0  0  0  0  0  0  0  0  0  0  0
  -30.3850  -17.9390   20.2220 C   0  0  0  0  0  0  0  0  0  0  0  0
  -30.4480  -19.2940   22.3350 C   0  0  0  0  0  0  0  0  0  0  0  0
  -30.7320  -19.3810   23.6570 F   0  0  0  0  0  0  0  0  0  0  0  0
  -31.1430  -15.2330   19.5540 C   0  0  0  0  0  0  0  0  0  0  0  0
  -30.8860  -12.8890   18.5130 C   0  0  0  0  0  2  0  0  0  0  0  0
  -29.8130  -12.8430   17.3950 C   0  0  0  0  0  2  0  0  0  0  0  0
  -28.3880  -12.6930   17.9720 C   0  0  0  0  0  2  0  0  0  0  0  0
  -28.1520  -13.6100   19.1990 C   0  0  0  0  0  3  0  0  0  0  0  0
  -29.3220  -13.4940   20.1930 C   0  0  0  0  0  2  0  0  0  0  0  0
  -30.5100  -13.9760   19.4710 N   0  0  0  0  0  0  0  0  0  0  0  0
  -32.3480  -15.2260   19.2670 O   0  0  0  0  0  0  0  0  0  0  0  0
  -30.3700  -16.4700   19.6140 N   0  0  0  0  0  0  0  0  0  0  0  0
  -29.4110  -16.1840   19.4920 H   0  0  0  0  0  0  0  0  0  0  0  0
  -25.9100  -14.3360   20.1930 C   0  0  0  0  0  0  0  0  0  0  0  0
  -24.8280  -13.6290   20.6380 C   0  0  0  0  0  0  0  0  0  0  0  0
  -25.1800  -12.2490   20.5150 C   0  0  0  0  0  0  0  0  0  0  0  0
  -26.8540  -13.3920   19.8220 N   0  0  0  0  0  0  0  0  0  0  0  0
  -26.4290  -12.1280   20.0800 N   0  0  0  0  0  0  0  0  0  0  0  0
  -24.3750  -11.0400   20.7290 C   0  0  0  0  0  0  0  0  0  0  0  0
  -24.7860  -10.0310   21.6260 C   0  0  0  0  0  3  0  0  0  0  0  0
  -23.9850   -8.8870   21.8310 C   0  0  0  0  0  3  0  0  0  0  0  0
  -22.7590   -8.7450   21.1380 C   0  0  0  0  0  0  0  0  0  0  0  0
  -22.3670   -9.7440   20.2290 C   0  0  0  0  0  3  0  0  0  0  0  0
  -23.1670  -10.8780   20.0210 C   0  0  0  0  0  3  0  0  0  0  0  0
  -21.9280   -7.6580   21.2540 O   0  0  0  0  0  0  0  0  0  0  0  0
  -21.8340   -6.9470   22.4240 C   0  0  0  0  0  0  0  0  0  0  0  0
  -21.4690   -7.5610   23.6410 C   0  0  0  0  0  3  0  0  0  0  0  0
  -21.3150   -6.7800   24.8050 C   0  0  0  0  0  3  0  0  0  0  0  0
  -21.5180   -5.3880   24.7510 C   0  0  0  0  0  0  0  0  0  0  0  0
  -21.8770   -4.7750   23.5380 C   0  0  0  0  0  3  0  0  0  0  0  0
  -22.0320   -5.5530   22.3780 C   0  0  0  0  0  0  0  0  0  0  0  0
  -22.3580   -4.9530   21.2070 F   0  0  0  0  0  0  0  0  0  0  0  0
  -21.3630   -4.6360   25.8670 F   0  0  0  0  0  0  0  0  0  0  0  0
  -23.5050  -14.2000   21.0590 C   0  0  0  0  0  0  0  0  0  0  0  0
  -22.8210  -13.5410   21.9860 N   0  0  0  0  0  0  0  0  0  0  0  0
  -23.0940  -15.2640   20.6000 O   0  0  0  0  0  0  0  0  0  0  0  0
  -23.1670  -12.6750   22.3760 H   0  0  0  0  0  0  0  0  0  0  0  0
  -21.9380  -13.9050   22.3120 H   0  0  0  0  0  0  0  0  0  0  0  0
  -26.1550  -15.6980   20.0470 N   0  0  0  0  0  0  0  0  0  0  0  0
  -25.4550  -16.3930   20.2810 H   0  0  0  0  0  0  0  0  0  0  0  0
  -27.0100  -16.1030   19.6970 H   0  0  0  0  0  0  0  0  0  0  0  0
  -32.1030  -16.1440   22.4010 C   0  0  0  0  0  1  0  0  0  0  0  0
  -30.7260  -16.8040   22.5460 C   0  0  2  0  0  0  0  0  0  0  0  0
  -29.7350  -15.9620   22.2910 F   0  0  0  0  0  0  0  0  0  0  0  0
  -30.5960  -17.0600   23.8480 F   0  0  0  0  0  0  0  0  0  0  0  0
  -28.5250  -23.0940   20.2710 C   0  0  0  0  0  0  0  0  0  0  0  0
  -29.5220  -22.0960   19.9340 N   0  0  0  0  0  0  0  0  0  0  0  0
  -27.3480  -22.7250   20.2560 O   0  0  0  0  0  0  0  0  0  0  0  0
  -30.3810  -22.5500   19.6490 H   0  0  0  0  0  0  0  0  0  0  0  0
  -28.1620  -24.8920   22.1490 C   0  0  0  0  0  1  0  0  0  0  0  0
  -28.7660  -24.7100   20.7470 C   0  0  0  0  0  3  0  0  0  0  0  0
  -28.4710  -26.0650   19.9650 O   0  0  0  0  0  0  0  0  0  0  0  0
  -24.6320  -31.6900   23.0980 C   0  0  0  0  0  0  0  0  0  0  0  0
  -27.3630  -27.0080   20.0780 C   0  0  0  0  0  0  0  0  0  0  0  0
  -23.4850  -30.2680   21.4450 C   0  0  0  0  0  3  0  0  0  0  0  0
  -24.9880  -28.7250   20.0330 C   0  0  0  0  0  0  0  0  0  0  0  0
  -26.0350  -30.5920   21.2990 C   0  0  0  0  0  2  0  0  0  0  0  0
  -26.1540  -29.1950   20.6500 C   0  0  0  0  0  0  0  0  0  0  0  0
  -27.3440  -28.3570   20.6460 C   0  0  0  0  0  3  0  0  0  0  0  0
  -26.1620  -26.6480   19.4350 C   0  0  0  0  0  3  0  0  0  0  0  0
  -25.0070  -27.4660   19.4090 C   0  0  0  0  0  3  0  0  0  0  0  0
  -23.7390  -29.5970   20.0680 C   0  0  0  0  0  2  0  0  0  0  0  0
  -24.7370  -30.8740   22.0030 N   0  0  0  0  0  0  0  0  0  0  0  0
  -23.5340  -31.9420   23.6200 O   0  0  0  0  0  0  0  0  0  0  0  0
  -22.8250  -29.2420   22.4010 C   0  0  0  0  0  0  0  0  0  0  0  0
  -21.5030  -29.0350   22.2660 N   0  0  0  0  0  0  0  0  0  0  0  0
  -23.5080  -28.6300   23.2260 O   0  0  0  0  0  0  0  0  0  0  0  0
  -21.0060  -29.5810   21.5760 H   0  0  0  0  0  0  0  0  0  0  0  0
  -18.1570  -27.7170   22.7310 C   0  0  0  0  0  0  0  0  0  0  0  0
  -20.7030  -28.0680   23.0260 C   0  0  0  0  0  3  0  0  0  0  0  0
  -20.8600  -26.6410   22.4530 C   0  0  0  0  0  2  0  0  0  0  0  0
  -19.7820  -26.2810   21.4250 C   0  0  0  0  0  2  0  0  0  0  0  0
  -18.3880  -26.3760   22.0540 C   0  0  0  0  0  2  0  0  0  0  0  0
  -19.2430  -28.5180   23.1720 C   0  0  0  0  0  0  0  0  0  0  0  0
  -18.9720  -29.7700   23.7660 C   0  0  0  0  0  3  0  0  0  0  0  0
  -17.6480  -30.2200   23.9240 C   0  0  0  0  0  3  0  0  0  0  0  0
  -16.5760  -29.4170   23.4960 C   0  0  0  0  0  3  0  0  0  0  0  0
  -16.8320  -28.1680   22.9040 C   0  0  0  0  0  3  0  0  0  0  0  0
  -25.8860  -32.3610   23.7380 C   0  0  0  0  0  3  0  0  0  0  0  0
  -26.4260  -31.5840   25.0010 C   0  0  1  0  0  0  0  0  0  0  0  0
  -25.3410  -31.2900   26.0630 C   0  0  0  0  0  1  0  0  0  0  0  0
  -27.0570  -30.2330   24.5900 C   0  0  0  0  0  1  0  0  0  0  0  0
  -27.5470  -32.4060   25.6790 C   0  0  0  0  0  1  0  0  0  0  0  0
  -25.5190  -33.7390   24.1040 N   0  0  0  0  0  0  0  0  0  0  0  0
  -25.8270  -34.8290   23.3890 C   0  0  0  0  0  0  0  0  0  0  0  0
  -26.5120  -34.7820   22.3650 O   0  0  0  0  0  0  0  0  0  0  0  0
  -24.9080  -33.8460   24.9010 H   0  0  0  0  0  0  0  0  0  0  0  0
  -24.0450  -36.5810   23.0810 C   0  0  0  0  0  1  0  0  0  0  0  0
  -25.2910  -36.1870   23.8880 C   0  0  0  0  0  3  0  0  0  0  0  0
  -27.3910  -37.1140   24.7640 C   0  0  0  0  0  1  0  0  0  0  0  0
  -26.2890  -37.2750   23.8180 N   0  0  0  0  0  0  0  0  0  0  0  0
  -25.8520  -38.1760   23.9930 H   0  0  0  0  0  0  0  0  0  0  0  0
  1  5  2  0
  1  4  1  0
  2  6  1  0
  3  6  2  0
  3 47  1  0
  4  2  2  0
  5  3  1  0
  6  7  1  0
  8 16  1  0
  9 14  1  0
 10 11  1  0
 10  9  1  0
 12 11  1  0
 12 21  1  0
 12 13  1  0
 14  8  1  0
 14 13  1  0
 15  8  2  0
 16  5  1  0
 17 16  1  0
 18 19  2  0
 19 38  1  0
 20 19  1  0
 20 23  1  0
 21 22  1  0
 21 18  1  0
 22 20  2  0
 23 24  1  0
 24 25  2  0
 26 29  1  0
 26 25  1  0
 27 26  2  0
 28 27  1  0
 28 23  2  0
 29 30  1  0
 30 31  1  0
 31 32  2  0
 33 32  1  0
 33 37  1  0
 34 33  2  0
 35 30  2  0
 35 34  1  0
 36 35  1  0
 38 39  1  0
 39 42  1  0
 39 41  1  0
 40 38  2  0
 43 18  1  0
 43 44  1  0
 45 43  1  0
 47 46  1  1
 47 49  1  0
 48 47  1  0
 50 55  1  0
 51 50  1  0
 51  4  1  0
 52 50  2  0
 53 51  1  0
 55 54  1  0
 56 58  1  0
 56 55  1  0
 57 68  2  0
 58 63  1  0
 59 67  1  0
 59 69  1  0
 60 66  1  0
 60 62  1  0
 61 67  1  0
 62 61  1  0
 63 62  2  0
 64 58  2  0
 65 64  1  0
 65 60  2  0
 66 59  1  0
 67 57  1  0
 69 71  2  0
 70 69  1  0
 72 70  1  0
 73 82  2  0
 73 78  1  0
 74 70  1  0
 74 78  1  0
 75 74  1  0
 76 77  1  0
 76 75  1  0
 77 73  1  0
 78 79  2  0
 79 80  1  0
 81 80  2  0
 82 81  1  0
 83 57  1  0
 83 88  1  0
 83 84  1  0
 84 87  1  1
 84 85  1  0
 86 84  1  0
 88 91  1  0
 89 93  1  0
 89 88  1  0
 90 89  2  0
 93 92  1  0
 95 93  1  0
 95 96  1  0
 95 94  1  0
M  ISO  4   8 100  16 100  55 101  56 101
M  END
>  <TORSDO>  (35) 
F 19

>  <SCORE>  (35) 
-10.208

>  <name>  (35) 
34

>  <ligand_id>  (35) 
34

>  <original_smiles>  (35) 
[H]c1c([H])c([H])c2c(c1[H])C([H])([H])C([H])([H])C([H])([H])C2([H])N([H])C(=O)C1([H])N(C(=O)C([H])(N([H])C(=O)C([H])(N([H])C([H])([H])[H])C([H])([H])[H])C(C([H])([H])[H])(C([H])([H])[H])C([H])([H])[H])C([H])([H])c2c([H])c(OC([H])(C(=O)N([H])c3c([H])c(F)c(C(F)(F)C([H])([H])[H])c(N([H])C(=O)N4C([H])([H])C([H])([H])C([H])([H])C([H])(n5nc(-c6c([H])c([H])c(Oc7c([H])c([H])c(F)c([H])c7F)c([H])c6[H])c(C(=O)N([H])[H])c5N([H])[H])C4([H])[H])c3[H])C([H])([H])[H])c([H])c([H])c2C1([H])[H]

>  <smiles>  (35) 
[H]c1c([H])c([H])c2c(c1[H])C([H])([H])C([H])([H])C([H])([H])C2([H])N([H])C(=O)C1([H])N(C(=O)C([H])(N([H])C(=O)C([H])(N([H])C([H])([H])[H])C([H])([H])[H])C(C([H])([H])[H])(C([H])([H])[H])C([H])([H])[H])C([H])([H])c2c([H])c(OC([H])(C(=O)N([H])c3c([H])c(F)c(C(F)(F)C([H])([H])[H])c(N([H])C(=O)N4C([H])([H])C([H])([H])C([H])([H])C([H])(n5nc(-c6c([H])c([H])c(Oc7c([H])c([H])c(F)c([H])c7F)c([H])c6[H])c(C(=O)N([H])[H])c5N([H])[H])C4([H])[H])c3[H])C([H])([H])[H])c([H])c([H])c2C1([H])[H]

$$$$
35:0:0
     RDKit          3D

 95103  0  0  1  0  0  0  0  0999 V2000
  -29.8730  -19.6280   19.9740 C   0  0  0  0  0  3  0  0  0  0  0  0
  -29.9680  -21.1810   21.8270 C   0  0  0  0  0  3  0  0  0  0  0  0
  -30.4670  -18.5660   20.7430 C   0  0  0  0  0  0  0  0  0  0  0  0
  -30.5380  -20.1570   22.6250 C   0  0  0  0  0  0  0  0  0  0  0  0
  -30.8470  -18.8760   22.0820 C   0  0  0  0  0  0  0  0  0  0  0  0
  -29.6420  -20.9560   20.4730 C   0  0  0  0  0  0  0  0  0  0  0  0
  -30.8670  -20.4870   24.0750 C   0  0  0  0  0  1  0  0  0  0  0  0
  -31.6690  -17.9000   22.9300 C   0  0  0  0  0  1  0  0  0  0  0  0
  -31.1300  -14.8220   20.2370 C   0  0  0  0  0  0  0  0  0  0  0  0
  -30.7630  -12.5650   19.2880 C   0  0  0  0  0  2  0  0  0  0  0  0
  -29.8490  -12.7060   18.0540 C   0  0  0  0  0  2  0  0  0  0  0  0
  -28.3730  -12.6110   18.4810 C   0  0  0  0  0  2  0  0  0  0  0  0
  -28.0390  -13.5140   19.6980 C   0  0  0  0  0  3  0  0  0  0  0  0
  -29.0920  -13.4020   20.8240 C   0  0  0  0  0  2  0  0  0  0  0  0
  -30.4120  -13.6500   20.2330 N   0  0  0  0  0  0  0  0  0  0  0  0
  -32.3050  -14.8070   19.8620 O   0  0  0  0  0  0  0  0  0  0  0  0
  -30.8810  -17.2510   20.0470 C   0  0  0  0  0  0  0  0  0  0  0  0
  -30.4860  -16.0100   20.4960 N   0  0  0  0  0  0  0  0  0  0  0  0
  -31.5800  -17.3860   19.0330 O   0  0  0  0  0  0  0  0  0  0  0  0
  -29.6590  -15.9770   21.0670 H   0  0  0  0  0  0  0  0  0  0  0  0
  -25.6680  -14.1800   20.4260 C   0  0  0  0  0  0  0  0  0  0  0  0
  -24.5770  -13.4360   20.7870 C   0  0  0  0  0  0  0  0  0  0  0  0
  -24.9970  -12.0720   20.7450 C   0  0  0  0  0  0  0  0  0  0  0  0
  -26.6840  -13.2690   20.1850 N   0  0  0  0  0  0  0  0  0  0  0  0
  -26.2860  -11.9960   20.4400 N   0  0  0  0  0  0  0  0  0  0  0  0
  -24.2290  -10.8310   20.9260 C   0  0  0  0  0  0  0  0  0  0  0  0
  -24.6190   -9.8480   21.8630 C   0  0  0  0  0  3  0  0  0  0  0  0
  -23.8500   -8.6760   22.0310 C   0  0  0  0  0  3  0  0  0  0  0  0
  -22.6790   -8.4780   21.2610 C   0  0  0  0  0  0  0  0  0  0  0  0
  -22.3100   -9.4500   20.3140 C   0  0  0  0  0  3  0  0  0  0  0  0
  -23.0780  -10.6130   20.1440 C   0  0  0  0  0  3  0  0  0  0  0  0
  -21.8870   -7.3580   21.3390 O   0  0  0  0  0  0  0  0  0  0  0  0
  -21.7860   -6.6250   22.4950 C   0  0  0  0  0  0  0  0  0  0  0  0
  -21.3420   -7.2030   23.7050 C   0  0  0  0  0  3  0  0  0  0  0  0
  -21.1850   -6.4000   24.8530 C   0  0  0  0  0  3  0  0  0  0  0  0
  -21.4630   -5.0220   24.7910 C   0  0  0  0  0  0  0  0  0  0  0  0
  -21.8980   -4.4430   23.5870 C   0  0  0  0  0  3  0  0  0  0  0  0
  -22.0570   -5.2430   22.4420 C   0  0  0  0  0  0  0  0  0  0  0  0
  -22.4570   -4.6780   21.2760 F   0  0  0  0  0  0  0  0  0  0  0  0
  -21.3040   -4.2480   25.8900 F   0  0  0  0  0  0  0  0  0  0  0  0
  -23.1980  -13.9580   21.0630 C   0  0  0  0  0  0  0  0  0  0  0  0
  -22.4540  -13.2890   21.9380 N   0  0  0  0  0  0  0  0  0  0  0  0
  -22.7890  -14.9950   20.5430 O   0  0  0  0  0  0  0  0  0  0  0  0
  -22.7980  -12.4500   22.3820 H   0  0  0  0  0  0  0  0  0  0  0  0
  -21.5310  -13.6270   22.1760 H   0  0  0  0  0  0  0  0  0  0  0  0
  -25.8720  -15.5460   20.2580 N   0  0  0  0  0  0  0  0  0  0  0  0
  -25.1220  -16.2200   20.3690 H   0  0  0  0  0  0  0  0  0  0  0  0
  -26.7330  -15.9620   19.9280 H   0  0  0  0  0  0  0  0  0  0  0  0
  -28.8060  -23.3120   19.5090 C   0  0  0  0  0  0  0  0  0  0  0  0
  -29.1910  -21.9870   19.5380 N   0  0  0  0  0  0  0  0  0  0  0  0
  -28.8140  -23.8640   18.4090 O   0  0  0  0  0  0  0  0  0  0  0  0
  -29.2780  -21.6700   18.5840 H   0  0  0  0  0  0  0  0  0  0  0  0
  -28.3870  -24.0360   20.7190 C   0  0  0  0  0  3  0  0  0  0  0  0
  -28.1580  -25.3890   20.8640 C   0  0  0  0  0  3  0  0  0  0  0  0
  -28.2540  -26.4660   19.9710 O   0  0  0  0  0  0  0  0  0  0  0  0
  -24.5510  -31.7690   23.1470 C   0  0  0  0  0  0  0  0  0  0  0  0
  -27.1640  -27.3360   19.9560 C   0  0  0  0  0  0  0  0  0  0  0  0
  -23.3380  -30.4000   21.4850 C   0  0  0  0  0  3  0  0  0  0  0  0
  -24.7850  -28.9020   20.0040 C   0  0  0  0  0  0  0  0  0  0  0  0
  -25.8670  -30.7570   21.2740 C   0  0  0  0  0  2  0  0  0  0  0  0
  -25.9550  -29.3960   20.5970 C   0  0  0  0  0  0  0  0  0  0  0  0
  -27.1530  -28.6240   20.5650 C   0  0  0  0  0  3  0  0  0  0  0  0
  -25.9800  -26.8860   19.3400 C   0  0  0  0  0  3  0  0  0  0  0  0
  -24.7970  -27.6490   19.3660 C   0  0  0  0  0  3  0  0  0  0  0  0
  -23.5390  -29.7580   20.0880 C   0  0  0  0  0  2  0  0  0  0  0  0
  -24.6050  -30.9910   22.0260 N   0  0  0  0  0  0  0  0  0  0  0  0
  -23.4720  -32.0220   23.7020 O   0  0  0  0  0  0  0  0  0  0  0  0
  -22.6950  -29.3550   22.4280 C   0  0  0  0  0  0  0  0  0  0  0  0
  -21.3730  -29.1540   22.2970 N   0  0  0  0  0  0  0  0  0  0  0  0
  -23.3840  -28.7310   23.2400 O   0  0  0  0  0  0  0  0  0  0  0  0
  -20.8740  -29.7140   21.6190 H   0  0  0  0  0  0  0  0  0  0  0  0
  -18.0300  -27.8400   22.7230 C   0  0  0  0  0  0  0  0  0  0  0  0
  -20.5700  -28.1890   23.0510 C   0  0  0  0  0  3  0  0  0  0  0  0
  -20.7350  -26.7610   22.4800 C   0  0  0  0  0  2  0  0  0  0  0  0
  -19.6670  -26.3980   21.4430 C   0  0  0  0  0  2  0  0  0  0  0  0
  -18.2680  -26.4960   22.0550 C   0  0  0  0  0  2  0  0  0  0  0  0
  -19.1100  -28.6400   23.1770 C   0  0  0  0  0  0  0  0  0  0  0  0
  -18.8320  -29.8960   23.7610 C   0  0  0  0  0  3  0  0  0  0  0  0
  -17.5060  -30.3490   23.8960 C   0  0  0  0  0  3  0  0  0  0  0  0
  -16.4410  -29.5460   23.4570 C   0  0  0  0  0  3  0  0  0  0  0  0
  -16.7020  -28.2930   22.8770 C   0  0  0  0  0  3  0  0  0  0  0  0
  -25.8370  -32.3940   23.7710 C   0  0  0  0  0  3  0  0  0  0  0  0
  -26.3670  -31.6010   25.0280 C   0  0  1  0  0  0  0  0  0  0  0  0
  -25.2830  -31.3480   26.1040 C   0  0  0  0  0  1  0  0  0  0  0  0
  -26.9430  -30.2300   24.6060 C   0  0  0  0  0  1  0  0  0  0  0  0
  -27.5270  -32.3830   25.6900 C   0  0  0  0  0  1  0  0  0  0  0  0
  -25.5280  -33.7840   24.1270 N   0  0  0  0  0  0  0  0  0  0  0  0
  -25.8570  -34.8520   23.3870 C   0  0  0  0  0  0  0  0  0  0  0  0
  -26.5220  -34.7690   22.3500 O   0  0  0  0  0  0  0  0  0  0  0  0
  -24.9380  -33.9240   24.9340 H   0  0  0  0  0  0  0  0  0  0  0  0
  -24.1280  -36.6510   23.0740 C   0  0  0  0  0  1  0  0  0  0  0  0
  -25.3720  -36.2310   23.8720 C   0  0  0  0  0  3  0  0  0  0  0  0
  -27.5100  -37.1020   24.7090 C   0  0  0  0  0  1  0  0  0  0  0  0
  -26.4040  -37.2860   23.7730 N   0  0  0  0  0  0  0  0  0  0  0  0
  -25.9980  -38.2030   23.9420 H   0  0  0  0  0  0  0  0  0  0  0  0
  1  6  2  0
  1  3  1  0
  2  4  2  0
  3  5  2  0
  4  7  1  0
  5  4  1  0
  5  8  1  0
  6  2  1  0
  9 18  1  0
 10 15  1  0
 11 12  1  0
 11 10  1  0
 13 12  1  0
 13 24  1  0
 13 14  1  0
 15  9  1  0
 15 14  1  0
 16  9  2  0
 17 18  1  0
 17  3  1  0
 18 20  1  0
 19 17  2  0
 21 22  2  0
 22 41  1  0
 23 22  1  0
 23 26  1  0
 24 21  1  0
 24 25  1  0
 25 23  2  0
 26 27  1  0
 27 28  2  0
 29 32  1  0
 29 28  1  0
 30 29  2  0
 31 30  1  0
 31 26  2  0
 32 33  1  0
 33 34  1  0
 34 35  2  0
 36 35  1  0
 36 40  1  0
 37 36  2  0
 38 33  2  0
 38 37  1  0
 39 38  1  0
 41 42  1  0
 42 45  1  0
 42 44  1  0
 43 41  2  0
 46 47  1  0
 46 21  1  0
 48 46  1  0
 49 50  1  0
 49 53  1  0
 50  6  1  0
 51 49  2  0
 52 50  1  0
 53 54  2  0
 55 54  1  0
 56 67  2  0
 57 55  1  0
 57 62  1  0
 58 66  1  0
 58 68  1  0
 59 65  1  0
 59 61  1  0
 60 66  1  0
 61 60  1  0
 62 61  2  0
 63 64  1  0
 63 57  2  0
 64 59  2  0
 65 58  1  0
 66 56  1  0
 68 70  2  0
 69 68  1  0
 71 69  1  0
 72 81  2  0
 72 77  1  0
 73 69  1  0
 73 77  1  0
 74 73  1  0
 75 76  1  0
 75 74  1  0
 76 72  1  0
 77 78  2  0
 78 79  1  0
 80 79  2  0
 81 80  1  0
 82 56  1  0
 82 87  1  0
 82 83  1  0
 83 86  1  1
 83 84  1  0
 85 83  1  0
 87 90  1  0
 88 92  1  0
 88 87  1  0
 89 88  2  0
 92 91  1  0
 94 92  1  0
 94 95  1  0
 94 93  1  0
M  ISO  4   9 100  18 100  54 101  55 101
M  END
>  <TORSDO>  (36) 
F 18

>  <SCORE>  (36) 
-13.581

>  <name>  (36) 
35

>  <ligand_id>  (36) 
35

>  <original_smiles>  (36) 
[H]C(Oc1c([H])c([H])c2c(c1[H])C([H])([H])N(C(=O)C([H])(N([H])C(=O)C([H])(N([H])C([H])([H])[H])C([H])([H])[H])C(C([H])([H])[H])(C([H])([H])[H])C([H])([H])[H])C([H])(C(=O)N([H])C1([H])c3c([H])c([H])c([H])c([H])c3C([H])([H])C([H])([H])C1([H])[H])C2([H])[H])=C([H])C(=O)N([H])c1c([H])c(C(=O)N([H])C(=O)N2C([H])([H])C([H])([H])C([H])([H])C([H])(n3nc(-c4c([H])c([H])c(Oc5c([H])c([H])c(F)c([H])c5F)c([H])c4[H])c(C(=O)N([H])[H])c3N([H])[H])C2([H])[H])c(C([H])([H])[H])c(C([H])([H])[H])c1[H]

>  <smiles>  (36) 
[H]C(Oc1c([H])c([H])c2c(c1[H])C([H])([H])N(C(=O)C([H])(N([H])C(=O)C([H])(N([H])C([H])([H])[H])C([H])([H])[H])C(C([H])([H])[H])(C([H])([H])[H])C([H])([H])[H])C([H])(C(=O)N([H])C1([H])c3c([H])c([H])c([H])c([H])c3C([H])([H])C([H])([H])C1([H])[H])C2([H])[H])=C([H])C(=O)N([H])c1c([H])c(C(=O)N([H])C(=O)N2C([H])([H])C([H])([H])C([H])([H])C([H])(n3nc(-c4c([H])c([H])c(Oc5c([H])c([H])c(F)c([H])c5F)c([H])c4[H])c(C(=O)N([H])[H])c3N([H])[H])C2([H])[H])c(C([H])([H])[H])c(C([H])([H])[H])c1[H]

$$$$
36:0:0
     RDKit          3D

 93101  0  0  1  0  0  0  0  0999 V2000
  -28.5240  -22.2020   20.3640 C   0  0  0  0  0  0  0  0  0  0  0  0
  -29.4060  -21.1280   20.4330 N   0  0  0  0  0  0  0  0  0  0  0  0
  -27.3130  -21.9840   20.2810 O   0  0  0  0  0  0  0  0  0  0  0  0
  -30.3410  -21.3830   20.7240 H   0  0  0  0  0  0  0  0  0  0  0  0
  -28.7990  -18.1670   18.0970 C   0  0  0  0  0  3  0  0  0  0  0  0
  -29.1570  -17.0440   18.8580 C   0  0  0  0  0  3  0  0  0  0  0  0
  -29.6400  -18.5300   20.7240 C   0  0  0  0  0  3  0  0  0  0  0  0
  -28.8630  -19.4790   18.6120 C   0  0  0  0  0  0  0  0  0  0  0  0
  -29.6040  -17.1720   20.1860 C   0  0  0  0  0  0  0  0  0  0  0  0
  -29.2630  -19.7200   19.9600 C   0  0  0  0  0  0  0  0  0  0  0  0
  -28.5370  -20.6030   17.6380 C   0  0  0  0  0  1  0  0  0  0  0  0
  -30.5960  -14.8080   20.4880 C   0  0  0  0  0  0  0  0  0  0  0  0
  -30.4320  -12.5350   19.4650 C   0  0  0  0  0  2  0  0  0  0  0  0
  -29.5260  -12.6310   18.2180 C   0  0  0  0  0  2  0  0  0  0  0  0
  -28.0470  -12.4530   18.6120 C   0  0  0  0  0  2  0  0  0  0  0  0
  -27.6460  -13.3230   19.8300 C   0  0  0  0  0  3  0  0  0  0  0  0
  -28.6760  -13.2120   20.9780 C   0  0  0  0  0  2  0  0  0  0  0  0
  -29.9910  -13.5710   20.4310 N   0  0  0  0  0  0  0  0  0  0  0  0
  -31.7500  -14.9500   20.0710 O   0  0  0  0  0  0  0  0  0  0  0  0
  -29.8570  -15.9030   20.9090 N   0  0  0  0  0  0  0  0  0  0  0  0
  -29.0960  -15.6370   21.5180 H   0  0  0  0  0  0  0  0  0  0  0  0
  -25.2330  -13.9020   20.4820 C   0  0  0  0  0  0  0  0  0  0  0  0
  -24.1640  -13.1200   20.8300 C   0  0  0  0  0  0  0  0  0  0  0  0
  -24.6390  -11.7740   20.8280 C   0  0  0  0  0  0  0  0  0  0  0  0
  -26.2900  -13.0280   20.2840 N   0  0  0  0  0  0  0  0  0  0  0  0
  -25.9380  -11.7440   20.5510 N   0  0  0  0  0  0  0  0  0  0  0  0
  -23.9200  -10.5070   21.0150 C   0  0  0  0  0  0  0  0  0  0  0  0
  -24.3350   -9.5560   21.9730 C   0  0  0  0  0  3  0  0  0  0  0  0
  -23.6140   -8.3520   22.1470 C   0  0  0  0  0  3  0  0  0  0  0  0
  -22.4660   -8.0940   21.3610 C   0  0  0  0  0  0  0  0  0  0  0  0
  -22.0710   -9.0330   20.3920 C   0  0  0  0  0  3  0  0  0  0  0  0
  -22.7930  -10.2260   20.2180 C   0  0  0  0  0  3  0  0  0  0  0  0
  -21.7200   -6.9430   21.4440 O   0  0  0  0  0  0  0  0  0  0  0  0
  -21.6340   -6.2210   22.6060 C   0  0  0  0  0  0  0  0  0  0  0  0
  -21.1440   -6.7900   23.8010 C   0  0  0  0  0  3  0  0  0  0  0  0
  -21.0100   -5.9930   24.9560 C   0  0  0  0  0  3  0  0  0  0  0  0
  -21.3550   -4.6280   24.9160 C   0  0  0  0  0  0  0  0  0  0  0  0
  -21.8380   -4.0590   23.7250 C   0  0  0  0  0  3  0  0  0  0  0  0
  -21.9750   -4.8540   22.5730 C   0  0  0  0  0  0  0  0  0  0  0  0
  -22.4220   -4.2960   21.4210 F   0  0  0  0  0  0  0  0  0  0  0  0
  -21.2170   -3.8600   26.0230 F   0  0  0  0  0  0  0  0  0  0  0  0
  -22.7560  -13.5870   21.0610 C   0  0  0  0  0  0  0  0  0  0  0  0
  -22.0110  -12.8880   21.9100 N   0  0  0  0  0  0  0  0  0  0  0  0
  -22.3250  -14.6070   20.5260 O   0  0  0  0  0  0  0  0  0  0  0  0
  -22.3750  -12.0630   22.3640 H   0  0  0  0  0  0  0  0  0  0  0  0
  -21.0660  -13.1810   22.1110 H   0  0  0  0  0  0  0  0  0  0  0  0
  -25.3920  -15.2700   20.2960 N   0  0  0  0  0  0  0  0  0  0  0  0
  -24.6210  -15.9210   20.3840 H   0  0  0  0  0  0  0  0  0  0  0  0
  -26.2490  -15.7130   19.9890 H   0  0  0  0  0  0  0  0  0  0  0  0
  -29.0080  -23.7370   20.4160 C   0  0  0  0  0  2  0  0  0  0  0  0
  -27.2590  -24.8980   21.9190 C   0  0  0  0  0  1  0  0  0  0  0  0
  -27.9170  -24.9440   20.5230 C   0  0  0  0  0  3  0  0  0  0  0  0
  -28.2620  -26.4050   20.2800 O   0  0  0  0  0  0  0  0  0  0  0  0
  -24.5850  -31.9290   23.2450 C   0  0  0  0  0  0  0  0  0  0  0  0
  -27.1980  -27.3410   20.1830 C   0  0  0  0  0  0  0  0  0  0  0  0
  -23.3930  -30.5410   21.5920 C   0  0  0  0  0  3  0  0  0  0  0  0
  -24.8510  -29.0020   20.1570 C   0  0  0  0  0  0  0  0  0  0  0  0
  -25.9400  -30.8440   21.4310 C   0  0  0  0  0  2  0  0  0  0  0  0
  -26.0210  -29.4680   20.7710 C   0  0  0  0  0  0  0  0  0  0  0  0
  -27.1990  -28.6510   20.7720 C   0  0  0  0  0  3  0  0  0  0  0  0
  -26.0110  -26.9620   19.5130 C   0  0  0  0  0  3  0  0  0  0  0  0
  -24.8520  -27.7580   19.5150 C   0  0  0  0  0  3  0  0  0  0  0  0
  -23.6170  -29.8800   20.2080 C   0  0  0  0  0  2  0  0  0  0  0  0
  -24.6590  -31.1230   22.1450 N   0  0  0  0  0  0  0  0  0  0  0  0
  -23.4960  -32.2030   23.7720 O   0  0  0  0  0  0  0  0  0  0  0  0
  -22.7240  -29.5160   22.5400 C   0  0  0  0  0  0  0  0  0  0  0  0
  -21.3970  -29.3420   22.4050 N   0  0  0  0  0  0  0  0  0  0  0  0
  -23.3970  -28.8830   23.3580 O   0  0  0  0  0  0  0  0  0  0  0  0
  -20.9140  -29.9070   21.7210 H   0  0  0  0  0  0  0  0  0  0  0  0
  -18.0150  -28.1430   22.8850 C   0  0  0  0  0  0  0  0  0  0  0  0
  -20.5730  -28.4000   23.1640 C   0  0  0  0  0  3  0  0  0  0  0  0
  -20.6740  -26.9700   22.5820 C   0  0  0  0  0  2  0  0  0  0  0  0
  -19.5750  -26.6560   21.5620 C   0  0  0  0  0  2  0  0  0  0  0  0
  -18.1920  -26.7980   22.2010 C   0  0  0  0  0  2  0  0  0  0  0  0
  -19.1340  -28.9020   23.3230 C   0  0  0  0  0  0  0  0  0  0  0  0
  -18.9140  -30.1600   23.9240 C   0  0  0  0  0  3  0  0  0  0  0  0
  -17.6080  -30.6610   24.0900 C   0  0  0  0  0  3  0  0  0  0  0  0
  -16.5050  -29.9020   23.6640 C   0  0  0  0  0  3  0  0  0  0  0  0
  -16.7090  -28.6440   23.0690 C   0  0  0  0  0  3  0  0  0  0  0  0
  -25.8610  -32.5600   23.8800 C   0  0  0  0  0  3  0  0  0  0  0  0
  -26.3510  -31.7950   25.1710 C   0  0  1  0  0  0  0  0  0  0  0  0
  -25.2410  -31.5730   26.2230 C   0  0  0  0  0  1  0  0  0  0  0  0
  -26.9330  -30.4120   24.7990 C   0  0  0  0  0  1  0  0  0  0  0  0
  -27.4930  -32.5920   25.8460 C   0  0  0  0  0  1  0  0  0  0  0  0
  -25.5490  -33.9620   24.1960 N   0  0  0  0  0  0  0  0  0  0  0  0
  -25.8970  -35.0100   23.4380 C   0  0  0  0  0  0  0  0  0  0  0  0
  -26.5810  -34.8980   22.4180 O   0  0  0  0  0  0  0  0  0  0  0  0
  -24.9420  -34.1220   24.9870 H   0  0  0  0  0  0  0  0  0  0  0  0
  -24.1890  -36.8180   23.0420 C   0  0  0  0  0  1  0  0  0  0  0  0
  -25.4090  -36.4050   23.8820 C   0  0  0  0  0  3  0  0  0  0  0  0
  -27.5310  -37.2780   24.7590 C   0  0  0  0  0  1  0  0  0  0  0  0
  -26.4510  -37.4510   23.7890 N   0  0  0  0  0  0  0  0  0  0  0  0
  -26.0500  -38.3760   23.9220 H   0  0  0  0  0  0  0  0  0  0  0  0
  1 50  1  0
  1  2  1  0
  2  4  1  0
  3  1  2  0
  5  8  2  0
  5  6  1  0
  6  9  2  0
  8 10  1  0
  9  7  1  0
  9 20  1  0
 10  2  1  0
 10  7  2  0
 11  8  1  0
 12 20  1  0
 13 18  1  0
 14 15  1  0
 14 13  1  0
 16 15  1  0
 16 25  1  0
 16 17  1  0
 18 12  1  0
 18 17  1  0
 19 12  2  0
 20 21  1  0
 22 23  2  0
 23 42  1  0
 24 23  1  0
 24 27  1  0
 25 22  1  0
 25 26  1  0
 26 24  2  0
 27 28  1  0
 28 29  2  0
 30 33  1  0
 30 29  1  0
 31 30  2  0
 32 31  1  0
 32 27  2  0
 33 34  1  0
 34 35  1  0
 35 36  2  0
 37 36  1  0
 37 41  1  0
 38 37  2  0
 39 34  2  0
 39 38  1  0
 40 39  1  0
 42 43  1  0
 43 46  1  0
 43 45  1  0
 44 42  2  0
 47 48  1  0
 47 22  1  0
 49 47  1  0
 50 52  1  0
 52 51  1  0
 53 52  1  0
 54 65  2  0
 55 53  1  0
 55 60  1  0
 56 64  1  0
 56 66  1  0
 57 63  1  0
 57 59  1  0
 58 64  1  0
 59 60  2  0
 59 58  1  0
 61 62  1  0
 61 55  2  0
 62 57  2  0
 63 56  1  0
 64 54  1  0
 66 68  2  0
 67 66  1  0
 69 67  1  0
 70 79  2  0
 70 75  1  0
 71 67  1  0
 71 75  1  0
 72 71  1  0
 73 74  1  0
 73 72  1  0
 74 70  1  0
 75 76  2  0
 76 77  1  0
 78 77  2  0
 79 78  1  0
 80 54  1  0
 80 85  1  0
 80 81  1  0
 81 84  1  1
 81 82  1  0
 83 81  1  0
 85 88  1  0
 86 90  1  0
 86 85  1  0
 87 86  2  0
 90 89  1  0
 92 90  1  0
 92 93  1  0
 92 91  1  0
M  ISO  4  12 100  20 100  52 101  53 101
M  END
>  <TORSDO>  (37) 
F 19

>  <SCORE>  (37) 
-14.442

>  <name>  (37) 
36

>  <ligand_id>  (37) 
36

>  <original_smiles>  (37) 
[H]c1c([H])c([H])c2c(c1[H])C([H])([H])C([H])([H])C([H])([H])C2([H])N([H])C(=O)C1([H])N(C(=O)C([H])(N([H])C(=O)C([H])(N([H])C([H])([H])[H])C([H])([H])[H])C(C([H])([H])[H])(C([H])([H])[H])C([H])([H])[H])C([H])([H])c2c([H])c(OC([H])(C([H])([H])[H])C([H])([H])C(=O)N([H])c3c([H])c(N([H])C(=O)N4C([H])([H])C([H])([H])C([H])([H])C([H])(n5nc(-c6c([H])c([H])c(Oc7c([H])c([H])c(F)c([H])c7F)c([H])c6[H])c(C(=O)N([H])[H])c5N([H])[H])C4([H])[H])c([H])c([H])c3C([H])([H])[H])c([H])c([H])c2C1([H])[H]

>  <smiles>  (37) 
[H]c1c([H])c([H])c2c(c1[H])C([H])([H])C([H])([H])C([H])([H])C2([H])N([H])C(=O)C1([H])N(C(=O)C([H])(N([H])C(=O)C([H])(N([H])C([H])([H])[H])C([H])([H])[H])C(C([H])([H])[H])(C([H])([H])[H])C([H])([H])[H])C([H])([H])c2c([H])c(OC([H])(C([H])([H])[H])C([H])([H])C(=O)N([H])c3c([H])c(N([H])C(=O)N4C([H])([H])C([H])([H])C([H])([H])C([H])(n5nc(-c6c([H])c([H])c(Oc7c([H])c([H])c(F)c([H])c7F)c([H])c6[H])c(C(=O)N([H])[H])c5N([H])[H])C4([H])[H])c([H])c([H])c3C([H])([H])[H])c([H])c([H])c2C1([H])[H]

$$$$
37:0:0
     RDKit          3D

 99108  0  0  1  0  0  0  0  0999 V2000
  -28.5040  -24.1590   21.1420 C   0  0  0  0  0  0  0  0  0  0  0  0
  -30.4240  -21.9430   22.0800 C   0  0  0  0  0  0  0  0  0  0  0  0
  -28.1950  -25.5040   20.9450 C   0  0  0  0  0  3  0  0  0  0  0  0
  -29.0060  -22.9520   20.2210 C   0  0  0  0  0  2  0  0  0  0  0  0
  -28.3620  -23.6970   22.5800 C   0  0  0  0  0  2  0  0  0  0  0  0
  -29.7040  -21.7440   20.8880 N   0  0  0  0  0  0  0  0  0  0  0  0
  -31.3200  -21.1730   22.4620 O   0  0  0  0  0  0  0  0  0  0  0  0
  -30.9410  -24.4320   22.8330 O   0  0  0  0  0  0  0  0  0  0  0  0
  -29.9630  -22.8210   24.5420 O   0  0  0  0  0  0  0  0  0  0  0  0
  -30.0430  -23.3020   23.1470 S   0  0  2  0  0  0  0  0  0  0  0  0
  -28.7690  -19.4080   21.1320 C   0  0  0  0  0  3  0  0  0  0  0  0
  -28.9090  -17.9920   21.0240 C   0  0  0  0  0  3  0  0  0  0  0  0
  -30.6310  -19.6870   19.6640 C   0  0  0  0  0  3  0  0  0  0  0  0
  -30.7740  -18.2540   19.5210 C   0  0  0  0  0  0  0  0  0  0  0  0
  -29.6480  -20.3150   20.4820 C   0  0  0  0  0  0  0  0  0  0  0  0
  -29.9260  -17.3460   20.2600 C   0  0  0  0  0  0  0  0  0  0  0  0
  -30.7160  -14.8030   19.9380 C   0  0  0  0  0  0  0  0  0  0  0  0
  -30.4950  -12.5420   18.9030 C   0  0  0  0  0  2  0  0  0  0  0  0
  -29.4710  -12.6360   17.7490 C   0  0  0  0  0  2  0  0  0  0  0  0
  -28.0310  -12.4500   18.2700 C   0  0  0  0  0  2  0  0  0  0  0  0
  -27.7370  -13.3090   19.5290 C   0  0  0  0  0  3  0  0  0  0  0  0
  -28.8700  -13.1840   20.5730 C   0  0  0  0  0  2  0  0  0  0  0  0
  -30.1260  -13.5610   19.9070 N   0  0  0  0  0  0  0  0  0  0  0  0
  -31.8710  -14.9470   19.5370 O   0  0  0  0  0  0  0  0  0  0  0  0
  -29.8870  -15.8560   20.2820 N   0  0  0  0  0  0  0  0  0  0  0  0
  -29.0270  -15.4980   20.6670 H   0  0  0  0  0  0  0  0  0  0  0  0
  -25.4030  -13.8810   20.4290 C   0  0  0  0  0  0  0  0  0  0  0  0
  -24.3660  -13.0960   20.8550 C   0  0  0  0  0  0  0  0  0  0  0  0
  -24.8270  -11.7470   20.7630 C   0  0  0  0  0  0  0  0  0  0  0  0
  -26.4280  -13.0090   20.1010 N   0  0  0  0  0  0  0  0  0  0  0  0
  -26.0930  -11.7190   20.3620 N   0  0  0  0  0  0  0  0  0  0  0  0
  -24.1170  -10.4800   20.9730 C   0  0  0  0  0  0  0  0  0  0  0  0
  -24.5440   -9.5450   21.9430 C   0  0  0  0  0  3  0  0  0  0  0  0
  -23.8330   -8.3410   22.1390 C   0  0  0  0  0  3  0  0  0  0  0  0
  -22.6810   -8.0640   21.3660 C   0  0  0  0  0  0  0  0  0  0  0  0
  -22.2730   -8.9870   20.3880 C   0  0  0  0  0  3  0  0  0  0  0  0
  -22.9850  -10.1810   20.1890 C   0  0  0  0  0  3  0  0  0  0  0  0
  -21.9410   -6.9090   21.4710 O   0  0  0  0  0  0  0  0  0  0  0  0
  -21.7840   -6.2620   22.6720 C   0  0  0  0  0  0  0  0  0  0  0  0
  -21.1990   -6.8950   23.7890 C   0  0  0  0  0  3  0  0  0  0  0  0
  -20.9930   -6.1720   24.9810 C   0  0  0  0  0  3  0  0  0  0  0  0
  -21.3610   -4.8160   25.0540 C   0  0  0  0  0  0  0  0  0  0  0  0
  -21.9400   -4.1810   23.9410 C   0  0  0  0  0  3  0  0  0  0  0  0
  -22.1480   -4.9020   22.7510 C   0  0  0  0  0  0  0  0  0  0  0  0
  -22.6860   -4.2810   21.6740 F   0  0  0  0  0  0  0  0  0  0  0  0
  -21.1570   -4.1180   26.1960 F   0  0  0  0  0  0  0  0  0  0  0  0
  -22.9890  -13.5630   21.2320 C   0  0  0  0  0  0  0  0  0  0  0  0
  -22.3210  -12.8470   22.1300 N   0  0  0  0  0  0  0  0  0  0  0  0
  -22.5170  -14.6000   20.7660 O   0  0  0  0  0  0  0  0  0  0  0  0
  -22.7160  -12.0070   22.5280 H   0  0  0  0  0  0  0  0  0  0  0  0
  -21.4010  -13.1430   22.4230 H   0  0  0  0  0  0  0  0  0  0  0  0
  -25.5490  -15.2560   20.2680 N   0  0  0  0  0  0  0  0  0  0  0  0
  -24.7770  -15.8940   20.4290 H   0  0  0  0  0  0  0  0  0  0  0  0
  -26.3470  -15.7070   19.8400 H   0  0  0  0  0  0  0  0  0  0  0  0
  -31.8550  -17.7730   18.5490 C   0  0  1  0  0  0  0  0  0  0  0  0
  -32.9380  -17.3830   19.2190 F   0  0  0  0  0  0  0  0  0  0  0  0
  -31.4070  -16.7840   17.7760 F   0  0  0  0  0  0  0  0  0  0  0  0
  -32.2340  -18.7500   17.7230 F   0  0  0  0  0  0  0  0  0  0  0  0
  -28.1950  -26.4100   19.8720 O   0  0  0  0  0  0  0  0  0  0  0  0
  -24.6140  -31.8390   23.0940 C   0  0  0  0  0  0  0  0  0  0  0  0
  -27.1420  -27.3410   19.8750 C   0  0  0  0  0  0  0  0  0  0  0  0
  -23.3700  -30.4860   21.4430 C   0  0  0  0  0  3  0  0  0  0  0  0
  -24.7890  -28.9660   19.9480 C   0  0  0  0  0  0  0  0  0  0  0  0
  -25.9070  -30.7990   21.2150 C   0  0  0  0  0  2  0  0  0  0  0  0
  -25.9710  -29.4340   20.5360 C   0  0  0  0  0  0  0  0  0  0  0  0
  -27.1550  -28.6320   20.4940 C   0  0  0  0  0  3  0  0  0  0  0  0
  -25.9410  -26.9290   19.2640 C   0  0  0  0  0  3  0  0  0  0  0  0
  -24.7750  -27.7180   19.3030 C   0  0  0  0  0  3  0  0  0  0  0  0
  -23.5550  -29.8440   20.0430 C   0  0  0  0  0  2  0  0  0  0  0  0
  -24.6500  -31.0580   21.9750 N   0  0  0  0  0  0  0  0  0  0  0  0
  -23.5440  -32.1080   23.6590 O   0  0  0  0  0  0  0  0  0  0  0  0
  -22.7210  -29.4510   22.3920 C   0  0  0  0  0  0  0  0  0  0  0  0
  -21.3920  -29.2820   22.2870 N   0  0  0  0  0  0  0  0  0  0  0  0
  -23.4120  -28.8040   23.1820 O   0  0  0  0  0  0  0  0  0  0  0  0
  -20.8930  -29.8580   21.6230 H   0  0  0  0  0  0  0  0  0  0  0  0
  -18.0220  -28.0720   22.8080 C   0  0  0  0  0  0  0  0  0  0  0  0
  -20.5830  -28.3300   23.0510 C   0  0  0  0  0  3  0  0  0  0  0  0
  -20.6790  -26.9090   22.4470 C   0  0  0  0  0  2  0  0  0  0  0  0
  -19.5640  -26.6050   21.4410 C   0  0  0  0  0  2  0  0  0  0  0  0
  -18.1910  -26.7360   22.1050 C   0  0  0  0  0  2  0  0  0  0  0  0
  -19.1460  -28.8280   23.2380 C   0  0  0  0  0  0  0  0  0  0  0  0
  -18.9320  -30.0790   23.8560 C   0  0  0  0  0  3  0  0  0  0  0  0
  -17.6280  -30.5750   24.0470 C   0  0  0  0  0  3  0  0  0  0  0  0
  -16.5200  -29.8160   23.6330 C   0  0  0  0  0  3  0  0  0  0  0  0
  -16.7180  -28.5670   23.0190 C   0  0  0  0  0  3  0  0  0  0  0  0
  -25.9140  -32.4490   23.7040 C   0  0  0  0  0  3  0  0  0  0  0  0
  -26.4600  -31.6350   24.9400 C   0  0  1  0  0  0  0  0  0  0  0  0
  -25.3920  -31.3610   26.0240 C   0  0  0  0  0  1  0  0  0  0  0  0
  -27.0310  -30.2710   24.4880 C   0  0  0  0  0  1  0  0  0  0  0  0
  -27.6260  -32.4050   25.6030 C   0  0  0  0  0  1  0  0  0  0  0  0
  -25.6150  -33.8370   24.0910 N   0  0  0  0  0  0  0  0  0  0  0  0
  -25.9430  -34.9160   23.3690 C   0  0  0  0  0  0  0  0  0  0  0  0
  -26.6010  -34.8490   22.3260 O   0  0  0  0  0  0  0  0  0  0  0  0
  -25.0310  -33.9610   24.9050 H   0  0  0  0  0  0  0  0  0  0  0  0
  -24.2340  -36.7390   23.0910 C   0  0  0  0  0  1  0  0  0  0  0  0
  -25.4690  -36.2890   23.8860 C   0  0  0  0  0  3  0  0  0  0  0  0
  -27.6090  -37.1200   24.7590 C   0  0  0  0  0  1  0  0  0  0  0  0
  -26.5130  -37.3350   23.8180 N   0  0  0  0  0  0  0  0  0  0  0  0
  -26.1150  -38.2520   23.9980 H   0  0  0  0  0  0  0  0  0  0  0  0
  1  5  1  0
  2  7  2  0
  2 10  1  0
  3  1  2  0
  4  6  1  0
  4  1  1  0
 10  5  1  6
  6  2  1  0
  8 10  2  0
 10  9  2  0
 12 11  1  0
 13 15  1  0
 14 13  2  0
 14 16  1  0
 15  6  1  0
 15 11  2  0
 16 25  1  0
 16 12  2  0
 17 25  1  0
 18 23  1  0
 19 20  1  0
 19 18  1  0
 21 20  1  0
 21 30  1  0
 21 22  1  0
 23 17  1  0
 23 22  1  0
 24 17  2  0
 25 26  1  0
 27 28  2  0
 28 47  1  0
 29 28  1  0
 29 32  1  0
 30 31  1  0
 30 27  1  0
 31 29  2  0
 32 33  1  0
 33 34  2  0
 35 38  1  0
 35 34  1  0
 36 35  2  0
 37 36  1  0
 37 32  2  0
 38 39  1  0
 39 44  2  0
 39 40  1  0
 40 41  2  0
 41 42  1  0
 42 46  1  0
 43 42  2  0
 44 43  1  0
 45 44  1  0
 47 48  1  0
 48 51  1  0
 48 50  1  0
 49 47  2  0
 52 27  1  0
 52 53  1  0
 54 52  1  0
 55 56  1  1
 55 14  1  0
 57 55  1  0
 58 55  1  0
 59 61  1  0
 59  3  1  0
 60 71  2  0
 61 66  1  0
 62 70  1  0
 62 72  1  0
 63 69  1  0
 63 65  1  0
 64 70  1  0
 65 64  1  0
 66 65  2  0
 67 68  1  0
 67 61  2  0
 68 63  2  0
 69 62  1  0
 70 60  1  0
 72 74  2  0
 73 72  1  0
 75 73  1  0
 76 85  2  0
 76 81  1  0
 77 73  1  0
 77 81  1  0
 78 77  1  0
 79 80  1  0
 79 78  1  0
 80 76  1  0
 81 82  2  0
 82 83  1  0
 84 83  2  0
 85 84  1  0
 86 60  1  0
 86 91  1  0
 86 87  1  0
 87 90  1  1
 87 88  1  0
 89 87  1  0
 91 94  1  0
 92 96  1  0
 92 91  1  0
 93 92  2  0
 96 95  1  0
 98 96  1  0
 98 99  1  0
 98 97  1  0
M  ISO  4   3 101  17 100  25 100  59 101
M  END
>  <TORSDO>  (38) 
F 18

>  <SCORE>  (38) 
-12.722

>  <name>  (38) 
37

>  <ligand_id>  (38) 
37

>  <original_smiles>  (38) 
[H]C(Oc1c([H])c([H])c2c(c1[H])C([H])([H])N(C(=O)C([H])(N([H])C(=O)C([H])(N([H])C([H])([H])[H])C([H])([H])[H])C(C([H])([H])[H])(C([H])([H])[H])C([H])([H])[H])C([H])(C(=O)N([H])C1([H])c3c([H])c([H])c([H])c([H])c3C([H])([H])C([H])([H])C1([H])[H])C2([H])[H])=C1C([H])([H])N(c2c([H])c([H])c(N([H])C(=O)N3C([H])([H])C([H])([H])C([H])([H])C([H])(n4nc(-c5c([H])c([H])c(Oc6c([H])c([H])c(F)c([H])c6F)c([H])c5[H])c(C(=O)N([H])[H])c4N([H])[H])C3([H])[H])c(C(F)(F)F)c2[H])C(=O)S(=O)(=O)C1([H])[H]

>  <smiles>  (38) 
[H]C(Oc1c([H])c([H])c2c(c1[H])C([H])([H])N(C(=O)C([H])(N([H])C(=O)C([H])(N([H])C([H])([H])[H])C([H])([H])[H])C(C([H])([H])[H])(C([H])([H])[H])C([H])([H])[H])C([H])(C(=O)N([H])C1([H])c3c([H])c([H])c([H])c([H])c3C([H])([H])C([H])([H])C1([H])[H])C2([H])[H])=C1C([H])([H])N(c2c([H])c([H])c(N([H])C(=O)N3C([H])([H])C([H])([H])C([H])([H])C([H])(n4nc(-c5c([H])c([H])c(Oc6c([H])c([H])c(F)c([H])c6F)c([H])c5[H])c(C(=O)N([H])[H])c4N([H])[H])C3([H])[H])c(C(F)(F)F)c2[H])C(=O)S(=O)(=O)C1([H])[H]

$$$$
38:0:0
     RDKit          3D

 92101  0  0  1  0  0  0  0  0999 V2000
  -28.5990  -23.5900   20.3310 C   0  0  0  0  0  0  0  0  0  0  0  0
  -28.0080  -22.2390   20.2860 C   0  0  0  0  0  0  0  0  0  0  0  0
  -27.9410  -24.8440   20.2720 C   0  0  0  0  0  3  0  0  0  0  0  0
  -29.9810  -22.8900   20.4960 C   0  0  0  0  0  2  0  0  0  0  0  0
  -29.2710  -21.5760   20.2760 N   0  0  0  0  0  0  0  0  0  0  0  0
  -26.8490  -21.8910   20.3560 O   0  0  0  0  0  0  0  0  0  0  0  0
  -30.5570  -20.1130   21.8800 C   0  0  0  0  0  3  0  0  0  0  0  0
  -31.0420  -18.8960   22.4110 C   0  0  0  0  0  3  0  0  0  0  0  0
  -29.6140  -18.8750   20.0770 C   0  0  0  0  0  3  0  0  0  0  0  0
  -29.7890  -20.2090   20.6930 C   0  0  0  0  0  0  0  0  0  0  0  0
  -30.1360  -17.5700   20.5610 C   0  0  0  0  0  0  0  0  0  0  0  0
  -30.8350  -17.6510   21.7850 C   0  0  0  0  0  0  0  0  0  0  0  0
  -31.2990  -16.5330   22.3950 F   0  0  0  0  0  0  0  0  0  0  0  0
  -30.7000  -15.0060   20.0480 C   0  0  0  0  0  0  0  0  0  0  0  0
  -30.4910  -12.6650   19.1130 C   0  0  0  0  0  2  0  0  0  0  0  0
  -29.5060  -12.5970   17.9250 C   0  0  0  0  0  2  0  0  0  0  0  0
  -28.0510  -12.4500   18.4160 C   0  0  0  0  0  2  0  0  0  0  0  0
  -27.7020  -13.3770   19.6140 C   0  0  0  0  0  3  0  0  0  0  0  0
  -28.8130  -13.3920   20.6850 C   0  0  0  0  0  2  0  0  0  0  0  0
  -30.0590  -13.7720   20.0070 N   0  0  0  0  0  0  0  0  0  0  0  0
  -31.9140  -15.0250   19.8180 O   0  0  0  0  0  0  0  0  0  0  0  0
  -29.2910  -16.3380   18.5910 C   0  0  0  0  0  1  0  0  0  0  0  0
  -29.9510  -16.2120   19.8980 N   0  0  0  0  0  0  0  0  0  0  0  0
  -25.3700  -13.9680   20.4870 C   0  0  0  0  0  0  0  0  0  0  0  0
  -24.3100  -13.1930   20.8690 C   0  0  0  0  0  0  0  0  0  0  0  0
  -24.7570  -11.8390   20.7830 C   0  0  0  0  0  0  0  0  0  0  0  0
  -26.3890  -13.0840   20.1730 N   0  0  0  0  0  0  0  0  0  0  0  0
  -26.0340  -11.7980   20.4220 N   0  0  0  0  0  0  0  0  0  0  0  0
  -24.0280  -10.5790   20.9710 C   0  0  0  0  0  0  0  0  0  0  0  0
  -24.4740   -9.5930   21.8780 C   0  0  0  0  0  3  0  0  0  0  0  0
  -23.7420   -8.3990   22.0540 C   0  0  0  0  0  3  0  0  0  0  0  0
  -22.5510   -8.1820   21.3210 C   0  0  0  0  0  0  0  0  0  0  0  0
  -22.1250   -9.1570   20.4010 C   0  0  0  0  0  3  0  0  0  0  0  0
  -22.8570  -10.3430   20.2240 C   0  0  0  0  0  3  0  0  0  0  0  0
  -21.7880   -7.0430   21.4090 O   0  0  0  0  0  0  0  0  0  0  0  0
  -21.7430   -6.2960   22.5590 C   0  0  0  0  0  0  0  0  0  0  0  0
  -21.2990   -6.8390   23.7840 C   0  0  0  0  0  3  0  0  0  0  0  0
  -21.2020   -6.0170   24.9250 C   0  0  0  0  0  3  0  0  0  0  0  0
  -21.5370   -4.6530   24.8400 C   0  0  0  0  0  0  0  0  0  0  0  0
  -21.9720   -4.1080   23.6200 C   0  0  0  0  0  3  0  0  0  0  0  0
  -22.0720   -4.9280   22.4820 C   0  0  0  0  0  0  0  0  0  0  0  0
  -22.4740   -4.3940   21.3020 F   0  0  0  0  0  0  0  0  0  0  0  0
  -21.4350   -3.8600   25.9320 F   0  0  0  0  0  0  0  0  0  0  0  0
  -22.9300  -13.6780   21.2090 C   0  0  0  0  0  0  0  0  0  0  0  0
  -22.2320  -12.9670   22.0890 N   0  0  0  0  0  0  0  0  0  0  0  0
  -22.4840  -14.7190   20.7330 O   0  0  0  0  0  0  0  0  0  0  0  0
  -22.6050  -12.1220   22.4970 H   0  0  0  0  0  0  0  0  0  0  0  0
  -21.3080  -13.2750   22.3620 H   0  0  0  0  0  0  0  0  0  0  0  0
  -25.5490  -15.3410   20.3600 N   0  0  0  0  0  0  0  0  0  0  0  0
  -24.8290  -16.0070   20.6170 H   0  0  0  0  0  0  0  0  0  0  0  0
  -26.4390  -15.7780   20.1530 H   0  0  0  0  0  0  0  0  0  0  0  0
  -28.2880  -26.2610   20.2780 O   0  0  0  0  0  0  0  0  0  0  0  0
  -24.6170  -31.9070   23.2310 C   0  0  0  0  0  0  0  0  0  0  0  0
  -27.2470  -27.2540   20.1910 C   0  0  0  0  0  0  0  0  0  0  0  0
  -23.4350  -30.5060   21.5850 C   0  0  0  0  0  3  0  0  0  0  0  0
  -24.9040  -28.9630   20.1520 C   0  0  0  0  0  0  0  0  0  0  0  0
  -25.9870  -30.7980   21.4330 C   0  0  0  0  0  2  0  0  0  0  0  0
  -26.0730  -29.4130   20.7800 C   0  0  0  0  0  0  0  0  0  0  0  0
  -27.2430  -28.5670   20.7990 C   0  0  0  0  0  3  0  0  0  0  0  0
  -26.0680  -26.9300   19.4770 C   0  0  0  0  0  3  0  0  0  0  0  0
  -24.9110  -27.7320   19.4860 C   0  0  0  0  0  3  0  0  0  0  0  0
  -23.6660  -29.8420   20.2020 C   0  0  0  0  0  2  0  0  0  0  0  0
  -24.7000  -31.0920   22.1370 N   0  0  0  0  0  0  0  0  0  0  0  0
  -23.5270  -32.1810   23.7550 O   0  0  0  0  0  0  0  0  0  0  0  0
  -22.7680  -29.4850   22.5390 C   0  0  0  0  0  0  0  0  0  0  0  0
  -21.4400  -29.3030   22.4100 N   0  0  0  0  0  0  0  0  0  0  0  0
  -23.4440  -28.8600   23.3610 O   0  0  0  0  0  0  0  0  0  0  0  0
  -20.9510  -29.8610   21.7240 H   0  0  0  0  0  0  0  0  0  0  0  0
  -18.0670  -28.0920   22.9200 C   0  0  0  0  0  0  0  0  0  0  0  0
  -20.6260  -28.3570   23.1770 C   0  0  0  0  0  3  0  0  0  0  0  0
  -20.7280  -26.9290   22.5910 C   0  0  0  0  0  2  0  0  0  0  0  0
  -19.6210  -26.6120   21.5810 C   0  0  0  0  0  2  0  0  0  0  0  0
  -18.2440  -26.7470   22.2350 C   0  0  0  0  0  2  0  0  0  0  0  0
  -19.1860  -28.8540   23.3500 C   0  0  0  0  0  0  0  0  0  0  0  0
  -18.9640  -30.1110   23.9550 C   0  0  0  0  0  3  0  0  0  0  0  0
  -17.6580  -30.6050   24.1340 C   0  0  0  0  0  3  0  0  0  0  0  0
  -16.5550  -29.8400   23.7180 C   0  0  0  0  0  3  0  0  0  0  0  0
  -16.7600  -28.5850   23.1170 C   0  0  0  0  0  3  0  0  0  0  0  0
  -25.8890  -32.5530   23.8610 C   0  0  0  0  0  3  0  0  0  0  0  0
  -25.5690  -33.9540   24.1740 N   0  0  0  0  0  0  0  0  0  0  0  0
  -25.9150  -35.0040   23.4180 C   0  0  0  0  0  0  0  0  0  0  0  0
  -26.6050  -34.8950   22.4000 O   0  0  0  0  0  0  0  0  0  0  0  0
  -24.9510  -34.1100   24.9570 H   0  0  0  0  0  0  0  0  0  0  0  0
  -24.2090  -36.8100   23.0110 C   0  0  0  0  0  1  0  0  0  0  0  0
  -25.4220  -36.3960   23.8590 C   0  0  0  0  0  3  0  0  0  0  0  0
  -27.5320  -37.2760   24.7570 C   0  0  0  0  0  1  0  0  0  0  0  0
  -26.4620  -37.4460   23.7780 N   0  0  0  0  0  0  0  0  0  0  0  0
  -26.0550  -38.3680   23.9090 H   0  0  0  0  0  0  0  0  0  0  0  0
  -26.3890  -31.7980   25.1550 C   0  0  1  0  0  0  0  0  0  0  0  0
  -25.2830  -31.5720   26.2120 C   0  0  0  0  0  1  0  0  0  0  0  0
  -26.9820  -30.4160   24.7930 C   0  0  0  0  0  1  0  0  0  0  0  0
  -27.5260  -32.6060   25.8230 C   0  0  0  0  0  1  0  0  0  0  0  0
  1  4  1  0
  2  1  1  0
  2  6  2  0
  3 52  1  0
  3  1  2  0
  5  2  1  0
  5  4  1  0
  5 10  1  0
  7  8  1  0
  9 11  2  0
  9 10  1  0
 10  7  2  0
 11 12  1  0
 12 13  1  0
 12  8  2  0
 15 20  1  0
 16 17  1  0
 16 15  1  0
 18 17  1  0
 18 27  1  0
 18 19  1  0
 20 14  1  0
 20 19  1  0
 21 14  2  0
 22 23  1  0
 23 14  1  0
 23 11  1  0
 24 25  2  0
 25 44  1  0
 26 25  1  0
 26 29  1  0
 27 28  1  0
 27 24  1  0
 28 26  2  0
 29 30  1  0
 30 31  2  0
 32 35  1  0
 32 31  1  0
 33 32  2  0
 34 33  1  0
 34 29  2  0
 35 36  1  0
 36 37  1  0
 37 38  2  0
 39 38  1  0
 39 43  1  0
 40 39  2  0
 41 36  2  0
 41 40  1  0
 42 41  1  0
 44 45  1  0
 45 48  1  0
 45 47  1  0
 46 44  2  0
 49 24  1  0
 49 50  1  0
 51 49  1  0
 53 64  2  0
 54 52  1  0
 54 59  1  0
 55 63  1  0
 55 65  1  0
 56 62  1  0
 56 58  1  0
 57 63  1  0
 58 59  2  0
 58 57  1  0
 60 61  1  0
 60 54  2  0
 61 56  2  0
 62 55  1  0
 63 53  1  0
 65 67  2  0
 66 65  1  0
 68 66  1  0
 69 78  2  0
 69 74  1  0
 70 66  1  0
 70 74  1  0
 71 70  1  0
 72 73  1  0
 72 71  1  0
 73 69  1  0
 74 75  2  0
 75 76  1  0
 77 76  2  0
 78 77  1  0
 79 53  1  0
 79 80  1  0
 79 89  1  0
 80 83  1  0
 81 85  1  0
 81 80  1  0
 82 81  2  0
 85 84  1  0
 87 85  1  0
 87 88  1  0
 87 86  1  0
 89 92  1  1
 89 90  1  0
 91 89  1  0
M  ISO  4   3 101  14 100  23 100  52 101
M  END
>  <TORSDO>  (39) 
F 17

>  <SCORE>  (39) 
-14.680

>  <name>  (39) 
38

>  <ligand_id>  (39) 
38

>  <original_smiles>  (39) 
[H]C(Oc1c([H])c([H])c2c(c1[H])C([H])([H])N(C(=O)C([H])(N([H])C(=O)C([H])(N([H])C([H])([H])[H])C([H])([H])[H])C(C([H])([H])[H])(C([H])([H])[H])C([H])([H])[H])C([H])(C(=O)N([H])C1([H])c3c([H])c([H])c([H])c([H])c3C([H])([H])C([H])([H])C1([H])[H])C2([H])[H])=C1C(=O)N(c2c([H])c([H])c(F)c(N(C(=O)N3C([H])([H])C([H])([H])C([H])([H])C([H])(n4nc(-c5c([H])c([H])c(Oc6c([H])c([H])c(F)c([H])c6F)c([H])c5[H])c(C(=O)N([H])[H])c4N([H])[H])C3([H])[H])C([H])([H])[H])c2[H])C1([H])[H]

>  <smiles>  (39) 
[H]C(Oc1c([H])c([H])c2c(c1[H])C([H])([H])N(C(=O)C([H])(N([H])C(=O)C([H])(N([H])C([H])([H])[H])C([H])([H])[H])C(C([H])([H])[H])(C([H])([H])[H])C([H])([H])[H])C([H])(C(=O)N([H])C1([H])c3c([H])c([H])c([H])c([H])c3C([H])([H])C([H])([H])C1([H])[H])C2([H])[H])=C1C(=O)N(c2c([H])c([H])c(F)c(N(C(=O)N3C([H])([H])C([H])([H])C([H])([H])C([H])(n4nc(-c5c([H])c([H])c(Oc6c([H])c([H])c(F)c([H])c6F)c([H])c5[H])c(C(=O)N([H])[H])c4N([H])[H])C3([H])[H])C([H])([H])[H])c2[H])C1([H])[H]

$$$$
39:0:0
     RDKit          3D

 93102  0  0  1  0  0  0  0  0999 V2000
  -30.6210  -22.3720   19.3920 C   0  0  0  0  0  0  0  0  0  0  0  0
  -28.4990  -22.4180   20.3170 C   0  0  0  0  0  2  0  0  0  0  0  0
  -29.0200  -23.9000   20.2110 C   0  0  0  0  0  3  0  0  0  0  0  0
  -29.6380  -21.5480   19.9510 N   0  0  0  0  0  0  0  0  0  0  0  0
  -31.7020  -22.0580   18.8910 O   0  0  0  0  0  0  0  0  0  0  0  0
  -30.1990  -23.6620   19.4560 O   0  0  0  0  0  0  0  0  0  0  0  0
  -30.8620  -19.2880   19.8550 C   0  0  0  0  0  3  0  0  0  0  0  0
  -30.8860  -17.8650   19.9450 C   0  0  0  0  0  3  0  0  0  0  0  0
  -28.5230  -19.3010   20.3540 C   0  0  0  0  0  3  0  0  0  0  0  0
  -28.5340  -17.8720   20.4510 C   0  0  0  0  0  0  0  0  0  0  0  0
  -29.6810  -20.0680   20.0510 C   0  0  0  0  0  0  0  0  0  0  0  0
  -29.7270  -17.1070   20.2470 C   0  0  0  0  0  0  0  0  0  0  0  0
  -27.2070  -17.2000   20.7850 C   0  0  0  0  0  1  0  0  0  0  0  0
  -30.4570  -14.6360   19.7720 C   0  0  0  0  0  0  0  0  0  0  0  0
  -30.1500  -12.4480   18.6280 C   0  0  0  0  0  2  0  0  0  0  0  0
  -29.0870  -12.6350   17.5200 C   0  0  0  0  0  2  0  0  0  0  0  0
  -27.6610  -12.4630   18.0820 C   0  0  0  0  0  2  0  0  0  0  0  0
  -27.4390  -13.2660   19.3920 C   0  0  0  0  0  3  0  0  0  0  0  0
  -28.5980  -13.0350   20.3880 C   0  0  0  0  0  2  0  0  0  0  0  0
  -29.8470  -13.4100   19.7050 N   0  0  0  0  0  0  0  0  0  0  0  0
  -31.5610  -14.8260   19.2510 O   0  0  0  0  0  0  0  0  0  0  0  0
  -29.6990  -15.6410   20.3230 N   0  0  0  0  0  0  0  0  0  0  0  0
  -28.8740  -15.2750   20.7730 H   0  0  0  0  0  0  0  0  0  0  0  0
  -25.1330  -13.8630   20.3540 C   0  0  0  0  0  0  0  0  0  0  0  0
  -24.1030  -13.0890   20.8120 C   0  0  0  0  0  0  0  0  0  0  0  0
  -24.5450  -11.7350   20.6950 C   0  0  0  0  0  0  0  0  0  0  0  0
  -26.1410  -12.9810   19.9950 N   0  0  0  0  0  0  0  0  0  0  0  0
  -25.7980  -11.6940   20.2580 N   0  0  0  0  0  0  0  0  0  0  0  0
  -23.8290  -10.4740   20.9190 C   0  0  0  0  0  0  0  0  0  0  0  0
  -24.2940   -9.5170   21.8470 C   0  0  0  0  0  3  0  0  0  0  0  0
  -23.5800   -8.3170   22.0560 C   0  0  0  0  0  3  0  0  0  0  0  0
  -22.3860   -8.0680   21.3380 C   0  0  0  0  0  0  0  0  0  0  0  0
  -21.9400   -9.0140   20.3990 C   0  0  0  0  0  3  0  0  0  0  0  0
  -22.6540  -10.2050   20.1880 C   0  0  0  0  0  3  0  0  0  0  0  0
  -21.6390   -6.9210   21.4580 O   0  0  0  0  0  0  0  0  0  0  0  0
  -21.5640   -6.2310   22.6430 C   0  0  0  0  0  0  0  0  0  0  0  0
  -21.0980   -6.8370   23.8300 C   0  0  0  0  0  3  0  0  0  0  0  0
  -20.9720   -6.0720   25.0060 C   0  0  0  0  0  3  0  0  0  0  0  0
  -21.3030   -4.7040   24.9970 C   0  0  0  0  0  0  0  0  0  0  0  0
  -21.7600   -4.0990   23.8130 C   0  0  0  0  0  3  0  0  0  0  0  0
  -21.8890   -4.8600   22.6390 C   0  0  0  0  0  0  0  0  0  0  0  0
  -22.3120   -4.2670   21.4970 F   0  0  0  0  0  0  0  0  0  0  0  0
  -21.1750   -3.9670   26.1240 F   0  0  0  0  0  0  0  0  0  0  0  0
  -22.7440  -13.5690   21.2360 C   0  0  0  0  0  0  0  0  0  0  0  0
  -22.1060  -12.8630   22.1630 N   0  0  0  0  0  0  0  0  0  0  0  0
  -22.2610  -14.6040   20.7800 O   0  0  0  0  0  0  0  0  0  0  0  0
  -22.5100  -12.0250   22.5540 H   0  0  0  0  0  0  0  0  0  0  0  0
  -21.1990  -13.1680   22.4900 H   0  0  0  0  0  0  0  0  0  0  0  0
  -25.2880  -15.2340   20.1850 N   0  0  0  0  0  0  0  0  0  0  0  0
  -24.5140  -15.8720   20.3330 H   0  0  0  0  0  0  0  0  0  0  0  0
  -26.0600  -15.6610   19.6900 H   0  0  0  0  0  0  0  0  0  0  0  0
  -28.0660  -24.9980   19.5700 C   0  0  0  0  0  2  0  0  0  0  0  0
  -28.2960  -26.4480   19.7950 O   0  0  0  0  0  0  0  0  0  0  0  0
  -24.5020  -31.6400   23.0480 C   0  0  0  0  0  0  0  0  0  0  0  0
  -27.1680  -27.2860   19.7680 C   0  0  0  0  0  0  0  0  0  0  0  0
  -23.3070  -30.2930   21.3610 C   0  0  0  0  0  3  0  0  0  0  0  0
  -24.7710  -28.8420   19.8530 C   0  0  0  0  0  0  0  0  0  0  0  0
  -25.8370  -30.6740   21.1640 C   0  0  0  0  0  2  0  0  0  0  0  0
  -25.9380  -29.3300   20.4560 C   0  0  0  0  0  0  0  0  0  0  0  0
  -27.1390  -28.5650   20.4050 C   0  0  0  0  0  3  0  0  0  0  0  0
  -25.9790  -26.8600   19.1320 C   0  0  0  0  0  3  0  0  0  0  0  0
  -24.7940  -27.6120   19.1830 C   0  0  0  0  0  3  0  0  0  0  0  0
  -23.5170  -29.6850   19.9500 C   0  0  0  0  0  2  0  0  0  0  0  0
  -24.5670  -30.8840   21.9130 N   0  0  0  0  0  0  0  0  0  0  0  0
  -23.4200  -31.8680   23.6070 O   0  0  0  0  0  0  0  0  0  0  0  0
  -22.6800  -29.2170   22.2810 C   0  0  0  0  0  0  0  0  0  0  0  0
  -21.3530  -29.0330   22.1810 N   0  0  0  0  0  0  0  0  0  0  0  0
  -23.3860  -28.5530   23.0460 O   0  0  0  0  0  0  0  0  0  0  0  0
  -20.8400  -29.6200   21.5360 H   0  0  0  0  0  0  0  0  0  0  0  0
  -17.9930  -27.8340   22.7630 C   0  0  0  0  0  0  0  0  0  0  0  0
  -20.5640  -28.0500   22.9240 C   0  0  0  0  0  3  0  0  0  0  0  0
  -20.6200  -26.6620   22.2450 C   0  0  0  0  0  2  0  0  0  0  0  0
  -19.4660  -26.4210   21.2670 C   0  0  0  0  0  2  0  0  0  0  0  0
  -18.1190  -26.5350   21.9860 C   0  0  0  0  0  2  0  0  0  0  0  0
  -19.1410  -28.5530   23.1910 C   0  0  0  0  0  0  0  0  0  0  0  0
  -18.9690  -29.7720   23.8830 C   0  0  0  0  0  3  0  0  0  0  0  0
  -17.6810  -30.2720   24.1480 C   0  0  0  0  0  3  0  0  0  0  0  0
  -16.5470  -29.5510   23.7360 C   0  0  0  0  0  3  0  0  0  0  0  0
  -16.7040  -28.3330   23.0500 C   0  0  0  0  0  3  0  0  0  0  0  0
  -25.7800  -32.2720   23.6810 C   0  0  0  0  0  3  0  0  0  0  0  0
  -25.4520  -33.6540   24.0540 N   0  0  0  0  0  0  0  0  0  0  0  0
  -25.7530  -34.7330   23.3180 C   0  0  0  0  0  0  0  0  0  0  0  0
  -26.4070  -34.6700   22.2740 O   0  0  0  0  0  0  0  0  0  0  0  0
  -24.8700  -33.7770   24.8690 H   0  0  0  0  0  0  0  0  0  0  0  0
  -23.9790  -36.4930   23.0540 C   0  0  0  0  0  1  0  0  0  0  0  0
  -25.2490  -36.0990   23.8230 C   0  0  0  0  0  3  0  0  0  0  0  0
  -27.3820  -37.0120   24.6210 C   0  0  0  0  0  1  0  0  0  0  0  0
  -26.2550  -37.1760   23.7070 N   0  0  0  0  0  0  0  0  0  0  0  0
  -25.8330  -38.0830   23.8820 H   0  0  0  0  0  0  0  0  0  0  0  0
  -26.3120  -31.4710   24.9320 C   0  0  1  0  0  0  0  0  0  0  0  0
  -25.2230  -31.1890   25.9920 C   0  0  0  0  0  1  0  0  0  0  0  0
  -26.9140  -30.1140   24.4980 C   0  0  0  0  0  1  0  0  0  0  0  0
  -27.4520  -32.2610   25.6150 C   0  0  0  0  0  1  0  0  0  0  0  0
  1  6  1  0
  1  4  1  0
  3 52  1  0
  3  2  1  0
  4 11  1  0
  4  2  1  0
  5  1  2  0
  6  3  1  0
  7  8  2  0
  7 11  1  0
  8 12  1  0
  9 10  1  0
 10 13  1  0
 11  9  2  0
 12 22  1  0
 12 10  2  0
 14 22  1  0
 15 20  1  0
 16 17  1  0
 16 15  1  0
 18 17  1  0
 18 27  1  0
 18 19  1  0
 20 14  1  0
 20 19  1  0
 21 14  2  0
 22 23  1  0
 24 25  2  0
 25 44  1  0
 26 25  1  0
 26 29  1  0
 27 28  1  0
 27 24  1  0
 28 26  2  0
 29 30  1  0
 30 31  2  0
 32 35  1  0
 32 31  1  0
 33 32  2  0
 34 33  1  0
 34 29  2  0
 35 36  1  0
 36 37  1  0
 37 38  2  0
 39 38  1  0
 39 43  1  0
 40 39  2  0
 41 36  2  0
 41 40  1  0
 42 41  1  0
 44 45  1  0
 45 48  1  0
 45 47  1  0
 46 44  2  0
 49 50  1  0
 49 24  1  0
 51 49  1  0
 52 53  1  0
 54 65  2  0
 55 53  1  0
 55 60  1  0
 56 64  1  0
 56 66  1  0
 57 63  1  0
 57 59  1  0
 58 64  1  0
 59 58  1  0
 60 59  2  0
 61 62  1  0
 61 55  2  0
 62 57  2  0
 63 56  1  0
 64 54  1  0
 66 68  2  0
 67 66  1  0
 69 67  1  0
 70 79  2  0
 70 75  1  0
 71 67  1  0
 71 75  1  0
 72 71  1  0
 73 74  1  0
 73 72  1  0
 74 70  1  0
 75 76  2  0
 76 77  1  0
 78 77  2  0
 79 78  1  0
 80 54  1  0
 80 81  1  0
 80 90  1  0
 81 84  1  0
 82 86  1  0
 82 81  1  0
 83 82  2  0
 86 85  1  0
 88 86  1  0
 88 89  1  0
 88 87  1  0
 90 93  1  1
 90 91  1  0
 92 90  1  0
M  ISO  4  14 100  22 100  52 101  53 101
M  END
>  <TORSDO>  (40) 
F 18

>  <SCORE>  (40) 
-13.326

>  <name>  (40) 
39

>  <ligand_id>  (40) 
39

>  <original_smiles>  (40) 
[H]c1c([H])c([H])c2c(c1[H])C([H])([H])C([H])([H])C([H])([H])C2([H])N([H])C(=O)C1([H])N(C(=O)C([H])(N([H])C(=O)C([H])(N([H])C([H])([H])[H])C([H])([H])[H])C(C([H])([H])[H])(C([H])([H])[H])C([H])([H])[H])C([H])([H])c2c([H])c(OC([H])([H])C3([H])OC(=O)N(c4c([H])c([H])c(N([H])C(=O)N5C([H])([H])C([H])([H])C([H])([H])C([H])(n6nc(-c7c([H])c([H])c(Oc8c([H])c([H])c(F)c([H])c8F)c([H])c7[H])c(C(=O)N([H])[H])c6N([H])[H])C5([H])[H])c(C([H])([H])[H])c4[H])C3([H])[H])c([H])c([H])c2C1([H])[H]

>  <smiles>  (40) 
[H]c1c([H])c([H])c2c(c1[H])C([H])([H])C([H])([H])C([H])([H])C2([H])N([H])C(=O)C1([H])N(C(=O)C([H])(N([H])C(=O)C([H])(N([H])C([H])([H])[H])C([H])([H])[H])C(C([H])([H])[H])(C([H])([H])[H])C([H])([H])[H])C([H])([H])c2c([H])c(OC([H])([H])C3([H])OC(=O)N(c4c([H])c([H])c(N([H])C(=O)N5C([H])([H])C([H])([H])C([H])([H])C([H])(n6nc(-c7c([H])c([H])c(Oc8c([H])c([H])c(F)c([H])c8F)c([H])c7[H])c(C(=O)N([H])[H])c6N([H])[H])C5([H])[H])c(C([H])([H])[H])c4[H])C3([H])[H])c([H])c([H])c2C1([H])[H]

$$$$
40:0:0
     RDKit          3D

 97105  0  0  1  0  0  0  0  0999 V2000
  -29.7180  -21.0580   22.0560 C   0  0  0  0  0  3  0  0  0  0  0  0
  -30.3340  -18.5670   20.7310 C   0  0  0  0  0  0  0  0  0  0  0  0
  -30.4170  -20.0370   22.7280 C   0  0  0  0  0  0  0  0  0  0  0  0
  -30.6920  -18.7830   22.1020 C   0  0  0  0  0  0  0  0  0  0  0  0
  -29.2990  -20.9420   20.7200 C   0  0  0  0  0  0  0  0  0  0  0  0
  -29.6220  -19.6740   20.0750 C   0  0  0  0  0  0  0  0  0  0  0  0
  -31.4230  -17.7040   22.9080 C   0  0  0  0  0  1  0  0  0  0  0  0
  -29.2570  -19.5400   18.7770 F   0  0  0  0  0  0  0  0  0  0  0  0
  -31.0660  -14.8070   19.7110 C   0  0  0  0  0  0  0  0  0  0  0  0
  -30.5930  -12.6170   18.5990 C   0  0  0  0  0  2  0  0  0  0  0  0
  -29.5420  -12.8270   17.4880 C   0  0  0  0  0  2  0  0  0  0  0  0
  -28.1180  -12.6990   18.0590 C   0  0  0  0  0  2  0  0  0  0  0  0
  -27.9290  -13.4960   19.3780 C   0  0  0  0  0  3  0  0  0  0  0  0
  -29.1000  -13.2920   20.3660 C   0  0  0  0  0  2  0  0  0  0  0  0
  -30.3360  -13.6310   19.6540 N   0  0  0  0  0  0  0  0  0  0  0  0
  -32.2100  -14.7870   19.2500 O   0  0  0  0  0  0  0  0  0  0  0  0
  -30.8920  -17.3180   19.9440 C   0  0  0  0  0  0  0  0  0  0  0  0
  -30.4560  -15.9970   20.1210 N   0  0  0  0  0  0  0  0  0  0  0  0
  -31.7900  -17.5730   19.1330 O   0  0  0  0  0  0  0  0  0  0  0  0
  -29.5800  -15.8990   20.6020 H   0  0  0  0  0  0  0  0  0  0  0  0
  -25.6560  -14.1190   20.3820 C   0  0  0  0  0  0  0  0  0  0  0  0
  -24.6050  -13.3620   20.8200 C   0  0  0  0  0  0  0  0  0  0  0  0
  -25.0100  -11.9990   20.6750 C   0  0  0  0  0  0  0  0  0  0  0  0
  -26.6350  -13.2210   19.9930 N   0  0  0  0  0  0  0  0  0  0  0  0
  -26.2610  -11.9370   20.2330 N   0  0  0  0  0  0  0  0  0  0  0  0
  -24.2550  -10.7540   20.8730 C   0  0  0  0  0  0  0  0  0  0  0  0
  -24.6720   -9.7760   21.8020 C   0  0  0  0  0  3  0  0  0  0  0  0
  -23.9170   -8.5980   21.9920 C   0  0  0  0  0  3  0  0  0  0  0  0
  -22.7280   -8.3910   21.2540 C   0  0  0  0  0  0  0  0  0  0  0  0
  -22.3270   -9.3580   20.3140 C   0  0  0  0  0  3  0  0  0  0  0  0
  -23.0840  -10.5260   20.1220 C   0  0  0  0  0  3  0  0  0  0  0  0
  -21.9450   -7.2660   21.3500 O   0  0  0  0  0  0  0  0  0  0  0  0
  -21.7970   -6.5940   22.5370 C   0  0  0  0  0  0  0  0  0  0  0  0
  -21.2860   -7.2260   23.6930 C   0  0  0  0  0  3  0  0  0  0  0  0
  -21.0870   -6.4800   24.8720 C   0  0  0  0  0  3  0  0  0  0  0  0
  -21.3840   -5.1050   24.8940 C   0  0  0  0  0  0  0  0  0  0  0  0
  -21.8860   -4.4720   23.7440 C   0  0  0  0  0  3  0  0  0  0  0  0
  -22.0880   -5.2160   22.5670 C   0  0  0  0  0  0  0  0  0  0  0  0
  -22.5520   -4.5970   21.4540 F   0  0  0  0  0  0  0  0  0  0  0  0
  -21.1860   -4.3870   26.0240 F   0  0  0  0  0  0  0  0  0  0  0  0
  -23.2610  -13.8720   21.2560 C   0  0  0  0  0  0  0  0  0  0  0  0
  -22.6140  -13.1740   22.1820 N   0  0  0  0  0  0  0  0  0  0  0  0
  -22.8000  -14.9230   20.8080 O   0  0  0  0  0  0  0  0  0  0  0  0
  -23.0050  -12.3260   22.5600 H   0  0  0  0  0  0  0  0  0  0  0  0
  -21.7180  -13.4920   22.5220 H   0  0  0  0  0  0  0  0  0  0  0  0
  -25.8510  -15.4920   20.2550 N   0  0  0  0  0  0  0  0  0  0  0  0
  -25.1100  -16.1500   20.4750 H   0  0  0  0  0  0  0  0  0  0  0  0
  -26.6500  -15.9220   19.8090 H   0  0  0  0  0  0  0  0  0  0  0  0
  -28.6360  -23.4560   20.3010 C   0  0  0  0  0  0  0  0  0  0  0  0
  -28.5380  -22.0750   20.1100 N   0  0  0  0  0  0  0  0  0  0  0  0
  -29.6280  -23.9510   20.8420 O   0  0  0  0  0  0  0  0  0  0  0  0
  -27.7810  -21.7890   19.5020 H   0  0  0  0  0  0  0  0  0  0  0  0
  -27.4890  -24.4660   19.8010 C   0  0  0  0  0  2  0  0  0  0  0  0
  -27.7230  -25.9640   19.9080 O   0  0  0  0  0  0  0  0  0  0  0  0
  -24.5870  -31.7350   23.0610 C   0  0  0  0  0  0  0  0  0  0  0  0
  -26.6650  -26.9160   19.8970 C   0  0  0  0  0  0  0  0  0  0  0  0
  -23.1760  -30.3760   21.5620 C   0  0  0  0  0  3  0  0  0  0  0  0
  -24.4140  -28.7150   20.0510 C   0  0  0  0  0  0  0  0  0  0  0  0
  -25.7140  -30.5210   21.1760 C   0  0  0  0  0  2  0  0  0  0  0  0
  -25.6560  -29.1240   20.5500 C   0  0  0  0  0  0  0  0  0  0  0  0
  -26.7780  -28.2330   20.4710 C   0  0  0  0  0  3  0  0  0  0  0  0
  -25.3980  -26.5970   19.3560 C   0  0  0  0  0  3  0  0  0  0  0  0
  -24.2900  -27.4580   19.4460 C   0  0  0  0  0  3  0  0  0  0  0  0
  -23.2410  -29.6650   20.1840 C   0  0  0  0  0  2  0  0  0  0  0  0
  -24.5170  -30.8960   21.9860 N   0  0  0  0  0  0  0  0  0  0  0  0
  -23.5680  -32.0880   23.6750 O   0  0  0  0  0  0  0  0  0  0  0  0
  -22.5400  -29.4160   22.5960 C   0  0  0  0  0  0  0  0  0  0  0  0
  -21.2210  -29.1850   22.4810 N   0  0  0  0  0  0  0  0  0  0  0  0
  -23.2330  -28.8800   23.4630 O   0  0  0  0  0  0  0  0  0  0  0  0
  -20.7180  -29.6700   21.7480 H   0  0  0  0  0  0  0  0  0  0  0  0
  -17.9150  -27.7920   22.9680 C   0  0  0  0  0  0  0  0  0  0  0  0
  -20.4310  -28.2850   23.3230 C   0  0  0  0  0  3  0  0  0  0  0  0
  -20.6680  -26.8060   22.9370 C   0  0  0  0  0  2  0  0  0  0  0  0
  -19.6490  -26.2770   21.9200 C   0  0  0  0  0  2  0  0  0  0  0  0
  -18.2260  -26.3900   22.4750 C   0  0  0  0  0  2  0  0  0  0  0  0
  -18.9510  -28.6860   23.3530 C   0  0  0  0  0  0  0  0  0  0  0  0
  -18.6050  -29.9890   23.7720 C   0  0  0  0  0  3  0  0  0  0  0  0
  -17.2590  -30.4010   23.8120 C   0  0  0  0  0  3  0  0  0  0  0  0
  -16.2400  -29.5080   23.4450 C   0  0  0  0  0  3  0  0  0  0  0  0
  -16.5690  -28.2060   23.0270 C   0  0  0  0  0  3  0  0  0  0  0  0
  -25.9490  -32.3090   23.5600 C   0  0  0  0  0  3  0  0  0  0  0  0
  -26.6010  -31.4460   24.7100 C   0  0  1  0  0  0  0  0  0  0  0  0
  -25.6380  -31.1320   25.8780 C   0  0  0  0  0  1  0  0  0  0  0  0
  -27.1250  -30.1010   24.1580 C   0  0  0  0  0  1  0  0  0  0  0  0
  -27.8220  -32.1930   25.2970 C   0  0  0  0  0  1  0  0  0  0  0  0
  -25.7090  -33.6840   24.0240 N   0  0  0  0  0  0  0  0  0  0  0  0
  -26.0400  -34.7890   23.3450 C   0  0  0  0  0  0  0  0  0  0  0  0
  -26.6490  -34.7560   22.2730 O   0  0  0  0  0  0  0  0  0  0  0  0
  -25.1680  -33.7860   24.8690 H   0  0  0  0  0  0  0  0  0  0  0  0
  -24.3810  -36.6770   23.2230 C   0  0  0  0  0  1  0  0  0  0  0  0
  -25.6290  -36.1460   23.9470 C   0  0  0  0  0  3  0  0  0  0  0  0
  -27.8250  -36.8610   24.7780 C   0  0  0  0  0  1  0  0  0  0  0  0
  -26.7000  -37.1640   23.8950 N   0  0  0  0  0  0  0  0  0  0  0  0
  -26.3400  -38.0810   24.1430 H   0  0  0  0  0  0  0  0  0  0  0  0
  -30.9220  -20.3780   24.1270 C   0  0  0  0  0  2  0  0  0  0  0  0
  -29.2550  -19.8390   25.7340 C   0  0  0  0  0  1  0  0  0  0  0  0
  -30.4790  -19.4580   25.1180 O   0  0  0  0  0  0  0  0  0  0  0  0
  1  3  1  0
  2  4  1  0
  3 95  1  0
  4  3  2  0
  4  7  1  0
  5  1  2  0
  6  5  1  0
  6  2  2  0
  8  6  1  0
  9 18  1  0
 10 15  1  0
 11 12  1  0
 11 10  1  0
 13 12  1  0
 13 24  1  0
 13 14  1  0
 15  9  1  0
 15 14  1  0
 16  9  2  0
 17 18  1  0
 17  2  1  0
 18 20  1  0
 19 17  2  0
 21 22  2  0
 22 41  1  0
 23 22  1  0
 23 26  1  0
 24 25  1  0
 24 21  1  0
 25 23  2  0
 26 27  1  0
 27 28  2  0
 29 32  1  0
 29 28  1  0
 30 29  2  0
 31 30  1  0
 31 26  2  0
 32 33  1  0
 33 38  2  0
 33 34  1  0
 34 35  2  0
 35 36  1  0
 36 40  1  0
 37 36  2  0
 38 37  1  0
 39 38  1  0
 41 42  1  0
 42 45  1  0
 42 44  1  0
 43 41  2  0
 46 21  1  0
 46 47  1  0
 48 46  1  0
 49 51  2  0
 50 49  1  0
 50  5  1  0
 52 50  1  0
 53 54  1  0
 53 49  1  0
 55 66  2  0
 56 54  1  0
 56 61  1  0
 57 65  1  0
 57 67  1  0
 58 64  1  0
 58 60  1  0
 59 65  1  0
 60 59  1  0
 61 60  2  0
 62 63  1  0
 62 56  2  0
 63 58  2  0
 64 57  1  0
 65 55  1  0
 67 69  2  0
 68 67  1  0
 70 68  1  0
 71 80  2  0
 71 76  1  0
 72 68  1  0
 72 76  1  0
 73 72  1  0
 74 75  1  0
 74 73  1  0
 75 71  1  0
 76 77  2  0
 77 78  1  0
 79 78  2  0
 80 79  1  0
 81 55  1  0
 81 86  1  0
 81 82  1  0
 82 85  1  1
 82 83  1  0
 84 82  1  0
 86 89  1  0
 87 91  1  0
 87 86  1  0
 88 87  2  0
 91 90  1  0
 93 91  1  0
 93 94  1  0
 93 92  1  0
 95 97  1  0
 97 96  1  0
M  ISO  4   9 100  18 100  53 101  54 101
M  END
>  <TORSDO>  (41) 
F 20

>  <SCORE>  (41) 
-9.243

>  <name>  (41) 
40

>  <ligand_id>  (41) 
40

>  <original_smiles>  (41) 
[H]c1c([H])c([H])c2c(c1[H])C([H])([H])C([H])([H])C([H])([H])C2([H])N([H])C(=O)C1([H])N(C(=O)C([H])(N([H])C(=O)C([H])(N([H])C([H])([H])[H])C([H])([H])[H])C(C([H])([H])[H])(C([H])([H])[H])C([H])([H])[H])C([H])([H])c2c([H])c(OC([H])([H])C(=O)N([H])c3c([H])c(C([H])([H])OC([H])([H])[H])c(C([H])([H])[H])c(C(=O)N([H])C(=O)N4C([H])([H])C([H])([H])C([H])([H])C([H])(n5nc(-c6c([H])c([H])c(Oc7c([H])c([H])c(F)c([H])c7F)c([H])c6[H])c(C(=O)N([H])[H])c5N([H])[H])C4([H])[H])c3F)c([H])c([H])c2C1([H])[H]

>  <smiles>  (41) 
[H]c1c([H])c([H])c2c(c1[H])C([H])([H])C([H])([H])C([H])([H])C2([H])N([H])C(=O)C1([H])N(C(=O)C([H])(N([H])C(=O)C([H])(N([H])C([H])([H])[H])C([H])([H])[H])C(C([H])([H])[H])(C([H])([H])[H])C([H])([H])[H])C([H])([H])c2c([H])c(OC([H])([H])C(=O)N([H])c3c([H])c(C([H])([H])OC([H])([H])[H])c(C([H])([H])[H])c(C(=O)N([H])C(=O)N4C([H])([H])C([H])([H])C([H])([H])C([H])(n5nc(-c6c([H])c([H])c(Oc7c([H])c([H])c(F)c([H])c7F)c([H])c6[H])c(C(=O)N([H])[H])c5N([H])[H])C4([H])[H])c3F)c([H])c([H])c2C1([H])[H]

$$$$
41:0:0
     RDKit          3D

 96104  0  0  1  0  0  0  0  0999 V2000
  -29.9320  -21.5930   19.7410 C   0  0  0  0  0  0  0  0  0  0  0  0
  -29.1830  -24.0710   19.9000 C   0  0  0  0  0  0  0  0  0  0  0  0
  -29.1520  -22.6200   20.2570 N   0  0  0  0  0  0  0  0  0  0  0  0
  -30.8060  -21.9110   18.7800 N   0  0  0  0  0  4  0  0  0  0  0  0
  -29.9810  -24.4940   19.0510 O   0  0  0  0  0  0  0  0  0  0  0  0
  -28.5140  -22.2890   20.9660 H   0  0  0  0  0  0  0  0  0  0  0  0
  -31.4990  -21.2390   18.4860 H   0  0  0  0  0  0  0  0  0  0  0  0
  -30.8800  -22.8800   18.4890 H   0  0  0  0  0  0  0  0  0  0  0  0
  -28.7070  -19.3670   20.2730 C   0  0  0  0  0  3  0  0  0  0  0  0
  -31.1140  -17.9210   20.3690 C   0  0  0  0  0  3  0  0  0  0  0  0
  -29.9070  -20.1110   20.1110 C   0  0  0  0  0  0  0  0  0  0  0  0
  -29.9120  -17.1800   20.4920 C   0  0  0  0  0  0  0  0  0  0  0  0
  -28.7150  -17.9490   20.4570 C   0  0  0  0  0  0  0  0  0  0  0  0
  -31.1110  -19.3380   20.1860 C   0  0  0  0  0  0  0  0  0  0  0  0
  -27.5320  -17.2980   20.5750 F   0  0  0  0  0  0  0  0  0  0  0  0
  -32.3120  -19.9500   20.0400 F   0  0  0  0  0  0  0  0  0  0  0  0
  -30.6170  -14.6810   20.3090 C   0  0  0  0  0  0  0  0  0  0  0  0
  -30.4080  -12.4550   19.2210 C   0  0  0  0  0  2  0  0  0  0  0  0
  -29.4470  -12.5950   18.0180 C   0  0  0  0  0  2  0  0  0  0  0  0
  -27.9800  -12.4250   18.4620 C   0  0  0  0  0  2  0  0  0  0  0  0
  -27.6320  -13.2700   19.7160 C   0  0  0  0  0  3  0  0  0  0  0  0
  -28.7060  -13.1010   20.8170 C   0  0  0  0  0  2  0  0  0  0  0  0
  -30.0070  -13.4560   20.2300 N   0  0  0  0  0  0  0  0  0  0  0  0
  -31.7770  -14.8440   19.9190 O   0  0  0  0  0  0  0  0  0  0  0  0
  -29.8080  -15.7270   20.6690 N   0  0  0  0  0  0  0  0  0  0  0  0
  -28.8860  -15.4300   20.9500 H   0  0  0  0  0  0  0  0  0  0  0  0
  -25.2390  -13.8520   20.4500 C   0  0  0  0  0  0  0  0  0  0  0  0
  -24.1810  -13.0710   20.8270 C   0  0  0  0  0  0  0  0  0  0  0  0
  -24.6540  -11.7240   20.7980 C   0  0  0  0  0  0  0  0  0  0  0  0
  -26.2900  -12.9800   20.2130 N   0  0  0  0  0  0  0  0  0  0  0  0
  -25.9430  -11.6950   20.4820 N   0  0  0  0  0  0  0  0  0  0  0  0
  -23.9390  -10.4560   20.9960 C   0  0  0  0  0  0  0  0  0  0  0  0
  -24.3730   -9.5040   21.9450 C   0  0  0  0  0  3  0  0  0  0  0  0
  -23.6570   -8.3020   22.1300 C   0  0  0  0  0  3  0  0  0  0  0  0
  -22.4930   -8.0440   21.3670 C   0  0  0  0  0  0  0  0  0  0  0  0
  -22.0800   -8.9850   20.4080 C   0  0  0  0  0  3  0  0  0  0  0  0
  -22.7960  -10.1790   20.2210 C   0  0  0  0  0  3  0  0  0  0  0  0
  -21.7500   -6.8920   21.4600 O   0  0  0  0  0  0  0  0  0  0  0  0
  -21.6840   -6.1700   22.6250 C   0  0  0  0  0  0  0  0  0  0  0  0
  -21.2010   -6.7360   23.8260 C   0  0  0  0  0  3  0  0  0  0  0  0
  -21.0860   -5.9390   24.9830 C   0  0  0  0  0  3  0  0  0  0  0  0
  -21.4420   -4.5770   24.9390 C   0  0  0  0  0  0  0  0  0  0  0  0
  -21.9180   -4.0110   23.7430 C   0  0  0  0  0  3  0  0  0  0  0  0
  -22.0350   -4.8060   22.5880 C   0  0  0  0  0  0  0  0  0  0  0  0
  -22.4740   -4.2510   21.4330 F   0  0  0  0  0  0  0  0  0  0  0  0
  -21.3240   -3.8100   26.0470 F   0  0  0  0  0  0  0  0  0  0  0  0
  -22.7830  -13.5390   21.1070 C   0  0  0  0  0  0  0  0  0  0  0  0
  -22.0620  -12.8330   21.9720 N   0  0  0  0  0  0  0  0  0  0  0  0
  -22.3370  -14.5660   20.5980 O   0  0  0  0  0  0  0  0  0  0  0  0
  -22.4340  -12.0020   22.4060 H   0  0  0  0  0  0  0  0  0  0  0  0
  -21.1240  -13.1280   22.2020 H   0  0  0  0  0  0  0  0  0  0  0  0
  -25.3880  -15.2240   20.2750 N   0  0  0  0  0  0  0  0  0  0  0  0
  -24.6160  -15.8640   20.4200 H   0  0  0  0  0  0  0  0  0  0  0  0
  -26.2440  -15.7040   20.0240 H   0  0  0  0  0  0  0  0  0  0  0  0
  -28.1900  -25.0790   20.5970 C   0  0  0  0  0  2  0  0  0  0  0  0
  -28.3680  -26.5100   20.2190 O   0  0  0  0  0  0  0  0  0  0  0  0
  -24.5840  -31.8780   23.2330 C   0  0  0  0  0  0  0  0  0  0  0  0
  -27.2380  -27.3390   20.1960 C   0  0  0  0  0  0  0  0  0  0  0  0
  -23.3950  -30.4700   21.5880 C   0  0  0  0  0  3  0  0  0  0  0  0
  -24.8610  -28.9270   20.1710 C   0  0  0  0  0  0  0  0  0  0  0  0
  -25.9320  -30.8080   21.4130 C   0  0  0  0  0  2  0  0  0  0  0  0
  -26.0240  -29.4280   20.7720 C   0  0  0  0  0  0  0  0  0  0  0  0
  -27.2160  -28.6460   20.7720 C   0  0  0  0  0  3  0  0  0  0  0  0
  -26.0560  -26.8920   19.5650 C   0  0  0  0  0  3  0  0  0  0  0  0
  -24.8790  -27.6630   19.5590 C   0  0  0  0  0  3  0  0  0  0  0  0
  -23.6180  -29.7930   20.2110 C   0  0  0  0  0  2  0  0  0  0  0  0
  -24.6560  -31.0700   22.1350 N   0  0  0  0  0  0  0  0  0  0  0  0
  -23.4970  -32.1490   23.7630 O   0  0  0  0  0  0  0  0  0  0  0  0
  -22.7340  -29.4510   22.5470 C   0  0  0  0  0  0  0  0  0  0  0  0
  -21.4090  -29.2710   22.4180 N   0  0  0  0  0  0  0  0  0  0  0  0
  -23.4140  -28.8250   23.3650 O   0  0  0  0  0  0  0  0  0  0  0  0
  -20.9200  -29.8270   21.7310 H   0  0  0  0  0  0  0  0  0  0  0  0
  -18.0300  -28.0870   22.9300 C   0  0  0  0  0  0  0  0  0  0  0  0
  -20.5900  -28.3310   23.1860 C   0  0  0  0  0  3  0  0  0  0  0  0
  -20.6820  -26.9040   22.5990 C   0  0  0  0  0  2  0  0  0  0  0  0
  -19.5720  -26.5950   21.5890 C   0  0  0  0  0  2  0  0  0  0  0  0
  -18.1950  -26.7420   22.2420 C   0  0  0  0  0  2  0  0  0  0  0  0
  -19.1550  -28.8410   23.3590 C   0  0  0  0  0  0  0  0  0  0  0  0
  -18.9460  -30.1000   23.9620 C   0  0  0  0  0  3  0  0  0  0  0  0
  -17.6440  -30.6060   24.1390 C   0  0  0  0  0  3  0  0  0  0  0  0
  -16.5340  -29.8500   23.7270 C   0  0  0  0  0  3  0  0  0  0  0  0
  -16.7270  -28.5910   23.1280 C   0  0  0  0  0  3  0  0  0  0  0  0
  -25.8610  -32.5170   23.8600 C   0  0  0  0  0  3  0  0  0  0  0  0
  -25.5440  -33.9160   24.1810 N   0  0  0  0  0  0  0  0  0  0  0  0
  -25.8820  -34.9670   23.4220 C   0  0  0  0  0  0  0  0  0  0  0  0
  -26.5610  -34.8610   22.3970 O   0  0  0  0  0  0  0  0  0  0  0  0
  -24.9430  -34.0720   24.9760 H   0  0  0  0  0  0  0  0  0  0  0  0
  -24.1620  -36.7620   23.0350 C   0  0  0  0  0  1  0  0  0  0  0  0
  -25.3880  -36.3560   23.8700 C   0  0  0  0  0  3  0  0  0  0  0  0
  -27.5050  -37.2410   24.7440 C   0  0  0  0  0  1  0  0  0  0  0  0
  -26.4230  -37.4080   23.7760 N   0  0  0  0  0  0  0  0  0  0  0  0
  -26.0150  -38.3290   23.9110 H   0  0  0  0  0  0  0  0  0  0  0  0
  -26.3710  -31.7540   25.1430 C   0  0  1  0  0  0  0  0  0  0  0  0
  -25.2710  -31.5170   26.2050 C   0  0  0  0  0  1  0  0  0  0  0  0
  -26.9630  -30.3770   24.7630 C   0  0  0  0  0  1  0  0  0  0  0  0
  -27.5130  -32.5560   25.8100 C   0  0  0  0  0  1  0  0  0  0  0  0
  1 11  1  0
  1  3  1  0
  2  3  1  0
  2 55  1  0
  3  6  1  0
  4  1  2  0
  5  2  2  0
  7  4  1  0
  8  4  1  0
  9 13  1  0
 10 12  1  0
 11 14  1  0
 11  9  2  0
 12 25  1  0
 13 12  2  0
 13 15  1  0
 14 10  2  0
 16 14  1  0
 17 25  1  0
 18 23  1  0
 19 20  1  0
 19 18  1  0
 21 20  1  0
 21 30  1  0
 21 22  1  0
 23 17  1  0
 23 22  1  0
 24 17  2  0
 25 26  1  0
 27 28  2  0
 28 47  1  0
 29 28  1  0
 29 32  1  0
 30 27  1  0
 30 31  1  0
 31 29  2  0
 32 33  1  0
 33 34  2  0
 35 38  1  0
 35 34  1  0
 36 35  2  0
 37 36  1  0
 37 32  2  0
 38 39  1  0
 39 40  1  0
 40 41  2  0
 42 41  1  0
 42 46  1  0
 43 42  2  0
 44 39  2  0
 44 43  1  0
 45 44  1  0
 47 48  1  0
 48 51  1  0
 48 50  1  0
 49 47  2  0
 52 53  1  0
 52 27  1  0
 54 52  1  0
 56 55  1  0
 57 68  2  0
 58 56  1  0
 58 63  1  0
 59 67  1  0
 59 69  1  0
 60 66  1  0
 60 62  1  0
 61 67  1  0
 62 63  2  0
 62 61  1  0
 64 58  2  0
 65 64  1  0
 65 60  2  0
 66 59  1  0
 67 57  1  0
 69 71  2  0
 70 69  1  0
 72 70  1  0
 73 82  2  0
 73 78  1  0
 74 70  1  0
 74 78  1  0
 75 74  1  0
 76 77  1  0
 76 75  1  0
 77 73  1  0
 78 79  2  0
 79 80  1  0
 81 80  2  0
 82 81  1  0
 83 57  1  0
 83 84  1  0
 83 93  1  0
 84 87  1  0
 85 89  1  0
 85 84  1  0
 86 85  2  0
 89 88  1  0
 91 89  1  0
 91 92  1  0
 91 90  1  0
 93 96  1  1
 93 94  1  0
 95 93  1  0
M  ISO  4  17 100  25 100  55 101  56 101
M  END
>  <TORSDO>  (42) 
F 18

>  <SCORE>  (42) 
-14.969

>  <name>  (42) 
41

>  <ligand_id>  (42) 
41

>  <original_smiles>  (42) 
[H]c1c([H])c([H])c2c(c1[H])C([H])([H])C([H])([H])C([H])([H])C2([H])N([H])C(=O)C1([H])N(C(=O)C([H])(N([H])C(=O)C([H])(N([H])C([H])([H])[H])C([H])([H])[H])C(C([H])([H])[H])(C([H])([H])[H])C([H])([H])[H])C([H])([H])c2c([H])c(OC([H])([H])C(=O)N([H])C(c3c([H])c(F)c(N([H])C(=O)N4C([H])([H])C([H])([H])C([H])([H])C([H])(n5nc(-c6c([H])c([H])c(Oc7c([H])c([H])c(F)c([H])c7F)c([H])c6[H])c(C(=O)N([H])[H])c5N([H])[H])C4([H])[H])c([H])c3F)=[N+]([H])[H])c([H])c([H])c2C1([H])[H]

>  <smiles>  (42) 
[H]c1c([H])c([H])c2c(c1[H])C([H])([H])C([H])([H])C([H])([H])C2([H])N([H])C(=O)C1([H])N(C(=O)C([H])(N([H])C(=O)C([H])(N([H])C([H])([H])[H])C([H])([H])[H])C(C([H])([H])[H])(C([H])([H])[H])C([H])([H])[H])C([H])([H])c2c([H])c(OC([H])([H])C(=O)N([H])C(c3c([H])c(F)c(N([H])C(=O)N4C([H])([H])C([H])([H])C([H])([H])C([H])(n5nc(-c6c([H])c([H])c(Oc7c([H])c([H])c(F)c([H])c7F)c([H])c6[H])c(C(=O)N([H])[H])c5N([H])[H])C4([H])[H])c([H])c3F)=[N+]([H])[H])c([H])c([H])c2C1([H])[H]

$$$$
42:0:0
     RDKit          3D

 97105  0  0  1  0  0  0  0  0999 V2000
  -30.1800  -21.6690   20.1920 C   0  0  0  0  0  0  0  0  0  0  0  0
  -29.3570  -24.1260   20.2490 C   0  0  0  0  0  0  0  0  0  0  0  0
  -29.2100  -22.6450   20.3300 N   0  0  0  0  0  0  0  0  0  0  0  0
  -31.4190  -22.0700   19.8690 N   0  0  0  0  0  4  0  0  0  0  0  0
  -30.4810  -24.6440   20.1970 O   0  0  0  0  0  0  0  0  0  0  0  0
  -28.3010  -22.2020   20.4290 H   0  0  0  0  0  0  0  0  0  0  0  0
  -32.1460  -21.4030   19.6670 H   0  0  0  0  0  0  0  0  0  0  0  0
  -31.6110  -23.0640   19.8150 H   0  0  0  0  0  0  0  0  0  0  0  0
  -31.1220  -19.3330   20.6420 C   0  0  0  0  0  3  0  0  0  0  0  0
  -31.0730  -17.9090   20.7370 C   0  0  0  0  0  3  0  0  0  0  0  0
  -28.7130  -18.0070   20.3240 C   0  0  0  0  0  3  0  0  0  0  0  0
  -29.9860  -20.1530   20.3460 C   0  0  0  0  0  0  0  0  0  0  0  0
  -29.8610  -17.1960   20.5740 C   0  0  0  0  0  0  0  0  0  0  0  0
  -28.7580  -19.4360   20.1880 C   0  0  0  0  0  0  0  0  0  0  0  0
  -30.5500  -14.6890   20.4080 C   0  0  0  0  0  0  0  0  0  0  0  0
  -30.3560  -12.4510   19.3380 C   0  0  0  0  0  2  0  0  0  0  0  0
  -29.4100  -12.5750   18.1220 C   0  0  0  0  0  2  0  0  0  0  0  0
  -27.9390  -12.4060   18.5500 C   0  0  0  0  0  2  0  0  0  0  0  0
  -27.5740  -13.2650   19.7890 C   0  0  0  0  0  3  0  0  0  0  0  0
  -28.6330  -13.1130   20.9060 C   0  0  0  0  0  2  0  0  0  0  0  0
  -29.9410  -13.4630   20.3300 N   0  0  0  0  0  0  0  0  0  0  0  0
  -31.7200  -14.8480   20.0460 O   0  0  0  0  0  0  0  0  0  0  0  0
  -29.7220  -15.7410   20.7120 N   0  0  0  0  0  0  0  0  0  0  0  0
  -28.7890  -15.4330   20.9300 H   0  0  0  0  0  0  0  0  0  0  0  0
  -25.1800  -13.8590   20.5070 C   0  0  0  0  0  0  0  0  0  0  0  0
  -24.1140  -13.0830   20.8750 C   0  0  0  0  0  0  0  0  0  0  0  0
  -24.5780  -11.7330   20.8410 C   0  0  0  0  0  0  0  0  0  0  0  0
  -26.2260  -12.9800   20.2720 N   0  0  0  0  0  0  0  0  0  0  0  0
  -25.8690  -11.6970   20.5330 N   0  0  0  0  0  0  0  0  0  0  0  0
  -23.8540  -10.4690   21.0240 C   0  0  0  0  0  0  0  0  0  0  0  0
  -24.2780   -9.5050   21.9660 C   0  0  0  0  0  3  0  0  0  0  0  0
  -23.5540   -8.3060   22.1380 C   0  0  0  0  0  3  0  0  0  0  0  0
  -22.3920   -8.0620   21.3680 C   0  0  0  0  0  0  0  0  0  0  0  0
  -21.9880   -9.0130   20.4150 C   0  0  0  0  0  3  0  0  0  0  0  0
  -22.7130  -10.2040   20.2420 C   0  0  0  0  0  3  0  0  0  0  0  0
  -21.6410   -6.9140   21.4480 O   0  0  0  0  0  0  0  0  0  0  0  0
  -21.5650   -6.1820   22.6060 C   0  0  0  0  0  0  0  0  0  0  0  0
  -21.0790   -6.7410   23.8090 C   0  0  0  0  0  3  0  0  0  0  0  0
  -20.9540   -5.9350   24.9580 C   0  0  0  0  0  3  0  0  0  0  0  0
  -21.3030   -4.5720   24.9050 C   0  0  0  0  0  0  0  0  0  0  0  0
  -21.7820   -4.0140   23.7070 C   0  0  0  0  0  3  0  0  0  0  0  0
  -21.9100   -4.8170   22.5600 C   0  0  0  0  0  0  0  0  0  0  0  0
  -22.3520   -4.2690   21.4030 F   0  0  0  0  0  0  0  0  0  0  0  0
  -21.1750   -3.7960   26.0070 F   0  0  0  0  0  0  0  0  0  0  0  0
  -22.7140  -13.5570   21.1440 C   0  0  0  0  0  0  0  0  0  0  0  0
  -21.9870  -12.8600   22.0090 N   0  0  0  0  0  0  0  0  0  0  0  0
  -22.2760  -14.5820   20.6230 O   0  0  0  0  0  0  0  0  0  0  0  0
  -22.3540  -12.0320   22.4520 H   0  0  0  0  0  0  0  0  0  0  0  0
  -21.0480  -13.1600   22.2320 H   0  0  0  0  0  0  0  0  0  0  0  0
  -25.3390  -15.2290   20.3260 N   0  0  0  0  0  0  0  0  0  0  0  0
  -24.5550  -15.8670   20.4060 H   0  0  0  0  0  0  0  0  0  0  0  0
  -26.1490  -15.6520   19.8950 H   0  0  0  0  0  0  0  0  0  0  0  0
  -27.5600  -20.1060   19.9010 N   0  0  0  0  0  0  0  0  0  0  0  0
  -26.7330  -19.5240   19.9980 H   0  0  0  0  0  0  0  0  0  0  0  0
  -27.5240  -20.4920   18.9600 H   0  0  0  0  0  0  0  0  0  0  0  0
  -28.0710  -25.0340   20.1710 C   0  0  0  0  0  2  0  0  0  0  0  0
  -28.3050  -26.5030   20.2470 O   0  0  0  0  0  0  0  0  0  0  0  0
  -24.6120  -31.9300   23.2750 C   0  0  0  0  0  0  0  0  0  0  0  0
  -27.1860  -27.3540   20.2110 C   0  0  0  0  0  0  0  0  0  0  0  0
  -23.3960  -30.5450   21.6340 C   0  0  0  0  0  3  0  0  0  0  0  0
  -24.8320  -28.9850   20.2080 C   0  0  0  0  0  0  0  0  0  0  0  0
  -25.9380  -30.8420   21.4490 C   0  0  0  0  0  2  0  0  0  0  0  0
  -26.0060  -29.4640   20.8010 C   0  0  0  0  0  0  0  0  0  0  0  0
  -27.1870  -28.6620   20.7890 C   0  0  0  0  0  3  0  0  0  0  0  0
  -25.9830  -26.9280   19.6000 C   0  0  0  0  0  3  0  0  0  0  0  0
  -24.8230  -27.7230   19.5990 C   0  0  0  0  0  3  0  0  0  0  0  0
  -23.6030  -29.8700   20.2540 C   0  0  0  0  0  2  0  0  0  0  0  0
  -24.6670  -31.1230   22.1760 N   0  0  0  0  0  0  0  0  0  0  0  0
  -23.5310  -32.2170   23.8090 O   0  0  0  0  0  0  0  0  0  0  0  0
  -22.7240  -29.5320   22.5920 C   0  0  0  0  0  0  0  0  0  0  0  0
  -21.3970  -29.3630   22.4610 N   0  0  0  0  0  0  0  0  0  0  0  0
  -23.3960  -28.9010   23.4120 O   0  0  0  0  0  0  0  0  0  0  0  0
  -20.9150  -29.9220   21.7710 H   0  0  0  0  0  0  0  0  0  0  0  0
  -18.0090  -28.1980   22.9560 C   0  0  0  0  0  0  0  0  0  0  0  0
  -20.5690  -28.4320   23.2290 C   0  0  0  0  0  3  0  0  0  0  0  0
  -20.6590  -27.0010   22.6530 C   0  0  0  0  0  2  0  0  0  0  0  0
  -19.5540  -26.6890   21.6370 C   0  0  0  0  0  2  0  0  0  0  0  0
  -18.1730  -26.8470   22.2800 C   0  0  0  0  0  2  0  0  0  0  0  0
  -19.1340  -28.9490   23.3880 C   0  0  0  0  0  0  0  0  0  0  0  0
  -18.9260  -30.2140   23.9800 C   0  0  0  0  0  3  0  0  0  0  0  0
  -17.6260  -30.7270   24.1450 C   0  0  0  0  0  3  0  0  0  0  0  0
  -16.5150  -29.9730   23.7290 C   0  0  0  0  0  3  0  0  0  0  0  0
  -16.7070  -28.7100   23.1400 C   0  0  0  0  0  3  0  0  0  0  0  0
  -25.9000  -32.5500   23.8970 C   0  0  0  0  0  3  0  0  0  0  0  0
  -26.4080  -31.7740   25.1740 C   0  0  1  0  0  0  0  0  0  0  0  0
  -25.3100  -31.5450   26.2400 C   0  0  0  0  0  1  0  0  0  0  0  0
  -26.9800  -30.3920   24.7840 C   0  0  0  0  0  1  0  0  0  0  0  0
  -27.5630  -32.5590   25.8390 C   0  0  0  0  0  1  0  0  0  0  0  0
  -25.6030  -33.9510   24.2280 N   0  0  0  0  0  0  0  0  0  0  0  0
  -25.9180  -34.9990   23.4550 C   0  0  0  0  0  0  0  0  0  0  0  0
  -26.5610  -34.8880   22.4070 O   0  0  0  0  0  0  0  0  0  0  0  0
  -25.0300  -34.1110   25.0440 H   0  0  0  0  0  0  0  0  0  0  0  0
  -24.1780  -36.7890   23.1500 C   0  0  0  0  0  1  0  0  0  0  0  0
  -25.4490  -36.3930   23.9190 C   0  0  0  0  0  3  0  0  0  0  0  0
  -27.6080  -37.2880   24.6690 C   0  0  0  0  0  1  0  0  0  0  0  0
  -26.4770  -37.4430   23.7580 N   0  0  0  0  0  0  0  0  0  0  0  0
  -26.0750  -38.3660   23.9040 H   0  0  0  0  0  0  0  0  0  0  0  0
  1  3  1  0
  1 12  1  0
  2  3  1  0
  3  6  1  0
  4  1  2  0
  5  2  2  0
  7  4  1  0
  8  4  1  0
  9 10  1  0
 11 13  1  0
 12  9  2  0
 13 23  1  0
 13 10  2  0
 14 11  2  0
 14 12  1  0
 15 23  1  0
 16 21  1  0
 17 18  1  0
 17 16  1  0
 19 18  1  0
 19 28  1  0
 19 20  1  0
 21 15  1  0
 21 20  1  0
 22 15  2  0
 23 24  1  0
 25 26  2  0
 26 45  1  0
 27 26  1  0
 27 30  1  0
 28 25  1  0
 28 29  1  0
 29 27  2  0
 30 31  1  0
 31 32  2  0
 33 36  1  0
 33 32  1  0
 34 33  2  0
 35 34  1  0
 35 30  2  0
 36 37  1  0
 37 38  1  0
 38 39  2  0
 40 39  1  0
 40 44  1  0
 41 40  2  0
 42 37  2  0
 42 41  1  0
 43 42  1  0
 45 46  1  0
 46 49  1  0
 46 48  1  0
 47 45  2  0
 50 51  1  0
 50 25  1  0
 52 50  1  0
 53 54  1  0
 53 14  1  0
 55 53  1  0
 56 57  1  0
 56  2  1  0
 58 69  2  0
 59 57  1  0
 59 64  1  0
 60 68  1  0
 60 70  1  0
 61 67  1  0
 61 63  1  0
 62 68  1  0
 63 62  1  0
 64 63  2  0
 65 59  2  0
 66 65  1  0
 66 61  2  0
 67 60  1  0
 68 58  1  0
 70 72  2  0
 71 70  1  0
 73 71  1  0
 74 83  2  0
 74 79  1  0
 75 71  1  0
 75 79  1  0
 76 75  1  0
 77 78  1  0
 77 76  1  0
 78 74  1  0
 79 80  2  0
 80 81  1  0
 82 81  2  0
 83 82  1  0
 84 58  1  0
 84 89  1  0
 84 85  1  0
 85 88  1  1
 85 86  1  0
 87 85  1  0
 89 92  1  0
 90 94  1  0
 90 89  1  0
 91 90  2  0
 94 93  1  0
 96 97  1  0
 96 94  1  0
 96 95  1  0
M  ISO  4  15 100  23 100  56 101  57 101
M  END
>  <TORSDO>  (43) 
F 19

>  <SCORE>  (43) 
-14.837

>  <name>  (43) 
42

>  <ligand_id>  (43) 
42

>  <original_smiles>  (43) 
[H]c1c([H])c([H])c2c(c1[H])C([H])([H])C([H])([H])C([H])([H])C2([H])N([H])C(=O)C1([H])N(C(=O)C([H])(N([H])C(=O)C([H])(N([H])C([H])([H])[H])C([H])([H])[H])C(C([H])([H])[H])(C([H])([H])[H])C([H])([H])[H])C([H])([H])c2c([H])c(OC([H])([H])C(=O)N([H])C(c3c([H])c([H])c(N([H])C(=O)N4C([H])([H])C([H])([H])C([H])([H])C([H])(n5nc(-c6c([H])c([H])c(Oc7c([H])c([H])c(F)c([H])c7F)c([H])c6[H])c(C(=O)N([H])[H])c5N([H])[H])C4([H])[H])c([H])c3N([H])[H])=[N+]([H])[H])c([H])c([H])c2C1([H])[H]

>  <smiles>  (43) 
[H]c1c([H])c([H])c2c(c1[H])C([H])([H])C([H])([H])C([H])([H])C2([H])N([H])C(=O)C1([H])N(C(=O)C([H])(N([H])C(=O)C([H])(N([H])C([H])([H])[H])C([H])([H])[H])C(C([H])([H])[H])(C([H])([H])[H])C([H])([H])[H])C([H])([H])c2c([H])c(OC([H])([H])C(=O)N([H])C(c3c([H])c([H])c(N([H])C(=O)N4C([H])([H])C([H])([H])C([H])([H])C([H])(n5nc(-c6c([H])c([H])c(Oc7c([H])c([H])c(F)c([H])c7F)c([H])c6[H])c(C(=O)N([H])[H])c5N([H])[H])C4([H])[H])c([H])c3N([H])[H])=[N+]([H])[H])c([H])c([H])c2C1([H])[H]

$$$$
43:0:0
     RDKit          3D

 92100  0  0  1  0  0  0  0  0999 V2000
  -28.8930  -22.3250   19.7760 C   0  0  0  0  0  0  0  0  0  0  0  0
  -29.0710  -21.1070   20.4280 N   0  0  0  0  0  0  0  0  0  0  0  0
  -28.9610  -22.3830   18.5450 O   0  0  0  0  0  0  0  0  0  0  0  0
  -28.8170  -21.1150   21.4080 H   0  0  0  0  0  0  0  0  0  0  0  0
  -29.4310  -18.4970   20.5120 C   0  0  0  0  0  3  0  0  0  0  0  0
  -30.5370  -19.8620   18.8300 C   0  0  0  0  0  3  0  0  0  0  0  0
  -30.9160  -17.4430   18.8990 C   0  0  0  0  0  3  0  0  0  0  0  0
  -29.6440  -19.8210   19.9280 C   0  0  0  0  0  0  0  0  0  0  0  0
  -30.0660  -17.2750   20.0190 C   0  0  0  0  0  0  0  0  0  0  0  0
  -31.1480  -18.7040   18.3230 C   0  0  0  0  0  0  0  0  0  0  0  0
  -31.9780  -18.8020   17.2560 F   0  0  0  0  0  0  0  0  0  0  0  0
  -30.5950  -14.7370   20.3480 C   0  0  0  0  0  0  0  0  0  0  0  0
  -30.3740  -12.4590   19.3720 C   0  0  0  0  0  2  0  0  0  0  0  0
  -29.4420  -12.5440   18.1440 C   0  0  0  0  0  2  0  0  0  0  0  0
  -27.9700  -12.3840   18.5710 C   0  0  0  0  0  2  0  0  0  0  0  0
  -27.5990  -13.2720   19.7880 C   0  0  0  0  0  3  0  0  0  0  0  0
  -28.6560  -13.1860   20.9110 C   0  0  0  0  0  2  0  0  0  0  0  0
  -29.9570  -13.5200   20.3180 N   0  0  0  0  0  0  0  0  0  0  0  0
  -31.7900  -14.7970   20.0400 O   0  0  0  0  0  0  0  0  0  0  0  0
  -29.8450  -15.8930   20.5440 N   0  0  0  0  0  0  0  0  0  0  0  0
  -28.9480  -15.7350   20.9780 H   0  0  0  0  0  0  0  0  0  0  0  0
  -25.2130  -13.8650   20.5160 C   0  0  0  0  0  0  0  0  0  0  0  0
  -24.1470  -13.0920   20.8890 C   0  0  0  0  0  0  0  0  0  0  0  0
  -24.6100  -11.7410   20.8640 C   0  0  0  0  0  0  0  0  0  0  0  0
  -26.2560  -12.9850   20.2820 N   0  0  0  0  0  0  0  0  0  0  0  0
  -25.9010  -11.7020   20.5540 N   0  0  0  0  0  0  0  0  0  0  0  0
  -23.8840  -10.4790   21.0580 C   0  0  0  0  0  0  0  0  0  0  0  0
  -24.3260   -9.5050   21.9810 C   0  0  0  0  0  3  0  0  0  0  0  0
  -23.5990   -8.3100   22.1640 C   0  0  0  0  0  3  0  0  0  0  0  0
  -22.4150   -8.0780   21.4250 C   0  0  0  0  0  0  0  0  0  0  0  0
  -21.9910   -9.0400   20.4900 C   0  0  0  0  0  3  0  0  0  0  0  0
  -22.7180  -10.2280   20.3060 C   0  0  0  0  0  3  0  0  0  0  0  0
  -21.6580   -6.9360   21.5170 O   0  0  0  0  0  0  0  0  0  0  0  0
  -21.6350   -6.1770   22.6600 C   0  0  0  0  0  0  0  0  0  0  0  0
  -21.2560   -6.7220   23.9070 C   0  0  0  0  0  3  0  0  0  0  0  0
  -21.1780   -5.8910   25.0430 C   0  0  0  0  0  3  0  0  0  0  0  0
  -21.4720   -4.5180   24.9330 C   0  0  0  0  0  0  0  0  0  0  0  0
  -21.8440   -3.9740   23.6920 C   0  0  0  0  0  3  0  0  0  0  0  0
  -21.9230   -4.8020   22.5580 C   0  0  0  0  0  0  0  0  0  0  0  0
  -22.2620   -4.2690   21.3600 F   0  0  0  0  0  0  0  0  0  0  0  0
  -21.3910   -3.7180   26.0220 F   0  0  0  0  0  0  0  0  0  0  0  0
  -22.7500  -13.5710   21.1570 C   0  0  0  0  0  0  0  0  0  0  0  0
  -22.0200  -12.8800   22.0250 N   0  0  0  0  0  0  0  0  0  0  0  0
  -22.3140  -14.5930   20.6290 O   0  0  0  0  0  0  0  0  0  0  0  0
  -22.3860  -12.0550   22.4760 H   0  0  0  0  0  0  0  0  0  0  0  0
  -21.0820  -13.1830   22.2430 H   0  0  0  0  0  0  0  0  0  0  0  0
  -25.3770  -15.2350   20.3320 N   0  0  0  0  0  0  0  0  0  0  0  0
  -24.6080  -15.8880   20.4330 H   0  0  0  0  0  0  0  0  0  0  0  0
  -26.2200  -15.6690   19.9760 H   0  0  0  0  0  0  0  0  0  0  0  0
  -28.5460  -23.6970   20.5270 C   0  0  0  0  0  3  0  0  0  0  0  0
  -28.4200  -25.0510   19.6420 C   0  0  0  0  0  3  0  0  0  0  0  0
  -28.3360  -26.4320   20.2290 O   0  0  0  0  0  0  0  0  0  0  0  0
  -24.6170  -31.8690   23.2320 C   0  0  0  0  0  0  0  0  0  0  0  0
  -27.2020  -27.2750   20.1580 C   0  0  0  0  0  0  0  0  0  0  0  0
  -23.4020  -30.4700   21.6010 C   0  0  0  0  0  3  0  0  0  0  0  0
  -24.8400  -28.9160   20.1630 C   0  0  0  0  0  0  0  0  0  0  0  0
  -25.9430  -30.7780   21.4050 C   0  0  0  0  0  2  0  0  0  0  0  0
  -26.0150  -29.3970   20.7530 C   0  0  0  0  0  0  0  0  0  0  0  0
  -27.1950  -28.5880   20.7390 C   0  0  0  0  0  3  0  0  0  0  0  0
  -25.9970  -26.8530   19.5530 C   0  0  0  0  0  3  0  0  0  0  0  0
  -24.8370  -27.6520   19.5540 C   0  0  0  0  0  3  0  0  0  0  0  0
  -23.6060  -29.7940   20.2180 C   0  0  0  0  0  2  0  0  0  0  0  0
  -24.6730  -31.0590   22.1340 N   0  0  0  0  0  0  0  0  0  0  0  0
  -23.5360  -32.1480   23.7740 O   0  0  0  0  0  0  0  0  0  0  0  0
  -22.7450  -29.4550   22.5670 C   0  0  0  0  0  0  0  0  0  0  0  0
  -21.4180  -29.2770   22.4500 N   0  0  0  0  0  0  0  0  0  0  0  0
  -23.4280  -28.8310   23.3830 O   0  0  0  0  0  0  0  0  0  0  0  0
  -20.9240  -29.8330   21.7660 H   0  0  0  0  0  0  0  0  0  0  0  0
  -18.0450  -28.0700   22.9620 C   0  0  0  0  0  0  0  0  0  0  0  0
  -20.6040  -28.3380   23.2250 C   0  0  0  0  0  3  0  0  0  0  0  0
  -20.7080  -26.9050   22.6550 C   0  0  0  0  0  2  0  0  0  0  0  0
  -19.6050  -26.5750   21.6440 C   0  0  0  0  0  2  0  0  0  0  0  0
  -18.2250  -26.7180   22.2910 C   0  0  0  0  0  2  0  0  0  0  0  0
  -19.1630  -28.8370   23.3860 C   0  0  0  0  0  0  0  0  0  0  0  0
  -18.9410  -30.1020   23.9730 C   0  0  0  0  0  3  0  0  0  0  0  0
  -17.6340  -30.5980   24.1430 C   0  0  0  0  0  3  0  0  0  0  0  0
  -16.5330  -29.8280   23.7350 C   0  0  0  0  0  3  0  0  0  0  0  0
  -16.7380  -28.5660   23.1510 C   0  0  0  0  0  3  0  0  0  0  0  0
  -25.9040  -32.5020   23.8450 C   0  0  0  0  0  3  0  0  0  0  0  0
  -26.4290  -31.7310   25.1180 C   0  0  1  0  0  0  0  0  0  0  0  0
  -25.3460  -31.4940   26.1950 C   0  0  0  0  0  1  0  0  0  0  0  0
  -27.0080  -30.3520   24.7230 C   0  0  0  0  0  1  0  0  0  0  0  0
  -27.5830  -32.5260   25.7720 C   0  0  0  0  0  1  0  0  0  0  0  0
  -25.5920  -33.9000   24.1830 N   0  0  0  0  0  0  0  0  0  0  0  0
  -25.9140  -34.9580   23.4260 C   0  0  0  0  0  0  0  0  0  0  0  0
  -26.5740  -34.8620   22.3880 O   0  0  0  0  0  0  0  0  0  0  0  0
  -25.0030  -34.0480   24.9880 H   0  0  0  0  0  0  0  0  0  0  0  0
  -24.1750  -36.7490   23.1030 C   0  0  0  0  0  1  0  0  0  0  0  0
  -25.4280  -36.3430   23.8950 C   0  0  0  0  0  3  0  0  0  0  0  0
  -27.5730  -37.2310   24.6990 C   0  0  0  0  0  1  0  0  0  0  0  0
  -26.4550  -37.4020   23.7750 N   0  0  0  0  0  0  0  0  0  0  0  0
  -26.0460  -38.3190   23.9370 H   0  0  0  0  0  0  0  0  0  0  0  0
  1  2  1  0
  1 50  1  0
  2  4  1  0
  3  1  2  0
  6  8  1  0
  7  9  2  0
  8  2  1  0
  8  5  2  0
  9  5  1  0
  9 20  1  0
 10  6  2  0
 10  7  1  0
 11 10  1  0
 12 20  1  0
 13 18  1  0
 14 15  1  0
 14 13  1  0
 16 15  1  0
 16 25  1  0
 16 17  1  0
 18 12  1  0
 18 17  1  0
 19 12  2  0
 20 21  1  0
 22 23  2  0
 23 42  1  0
 24 23  1  0
 24 27  1  0
 25 22  1  0
 25 26  1  0
 26 24  2  0
 27 28  1  0
 28 29  2  0
 30 33  1  0
 30 29  1  0
 31 30  2  0
 32 31  1  0
 32 27  2  0
 33 34  1  0
 34 35  1  0
 35 36  2  0
 37 36  1  0
 37 41  1  0
 38 37  2  0
 39 34  2  0
 39 38  1  0
 40 39  1  0
 42 43  1  0
 43 46  1  0
 43 45  1  0
 44 42  2  0
 47 48  1  0
 47 22  1  0
 49 47  1  0
 51 52  1  0
 51 50  2  0
 53 64  2  0
 54 52  1  0
 54 59  1  0
 55 63  1  0
 55 65  1  0
 56 62  1  0
 56 58  1  0
 57 63  1  0
 58 57  1  0
 59 58  2  0
 60 61  1  0
 60 54  2  0
 61 56  2  0
 62 55  1  0
 63 53  1  0
 65 67  2  0
 66 65  1  0
 68 66  1  0
 69 78  2  0
 69 74  1  0
 70 66  1  0
 70 74  1  0
 71 70  1  0
 72 73  1  0
 72 71  1  0
 73 69  1  0
 74 75  2  0
 75 76  1  0
 77 76  2  0
 78 77  1  0
 79 53  1  0
 79 84  1  0
 79 80  1  0
 80 83  1  1
 80 81  1  0
 82 80  1  0
 84 87  1  0
 85 89  1  0
 85 84  1  0
 86 85  2  0
 89 88  1  0
 91 89  1  0
 91 92  1  0
 91 90  1  0
M  ISO  4  12 100  20 100  51 101  52 101
M  END
>  <TORSDO>  (44) 
F 19

>  <SCORE>  (44) 
-14.203

>  <name>  (44) 
43

>  <ligand_id>  (44) 
43

>  <original_smiles>  (44) 
[H]c1c([H])c([H])c2c(c1[H])C([H])([H])C([H])([H])C([H])([H])C2([H])N([H])C(=O)C1([H])N(C(=O)C([H])(N([H])C(=O)C([H])(N([H])C([H])([H])[H])C([H])([H])[H])C(C([H])([H])[H])(C([H])([H])[H])C([H])([H])[H])C([H])([H])c2c([H])c(OC([H])([H])C([H])([H])C(=O)N([H])c3c([H])c(F)c([H])c(N([H])C(=O)N4C([H])([H])C([H])([H])C([H])([H])C([H])(n5nc(-c6c([H])c([H])c(Oc7c([H])c([H])c(F)c([H])c7F)c([H])c6[H])c(C(=O)N([H])[H])c5N([H])[H])C4([H])[H])c3[H])c([H])c([H])c2C1([H])[H]

>  <smiles>  (44) 
[H]c1c([H])c([H])c2c(c1[H])C([H])([H])C([H])([H])C([H])([H])C2([H])N([H])C(=O)C1([H])N(C(=O)C([H])(N([H])C(=O)C([H])(N([H])C([H])([H])[H])C([H])([H])[H])C(C([H])([H])[H])(C([H])([H])[H])C([H])([H])[H])C([H])([H])c2c([H])c(OC([H])([H])C([H])([H])C(=O)N([H])c3c([H])c(F)c([H])c(N([H])C(=O)N4C([H])([H])C([H])([H])C([H])([H])C([H])(n5nc(-c6c([H])c([H])c(Oc7c([H])c([H])c(F)c([H])c7F)c([H])c6[H])c(C(=O)N([H])[H])c5N([H])[H])C4([H])[H])c3[H])c([H])c([H])c2C1([H])[H]

$$$$
44:0:0
     RDKit          3D

 93 99  0  0  1  0  0  0  0  0999 V2000
  -31.8710  -23.1510   21.4470 C   0  0  0  0  0  0  0  0  0  0  0  0
  -31.2960  -23.9060   20.5160 N   0  0  0  0  0  0  0  0  0  0  0  0
  -33.0580  -23.3020   21.7490 O   0  0  0  0  0  0  0  0  0  0  0  0
  -31.7580  -24.6630   20.0310 H   0  0  0  0  0  0  0  0  0  0  0  0
  -27.3680  -23.0570   21.6470 C   0  0  0  0  0  2  0  0  0  0  0  0
  -28.8370  -24.2020   21.6840 C   0  0  0  0  0  2  0  0  0  0  0  0
  -27.4150  -21.5770   20.6310 C   0  0  0  0  0  2  0  0  0  0  0  0
  -29.6400  -22.0390   19.4990 C   0  0  0  0  0  2  0  0  0  0  0  0
  -29.9650  -23.6110   20.3230 C   0  0  0  0  0  3  0  0  0  0  0  0
  -28.6900  -20.6210   19.8910 C   0  0  0  0  0  2  0  0  0  0  0  0
  -29.6740  -16.7890   19.6820 C   0  0  0  0  0  0  0  0  0  0  0  0
  -30.0440  -13.9390   18.8990 C   0  0  0  0  0  2  0  0  0  0  0  0
  -29.2520  -12.9900   17.8810 C   0  0  0  0  0  2  0  0  0  0  0  0
  -27.9980  -12.3610   18.4890 C   0  0  0  0  0  2  0  0  0  0  0  0
  -27.3830  -13.3960   19.4360 C   0  0  0  0  0  3  0  0  0  0  0  0
  -28.3850  -14.1970   20.3780 C   0  0  0  0  0  2  0  0  0  0  0  0
  -29.2770  -15.2010   19.5940 N   0  0  0  0  0  0  0  0  0  0  0  0
  -30.9130  -16.5150   19.5070 O   0  0  0  0  0  0  0  0  0  0  0  0
  -28.9250  -18.4940   19.7930 N   0  0  0  0  0  2  0  0  0  0  0  0
  -27.9760  -18.1720   19.9310 H   0  0  0  0  0  0  0  0  0  0  0  0
  -25.0760  -13.7640   20.3610 C   0  0  0  0  0  0  0  0  0  0  0  0
  -24.0750  -12.9540   20.8050 C   0  0  0  0  0  0  0  0  0  0  0  0
  -24.5880  -11.6200   20.7600 C   0  0  0  0  0  0  0  0  0  0  0  0
  -26.1450  -12.9450   20.0750 N   0  0  0  0  0  0  0  0  0  0  0  0
  -25.8660  -11.6360   20.3590 N   0  0  0  0  0  0  0  0  0  0  0  0
  -23.8970  -10.3420   21.0230 C   0  0  0  0  0  0  0  0  0  0  0  0
  -24.3700   -9.4220   21.9850 C   0  0  0  0  0  3  0  0  0  0  0  0
  -23.6650   -8.2240   22.2440 C   0  0  0  0  0  3  0  0  0  0  0  0
  -22.4690   -7.9350   21.5430 C   0  0  0  0  0  0  0  0  0  0  0  0
  -22.0110   -8.8440   20.5740 C   0  0  0  0  0  3  0  0  0  0  0  0
  -22.7170  -10.0330   20.3130 C   0  0  0  0  0  3  0  0  0  0  0  0
  -21.7340   -6.7850   21.7080 O   0  0  0  0  0  0  0  0  0  0  0  0
  -21.7190   -6.1010   22.8980 C   0  0  0  0  0  0  0  0  0  0  0  0
  -21.3010   -6.7120   24.1010 C   0  0  0  0  0  3  0  0  0  0  0  0
  -21.2320   -5.9560   25.2890 C   0  0  0  0  0  3  0  0  0  0  0  0
  -21.5730   -4.5900   25.2760 C   0  0  0  0  0  0  0  0  0  0  0  0
  -21.9840   -3.9780   24.0790 C   0  0  0  0  0  3  0  0  0  0  0  0
  -22.0530   -4.7320   22.8930 C   0  0  0  0  0  0  0  0  0  0  0  0
  -22.4290   -4.1310   21.7380 F   0  0  0  0  0  0  0  0  0  0  0  0
  -21.5030   -3.8610   26.4150 F   0  0  0  0  0  0  0  0  0  0  0  0
  -22.6840  -13.3990   21.1470 C   0  0  0  0  0  0  0  0  0  0  0  0
  -22.0350  -12.7160   22.0810 N   0  0  0  0  0  0  0  0  0  0  0  0
  -22.1890  -14.3980   20.6240 O   0  0  0  0  0  0  0  0  0  0  0  0
  -22.4520  -11.9120   22.5250 H   0  0  0  0  0  0  0  0  0  0  0  0
  -21.1050  -13.0000   22.3560 H   0  0  0  0  0  0  0  0  0  0  0  0
  -25.1620  -15.1360   20.1360 N   0  0  0  0  0  0  0  0  0  0  0  0
  -24.3700  -15.7550   20.2730 H   0  0  0  0  0  0  0  0  0  0  0  0
  -25.9640  -15.5990   19.7300 H   0  0  0  0  0  0  0  0  0  0  0  0
  -31.2930  -22.0940   23.6510 C   0  0  0  0  0  1  0  0  0  0  0  0
  -31.5480  -20.6710   21.6480 C   0  0  0  0  0  1  0  0  0  0  0  0
  -30.9920  -22.0380   22.1280 C   0  0  2  0  0  0  0  0  0  0  0  0
  -29.3620  -22.1220   21.8830 C   0  0  0  0  0  1  0  0  0  0  0  0
  -27.9190  -24.1020   19.9030 O   0  0  0  0  0  1  0  0  0  0  0  0
  -24.6370  -31.5720   22.9530 C   0  0  0  0  0  0  0  0  0  0  0  0
  -27.2010  -25.7980   19.9980 C   0  0  0  0  0  0  0  0  0  0  0  0
  -23.5060  -30.1520   21.3080 C   0  0  0  0  0  3  0  0  0  0  0  0
  -24.9920  -28.3570   19.9440 C   0  0  0  0  0  0  0  0  0  0  0  0
  -26.1110  -30.0560   21.3200 C   0  0  0  0  0  2  0  0  0  0  0  0
  -26.1850  -28.5360   20.6540 C   0  0  0  0  0  0  0  0  0  0  0  0
  -27.2190  -27.3130   20.6510 C   0  0  0  0  0  3  0  0  0  0  0  0
  -25.9880  -26.0800   19.2180 C   0  0  0  0  0  3  0  0  0  0  0  0
  -24.9840  -27.1550   19.2010 C   0  0  0  0  0  3  0  0  0  0  0  0
  -23.8100  -29.3970   19.9640 C   0  0  0  0  0  2  0  0  0  0  0  0
  -24.7860  -30.6490   21.9120 N   0  0  0  0  0  0  0  0  0  0  0  0
  -23.5210  -31.9000   23.4060 O   0  0  0  0  0  0  0  0  0  0  0  0
  -22.7060  -29.2440   22.2900 C   0  0  0  0  0  0  0  0  0  0  0  0
  -21.3600  -29.1720   22.1900 N   0  0  0  0  0  0  0  0  0  0  0  0
  -23.3240  -28.5890   23.1300 O   0  0  0  0  0  0  0  0  0  0  0  0
  -20.8980  -29.7460   21.4980 H   0  0  0  0  0  0  0  0  0  0  0  0
  -17.9270  -28.0720   22.8040 C   0  0  0  0  0  0  0  0  0  0  0  0
  -20.5090  -28.2430   22.9570 C   0  0  0  0  0  3  0  0  0  0  0  0
  -20.5240  -26.8320   22.3220 C   0  0  0  0  0  2  0  0  0  0  0  0
  -19.3730  -26.6000   21.3390 C   0  0  0  0  0  2  0  0  0  0  0  0
  -18.0240  -26.7580   22.0460 C   0  0  0  0  0  2  0  0  0  0  0  0
  -19.0910  -28.7780   23.2160 C   0  0  0  0  0  0  0  0  0  0  0  0
  -18.9360  -30.0040   23.8990 C   0  0  0  0  0  3  0  0  0  0  0  0
  -17.6560  -30.5260   24.1640 C   0  0  0  0  0  3  0  0  0  0  0  0
  -16.5090  -29.8200   23.7600 C   0  0  0  0  0  3  0  0  0  0  0  0
  -16.6460  -28.5920   23.0870 C   0  0  0  0  0  3  0  0  0  0  0  0
  -25.8500  -32.2770   23.6440 C   0  0  0  0  0  3  0  0  0  0  0  0
  -26.3300  -31.5260   24.9480 C   0  0  1  0  0  0  0  0  0  0  0  0
  -25.2040  -31.2790   25.9830 C   0  0  0  0  0  1  0  0  0  0  0  0
  -26.9470  -30.1530   24.6130 C   0  0  0  0  0  1  0  0  0  0  0  0
  -27.4490  -32.3400   25.6410 C   0  0  0  0  0  1  0  0  0  0  0  0
  -25.4730  -33.6690   24.0090 N   0  0  0  0  0  0  0  0  0  0  0  0
  -25.8090  -34.7820   23.3390 C   0  0  0  0  0  0  0  0  0  0  0  0
  -26.5020  -34.7480   22.3200 O   0  0  0  0  0  0  0  0  0  0  0  0
  -24.8530  -33.7650   24.8000 H   0  0  0  0  0  0  0  0  0  0  0  0
  -24.0580  -36.5880   23.0910 C   0  0  0  0  0  1  0  0  0  0  0  0
  -25.3080  -36.1460   23.8720 C   0  0  0  0  0  3  0  0  0  0  0  0
  -27.4280  -37.0380   24.7460 C   0  0  0  0  0  1  0  0  0  0  0  0
  -26.3240  -37.2240   23.8080 N   0  0  0  0  0  0  0  0  0  0  0  0
  -25.9020  -38.1300   23.9900 H   0  0  0  0  0  0  0  0  0  0  0  0
  1  3  2  0
  1 51  1  0
  2  1  1  0
  4  2  1  0
  5  6  1  0
  7  5  1  0
  8 10  1  0
  8  9  1  0
  9  2  1  0
  9  6  1  0
 10  7  1  0
 11 19  1  0
 12 17  1  0
 13 14  1  0
 13 12  1  0
 15 14  1  0
 15 24  1  0
 15 16  1  0
 17 11  1  0
 17 16  1  0
 18 11  2  0
 19 20  1  0
 21 22  2  0
 22 41  1  0
 23 22  1  0
 23 26  1  0
 24 25  1  0
 24 21  1  0
 25 23  2  0
 26 27  1  0
 27 28  2  0
 29 32  1  0
 29 28  1  0
 30 29  2  0
 31 30  1  0
 31 26  2  0
 32 33  1  0
 33 34  1  0
 34 35  2  0
 36 35  1  0
 36 40  1  0
 37 36  2  0
 38 33  2  0
 38 37  1  0
 39 38  1  0
 41 42  1  0
 42 45  1  0
 42 44  1  0
 43 41  2  0
 46 47  1  0
 46 21  1  0
 48 46  1  0
 51 50  1  6
 51 49  1  0
 52 51  1  0
 53 55  1  0
 54 65  2  0
 55 60  1  0
 56 64  1  0
 56 66  1  0
 57 63  1  0
 57 59  1  0
 58 64  1  0
 59 58  1  0
 60 59  2  0
 61 55  2  0
 62 61  1  0
 62 57  2  0
 63 56  1  0
 64 54  1  0
 66 68  2  0
 67 66  1  0
 69 67  1  0
 70 79  2  0
 70 75  1  0
 71 67  1  0
 71 75  1  0
 72 71  1  0
 73 74  1  0
 73 72  1  0
 74 70  1  0
 75 76  2  0
 76 77  1  0
 78 77  2  0
 79 78  1  0
 80 54  1  0
 80 85  1  0
 80 81  1  0
 81 84  1  1
 81 82  1  0
 83 81  1  0
 85 88  1  0
 86 90  1  0
 86 85  1  0
 87 86  2  0
 90 89  1  0
 92 90  1  0
 92 93  1  0
 92 91  1  0
M  ISO  4  11 100  19 100  52 101  53 101
M  END
>  <TORSDO>  (45) 
F 19

>  <SCORE>  (45) 
-11.924

>  <name>  (45) 
44

>  <ligand_id>  (45) 
44

>  <original_smiles>  (45) 
[H]c1c([H])c(N([H])C(=O)N2C([H])([H])C([H])([H])C([H])([H])C([H])(n3nc(-c4c([H])c([H])c(Oc5c([H])c([H])c(F)c([H])c5F)c([H])c4[H])c(C(=O)N([H])[H])c3N([H])[H])C2([H])[H])c([H])c(N([H])C(=O)C(C([H])([H])[H])(C([H])([H])[H])C([H])([H])Oc2c([H])c([H])c3c(c2[H])C([H])([H])N(C(=O)C([H])(N([H])C(=O)C([H])(N([H])C([H])([H])[H])C([H])([H])[H])C(C([H])([H])[H])(C([H])([H])[H])C([H])([H])[H])C([H])(C(=O)N([H])C2([H])c4c([H])c([H])c([H])c([H])c4C([H])([H])C([H])([H])C2([H])[H])C3([H])[H])c1[H]

>  <smiles>  (45) 
[H]c1c([H])c(N([H])C(=O)N2C([H])([H])C([H])([H])C([H])([H])C([H])(n3nc(-c4c([H])c([H])c(Oc5c([H])c([H])c(F)c([H])c5F)c([H])c4[H])c(C(=O)N([H])[H])c3N([H])[H])C2([H])[H])c([H])c(N([H])C(=O)C(C([H])([H])[H])(C([H])([H])[H])C([H])([H])Oc2c([H])c([H])c3c(c2[H])C([H])([H])N(C(=O)C([H])(N([H])C(=O)C([H])(N([H])C([H])([H])[H])C([H])([H])[H])C(C([H])([H])[H])(C([H])([H])[H])C([H])([H])[H])C([H])(C(=O)N([H])C2([H])c4c([H])c([H])c([H])c([H])c4C([H])([H])C([H])([H])C2([H])[H])C3([H])[H])c1[H]

$$$$
45:0:0
     RDKit          3D

 95104  0  0  1  0  0  0  0  0999 V2000
  -28.4590  -23.3820   20.3300 C   0  0  0  0  0  0  0  0  0  0  0  0
  -29.4040  -22.6540   21.0460 C   0  0  0  0  0  0  0  0  0  0  0  0
  -27.7510  -22.5120   19.3860 C   0  0  0  0  0  0  0  0  0  0  0  0
  -29.7590  -21.1550   20.8970 C   0  0  0  0  0  0  0  0  0  0  0  0
  -26.9780  -23.0520   18.4270 C   0  0  0  0  0  2  0  0  0  0  0  0
  -27.8470  -20.9590   19.4410 C   0  0  0  0  0  2  0  0  0  0  0  0
  -30.1830  -23.3560   22.1560 C   0  0  0  0  0  1  0  0  0  0  0  0
  -28.9670  -20.2740   20.1700 N   0  0  0  0  0  0  0  0  0  0  0  0
  -30.7550  -20.6940   21.4650 O   0  0  0  0  0  0  0  0  0  0  0  0
  -29.3840  -17.7840   17.7770 C   0  0  0  0  0  3  0  0  0  0  0  0
  -30.7690  -17.6660   18.0560 C   0  0  0  0  0  3  0  0  0  0  0  0
  -28.5160  -18.2680   18.7870 C   0  0  0  0  0  2  0  0  0  0  0  0
  -31.2080  -17.7750   19.3980 C   0  0  0  0  0  2  0  0  0  0  0  0
  -29.1300  -18.7340   19.9780 C   0  0  0  0  0  3  0  0  0  0  0  0
  -30.1780  -17.7470   20.3620 C   0  0  0  0  0  3  0  0  0  0  0  0
  -30.5940  -15.0590   20.5720 C   0  0  0  0  0  0  0  0  0  0  0  0
  -30.4360  -12.7240   19.6220 C   0  0  0  0  0  2  0  0  0  0  0  0
  -29.5470  -12.7130   18.3590 C   0  0  0  0  0  2  0  0  0  0  0  0
  -28.0720  -12.5060   18.7480 C   0  0  0  0  0  2  0  0  0  0  0  0
  -27.6350  -13.4340   19.9110 C   0  0  0  0  0  3  0  0  0  0  0  0
  -28.6540  -13.4430   21.0710 C   0  0  0  0  0  2  0  0  0  0  0  0
  -29.9550  -13.8240   20.5060 N   0  0  0  0  0  0  0  0  0  0  0  0
  -31.8110  -15.0630   20.3580 O   0  0  0  0  0  0  0  0  0  0  0  0
  -29.8580  -16.2740   20.6870 N   0  0  0  0  0  0  0  0  0  0  0  0
  -28.8860  -16.1160   20.9010 H   0  0  0  0  0  0  0  0  0  0  0  0
  -25.2240  -14.0100   20.5520 C   0  0  0  0  0  0  0  0  0  0  0  0
  -24.1500  -13.2340   20.8880 C   0  0  0  0  0  0  0  0  0  0  0  0
  -24.6210  -11.8840   20.8920 C   0  0  0  0  0  0  0  0  0  0  0  0
  -26.2820  -13.1340   20.3670 N   0  0  0  0  0  0  0  0  0  0  0  0
  -25.9250  -11.8520   20.6380 N   0  0  0  0  0  0  0  0  0  0  0  0
  -23.8910  -10.6220   21.0670 C   0  0  0  0  0  0  0  0  0  0  0  0
  -24.2870   -9.6670   22.0290 C   0  0  0  0  0  3  0  0  0  0  0  0
  -23.5580   -8.4680   22.1900 C   0  0  0  0  0  3  0  0  0  0  0  0
  -22.4180   -8.2180   21.3910 C   0  0  0  0  0  0  0  0  0  0  0  0
  -22.0420   -9.1590   20.4180 C   0  0  0  0  0  3  0  0  0  0  0  0
  -22.7720  -10.3490   20.2540 C   0  0  0  0  0  3  0  0  0  0  0  0
  -21.6620   -7.0710   21.4630 O   0  0  0  0  0  0  0  0  0  0  0  0
  -21.5620   -6.3460   22.6220 C   0  0  0  0  0  0  0  0  0  0  0  0
  -21.0570   -6.9120   23.8140 C   0  0  0  0  0  3  0  0  0  0  0  0
  -20.9050   -6.1120   24.9640 C   0  0  0  0  0  3  0  0  0  0  0  0
  -21.2470   -4.7470   24.9240 C   0  0  0  0  0  0  0  0  0  0  0  0
  -21.7450   -4.1800   23.7380 C   0  0  0  0  0  3  0  0  0  0  0  0
  -21.8990   -4.9770   22.5890 C   0  0  0  0  0  0  0  0  0  0  0  0
  -22.3570   -4.4220   21.4420 F   0  0  0  0  0  0  0  0  0  0  0  0
  -21.0950   -3.9770   26.0260 F   0  0  0  0  0  0  0  0  0  0  0  0
  -22.7400  -13.7040   21.0930 C   0  0  0  0  0  0  0  0  0  0  0  0
  -21.9820  -13.0180   21.9420 N   0  0  0  0  0  0  0  0  0  0  0  0
  -22.3190  -14.7190   20.5380 O   0  0  0  0  0  0  0  0  0  0  0  0
  -22.3360  -12.2000   22.4130 H   0  0  0  0  0  0  0  0  0  0  0  0
  -21.0350  -13.3140   22.1210 H   0  0  0  0  0  0  0  0  0  0  0  0
  -25.3880  -15.3790   20.3620 N   0  0  0  0  0  0  0  0  0  0  0  0
  -24.6100  -16.0280   20.4150 H   0  0  0  0  0  0  0  0  0  0  0  0
  -26.2450  -15.8170   20.0490 H   0  0  0  0  0  0  0  0  0  0  0  0
  -27.8500  -24.8680   20.7550 C   0  0  0  0  0  2  0  0  0  0  0  0
  -28.1750  -26.2830   20.2140 O   0  0  0  0  0  0  0  0  0  0  0  0
  -24.5260  -31.9490   23.2480 C   0  0  0  0  0  0  0  0  0  0  0  0
  -27.1290  -27.2720   20.1980 C   0  0  0  0  0  0  0  0  0  0  0  0
  -23.3320  -30.5430   21.6130 C   0  0  0  0  0  3  0  0  0  0  0  0
  -24.7870  -28.9840   20.1830 C   0  0  0  0  0  0  0  0  0  0  0  0
  -25.8830  -30.8320   21.4410 C   0  0  0  0  0  2  0  0  0  0  0  0
  -25.9650  -29.4410   20.7900 C   0  0  0  0  0  0  0  0  0  0  0  0
  -27.1410  -28.6010   20.7830 C   0  0  0  0  0  3  0  0  0  0  0  0
  -25.9290  -26.9230   19.5420 C   0  0  0  0  0  3  0  0  0  0  0  0
  -24.7800  -27.7370   19.5450 C   0  0  0  0  0  3  0  0  0  0  0  0
  -23.5540  -29.8720   20.2320 C   0  0  0  0  0  2  0  0  0  0  0  0
  -24.5990  -31.1300   22.1550 N   0  0  0  0  0  0  0  0  0  0  0  0
  -23.4400  -32.2260   23.7800 O   0  0  0  0  0  0  0  0  0  0  0  0
  -22.6680  -29.5290   22.5760 C   0  0  0  0  0  0  0  0  0  0  0  0
  -21.3430  -29.3370   22.4490 N   0  0  0  0  0  0  0  0  0  0  0  0
  -23.3470  -28.9170   23.4050 O   0  0  0  0  0  0  0  0  0  0  0  0
  -20.8510  -29.8930   21.7620 H   0  0  0  0  0  0  0  0  0  0  0  0
  -17.9800  -28.0730   22.9220 C   0  0  0  0  0  0  0  0  0  0  0  0
  -20.5300  -28.3890   23.2170 C   0  0  0  0  0  3  0  0  0  0  0  0
  -20.6670  -26.9540   22.6560 C   0  0  0  0  0  2  0  0  0  0  0  0
  -19.5840  -26.6030   21.6300 C   0  0  0  0  0  2  0  0  0  0  0  0
  -18.1940  -26.7210   22.2610 C   0  0  0  0  0  2  0  0  0  0  0  0
  -19.0790  -28.8610   23.3570 C   0  0  0  0  0  0  0  0  0  0  0  0
  -18.8280  -30.1240   23.9360 C   0  0  0  0  0  3  0  0  0  0  0  0
  -17.5130  -30.5990   24.0840 C   0  0  0  0  0  3  0  0  0  0  0  0
  -16.4280  -29.8100   23.6650 C   0  0  0  0  0  3  0  0  0  0  0  0
  -16.6630  -28.5490   23.0880 C   0  0  0  0  0  3  0  0  0  0  0  0
  -25.8020  -32.5960   23.8670 C   0  0  0  0  0  3  0  0  0  0  0  0
  -25.4850  -33.9990   24.1860 N   0  0  0  0  0  0  0  0  0  0  0  0
  -25.8200  -35.0480   23.4240 C   0  0  0  0  0  0  0  0  0  0  0  0
  -26.4950  -34.9400   22.3970 O   0  0  0  0  0  0  0  0  0  0  0  0
  -24.8810  -34.1560   24.9790 H   0  0  0  0  0  0  0  0  0  0  0  0
  -24.1010  -36.8470   23.0440 C   0  0  0  0  0  1  0  0  0  0  0  0
  -25.3310  -36.4410   23.8720 C   0  0  0  0  0  3  0  0  0  0  0  0
  -27.4550  -37.3250   24.7320 C   0  0  0  0  0  1  0  0  0  0  0  0
  -26.3680  -37.4910   23.7690 N   0  0  0  0  0  0  0  0  0  0  0  0
  -25.9620  -38.4120   23.9050 H   0  0  0  0  0  0  0  0  0  0  0  0
  -26.3140  -31.8420   25.1560 C   0  0  1  0  0  0  0  0  0  0  0  0
  -25.2170  -31.6140   26.2230 C   0  0  0  0  0  1  0  0  0  0  0  0
  -26.9030  -30.4620   24.7870 C   0  0  0  0  0  1  0  0  0  0  0  0
  -27.4590  -32.6470   25.8110 C   0  0  0  0  0  1  0  0  0  0  0  0
  1 54  1  0
  1  2  2  0
  2  7  1  0
  3  6  1  0
  3  1  1  0
  4  2  1  0
  4  9  2  0
  5  3  2  0
  6  8  1  0
  8  4  1  0
 10 11  2  0
 10 12  1  0
 11 13  1  0
 13 15  1  0
 14 12  1  0
 14  8  1  0
 14 15  1  0
 15 24  1  0
 16 24  1  0
 17 22  1  0
 18 19  1  0
 18 17  1  0
 20 19  1  0
 20 29  1  0
 20 21  1  0
 22 16  1  0
 22 21  1  0
 23 16  2  0
 24 25  1  0
 26 27  2  0
 27 28  1  0
 27 46  1  0
 28 31  1  0
 29 26  1  0
 29 30  1  0
 30 28  2  0
 31 32  1  0
 32 33  2  0
 34 37  1  0
 34 33  1  0
 35 34  2  0
 36 35  1  0
 36 31  2  0
 37 38  1  0
 38 39  1  0
 39 40  2  0
 41 40  1  0
 41 45  1  0
 42 41  2  0
 43 38  2  0
 43 42  1  0
 44 43  1  0
 46 47  1  0
 47 50  1  0
 47 49  1  0
 48 46  2  0
 51 52  1  0
 51 26  1  0
 53 51  1  0
 55 54  1  0
 56 67  2  0
 57 55  1  0
 57 62  1  0
 58 66  1  0
 58 68  1  0
 59 65  1  0
 59 61  1  0
 60 66  1  0
 61 60  1  0
 62 61  2  0
 63 64  1  0
 63 57  2  0
 64 59  2  0
 65 58  1  0
 66 56  1  0
 68 70  2  0
 69 68  1  0
 71 69  1  0
 72 81  2  0
 72 77  1  0
 73 69  1  0
 73 77  1  0
 74 73  1  0
 75 76  1  0
 75 74  1  0
 76 72  1  0
 77 78  2  0
 78 79  1  0
 80 79  2  0
 81 80  1  0
 82 56  1  0
 82 83  1  0
 82 92  1  0
 83 86  1  0
 84 88  1  0
 84 83  1  0
 85 84  2  0
 88 87  1  0
 90 88  1  0
 90 91  1  0
 90 89  1  0
 92 95  1  1
 92 93  1  0
 94 92  1  0
M  ISO  4  16 100  24 100  54 101  55 101
M  END
>  <TORSDO>  (46) 
F 18

>  <SCORE>  (46) 
-14.890

>  <name>  (46) 
45

>  <ligand_id>  (46) 
45

>  <original_smiles>  (46) 
[H]C([H])=C1C(C([H])([H])Oc2c([H])c([H])c3c(c2[H])C([H])([H])N(C(=O)C([H])(N([H])C(=O)C([H])(N([H])C([H])([H])[H])C([H])([H])[H])C(C([H])([H])[H])(C([H])([H])[H])C([H])([H])[H])C([H])(C(=O)N([H])C2([H])c4c([H])c([H])c([H])c([H])c4C([H])([H])C([H])([H])C2([H])[H])C3([H])[H])=C(C([H])([H])[H])C(=O)N(c2c([H])c([H])c([H])c([H])c2N([H])C(=O)N2C([H])([H])C([H])([H])C([H])([H])C([H])(n3nc(-c4c([H])c([H])c(Oc5c([H])c([H])c(F)c([H])c5F)c([H])c4[H])c(C(=O)N([H])[H])c3N([H])[H])C2([H])[H])C1([H])[H]

>  <smiles>  (46) 
[H]C([H])=C1C(C([H])([H])Oc2c([H])c([H])c3c(c2[H])C([H])([H])N(C(=O)C([H])(N([H])C(=O)C([H])(N([H])C([H])([H])[H])C([H])([H])[H])C(C([H])([H])[H])(C([H])([H])[H])C([H])([H])[H])C([H])(C(=O)N([H])C2([H])c4c([H])c([H])c([H])c([H])c4C([H])([H])C([H])([H])C2([H])[H])C3([H])[H])=C(C([H])([H])[H])C(=O)N(c2c([H])c([H])c([H])c([H])c2N([H])C(=O)N2C([H])([H])C([H])([H])C([H])([H])C([H])(n3nc(-c4c([H])c([H])c(Oc5c([H])c([H])c(F)c([H])c5F)c([H])c4[H])c(C(=O)N([H])[H])c3N([H])[H])C2([H])[H])C1([H])[H]

$$$$
46:0:0
     RDKit          3D

 94103  0  0  1  0  0  0  0  0999 V2000
  -30.9550  -19.8100   19.8220 C   0  0  0  0  0  3  0  0  0  0  0  0
  -31.1720  -18.3980   19.7730 C   0  0  0  0  0  3  0  0  0  0  0  0
  -29.0300  -19.4770   21.1520 C   0  0  0  0  0  3  0  0  0  0  0  0
  -29.8550  -20.4350   20.4810 C   0  0  0  0  0  0  0  0  0  0  0  0
  -30.2800  -17.4610   20.3720 C   0  0  0  0  0  0  0  0  0  0  0  0
  -29.2150  -18.0540   21.0990 C   0  0  0  0  0  0  0  0  0  0  0  0
  -28.2960  -17.2460   21.6790 F   0  0  0  0  0  0  0  0  0  0  0  0
  -30.9350  -14.9570   20.5220 C   0  0  0  0  0  0  0  0  0  0  0  0
  -30.8110  -12.5710   19.7620 C   0  0  0  0  0  2  0  0  0  0  0  0
  -29.9280  -12.3970   18.5050 C   0  0  0  0  0  2  0  0  0  0  0  0
  -28.4290  -12.3290   18.8600 C   0  0  0  0  0  2  0  0  0  0  0  0
  -27.9780  -13.3420   19.9460 C   0  0  0  0  0  3  0  0  0  0  0  0
  -28.9890  -13.4280   21.1090 C   0  0  0  0  0  2  0  0  0  0  0  0
  -30.3010  -13.7280   20.5200 N   0  0  0  0  0  0  0  0  0  0  0  0
  -32.1660  -15.0000   20.5640 O   0  0  0  0  0  0  0  0  0  0  0  0
  -29.8780  -15.9500   18.6510 C   0  0  0  0  0  0  0  0  0  0  0  0
  -28.6110  -16.6770   18.1890 C   0  0  0  0  0  1  0  0  0  0  0  0
  -30.2520  -16.0400   19.9550 N   0  0  0  0  0  0  0  0  0  0  0  0
  -30.5910  -15.4560   17.7720 O   0  0  0  0  0  0  0  0  0  0  0  0
  -25.5710  -13.9810   20.5620 C   0  0  0  0  0  0  0  0  0  0  0  0
  -24.4770  -13.2230   20.8770 C   0  0  0  0  0  0  0  0  0  0  0  0
  -24.9290  -11.8680   20.8960 C   0  0  0  0  0  0  0  0  0  0  0  0
  -26.6160  -13.0850   20.3980 N   0  0  0  0  0  0  0  0  0  0  0  0
  -26.2340  -11.8130   20.6680 N   0  0  0  0  0  0  0  0  0  0  0  0
  -24.1850  -10.6140   21.0620 C   0  0  0  0  0  0  0  0  0  0  0  0
  -24.5610   -9.6570   22.0280 C   0  0  0  0  0  3  0  0  0  0  0  0
  -23.8180   -8.4670   22.1830 C   0  0  0  0  0  3  0  0  0  0  0  0
  -22.6850   -8.2280   21.3690 C   0  0  0  0  0  0  0  0  0  0  0  0
  -22.3290   -9.1740   20.3930 C   0  0  0  0  0  3  0  0  0  0  0  0
  -23.0730  -10.3550   20.2360 C   0  0  0  0  0  3  0  0  0  0  0  0
  -21.9180   -7.0890   21.4320 O   0  0  0  0  0  0  0  0  0  0  0  0
  -21.7930   -6.3700   22.5940 C   0  0  0  0  0  0  0  0  0  0  0  0
  -21.2720   -6.9450   23.7730 C   0  0  0  0  0  3  0  0  0  0  0  0
  -21.0940   -6.1520   24.9250 C   0  0  0  0  0  3  0  0  0  0  0  0
  -21.4270   -4.7840   24.8960 C   0  0  0  0  0  0  0  0  0  0  0  0
  -21.9400   -4.2080   23.7210 C   0  0  0  0  0  3  0  0  0  0  0  0
  -22.1190   -4.9990   22.5730 C   0  0  0  0  0  0  0  0  0  0  0  0
  -22.5940   -4.4340   21.4360 F   0  0  0  0  0  0  0  0  0  0  0  0
  -21.2490   -4.0200   26.0000 F   0  0  0  0  0  0  0  0  0  0  0  0
  -23.0710  -13.7170   21.0600 C   0  0  0  0  0  0  0  0  0  0  0  0
  -22.2900  -13.0440   21.8970 N   0  0  0  0  0  0  0  0  0  0  0  0
  -22.6730  -14.7340   20.4960 O   0  0  0  0  0  0  0  0  0  0  0  0
  -22.6240  -12.2210   22.3760 H   0  0  0  0  0  0  0  0  0  0  0  0
  -21.3460  -13.3610   22.0650 H   0  0  0  0  0  0  0  0  0  0  0  0
  -25.7590  -15.3480   20.3830 N   0  0  0  0  0  0  0  0  0  0  0  0
  -25.0040  -16.0130   20.5080 H   0  0  0  0  0  0  0  0  0  0  0  0
  -26.6620  -15.7920   20.2860 H   0  0  0  0  0  0  0  0  0  0  0  0
  -28.6720  -22.8070   20.9610 C   0  0  0  0  0  0  0  0  0  0  0  0
  -29.9600  -22.7650   19.3490 C   0  0  0  0  0  2  0  0  0  0  0  0
  -29.3580  -23.9820   20.1470 C   0  0  0  0  0  3  0  0  0  0  0  0
  -29.6320  -21.8980   20.4900 N   0  0  0  0  0  0  0  0  0  0  0  0
  -27.6800  -22.6450   21.6430 O   0  0  0  0  0  0  0  0  0  0  0  0
  -28.3780  -25.0760   19.5040 C   0  0  0  0  0  2  0  0  0  0  0  0
  -28.5520  -26.5480   19.7180 O   0  0  0  0  0  0  0  0  0  0  0  0
  -24.6170  -31.6590   22.9910 C   0  0  0  0  0  0  0  0  0  0  0  0
  -27.4100  -27.3790   19.6830 C   0  0  0  0  0  0  0  0  0  0  0  0
  -23.4710  -30.3110   21.2690 C   0  0  0  0  0  3  0  0  0  0  0  0
  -24.9840  -28.9110   19.7540 C   0  0  0  0  0  0  0  0  0  0  0  0
  -25.9970  -30.7380   21.1110 C   0  0  0  0  0  2  0  0  0  0  0  0
  -26.1330  -29.4030   20.3860 C   0  0  0  0  0  0  0  0  0  0  0  0
  -27.3470  -28.6490   20.3430 C   0  0  0  0  0  3  0  0  0  0  0  0
  -26.2380  -26.9590   19.0100 C   0  0  0  0  0  3  0  0  0  0  0  0
  -25.0410  -27.6960   19.0550 C   0  0  0  0  0  3  0  0  0  0  0  0
  -23.7130  -29.7290   19.8510 C   0  0  0  0  0  2  0  0  0  0  0  0
  -24.7130  -30.9180   21.8480 N   0  0  0  0  0  0  0  0  0  0  0  0
  -23.5230  -31.8600   23.5380 O   0  0  0  0  0  0  0  0  0  0  0  0
  -22.8500  -29.2130   22.1670 C   0  0  0  0  0  0  0  0  0  0  0  0
  -21.5240  -29.0230   22.0640 N   0  0  0  0  0  0  0  0  0  0  0  0
  -23.5610  -28.5380   22.9160 O   0  0  0  0  0  0  0  0  0  0  0  0
  -21.0080  -29.6250   21.4350 H   0  0  0  0  0  0  0  0  0  0  0  0
  -18.1710  -27.7800   22.6140 C   0  0  0  0  0  0  0  0  0  0  0  0
  -20.7400  -28.0190   22.7840 C   0  0  0  0  0  3  0  0  0  0  0  0
  -20.8100  -26.6450   22.0770 C   0  0  0  0  0  2  0  0  0  0  0  0
  -19.6600  -26.4140   21.0900 C   0  0  0  0  0  2  0  0  0  0  0  0
  -18.3110  -26.4980   21.8100 C   0  0  0  0  0  2  0  0  0  0  0  0
  -19.3110  -28.5020   23.0580 C   0  0  0  0  0  0  0  0  0  0  0  0
  -19.1230  -29.7050   23.7730 C   0  0  0  0  0  3  0  0  0  0  0  0
  -17.8290  -30.1860   24.0460 C   0  0  0  0  0  3  0  0  0  0  0  0
  -16.7040  -29.4600   23.6160 C   0  0  0  0  0  3  0  0  0  0  0  0
  -16.8760  -28.2590   22.9060 C   0  0  0  0  0  3  0  0  0  0  0  0
  -25.8730  -32.3060   23.6500 C   0  0  0  0  0  3  0  0  0  0  0  0
  -25.5090  -33.6720   24.0540 N   0  0  0  0  0  0  0  0  0  0  0  0
  -25.8300  -34.7800   23.3710 C   0  0  0  0  0  0  0  0  0  0  0  0
  -26.5330  -34.7590   22.3570 O   0  0  0  0  0  0  0  0  0  0  0  0
  -24.8860  -33.7590   24.8430 H   0  0  0  0  0  0  0  0  0  0  0  0
  -24.0730  -36.5520   23.0570 C   0  0  0  0  0  1  0  0  0  0  0  0
  -25.2860  -36.1220   23.8970 C   0  0  0  0  0  3  0  0  0  0  0  0
  -27.3540  -37.0010   24.8880 C   0  0  0  0  0  1  0  0  0  0  0  0
  -26.2950  -37.2050   23.9030 N   0  0  0  0  0  0  0  0  0  0  0  0
  -25.8580  -38.1030   24.0870 H   0  0  0  0  0  0  0  0  0  0  0  0
  -26.4150  -31.4890   24.8860 C   0  0  1  0  0  0  0  0  0  0  0  0
  -25.3320  -31.1590   25.9400 C   0  0  0  0  0  1  0  0  0  0  0  0
  -27.0430  -30.1530   24.4260 C   0  0  0  0  0  1  0  0  0  0  0  0
  -27.5400  -32.2850   25.5880 C   0  0  0  0  0  1  0  0  0  0  0  0
  1  4  1  0
  2  1  2  0
  2  5  1  0
  4 51  1  0
  4  3  2  0
  5  6  2  0
  6  3  1  0
  6  7  1  0
  8 15  2  0
  9 14  1  0
 10 11  1  0
 10  9  1  0
 12 11  1  0
 12 23  1  0
 12 13  1  0
 14  8  1  0
 14 13  1  0
 16 18  1  0
 17 16  1  0
 18  5  1  0
 18  8  1  0
 19 16  2  0
 20 21  2  0
 21 22  1  0
 21 40  1  0
 22 25  1  0
 23 20  1  0
 23 24  1  0
 24 22  2  0
 25 26  1  0
 26 27  2  0
 28 31  1  0
 28 27  1  0
 29 28  2  0
 30 29  1  0
 30 25  2  0
 31 32  1  0
 32 33  1  0
 33 34  2  0
 35 34  1  0
 35 39  1  0
 36 35  2  0
 37 32  2  0
 37 36  1  0
 38 37  1  0
 40 41  1  0
 41 44  1  0
 41 43  1  0
 42 40  2  0
 45 46  1  0
 45 20  1  0
 47 45  1  0
 48 52  2  0
 49 50  1  0
 49 51  1  0
 50 53  1  0
 50 48  1  0
 51 48  1  0
 53 54  1  0
 55 66  2  0
 56 54  1  0
 56 61  1  0
 57 65  1  0
 57 67  1  0
 58 64  1  0
 58 60  1  0
 59 65  1  0
 60 59  1  0
 61 60  2  0
 62 63  1  0
 62 56  2  0
 63 58  2  0
 64 57  1  0
 65 55  1  0
 67 69  2  0
 68 67  1  0
 70 68  1  0
 71 80  2  0
 71 76  1  0
 72 68  1  0
 72 76  1  0
 73 72  1  0
 74 75  1  0
 74 73  1  0
 75 71  1  0
 76 77  2  0
 77 78  1  0
 79 78  2  0
 80 79  1  0
 81 55  1  0
 81 82  1  0
 81 91  1  0
 82 85  1  0
 83 87  1  0
 83 82  1  0
 84 83  2  0
 87 86  1  0
 87 89  1  0
 89 90  1  0
 89 88  1  0
 91 94  1  1
 91 92  1  0
 93 91  1  0
M  ISO  4   8 100  18 100  53 101  54 101
M  END
>  <TORSDO>  (47) 
F 18

>  <SCORE>  (47) 
-11.663

>  <name>  (47) 
46

>  <ligand_id>  (47) 
46

>  <original_smiles>  (47) 
[H]c1c([H])c([H])c2c(c1[H])C([H])([H])C([H])([H])C([H])([H])C2([H])N([H])C(=O)C1([H])N(C(=O)C([H])(N([H])C(=O)C([H])(N([H])C([H])([H])[H])C([H])([H])[H])C(C([H])([H])[H])(C([H])([H])[H])C([H])([H])[H])C([H])([H])c2c([H])c(OC([H])([H])C3([H])C(=O)N(c4c([H])c([H])c(N(C(=O)N5C([H])([H])C([H])([H])C([H])([H])C([H])(n6nc(-c7c([H])c([H])c(Oc8c([H])c([H])c(F)c([H])c8F)c([H])c7[H])c(C(=O)N([H])[H])c6N([H])[H])C5([H])[H])C(=O)C([H])([H])[H])c(F)c4[H])C3([H])[H])c([H])c([H])c2C1([H])[H]

>  <smiles>  (47) 
[H]c1c([H])c([H])c2c(c1[H])C([H])([H])C([H])([H])C([H])([H])C2([H])N([H])C(=O)C1([H])N(C(=O)C([H])(N([H])C(=O)C([H])(N([H])C([H])([H])[H])C([H])([H])[H])C(C([H])([H])[H])(C([H])([H])[H])C([H])([H])[H])C([H])([H])c2c([H])c(OC([H])([H])C3([H])C(=O)N(c4c([H])c([H])c(N(C(=O)N5C([H])([H])C([H])([H])C([H])([H])C([H])(n6nc(-c7c([H])c([H])c(Oc8c([H])c([H])c(F)c([H])c8F)c([H])c7[H])c(C(=O)N([H])[H])c6N([H])[H])C5([H])[H])C(=O)C([H])([H])[H])c(F)c4[H])C3([H])[H])c([H])c([H])c2C1([H])[H]

$$$$
47:0:0
     RDKit          3D

 92100  0  0  1  0  0  0  0  0999 V2000
  -28.8340  -22.4890   19.5740 C   0  0  0  0  0  0  0  0  0  0  0  0
  -29.0830  -21.2980   20.2770 N   0  0  0  0  0  0  0  0  0  0  0  0
  -28.7250  -22.4520   18.3470 O   0  0  0  0  0  0  0  0  0  0  0  0
  -28.9380  -21.3660   21.2750 H   0  0  0  0  0  0  0  0  0  0  0  0
  -29.4230  -18.6430   20.4390 C   0  0  0  0  0  3  0  0  0  0  0  0
  -30.3820  -19.9390   18.6190 C   0  0  0  0  0  3  0  0  0  0  0  0
  -30.7630  -17.5120   18.7530 C   0  0  0  0  0  3  0  0  0  0  0  0
  -29.5890  -19.9580   19.7910 C   0  0  0  0  0  0  0  0  0  0  0  0
  -30.0110  -17.3840   19.9440 C   0  0  0  0  0  0  0  0  0  0  0  0
  -30.9430  -18.7520   18.1100 C   0  0  0  0  0  0  0  0  0  0  0  0
  -31.6720  -18.8010   16.9700 F   0  0  0  0  0  0  0  0  0  0  0  0
  -30.5760  -14.8260   20.3200 C   0  0  0  0  0  0  0  0  0  0  0  0
  -30.3730  -12.5250   19.3670 C   0  0  0  0  0  2  0  0  0  0  0  0
  -29.4410  -12.5830   18.1370 C   0  0  0  0  0  2  0  0  0  0  0  0
  -27.9710  -12.4130   18.5620 C   0  0  0  0  0  2  0  0  0  0  0  0
  -27.5940  -13.3090   19.7710 C   0  0  0  0  0  3  0  0  0  0  0  0
  -28.6500  -13.2430   20.8940 C   0  0  0  0  0  2  0  0  0  0  0  0
  -29.9450  -13.5970   20.3010 N   0  0  0  0  0  0  0  0  0  0  0  0
  -31.7700  -14.8810   20.0130 O   0  0  0  0  0  0  0  0  0  0  0  0
  -29.8270  -15.9990   20.5110 N   0  0  0  0  0  0  0  0  0  0  0  0
  -28.9390  -15.8430   20.9630 H   0  0  0  0  0  0  0  0  0  0  0  0
  -25.2080  -13.9010   20.4910 C   0  0  0  0  0  0  0  0  0  0  0  0
  -24.1410  -13.1280   20.8580 C   0  0  0  0  0  0  0  0  0  0  0  0
  -24.6040  -11.7770   20.8330 C   0  0  0  0  0  0  0  0  0  0  0  0
  -26.2510  -13.0200   20.2630 N   0  0  0  0  0  0  0  0  0  0  0  0
  -25.8960  -11.7380   20.5340 N   0  0  0  0  0  0  0  0  0  0  0  0
  -23.8730  -10.5150   21.0230 C   0  0  0  0  0  0  0  0  0  0  0  0
  -24.2990   -9.5500   21.9620 C   0  0  0  0  0  3  0  0  0  0  0  0
  -23.5680   -8.3560   22.1440 C   0  0  0  0  0  3  0  0  0  0  0  0
  -22.3970   -8.1170   21.3860 C   0  0  0  0  0  0  0  0  0  0  0  0
  -21.9880   -9.0720   20.4370 C   0  0  0  0  0  3  0  0  0  0  0  0
  -22.7200  -10.2580   20.2550 C   0  0  0  0  0  3  0  0  0  0  0  0
  -21.6410   -6.9740   21.4760 O   0  0  0  0  0  0  0  0  0  0  0  0
  -21.5870   -6.2340   22.6300 C   0  0  0  0  0  0  0  0  0  0  0  0
  -21.1620   -6.7930   23.8540 C   0  0  0  0  0  3  0  0  0  0  0  0
  -21.0560   -5.9800   25.0000 C   0  0  0  0  0  3  0  0  0  0  0  0
  -21.3630   -4.6090   24.9220 C   0  0  0  0  0  0  0  0  0  0  0  0
  -21.7830   -4.0490   23.7010 C   0  0  0  0  0  3  0  0  0  0  0  0
  -21.8900   -4.8600   22.5580 C   0  0  0  0  0  0  0  0  0  0  0  0
  -22.2720   -4.3120   21.3780 F   0  0  0  0  0  0  0  0  0  0  0  0
  -21.2560   -3.8250   26.0180 F   0  0  0  0  0  0  0  0  0  0  0  0
  -22.7430  -13.6070   21.1190 C   0  0  0  0  0  0  0  0  0  0  0  0
  -22.0080  -12.9170   21.9840 N   0  0  0  0  0  0  0  0  0  0  0  0
  -22.3090  -14.6290   20.5890 O   0  0  0  0  0  0  0  0  0  0  0  0
  -22.3690  -12.0870   22.4320 H   0  0  0  0  0  0  0  0  0  0  0  0
  -21.0700  -13.2210   22.2010 H   0  0  0  0  0  0  0  0  0  0  0  0
  -25.3690  -15.2710   20.3070 N   0  0  0  0  0  0  0  0  0  0  0  0
  -24.5990  -15.9210   20.4160 H   0  0  0  0  0  0  0  0  0  0  0  0
  -26.2130  -15.7130   19.9650 H   0  0  0  0  0  0  0  0  0  0  0  0
  -28.6990  -23.8140   20.3070 C   0  0  0  0  0  3  0  0  0  0  0  0
  -28.2890  -25.0150   19.7130 C   0  0  0  0  0  3  0  0  0  0  0  0
  -28.2810  -26.3500   20.2480 O   0  0  0  0  0  0  0  0  0  0  0  0
  -24.6130  -31.8730   23.2320 C   0  0  0  0  0  0  0  0  0  0  0  0
  -27.1900  -27.2550   20.1480 C   0  0  0  0  0  0  0  0  0  0  0  0
  -23.3970  -30.4770   21.5990 C   0  0  0  0  0  3  0  0  0  0  0  0
  -24.8360  -28.9230   20.1500 C   0  0  0  0  0  0  0  0  0  0  0  0
  -25.9390  -30.7710   21.4050 C   0  0  0  0  0  2  0  0  0  0  0  0
  -26.0110  -29.3900   20.7500 C   0  0  0  0  0  0  0  0  0  0  0  0
  -27.1840  -28.5680   20.7410 C   0  0  0  0  0  3  0  0  0  0  0  0
  -25.9900  -26.8600   19.5150 C   0  0  0  0  0  3  0  0  0  0  0  0
  -24.8310  -27.6680   19.5210 C   0  0  0  0  0  3  0  0  0  0  0  0
  -23.6000  -29.8020   20.2160 C   0  0  0  0  0  2  0  0  0  0  0  0
  -24.6680  -31.0620   22.1340 N   0  0  0  0  0  0  0  0  0  0  0  0
  -23.5330  -32.1530   23.7740 O   0  0  0  0  0  0  0  0  0  0  0  0
  -22.7350  -29.4640   22.5630 C   0  0  0  0  0  0  0  0  0  0  0  0
  -21.4090  -29.2830   22.4370 N   0  0  0  0  0  0  0  0  0  0  0  0
  -23.4140  -28.8440   23.3840 O   0  0  0  0  0  0  0  0  0  0  0  0
  -20.9180  -29.8340   21.7460 H   0  0  0  0  0  0  0  0  0  0  0  0
  -18.0380  -28.0610   22.9320 C   0  0  0  0  0  0  0  0  0  0  0  0
  -20.5940  -28.3420   23.2100 C   0  0  0  0  0  3  0  0  0  0  0  0
  -20.7090  -26.9080   22.6450 C   0  0  0  0  0  2  0  0  0  0  0  0
  -19.6140  -26.5720   21.6270 C   0  0  0  0  0  2  0  0  0  0  0  0
  -18.2280  -26.7100   22.2630 C   0  0  0  0  0  2  0  0  0  0  0  0
  -19.1500  -28.8350   23.3610 C   0  0  0  0  0  0  0  0  0  0  0  0
  -18.9180  -30.1000   23.9440 C   0  0  0  0  0  3  0  0  0  0  0  0
  -17.6090  -30.5910   24.1020 C   0  0  0  0  0  3  0  0  0  0  0  0
  -16.5120  -29.8140   23.6900 C   0  0  0  0  0  3  0  0  0  0  0  0
  -16.7280  -28.5500   23.1110 C   0  0  0  0  0  3  0  0  0  0  0  0
  -25.8980  -32.5050   23.8480 C   0  0  0  0  0  3  0  0  0  0  0  0
  -26.4210  -31.7330   25.1210 C   0  0  1  0  0  0  0  0  0  0  0  0
  -25.3350  -31.4950   26.1960 C   0  0  0  0  0  1  0  0  0  0  0  0
  -26.9990  -30.3540   24.7260 C   0  0  0  0  0  1  0  0  0  0  0  0
  -27.5770  -32.5230   25.7760 C   0  0  0  0  0  1  0  0  0  0  0  0
  -25.5930  -33.9030   24.1870 N   0  0  0  0  0  0  0  0  0  0  0  0
  -25.9160  -34.9600   23.4280 C   0  0  0  0  0  0  0  0  0  0  0  0
  -26.5720  -34.8600   22.3890 O   0  0  0  0  0  0  0  0  0  0  0  0
  -25.0130  -34.0580   24.9980 H   0  0  0  0  0  0  0  0  0  0  0  0
  -24.1800  -36.7520   23.1070 C   0  0  0  0  0  1  0  0  0  0  0  0
  -25.4350  -36.3470   23.8980 C   0  0  0  0  0  3  0  0  0  0  0  0
  -27.5800  -37.2300   24.7010 C   0  0  0  0  0  1  0  0  0  0  0  0
  -26.4640  -37.4010   23.7740 N   0  0  0  0  0  0  0  0  0  0  0  0
  -26.0600  -38.3200   23.9310 H   0  0  0  0  0  0  0  0  0  0  0  0
  1  2  1  0
  1 50  1  0
  2  4  1  0
  3  1  2  0
  6  8  1  0
  7  9  2  0
  8  2  1  0
  8  5  2  0
  9  5  1  0
  9 20  1  0
 10  6  2  0
 10  7  1  0
 11 10  1  0
 12 20  1  0
 13 18  1  0
 14 15  1  0
 14 13  1  0
 16 15  1  0
 16 25  1  0
 16 17  1  0
 18 12  1  0
 18 17  1  0
 19 12  2  0
 20 21  1  0
 22 23  2  0
 23 42  1  0
 24 23  1  0
 24 27  1  0
 25 22  1  0
 25 26  1  0
 26 24  2  0
 27 28  1  0
 28 29  2  0
 30 33  1  0
 30 29  1  0
 31 30  2  0
 32 31  1  0
 32 27  2  0
 33 34  1  0
 34 35  1  0
 35 36  2  0
 37 36  1  0
 37 41  1  0
 38 37  2  0
 39 34  2  0
 39 38  1  0
 40 39  1  0
 42 43  1  0
 43 46  1  0
 43 45  1  0
 44 42  2  0
 47 48  1  0
 47 22  1  0
 49 47  1  0
 51 52  1  0
 51 50  2  0
 53 64  2  0
 54 52  1  0
 54 59  1  0
 55 63  1  0
 55 65  1  0
 56 62  1  0
 56 58  1  0
 57 63  1  0
 58 57  1  0
 59 58  2  0
 60 61  1  0
 60 54  2  0
 61 56  2  0
 62 55  1  0
 63 53  1  0
 65 67  2  0
 66 65  1  0
 68 66  1  0
 69 78  2  0
 69 74  1  0
 70 66  1  0
 70 74  1  0
 71 70  1  0
 72 73  1  0
 72 71  1  0
 73 69  1  0
 74 75  2  0
 75 76  1  0
 77 76  2  0
 78 77  1  0
 79 53  1  0
 79 84  1  0
 79 80  1  0
 80 83  1  1
 80 81  1  0
 82 80  1  0
 84 87  1  0
 85 89  1  0
 85 84  1  0
 86 85  2  0
 89 88  1  0
 91 89  1  0
 91 92  1  0
 91 90  1  0
M  ISO  4  12 100  20 100  51 101  52 101
M  END
>  <TORSDO>  (48) 
F 18

>  <SCORE>  (48) 
-14.632

>  <name>  (48) 
47

>  <ligand_id>  (48) 
47

>  <original_smiles>  (48) 
[H]C(Oc1c([H])c([H])c2c(c1[H])C([H])([H])N(C(=O)C([H])(N([H])C(=O)C([H])(N([H])C([H])([H])[H])C([H])([H])[H])C(C([H])([H])[H])(C([H])([H])[H])C([H])([H])[H])C([H])(C(=O)N([H])C1([H])c3c([H])c([H])c([H])c([H])c3C([H])([H])C([H])([H])C1([H])[H])C2([H])[H])=C([H])C(=O)N([H])c1c([H])c(F)c([H])c(N([H])C(=O)N2C([H])([H])C([H])([H])C([H])([H])C([H])(n3nc(-c4c([H])c([H])c(Oc5c([H])c([H])c(F)c([H])c5F)c([H])c4[H])c(C(=O)N([H])[H])c3N([H])[H])C2([H])[H])c1[H]

>  <smiles>  (48) 
[H]C(Oc1c([H])c([H])c2c(c1[H])C([H])([H])N(C(=O)C([H])(N([H])C(=O)C([H])(N([H])C([H])([H])[H])C([H])([H])[H])C(C([H])([H])[H])(C([H])([H])[H])C([H])([H])[H])C([H])(C(=O)N([H])C1([H])c3c([H])c([H])c([H])c([H])c3C([H])([H])C([H])([H])C1([H])[H])C2([H])[H])=C([H])C(=O)N([H])c1c([H])c(F)c([H])c(N([H])C(=O)N2C([H])([H])C([H])([H])C([H])([H])C([H])(n3nc(-c4c([H])c([H])c(Oc5c([H])c([H])c(F)c([H])c5F)c([H])c4[H])c(C(=O)N([H])[H])c3N([H])[H])C2([H])[H])c1[H]

$$$$
48:0:0
     RDKit          3D

 98106  0  0  1  0  0  0  0  0999 V2000
  -31.1510  -19.6540   21.7930 C   0  0  0  0  0  3  0  0  0  0  0  0
  -29.1090  -19.3840   20.0510 C   0  0  0  0  0  3  0  0  0  0  0  0
  -30.5250  -20.8600   21.3530 C   0  0  0  0  0  0  0  0  0  0  0  0
  -29.3870  -20.8590   20.4650 C   0  0  0  0  0  0  0  0  0  0  0  0
  -29.8060  -18.0600   20.4650 C   0  0  0  0  0  0  0  0  0  0  0  0
  -30.8230  -18.3380   21.4000 C   0  0  0  0  0  0  0  0  0  0  0  0
  -31.4980  -17.3170   21.9820 F   0  0  0  0  0  0  0  0  0  0  0  0
  -30.3440  -15.2240   20.1080 C   0  0  0  0  0  0  0  0  0  0  0  0
  -30.3050  -12.7960   19.1700 C   0  0  0  0  0  2  0  0  0  0  0  0
  -29.3400  -12.5760   17.9770 C   0  0  0  0  0  2  0  0  0  0  0  0
  -27.9130  -12.2810   18.4710 C   0  0  0  0  0  2  0  0  0  0  0  0
  -27.4870  -13.2400   19.6100 C   0  0  0  0  0  3  0  0  0  0  0  0
  -28.5720  -13.3990   20.6980 C   0  0  0  0  0  2  0  0  0  0  0  0
  -29.7710  -13.9240   20.0200 N   0  0  0  0  0  0  0  0  0  0  0  0
  -31.5630  -15.2180   19.8840 O   0  0  0  0  0  0  0  0  0  0  0  0
  -29.5680  -16.4880   20.1540 N   0  0  0  0  0  0  0  0  0  0  0  0
  -28.5940  -16.2890   19.9910 H   0  0  0  0  0  0  0  0  0  0  0  0
  -25.1320  -13.7640   20.4450 C   0  0  0  0  0  0  0  0  0  0  0  0
  -24.0940  -12.9700   20.8400 C   0  0  0  0  0  0  0  0  0  0  0  0
  -24.5780  -11.6260   20.7850 C   0  0  0  0  0  0  0  0  0  0  0  0
  -26.1820  -12.9060   20.1620 N   0  0  0  0  0  0  0  0  0  0  0  0
  -25.8590  -11.6130   20.4340 N   0  0  0  0  0  0  0  0  0  0  0  0
  -23.8730  -10.3530   20.9810 C   0  0  0  0  0  0  0  0  0  0  0  0
  -24.3300   -9.3880   21.9060 C   0  0  0  0  0  3  0  0  0  0  0  0
  -23.6190   -8.1830   22.0940 C   0  0  0  0  0  3  0  0  0  0  0  0
  -22.4350   -7.9350   21.3580 C   0  0  0  0  0  0  0  0  0  0  0  0
  -21.9980   -8.8870   20.4210 C   0  0  0  0  0  3  0  0  0  0  0  0
  -22.7100  -10.0830   20.2310 C   0  0  0  0  0  3  0  0  0  0  0  0
  -21.6930   -6.7820   21.4570 O   0  0  0  0  0  0  0  0  0  0  0  0
  -21.6660   -6.0400   22.6090 C   0  0  0  0  0  0  0  0  0  0  0  0
  -21.2120   -6.5790   23.8340 C   0  0  0  0  0  3  0  0  0  0  0  0
  -21.1350   -5.7620   24.9790 C   0  0  0  0  0  3  0  0  0  0  0  0
  -21.5030   -4.4060   24.9020 C   0  0  0  0  0  0  0  0  0  0  0  0
  -21.9490   -3.8640   23.6840 C   0  0  0  0  0  3  0  0  0  0  0  0
  -22.0290   -4.6790   22.5400 C   0  0  0  0  0  0  0  0  0  0  0  0
  -22.4390   -4.1470   21.3640 F   0  0  0  0  0  0  0  0  0  0  0  0
  -21.4220   -3.6180   26.0000 F   0  0  0  0  0  0  0  0  0  0  0  0
  -22.6990  -13.4280   21.1560 C   0  0  0  0  0  0  0  0  0  0  0  0
  -22.0040  -12.7120   22.0330 N   0  0  0  0  0  0  0  0  0  0  0  0
  -22.2370  -14.4530   20.6570 O   0  0  0  0  0  0  0  0  0  0  0  0
  -22.3930  -11.8790   22.4500 H   0  0  0  0  0  0  0  0  0  0  0  0
  -21.0700  -13.0020   22.2930 H   0  0  0  0  0  0  0  0  0  0  0  0
  -25.2620  -15.1400   20.2750 N   0  0  0  0  0  0  0  0  0  0  0  0
  -24.4760  -15.7650   20.4150 H   0  0  0  0  0  0  0  0  0  0  0  0
  -26.0760  -15.6100   19.9050 H   0  0  0  0  0  0  0  0  0  0  0  0
  -31.2280  -22.0590   21.8540 C   0  0  0  0  0  0  0  0  0  0  0  0
  -30.6580  -22.9490   22.6600 N   0  0  0  0  0  0  0  0  0  0  0  0
  -32.5220  -22.2390   21.5770 N   0  0  0  0  0  4  0  0  0  0  0  0
  -29.6500  -22.9340   22.8110 H   0  0  0  0  0  0  0  0  0  0  0  0
  -31.1810  -23.6790   23.1160 H   0  0  0  0  0  0  0  0  0  0  0  0
  -32.9750  -21.6230   20.9170 H   0  0  0  0  0  0  0  0  0  0  0  0
  -33.0720  -22.9810   21.9800 H   0  0  0  0  0  0  0  0  0  0  0  0
  -28.8180  -22.2220   19.9530 N   0  0  0  0  0  0  0  0  0  0  0  0
  -28.5640  -22.1410   18.9770 H   0  0  0  0  0  0  0  0  0  0  0  0
  -26.4910  -23.6450   20.1020 O   0  0  0  0  0  1  0  0  0  0  0  0
  -28.0730  -23.9080   22.0210 O   0  0  0  0  0  1  0  0  0  0  0  0
  -27.8600  -23.9440   20.5620 S   0  0  1  0  0  0  0  0  0  0  0  0
  -28.1200  -25.7760   20.0750 O   0  0  0  0  0  0  0  0  0  0  0  0
  -24.5830  -31.7760   23.1060 C   0  0  0  0  0  0  0  0  0  0  0  0
  -27.1150  -26.8870   20.1020 C   0  0  0  0  0  0  0  0  0  0  0  0
  -23.3810  -30.3930   21.4620 C   0  0  0  0  0  3  0  0  0  0  0  0
  -24.8270  -28.7870   20.0370 C   0  0  0  0  0  0  0  0  0  0  0  0
  -25.9490  -30.5880   21.3220 C   0  0  0  0  0  2  0  0  0  0  0  0
  -26.0120  -29.1750   20.6750 C   0  0  0  0  0  0  0  0  0  0  0  0
  -27.1470  -28.2440   20.6950 C   0  0  0  0  0  3  0  0  0  0  0  0
  -25.9080  -26.6660   19.3940 C   0  0  0  0  0  3  0  0  0  0  0  0
  -24.7990  -27.5510   19.3750 C   0  0  0  0  0  3  0  0  0  0  0  0
  -23.6120  -29.7140   20.0830 C   0  0  0  0  0  2  0  0  0  0  0  0
  -24.6590  -30.9450   22.0170 N   0  0  0  0  0  0  0  0  0  0  0  0
  -23.4940  -32.0710   23.6280 O   0  0  0  0  0  0  0  0  0  0  0  0
  -22.6840  -29.3970   22.4240 C   0  0  0  0  0  0  0  0  0  0  0  0
  -21.3500  -29.2540   22.3140 N   0  0  0  0  0  0  0  0  0  0  0  0
  -23.3480  -28.7500   23.2370 O   0  0  0  0  0  0  0  0  0  0  0  0
  -20.8640  -29.8210   21.6310 H   0  0  0  0  0  0  0  0  0  0  0  0
  -17.9530  -28.1200   22.8800 C   0  0  0  0  0  0  0  0  0  0  0  0
  -20.5220  -28.3220   23.0850 C   0  0  0  0  0  3  0  0  0  0  0  0
  -20.5760  -26.9000   22.4780 C   0  0  0  0  0  2  0  0  0  0  0  0
  -19.4430  -26.6260   21.4850 C   0  0  0  0  0  2  0  0  0  0  0  0
  -18.0800  -26.7860   22.1660 C   0  0  0  0  0  2  0  0  0  0  0  0
  -19.0990  -28.8490   23.2960 C   0  0  0  0  0  0  0  0  0  0  0  0
  -18.9210  -30.0980   23.9290 C   0  0  0  0  0  3  0  0  0  0  0  0
  -17.6320  -30.6220   24.1420 C   0  0  0  0  0  3  0  0  0  0  0  0
  -16.5010  -29.8910   23.7360 C   0  0  0  0  0  3  0  0  0  0  0  0
  -16.6610  -28.6410   23.1130 C   0  0  0  0  0  3  0  0  0  0  0  0
  -25.8600  -32.4090   23.7390 C   0  0  0  0  0  3  0  0  0  0  0  0
  -26.3580  -31.6370   25.0250 C   0  0  1  0  0  0  0  0  0  0  0  0
  -25.2530  -31.4140   26.0850 C   0  0  0  0  0  1  0  0  0  0  0  0
  -26.9360  -30.2540   24.6500 C   0  0  0  0  0  1  0  0  0  0  0  0
  -27.5080  -32.4240   25.6940 C   0  0  0  0  0  1  0  0  0  0  0  0
  -25.5520  -33.8070   24.0800 N   0  0  0  0  0  0  0  0  0  0  0  0
  -25.8960  -34.8690   23.3400 C   0  0  0  0  0  0  0  0  0  0  0  0
  -26.5690  -34.7730   22.3110 O   0  0  0  0  0  0  0  0  0  0  0  0
  -24.9640  -33.9560   24.8860 H   0  0  0  0  0  0  0  0  0  0  0  0
  -24.1930  -36.6900   22.9950 C   0  0  0  0  0  1  0  0  0  0  0  0
  -25.4210  -36.2570   23.8140 C   0  0  0  0  0  3  0  0  0  0  0  0
  -27.5490  -37.1120   24.6910 C   0  0  0  0  0  1  0  0  0  0  0  0
  -26.4650  -37.3020   23.7290 N   0  0  0  0  0  0  0  0  0  0  0  0
  -26.0660  -38.2250   23.8800 H   0  0  0  0  0  0  0  0  0  0  0  0
  2  5  1  0
  2  4  2  0
  3  1  2  0
  3 46  1  0
  4  3  1  0
  5  6  2  0
  6  1  1  0
  6  7  1  0
  8 16  1  0
  9 14  1  0
 10 11  1  0
 10  9  1  0
 12 11  1  0
 12 21  1  0
 12 13  1  0
 14  8  1  0
 14 13  1  0
 15  8  2  0
 16  5  1  0
 17 16  1  0
 18 19  2  0
 19 38  1  0
 20 19  1  0
 20 23  1  0
 21 22  1  0
 21 18  1  0
 22 20  2  0
 23 24  1  0
 24 25  2  0
 26 29  1  0
 26 25  1  0
 27 26  2  0
 28 27  1  0
 28 23  2  0
 29 30  1  0
 30 31  1  0
 31 32  2  0
 33 32  1  0
 33 37  1  0
 34 33  2  0
 35 30  2  0
 35 34  1  0
 36 35  1  0
 38 39  1  0
 39 42  1  0
 39 41  1  0
 40 38  2  0
 43 44  1  0
 43 18  1  0
 45 43  1  0
 46 47  1  0
 47 49  1  0
 47 50  1  0
 48 46  2  0
 48 52  1  0
 51 48  1  0
 53  4  1  0
 53 57  1  0
 54 53  1  0
 57 55  1  1
 57 56  1  0
 58 60  1  0
 58 57  1  0
 59 70  2  0
 60 65  1  0
 61 69  1  0
 61 71  1  0
 62 68  1  0
 62 64  1  0
 63 69  1  0
 64 65  2  0
 64 63  1  0
 66 60  2  0
 67 66  1  0
 67 62  2  0
 68 61  1  0
 69 59  1  0
 71 73  2  0
 72 71  1  0
 74 72  1  0
 75 84  2  0
 75 80  1  0
 76 72  1  0
 76 80  1  0
 77 76  1  0
 78 79  1  0
 78 77  1  0
 79 75  1  0
 80 81  2  0
 81 82  1  0
 83 82  2  0
 84 83  1  0
 85 59  1  0
 85 90  1  0
 85 86  1  0
 86 89  1  1
 86 87  1  0
 88 86  1  0
 90 93  1  0
 91 95  1  0
 91 90  1  0
 92 91  2  0
 95 94  1  0
 97 95  1  0
 97 98  1  0
 97 96  1  0
M  ISO  4   8 100  16 100  57 101  58 101
M  END
>  <TORSDO>  (49) 
F 19

>  <SCORE>  (49) 
-15.054

>  <name>  (49) 
48

>  <ligand_id>  (49) 
48

>  <original_smiles>  (49) 
[H]c1c([H])c([H])c2c(c1[H])C([H])([H])C([H])([H])C([H])([H])C2([H])N([H])C(=O)C1([H])N(C(=O)C([H])(N([H])C(=O)C([H])(N([H])C([H])([H])[H])C([H])([H])[H])C(C([H])([H])[H])(C([H])([H])[H])C([H])([H])[H])C([H])([H])c2c([H])c(OS(=O)(=O)N([H])c3c([H])c(N([H])C(=O)N4C([H])([H])C([H])([H])C([H])([H])C([H])(n5nc(-c6c([H])c([H])c(Oc7c([H])c([H])c(F)c([H])c7F)c([H])c6[H])c(C(=O)N([H])[H])c5N([H])[H])C4([H])[H])c(F)c([H])c3C(N([H])[H])=[N+]([H])[H])c([H])c([H])c2C1([H])[H]

>  <smiles>  (49) 
[H]c1c([H])c([H])c2c(c1[H])C([H])([H])C([H])([H])C([H])([H])C2([H])N([H])C(=O)C1([H])N(C(=O)C([H])(N([H])C(=O)C([H])(N([H])C([H])([H])[H])C([H])([H])[H])C(C([H])([H])[H])(C([H])([H])[H])C([H])([H])[H])C([H])([H])c2c([H])c(OS(=O)(=O)N([H])c3c([H])c(N([H])C(=O)N4C([H])([H])C([H])([H])C([H])([H])C([H])(n5nc(-c6c([H])c([H])c(Oc7c([H])c([H])c(F)c([H])c7F)c([H])c6[H])c(C(=O)N([H])[H])c5N([H])[H])C4([H])[H])c(F)c([H])c3C(N([H])[H])=[N+]([H])[H])c([H])c([H])c2C1([H])[H]

$$$$
49:0:0
     RDKit          3D

 94102  0  0  1  0  0  0  0  0999 V2000
  -29.0680  -21.8660   19.9170 C   0  0  0  0  0  0  0  0  0  0  0  0
  -29.0250  -20.5390   20.2190 N   0  0  0  0  0  0  0  0  0  0  0  0
  -30.0010  -22.4010   19.3140 O   0  0  0  0  0  0  0  0  0  0  0  0
  -28.2760  -20.2850   20.8470 H   0  0  0  0  0  0  0  0  0  0  0  0
  -30.7170  -19.5390   18.6540 C   0  0  0  0  0  3  0  0  0  0  0  0
  -29.5750  -18.1240   20.2710 C   0  0  0  0  0  3  0  0  0  0  0  0
  -31.3670  -18.4030   18.1310 C   0  0  0  0  0  0  0  0  0  0  0  0
  -29.7930  -19.4210   19.7190 C   0  0  0  0  0  0  0  0  0  0  0  0
  -30.2370  -16.9600   19.7820 C   0  0  0  0  0  0  0  0  0  0  0  0
  -31.1160  -17.1240   18.6710 C   0  0  0  0  0  0  0  0  0  0  0  0
  -32.3210  -18.5500   16.9560 C   0  0  0  0  0  1  0  0  0  0  0  0
  -31.6850  -16.0640   18.0510 F   0  0  0  0  0  0  0  0  0  0  0  0
  -30.6750  -14.5360   20.3440 C   0  0  0  0  0  0  0  0  0  0  0  0
  -30.3470  -12.3180   19.3570 C   0  0  0  0  0  2  0  0  0  0  0  0
  -29.4130  -12.5030   18.1430 C   0  0  0  0  0  2  0  0  0  0  0  0
  -27.9420  -12.3690   18.5790 C   0  0  0  0  0  2  0  0  0  0  0  0
  -27.5970  -13.2430   19.8170 C   0  0  0  0  0  3  0  0  0  0  0  0
  -28.6660  -13.1100   20.9270 C   0  0  0  0  0  2  0  0  0  0  0  0
  -29.9850  -13.3620   20.3280 N   0  0  0  0  0  0  0  0  0  0  0  0
  -31.8880  -14.5800   20.1500 O   0  0  0  0  0  0  0  0  0  0  0  0
  -29.9250  -15.6650   20.3590 N   0  0  0  0  0  0  0  0  0  0  0  0
  -28.9770  -15.5420   20.6760 H   0  0  0  0  0  0  0  0  0  0  0  0
  -25.2070  -13.8380   20.5490 C   0  0  0  0  0  0  0  0  0  0  0  0
  -24.1410  -13.0660   20.9190 C   0  0  0  0  0  0  0  0  0  0  0  0
  -24.6040  -11.7140   20.8900 C   0  0  0  0  0  0  0  0  0  0  0  0
  -26.2520  -12.9580   20.3130 N   0  0  0  0  0  0  0  0  0  0  0  0
  -25.8940  -11.6750   20.5800 N   0  0  0  0  0  0  0  0  0  0  0  0
  -23.8770  -10.4500   21.0790 C   0  0  0  0  0  0  0  0  0  0  0  0
  -24.3200   -9.4740   21.9990 C   0  0  0  0  0  3  0  0  0  0  0  0
  -23.5910   -8.2780   22.1790 C   0  0  0  0  0  3  0  0  0  0  0  0
  -22.4070   -8.0500   21.4370 C   0  0  0  0  0  0  0  0  0  0  0  0
  -21.9850   -9.0150   20.5060 C   0  0  0  0  0  3  0  0  0  0  0  0
  -22.7130  -10.2010   20.3240 C   0  0  0  0  0  3  0  0  0  0  0  0
  -21.6510   -6.9050   21.5270 O   0  0  0  0  0  0  0  0  0  0  0  0
  -21.6300   -6.1430   22.6680 C   0  0  0  0  0  0  0  0  0  0  0  0
  -21.2420   -6.6800   23.9140 C   0  0  0  0  0  3  0  0  0  0  0  0
  -21.1680   -5.8470   25.0480 C   0  0  0  0  0  3  0  0  0  0  0  0
  -21.4710   -4.4750   24.9350 C   0  0  0  0  0  0  0  0  0  0  0  0
  -21.8550   -3.9370   23.6950 C   0  0  0  0  0  3  0  0  0  0  0  0
  -21.9290   -4.7690   22.5640 C   0  0  0  0  0  0  0  0  0  0  0  0
  -22.2790   -4.2420   21.3650 F   0  0  0  0  0  0  0  0  0  0  0  0
  -21.3900   -3.6720   26.0210 F   0  0  0  0  0  0  0  0  0  0  0  0
  -22.7420  -13.5410   21.1900 C   0  0  0  0  0  0  0  0  0  0  0  0
  -22.0160  -12.8440   22.0560 N   0  0  0  0  0  0  0  0  0  0  0  0
  -22.3040  -14.5680   20.6690 O   0  0  0  0  0  0  0  0  0  0  0  0
  -22.3850  -12.0150   22.4990 H   0  0  0  0  0  0  0  0  0  0  0  0
  -21.0790  -13.1430   22.2820 H   0  0  0  0  0  0  0  0  0  0  0  0
  -25.3650  -15.2090   20.3680 N   0  0  0  0  0  0  0  0  0  0  0  0
  -24.5890  -15.8520   20.4680 H   0  0  0  0  0  0  0  0  0  0  0  0
  -26.2030  -15.6490   20.0100 H   0  0  0  0  0  0  0  0  0  0  0  0
  -27.8690  -22.7370   20.3730 C   0  0  0  0  0  2  0  0  0  0  0  0
  -28.1090  -24.2210   20.8340 C   0  0  0  0  0  2  0  0  0  0  0  0
  -28.4930  -25.2870   19.7620 C   0  0  0  0  0  2  0  0  0  0  0  0
  -28.4240  -26.6670   20.2160 O   0  0  0  0  0  0  0  0  0  0  0  0
  -24.5850  -31.8840   23.2370 C   0  0  0  0  0  0  0  0  0  0  0  0
  -27.2400  -27.3950   20.1820 C   0  0  0  0  0  0  0  0  0  0  0  0
  -23.3860  -30.4800   21.5910 C   0  0  0  0  0  3  0  0  0  0  0  0
  -24.8450  -28.9390   20.1710 C   0  0  0  0  0  0  0  0  0  0  0  0
  -25.9150  -30.8280   21.4070 C   0  0  0  0  0  2  0  0  0  0  0  0
  -26.0030  -29.4510   20.7670 C   0  0  0  0  0  0  0  0  0  0  0  0
  -27.1980  -28.6880   20.7710 C   0  0  0  0  0  3  0  0  0  0  0  0
  -26.0560  -26.9060   19.5810 C   0  0  0  0  0  3  0  0  0  0  0  0
  -24.8710  -27.6670   19.5710 C   0  0  0  0  0  3  0  0  0  0  0  0
  -23.5990  -29.7990   20.2120 C   0  0  0  0  0  2  0  0  0  0  0  0
  -24.6470  -31.0790   22.1350 N   0  0  0  0  0  0  0  0  0  0  0  0
  -23.5020  -32.1540   23.7730 O   0  0  0  0  0  0  0  0  0  0  0  0
  -22.7310  -29.4610   22.5500 C   0  0  0  0  0  0  0  0  0  0  0  0
  -21.4040  -29.2830   22.4240 N   0  0  0  0  0  0  0  0  0  0  0  0
  -23.4120  -28.8340   23.3650 O   0  0  0  0  0  0  0  0  0  0  0  0
  -20.9110  -29.8360   21.7360 H   0  0  0  0  0  0  0  0  0  0  0  0
  -18.0280  -28.1010   22.9330 C   0  0  0  0  0  0  0  0  0  0  0  0
  -20.5890  -28.3440   23.1960 C   0  0  0  0  0  3  0  0  0  0  0  0
  -20.6810  -26.9160   22.6120 C   0  0  0  0  0  2  0  0  0  0  0  0
  -19.5730  -26.6050   21.6000 C   0  0  0  0  0  2  0  0  0  0  0  0
  -18.1940  -26.7540   22.2500 C   0  0  0  0  0  2  0  0  0  0  0  0
  -19.1530  -28.8530   23.3630 C   0  0  0  0  0  0  0  0  0  0  0  0
  -18.9440  -30.1140   23.9620 C   0  0  0  0  0  3  0  0  0  0  0  0
  -17.6440  -30.6250   24.1340 C   0  0  0  0  0  3  0  0  0  0  0  0
  -16.5330  -29.8680   23.7210 C   0  0  0  0  0  3  0  0  0  0  0  0
  -16.7260  -28.6090   23.1260 C   0  0  0  0  0  3  0  0  0  0  0  0
  -25.8670  -32.5170   23.8600 C   0  0  0  0  0  3  0  0  0  0  0  0
  -26.3840  -31.7460   25.1360 C   0  0  1  0  0  0  0  0  0  0  0  0
  -25.2900  -31.5000   26.2000 C   0  0  0  0  0  1  0  0  0  0  0  0
  -26.9730  -30.3710   24.7400 C   0  0  0  0  0  1  0  0  0  0  0  0
  -27.5320  -32.5410   25.8000 C   0  0  0  0  0  1  0  0  0  0  0  0
  -25.5540  -33.9150   24.1890 N   0  0  0  0  0  0  0  0  0  0  0  0
  -25.8890  -34.9680   23.4320 C   0  0  0  0  0  0  0  0  0  0  0  0
  -26.5630  -34.8660   22.4040 O   0  0  0  0  0  0  0  0  0  0  0  0
  -24.9510  -34.0690   24.9840 H   0  0  0  0  0  0  0  0  0  0  0  0
  -24.1570  -36.7540   23.0680 C   0  0  0  0  0  1  0  0  0  0  0  0
  -25.3950  -36.3540   23.8860 C   0  0  0  0  0  3  0  0  0  0  0  0
  -27.5270  -37.2410   24.7220 C   0  0  0  0  0  1  0  0  0  0  0  0
  -26.4260  -37.4120   23.7770 N   0  0  0  0  0  0  0  0  0  0  0  0
  -26.0180  -38.3300   23.9290 H   0  0  0  0  0  0  0  0  0  0  0  0
  1  2  1  0
  1 51  1  0
  2  4  1  0
  3  1  2  0
  5  8  1  0
  7  5  2  0
  7 10  1  0
  8  2  1  0
  8  6  2  0
  9  6  1  0
  9 21  1  0
 10  9  2  0
 11  7  1  0
 12 10  1  0
 13 21  1  0
 14 19  1  0
 15 16  1  0
 15 14  1  0
 17 16  1  0
 17 26  1  0
 17 18  1  0
 19 13  1  0
 19 18  1  0
 20 13  2  0
 21 22  1  0
 23 24  2  0
 24 43  1  0
 25 24  1  0
 25 28  1  0
 26 23  1  0
 26 27  1  0
 27 25  2  0
 28 29  1  0
 29 30  2  0
 31 34  1  0
 31 30  1  0
 32 31  2  0
 33 32  1  0
 33 28  2  0
 34 35  1  0
 35 36  1  0
 36 37  2  0
 38 37  1  0
 38 42  1  0
 39 38  2  0
 40 35  2  0
 40 39  1  0
 41 40  1  0
 43 44  1  0
 44 47  1  0
 44 46  1  0
 45 43  2  0
 48 49  1  0
 48 23  1  0
 50 48  1  0
 51 52  1  0
 53 54  1  0
 53 52  1  0
 55 66  2  0
 56 54  1  0
 56 61  1  0
 57 65  1  0
 57 67  1  0
 58 64  1  0
 58 60  1  0
 59 65  1  0
 60 61  2  0
 60 59  1  0
 62 56  2  0
 63 62  1  0
 63 58  2  0
 64 57  1  0
 65 55  1  0
 67 69  2  0
 68 67  1  0
 70 68  1  0
 71 80  2  0
 71 76  1  0
 72 68  1  0
 72 76  1  0
 73 72  1  0
 74 75  1  0
 74 73  1  0
 75 71  1  0
 76 77  2  0
 77 78  1  0
 79 78  2  0
 80 79  1  0
 81 55  1  0
 81 86  1  0
 81 82  1  0
 82 85  1  1
 82 83  1  0
 84 82  1  0
 86 89  1  0
 87 91  1  0
 87 86  1  0
 88 87  2  0
 91 90  1  0
 93 91  1  0
 93 94  1  0
 93 92  1  0
M  ISO  4  13 100  21 100  53 101  54 101
M  END
>  <TORSDO>  (50) 
F 20

>  <SCORE>  (50) 
-13.995

>  <name>  (50) 
49

>  <ligand_id>  (50) 
49

>  <original_smiles>  (50) 
[H]c1c([H])c([H])c2c(c1[H])C([H])([H])C([H])([H])C([H])([H])C2([H])N([H])C(=O)C1([H])N(C(=O)C([H])(N([H])C(=O)C([H])(N([H])C([H])([H])[H])C([H])([H])[H])C(C([H])([H])[H])(C([H])([H])[H])C([H])([H])[H])C([H])([H])c2c([H])c(OC([H])([H])C([H])([H])C([H])([H])C(=O)N([H])c3c([H])c(N([H])C(=O)N4C([H])([H])C([H])([H])C([H])([H])C([H])(n5nc(-c6c([H])c([H])c(Oc7c([H])c([H])c(F)c([H])c7F)c([H])c6[H])c(C(=O)N([H])[H])c5N([H])[H])C4([H])[H])c(F)c(C([H])([H])[H])c3[H])c([H])c([H])c2C1([H])[H]

>  <smiles>  (50) 
[H]c1c([H])c([H])c2c(c1[H])C([H])([H])C([H])([H])C([H])([H])C2([H])N([H])C(=O)C1([H])N(C(=O)C([H])(N([H])C(=O)C([H])(N([H])C([H])([H])[H])C([H])([H])[H])C(C([H])([H])[H])(C([H])([H])[H])C([H])([H])[H])C([H])([H])c2c([H])c(OC([H])([H])C([H])([H])C([H])([H])C(=O)N([H])c3c([H])c(N([H])C(=O)N4C([H])([H])C([H])([H])C([H])([H])C([H])(n5nc(-c6c([H])c([H])c(Oc7c([H])c([H])c(F)c([H])c7F)c([H])c6[H])c(C(=O)N([H])[H])c5N([H])[H])C4([H])[H])c(F)c(C([H])([H])[H])c3[H])c([H])c([H])c2C1([H])[H]

$$$$
50:0:0
     RDKit          3D

 97106  0  0  1  0  0  0  0  0999 V2000
  -29.4070  -19.6650   21.4210 C   0  0  0  0  0  3  0  0  0  0  0  0
  -29.6730  -18.2690   21.5820 C   0  0  0  0  0  3  0  0  0  0  0  0
  -29.6780  -19.4700   19.0720 C   0  0  0  0  0  0  0  0  0  0  0  0
  -29.3460  -20.3470   20.1720 C   0  0  0  0  0  0  0  0  0  0  0  0
  -29.9680  -17.4030   20.4970 C   0  0  0  0  0  0  0  0  0  0  0  0
  -29.9910  -18.0570   19.2280 C   0  0  0  0  0  0  0  0  0  0  0  0
  -29.6490  -20.0700   17.6660 C   0  0  0  0  0  1  0  0  0  0  0  0
  -30.8140  -14.9010   20.2620 C   0  0  0  0  0  0  0  0  0  0  0  0
  -30.6500  -12.6600   19.1800 C   0  0  0  0  0  2  0  0  0  0  0  0
  -29.6800  -12.7920   17.9830 C   0  0  0  0  0  2  0  0  0  0  0  0
  -28.2160  -12.6060   18.4320 C   0  0  0  0  0  2  0  0  0  0  0  0
  -27.8710  -13.4400   19.6930 C   0  0  0  0  0  3  0  0  0  0  0  0
  -28.9480  -13.2710   20.7870 C   0  0  0  0  0  2  0  0  0  0  0  0
  -30.2400  -13.6530   20.1990 N   0  0  0  0  0  0  0  0  0  0  0  0
  -31.9610  -15.0830   19.8410 O   0  0  0  0  0  0  0  0  0  0  0  0
  -29.9990  -15.9310   20.6940 N   0  0  0  0  0  0  0  0  0  0  0  0
  -29.1830  -15.5800   21.1700 H   0  0  0  0  0  0  0  0  0  0  0  0
  -25.4930  -14.0200   20.4680 C   0  0  0  0  0  0  0  0  0  0  0  0
  -24.4350  -13.2380   20.8460 C   0  0  0  0  0  0  0  0  0  0  0  0
  -24.8990  -11.8890   20.7830 C   0  0  0  0  0  0  0  0  0  0  0  0
  -26.5330  -13.1450   20.1970 N   0  0  0  0  0  0  0  0  0  0  0  0
  -26.1830  -11.8570   20.4470 N   0  0  0  0  0  0  0  0  0  0  0  0
  -24.1780  -10.6230   20.9700 C   0  0  0  0  0  0  0  0  0  0  0  0
  -24.5990   -9.6650   21.9190 C   0  0  0  0  0  3  0  0  0  0  0  0
  -23.8790   -8.4630   22.0920 C   0  0  0  0  0  3  0  0  0  0  0  0
  -22.7230   -8.2120   21.3160 C   0  0  0  0  0  0  0  0  0  0  0  0
  -22.3200   -9.1580   20.3570 C   0  0  0  0  0  3  0  0  0  0  0  0
  -23.0420  -10.3500   20.1830 C   0  0  0  0  0  3  0  0  0  0  0  0
  -21.9780   -7.0590   21.3950 O   0  0  0  0  0  0  0  0  0  0  0  0
  -21.8610   -6.3570   22.5680 C   0  0  0  0  0  0  0  0  0  0  0  0
  -21.3270   -6.9410   23.7370 C   0  0  0  0  0  3  0  0  0  0  0  0
  -21.1600   -6.1640   24.9000 C   0  0  0  0  0  3  0  0  0  0  0  0
  -21.5160   -4.8020   24.8950 C   0  0  0  0  0  0  0  0  0  0  0  0
  -22.0440   -4.2180   23.7310 C   0  0  0  0  0  3  0  0  0  0  0  0
  -22.2130   -4.9920   22.5700 C   0  0  0  0  0  0  0  0  0  0  0  0
  -22.7010   -4.4180   21.4440 F   0  0  0  0  0  0  0  0  0  0  0  0
  -21.3480   -4.0540   26.0110 F   0  0  0  0  0  0  0  0  0  0  0  0
  -23.0420  -13.7110   21.1510 C   0  0  0  0  0  0  0  0  0  0  0  0
  -22.3310  -13.0110   22.0260 N   0  0  0  0  0  0  0  0  0  0  0  0
  -22.5940  -14.7410   20.6480 O   0  0  0  0  0  0  0  0  0  0  0  0
  -22.7040  -12.1800   22.4590 H   0  0  0  0  0  0  0  0  0  0  0  0
  -21.3980  -13.3130   22.2690 H   0  0  0  0  0  0  0  0  0  0  0  0
  -25.6500  -15.3940   20.3120 N   0  0  0  0  0  0  0  0  0  0  0  0
  -24.8750  -16.0350   20.4410 H   0  0  0  0  0  0  0  0  0  0  0  0
  -26.4910  -15.8500   19.9850 H   0  0  0  0  0  0  0  0  0  0  0  0
  -28.1730  -22.6450   19.2800 C   0  0  0  0  0  0  0  0  0  0  0  0
  -29.5090  -22.8830   20.8490 C   0  0  0  0  0  2  0  0  0  0  0  0
  -28.3740  -23.8470   20.3060 C   0  0  2  0  0  0  0  0  0  0  0  0
  -27.0960  -23.9910   21.1440 C   0  0  0  0  0  1  0  0  0  0  0  0
  -28.9010  -21.7690   20.1030 N   0  0  0  0  0  0  0  0  0  0  0  0
  -27.6220  -22.4840   18.2100 O   0  0  0  0  0  0  0  0  0  0  0  0
  -28.6590  -25.2550   19.5770 C   0  0  0  0  0  2  0  0  0  0  0  0
  -28.5380  -26.5890   20.2440 O   0  0  0  0  0  0  0  0  0  0  0  0
  -24.6700  -31.9280   23.2220 C   0  0  0  0  0  0  0  0  0  0  0  0
  -27.3940  -27.4080   20.1660 C   0  0  0  0  0  0  0  0  0  0  0  0
  -23.5150  -30.5190   21.5570 C   0  0  0  0  0  3  0  0  0  0  0  0
  -25.0080  -28.9990   20.1390 C   0  0  0  0  0  0  0  0  0  0  0  0
  -26.0520  -30.8710   21.4140 C   0  0  0  0  0  2  0  0  0  0  0  0
  -26.1600  -29.4950   20.7610 C   0  0  0  0  0  0  0  0  0  0  0  0
  -27.3510  -28.7070   20.7690 C   0  0  0  0  0  3  0  0  0  0  0  0
  -26.2140  -26.9670   19.5260 C   0  0  0  0  0  3  0  0  0  0  0  0
  -25.0390  -27.7430   19.5130 C   0  0  0  0  0  3  0  0  0  0  0  0
  -23.7610  -29.8580   20.1750 C   0  0  0  0  0  2  0  0  0  0  0  0
  -24.7640  -31.1260   22.1200 N   0  0  0  0  0  0  0  0  0  0  0  0
  -23.5730  -32.1820   23.7410 O   0  0  0  0  0  0  0  0  0  0  0  0
  -22.8570  -29.4840   22.5020 C   0  0  0  0  0  0  0  0  0  0  0  0
  -21.5320  -29.3010   22.3700 N   0  0  0  0  0  0  0  0  0  0  0  0
  -23.5380  -28.8500   23.3120 O   0  0  0  0  0  0  0  0  0  0  0  0
  -21.0450  -29.8670   21.6890 H   0  0  0  0  0  0  0  0  0  0  0  0
  -18.1530  -28.1080   22.8730 C   0  0  0  0  0  0  0  0  0  0  0  0
  -20.7160  -28.3490   23.1230 C   0  0  0  0  0  3  0  0  0  0  0  0
  -20.8050  -26.9320   22.5080 C   0  0  0  0  0  2  0  0  0  0  0  0
  -19.6890  -26.6400   21.4990 C   0  0  0  0  0  2  0  0  0  0  0  0
  -18.3150  -26.7770   22.1610 C   0  0  0  0  0  2  0  0  0  0  0  0
  -19.2800  -28.8530   23.3110 C   0  0  0  0  0  0  0  0  0  0  0  0
  -19.0730  -30.1010   23.9410 C   0  0  0  0  0  3  0  0  0  0  0  0
  -17.7720  -30.6010   24.1360 C   0  0  0  0  0  3  0  0  0  0  0  0
  -16.6600  -29.8530   23.7130 C   0  0  0  0  0  3  0  0  0  0  0  0
  -16.8520  -28.6080   23.0860 C   0  0  0  0  0  3  0  0  0  0  0  0
  -25.9300  -32.5800   23.8690 C   0  0  0  0  0  3  0  0  0  0  0  0
  -26.4210  -31.8260   25.1640 C   0  0  1  0  0  0  0  0  0  0  0  0
  -25.3010  -31.5750   26.2020 C   0  0  0  0  0  1  0  0  0  0  0  0
  -27.0390  -30.4570   24.7960 C   0  0  0  0  0  1  0  0  0  0  0  0
  -27.5410  -32.6420   25.8530 C   0  0  0  0  0  1  0  0  0  0  0  0
  -25.5960  -33.9770   24.1860 N   0  0  0  0  0  0  0  0  0  0  0  0
  -25.9260  -35.0290   23.4260 C   0  0  0  0  0  0  0  0  0  0  0  0
  -26.6110  -34.9280   22.4050 O   0  0  0  0  0  0  0  0  0  0  0  0
  -24.9910  -34.1280   24.9780 H   0  0  0  0  0  0  0  0  0  0  0  0
  -24.1890  -36.8040   23.0200 C   0  0  0  0  0  1  0  0  0  0  0  0
  -25.4130  -36.4150   23.8650 C   0  0  0  0  0  3  0  0  0  0  0  0
  -27.5160  -37.3260   24.7490 C   0  0  0  0  0  1  0  0  0  0  0  0
  -26.4390  -37.4770   23.7730 N   0  0  0  0  0  0  0  0  0  0  0  0
  -26.0230  -38.3960   23.9020 H   0  0  0  0  0  0  0  0  0  0  0  0
  -31.4110  -17.0930   17.4950 C   0  0  0  0  0  3  0  0  0  0  0  0
  -30.2240  -17.2360   18.0980 N   0  0  0  0  0  0  0  0  0  0  0  0
  -32.3780  -17.8350   17.6870 O   0  0  0  0  0  0  0  0  0  0  0  0
  -29.5260  -16.5340   17.8850 H   0  0  0  0  0  0  0  0  0  0  0  0
  1  2  1  0
  3  6  2  0
  3  4  1  0
  4  1  2  0
  5 16  1  0
  5  2  2  0
  6  5  1  0
  7  3  1  0
  8 16  1  0
  9 14  1  0
 10 11  1  0
 10  9  1  0
 12 11  1  0
 12 21  1  0
 12 13  1  0
 14  8  1  0
 14 13  1  0
 15  8  2  0
 16 17  1  0
 18 19  2  0
 19 38  1  0
 20 19  1  0
 20 23  1  0
 21 22  1  0
 21 18  1  0
 22 20  2  0
 23 24  1  0
 24 25  2  0
 26 29  1  0
 26 25  1  0
 27 26  2  0
 28 27  1  0
 28 23  2  0
 29 30  1  0
 30 35  2  0
 30 31  1  0
 31 32  2  0
 33 32  1  0
 33 37  1  0
 34 33  2  0
 35 34  1  0
 36 35  1  0
 38 39  1  0
 39 42  1  0
 39 41  1  0
 40 38  2  0
 43 44  1  0
 43 18  1  0
 45 43  1  0
 46 50  1  0
 46 48  1  0
 48 47  1  0
 48 49  1  1
 50  4  1  0
 50 47  1  0
 51 46  2  0
 52 53  1  0
 52 48  1  0
 54 65  2  0
 55 53  1  0
 55 60  1  0
 56 64  1  0
 56 66  1  0
 57 63  1  0
 57 59  1  0
 58 64  1  0
 59 60  2  0
 59 58  1  0
 61 55  2  0
 62 61  1  0
 62 57  2  0
 63 56  1  0
 64 54  1  0
 66 68  2  0
 67 66  1  0
 69 67  1  0
 70 79  2  0
 70 75  1  0
 71 67  1  0
 71 75  1  0
 72 71  1  0
 73 74  1  0
 73 72  1  0
 74 70  1  0
 75 76  2  0
 76 77  1  0
 78 77  2  0
 79 78  1  0
 80 54  1  0
 80 85  1  0
 80 81  1  0
 81 84  1  1
 81 82  1  0
 83 81  1  0
 85 88  1  0
 86 90  1  0
 86 85  1  0
 87 86  2  0
 90 89  1  0
 92 90  1  0
 92 93  1  0
 92 91  1  0
 94 96  2  0
 94 95  1  0
 95  6  1  0
 97 95  1  0
M  ISO  4   8 100  16 100  52 101  53 101
M  END
>  <TORSDO>  (51) 
F 19

>  <SCORE>  (51) 
-13.818

>  <name>  (51) 
50

>  <ligand_id>  (51) 
50

>  <original_smiles>  (51) 
[H]C(=O)N([H])c1c(N([H])C(=O)N2C([H])([H])C([H])([H])C([H])([H])C([H])(n3nc(-c4c([H])c([H])c(Oc5c([H])c([H])c(F)c([H])c5F)c([H])c4[H])c(C(=O)N([H])[H])c3N([H])[H])C2([H])[H])c([H])c([H])c(N2C(=O)C(C([H])([H])[H])(C([H])([H])Oc3c([H])c([H])c4c(c3[H])C([H])([H])N(C(=O)C([H])(N([H])C(=O)C([H])(N([H])C([H])([H])[H])C([H])([H])[H])C(C([H])([H])[H])(C([H])([H])[H])C([H])([H])[H])C([H])(C(=O)N([H])C3([H])c5c([H])c([H])c([H])c([H])c5C([H])([H])C([H])([H])C3([H])[H])C4([H])[H])C2([H])[H])c1C([H])([H])[H]

>  <smiles>  (51) 
[H]C(=O)N([H])c1c(N([H])C(=O)N2C([H])([H])C([H])([H])C([H])([H])C([H])(n3nc(-c4c([H])c([H])c(Oc5c([H])c([H])c(F)c([H])c5F)c([H])c4[H])c(C(=O)N([H])[H])c3N([H])[H])C2([H])[H])c([H])c([H])c(N2C(=O)C(C([H])([H])[H])(C([H])([H])Oc3c([H])c([H])c4c(c3[H])C([H])([H])N(C(=O)C([H])(N([H])C(=O)C([H])(N([H])C([H])([H])[H])C([H])([H])[H])C(C([H])([H])[H])(C([H])([H])[H])C([H])([H])[H])C([H])(C(=O)N([H])C3([H])c5c([H])c([H])c([H])c([H])c5C([H])([H])C([H])([H])C3([H])[H])C4([H])[H])C2([H])[H])c1C([H])([H])[H]

$$$$
51:0:0
     RDKit          3D

 97105  0  0  1  0  0  0  0  0999 V2000
  -28.4690  -22.7070   20.2050 C   0  0  0  0  0  0  0  0  0  0  0  0
  -28.8370  -21.4590   19.6980 N   0  0  0  0  0  0  0  0  0  0  0  0
  -28.2790  -22.8490   21.4160 O   0  0  0  0  0  0  0  0  0  0  0  0
  -28.8480  -21.4230   18.6870 H   0  0  0  0  0  0  0  0  0  0  0  0
  -29.9290  -20.2950   21.6420 C   0  0  0  0  0  3  0  0  0  0  0  0
  -30.3940  -17.8810   21.6940 C   0  0  0  0  0  3  0  0  0  0  0  0
  -29.2400  -18.8740   19.7950 C   0  0  0  0  0  3  0  0  0  0  0  0
  -30.4570  -19.1560   22.3050 C   0  0  0  0  0  0  0  0  0  0  0  0
  -29.3040  -20.2100   20.3720 C   0  0  0  0  0  0  0  0  0  0  0  0
  -29.7850  -17.6860   20.4390 C   0  0  0  0  0  0  0  0  0  0  0  0
  -30.5010  -15.2300   19.9040 C   0  0  0  0  0  0  0  0  0  0  0  0
  -30.4160  -12.9270   18.9280 C   0  0  0  0  0  2  0  0  0  0  0  0
  -29.3920  -12.8860   17.7700 C   0  0  0  0  0  2  0  0  0  0  0  0
  -27.9680  -12.6230   18.3030 C   0  0  0  0  0  2  0  0  0  0  0  0
  -27.6060  -13.5240   19.5150 C   0  0  0  0  0  3  0  0  0  0  0  0
  -28.7380  -13.5420   20.5620 C   0  0  0  0  0  2  0  0  0  0  0  0
  -29.9610  -13.9680   19.8730 N   0  0  0  0  0  0  0  0  0  0  0  0
  -31.6780  -15.4120   19.5820 O   0  0  0  0  0  0  0  0  0  0  0  0
  -29.6120  -16.2930   19.9770 N   0  0  0  0  0  0  0  0  0  0  0  0
  -28.6520  -16.0190   19.8340 H   0  0  0  0  0  0  0  0  0  0  0  0
  -25.2790  -13.9930   20.4910 C   0  0  0  0  0  0  0  0  0  0  0  0
  -24.2750  -13.1640   20.9030 C   0  0  0  0  0  0  0  0  0  0  0  0
  -24.7720  -11.8330   20.7510 C   0  0  0  0  0  0  0  0  0  0  0  0
  -26.3220  -13.1640   20.1060 N   0  0  0  0  0  0  0  0  0  0  0  0
  -26.0290  -11.8570   20.3270 N   0  0  0  0  0  0  0  0  0  0  0  0
  -24.1010  -10.5380   20.9250 C   0  0  0  0  0  0  0  0  0  0  0  0
  -24.4840   -9.6400   21.9450 C   0  0  0  0  0  3  0  0  0  0  0  0
  -23.8120   -8.4090   22.1030 C   0  0  0  0  0  3  0  0  0  0  0  0
  -22.7440   -8.0670   21.2380 C   0  0  0  0  0  0  0  0  0  0  0  0
  -22.3840   -8.9540   20.2090 C   0  0  0  0  0  3  0  0  0  0  0  0
  -23.0570  -10.1770   20.0500 C   0  0  0  0  0  3  0  0  0  0  0  0
  -22.0490   -6.8850   21.3040 O   0  0  0  0  0  0  0  0  0  0  0  0
  -21.7510   -6.2880   22.5030 C   0  0  0  0  0  0  0  0  0  0  0  0
  -20.9420   -6.9220   23.4700 C   0  0  0  0  0  3  0  0  0  0  0  0
  -20.6030   -6.2450   24.6580 C   0  0  0  0  0  3  0  0  0  0  0  0
  -21.0640   -4.9330   24.8780 C   0  0  0  0  0  0  0  0  0  0  0  0
  -21.8650   -4.2980   23.9140 C   0  0  0  0  0  3  0  0  0  0  0  0
  -22.2050   -4.9730   22.7280 C   0  0  0  0  0  0  0  0  0  0  0  0
  -22.9610   -4.3480   21.7930 F   0  0  0  0  0  0  0  0  0  0  0  0
  -20.7320   -4.2790   26.0160 F   0  0  0  0  0  0  0  0  0  0  0  0
  -22.8920  -13.5750   21.3190 C   0  0  0  0  0  0  0  0  0  0  0  0
  -22.2660  -12.8180   22.2120 N   0  0  0  0  0  0  0  0  0  0  0  0
  -22.3740  -14.6040   20.8840 O   0  0  0  0  0  0  0  0  0  0  0  0
  -22.6980  -11.9860   22.5900 H   0  0  0  0  0  0  0  0  0  0  0  0
  -21.3390  -13.0720   22.5240 H   0  0  0  0  0  0  0  0  0  0  0  0
  -25.3810  -15.3770   20.3840 N   0  0  0  0  0  0  0  0  0  0  0  0
  -24.5930  -15.9820   20.5930 H   0  0  0  0  0  0  0  0  0  0  0  0
  -26.1640  -15.8790   19.9880 H   0  0  0  0  0  0  0  0  0  0  0  0
  -31.6930  -20.5780   24.1200 C   0  0  0  0  0  1  0  0  0  0  0  0
  -31.0230  -19.2490   23.7260 C   0  0  2  0  0  0  0  0  0  0  0  0
  -31.9440  -18.3000   23.9040 F   0  0  0  0  0  0  0  0  0  0  0  0
  -30.0200  -19.0120   24.5720 F   0  0  0  0  0  0  0  0  0  0  0  0
  -27.0680  -23.6780   18.3030 C   0  0  0  0  0  1  0  0  0  0  0  0
  -29.5270  -24.2010   18.4450 C   0  0  0  0  0  1  0  0  0  0  0  0
  -28.2320  -24.0010   19.2600 C   0  0  2  0  0  0  0  0  0  0  0  0
  -27.8820  -25.4200   19.9940 C   0  0  0  0  0  2  0  0  0  0  0  0
  -27.8450  -26.7510   19.2810 O   0  0  0  0  0  0  0  0  0  0  0  0
  -24.4660  -31.9040   23.1430 C   0  0  0  0  0  0  0  0  0  0  0  0
  -26.7500  -27.6270   19.4530 C   0  0  0  0  0  0  0  0  0  0  0  0
  -23.1160  -30.7010   21.4620 C   0  0  0  0  0  3  0  0  0  0  0  0
  -24.4260  -29.2850   19.7730 C   0  0  0  0  0  0  0  0  0  0  0  0
  -25.6390  -31.0020   21.1170 C   0  0  0  0  0  2  0  0  0  0  0  0
  -25.6450  -29.6930   20.3300 C   0  0  0  0  0  0  0  0  0  0  0  0
  -26.8100  -28.8790   20.1560 C   0  0  0  0  0  3  0  0  0  0  0  0
  -25.5100  -27.2840   18.8750 C   0  0  0  0  0  3  0  0  0  0  0  0
  -24.3640  -28.0930   19.0270 C   0  0  0  0  0  3  0  0  0  0  0  0
  -23.2150  -30.1680   20.0070 C   0  0  0  0  0  2  0  0  0  0  0  0
  -24.4300  -31.2160   21.9630 N   0  0  0  0  0  0  0  0  0  0  0  0
  -23.4330  -32.1350   23.7870 O   0  0  0  0  0  0  0  0  0  0  0  0
  -22.5080  -29.5990   22.3640 C   0  0  0  0  0  0  0  0  0  0  0  0
  -21.1830  -29.3960   22.2670 N   0  0  0  0  0  0  0  0  0  0  0  0
  -23.2300  -28.9330   23.1120 O   0  0  0  0  0  0  0  0  0  0  0  0
  -20.6580  -29.9880   21.6370 H   0  0  0  0  0  0  0  0  0  0  0  0
  -17.8610  -28.0440   22.7580 C   0  0  0  0  0  0  0  0  0  0  0  0
  -20.4150  -28.3770   22.9860 C   0  0  0  0  0  3  0  0  0  0  0  0
  -20.5520  -26.9970   22.3030 C   0  0  0  0  0  2  0  0  0  0  0  0
  -19.4350  -26.7090   21.2950 C   0  0  0  0  0  2  0  0  0  0  0  0
  -18.0660  -26.7560   21.9800 C   0  0  0  0  0  2  0  0  0  0  0  0
  -18.9640  -28.8120   23.2180 C   0  0  0  0  0  0  0  0  0  0  0  0
  -18.7170  -30.0160   23.9120 C   0  0  0  0  0  3  0  0  0  0  0  0
  -17.4010  -30.4560   24.1470 C   0  0  0  0  0  3  0  0  0  0  0  0
  -16.3140  -29.6860   23.7000 C   0  0  0  0  0  3  0  0  0  0  0  0
  -16.5450  -28.4820   23.0110 C   0  0  0  0  0  3  0  0  0  0  0  0
  -25.8040  -32.4540   23.7280 C   0  0  0  0  0  3  0  0  0  0  0  0
  -26.3680  -31.5760   24.9130 C   0  0  1  0  0  0  0  0  0  0  0  0
  -25.3240  -31.2770   26.0140 C   0  0  0  0  0  1  0  0  0  0  0  0
  -26.8990  -30.2220   24.3860 C   0  0  0  0  0  1  0  0  0  0  0  0
  -27.5720  -32.2930   25.5670 C   0  0  0  0  0  1  0  0  0  0  0  0
  -25.5600  -33.8330   24.1820 N   0  0  0  0  0  0  0  0  0  0  0  0
  -25.9390  -34.9320   23.5170 C   0  0  0  0  0  0  0  0  0  0  0  0
  -26.6000  -34.8880   22.4760 O   0  0  0  0  0  0  0  0  0  0  0  0
  -24.9750  -33.9430   24.9980 H   0  0  0  0  0  0  0  0  0  0  0  0
  -24.3280  -36.8490   23.3060 C   0  0  0  0  0  1  0  0  0  0  0  0
  -25.5220  -36.2950   24.0990 C   0  0  0  0  0  3  0  0  0  0  0  0
  -27.6740  -36.9740   25.0670 C   0  0  0  0  0  1  0  0  0  0  0  0
  -26.6170  -37.2900   24.1080 N   0  0  0  0  0  0  0  0  0  0  0  0
  -26.2610  -38.2190   24.3170 H   0  0  0  0  0  0  0  0  0  0  0  0
  1  3  2  0
  2  1  1  0
  2  9  1  0
  4  2  1  0
  5  8  1  0
  6  8  2  0
  7  9  1  0
  7 10  2  0
  8 50  1  0
  9  5  2  0
 10  6  1  0
 11 19  1  0
 12 17  1  0
 13 14  1  0
 13 12  1  0
 15 14  1  0
 15 24  1  0
 15 16  1  0
 17 11  1  0
 17 16  1  0
 18 11  2  0
 19 10  1  0
 20 19  1  0
 21 22  2  0
 22 41  1  0
 23 22  1  0
 23 26  1  0
 24 25  1  0
 24 21  1  0
 25 23  2  0
 26 27  1  0
 27 28  2  0
 29 32  1  0
 29 28  1  0
 30 29  2  0
 31 30  1  0
 31 26  2  0
 32 33  1  0
 33 38  2  0
 33 34  1  0
 34 35  2  0
 35 36  1  0
 36 40  1  0
 37 36  2  0
 38 37  1  0
 39 38  1  0
 41 42  1  0
 42 45  1  0
 42 44  1  0
 43 41  2  0
 46 21  1  0
 46 47  1  0
 48 46  1  0
 50 51  1  0
 50 49  1  1
 50 52  1  0
 55 53  1  6
 54 55  1  0
 55 56  1  0
 55  1  1  0
 57 59  1  0
 57 56  1  0
 58 69  2  0
 59 64  1  0
 60 68  1  0
 60 70  1  0
 61 67  1  0
 61 63  1  0
 62 68  1  0
 63 62  1  0
 64 63  2  0
 65 66  1  0
 65 59  2  0
 66 61  2  0
 67 60  1  0
 68 58  1  0
 70 72  2  0
 71 70  1  0
 73 71  1  0
 74 83  2  0
 74 79  1  0
 75 71  1  0
 75 79  1  0
 76 75  1  0
 77 78  1  0
 77 76  1  0
 78 74  1  0
 79 80  2  0
 80 81  1  0
 82 81  2  0
 83 82  1  0
 84 58  1  0
 84 89  1  0
 84 85  1  0
 85 88  1  1
 85 86  1  0
 87 85  1  0
 89 92  1  0
 90 94  1  0
 90 89  1  0
 91 90  2  0
 94 93  1  0
 94 96  1  0
 96 97  1  0
 96 95  1  0
M  ISO  4  11 100  19 100  56 101  57 101
M  END
>  <TORSDO>  (52) 
F 20

>  <SCORE>  (52) 
-11.226

>  <name>  (52) 
51

>  <ligand_id>  (52) 
51

>  <original_smiles>  (52) 
[H]c1c([H])c([H])c2c(c1[H])C([H])([H])C([H])([H])C([H])([H])C2([H])N([H])C(=O)C1([H])N(C(=O)C([H])(N([H])C(=O)C([H])(N([H])C([H])([H])[H])C([H])([H])[H])C(C([H])([H])[H])(C([H])([H])[H])C([H])([H])[H])C([H])([H])c2c([H])c(OC([H])([H])C(C(=O)N([H])c3c([H])c(N([H])C(=O)N4C([H])([H])C([H])([H])C([H])([H])C([H])(n5nc(-c6c([H])c([H])c(Oc7c([H])c([H])c(F)c([H])c7F)c([H])c6[H])c(C(=O)N([H])[H])c5N([H])[H])C4([H])[H])c([H])c(C(F)(F)C([H])([H])[H])c3[H])(C([H])([H])[H])C([H])([H])[H])c([H])c([H])c2C1([H])[H]

>  <smiles>  (52) 
[H]c1c([H])c([H])c2c(c1[H])C([H])([H])C([H])([H])C([H])([H])C2([H])N([H])C(=O)C1([H])N(C(=O)C([H])(N([H])C(=O)C([H])(N([H])C([H])([H])[H])C([H])([H])[H])C(C([H])([H])[H])(C([H])([H])[H])C([H])([H])[H])C([H])([H])c2c([H])c(OC([H])([H])C(C(=O)N([H])c3c([H])c(N([H])C(=O)N4C([H])([H])C([H])([H])C([H])([H])C([H])(n5nc(-c6c([H])c([H])c(Oc7c([H])c([H])c(F)c([H])c7F)c([H])c6[H])c(C(=O)N([H])[H])c5N([H])[H])C4([H])[H])c([H])c(C(F)(F)C([H])([H])[H])c3[H])(C([H])([H])[H])C([H])([H])[H])c([H])c([H])c2C1([H])[H]

$$$$
52:0:0
     RDKit          3D

 92100  0  0  1  0  0  0  0  0999 V2000
  -30.0930  -21.6440   19.8970 C   0  0  0  0  0  2  0  0  0  0  0  0
  -28.7710  -19.4130   20.5200 C   0  0  0  0  0  3  0  0  0  0  0  0
  -28.7470  -17.9920   20.6850 C   0  0  0  0  0  3  0  0  0  0  0  0
  -31.0920  -17.8640   20.1880 C   0  0  0  0  0  3  0  0  0  0  0  0
  -29.9650  -20.0980   20.1810 C   0  0  0  0  0  0  0  0  0  0  0  0
  -29.8980  -17.1700   20.5150 C   0  0  0  0  0  0  0  0  0  0  0  0
  -31.1180  -19.2800   20.0270 C   0  0  0  0  0  0  0  0  0  0  0  0
  -32.2960  -19.8620   19.6960 F   0  0  0  0  0  0  0  0  0  0  0  0
  -30.5860  -14.6620   20.3240 C   0  0  0  0  0  0  0  0  0  0  0  0
  -30.3620  -12.4310   19.2500 C   0  0  0  0  0  2  0  0  0  0  0  0
  -29.4080  -12.5780   18.0450 C   0  0  0  0  0  2  0  0  0  0  0  0
  -27.9400  -12.4120   18.4850 C   0  0  0  0  0  2  0  0  0  0  0  0
  -27.5940  -13.2600   19.7380 C   0  0  0  0  0  3  0  0  0  0  0  0
  -28.6620  -13.0970   20.8420 C   0  0  0  0  0  2  0  0  0  0  0  0
  -29.9680  -13.4400   20.2530 N   0  0  0  0  0  0  0  0  0  0  0  0
  -31.7480  -14.8110   19.9310 O   0  0  0  0  0  0  0  0  0  0  0  0
  -29.7820  -15.7150   20.6820 N   0  0  0  0  0  0  0  0  0  0  0  0
  -28.8750  -15.4090   20.9980 H   0  0  0  0  0  0  0  0  0  0  0  0
  -25.2070  -13.8530   20.4820 C   0  0  0  0  0  0  0  0  0  0  0  0
  -24.1460  -13.0790   20.8630 C   0  0  0  0  0  0  0  0  0  0  0  0
  -24.6100  -11.7280   20.8260 C   0  0  0  0  0  0  0  0  0  0  0  0
  -26.2500  -12.9750   20.2340 N   0  0  0  0  0  0  0  0  0  0  0  0
  -25.8980  -11.6910   20.5020 N   0  0  0  0  0  0  0  0  0  0  0  0
  -23.8880  -10.4630   21.0240 C   0  0  0  0  0  0  0  0  0  0  0  0
  -24.3300   -9.4960   21.9530 C   0  0  0  0  0  3  0  0  0  0  0  0
  -23.6090   -8.2980   22.1370 C   0  0  0  0  0  3  0  0  0  0  0  0
  -22.4320   -8.0550   21.3890 C   0  0  0  0  0  0  0  0  0  0  0  0
  -22.0100   -9.0100   20.4490 C   0  0  0  0  0  3  0  0  0  0  0  0
  -22.7310  -10.2020   20.2630 C   0  0  0  0  0  3  0  0  0  0  0  0
  -21.6820   -6.9080   21.4840 O   0  0  0  0  0  0  0  0  0  0  0  0
  -21.6410   -6.1680   22.6380 C   0  0  0  0  0  0  0  0  0  0  0  0
  -21.2130   -6.7220   23.8640 C   0  0  0  0  0  3  0  0  0  0  0  0
  -21.1180   -5.9070   25.0110 C   0  0  0  0  0  3  0  0  0  0  0  0
  -21.4410   -4.5390   24.9320 C   0  0  0  0  0  0  0  0  0  0  0  0
  -21.8610   -3.9850   23.7110 C   0  0  0  0  0  3  0  0  0  0  0  0
  -21.9590   -4.7950   22.5670 C   0  0  0  0  0  0  0  0  0  0  0  0
  -22.3450   -4.2520   21.3870 F   0  0  0  0  0  0  0  0  0  0  0  0
  -21.3430   -3.7540   26.0300 F   0  0  0  0  0  0  0  0  0  0  0  0
  -22.7510  -13.5540   21.1490 C   0  0  0  0  0  0  0  0  0  0  0  0
  -22.0300  -12.8550   22.0200 N   0  0  0  0  0  0  0  0  0  0  0  0
  -22.3070  -14.5800   20.6360 O   0  0  0  0  0  0  0  0  0  0  0  0
  -22.4000  -12.0260   22.4610 H   0  0  0  0  0  0  0  0  0  0  0  0
  -21.0930  -13.1560   22.2510 H   0  0  0  0  0  0  0  0  0  0  0  0
  -25.3650  -15.2240   20.3030 N   0  0  0  0  0  0  0  0  0  0  0  0
  -24.5860  -15.8650   20.4010 H   0  0  0  0  0  0  0  0  0  0  0  0
  -26.1890  -15.6620   19.9120 H   0  0  0  0  0  0  0  0  0  0  0  0
  -29.2420  -24.0320   20.1650 C   0  0  0  0  0  0  0  0  0  0  0  0
  -29.0660  -22.6720   20.2810 N   0  0  0  0  0  0  0  0  0  0  0  0
  -30.3360  -24.4960   19.8360 O   0  0  0  0  0  0  0  0  0  0  0  0
  -28.1540  -22.3390   20.5650 H   0  0  0  0  0  0  0  0  0  0  0  0
  -28.0440  -25.0250   20.4090 C   0  0  0  0  0  2  0  0  0  0  0  0
  -28.3200  -26.4710   20.1830 O   0  0  0  0  0  0  0  0  0  0  0  0
  -24.6270  -31.8890   23.2370 C   0  0  0  0  0  0  0  0  0  0  0  0
  -27.2090  -27.3320   20.1550 C   0  0  0  0  0  0  0  0  0  0  0  0
  -23.4130  -30.5000   21.5980 C   0  0  0  0  0  3  0  0  0  0  0  0
  -24.8520  -28.9530   20.1610 C   0  0  0  0  0  0  0  0  0  0  0  0
  -25.9520  -30.8080   21.4090 C   0  0  0  0  0  2  0  0  0  0  0  0
  -26.0240  -29.4310   20.7610 C   0  0  0  0  0  0  0  0  0  0  0  0
  -27.2060  -28.6300   20.7540 C   0  0  0  0  0  3  0  0  0  0  0  0
  -26.0190  -26.9210   19.5130 C   0  0  0  0  0  3  0  0  0  0  0  0
  -24.8510  -27.7040   19.5280 C   0  0  0  0  0  3  0  0  0  0  0  0
  -23.6210  -29.8320   20.2130 C   0  0  0  0  0  2  0  0  0  0  0  0
  -24.6830  -31.0830   22.1370 N   0  0  0  0  0  0  0  0  0  0  0  0
  -23.5460  -32.1690   23.7750 O   0  0  0  0  0  0  0  0  0  0  0  0
  -22.7520  -29.4800   22.5550 C   0  0  0  0  0  0  0  0  0  0  0  0
  -21.4240  -29.3070   22.4320 N   0  0  0  0  0  0  0  0  0  0  0  0
  -23.4300  -28.8480   23.3690 O   0  0  0  0  0  0  0  0  0  0  0  0
  -20.9350  -29.8680   21.7480 H   0  0  0  0  0  0  0  0  0  0  0  0
  -18.0440  -28.1240   22.9410 C   0  0  0  0  0  0  0  0  0  0  0  0
  -20.6050  -28.3710   23.2050 C   0  0  0  0  0  3  0  0  0  0  0  0
  -20.6990  -26.9410   22.6270 C   0  0  0  0  0  2  0  0  0  0  0  0
  -19.5930  -26.6240   21.6160 C   0  0  0  0  0  2  0  0  0  0  0  0
  -18.2130  -26.7740   22.2650 C   0  0  0  0  0  2  0  0  0  0  0  0
  -19.1670  -28.8810   23.3690 C   0  0  0  0  0  0  0  0  0  0  0  0
  -18.9550  -30.1440   23.9640 C   0  0  0  0  0  3  0  0  0  0  0  0
  -17.6520  -30.6490   24.1350 C   0  0  0  0  0  3  0  0  0  0  0  0
  -16.5440  -29.8900   23.7200 C   0  0  0  0  0  3  0  0  0  0  0  0
  -16.7410  -28.6290   23.1290 C   0  0  0  0  0  3  0  0  0  0  0  0
  -25.9150  -32.5150   23.8550 C   0  0  0  0  0  3  0  0  0  0  0  0
  -26.4350  -31.7360   25.1250 C   0  0  1  0  0  0  0  0  0  0  0  0
  -25.3470  -31.4960   26.1970 C   0  0  0  0  0  1  0  0  0  0  0  0
  -27.0120  -30.3580   24.7240 C   0  0  0  0  0  1  0  0  0  0  0  0
  -27.5920  -32.5220   25.7850 C   0  0  0  0  0  1  0  0  0  0  0  0
  -25.6090  -33.9120   24.1950 N   0  0  0  0  0  0  0  0  0  0  0  0
  -25.9300  -34.9670   23.4340 C   0  0  0  0  0  0  0  0  0  0  0  0
  -26.5850  -34.8670   22.3930 O   0  0  0  0  0  0  0  0  0  0  0  0
  -25.0290  -34.0640   25.0070 H   0  0  0  0  0  0  0  0  0  0  0  0
  -24.1970  -36.7600   23.1090 C   0  0  0  0  0  1  0  0  0  0  0  0
  -25.4500  -36.3550   23.9020 C   0  0  0  0  0  3  0  0  0  0  0  0
  -27.5960  -37.2380   24.7040 C   0  0  0  0  0  1  0  0  0  0  0  0
  -26.4800  -37.4070   23.7760 N   0  0  0  0  0  0  0  0  0  0  0  0
  -26.0760  -38.3270   23.9320 H   0  0  0  0  0  0  0  0  0  0  0  0
  1  5  1  0
  1 48  1  0
  2  3  1  0
  4  6  1  0
  5  2  2  0
  6 17  1  0
  6  3  2  0
  7  5  1  0
  7  4  2  0
  8  7  1  0
  9 17  1  0
 10 15  1  0
 11 12  1  0
 11 10  1  0
 13 12  1  0
 13 22  1  0
 13 14  1  0
 15  9  1  0
 15 14  1  0
 16  9  2  0
 17 18  1  0
 19 20  2  0
 20 39  1  0
 21 20  1  0
 21 24  1  0
 22 19  1  0
 22 23  1  0
 23 21  2  0
 24 25  1  0
 25 26  2  0
 27 30  1  0
 27 26  1  0
 28 27  2  0
 29 28  1  0
 29 24  2  0
 30 31  1  0
 31 32  1  0
 32 33  2  0
 34 33  1  0
 34 38  1  0
 35 34  2  0
 36 31  2  0
 36 35  1  0
 37 36  1  0
 39 40  1  0
 40 43  1  0
 40 42  1  0
 41 39  2  0
 44 45  1  0
 44 19  1  0
 46 44  1  0
 47 48  1  0
 47 51  1  0
 48 50  1  0
 49 47  2  0
 52 51  1  0
 53 64  2  0
 54 52  1  0
 54 59  1  0
 55 63  1  0
 55 65  1  0
 56 62  1  0
 56 58  1  0
 57 63  1  0
 58 57  1  0
 59 58  2  0
 60 61  1  0
 60 54  2  0
 61 56  2  0
 62 55  1  0
 63 53  1  0
 65 67  2  0
 66 65  1  0
 68 66  1  0
 69 78  2  0
 69 74  1  0
 70 66  1  0
 70 74  1  0
 71 70  1  0
 72 73  1  0
 72 71  1  0
 73 69  1  0
 74 75  2  0
 75 76  1  0
 77 76  2  0
 78 77  1  0
 79 53  1  0
 79 84  1  0
 79 80  1  0
 80 83  1  1
 80 81  1  0
 82 80  1  0
 84 87  1  0
 85 89  1  0
 85 84  1  0
 86 85  2  0
 89 88  1  0
 91 89  1  0
 91 92  1  0
 91 90  1  0
M  ISO  4   9 100  17 100  51 101  52 101
M  END
>  <TORSDO>  (53) 
F 19

>  <SCORE>  (53) 
-14.298

>  <name>  (53) 
52

>  <ligand_id>  (53) 
52

>  <original_smiles>  (53) 
[H]c1c([H])c([H])c2c(c1[H])C([H])([H])C([H])([H])C([H])([H])C2([H])N([H])C(=O)C1([H])N(C(=O)C([H])(N([H])C(=O)C([H])(N([H])C([H])([H])[H])C([H])([H])[H])C(C([H])([H])[H])(C([H])([H])[H])C([H])([H])[H])C([H])([H])c2c([H])c(OC([H])([H])C(=O)N([H])C([H])([H])c3c([H])c([H])c(N([H])C(=O)N4C([H])([H])C([H])([H])C([H])([H])C([H])(n5nc(-c6c([H])c([H])c(Oc7c([H])c([H])c(F)c([H])c7F)c([H])c6[H])c(C(=O)N([H])[H])c5N([H])[H])C4([H])[H])c([H])c3F)c([H])c([H])c2C1([H])[H]

>  <smiles>  (53) 
[H]c1c([H])c([H])c2c(c1[H])C([H])([H])C([H])([H])C([H])([H])C2([H])N([H])C(=O)C1([H])N(C(=O)C([H])(N([H])C(=O)C([H])(N([H])C([H])([H])[H])C([H])([H])[H])C(C([H])([H])[H])(C([H])([H])[H])C([H])([H])[H])C([H])([H])c2c([H])c(OC([H])([H])C(=O)N([H])C([H])([H])c3c([H])c([H])c(N([H])C(=O)N4C([H])([H])C([H])([H])C([H])([H])C([H])(n5nc(-c6c([H])c([H])c(Oc7c([H])c([H])c(F)c([H])c7F)c([H])c6[H])c(C(=O)N([H])[H])c5N([H])[H])C4([H])[H])c([H])c3F)c([H])c([H])c2C1([H])[H]

$$$$
53:0:0
     RDKit          3D

 98106  0  0  1  0  0  0  0  0999 V2000
  -31.8890  -18.8600   19.1080 C   0  0  0  0  0  3  0  0  0  0  0  0
  -31.4310  -17.5690   19.4090 C   0  0  0  0  0  3  0  0  0  0  0  0
  -29.5640  -18.5480   20.5990 C   0  0  0  0  0  3  0  0  0  0  0  0
  -31.2280  -20.0190   19.5560 C   0  0  0  0  0  0  0  0  0  0  0  0
  -30.2870  -17.3380   20.2080 C   0  0  0  0  0  0  0  0  0  0  0  0
  -29.9880  -19.9140   20.2690 C   0  0  0  0  0  0  0  0  0  0  0  0
  -30.6160  -14.7440   20.3740 C   0  0  0  0  0  0  0  0  0  0  0  0
  -30.3540  -12.4840   19.3650 C   0  0  0  0  0  2  0  0  0  0  0  0
  -29.4280  -12.5790   18.1350 C   0  0  0  0  0  2  0  0  0  0  0  0
  -27.9560  -12.4150   18.5640 C   0  0  0  0  0  2  0  0  0  0  0  0
  -27.5890  -13.3000   19.7840 C   0  0  0  0  0  3  0  0  0  0  0  0
  -28.6440  -13.2180   20.9080 C   0  0  0  0  0  2  0  0  0  0  0  0
  -29.9430  -13.5460   20.3120 N   0  0  0  0  0  0  0  0  0  0  0  0
  -31.8200  -14.7520   20.1060 O   0  0  0  0  0  0  0  0  0  0  0  0
  -29.9030  -15.9310   20.5380 N   0  0  0  0  0  0  0  0  0  0  0  0
  -28.9510  -15.8050   20.8480 H   0  0  0  0  0  0  0  0  0  0  0  0
  -25.2030  -13.8930   20.5100 C   0  0  0  0  0  0  0  0  0  0  0  0
  -24.1360  -13.1210   20.8790 C   0  0  0  0  0  0  0  0  0  0  0  0
  -24.5980  -11.7690   20.8520 C   0  0  0  0  0  0  0  0  0  0  0  0
  -26.2450  -13.0130   20.2760 N   0  0  0  0  0  0  0  0  0  0  0  0
  -25.8900  -11.7310   20.5460 N   0  0  0  0  0  0  0  0  0  0  0  0
  -23.8700  -10.5080   21.0410 C   0  0  0  0  0  0  0  0  0  0  0  0
  -24.2960   -9.5400   21.9760 C   0  0  0  0  0  3  0  0  0  0  0  0
  -23.5660   -8.3450   22.1530 C   0  0  0  0  0  3  0  0  0  0  0  0
  -22.3950   -8.1090   21.3930 C   0  0  0  0  0  0  0  0  0  0  0  0
  -21.9870   -9.0660   20.4480 C   0  0  0  0  0  3  0  0  0  0  0  0
  -22.7170  -10.2530   20.2690 C   0  0  0  0  0  3  0  0  0  0  0  0
  -21.6370   -6.9660   21.4780 O   0  0  0  0  0  0  0  0  0  0  0  0
  -21.5840   -6.2230   22.6300 C   0  0  0  0  0  0  0  0  0  0  0  0
  -21.1570   -6.7780   23.8560 C   0  0  0  0  0  3  0  0  0  0  0  0
  -21.0500   -5.9620   25.0000 C   0  0  0  0  0  3  0  0  0  0  0  0
  -21.3610   -4.5910   24.9180 C   0  0  0  0  0  0  0  0  0  0  0  0
  -21.7810   -4.0350   23.6970 C   0  0  0  0  0  3  0  0  0  0  0  0
  -21.8890   -4.8490   22.5550 C   0  0  0  0  0  0  0  0  0  0  0  0
  -22.2740   -4.3040   21.3760 F   0  0  0  0  0  0  0  0  0  0  0  0
  -21.2520   -3.8050   26.0140 F   0  0  0  0  0  0  0  0  0  0  0  0
  -22.7390  -13.6010   21.1450 C   0  0  0  0  0  0  0  0  0  0  0  0
  -22.0060  -12.9040   22.0040 N   0  0  0  0  0  0  0  0  0  0  0  0
  -22.3080  -14.6300   20.6240 O   0  0  0  0  0  0  0  0  0  0  0  0
  -22.3690  -12.0720   22.4460 H   0  0  0  0  0  0  0  0  0  0  0  0
  -21.0680  -13.2070   22.2260 H   0  0  0  0  0  0  0  0  0  0  0  0
  -25.3690  -15.2630   20.3290 N   0  0  0  0  0  0  0  0  0  0  0  0
  -24.5960  -15.9130   20.4160 H   0  0  0  0  0  0  0  0  0  0  0  0
  -26.2060  -15.6940   19.9540 H   0  0  0  0  0  0  0  0  0  0  0  0
  -31.9540  -21.2770   19.2970 C   0  0  0  0  0  0  0  0  0  0  0  0
  -32.3100  -22.0750   20.3020 N   0  0  0  0  0  0  0  0  0  0  0  0
  -32.2930  -21.6300   18.0570 N   0  0  0  0  0  4  0  0  0  0  0  0
  -32.1210  -21.7780   21.2490 H   0  0  0  0  0  0  0  0  0  0  0  0
  -32.8360  -22.9240   20.1740 H   0  0  0  0  0  0  0  0  0  0  0  0
  -31.9960  -21.0530   17.2830 H   0  0  0  0  0  0  0  0  0  0  0  0
  -32.7610  -22.4980   17.8490 H   0  0  0  0  0  0  0  0  0  0  0  0
  -28.9690  -22.2940   20.0080 C   0  0  0  0  0  0  0  0  0  0  0  0
  -29.2850  -21.1490   20.7270 N   0  0  0  0  0  0  0  0  0  0  0  0
  -28.7310  -22.2070   18.8020 O   0  0  0  0  0  0  0  0  0  0  0  0
  -29.1660  -21.2280   21.7290 H   0  0  0  0  0  0  0  0  0  0  0  0
  -28.9320  -23.7530   20.6620 C   0  0  0  0  0  3  0  0  0  0  0  0
  -28.0610  -24.9260   19.9810 C   0  0  0  0  0  3  0  0  0  0  0  0
  -28.2700  -26.3840   20.2910 O   0  0  0  0  0  0  0  0  0  0  0  0
  -24.5890  -31.8810   23.2440 C   0  0  0  0  0  0  0  0  0  0  0  0
  -27.1800  -27.2810   20.1950 C   0  0  0  0  0  0  0  0  0  0  0  0
  -23.3860  -30.4870   21.6020 C   0  0  0  0  0  3  0  0  0  0  0  0
  -24.8340  -28.9380   20.1690 C   0  0  0  0  0  0  0  0  0  0  0  0
  -25.9290  -30.7890   21.4270 C   0  0  0  0  0  2  0  0  0  0  0  0
  -26.0030  -29.4080   20.7790 C   0  0  0  0  0  0  0  0  0  0  0  0
  -27.1780  -28.5890   20.7860 C   0  0  0  0  0  3  0  0  0  0  0  0
  -25.9920  -26.8930   19.5300 C   0  0  0  0  0  3  0  0  0  0  0  0
  -24.8330  -27.6900   19.5320 C   0  0  0  0  0  3  0  0  0  0  0  0
  -23.6000  -29.8170   20.2190 C   0  0  0  0  0  2  0  0  0  0  0  0
  -24.6550  -31.0700   22.1470 N   0  0  0  0  0  0  0  0  0  0  0  0
  -23.5040  -32.1610   23.7750 O   0  0  0  0  0  0  0  0  0  0  0  0
  -22.7180  -29.4710   22.5590 C   0  0  0  0  0  0  0  0  0  0  0  0
  -21.3910  -29.2990   22.4290 N   0  0  0  0  0  0  0  0  0  0  0  0
  -23.3930  -28.8420   23.3800 O   0  0  0  0  0  0  0  0  0  0  0  0
  -20.9060  -29.8570   21.7400 H   0  0  0  0  0  0  0  0  0  0  0  0
  -18.0110  -28.1070   22.9180 C   0  0  0  0  0  0  0  0  0  0  0  0
  -20.5670  -28.3640   23.1980 C   0  0  0  0  0  3  0  0  0  0  0  0
  -20.6690  -26.9310   22.6270 C   0  0  0  0  0  2  0  0  0  0  0  0
  -19.5710  -26.6070   21.6090 C   0  0  0  0  0  2  0  0  0  0  0  0
  -18.1860  -26.7570   22.2460 C   0  0  0  0  0  2  0  0  0  0  0  0
  -19.1290  -28.8680   23.3500 C   0  0  0  0  0  0  0  0  0  0  0  0
  -18.9110  -30.1320   23.9420 C   0  0  0  0  0  3  0  0  0  0  0  0
  -17.6060  -30.6360   24.1030 C   0  0  0  0  0  3  0  0  0  0  0  0
  -16.5020  -29.8720   23.6880 C   0  0  0  0  0  3  0  0  0  0  0  0
  -16.7040  -28.6100   23.1020 C   0  0  0  0  0  3  0  0  0  0  0  0
  -25.8700  -32.5150   23.8660 C   0  0  0  0  0  3  0  0  0  0  0  0
  -26.3790  -31.7500   25.1500 C   0  0  1  0  0  0  0  0  0  0  0  0
  -25.2790  -31.5250   26.2140 C   0  0  0  0  0  1  0  0  0  0  0  0
  -26.9580  -30.3660   24.7720 C   0  0  0  0  0  1  0  0  0  0  0  0
  -27.5290  -32.5440   25.8110 C   0  0  0  0  0  1  0  0  0  0  0  0
  -25.5630  -33.9150   24.1880 N   0  0  0  0  0  0  0  0  0  0  0  0
  -25.8950  -34.9650   23.4260 C   0  0  0  0  0  0  0  0  0  0  0  0
  -26.5670  -34.8580   22.3970 O   0  0  0  0  0  0  0  0  0  0  0  0
  -24.9680  -34.0710   24.9880 H   0  0  0  0  0  0  0  0  0  0  0  0
  -24.1740  -36.7660   23.0670 C   0  0  0  0  0  1  0  0  0  0  0  0
  -25.4120  -36.3560   23.8800 C   0  0  0  0  0  3  0  0  0  0  0  0
  -27.5510  -37.2380   24.7100 C   0  0  0  0  0  1  0  0  0  0  0  0
  -26.4490  -37.4060   23.7640 N   0  0  0  0  0  0  0  0  0  0  0  0
  -26.0460  -38.3270   23.9110 H   0  0  0  0  0  0  0  0  0  0  0  0
  1  2  2  0
  1  4  1  0
  2  5  1  0
  4  6  2  0
  5 15  1  0
  5  3  2  0
  6  3  1  0
  6 53  1  0
  7 15  1  0
  8 13  1  0
  9 10  1  0
  9  8  1  0
 11 10  1  0
 11 20  1  0
 11 12  1  0
 13  7  1  0
 13 12  1  0
 14  7  2  0
 15 16  1  0
 17 18  2  0
 18 37  1  0
 19 18  1  0
 19 22  1  0
 20 17  1  0
 20 21  1  0
 21 19  2  0
 22 23  1  0
 23 24  2  0
 25 28  1  0
 25 24  1  0
 26 25  2  0
 27 26  1  0
 27 22  2  0
 28 29  1  0
 29 30  1  0
 30 31  2  0
 32 31  1  0
 32 36  1  0
 33 32  2  0
 34 29  2  0
 34 33  1  0
 35 34  1  0
 37 38  1  0
 38 41  1  0
 38 40  1  0
 39 37  2  0
 42 43  1  0
 42 17  1  0
 44 42  1  0
 45  4  1  0
 45 46  1  0
 46 48  1  0
 47 45  2  0
 49 46  1  0
 50 47  1  0
 51 47  1  0
 52 56  1  0
 52 53  1  0
 53 55  1  0
 54 52  2  0
 57 58  1  0
 57 56  2  0
 59 70  2  0
 60 58  1  0
 60 65  1  0
 61 69  1  0
 61 71  1  0
 62 68  1  0
 62 64  1  0
 63 69  1  0
 64 65  2  0
 64 63  1  0
 66 67  1  0
 66 60  2  0
 67 62  2  0
 68 61  1  0
 69 59  1  0
 71 73  2  0
 72 71  1  0
 74 72  1  0
 75 84  2  0
 75 80  1  0
 76 72  1  0
 76 80  1  0
 77 76  1  0
 78 79  1  0
 78 77  1  0
 79 75  1  0
 80 81  2  0
 81 82  1  0
 83 82  2  0
 84 83  1  0
 85 59  1  0
 85 90  1  0
 85 86  1  0
 86 89  1  1
 86 87  1  0
 88 86  1  0
 90 93  1  0
 91 95  1  0
 91 90  1  0
 92 91  2  0
 95 94  1  0
 97 95  1  0
 97 98  1  0
 97 96  1  0
M  ISO  4   7 100  15 100  57 101  58 101
M  END
>  <TORSDO>  (54) 
F 20

>  <SCORE>  (54) 
-13.989

>  <name>  (54) 
53

>  <ligand_id>  (54) 
53

>  <original_smiles>  (54) 
[H]c1c([H])c([H])c2c(c1[H])C([H])([H])C([H])([H])C([H])([H])C2([H])N([H])C(=O)C1([H])N(C(=O)C([H])(N([H])C(=O)C([H])(N([H])C([H])([H])[H])C([H])([H])[H])C(C([H])([H])[H])(C([H])([H])[H])C([H])([H])[H])C([H])([H])c2c([H])c(OC([H])([H])C([H])([H])C(=O)N([H])c3c([H])c(N([H])C(=O)N4C([H])([H])C([H])([H])C([H])([H])C([H])(n5nc(-c6c([H])c([H])c(Oc7c([H])c([H])c(F)c([H])c7F)c([H])c6[H])c(C(=O)N([H])[H])c5N([H])[H])C4([H])[H])c([H])c([H])c3C(N([H])[H])=[N+]([H])[H])c([H])c([H])c2C1([H])[H]

>  <smiles>  (54) 
[H]c1c([H])c([H])c2c(c1[H])C([H])([H])C([H])([H])C([H])([H])C2([H])N([H])C(=O)C1([H])N(C(=O)C([H])(N([H])C(=O)C([H])(N([H])C([H])([H])[H])C([H])([H])[H])C(C([H])([H])[H])(C([H])([H])[H])C([H])([H])[H])C([H])([H])c2c([H])c(OC([H])([H])C([H])([H])C(=O)N([H])c3c([H])c(N([H])C(=O)N4C([H])([H])C([H])([H])C([H])([H])C([H])(n5nc(-c6c([H])c([H])c(Oc7c([H])c([H])c(F)c([H])c7F)c([H])c6[H])c(C(=O)N([H])[H])c5N([H])[H])C4([H])[H])c([H])c([H])c3C(N([H])[H])=[N+]([H])[H])c([H])c([H])c2C1([H])[H]

$$$$
54:0:0
     RDKit          3D

 92100  0  0  1  0  0  0  0  0999 V2000
  -29.2050  -22.3760   19.9710 C   0  0  0  0  0  0  0  0  0  0  0  0
  -29.4770  -21.2170   20.6870 N   0  0  0  0  0  0  0  0  0  0  0  0
  -29.1430  -22.3320   18.7400 O   0  0  0  0  0  0  0  0  0  0  0  0
  -29.2860  -21.2770   21.6800 H   0  0  0  0  0  0  0  0  0  0  0  0
  -32.0820  -18.9030   19.1490 C   0  0  0  0  0  3  0  0  0  0  0  0
  -31.5730  -17.6150   19.3900 C   0  0  0  0  0  3  0  0  0  0  0  0
  -29.6950  -18.6140   20.5500 C   0  0  0  0  0  3  0  0  0  0  0  0
  -31.4300  -20.0610   19.6130 C   0  0  0  0  0  0  0  0  0  0  0  0
  -30.4010  -17.3960   20.1570 C   0  0  0  0  0  0  0  0  0  0  0  0
  -30.1590  -19.9690   20.2520 C   0  0  0  0  0  0  0  0  0  0  0  0
  -32.1860  -21.3770   19.4520 C   0  0  0  0  0  1  0  0  0  0  0  0
  -30.6450  -14.7840   20.3110 C   0  0  0  0  0  0  0  0  0  0  0  0
  -30.3410  -12.5210   19.3160 C   0  0  0  0  0  2  0  0  0  0  0  0
  -29.4000  -12.6130   18.0980 C   0  0  0  0  0  2  0  0  0  0  0  0
  -27.9340  -12.4550   18.5440 C   0  0  0  0  0  2  0  0  0  0  0  0
  -27.5800  -13.3440   19.7650 C   0  0  0  0  0  3  0  0  0  0  0  0
  -28.6550  -13.2780   20.8740 C   0  0  0  0  0  2  0  0  0  0  0  0
  -29.9470  -13.5970   20.2560 N   0  0  0  0  0  0  0  0  0  0  0  0
  -31.8460  -14.7670   20.0440 O   0  0  0  0  0  0  0  0  0  0  0  0
  -29.9640  -15.9940   20.4590 N   0  0  0  0  0  0  0  0  0  0  0  0
  -29.0010  -15.8940   20.7400 H   0  0  0  0  0  0  0  0  0  0  0  0
  -25.2020  -13.9360   20.5200 C   0  0  0  0  0  0  0  0  0  0  0  0
  -24.1360  -13.1640   20.8950 C   0  0  0  0  0  0  0  0  0  0  0  0
  -24.5960  -11.8110   20.8590 C   0  0  0  0  0  0  0  0  0  0  0  0
  -26.2420  -13.0550   20.2740 N   0  0  0  0  0  0  0  0  0  0  0  0
  -25.8860  -11.7720   20.5420 N   0  0  0  0  0  0  0  0  0  0  0  0
  -23.8640  -10.5490   21.0470 C   0  0  0  0  0  0  0  0  0  0  0  0
  -24.2940   -9.5780   21.9770 C   0  0  0  0  0  3  0  0  0  0  0  0
  -23.5620   -8.3830   22.1550 C   0  0  0  0  0  3  0  0  0  0  0  0
  -22.3840   -8.1540   21.4040 C   0  0  0  0  0  0  0  0  0  0  0  0
  -21.9740   -9.1150   20.4640 C   0  0  0  0  0  3  0  0  0  0  0  0
  -22.7060  -10.3000   20.2830 C   0  0  0  0  0  3  0  0  0  0  0  0
  -21.6240   -7.0130   21.4930 O   0  0  0  0  0  0  0  0  0  0  0  0
  -21.5760   -6.2680   22.6420 C   0  0  0  0  0  0  0  0  0  0  0  0
  -21.1490   -6.8200   23.8710 C   0  0  0  0  0  3  0  0  0  0  0  0
  -21.0480   -5.9990   25.0130 C   0  0  0  0  0  3  0  0  0  0  0  0
  -21.3630   -4.6290   24.9270 C   0  0  0  0  0  0  0  0  0  0  0  0
  -21.7840   -4.0790   23.7040 C   0  0  0  0  0  3  0  0  0  0  0  0
  -21.8860   -4.8950   22.5640 C   0  0  0  0  0  0  0  0  0  0  0  0
  -22.2700   -4.3540   21.3840 F   0  0  0  0  0  0  0  0  0  0  0  0
  -21.2590   -3.8400   26.0230 F   0  0  0  0  0  0  0  0  0  0  0  0
  -22.7420  -13.6450   21.1740 C   0  0  0  0  0  0  0  0  0  0  0  0
  -22.0140  -12.9460   22.0380 N   0  0  0  0  0  0  0  0  0  0  0  0
  -22.3070  -14.6750   20.6610 O   0  0  0  0  0  0  0  0  0  0  0  0
  -22.3780  -12.1120   22.4730 H   0  0  0  0  0  0  0  0  0  0  0  0
  -21.0790  -13.2500   22.2680 H   0  0  0  0  0  0  0  0  0  0  0  0
  -25.3690  -15.3060   20.3430 N   0  0  0  0  0  0  0  0  0  0  0  0
  -24.6020  -15.9600   20.4470 H   0  0  0  0  0  0  0  0  0  0  0  0
  -26.2120  -15.7390   19.9880 H   0  0  0  0  0  0  0  0  0  0  0  0
  -28.9520  -23.7940   20.6690 C   0  0  0  0  0  3  0  0  0  0  0  0
  -28.2140  -24.9770   19.8490 C   0  0  0  0  0  3  0  0  0  0  0  0
  -28.3060  -26.4270   20.2450 O   0  0  0  0  0  0  0  0  0  0  0  0
  -24.6060  -31.8890   23.2230 C   0  0  0  0  0  0  0  0  0  0  0  0
  -27.1950  -27.3010   20.1530 C   0  0  0  0  0  0  0  0  0  0  0  0
  -23.3940  -30.4940   21.5870 C   0  0  0  0  0  3  0  0  0  0  0  0
  -24.8370  -28.9480   20.1470 C   0  0  0  0  0  0  0  0  0  0  0  0
  -25.9370  -30.7990   21.3990 C   0  0  0  0  0  2  0  0  0  0  0  0
  -26.0090  -29.4200   20.7500 C   0  0  0  0  0  0  0  0  0  0  0  0
  -27.1860  -28.6060   20.7490 C   0  0  0  0  0  3  0  0  0  0  0  0
  -26.0040  -26.9080   19.4950 C   0  0  0  0  0  3  0  0  0  0  0  0
  -24.8400  -27.6990   19.5100 C   0  0  0  0  0  3  0  0  0  0  0  0
  -23.6030  -29.8250   20.2040 C   0  0  0  0  0  2  0  0  0  0  0  0
  -24.6650  -31.0800   22.1240 N   0  0  0  0  0  0  0  0  0  0  0  0
  -23.5240  -32.1670   23.7620 O   0  0  0  0  0  0  0  0  0  0  0  0
  -22.7360  -29.4750   22.5470 C   0  0  0  0  0  0  0  0  0  0  0  0
  -21.4080  -29.2990   22.4280 N   0  0  0  0  0  0  0  0  0  0  0  0
  -23.4170  -28.8480   23.3630 O   0  0  0  0  0  0  0  0  0  0  0  0
  -20.9180  -29.8580   21.7440 H   0  0  0  0  0  0  0  0  0  0  0  0
  -18.0320  -28.1010   22.9370 C   0  0  0  0  0  0  0  0  0  0  0  0
  -20.5910  -28.3600   23.2000 C   0  0  0  0  0  3  0  0  0  0  0  0
  -20.6910  -26.9290   22.6250 C   0  0  0  0  0  2  0  0  0  0  0  0
  -19.5850  -26.6080   21.6140 C   0  0  0  0  0  2  0  0  0  0  0  0
  -18.2050  -26.7530   22.2620 C   0  0  0  0  0  2  0  0  0  0  0  0
  -19.1520  -28.8630   23.3640 C   0  0  0  0  0  0  0  0  0  0  0  0
  -18.9360  -30.1260   23.9570 C   0  0  0  0  0  3  0  0  0  0  0  0
  -17.6290  -30.6250   24.1290 C   0  0  0  0  0  3  0  0  0  0  0  0
  -16.5240  -29.8600   23.7190 C   0  0  0  0  0  3  0  0  0  0  0  0
  -16.7270  -28.6000   23.1280 C   0  0  0  0  0  3  0  0  0  0  0  0
  -25.8890  -32.5210   23.8420 C   0  0  0  0  0  3  0  0  0  0  0  0
  -26.4090  -31.7500   25.1170 C   0  0  1  0  0  0  0  0  0  0  0  0
  -25.3190  -31.5150   26.1880 C   0  0  0  0  0  1  0  0  0  0  0  0
  -26.9900  -30.3710   24.7240 C   0  0  0  0  0  1  0  0  0  0  0  0
  -27.5600  -32.5460   25.7750 C   0  0  0  0  0  1  0  0  0  0  0  0
  -25.5800  -33.9200   24.1760 N   0  0  0  0  0  0  0  0  0  0  0  0
  -25.9060  -34.9750   23.4160 C   0  0  0  0  0  0  0  0  0  0  0  0
  -26.5670  -34.8720   22.3800 O   0  0  0  0  0  0  0  0  0  0  0  0
  -24.9940  -34.0730   24.9820 H   0  0  0  0  0  0  0  0  0  0  0  0
  -24.1770  -36.7720   23.0730 C   0  0  0  0  0  1  0  0  0  0  0  0
  -25.4200  -36.3630   23.8800 C   0  0  0  0  0  3  0  0  0  0  0  0
  -27.5580  -37.2450   24.7080 C   0  0  0  0  0  1  0  0  0  0  0  0
  -26.4530  -37.4150   23.7660 N   0  0  0  0  0  0  0  0  0  0  0  0
  -26.0480  -38.3360   23.9140 H   0  0  0  0  0  0  0  0  0  0  0  0
  1 50  1  0
  1  2  1  0
  2  4  1  0
  3  1  2  0
  5  6  2  0
  5  8  1  0
  6  9  1  0
  8 10  2  0
  9 20  1  0
  9  7  2  0
 10  7  1  0
 10  2  1  0
 11  8  1  0
 12 20  1  0
 13 18  1  0
 14 15  1  0
 14 13  1  0
 16 15  1  0
 16 25  1  0
 16 17  1  0
 18 12  1  0
 18 17  1  0
 19 12  2  0
 20 21  1  0
 22 23  2  0
 23 42  1  0
 24 23  1  0
 24 27  1  0
 25 22  1  0
 25 26  1  0
 26 24  2  0
 27 28  1  0
 28 29  2  0
 30 33  1  0
 30 29  1  0
 31 30  2  0
 32 31  1  0
 32 27  2  0
 33 34  1  0
 34 35  1  0
 35 36  2  0
 37 36  1  0
 37 41  1  0
 38 37  2  0
 39 34  2  0
 39 38  1  0
 40 39  1  0
 42 43  1  0
 43 46  1  0
 43 45  1  0
 44 42  2  0
 47 48  1  0
 47 22  1  0
 49 47  1  0
 51 52  1  0
 51 50  2  0
 53 64  2  0
 54 52  1  0
 54 59  1  0
 55 63  1  0
 55 65  1  0
 56 62  1  0
 56 58  1  0
 57 63  1  0
 58 57  1  0
 59 58  2  0
 60 61  1  0
 60 54  2  0
 61 56  2  0
 62 55  1  0
 63 53  1  0
 65 67  2  0
 66 65  1  0
 68 66  1  0
 69 78  2  0
 69 74  1  0
 70 66  1  0
 70 74  1  0
 71 70  1  0
 72 73  1  0
 72 71  1  0
 73 69  1  0
 74 75  2  0
 75 76  1  0
 77 76  2  0
 78 77  1  0
 79 53  1  0
 79 84  1  0
 79 80  1  0
 80 83  1  1
 80 81  1  0
 82 80  1  0
 84 87  1  0
 85 89  1  0
 85 84  1  0
 86 85  2  0
 89 88  1  0
 91 89  1  0
 91 92  1  0
 91 90  1  0
M  ISO  4  12 100  20 100  51 101  52 101
M  END
>  <TORSDO>  (55) 
F 19

>  <SCORE>  (55) 
-14.267

>  <name>  (55) 
54

>  <ligand_id>  (55) 
54

>  <original_smiles>  (55) 
[H]c1c([H])c([H])c2c(c1[H])C([H])([H])C([H])([H])C([H])([H])C2([H])N([H])C(=O)C1([H])N(C(=O)C([H])(N([H])C(=O)C([H])(N([H])C([H])([H])[H])C([H])([H])[H])C(C([H])([H])[H])(C([H])([H])[H])C([H])([H])[H])C([H])([H])c2c([H])c(OC([H])([H])C([H])([H])C(=O)N([H])c3c([H])c(N([H])C(=O)N4C([H])([H])C([H])([H])C([H])([H])C([H])(n5nc(-c6c([H])c([H])c(Oc7c([H])c([H])c(F)c([H])c7F)c([H])c6[H])c(C(=O)N([H])[H])c5N([H])[H])C4([H])[H])c([H])c([H])c3C([H])([H])[H])c([H])c([H])c2C1([H])[H]

>  <smiles>  (55) 
[H]c1c([H])c([H])c2c(c1[H])C([H])([H])C([H])([H])C([H])([H])C2([H])N([H])C(=O)C1([H])N(C(=O)C([H])(N([H])C(=O)C([H])(N([H])C([H])([H])[H])C([H])([H])[H])C(C([H])([H])[H])(C([H])([H])[H])C([H])([H])[H])C([H])([H])c2c([H])c(OC([H])([H])C([H])([H])C(=O)N([H])c3c([H])c(N([H])C(=O)N4C([H])([H])C([H])([H])C([H])([H])C([H])(n5nc(-c6c([H])c([H])c(Oc7c([H])c([H])c(F)c([H])c7F)c([H])c6[H])c(C(=O)N([H])[H])c5N([H])[H])C4([H])[H])c([H])c([H])c3C([H])([H])[H])c([H])c([H])c2C1([H])[H]

$$$$
55:0:0
     RDKit          3D

 99108  0  0  1  0  0  0  0  0999 V2000
  -29.8850  -20.3720   21.5150 C   0  0  0  0  0  3  0  0  0  0  0  0
  -30.5180  -18.0090   21.7430 C   0  0  0  0  0  3  0  0  0  0  0  0
  -29.2140  -20.1960   20.2830 C   0  0  0  0  0  0  0  0  0  0  0  0
  -30.5330  -19.3420   22.2280 C   0  0  0  0  0  0  0  0  0  0  0  0
  -29.8600  -17.6570   20.5380 C   0  0  0  0  0  0  0  0  0  0  0  0
  -29.2100  -18.7840   19.8380 C   0  0  0  0  0  0  0  0  0  0  0  0
  -28.5490  -18.5040   18.6900 F   0  0  0  0  0  0  0  0  0  0  0  0
  -30.5480  -15.0510   20.2240 C   0  0  0  0  0  0  0  0  0  0  0  0
  -30.4800  -12.6710   19.3740 C   0  0  0  0  0  2  0  0  0  0  0  0
  -29.5500  -12.5300   18.1490 C   0  0  0  0  0  2  0  0  0  0  0  0
  -28.0850  -12.3400   18.5860 C   0  0  0  0  0  2  0  0  0  0  0  0
  -27.6550  -13.3360   19.6920 C   0  0  0  0  0  3  0  0  0  0  0  0
  -28.6970  -13.4090   20.8310 C   0  0  0  0  0  2  0  0  0  0  0  0
  -29.9690  -13.7940   20.2060 N   0  0  0  0  0  0  0  0  0  0  0  0
  -31.7580  -15.1390   19.9860 O   0  0  0  0  0  0  0  0  0  0  0  0
  -29.7060  -16.1820   20.2160 N   0  0  0  0  0  0  0  0  0  0  0  0
  -28.7370  -15.9120   20.1600 H   0  0  0  0  0  0  0  0  0  0  0  0
  -25.2780  -13.9470   20.4290 C   0  0  0  0  0  0  0  0  0  0  0  0
  -24.2070  -13.1900   20.8060 C   0  0  0  0  0  0  0  0  0  0  0  0
  -24.6520  -11.8330   20.7790 C   0  0  0  0  0  0  0  0  0  0  0  0
  -26.3110  -13.0580   20.1890 N   0  0  0  0  0  0  0  0  0  0  0  0
  -25.9430  -11.7810   20.4660 N   0  0  0  0  0  0  0  0  0  0  0  0
  -23.9050  -10.5850   20.9750 C   0  0  0  0  0  0  0  0  0  0  0  0
  -24.3350   -9.6120   21.9050 C   0  0  0  0  0  3  0  0  0  0  0  0
  -23.5950   -8.4250   22.0910 C   0  0  0  0  0  3  0  0  0  0  0  0
  -22.4110   -8.2030   21.3480 C   0  0  0  0  0  0  0  0  0  0  0  0
  -21.9990   -9.1630   20.4100 C   0  0  0  0  0  3  0  0  0  0  0  0
  -22.7370  -10.3440   20.2220 C   0  0  0  0  0  3  0  0  0  0  0  0
  -21.6420   -7.0690   21.4430 O   0  0  0  0  0  0  0  0  0  0  0  0
  -21.6040   -6.3210   22.5910 C   0  0  0  0  0  0  0  0  0  0  0  0
  -21.1980   -6.8750   23.8240 C   0  0  0  0  0  3  0  0  0  0  0  0
  -21.1040   -6.0550   24.9660 C   0  0  0  0  0  3  0  0  0  0  0  0
  -21.4040   -4.6820   24.8750 C   0  0  0  0  0  0  0  0  0  0  0  0
  -21.7970   -4.1280   23.6440 C   0  0  0  0  0  3  0  0  0  0  0  0
  -21.8960   -4.9450   22.5060 C   0  0  0  0  0  0  0  0  0  0  0  0
  -22.2580   -4.4050   21.3170 F   0  0  0  0  0  0  0  0  0  0  0  0
  -21.3070   -3.8910   25.9700 F   0  0  0  0  0  0  0  0  0  0  0  0
  -22.8170  -13.6840   21.0740 C   0  0  0  0  0  0  0  0  0  0  0  0
  -22.0910  -13.0180   21.9610 N   0  0  0  0  0  0  0  0  0  0  0  0
  -22.3900  -14.7040   20.5330 O   0  0  0  0  0  0  0  0  0  0  0  0
  -22.4550  -12.2000   22.4280 H   0  0  0  0  0  0  0  0  0  0  0  0
  -21.1540  -13.3300   22.1740 H   0  0  0  0  0  0  0  0  0  0  0  0
  -25.4510  -15.3160   20.2480 N   0  0  0  0  0  0  0  0  0  0  0  0
  -24.6700  -15.9590   20.3390 H   0  0  0  0  0  0  0  0  0  0  0  0
  -26.2690  -15.7520   19.8450 H   0  0  0  0  0  0  0  0  0  0  0  0
  -29.2820  -22.7450   19.4790 C   0  0  0  0  0  0  0  0  0  0  0  0
  -27.4800  -22.1180   20.1970 C   0  0  0  0  0  2  0  0  0  0  0  0
  -27.8630  -23.4780   19.4560 C   0  0  2  0  0  0  0  0  0  0  0  0
  -27.3360  -23.6220   18.0300 C   0  0  0  0  0  1  0  0  0  0  0  0
  -28.6900  -21.4600   19.6530 N   0  0  0  0  0  0  0  0  0  0  0  0
  -30.4520  -23.0820   19.4890 O   0  0  0  0  0  0  0  0  0  0  0  0
  -27.6500  -24.9410   20.1860 C   0  0  0  0  0  2  0  0  0  0  0  0
  -27.8610  -26.3390   19.6040 O   0  0  0  0  0  0  0  0  0  0  0  0
  -24.6160  -31.7540   23.3020 C   0  0  0  0  0  0  0  0  0  0  0  0
  -26.8350  -27.3230   19.7110 C   0  0  0  0  0  0  0  0  0  0  0  0
  -23.2870  -30.6180   21.5640 C   0  0  0  0  0  3  0  0  0  0  0  0
  -24.5970  -29.1350   19.9310 C   0  0  0  0  0  0  0  0  0  0  0  0
  -25.8390  -30.7760   21.3340 C   0  0  0  0  0  2  0  0  0  0  0  0
  -25.8150  -29.4660   20.5380 C   0  0  0  0  0  0  0  0  0  0  0  0
  -26.9360  -28.5760   20.4120 C   0  0  0  0  0  3  0  0  0  0  0  0
  -25.6000  -27.0740   19.0790 C   0  0  0  0  0  3  0  0  0  0  0  0
  -24.4990  -27.9520   19.1810 C   0  0  0  0  0  3  0  0  0  0  0  0
  -23.4230  -30.0820   20.1150 C   0  0  0  0  0  2  0  0  0  0  0  0
  -24.6040  -31.0600   22.1240 N   0  0  0  0  0  0  0  0  0  0  0  0
  -23.5660  -32.0340   23.9000 O   0  0  0  0  0  0  0  0  0  0  0  0
  -22.5800  -29.5480   22.4350 C   0  0  0  0  0  0  0  0  0  0  0  0
  -21.2500  -29.4140   22.2880 N   0  0  0  0  0  0  0  0  0  0  0  0
  -23.2310  -28.8380   23.2040 O   0  0  0  0  0  0  0  0  0  0  0  0
  -20.7710  -30.0420   21.6570 H   0  0  0  0  0  0  0  0  0  0  0  0
  -17.8570  -28.2050   22.6250 C   0  0  0  0  0  0  0  0  0  0  0  0
  -20.4070  -28.4380   22.9840 C   0  0  0  0  0  3  0  0  0  0  0  0
  -20.5210  -27.0400   22.3310 C   0  0  0  0  0  2  0  0  0  0  0  0
  -19.4510  -26.7830   21.2640 C   0  0  0  0  0  2  0  0  0  0  0  0
  -18.0500  -26.8980   21.8730 C   0  0  0  0  0  2  0  0  0  0  0  0
  -18.9640  -28.9360   23.1340 C   0  0  0  0  0  0  0  0  0  0  0  0
  -18.7300  -30.1620   23.7970 C   0  0  0  0  0  3  0  0  0  0  0  0
  -17.4220  -30.6600   23.9470 C   0  0  0  0  0  3  0  0  0  0  0  0
  -16.3290  -29.9270   23.4530 C   0  0  0  0  0  3  0  0  0  0  0  0
  -16.5470  -28.7000   22.8000 C   0  0  0  0  0  3  0  0  0  0  0  0
  -25.9480  -32.2440   23.9490 C   0  0  0  0  0  3  0  0  0  0  0  0
  -26.4740  -31.2920   25.0940 C   0  0  1  0  0  0  0  0  0  0  0  0
  -25.4170  -30.9710   26.1760 C   0  0  0  0  0  1  0  0  0  0  0  0
  -26.9630  -29.9480   24.5060 C   0  0  0  0  0  1  0  0  0  0  0  0
  -27.6980  -31.9330   25.7900 C   0  0  0  0  0  1  0  0  0  0  0  0
  -25.7200  -33.5980   24.4730 N   0  0  0  0  0  0  0  0  0  0  0  0
  -26.1020  -34.7270   23.8600 C   0  0  0  0  0  0  0  0  0  0  0  0
  -26.7470  -34.7310   22.8080 O   0  0  0  0  0  0  0  0  0  0  0  0
  -25.1500  -33.6710   25.3020 H   0  0  0  0  0  0  0  0  0  0  0  0
  -24.4720  -36.6440   23.8010 C   0  0  0  0  0  1  0  0  0  0  0  0
  -25.7020  -36.0630   24.5180 C   0  0  0  0  0  3  0  0  0  0  0  0
  -27.8970  -36.7120   25.4070 C   0  0  0  0  0  1  0  0  0  0  0  0
  -26.7910  -37.0650   24.5210 N   0  0  0  0  0  0  0  0  0  0  0  0
  -26.4410  -37.9770   24.8020 H   0  0  0  0  0  0  0  0  0  0  0  0
  -31.8220  -20.7570   23.7870 C   0  0  0  0  0  0  0  0  0  0  0  0
  -31.1130  -19.6470   23.4960 N   0  0  0  0  0  0  0  0  0  0  0  0
  -32.4210  -21.4120   22.9280 O   0  0  0  0  0  0  0  0  0  0  0  0
  -30.8130  -19.0820   24.2820 H   0  0  0  0  0  0  0  0  0  0  0  0
  -32.0790  -22.3000   25.6660 C   0  0  0  0  0  2  0  0  0  0  0  0
  -31.8360  -21.0520   25.2130 C   0  0  0  0  0  3  0  0  0  0  0  0
  1  4  1  0
  2  4  2  0
  3  1  2  0
  4 95  1  0
  5  2  1  0
  6  3  1  0
  6  5  2  0
  7  6  1  0
  9 14  1  0
 10 11  1  0
 10  9  1  0
 12 11  1  0
 12 21  1  0
 12 13  1  0
 14  8  1  0
 14 13  1  0
 15  8  2  0
 16  8  1  0
 16  5  1  0
 17 16  1  0
 18 19  2  0
 19 38  1  0
 20 19  1  0
 20 23  1  0
 21 18  1  0
 21 22  1  0
 22 20  2  0
 23 24  1  0
 24 25  2  0
 26 29  1  0
 26 25  1  0
 27 26  2  0
 28 27  1  0
 28 23  2  0
 29 30  1  0
 30 31  1  0
 31 32  2  0
 33 32  1  0
 33 37  1  0
 34 33  2  0
 35 30  2  0
 35 34  1  0
 36 35  1  0
 38 39  1  0
 39 42  1  0
 39 41  1  0
 40 38  2  0
 43 44  1  0
 43 18  1  0
 45 43  1  0
 46 51  2  0
 46 50  1  0
 48 49  1  6
 48 46  1  0
 48 52  1  0
 48 47  1  0
 50 47  1  0
 50  3  1  0
 53 55  1  0
 53 52  1  0
 54 65  2  0
 55 60  1  0
 56 64  1  0
 56 66  1  0
 57 63  1  0
 57 59  1  0
 58 64  1  0
 59 58  1  0
 60 59  2  0
 61 62  1  0
 61 55  2  0
 62 57  2  0
 63 56  1  0
 64 54  1  0
 66 68  2  0
 67 66  1  0
 69 67  1  0
 70 79  2  0
 70 75  1  0
 71 67  1  0
 71 75  1  0
 72 71  1  0
 73 74  1  0
 73 72  1  0
 74 70  1  0
 75 76  2  0
 76 77  1  0
 78 77  2  0
 79 78  1  0
 80 54  1  0
 80 85  1  0
 80 81  1  0
 81 84  1  1
 81 82  1  0
 83 81  1  0
 85 88  1  0
 86 85  1  0
 86 90  1  0
 87 86  2  0
 90 89  1  0
 90 92  1  0
 92 93  1  0
 92 91  1  0
 94 99  1  0
 95 94  1  0
 95 97  1  0
 96 94  2  0
 99 98  2  0
M  ISO  4   8 100  16 100  52 101  53 101
M  END
>  <TORSDO>  (56) 
F 20

>  <SCORE>  (56) 
-11.449

>  <name>  (56) 
55

>  <ligand_id>  (56) 
55

>  <original_smiles>  (56) 
[H]C([H])=C([H])C(=O)N([H])c1c([H])c(N([H])C(=O)N2C([H])([H])C([H])([H])C([H])([H])C([H])(n3nc(-c4c([H])c([H])c(Oc5c([H])c([H])c(F)c([H])c5F)c([H])c4[H])c(C(=O)N([H])[H])c3N([H])[H])C2([H])[H])c(F)c(N2C(=O)C(C([H])([H])[H])(C([H])([H])Oc3c([H])c([H])c4c(c3[H])C([H])([H])N(C(=O)C([H])(N([H])C(=O)C([H])(N([H])C([H])([H])[H])C([H])([H])[H])C(C([H])([H])[H])(C([H])([H])[H])C([H])([H])[H])C([H])(C(=O)N([H])C3([H])c5c([H])c([H])c([H])c([H])c5C([H])([H])C([H])([H])C3([H])[H])C4([H])[H])C2([H])[H])c1[H]

>  <smiles>  (56) 
[H]C([H])=C([H])C(=O)N([H])c1c([H])c(N([H])C(=O)N2C([H])([H])C([H])([H])C([H])([H])C([H])(n3nc(-c4c([H])c([H])c(Oc5c([H])c([H])c(F)c([H])c5F)c([H])c4[H])c(C(=O)N([H])[H])c3N([H])[H])C2([H])[H])c(F)c(N2C(=O)C(C([H])([H])[H])(C([H])([H])Oc3c([H])c([H])c4c(c3[H])C([H])([H])N(C(=O)C([H])(N([H])C(=O)C([H])(N([H])C([H])([H])[H])C([H])([H])[H])C(C([H])([H])[H])(C([H])([H])[H])C([H])([H])[H])C([H])(C(=O)N([H])C3([H])c5c([H])c([H])c([H])c([H])c5C([H])([H])C([H])([H])C3([H])[H])C4([H])[H])C2([H])[H])c1[H]

$$$$
56:0:0
     RDKit          3D

 97106  0  0  1  0  0  0  0  0999 V2000
  -30.4550  -22.3860   20.6510 C   0  0  0  0  0  0  0  0  0  0  0  0
  -28.3330  -22.3320   19.7950 C   0  0  0  0  0  2  0  0  0  0  0  0
  -29.9850  -23.8680   20.6270 C   0  0  2  0  0  0  0  0  0  0  0  0
  -28.7980  -23.8340   19.6000 C   0  0  1  0  0  0  0  0  0  0  0  0
  -31.1300  -24.8110   20.1780 C   0  0  0  0  0  1  0  0  0  0  0  0
  -29.2630  -23.9530   18.1240 C   0  0  0  0  0  1  0  0  0  0  0  0
  -29.5010  -21.5220   20.2350 N   0  0  0  0  0  0  0  0  0  0  0  0
  -31.6040  -22.0790   20.9870 O   0  0  0  0  0  0  0  0  0  0  0  0
  -30.4930  -19.3110   21.0560 C   0  0  0  0  0  3  0  0  0  0  0  0
  -30.5490  -17.8840   21.0640 C   0  0  0  0  0  3  0  0  0  0  0  0
  -28.7720  -19.2540   19.3890 C   0  0  0  0  0  3  0  0  0  0  0  0
  -28.8350  -17.8270   19.3740 C   0  0  0  0  0  0  0  0  0  0  0  0
  -29.5920  -20.0480   20.2290 C   0  0  0  0  0  0  0  0  0  0  0  0
  -29.7110  -17.0980   20.2350 C   0  0  0  0  0  0  0  0  0  0  0  0
  -27.9320  -17.1080   18.3920 C   0  0  0  0  0  1  0  0  0  0  0  0
  -30.4470  -14.6120   20.0340 C   0  0  0  0  0  0  0  0  0  0  0  0
  -30.2240  -12.3780   18.9660 C   0  0  0  0  0  2  0  0  0  0  0  0
  -29.1870  -12.4920   17.8260 C   0  0  0  0  0  2  0  0  0  0  0  0
  -27.7540  -12.2860   18.3600 C   0  0  0  0  0  2  0  0  0  0  0  0
  -27.4630  -13.1230   19.6340 C   0  0  0  0  0  3  0  0  0  0  0  0
  -28.6080  -12.9910   20.6640 C   0  0  0  0  0  2  0  0  0  0  0  0
  -29.8600  -13.3740   19.9920 N   0  0  0  0  0  0  0  0  0  0  0  0
  -31.5910  -14.8010   19.6120 O   0  0  0  0  0  0  0  0  0  0  0  0
  -29.6020  -15.6430   20.3560 N   0  0  0  0  0  0  0  0  0  0  0  0
  -28.6740  -15.3140   20.5640 H   0  0  0  0  0  0  0  0  0  0  0  0
  -25.1300  -13.6590   20.5730 C   0  0  0  0  0  0  0  0  0  0  0  0
  -24.1010  -12.8570   20.9840 C   0  0  0  0  0  0  0  0  0  0  0  0
  -24.5700  -11.5160   20.8460 C   0  0  0  0  0  0  0  0  0  0  0  0
  -26.1600  -12.8040   20.2110 N   0  0  0  0  0  0  0  0  0  0  0  0
  -25.8320  -11.5070   20.4350 N   0  0  0  0  0  0  0  0  0  0  0  0
  -23.8700  -10.2400   21.0270 C   0  0  0  0  0  0  0  0  0  0  0  0
  -24.3480   -9.2560   21.9200 C   0  0  0  0  0  3  0  0  0  0  0  0
  -23.6460   -8.0430   22.0910 C   0  0  0  0  0  3  0  0  0  0  0  0
  -22.4520   -7.8060   21.3690 C   0  0  0  0  0  0  0  0  0  0  0  0
  -21.9920   -8.7810   20.4650 C   0  0  0  0  0  3  0  0  0  0  0  0
  -22.6950   -9.9840   20.2920 C   0  0  0  0  0  3  0  0  0  0  0  0
  -21.7170   -6.6490   21.4520 O   0  0  0  0  0  0  0  0  0  0  0  0
  -21.6650   -5.9120   22.6080 C   0  0  0  0  0  0  0  0  0  0  0  0
  -21.1500   -6.4470   23.8090 C   0  0  0  0  0  3  0  0  0  0  0  0
  -21.0500   -5.6330   24.9560 C   0  0  0  0  0  3  0  0  0  0  0  0
  -21.4530   -4.2850   24.9010 C   0  0  0  0  0  0  0  0  0  0  0  0
  -21.9620   -3.7500   23.7040 C   0  0  0  0  0  3  0  0  0  0  0  0
  -22.0640   -4.5620   22.5600 C   0  0  0  0  0  0  0  0  0  0  0  0
  -22.5350   -4.0360   21.4030 F   0  0  0  0  0  0  0  0  0  0  0  0
  -21.3500   -3.5020   25.9990 F   0  0  0  0  0  0  0  0  0  0  0  0
  -22.7270  -13.3080   21.3880 C   0  0  0  0  0  0  0  0  0  0  0  0
  -22.0750  -12.5640   22.2750 N   0  0  0  0  0  0  0  0  0  0  0  0
  -22.2430  -14.3520   20.9560 O   0  0  0  0  0  0  0  0  0  0  0  0
  -22.4810  -11.7180   22.6470 H   0  0  0  0  0  0  0  0  0  0  0  0
  -21.1580  -12.8460   22.5890 H   0  0  0  0  0  0  0  0  0  0  0  0
  -25.2630  -15.0370   20.4580 N   0  0  0  0  0  0  0  0  0  0  0  0
  -24.4930  -15.6660   20.6590 H   0  0  0  0  0  0  0  0  0  0  0  0
  -26.0680  -15.5070   20.0680 H   0  0  0  0  0  0  0  0  0  0  0  0
  -30.4100  -23.9410   23.2490 C   0  0  0  0  0  1  0  0  0  0  0  0
  -29.5010  -24.2890   22.0520 C   0  0  0  0  0  2  0  0  0  0  0  0
  -27.6450  -24.9280   19.7860 C   0  0  0  0  0  2  0  0  0  0  0  0
  -27.8860  -26.3480   19.4330 O   0  0  0  0  0  0  0  0  0  0  0  0
  -24.4970  -31.6020   23.0410 C   0  0  0  0  0  0  0  0  0  0  0  0
  -26.7950  -27.2260   19.5210 C   0  0  0  0  0  0  0  0  0  0  0  0
  -23.1630  -30.3700   21.3690 C   0  0  0  0  0  3  0  0  0  0  0  0
  -24.4840  -28.8930   19.7560 C   0  0  0  0  0  0  0  0  0  0  0  0
  -25.6970  -30.6290   21.0720 C   0  0  0  0  0  2  0  0  0  0  0  0
  -25.6970  -29.3020   20.3260 C   0  0  0  0  0  0  0  0  0  0  0  0
  -26.8570  -28.4800   20.2000 C   0  0  0  0  0  3  0  0  0  0  0  0
  -25.5650  -26.8820   18.9140 C   0  0  0  0  0  3  0  0  0  0  0  0
  -24.4200  -27.6880   19.0410 C   0  0  0  0  0  3  0  0  0  0  0  0
  -23.2810  -29.7950   19.9330 C   0  0  0  0  0  2  0  0  0  0  0  0
  -24.4740  -30.8790   21.8840 N   0  0  0  0  0  0  0  0  0  0  0  0
  -23.4530  -31.8720   23.6530 O   0  0  0  0  0  0  0  0  0  0  0  0
  -22.5170  -29.3030   22.2850 C   0  0  0  0  0  0  0  0  0  0  0  0
  -21.1830  -29.1600   22.1970 N   0  0  0  0  0  0  0  0  0  0  0  0
  -23.2120  -28.6110   23.0320 O   0  0  0  0  0  0  0  0  0  0  0  0
  -20.6810  -29.7700   21.5670 H   0  0  0  0  0  0  0  0  0  0  0  0
  -17.7980  -28.0190   22.7720 C   0  0  0  0  0  0  0  0  0  0  0  0
  -20.3730  -28.1890   22.9370 C   0  0  0  0  0  3  0  0  0  0  0  0
  -20.4060  -26.8030   22.2540 C   0  0  0  0  0  2  0  0  0  0  0  0
  -19.2480  -26.5850   21.2740 C   0  0  0  0  0  2  0  0  0  0  0  0
  -17.9030  -26.7200   21.9930 C   0  0  0  0  0  2  0  0  0  0  0  0
  -18.9580  -28.7170   23.2020 C   0  0  0  0  0  0  0  0  0  0  0  0
  -18.8060  -29.9380   23.8930 C   0  0  0  0  0  3  0  0  0  0  0  0
  -17.5260  -30.4610   24.1580 C   0  0  0  0  0  3  0  0  0  0  0  0
  -16.3810  -29.7580   23.7430 C   0  0  0  0  0  3  0  0  0  0  0  0
  -16.5180  -28.5390   23.0570 C   0  0  0  0  0  3  0  0  0  0  0  0
  -25.8320  -32.1460   23.6370 C   0  0  0  0  0  3  0  0  0  0  0  0
  -26.3680  -31.2840   24.8460 C   0  0  1  0  0  0  0  0  0  0  0  0
  -25.3130  -31.0380   25.9490 C   0  0  0  0  0  1  0  0  0  0  0  0
  -26.8670  -29.9040   24.3560 C   0  0  0  0  0  1  0  0  0  0  0  0
  -27.5830  -31.9870   25.4930 C   0  0  0  0  0  1  0  0  0  0  0  0
  -25.5990  -33.5350   24.0550 N   0  0  0  0  0  0  0  0  0  0  0  0
  -25.9580  -34.6140   23.3470 C   0  0  0  0  0  0  0  0  0  0  0  0
  -26.5930  -34.5400   22.2910 O   0  0  0  0  0  0  0  0  0  0  0  0
  -25.0350  -33.6700   24.8810 H   0  0  0  0  0  0  0  0  0  0  0  0
  -24.3170  -36.5090   23.1380 C   0  0  0  0  0  1  0  0  0  0  0  0
  -25.5510  -35.9940   23.8970 C   0  0  0  0  0  3  0  0  0  0  0  0
  -27.7360  -36.7270   24.7440 C   0  0  0  0  0  1  0  0  0  0  0  0
  -26.6340  -37.0000   23.8250 N   0  0  0  0  0  0  0  0  0  0  0  0
  -26.2760  -37.9300   24.0270 H   0  0  0  0  0  0  0  0  0  0  0  0
  1  8  2  0
  2  7  1  0
  3  5  1  6
  3  1  1  0
  3 55  1  0
  4  6  1  6
  4 56  1  0
  4  2  1  0
  4  3  1  0
  7  1  1  0
  9 10  1  0
 11 13  1  0
 12 11  2  0
 12 14  1  0
 13  7  1  0
 13  9  2  0
 14 24  1  0
 14 10  2  0
 15 12  1  0
 16 24  1  0
 17 22  1  0
 18 19  1  0
 18 17  1  0
 20 19  1  0
 20 29  1  0
 20 21  1  0
 22 16  1  0
 22 21  1  0
 23 16  2  0
 24 25  1  0
 26 27  2  0
 27 46  1  0
 28 27  1  0
 28 31  1  0
 29 30  1  0
 29 26  1  0
 30 28  2  0
 31 32  1  0
 32 33  2  0
 34 37  1  0
 34 33  1  0
 35 34  2  0
 36 35  1  0
 36 31  2  0
 37 38  1  0
 38 39  1  0
 39 40  2  0
 41 40  1  0
 41 45  1  0
 42 41  2  0
 43 38  2  0
 43 42  1  0
 44 43  1  0
 46 47  1  0
 47 50  1  0
 47 49  1  0
 48 46  2  0
 51 26  1  0
 51 52  1  0
 53 51  1  0
 55 54  1  0
 57 59  1  0
 57 56  1  0
 58 69  2  0
 59 64  1  0
 60 68  1  0
 60 70  1  0
 61 67  1  0
 61 63  1  0
 62 68  1  0
 63 62  1  0
 64 63  2  0
 65 66  1  0
 65 59  2  0
 66 61  2  0
 67 60  1  0
 68 58  1  0
 70 72  2  0
 71 70  1  0
 73 71  1  0
 74 83  2  0
 74 79  1  0
 75 71  1  0
 75 79  1  0
 76 75  1  0
 77 78  1  0
 77 76  1  0
 78 74  1  0
 79 80  2  0
 80 81  1  0
 82 81  2  0
 83 82  1  0
 84 58  1  0
 84 89  1  0
 84 85  1  0
 85 88  1  1
 85 86  1  0
 87 85  1  0
 89 92  1  0
 90 94  1  0
 90 89  1  0
 91 90  2  0
 94 93  1  0
 96 94  1  0
 96 97  1  0
 96 95  1  0
M  ISO  4  16 100  24 100  56 101  57 101
M  END
>  <TORSDO>  (57) 
F 19

>  <SCORE>  (57) 
-13.162

>  <name>  (57) 
56

>  <ligand_id>  (57) 
56

>  <original_smiles>  (57) 
[H]c1c([H])c([H])c2c(c1[H])C([H])([H])C([H])([H])C([H])([H])C2([H])N([H])C(=O)C1([H])N(C(=O)C([H])(N([H])C(=O)C([H])(N([H])C([H])([H])[H])C([H])([H])[H])C(C([H])([H])[H])(C([H])([H])[H])C([H])([H])[H])C([H])([H])c2c([H])c(OC([H])([H])C3(C([H])([H])[H])C([H])([H])N(c4c([H])c([H])c(N([H])C(=O)N5C([H])([H])C([H])([H])C([H])([H])C([H])(n6nc(-c7c([H])c([H])c(Oc8c([H])c([H])c(F)c([H])c8F)c([H])c7[H])c(C(=O)N([H])[H])c6N([H])[H])C5([H])[H])c(C([H])([H])[H])c4[H])C(=O)C3(C([H])([H])[H])C([H])([H])C([H])([H])[H])c([H])c([H])c2C1([H])[H]

>  <smiles>  (57) 
[H]c1c([H])c([H])c2c(c1[H])C([H])([H])C([H])([H])C([H])([H])C2([H])N([H])C(=O)C1([H])N(C(=O)C([H])(N([H])C(=O)C([H])(N([H])C([H])([H])[H])C([H])([H])[H])C(C([H])([H])[H])(C([H])([H])[H])C([H])([H])[H])C([H])([H])c2c([H])c(OC([H])([H])C3(C([H])([H])[H])C([H])([H])N(c4c([H])c([H])c(N([H])C(=O)N5C([H])([H])C([H])([H])C([H])([H])C([H])(n6nc(-c7c([H])c([H])c(Oc8c([H])c([H])c(F)c([H])c8F)c([H])c7[H])c(C(=O)N([H])[H])c6N([H])[H])C5([H])[H])c(C([H])([H])[H])c4[H])C(=O)C3(C([H])([H])[H])C([H])([H])C([H])([H])[H])c([H])c([H])c2C1([H])[H]

$$$$
57:0:0
     RDKit          3D

 95103  0  0  1  0  0  0  0  0999 V2000
  -28.9670  -22.4400   20.6040 C   0  0  0  0  0  0  0  0  0  0  0  0
  -29.2940  -21.2140   20.0180 N   0  0  0  0  0  0  0  0  0  0  0  0
  -28.9290  -22.5570   21.8320 O   0  0  0  0  0  0  0  0  0  0  0  0
  -29.1870  -21.2090   19.0120 H   0  0  0  0  0  0  0  0  0  0  0  0
  -29.6720  -18.6210   19.9430 C   0  0  0  0  0  3  0  0  0  0  0  0
  -30.4610  -19.9090   21.8510 C   0  0  0  0  0  3  0  0  0  0  0  0
  -30.8220  -17.4800   21.7580 C   0  0  0  0  0  3  0  0  0  0  0  0
  -29.7930  -19.9230   20.5950 C   0  0  0  0  0  0  0  0  0  0  0  0
  -30.1860  -17.3760   20.5070 C   0  0  0  0  0  0  0  0  0  0  0  0
  -30.9390  -18.7070   22.4420 C   0  0  0  0  0  0  0  0  0  0  0  0
  -30.7500  -14.8750   19.9640 C   0  0  0  0  0  0  0  0  0  0  0  0
  -30.5180  -12.5920   18.9590 C   0  0  0  0  0  2  0  0  0  0  0  0
  -29.5310  -12.6540   17.7740 C   0  0  0  0  0  2  0  0  0  0  0  0
  -28.0800  -12.4810   18.2670 C   0  0  0  0  0  2  0  0  0  0  0  0
  -27.7490  -13.3810   19.4890 C   0  0  0  0  0  3  0  0  0  0  0  0
  -28.8530  -13.3000   20.5610 C   0  0  0  0  0  2  0  0  0  0  0  0
  -30.1180  -13.6550   19.9030 N   0  0  0  0  0  0  0  0  0  0  0  0
  -31.9510  -14.9700   19.6930 O   0  0  0  0  0  0  0  0  0  0  0  0
  -29.9480  -16.0090   19.9800 N   0  0  0  0  0  0  0  0  0  0  0  0
  -28.9820  -15.8130   19.7660 H   0  0  0  0  0  0  0  0  0  0  0  0
  -25.3980  -13.9780   20.3250 C   0  0  0  0  0  0  0  0  0  0  0  0
  -24.3440  -13.2060   20.7260 C   0  0  0  0  0  0  0  0  0  0  0  0
  -24.7990  -11.8520   20.6600 C   0  0  0  0  0  0  0  0  0  0  0  0
  -26.4270  -13.0970   20.0340 N   0  0  0  0  0  0  0  0  0  0  0  0
  -26.0760  -11.8130   20.2990 N   0  0  0  0  0  0  0  0  0  0  0  0
  -24.0750  -10.5920   20.8630 C   0  0  0  0  0  0  0  0  0  0  0  0
  -24.4860   -9.6510   21.8330 C   0  0  0  0  0  3  0  0  0  0  0  0
  -23.7630   -8.4530   22.0230 C   0  0  0  0  0  3  0  0  0  0  0  0
  -22.6150   -8.1870   21.2400 C   0  0  0  0  0  0  0  0  0  0  0  0
  -22.2240   -9.1140   20.2580 C   0  0  0  0  0  3  0  0  0  0  0  0
  -22.9470  -10.3030   20.0680 C   0  0  0  0  0  3  0  0  0  0  0  0
  -21.8670   -7.0390   21.3340 O   0  0  0  0  0  0  0  0  0  0  0  0
  -21.7260   -6.3700   22.5240 C   0  0  0  0  0  0  0  0  0  0  0  0
  -21.1610   -6.9840   23.6630 C   0  0  0  0  0  3  0  0  0  0  0  0
  -20.9690   -6.2370   24.8430 C   0  0  0  0  0  3  0  0  0  0  0  0
  -21.3340   -4.8790   24.8840 C   0  0  0  0  0  0  0  0  0  0  0  0
  -21.8910   -4.2640   23.7480 C   0  0  0  0  0  3  0  0  0  0  0  0
  -22.0830   -5.0080   22.5720 C   0  0  0  0  0  0  0  0  0  0  0  0
  -22.6010   -4.4060   21.4740 F   0  0  0  0  0  0  0  0  0  0  0  0
  -21.1440   -4.1590   26.0150 F   0  0  0  0  0  0  0  0  0  0  0  0
  -22.9600  -13.6830   21.0580 C   0  0  0  0  0  0  0  0  0  0  0  0
  -22.2600  -12.9740   21.9350 N   0  0  0  0  0  0  0  0  0  0  0  0
  -22.5090  -14.7210   20.5730 O   0  0  0  0  0  0  0  0  0  0  0  0
  -22.6400  -12.1350   22.3500 H   0  0  0  0  0  0  0  0  0  0  0  0
  -21.3320  -13.2740   22.1990 H   0  0  0  0  0  0  0  0  0  0  0  0
  -25.5630  -15.3510   20.1610 N   0  0  0  0  0  0  0  0  0  0  0  0
  -24.8090  -16.0070   20.3280 H   0  0  0  0  0  0  0  0  0  0  0  0
  -26.4070  -15.7960   19.8280 H   0  0  0  0  0  0  0  0  0  0  0  0
  -31.3080  -19.7200   24.5900 C   0  0  0  0  0  1  0  0  0  0  0  0
  -31.5100  -18.6330   23.6950 O   0  0  0  0  0  0  0  0  0  0  0  0
  -27.4510  -23.4150   18.7820 C   0  0  0  0  0  1  0  0  0  0  0  0
  -29.8500  -24.1030   18.8960 C   0  0  0  0  0  1  0  0  0  0  0  0
  -28.6060  -23.7620   19.7390 C   0  0  2  0  0  0  0  0  0  0  0  0
  -28.1530  -25.1070   20.5670 C   0  0  0  0  0  2  0  0  0  0  0  0
  -28.2730  -26.5160   20.0400 O   0  0  0  0  0  0  0  0  0  0  0  0
  -24.5880  -31.9450   23.1890 C   0  0  0  0  0  0  0  0  0  0  0  0
  -27.1580  -27.3870   20.0690 C   0  0  0  0  0  0  0  0  0  0  0  0
  -23.3590  -30.5550   21.5640 C   0  0  0  0  0  3  0  0  0  0  0  0
  -24.7900  -29.0160   20.1010 C   0  0  0  0  0  0  0  0  0  0  0  0
  -25.9000  -30.8770   21.3390 C   0  0  0  0  0  2  0  0  0  0  0  0
  -25.9760  -29.5060   20.6670 C   0  0  0  0  0  0  0  0  0  0  0  0
  -27.1670  -28.7120   20.6230 C   0  0  0  0  0  3  0  0  0  0  0  0
  -25.9490  -26.9530   19.4900 C   0  0  0  0  0  3  0  0  0  0  0  0
  -24.7810  -27.7480   19.4990 C   0  0  0  0  0  3  0  0  0  0  0  0
  -23.5500  -29.8880   20.1790 C   0  0  0  0  0  2  0  0  0  0  0  0
  -24.6360  -31.1410   22.0870 N   0  0  0  0  0  0  0  0  0  0  0  0
  -23.5120  -32.2200   23.7420 O   0  0  0  0  0  0  0  0  0  0  0  0
  -22.7130  -29.5310   22.5290 C   0  0  0  0  0  0  0  0  0  0  0  0
  -21.3880  -29.3410   22.4180 N   0  0  0  0  0  0  0  0  0  0  0  0
  -23.4050  -28.9080   23.3390 O   0  0  0  0  0  0  0  0  0  0  0  0
  -20.8860  -29.8920   21.7370 H   0  0  0  0  0  0  0  0  0  0  0  0
  -18.0270  -28.1110   22.9440 C   0  0  0  0  0  0  0  0  0  0  0  0
  -20.5840  -28.3960   23.1960 C   0  0  0  0  0  3  0  0  0  0  0  0
  -20.6960  -26.9640   22.6200 C   0  0  0  0  0  2  0  0  0  0  0  0
  -19.5900  -26.6340   21.6140 C   0  0  0  0  0  2  0  0  0  0  0  0
  -18.2110  -26.7650   22.2670 C   0  0  0  0  0  2  0  0  0  0  0  0
  -19.1410  -28.8860   23.3660 C   0  0  0  0  0  0  0  0  0  0  0  0
  -18.9100  -30.1470   23.9570 C   0  0  0  0  0  3  0  0  0  0  0  0
  -17.6000  -30.6340   24.1280 C   0  0  0  0  0  3  0  0  0  0  0  0
  -16.5030  -29.8550   23.7240 C   0  0  0  0  0  3  0  0  0  0  0  0
  -16.7170  -28.5950   23.1390 C   0  0  0  0  0  3  0  0  0  0  0  0
  -25.8800  -32.5780   23.7950 C   0  0  0  0  0  3  0  0  0  0  0  0
  -26.4240  -31.7950   25.0530 C   0  0  1  0  0  0  0  0  0  0  0  0
  -25.3470  -31.5210   26.1290 C   0  0  0  0  0  1  0  0  0  0  0  0
  -27.0270  -30.4350   24.6340 C   0  0  0  0  0  1  0  0  0  0  0  0
  -27.5690  -32.5970   25.7150 C   0  0  0  0  0  1  0  0  0  0  0  0
  -25.5660  -33.9680   24.1520 N   0  0  0  0  0  0  0  0  0  0  0  0
  -25.8800  -35.0370   23.4080 C   0  0  0  0  0  0  0  0  0  0  0  0
  -26.5300  -34.9560   22.3620 O   0  0  0  0  0  0  0  0  0  0  0  0
  -24.9840  -34.1020   24.9660 H   0  0  0  0  0  0  0  0  0  0  0  0
  -24.1400  -36.8270   23.1180 C   0  0  0  0  0  1  0  0  0  0  0  0
  -25.3960  -36.4160   23.9020 C   0  0  0  0  0  3  0  0  0  0  0  0
  -27.5360  -37.2900   24.7240 C   0  0  0  0  0  1  0  0  0  0  0  0
  -26.4250  -37.4730   23.7940 N   0  0  0  0  0  0  0  0  0  0  0  0
  -26.0190  -38.3890   23.9650 H   0  0  0  0  0  0  0  0  0  0  0  0
  1  3  2  0
  2  8  1  0
  2  1  1  0
  4  2  1  0
  5  9  2  0
  5  8  1  0
  6 10  1  0
  7 10  2  0
  8  6  2  0
  9  7  1  0
 10 50  1  0
 11 19  1  0
 12 17  1  0
 13 14  1  0
 13 12  1  0
 15 14  1  0
 15 24  1  0
 15 16  1  0
 17 11  1  0
 17 16  1  0
 18 11  2  0
 19  9  1  0
 20 19  1  0
 21 22  2  0
 22 41  1  0
 23 22  1  0
 23 26  1  0
 24 25  1  0
 24 21  1  0
 25 23  2  0
 26 27  1  0
 27 28  2  0
 29 32  1  0
 29 28  1  0
 30 29  2  0
 31 30  1  0
 31 26  2  0
 32 33  1  0
 33 38  2  0
 33 34  1  0
 34 35  2  0
 35 36  1  0
 36 40  1  0
 37 36  2  0
 38 37  1  0
 39 38  1  0
 41 42  1  0
 42 45  1  0
 42 44  1  0
 43 41  2  0
 46 21  1  0
 46 47  1  0
 48 46  1  0
 50 49  1  0
 53 51  1  6
 52 53  1  0
 53 54  1  0
 53  1  1  0
 55 57  1  0
 55 54  1  0
 56 67  2  0
 57 62  1  0
 58 66  1  0
 58 68  1  0
 59 65  1  0
 59 61  1  0
 60 66  1  0
 61 60  1  0
 62 61  2  0
 63 64  1  0
 63 57  2  0
 64 59  2  0
 65 58  1  0
 66 56  1  0
 68 70  2  0
 69 68  1  0
 71 69  1  0
 72 81  2  0
 72 77  1  0
 73 69  1  0
 73 77  1  0
 74 73  1  0
 75 76  1  0
 75 74  1  0
 76 72  1  0
 77 78  2  0
 78 79  1  0
 80 79  2  0
 81 80  1  0
 82 56  1  0
 82 87  1  0
 82 83  1  0
 83 86  1  1
 83 84  1  0
 85 83  1  0
 87 90  1  0
 88 92  1  0
 88 87  1  0
 89 88  2  0
 92 91  1  0
 94 92  1  0
 94 95  1  0
 94 93  1  0
M  ISO  4  11 100  19 100  54 101  55 101
M  END
>  <TORSDO>  (58) 
F 20

>  <SCORE>  (58) 
-12.725

>  <name>  (58) 
57

>  <ligand_id>  (58) 
57

>  <original_smiles>  (58) 
[H]c1c([H])c([H])c2c(c1[H])C([H])([H])C([H])([H])C([H])([H])C2([H])N([H])C(=O)C1([H])N(C(=O)C([H])(N([H])C(=O)C([H])(N([H])C([H])([H])[H])C([H])([H])[H])C(C([H])([H])[H])(C([H])([H])[H])C([H])([H])[H])C([H])([H])c2c([H])c(OC([H])([H])C(C(=O)N([H])c3c([H])c(OC([H])([H])[H])c([H])c(N([H])C(=O)N4C([H])([H])C([H])([H])C([H])([H])C([H])(n5nc(-c6c([H])c([H])c(Oc7c([H])c([H])c(F)c([H])c7F)c([H])c6[H])c(C(=O)N([H])[H])c5N([H])[H])C4([H])[H])c3[H])(C([H])([H])[H])C([H])([H])[H])c([H])c([H])c2C1([H])[H]

>  <smiles>  (58) 
[H]c1c([H])c([H])c2c(c1[H])C([H])([H])C([H])([H])C([H])([H])C2([H])N([H])C(=O)C1([H])N(C(=O)C([H])(N([H])C(=O)C([H])(N([H])C([H])([H])[H])C([H])([H])[H])C(C([H])([H])[H])(C([H])([H])[H])C([H])([H])[H])C([H])([H])c2c([H])c(OC([H])([H])C(C(=O)N([H])c3c([H])c(OC([H])([H])[H])c([H])c(N([H])C(=O)N4C([H])([H])C([H])([H])C([H])([H])C([H])(n5nc(-c6c([H])c([H])c(Oc7c([H])c([H])c(F)c([H])c7F)c([H])c6[H])c(C(=O)N([H])[H])c5N([H])[H])C4([H])[H])c3[H])(C([H])([H])[H])C([H])([H])[H])c([H])c([H])c2C1([H])[H]

$$$$
58:0:0
     RDKit          3D

 94102  0  0  1  0  0  0  0  0999 V2000
  -30.9970  -19.3030   18.4140 C   0  0  0  0  0  3  0  0  0  0  0  0
  -29.1760  -19.0670   20.4350 C   0  0  0  0  0  3  0  0  0  0  0  0
  -30.2890  -20.4740   18.7790 C   0  0  0  0  0  0  0  0  0  0  0  0
  -29.3570  -20.4670   19.8730 C   0  0  0  0  0  0  0  0  0  0  0  0
  -29.8820  -17.7900   20.0180 C   0  0  0  0  0  0  0  0  0  0  0  0
  -30.8030  -18.0260   18.9720 C   0  0  0  0  0  0  0  0  0  0  0  0
  -31.4770  -17.0080   18.3940 F   0  0  0  0  0  0  0  0  0  0  0  0
  -30.4450  -15.0710   20.3130 C   0  0  0  0  0  0  0  0  0  0  0  0
  -30.3510  -12.6840   19.4160 C   0  0  0  0  0  2  0  0  0  0  0  0
  -29.4360  -12.5950   18.1700 C   0  0  0  0  0  2  0  0  0  0  0  0
  -27.9720  -12.3690   18.5900 C   0  0  0  0  0  2  0  0  0  0  0  0
  -27.5410  -13.3060   19.7480 C   0  0  0  0  0  3  0  0  0  0  0  0
  -28.5830  -13.3670   20.8840 C   0  0  0  0  0  2  0  0  0  0  0  0
  -29.8490  -13.8010   20.2790 N   0  0  0  0  0  0  0  0  0  0  0  0
  -31.6630  -15.0750   20.0930 O   0  0  0  0  0  0  0  0  0  0  0  0
  -29.6880  -16.2970   20.4630 N   0  0  0  0  0  0  0  0  0  0  0  0
  -28.7660  -16.1160   20.8290 H   0  0  0  0  0  0  0  0  0  0  0  0
  -25.1550  -13.8690   20.4670 C   0  0  0  0  0  0  0  0  0  0  0  0
  -24.0920  -13.0910   20.8330 C   0  0  0  0  0  0  0  0  0  0  0  0
  -24.5650  -11.7430   20.8180 C   0  0  0  0  0  0  0  0  0  0  0  0
  -26.2050  -12.9970   20.2420 N   0  0  0  0  0  0  0  0  0  0  0  0
  -25.8600  -11.7120   20.5210 N   0  0  0  0  0  0  0  0  0  0  0  0
  -23.8430  -10.4780   21.0100 C   0  0  0  0  0  0  0  0  0  0  0  0
  -24.2690   -9.5190   21.9540 C   0  0  0  0  0  3  0  0  0  0  0  0
  -23.5450   -8.3210   22.1340 C   0  0  0  0  0  3  0  0  0  0  0  0
  -22.3800   -8.0730   21.3680 C   0  0  0  0  0  0  0  0  0  0  0  0
  -21.9740   -9.0210   20.4120 C   0  0  0  0  0  3  0  0  0  0  0  0
  -22.6980  -10.2110   20.2320 C   0  0  0  0  0  3  0  0  0  0  0  0
  -21.6270   -6.9270   21.4570 O   0  0  0  0  0  0  0  0  0  0  0  0
  -21.5660   -6.1930   22.6140 C   0  0  0  0  0  0  0  0  0  0  0  0
  -21.1150   -6.7540   23.8300 C   0  0  0  0  0  3  0  0  0  0  0  0
  -21.0030   -5.9470   24.9780 C   0  0  0  0  0  3  0  0  0  0  0  0
  -21.3290   -4.5790   24.9140 C   0  0  0  0  0  0  0  0  0  0  0  0
  -21.7720   -4.0180   23.7040 C   0  0  0  0  0  3  0  0  0  0  0  0
  -21.8880   -4.8220   22.5570 C   0  0  0  0  0  0  0  0  0  0  0  0
  -22.2950   -4.2710   21.3880 F   0  0  0  0  0  0  0  0  0  0  0  0
  -21.2150   -3.8020   26.0150 F   0  0  0  0  0  0  0  0  0  0  0  0
  -22.6890  -13.5640   21.0820 C   0  0  0  0  0  0  0  0  0  0  0  0
  -21.9550  -12.8750   21.9490 N   0  0  0  0  0  0  0  0  0  0  0  0
  -22.2530  -14.5790   20.5420 O   0  0  0  0  0  0  0  0  0  0  0  0
  -22.3210  -12.0550   22.4090 H   0  0  0  0  0  0  0  0  0  0  0  0
  -21.0120  -13.1750   22.1580 H   0  0  0  0  0  0  0  0  0  0  0  0
  -25.3130  -15.2410   20.2800 N   0  0  0  0  0  0  0  0  0  0  0  0
  -24.5390  -15.8890   20.3730 H   0  0  0  0  0  0  0  0  0  0  0  0
  -26.1530  -15.6780   19.9250 H   0  0  0  0  0  0  0  0  0  0  0  0
  -28.8970  -23.2110   20.2350 C   0  0  0  0  0  0  0  0  0  0  0  0
  -28.5840  -21.7930   20.2340 N   0  0  0  0  0  0  0  0  0  0  0  0
  -30.0810  -23.5360   20.3570 O   0  0  0  0  0  0  0  0  0  0  0  0
  -27.6030  -21.6380   20.4220 H   0  0  0  0  0  0  0  0  0  0  0  0
  -27.8080  -24.4980   20.1430 C   0  0  0  0  0  2  0  0  0  0  0  0
  -28.1730  -26.0450   20.2520 O   0  0  0  0  0  0  0  0  0  0  0  0
  -24.6480  -31.8740   23.2590 C   0  0  0  0  0  0  0  0  0  0  0  0
  -27.1550  -27.0920   20.2000 C   0  0  0  0  0  0  0  0  0  0  0  0
  -23.4310  -30.4960   21.6220 C   0  0  0  0  0  3  0  0  0  0  0  0
  -24.8570  -28.9100   20.1820 C   0  0  0  0  0  0  0  0  0  0  0  0
  -25.9920  -30.7200   21.4530 C   0  0  0  0  0  2  0  0  0  0  0  0
  -26.0490  -29.3250   20.7910 C   0  0  0  0  0  0  0  0  0  0  0  0
  -27.1970  -28.4340   20.7810 C   0  0  0  0  0  3  0  0  0  0  0  0
  -25.9360  -26.8000   19.5480 C   0  0  0  0  0  3  0  0  0  0  0  0
  -24.8190  -27.6630   19.5430 C   0  0  0  0  0  3  0  0  0  0  0  0
  -23.6420  -29.8250   20.2390 C   0  0  0  0  0  2  0  0  0  0  0  0
  -24.7120  -31.0530   22.1650 N   0  0  0  0  0  0  0  0  0  0  0  0
  -23.5650  -32.1670   23.7910 O   0  0  0  0  0  0  0  0  0  0  0  0
  -22.7440  -29.4910   22.5830 C   0  0  0  0  0  0  0  0  0  0  0  0
  -21.4140  -29.3300   22.4600 N   0  0  0  0  0  0  0  0  0  0  0  0
  -23.4130  -28.8600   23.4050 O   0  0  0  0  0  0  0  0  0  0  0  0
  -20.9310  -29.8910   21.7720 H   0  0  0  0  0  0  0  0  0  0  0  0
  -18.0270  -28.1410   22.9620 C   0  0  0  0  0  0  0  0  0  0  0  0
  -20.5860  -28.3960   23.2310 C   0  0  0  0  0  3  0  0  0  0  0  0
  -20.6840  -26.9640   22.6570 C   0  0  0  0  0  2  0  0  0  0  0  0
  -19.5820  -26.6430   21.6420 C   0  0  0  0  0  2  0  0  0  0  0  0
  -18.2000  -26.7920   22.2840 C   0  0  0  0  0  2  0  0  0  0  0  0
  -19.1470  -28.9010   23.3910 C   0  0  0  0  0  0  0  0  0  0  0  0
  -18.9290  -30.1640   23.9860 C   0  0  0  0  0  3  0  0  0  0  0  0
  -17.6260  -30.6660   24.1530 C   0  0  0  0  0  3  0  0  0  0  0  0
  -16.5200  -29.9030   23.7390 C   0  0  0  0  0  3  0  0  0  0  0  0
  -16.7220  -28.6420   23.1500 C   0  0  0  0  0  3  0  0  0  0  0  0
  -25.9310  -32.5000   23.8840 C   0  0  0  0  0  3  0  0  0  0  0  0
  -26.4350  -31.7270   25.1650 C   0  0  1  0  0  0  0  0  0  0  0  0
  -25.3370  -31.5050   26.2320 C   0  0  0  0  0  1  0  0  0  0  0  0
  -27.0030  -30.3410   24.7830 C   0  0  0  0  0  1  0  0  0  0  0  0
  -27.5960  -32.5080   25.8250 C   0  0  0  0  0  1  0  0  0  0  0  0
  -25.6300  -33.9010   24.2200 N   0  0  0  0  0  0  0  0  0  0  0  0
  -25.9520  -34.9560   23.4600 C   0  0  0  0  0  0  0  0  0  0  0  0
  -26.5970  -34.8520   22.4140 O   0  0  0  0  0  0  0  0  0  0  0  0
  -25.0520  -34.0540   25.0330 H   0  0  0  0  0  0  0  0  0  0  0  0
  -24.2150  -36.7560   23.1680 C   0  0  0  0  0  1  0  0  0  0  0  0
  -25.4840  -36.3480   23.9330 C   0  0  0  0  0  3  0  0  0  0  0  0
  -27.6480  -37.2330   24.6870 C   0  0  0  0  0  1  0  0  0  0  0  0
  -26.5130  -37.4000   23.7820 N   0  0  0  0  0  0  0  0  0  0  0  0
  -26.1150  -38.3210   23.9400 H   0  0  0  0  0  0  0  0  0  0  0  0
  -30.5120  -21.6430   17.8540 C   0  0  0  0  0  0  0  0  0  0  0  0
  -29.5420  -22.2070   17.3020 O   0  0  0  0  0  0  0  0  0  0  0  0
  -31.6770  -21.9770   17.5550 O   0  0  0  0  0  1  0  0  0  0  0  0
  1  3  2  0
  1  6  1  0
  3  4  1  0
  4 47  1  0
  4  2  2  0
  5  2  1  0
  5 16  1  0
  6  5  2  0
  7  6  1  0
  8 16  1  0
  9 14  1  0
 10 11  1  0
 10  9  1  0
 12 11  1  0
 12 21  1  0
 12 13  1  0
 14  8  1  0
 14 13  1  0
 15  8  2  0
 16 17  1  0
 18 19  2  0
 19 38  1  0
 20 19  1  0
 20 23  1  0
 21 18  1  0
 21 22  1  0
 22 20  2  0
 23 24  1  0
 24 25  2  0
 26 29  1  0
 26 25  1  0
 27 26  2  0
 28 27  1  0
 28 23  2  0
 29 30  1  0
 30 31  1  0
 31 32  2  0
 33 32  1  0
 33 37  1  0
 34 33  2  0
 35 30  2  0
 35 34  1  0
 36 35  1  0
 38 39  1  0
 39 42  1  0
 39 41  1  0
 40 38  2  0
 43 44  1  0
 43 18  1  0
 45 43  1  0
 46 48  2  0
 47 46  1  0
 47 49  1  0
 50 46  1  0
 50 51  1  0
 52 63  2  0
 53 51  1  0
 53 58  1  0
 54 62  1  0
 54 64  1  0
 55 61  1  0
 55 57  1  0
 56 62  1  0
 57 56  1  0
 58 57  2  0
 59 53  2  0
 60 59  1  0
 60 55  2  0
 61 54  1  0
 62 52  1  0
 64 66  2  0
 65 64  1  0
 67 65  1  0
 68 77  2  0
 68 73  1  0
 69 65  1  0
 69 73  1  0
 70 69  1  0
 71 72  1  0
 71 70  1  0
 72 68  1  0
 73 74  2  0
 74 75  1  0
 76 75  2  0
 77 76  1  0
 78 52  1  0
 78 83  1  0
 78 79  1  0
 79 82  1  1
 79 80  1  0
 81 79  1  0
 83 86  1  0
 84 88  1  0
 84 83  1  0
 85 84  2  0
 88 87  1  0
 90 88  1  0
 90 91  1  0
 90 89  1  0
 92  3  1  0
 93 92  2  0
 94 92  1  0
M  ISO  4   8 100  16 100  50 101  51 101
M  END
>  <TORSDO>  (59) 
F 19

>  <SCORE>  (59) 
-14.213

>  <name>  (59) 
58

>  <ligand_id>  (59) 
58

>  <original_smiles>  (59) 
[H]c1c([H])c([H])c2c(c1[H])C([H])([H])C([H])([H])C([H])([H])C2([H])N([H])C(=O)C1([H])N(C(=O)C([H])(N([H])C(=O)C([H])(N([H])C([H])([H])[H])C([H])([H])[H])C(C([H])([H])[H])(C([H])([H])[H])C([H])([H])[H])C([H])([H])c2c([H])c(OC([H])([H])C(=O)N([H])c3c([H])c(N([H])C(=O)N4C([H])([H])C([H])([H])C([H])([H])C([H])(n5nc(-c6c([H])c([H])c(Oc7c([H])c([H])c(F)c([H])c7F)c([H])c6[H])c(C(=O)N([H])[H])c5N([H])[H])C4([H])[H])c(F)c([H])c3C(=O)[O-])c([H])c([H])c2C1([H])[H]

>  <smiles>  (59) 
[H]c1c([H])c([H])c2c(c1[H])C([H])([H])C([H])([H])C([H])([H])C2([H])N([H])C(=O)C1([H])N(C(=O)C([H])(N([H])C(=O)C([H])(N([H])C([H])([H])[H])C([H])([H])[H])C(C([H])([H])[H])(C([H])([H])[H])C([H])([H])[H])C([H])([H])c2c([H])c(OC([H])([H])C(=O)N([H])c3c([H])c(N([H])C(=O)N4C([H])([H])C([H])([H])C([H])([H])C([H])(n5nc(-c6c([H])c([H])c(Oc7c([H])c([H])c(F)c([H])c7F)c([H])c6[H])c(C(=O)N([H])[H])c5N([H])[H])C4([H])[H])c(F)c([H])c3C(=O)[O-])c([H])c([H])c2C1([H])[H]

$$$$
59:0:0
     RDKit          3D

 94102  0  0  1  0  0  0  0  0999 V2000
  -29.7280  -21.9510   20.5330 C   0  0  0  0  0  0  0  0  0  0  0  0
  -29.4060  -20.6300   20.5270 N   0  0  0  0  0  0  0  0  0  0  0  0
  -30.8300  -22.3910   20.8640 O   0  0  0  0  0  0  0  0  0  0  0  0
  -28.4790  -20.4310   20.1760 H   0  0  0  0  0  0  0  0  0  0  0  0
  -31.4910  -19.5830   21.4360 C   0  0  0  0  0  3  0  0  0  0  0  0
  -31.7480  -17.1630   21.4900 C   0  0  0  0  0  3  0  0  0  0  0  0
  -29.6520  -18.1540   20.6950 C   0  0  0  0  0  0  0  0  0  0  0  0
  -30.1900  -19.4680   20.8830 C   0  0  0  0  0  0  0  0  0  0  0  0
  -30.4550  -16.9960   20.9470 C   0  0  0  0  0  0  0  0  0  0  0  0
  -32.2530  -18.4460   21.7480 C   0  0  0  0  0  0  0  0  0  0  0  0
  -28.2130  -17.9920   20.2170 C   0  0  0  0  0  1  0  0  0  0  0  0
  -33.4830  -18.5890   22.2970 F   0  0  0  0  0  0  0  0  0  0  0  0
  -30.6200  -14.6550   20.0960 C   0  0  0  0  0  0  0  0  0  0  0  0
  -30.2650  -12.4940   18.9510 C   0  0  0  0  0  2  0  0  0  0  0  0
  -29.2670  -12.6660   17.7860 C   0  0  0  0  0  2  0  0  0  0  0  0
  -27.8170  -12.5250   18.2840 C   0  0  0  0  0  2  0  0  0  0  0  0
  -27.5310  -13.3890   19.5410 C   0  0  0  0  0  3  0  0  0  0  0  0
  -28.6300  -13.1890   20.6080 C   0  0  0  0  0  2  0  0  0  0  0  0
  -29.9260  -13.4890   19.9810 N   0  0  0  0  0  0  0  0  0  0  0  0
  -31.7190  -14.8280   19.5580 O   0  0  0  0  0  0  0  0  0  0  0  0
  -29.9680  -15.6650   20.7130 N   0  0  0  0  0  0  0  0  0  0  0  0
  -29.0080  -15.4760   20.9590 H   0  0  0  0  0  0  0  0  0  0  0  0
  -25.1800  -14.0190   20.3760 C   0  0  0  0  0  0  0  0  0  0  0  0
  -24.1190  -13.2560   20.7840 C   0  0  0  0  0  0  0  0  0  0  0  0
  -24.5570  -11.8990   20.7040 C   0  0  0  0  0  0  0  0  0  0  0  0
  -26.1990  -13.1260   20.0780 N   0  0  0  0  0  0  0  0  0  0  0  0
  -25.8290  -11.8450   20.3330 N   0  0  0  0  0  0  0  0  0  0  0  0
  -23.8200  -10.6450   20.9050 C   0  0  0  0  0  0  0  0  0  0  0  0
  -24.2420   -9.6830   21.8500 C   0  0  0  0  0  3  0  0  0  0  0  0
  -23.5080   -8.4940   22.0390 C   0  0  0  0  0  3  0  0  0  0  0  0
  -22.3360   -8.2550   21.2790 C   0  0  0  0  0  0  0  0  0  0  0  0
  -21.9340   -9.2050   20.3230 C   0  0  0  0  0  3  0  0  0  0  0  0
  -22.6700  -10.3860   20.1340 C   0  0  0  0  0  3  0  0  0  0  0  0
  -21.5740   -7.1170   21.3750 O   0  0  0  0  0  0  0  0  0  0  0  0
  -21.4740   -6.4140   22.5490 C   0  0  0  0  0  0  0  0  0  0  0  0
  -20.9810   -7.0060   23.7340 C   0  0  0  0  0  3  0  0  0  0  0  0
  -20.8300   -6.2280   24.8990 C   0  0  0  0  0  3  0  0  0  0  0  0
  -21.1630   -4.8610   24.8810 C   0  0  0  0  0  0  0  0  0  0  0  0
  -21.6480   -4.2680   23.7030 C   0  0  0  0  0  3  0  0  0  0  0  0
  -21.8000   -5.0420   22.5390 C   0  0  0  0  0  0  0  0  0  0  0  0
  -22.2490   -4.4630   21.3980 F   0  0  0  0  0  0  0  0  0  0  0  0
  -21.0110   -4.1110   25.9990 F   0  0  0  0  0  0  0  0  0  0  0  0
  -22.7450  -13.7500   21.1340 C   0  0  0  0  0  0  0  0  0  0  0  0
  -22.0480  -13.0430   22.0170 N   0  0  0  0  0  0  0  0  0  0  0  0
  -22.3010  -14.7950   20.6610 O   0  0  0  0  0  0  0  0  0  0  0  0
  -22.4230  -12.1980   22.4180 H   0  0  0  0  0  0  0  0  0  0  0  0
  -21.1280  -13.3530   22.2950 H   0  0  0  0  0  0  0  0  0  0  0  0
  -25.3590  -15.3910   20.2130 N   0  0  0  0  0  0  0  0  0  0  0  0
  -24.6030  -16.0510   20.3560 H   0  0  0  0  0  0  0  0  0  0  0  0
  -26.1790  -15.8120   19.7990 H   0  0  0  0  0  0  0  0  0  0  0  0
  -28.6410  -22.9510   20.0820 C   0  0  0  0  0  2  0  0  0  0  0  0
  -29.0130  -24.4640   20.2120 C   0  0  0  0  0  2  0  0  0  0  0  0
  -27.8690  -25.3940   19.7450 C   0  0  0  0  0  2  0  0  0  0  0  0
  -28.0470  -26.8070   20.0030 O   0  0  0  0  0  0  0  0  0  0  0  0
  -24.3280  -31.9920   23.2420 C   0  0  0  0  0  0  0  0  0  0  0  0
  -26.8900  -27.5760   20.0130 C   0  0  0  0  0  0  0  0  0  0  0  0
  -23.0790  -30.5970   21.6310 C   0  0  0  0  0  3  0  0  0  0  0  0
  -24.4930  -29.0980   20.1320 C   0  0  0  0  0  0  0  0  0  0  0  0
  -25.6030  -30.9670   21.3590 C   0  0  0  0  0  2  0  0  0  0  0  0
  -25.6740  -29.6080   20.6880 C   0  0  0  0  0  0  0  0  0  0  0  0
  -26.8750  -28.8560   20.6240 C   0  0  0  0  0  3  0  0  0  0  0  0
  -25.6840  -27.1030   19.4380 C   0  0  0  0  0  3  0  0  0  0  0  0
  -24.4960  -27.8450   19.5060 C   0  0  0  0  0  3  0  0  0  0  0  0
  -23.2480  -29.9460   20.2350 C   0  0  0  0  0  2  0  0  0  0  0  0
  -24.3570  -31.1990   22.1330 N   0  0  0  0  0  0  0  0  0  0  0  0
  -23.2620  -32.2500   23.8180 O   0  0  0  0  0  0  0  0  0  0  0  0
  -22.4700  -29.5560   22.5980 C   0  0  0  0  0  0  0  0  0  0  0  0
  -21.1520  -29.3250   22.4770 N   0  0  0  0  0  0  0  0  0  0  0  0
  -23.1780  -28.9600   23.4130 O   0  0  0  0  0  0  0  0  0  0  0  0
  -20.6400  -29.8570   21.7870 H   0  0  0  0  0  0  0  0  0  0  0  0
  -17.8340  -27.9810   22.9680 C   0  0  0  0  0  0  0  0  0  0  0  0
  -20.3740  -28.3650   23.2590 C   0  0  0  0  0  3  0  0  0  0  0  0
  -20.5510  -26.9300   22.7150 C   0  0  0  0  0  2  0  0  0  0  0  0
  -19.4760  -26.5350   21.6960 C   0  0  0  0  0  2  0  0  0  0  0  0
  -18.0810  -26.6280   22.3200 C   0  0  0  0  0  2  0  0  0  0  0  0
  -18.9110  -28.8030   23.3930 C   0  0  0  0  0  0  0  0  0  0  0  0
  -18.6260  -30.0660   23.9570 C   0  0  0  0  0  3  0  0  0  0  0  0
  -17.2980  -30.5090   24.0980 C   0  0  0  0  0  3  0  0  0  0  0  0
  -16.2360  -29.6850   23.6900 C   0  0  0  0  0  3  0  0  0  0  0  0
  -16.5050  -28.4220   23.1320 C   0  0  0  0  0  3  0  0  0  0  0  0
  -25.6280  -32.6290   23.8210 C   0  0  0  0  0  3  0  0  0  0  0  0
  -26.1770  -31.8700   25.0920 C   0  0  1  0  0  0  0  0  0  0  0  0
  -25.1050  -31.6250   26.1790 C   0  0  0  0  0  1  0  0  0  0  0  0
  -26.7720  -30.4980   24.6980 C   0  0  0  0  0  1  0  0  0  0  0  0
  -27.3290  -32.6840   25.7300 C   0  0  0  0  0  1  0  0  0  0  0  0
  -25.3260  -34.0290   24.1430 N   0  0  0  0  0  0  0  0  0  0  0  0
  -25.6220  -35.0710   23.3560 C   0  0  0  0  0  0  0  0  0  0  0  0
  -26.2510  -34.9570   22.3000 O   0  0  0  0  0  0  0  0  0  0  0  0
  -24.7660  -34.1940   24.9660 H   0  0  0  0  0  0  0  0  0  0  0  0
  -23.8570  -36.8390   23.0580 C   0  0  0  0  0  1  0  0  0  0  0  0
  -25.1430  -36.4630   23.8120 C   0  0  0  0  0  3  0  0  0  0  0  0
  -27.3110  -37.3790   24.5140 C   0  0  0  0  0  1  0  0  0  0  0  0
  -26.1560  -37.5260   23.6310 N   0  0  0  0  0  0  0  0  0  0  0  0
  -25.7490  -38.4420   23.7960 H   0  0  0  0  0  0  0  0  0  0  0  0
  1  3  2  0
  2  1  1  0
  2  8  1  0
  4  2  1  0
  5 10  1  0
  6 10  2  0
  7  8  1  0
  7  9  2  0
  8  5  2  0
  9  6  1  0
 10 12  1  0
 11  7  1  0
 13 21  1  0
 14 19  1  0
 15 16  1  0
 15 14  1  0
 17 16  1  0
 17 26  1  0
 17 18  1  0
 19 13  1  0
 19 18  1  0
 20 13  2  0
 21  9  1  0
 21 22  1  0
 23 24  2  0
 24 43  1  0
 25 24  1  0
 25 28  1  0
 26 27  1  0
 26 23  1  0
 27 25  2  0
 28 29  1  0
 29 30  2  0
 31 34  1  0
 31 30  1  0
 32 31  2  0
 33 32  1  0
 33 28  2  0
 34 35  1  0
 35 36  1  0
 36 37  2  0
 38 37  1  0
 38 42  1  0
 39 38  2  0
 40 35  2  0
 40 39  1  0
 41 40  1  0
 43 44  1  0
 44 47  1  0
 44 46  1  0
 45 43  2  0
 48 49  1  0
 48 23  1  0
 50 48  1  0
 51 52  1  0
 51  1  1  0
 53 54  1  0
 53 52  1  0
 54 56  1  0
 55 66  2  0
 56 61  1  0
 57 65  1  0
 57 67  1  0
 58 64  1  0
 58 60  1  0
 59 65  1  0
 60 59  1  0
 61 60  2  0
 62 63  1  0
 62 56  2  0
 63 58  2  0
 64 57  1  0
 65 55  1  0
 67 69  2  0
 68 67  1  0
 70 68  1  0
 71 80  2  0
 71 76  1  0
 72 68  1  0
 72 76  1  0
 73 72  1  0
 74 75  1  0
 74 73  1  0
 75 71  1  0
 76 77  2  0
 77 78  1  0
 79 78  2  0
 80 79  1  0
 81 55  1  0
 81 86  1  0
 81 82  1  0
 82 85  1  1
 82 83  1  0
 84 82  1  0
 86 89  1  0
 87 91  1  0
 87 86  1  0
 88 87  2  0
 91 90  1  0
 93 94  1  0
 93 91  1  0
 93 92  1  0
M  ISO  4  13 100  21 100  53 101  54 101
M  END
>  <TORSDO>  (60) 
F 20

>  <SCORE>  (60) 
-12.462

>  <name>  (60) 
59

>  <ligand_id>  (60) 
59

>  <original_smiles>  (60) 
[H]c1c([H])c([H])c2c(c1[H])C([H])([H])C([H])([H])C([H])([H])C2([H])N([H])C(=O)C1([H])N(C(=O)C([H])(N([H])C(=O)C([H])(N([H])C([H])([H])[H])C([H])([H])[H])C(C([H])([H])[H])(C([H])([H])[H])C([H])([H])[H])C([H])([H])c2c([H])c(OC([H])([H])C([H])([H])C([H])([H])C(=O)N([H])c3c([H])c(F)c([H])c(N([H])C(=O)N4C([H])([H])C([H])([H])C([H])([H])C([H])(n5nc(-c6c([H])c([H])c(Oc7c([H])c([H])c(F)c([H])c7F)c([H])c6[H])c(C(=O)N([H])[H])c5N([H])[H])C4([H])[H])c3C([H])([H])[H])c([H])c([H])c2C1([H])[H]

>  <smiles>  (60) 
[H]c1c([H])c([H])c2c(c1[H])C([H])([H])C([H])([H])C([H])([H])C2([H])N([H])C(=O)C1([H])N(C(=O)C([H])(N([H])C(=O)C([H])(N([H])C([H])([H])[H])C([H])([H])[H])C(C([H])([H])[H])(C([H])([H])[H])C([H])([H])[H])C([H])([H])c2c([H])c(OC([H])([H])C([H])([H])C([H])([H])C(=O)N([H])c3c([H])c(F)c([H])c(N([H])C(=O)N4C([H])([H])C([H])([H])C([H])([H])C([H])(n5nc(-c6c([H])c([H])c(Oc7c([H])c([H])c(F)c([H])c7F)c([H])c6[H])c(C(=O)N([H])[H])c5N([H])[H])C4([H])[H])c3C([H])([H])[H])c([H])c([H])c2C1([H])[H]

$$$$
60:0:0
     RDKit          3D

 95103  0  0  1  0  0  0  0  0999 V2000
  -29.6630  -21.3430   20.6430 C   0  0  0  0  0  0  0  0  0  0  0  0
  -29.0220  -22.4490   20.0950 N   0  0  0  0  0  0  0  0  0  0  0  0
  -30.3230  -21.4560   21.6760 O   0  0  0  0  0  0  0  0  0  0  0  0
  -28.5030  -22.2570   19.2490 H   0  0  0  0  0  0  0  0  0  0  0  0
  -29.7390  -18.5590   17.9570 C   0  0  0  0  0  3  0  0  0  0  0  0
  -29.6100  -19.8120   18.5940 C   0  0  0  0  0  3  0  0  0  0  0  0
  -29.8810  -17.3630   18.6900 C   0  0  0  0  0  3  0  0  0  0  0  0
  -29.7500  -18.6600   20.7360 C   0  0  0  0  0  3  0  0  0  0  0  0
  -29.6190  -19.9200   20.0010 C   0  0  0  0  0  0  0  0  0  0  0  0
  -29.8860  -17.3530   20.1020 C   0  0  0  0  0  0  0  0  0  0  0  0
  -30.6730  -14.8970   20.4980 C   0  0  0  0  0  0  0  0  0  0  0  0
  -30.5490  -12.5580   19.6290 C   0  0  0  0  0  2  0  0  0  0  0  0
  -29.6570  -12.5550   18.3680 C   0  0  0  0  0  2  0  0  0  0  0  0
  -28.1740  -12.3800   18.7510 C   0  0  0  0  0  2  0  0  0  0  0  0
  -27.7460  -13.3170   19.9100 C   0  0  0  0  0  3  0  0  0  0  0  0
  -28.7640  -13.3050   21.0730 C   0  0  0  0  0  2  0  0  0  0  0  0
  -30.0790  -13.6520   20.5160 N   0  0  0  0  0  0  0  0  0  0  0  0
  -31.8450  -15.0040   20.1180 O   0  0  0  0  0  0  0  0  0  0  0  0
  -29.9150  -16.0270   20.7860 N   0  0  0  0  0  0  0  0  0  0  0  0
  -29.0980  -15.8350   21.3480 H   0  0  0  0  0  0  0  0  0  0  0  0
  -25.3360  -13.9030   20.5680 C   0  0  0  0  0  0  0  0  0  0  0  0
  -24.2650  -13.1290   20.9190 C   0  0  0  0  0  0  0  0  0  0  0  0
  -24.7340  -11.7790   20.9130 C   0  0  0  0  0  0  0  0  0  0  0  0
  -26.3890  -13.0270   20.3670 N   0  0  0  0  0  0  0  0  0  0  0  0
  -26.0320  -11.7440   20.6370 N   0  0  0  0  0  0  0  0  0  0  0  0
  -24.0060  -10.5160   21.1000 C   0  0  0  0  0  0  0  0  0  0  0  0
  -24.4240   -9.5530   22.0450 C   0  0  0  0  0  3  0  0  0  0  0  0
  -23.6970   -8.3560   22.2180 C   0  0  0  0  0  3  0  0  0  0  0  0
  -22.5350   -8.1120   21.4460 C   0  0  0  0  0  0  0  0  0  0  0  0
  -22.1370   -9.0630   20.4900 C   0  0  0  0  0  3  0  0  0  0  0  0
  -22.8650  -10.2510   20.3150 C   0  0  0  0  0  3  0  0  0  0  0  0
  -21.7810   -6.9670   21.5280 O   0  0  0  0  0  0  0  0  0  0  0  0
  -21.7280   -6.2210   22.6780 C   0  0  0  0  0  0  0  0  0  0  0  0
  -21.2700   -6.7650   23.8980 C   0  0  0  0  0  3  0  0  0  0  0  0
  -21.1650   -5.9450   25.0390 C   0  0  0  0  0  3  0  0  0  0  0  0
  -21.5070   -4.5820   24.9620 C   0  0  0  0  0  0  0  0  0  0  0  0
  -21.9580   -4.0360   23.7470 C   0  0  0  0  0  3  0  0  0  0  0  0
  -22.0640   -4.8540   22.6070 C   0  0  0  0  0  0  0  0  0  0  0  0
  -22.4790   -4.3190   21.4340 F   0  0  0  0  0  0  0  0  0  0  0  0
  -21.3990   -3.7920   26.0560 F   0  0  0  0  0  0  0  0  0  0  0  0
  -22.8600  -13.6040   21.1510 C   0  0  0  0  0  0  0  0  0  0  0  0
  -22.1120  -12.9130   22.0040 N   0  0  0  0  0  0  0  0  0  0  0  0
  -22.4320  -14.6230   20.6090 O   0  0  0  0  0  0  0  0  0  0  0  0
  -22.4690  -12.0890   22.4650 H   0  0  0  0  0  0  0  0  0  0  0  0
  -21.1690  -13.2160   22.2040 H   0  0  0  0  0  0  0  0  0  0  0  0
  -25.4980  -15.2730   20.3800 N   0  0  0  0  0  0  0  0  0  0  0  0
  -24.7240  -15.9220   20.4630 H   0  0  0  0  0  0  0  0  0  0  0  0
  -26.3520  -15.7120   20.0580 H   0  0  0  0  0  0  0  0  0  0  0  0
  -28.9390  -23.9130   20.5930 C   0  0  0  0  0  3  0  0  0  0  0  0
  -26.5540  -23.6040   21.5200 C   0  0  0  0  0  1  0  0  0  0  0  0
  -28.4740  -23.1500   23.0410 C   0  0  0  0  0  1  0  0  0  0  0  0
  -27.9700  -25.4710   22.4120 C   0  0  0  0  0  1  0  0  0  0  0  0
  -27.9980  -24.0290   21.8610 C   0  0  1  0  0  0  0  0  0  0  0  0
  -28.5800  -25.0510   19.4720 C   0  0  0  0  0  2  0  0  0  0  0  0
  -28.5810  -26.5460   19.7310 O   0  0  0  0  0  0  0  0  0  0  0  0
  -24.7040  -31.7030   23.0400 C   0  0  0  0  0  0  0  0  0  0  0  0
  -27.4270  -27.3730   19.6980 C   0  0  0  0  0  0  0  0  0  0  0  0
  -23.5270  -30.3510   21.3460 C   0  0  0  0  0  3  0  0  0  0  0  0
  -25.0090  -28.9340   19.8120 C   0  0  0  0  0  0  0  0  0  0  0  0
  -26.0540  -30.7610   21.1450 C   0  0  0  0  0  2  0  0  0  0  0  0
  -26.1710  -29.4220   20.4180 C   0  0  0  0  0  0  0  0  0  0  0  0
  -27.3790  -28.6540   20.3490 C   0  0  0  0  0  3  0  0  0  0  0  0
  -26.2330  -26.9600   19.0600 C   0  0  0  0  0  3  0  0  0  0  0  0
  -25.0450  -27.7140   19.1220 C   0  0  0  0  0  3  0  0  0  0  0  0
  -23.7430  -29.7600   19.9270 C   0  0  0  0  0  2  0  0  0  0  0  0
  -24.7820  -30.9540   21.9000 N   0  0  0  0  0  0  0  0  0  0  0  0
  -23.6200  -31.9110   23.6030 O   0  0  0  0  0  0  0  0  0  0  0  0
  -22.9150  -29.2610   22.2590 C   0  0  0  0  0  0  0  0  0  0  0  0
  -21.5940  -29.0420   22.1420 N   0  0  0  0  0  0  0  0  0  0  0  0
  -23.6290  -28.6180   23.0330 O   0  0  0  0  0  0  0  0  0  0  0  0
  -21.0750  -29.6170   21.4940 H   0  0  0  0  0  0  0  0  0  0  0  0
  -18.2700  -27.6970   22.6350 C   0  0  0  0  0  0  0  0  0  0  0  0
  -20.8220  -28.0350   22.8740 C   0  0  0  0  0  3  0  0  0  0  0  0
  -20.9640  -26.6410   22.2180 C   0  0  0  0  0  2  0  0  0  0  0  0
  -19.8540  -26.3360   21.2060 C   0  0  0  0  0  2  0  0  0  0  0  0
  -18.4800  -26.3950   21.8820 C   0  0  0  0  0  2  0  0  0  0  0  0
  -19.3690  -28.4750   23.0870 C   0  0  0  0  0  0  0  0  0  0  0  0
  -19.1170  -29.6940   23.7540 C   0  0  0  0  0  3  0  0  0  0  0  0
  -17.7980  -30.1360   23.9720 C   0  0  0  0  0  3  0  0  0  0  0  0
  -16.7140  -29.3560   23.5340 C   0  0  0  0  0  3  0  0  0  0  0  0
  -16.9510  -28.1380   22.8730 C   0  0  0  0  0  3  0  0  0  0  0  0
  -25.9700  -32.3520   23.6780 C   0  0  0  0  0  3  0  0  0  0  0  0
  -26.5390  -31.5300   24.9000 C   0  0  1  0  0  0  0  0  0  0  0  0
  -25.4760  -31.1940   25.9720 C   0  0  0  0  0  1  0  0  0  0  0  0
  -27.1620  -30.1990   24.4230 C   0  0  0  0  0  1  0  0  0  0  0  0
  -27.6760  -32.3280   25.5820 C   0  0  0  0  0  1  0  0  0  0  0  0
  -25.6110  -33.7150   24.0950 N   0  0  0  0  0  0  0  0  0  0  0  0
  -25.9070  -34.8260   23.4080 C   0  0  0  0  0  0  0  0  0  0  0  0
  -26.5790  -34.8120   22.3720 O   0  0  0  0  0  0  0  0  0  0  0  0
  -25.0130  -33.7980   24.9040 H   0  0  0  0  0  0  0  0  0  0  0  0
  -24.1280  -36.5860   23.1580 C   0  0  0  0  0  1  0  0  0  0  0  0
  -25.3740  -36.1660   23.9520 C   0  0  0  0  0  3  0  0  0  0  0  0
  -27.4700  -37.0580   24.8690 C   0  0  0  0  0  1  0  0  0  0  0  0
  -26.3760  -37.2550   23.9210 N   0  0  0  0  0  0  0  0  0  0  0  0
  -25.9400  -38.1510   24.1200 H   0  0  0  0  0  0  0  0  0  0  0  0
  1  3  2  0
  2 49  1  0
  2  1  1  0
  4  2  1  0
  5  6  2  0
  5  7  1  0
  6  9  1  0
  7 10  2  0
  9  1  1  0
  9  8  2  0
 10  8  1  0
 10 19  1  0
 11 17  1  0
 11 19  1  0
 12 17  1  0
 13 14  1  0
 13 12  1  0
 15 14  1  0
 15 24  1  0
 15 16  1  0
 17 16  1  0
 18 11  2  0
 19 20  1  0
 21 22  2  0
 22 41  1  0
 23 22  1  0
 23 26  1  0
 24 21  1  0
 24 25  1  0
 25 23  2  0
 26 27  1  0
 27 28  2  0
 29 32  1  0
 29 28  1  0
 30 29  2  0
 31 30  1  0
 31 26  2  0
 32 33  1  0
 33 34  1  0
 34 35  2  0
 36 35  1  0
 36 40  1  0
 37 36  2  0
 38 33  2  0
 38 37  1  0
 39 38  1  0
 41 42  1  0
 42 45  1  0
 42 44  1  0
 43 41  2  0
 46 47  1  0
 46 21  1  0
 48 46  1  0
 49 54  1  0
 49 53  1  0
 53 50  1  6
 53 52  1  0
 53 51  1  0
 54 55  1  0
 56 67  2  0
 57 55  1  0
 57 62  1  0
 58 66  1  0
 58 68  1  0
 59 65  1  0
 59 61  1  0
 60 66  1  0
 61 60  1  0
 62 61  2  0
 63 64  1  0
 63 57  2  0
 64 59  2  0
 65 58  1  0
 66 56  1  0
 68 70  2  0
 69 68  1  0
 71 69  1  0
 72 81  2  0
 72 77  1  0
 73 69  1  0
 73 77  1  0
 74 73  1  0
 75 76  1  0
 75 74  1  0
 76 72  1  0
 77 78  2  0
 78 79  1  0
 80 79  2  0
 81 80  1  0
 82 56  1  0
 82 87  1  0
 82 83  1  0
 83 86  1  1
 83 84  1  0
 85 83  1  0
 87 90  1  0
 88 92  1  0
 88 87  1  0
 89 88  2  0
 92 91  1  0
 94 92  1  0
 94 95  1  0
 94 93  1  0
M  ISO  4  11 100  19 100  54 101  55 101
M  END
>  <TORSDO>  (61) 
F 20

>  <SCORE>  (61) 
-12.820

>  <name>  (61) 
60

>  <ligand_id>  (61) 
60

>  <original_smiles>  (61) 
[H]c1c([H])c(C(=O)N([H])C([H])(C([H])([H])Oc2c([H])c([H])c3c(c2[H])C([H])([H])N(C(=O)C([H])(N([H])C(=O)C([H])(N([H])C([H])([H])[H])C([H])([H])[H])C(C([H])([H])[H])(C([H])([H])[H])C([H])([H])[H])C([H])(C(=O)N([H])C2([H])c4c([H])c([H])c([H])c([H])c4C([H])([H])C([H])([H])C2([H])[H])C3([H])[H])C(C([H])([H])[H])(C([H])([H])[H])C([H])([H])[H])c([H])c(N([H])C(=O)N2C([H])([H])C([H])([H])C([H])([H])C([H])(n3nc(-c4c([H])c([H])c(Oc5c([H])c([H])c(F)c([H])c5F)c([H])c4[H])c(C(=O)N([H])[H])c3N([H])[H])C2([H])[H])c1[H]

>  <smiles>  (61) 
[H]c1c([H])c(C(=O)N([H])C([H])(C([H])([H])Oc2c([H])c([H])c3c(c2[H])C([H])([H])N(C(=O)C([H])(N([H])C(=O)C([H])(N([H])C([H])([H])[H])C([H])([H])[H])C(C([H])([H])[H])(C([H])([H])[H])C([H])([H])[H])C([H])(C(=O)N([H])C2([H])c4c([H])c([H])c([H])c([H])c4C([H])([H])C([H])([H])C2([H])[H])C3([H])[H])C(C([H])([H])[H])(C([H])([H])[H])C([H])([H])[H])c([H])c(N([H])C(=O)N2C([H])([H])C([H])([H])C([H])([H])C([H])(n3nc(-c4c([H])c([H])c(Oc5c([H])c([H])c(F)c([H])c5F)c([H])c4[H])c(C(=O)N([H])[H])c3N([H])[H])C2([H])[H])c1[H]

$$$$
61:0:0
     RDKit          3D

 95104  0  0  1  0  0  0  0  0999 V2000
  -29.5470  -21.8420   21.3720 C   0  0  0  0  0  0  0  0  0  0  0  0
  -30.1970  -21.2560   22.4000 C   0  0  0  0  0  3  0  0  0  0  0  0
  -28.6520  -22.3720   19.3480 C   0  0  0  0  0  2  0  0  0  0  0  0
  -28.9140  -23.7370   20.1060 C   0  0  0  0  0  3  0  0  0  0  0  0
  -29.2400  -21.2570   20.1430 N   0  0  0  0  0  0  0  0  0  0  0  0
  -29.1780  -23.1860   21.4100 O   0  0  0  0  0  0  0  0  0  0  0  0
  -30.1400  -18.5630   17.6530 C   0  0  0  0  0  3  0  0  0  0  0  0
  -29.8410  -19.7960   18.2610 C   0  0  0  0  0  3  0  0  0  0  0  0
  -30.0970  -17.3570   18.3750 C   0  0  0  0  0  3  0  0  0  0  0  0
  -29.4040  -18.6220   20.3360 C   0  0  0  0  0  3  0  0  0  0  0  0
  -29.4820  -19.9050   19.6260 C   0  0  0  0  0  0  0  0  0  0  0  0
  -29.7310  -17.3240   19.7400 C   0  0  0  0  0  0  0  0  0  0  0  0
  -30.4150  -14.8550   20.2330 C   0  0  0  0  0  0  0  0  0  0  0  0
  -30.2860  -12.5230   19.3730 C   0  0  0  0  0  2  0  0  0  0  0  0
  -29.3410  -12.5130   18.1510 C   0  0  0  0  0  2  0  0  0  0  0  0
  -27.8820  -12.3050   18.5990 C   0  0  0  0  0  2  0  0  0  0  0  0
  -27.4830  -13.2280   19.7820 C   0  0  0  0  0  3  0  0  0  0  0  0
  -28.5530  -13.2410   20.8960 C   0  0  0  0  0  2  0  0  0  0  0  0
  -29.8310  -13.6070   20.2730 N   0  0  0  0  0  0  0  0  0  0  0  0
  -31.5970  -14.9600   19.8900 O   0  0  0  0  0  0  0  0  0  0  0  0
  -29.6230  -15.9890   20.3990 N   0  0  0  0  0  0  0  0  0  0  0  0
  -28.7540  -15.8190   20.8830 H   0  0  0  0  0  0  0  0  0  0  0  0
  -25.1040  -13.7580   20.5790 C   0  0  0  0  0  0  0  0  0  0  0  0
  -24.0610  -12.9570   20.9540 C   0  0  0  0  0  0  0  0  0  0  0  0
  -24.5470  -11.6160   20.8850 C   0  0  0  0  0  0  0  0  0  0  0  0
  -26.1580  -12.9040   20.2990 N   0  0  0  0  0  0  0  0  0  0  0  0
  -25.8330  -11.6080   20.5470 N   0  0  0  0  0  0  0  0  0  0  0  0
  -23.8470  -10.3370   21.0670 C   0  0  0  0  0  0  0  0  0  0  0  0
  -24.3000   -9.3740   21.9950 C   0  0  0  0  0  3  0  0  0  0  0  0
  -23.5990   -8.1600   22.1650 C   0  0  0  0  0  3  0  0  0  0  0  0
  -22.4300   -7.9020   21.4110 C   0  0  0  0  0  0  0  0  0  0  0  0
  -21.9960   -8.8540   20.4740 C   0  0  0  0  0  3  0  0  0  0  0  0
  -22.6970  -10.0590   20.3000 C   0  0  0  0  0  3  0  0  0  0  0  0
  -21.7010   -6.7410   21.4920 O   0  0  0  0  0  0  0  0  0  0  0  0
  -21.6600   -5.9940   22.6430 C   0  0  0  0  0  0  0  0  0  0  0  0
  -21.1810   -6.5270   23.8590 C   0  0  0  0  0  3  0  0  0  0  0  0
  -21.0920   -5.7050   25.0010 C   0  0  0  0  0  3  0  0  0  0  0  0
  -21.4710   -4.3510   24.9270 C   0  0  0  0  0  0  0  0  0  0  0  0
  -21.9420   -3.8170   23.7140 C   0  0  0  0  0  3  0  0  0  0  0  0
  -22.0340   -4.6370   22.5750 C   0  0  0  0  0  0  0  0  0  0  0  0
  -22.4670   -4.1130   21.4040 F   0  0  0  0  0  0  0  0  0  0  0  0
  -21.3790   -3.5600   26.0200 F   0  0  0  0  0  0  0  0  0  0  0  0
  -22.6620  -13.4030   21.2650 C   0  0  0  0  0  0  0  0  0  0  0  0
  -21.9680  -12.6820   22.1390 N   0  0  0  0  0  0  0  0  0  0  0  0
  -22.1940  -14.4270   20.7690 O   0  0  0  0  0  0  0  0  0  0  0  0
  -22.3600  -11.8550   22.5660 H   0  0  0  0  0  0  0  0  0  0  0  0
  -21.0330  -12.9670   22.3910 H   0  0  0  0  0  0  0  0  0  0  0  0
  -25.2400  -15.1370   20.4280 N   0  0  0  0  0  0  0  0  0  0  0  0
  -24.4640  -15.7750   20.5650 H   0  0  0  0  0  0  0  0  0  0  0  0
  -26.0750  -15.6010   20.0940 H   0  0  0  0  0  0  0  0  0  0  0  0
  -30.5520  -21.9170   23.6690 C   0  0  0  0  0  0  0  0  0  0  0  0
  -31.5960  -21.2220   24.5300 C   0  0  0  0  0  1  0  0  0  0  0  0
  -30.0500  -22.9690   24.0790 O   0  0  0  0  0  0  0  0  0  0  0  0
  -27.8100  -24.9310   20.0280 C   0  0  0  0  0  2  0  0  0  0  0  0
  -28.0970  -26.4080   20.1840 O   0  0  0  0  0  0  0  0  0  0  0  0
  -24.5560  -31.9780   23.2370 C   0  0  0  0  0  0  0  0  0  0  0  0
  -27.0200  -27.3330   20.1290 C   0  0  0  0  0  0  0  0  0  0  0  0
  -23.2950  -30.5890   21.6340 C   0  0  0  0  0  3  0  0  0  0  0  0
  -24.6890  -29.0230   20.1650 C   0  0  0  0  0  0  0  0  0  0  0  0
  -25.8360  -30.8650   21.3860 C   0  0  0  0  0  2  0  0  0  0  0  0
  -25.8810  -29.4800   20.7410 C   0  0  0  0  0  0  0  0  0  0  0  0
  -27.0470  -28.6450   20.7160 C   0  0  0  0  0  3  0  0  0  0  0  0
  -25.8060  -26.9600   19.5070 C   0  0  0  0  0  3  0  0  0  0  0  0
  -24.6580  -27.7720   19.5340 C   0  0  0  0  0  3  0  0  0  0  0  0
  -23.4640  -29.9140   20.2490 C   0  0  0  0  0  2  0  0  0  0  0  0
  -24.5840  -31.1630   22.1410 N   0  0  0  0  0  0  0  0  0  0  0  0
  -23.4910  -32.2690   23.7970 O   0  0  0  0  0  0  0  0  0  0  0  0
  -22.6460  -29.5820   22.6140 C   0  0  0  0  0  0  0  0  0  0  0  0
  -21.3310  -29.3490   22.4620 N   0  0  0  0  0  0  0  0  0  0  0  0
  -23.3260  -29.0120   23.4710 O   0  0  0  0  0  0  0  0  0  0  0  0
  -20.8390  -29.8580   21.7410 H   0  0  0  0  0  0  0  0  0  0  0  0
  -18.0140  -27.9540   22.8500 C   0  0  0  0  0  0  0  0  0  0  0  0
  -20.5290  -28.4080   23.2480 C   0  0  0  0  0  3  0  0  0  0  0  0
  -20.7590  -26.9530   22.7780 C   0  0  0  0  0  2  0  0  0  0  0  0
  -19.7460  -26.4900   21.7280 C   0  0  0  0  0  2  0  0  0  0  0  0
  -18.3210  -26.5800   22.2790 C   0  0  0  0  0  2  0  0  0  0  0  0
  -19.0520  -28.8190   23.2910 C   0  0  0  0  0  0  0  0  0  0  0  0
  -18.7130  -30.0970   23.7820 C   0  0  0  0  0  3  0  0  0  0  0  0
  -17.3710  -30.5170   23.8400 C   0  0  0  0  0  3  0  0  0  0  0  0
  -16.3470  -29.6510   23.4170 C   0  0  0  0  0  3  0  0  0  0  0  0
  -16.6690  -28.3720   22.9280 C   0  0  0  0  0  3  0  0  0  0  0  0
  -25.8610  -32.6000   23.8230 C   0  0  0  0  0  3  0  0  0  0  0  0
  -26.4070  -31.8200   25.0800 C   0  0  1  0  0  0  0  0  0  0  0  0
  -25.3410  -31.5800   26.1750 C   0  0  0  0  0  1  0  0  0  0  0  0
  -26.9760  -30.4430   24.6700 C   0  0  0  0  0  1  0  0  0  0  0  0
  -27.5780  -32.6070   25.7150 C   0  0  0  0  0  1  0  0  0  0  0  0
  -25.5710  -34.0000   24.1670 N   0  0  0  0  0  0  0  0  0  0  0  0
  -25.8990  -35.0550   23.4110 C   0  0  0  0  0  0  0  0  0  0  0  0
  -26.5470  -34.9520   22.3660 O   0  0  0  0  0  0  0  0  0  0  0  0
  -24.9940  -34.1540   24.9810 H   0  0  0  0  0  0  0  0  0  0  0  0
  -24.1860  -36.8720   23.0960 C   0  0  0  0  0  1  0  0  0  0  0  0
  -25.4330  -36.4460   23.8860 C   0  0  0  0  0  3  0  0  0  0  0  0
  -27.5870  -37.3030   24.6960 C   0  0  0  0  0  1  0  0  0  0  0  0
  -26.4750  -37.4880   23.7660 N   0  0  0  0  0  0  0  0  0  0  0  0
  -26.0820  -38.4120   23.9260 H   0  0  0  0  0  0  0  0  0  0  0  0
  1  6  1  0
  1  2  2  0
  2 51  1  0
  3  4  1  0
  3  5  1  0
  4 54  1  0
  4  6  1  0
  5  1  1  0
  7  8  2  0
  7  9  1  0
  8 11  1  0
  9 12  2  0
 11  5  1  0
 11 10  2  0
 12 10  1  0
 12 21  1  0
 13 19  1  0
 13 21  1  0
 14 19  1  0
 15 16  1  0
 15 14  1  0
 17 16  1  0
 17 26  1  0
 17 18  1  0
 19 18  1  0
 20 13  2  0
 21 22  1  0
 23 24  2  0
 24 43  1  0
 25 24  1  0
 25 28  1  0
 26 27  1  0
 26 23  1  0
 27 25  2  0
 28 29  1  0
 29 30  2  0
 31 34  1  0
 31 30  1  0
 32 31  2  0
 33 32  1  0
 33 28  2  0
 34 35  1  0
 35 36  1  0
 36 37  2  0
 38 37  1  0
 38 42  1  0
 39 38  2  0
 40 35  2  0
 40 39  1  0
 41 40  1  0
 43 44  1  0
 44 47  1  0
 44 46  1  0
 45 43  2  0
 48 49  1  0
 48 23  1  0
 50 48  1  0
 51 53  2  0
 51 52  1  0
 54 55  1  0
 56 67  2  0
 57 55  1  0
 57 62  1  0
 58 66  1  0
 58 68  1  0
 59 65  1  0
 59 61  1  0
 60 66  1  0
 61 60  1  0
 62 61  2  0
 63 64  1  0
 63 57  2  0
 64 59  2  0
 65 58  1  0
 66 56  1  0
 68 70  2  0
 69 68  1  0
 71 69  1  0
 72 81  2  0
 72 77  1  0
 73 69  1  0
 73 77  1  0
 74 73  1  0
 75 76  1  0
 75 74  1  0
 76 72  1  0
 77 78  2  0
 78 79  1  0
 80 79  2  0
 81 80  1  0
 82 56  1  0
 82 87  1  0
 82 83  1  0
 83 86  1  1
 83 84  1  0
 85 83  1  0
 87 90  1  0
 88 92  1  0
 88 87  1  0
 89 88  2  0
 92 91  1  0
 94 92  1  0
 94 95  1  0
 94 93  1  0
M  ISO  4  13 100  21 100  54 101  55 101
M  END
>  <TORSDO>  (62) 
F 19

>  <SCORE>  (62) 
-14.771

>  <name>  (62) 
61

>  <ligand_id>  (62) 
61

>  <original_smiles>  (62) 
[H]C(C(=O)C([H])([H])[H])=C1OC([H])(C([H])([H])Oc2c([H])c([H])c3c(c2[H])C([H])([H])N(C(=O)C([H])(N([H])C(=O)C([H])(N([H])C([H])([H])[H])C([H])([H])[H])C(C([H])([H])[H])(C([H])([H])[H])C([H])([H])[H])C([H])(C(=O)N([H])C2([H])c4c([H])c([H])c([H])c([H])c4C([H])([H])C([H])([H])C2([H])[H])C3([H])[H])C([H])([H])N1c1c([H])c([H])c([H])c(N([H])C(=O)N2C([H])([H])C([H])([H])C([H])([H])C([H])(n3nc(-c4c([H])c([H])c(Oc5c([H])c([H])c(F)c([H])c5F)c([H])c4[H])c(C(=O)N([H])[H])c3N([H])[H])C2([H])[H])c1[H]

>  <smiles>  (62) 
[H]C(C(=O)C([H])([H])[H])=C1OC([H])(C([H])([H])Oc2c([H])c([H])c3c(c2[H])C([H])([H])N(C(=O)C([H])(N([H])C(=O)C([H])(N([H])C([H])([H])[H])C([H])([H])[H])C(C([H])([H])[H])(C([H])([H])[H])C([H])([H])[H])C([H])(C(=O)N([H])C2([H])c4c([H])c([H])c([H])c([H])c4C([H])([H])C([H])([H])C2([H])[H])C3([H])[H])C([H])([H])N1c1c([H])c([H])c([H])c(N([H])C(=O)N2C([H])([H])C([H])([H])C([H])([H])C([H])(n3nc(-c4c([H])c([H])c(Oc5c([H])c([H])c(F)c([H])c5F)c([H])c4[H])c(C(=O)N([H])[H])c3N([H])[H])C2([H])[H])c1[H]

$$$$
62:0:0
     RDKit          3D

 92100  0  0  1  0  0  0  0  0999 V2000
  -29.2530  -22.6520   20.2660 C   0  0  0  0  0  0  0  0  0  0  0  0
  -28.9710  -21.2850   20.1880 N   0  0  0  0  0  0  0  0  0  0  0  0
  -30.4180  -23.0460   20.3710 O   0  0  0  0  0  0  0  0  0  0  0  0
  -28.0110  -21.0890   19.9320 H   0  0  0  0  0  0  0  0  0  0  0  0
  -30.9450  -20.2010   21.3150 C   0  0  0  0  0  3  0  0  0  0  0  0
  -31.4350  -17.7910   21.2080 C   0  0  0  0  0  3  0  0  0  0  0  0
  -29.4780  -18.7040   20.0850 C   0  0  0  0  0  3  0  0  0  0  0  0
  -31.7350  -19.0880   21.6750 C   0  0  0  0  0  0  0  0  0  0  0  0
  -29.8030  -20.0750   20.4860 C   0  0  0  0  0  0  0  0  0  0  0  0
  -30.2780  -17.5300   20.4430 C   0  0  0  0  0  0  0  0  0  0  0  0
  -32.8890  -19.2780   22.6400 C   0  0  0  0  0  1  0  0  0  0  0  0
  -30.7010  -14.9430   20.1360 C   0  0  0  0  0  0  0  0  0  0  0  0
  -30.4820  -12.6330   19.1870 C   0  0  0  0  0  2  0  0  0  0  0  0
  -29.5060  -12.6400   17.9900 C   0  0  0  0  0  2  0  0  0  0  0  0
  -28.0540  -12.4540   18.4810 C   0  0  0  0  0  2  0  0  0  0  0  0
  -27.6950  -13.3880   19.6640 C   0  0  0  0  0  3  0  0  0  0  0  0
  -28.7910  -13.3760   20.7530 C   0  0  0  0  0  2  0  0  0  0  0  0
  -30.0620  -13.7230   20.0980 N   0  0  0  0  0  0  0  0  0  0  0  0
  -31.9010  -15.0040   19.8640 O   0  0  0  0  0  0  0  0  0  0  0  0
  -29.9270  -16.1060   20.1610 N   0  0  0  0  0  0  0  0  0  0  0  0
  -28.9430  -15.9350   20.0220 H   0  0  0  0  0  0  0  0  0  0  0  0
  -25.3450  -13.9670   20.5200 C   0  0  0  0  0  0  0  0  0  0  0  0
  -24.2930  -13.1870   20.9150 C   0  0  0  0  0  0  0  0  0  0  0  0
  -24.7510  -11.8340   20.8290 C   0  0  0  0  0  0  0  0  0  0  0  0
  -26.3760  -13.0920   20.2140 N   0  0  0  0  0  0  0  0  0  0  0  0
  -26.0290  -11.8040   20.4700 N   0  0  0  0  0  0  0  0  0  0  0  0
  -24.0250  -10.5720   21.0150 C   0  0  0  0  0  0  0  0  0  0  0  0
  -24.4550   -9.6030   21.9510 C   0  0  0  0  0  3  0  0  0  0  0  0
  -23.7320   -8.4040   22.1230 C   0  0  0  0  0  3  0  0  0  0  0  0
  -22.5630   -8.1650   21.3620 C   0  0  0  0  0  0  0  0  0  0  0  0
  -22.1540   -9.1190   20.4140 C   0  0  0  0  0  3  0  0  0  0  0  0
  -22.8790  -10.3100   20.2390 C   0  0  0  0  0  3  0  0  0  0  0  0
  -21.8110   -7.0170   21.4450 O   0  0  0  0  0  0  0  0  0  0  0  0
  -21.7210   -6.2950   22.6090 C   0  0  0  0  0  0  0  0  0  0  0  0
  -21.2060   -6.8600   23.7960 C   0  0  0  0  0  3  0  0  0  0  0  0
  -21.0670   -6.0650   24.9510 C   0  0  0  0  0  3  0  0  0  0  0  0
  -21.4350   -4.7080   24.9190 C   0  0  0  0  0  0  0  0  0  0  0  0
  -21.9420   -4.1410   23.7370 C   0  0  0  0  0  3  0  0  0  0  0  0
  -22.0840   -4.9320   22.5840 C   0  0  0  0  0  0  0  0  0  0  0  0
  -22.5540   -4.3790   21.4410 F   0  0  0  0  0  0  0  0  0  0  0  0
  -21.2940   -3.9410   26.0260 F   0  0  0  0  0  0  0  0  0  0  0  0
  -22.9090  -13.6600   21.2500 C   0  0  0  0  0  0  0  0  0  0  0  0
  -22.2050  -12.9380   22.1160 N   0  0  0  0  0  0  0  0  0  0  0  0
  -22.4590  -14.7030   20.7750 O   0  0  0  0  0  0  0  0  0  0  0  0
  -22.5810  -12.0970   22.5250 H   0  0  0  0  0  0  0  0  0  0  0  0
  -21.2760  -13.2340   22.3750 H   0  0  0  0  0  0  0  0  0  0  0  0
  -25.5050  -15.3410   20.3660 N   0  0  0  0  0  0  0  0  0  0  0  0
  -24.7360  -15.9900   20.5050 H   0  0  0  0  0  0  0  0  0  0  0  0
  -26.3300  -15.7910   19.9890 H   0  0  0  0  0  0  0  0  0  0  0  0
  -28.1080  -23.7840   20.2340 C   0  0  0  0  0  2  0  0  0  0  0  0
  -28.2940  -25.2220   19.4910 C   0  0  0  0  0  2  0  0  0  0  0  0
  -28.1790  -26.5670   20.1540 O   0  0  0  0  0  0  0  0  0  0  0  0
  -24.5030  -31.9930   23.2290 C   0  0  0  0  0  0  0  0  0  0  0  0
  -27.0440  -27.4080   20.1020 C   0  0  0  0  0  0  0  0  0  0  0  0
  -23.2640  -30.6070   21.6020 C   0  0  0  0  0  3  0  0  0  0  0  0
  -24.6840  -29.0520   20.1400 C   0  0  0  0  0  0  0  0  0  0  0  0
  -25.8030  -30.9110   21.3720 C   0  0  0  0  0  2  0  0  0  0  0  0
  -25.8640  -29.5300   20.7210 C   0  0  0  0  0  0  0  0  0  0  0  0
  -27.0420  -28.7180   20.6930 C   0  0  0  0  0  3  0  0  0  0  0  0
  -25.8330  -26.9840   19.5130 C   0  0  0  0  0  3  0  0  0  0  0  0
  -24.6730  -27.7880   19.5240 C   0  0  0  0  0  3  0  0  0  0  0  0
  -23.4540  -29.9390   20.2110 C   0  0  0  0  0  2  0  0  0  0  0  0
  -24.5440  -31.1880   22.1260 N   0  0  0  0  0  0  0  0  0  0  0  0
  -23.4290  -32.2690   23.7850 O   0  0  0  0  0  0  0  0  0  0  0  0
  -22.6120  -29.5890   22.5680 C   0  0  0  0  0  0  0  0  0  0  0  0
  -21.2870  -29.4050   22.4550 N   0  0  0  0  0  0  0  0  0  0  0  0
  -23.3010  -28.9710   23.3840 O   0  0  0  0  0  0  0  0  0  0  0  0
  -20.7910  -29.9620   21.7740 H   0  0  0  0  0  0  0  0  0  0  0  0
  -17.9250  -28.1680   22.9730 C   0  0  0  0  0  0  0  0  0  0  0  0
  -20.4810  -28.4640   23.2350 C   0  0  0  0  0  3  0  0  0  0  0  0
  -20.6010  -27.0280   22.6760 C   0  0  0  0  0  2  0  0  0  0  0  0
  -19.5010  -26.6800   21.6670 C   0  0  0  0  0  2  0  0  0  0  0  0
  -18.1170  -26.8150   22.3090 C   0  0  0  0  0  2  0  0  0  0  0  0
  -19.0350  -28.9470   23.3950 C   0  0  0  0  0  0  0  0  0  0  0  0
  -18.7980  -30.2120   23.9780 C   0  0  0  0  0  3  0  0  0  0  0  0
  -17.4860  -30.6960   24.1430 C   0  0  0  0  0  3  0  0  0  0  0  0
  -16.3920  -29.9120   23.7330 C   0  0  0  0  0  3  0  0  0  0  0  0
  -16.6120  -28.6520   23.1540 C   0  0  0  0  0  3  0  0  0  0  0  0
  -25.8000  -32.6180   23.8320 C   0  0  0  0  0  3  0  0  0  0  0  0
  -26.3290  -31.8510   25.1050 C   0  0  1  0  0  0  0  0  0  0  0  0
  -25.2450  -31.6170   26.1830 C   0  0  0  0  0  1  0  0  0  0  0  0
  -26.9100  -30.4750   24.7090 C   0  0  0  0  0  1  0  0  0  0  0  0
  -27.4800  -32.6520   25.7590 C   0  0  0  0  0  1  0  0  0  0  0  0
  -25.5010  -34.0200   24.1600 N   0  0  0  0  0  0  0  0  0  0  0  0
  -25.8330  -35.0700   23.3960 C   0  0  0  0  0  0  0  0  0  0  0  0
  -26.4830  -34.9600   22.3530 O   0  0  0  0  0  0  0  0  0  0  0  0
  -24.9320  -34.1820   24.9760 H   0  0  0  0  0  0  0  0  0  0  0  0
  -24.1290  -36.8900   23.0480 C   0  0  0  0  0  1  0  0  0  0  0  0
  -25.3640  -36.4630   23.8590 C   0  0  0  0  0  3  0  0  0  0  0  0
  -27.5050  -37.3170   24.7000 C   0  0  0  0  0  1  0  0  0  0  0  0
  -26.4080  -37.5040   23.7540 N   0  0  0  0  0  0  0  0  0  0  0  0
  -26.0100  -38.4280   23.9050 H   0  0  0  0  0  0  0  0  0  0  0  0
  1  3  2  0
  2  1  1  0
  2  9  1  0
  4  2  1  0
  5  8  1  0
  6  8  2  0
  7 10  2  0
  7  9  1  0
  8 11  1  0
  9  5  2  0
 10  6  1  0
 12 20  1  0
 13 18  1  0
 14 15  1  0
 14 13  1  0
 16 15  1  0
 16 25  1  0
 16 17  1  0
 18 12  1  0
 18 17  1  0
 19 12  2  0
 20 10  1  0
 21 20  1  0
 22 23  2  0
 23 42  1  0
 24 23  1  0
 24 27  1  0
 25 26  1  0
 25 22  1  0
 26 24  2  0
 27 28  1  0
 28 29  2  0
 30 33  1  0
 30 29  1  0
 31 30  2  0
 32 31  1  0
 32 27  2  0
 33 34  1  0
 34 35  1  0
 35 36  2  0
 37 36  1  0
 37 41  1  0
 38 37  2  0
 39 34  2  0
 39 38  1  0
 40 39  1  0
 42 43  1  0
 43 46  1  0
 43 45  1  0
 44 42  2  0
 47 48  1  0
 47 22  1  0
 49 47  1  0
 50  1  1  0
 51 52  1  0
 51 50  1  0
 53 64  2  0
 54 52  1  0
 54 59  1  0
 55 63  1  0
 55 65  1  0
 56 62  1  0
 56 58  1  0
 57 63  1  0
 58 57  1  0
 59 58  2  0
 60 61  1  0
 60 54  2  0
 61 56  2  0
 62 55  1  0
 63 53  1  0
 65 67  2  0
 66 65  1  0
 68 66  1  0
 69 78  2  0
 69 74  1  0
 70 66  1  0
 70 74  1  0
 71 70  1  0
 72 73  1  0
 72 71  1  0
 73 69  1  0
 74 75  2  0
 75 76  1  0
 77 76  2  0
 78 77  1  0
 79 53  1  0
 79 84  1  0
 79 80  1  0
 80 83  1  1
 80 81  1  0
 82 80  1  0
 84 87  1  0
 85 89  1  0
 85 84  1  0
 86 85  2  0
 89 88  1  0
 91 89  1  0
 91 92  1  0
 91 90  1  0
M  ISO  4  12 100  20 100  51 101  52 101
M  END
>  <TORSDO>  (63) 
F 19

>  <SCORE>  (63) 
-13.943

>  <name>  (63) 
62

>  <ligand_id>  (63) 
62

>  <original_smiles>  (63) 
[H]c1c([H])c([H])c2c(c1[H])C([H])([H])C([H])([H])C([H])([H])C2([H])N([H])C(=O)C1([H])N(C(=O)C([H])(N([H])C(=O)C([H])(N([H])C([H])([H])[H])C([H])([H])[H])C(C([H])([H])[H])(C([H])([H])[H])C([H])([H])[H])C([H])([H])c2c([H])c(OC([H])([H])C([H])([H])C(=O)N([H])c3c([H])c(N([H])C(=O)N4C([H])([H])C([H])([H])C([H])([H])C([H])(n5nc(-c6c([H])c([H])c(Oc7c([H])c([H])c(F)c([H])c7F)c([H])c6[H])c(C(=O)N([H])[H])c5N([H])[H])C4([H])[H])c([H])c(C([H])([H])[H])c3[H])c([H])c([H])c2C1([H])[H]

>  <smiles>  (63) 
[H]c1c([H])c([H])c2c(c1[H])C([H])([H])C([H])([H])C([H])([H])C2([H])N([H])C(=O)C1([H])N(C(=O)C([H])(N([H])C(=O)C([H])(N([H])C([H])([H])[H])C([H])([H])[H])C(C([H])([H])[H])(C([H])([H])[H])C([H])([H])[H])C([H])([H])c2c([H])c(OC([H])([H])C([H])([H])C(=O)N([H])c3c([H])c(N([H])C(=O)N4C([H])([H])C([H])([H])C([H])([H])C([H])(n5nc(-c6c([H])c([H])c(Oc7c([H])c([H])c(F)c([H])c7F)c([H])c6[H])c(C(=O)N([H])[H])c5N([H])[H])C4([H])[H])c([H])c(C([H])([H])[H])c3[H])c([H])c([H])c2C1([H])[H]

$$$$
63:0:0
     RDKit          3D

 93101  0  0  1  0  0  0  0  0999 V2000
  -28.8080  -22.3440   20.7680 C   0  0  0  0  0  0  0  0  0  0  0  0
  -29.3810  -21.2230   20.1700 N   0  0  0  0  0  0  0  0  0  0  0  0
  -28.1860  -22.2250   21.8270 O   0  0  0  0  0  0  0  0  0  0  0  0
  -29.6530  -21.3720   19.2070 H   0  0  0  0  0  0  0  0  0  0  0  0
  -29.5570  -18.6080   20.1770 C   0  0  0  0  0  3  0  0  0  0  0  0
  -31.0720  -17.4850   21.7080 C   0  0  0  0  0  3  0  0  0  0  0  0
  -30.7720  -19.9300   21.8360 C   0  0  0  0  0  0  0  0  0  0  0  0
  -30.1400  -17.3600   20.6590 C   0  0  0  0  0  0  0  0  0  0  0  0
  -29.8490  -19.9230   20.7450 C   0  0  0  0  0  0  0  0  0  0  0  0
  -31.3750  -18.7300   22.2850 C   0  0  0  0  0  0  0  0  0  0  0  0
  -31.1890  -21.2130   22.5420 C   0  0  0  0  0  1  0  0  0  0  0  0
  -32.2690  -18.7580   23.3030 F   0  0  0  0  0  0  0  0  0  0  0  0
  -30.5580  -14.8450   20.1300 C   0  0  0  0  0  0  0  0  0  0  0  0
  -30.3210  -12.5980   19.0640 C   0  0  0  0  0  2  0  0  0  0  0  0
  -29.3260  -12.6480   17.8850 C   0  0  0  0  0  2  0  0  0  0  0  0
  -27.8750  -12.4780   18.3790 C   0  0  0  0  0  2  0  0  0  0  0  0
  -27.5410  -13.3560   19.6140 C   0  0  0  0  0  3  0  0  0  0  0  0
  -28.6480  -13.2620   20.6790 C   0  0  0  0  0  2  0  0  0  0  0  0
  -29.9110  -13.6360   20.0300 N   0  0  0  0  0  0  0  0  0  0  0  0
  -31.7590  -14.9280   19.8560 O   0  0  0  0  0  0  0  0  0  0  0  0
  -29.7830  -15.9920   20.2130 N   0  0  0  0  0  0  0  0  0  0  0  0
  -28.8030  -15.8400   20.0230 H   0  0  0  0  0  0  0  0  0  0  0  0
  -25.1790  -13.9210   20.4460 C   0  0  0  0  0  0  0  0  0  0  0  0
  -24.1340  -13.1310   20.8450 C   0  0  0  0  0  0  0  0  0  0  0  0
  -24.6130  -11.7880   20.7880 C   0  0  0  0  0  0  0  0  0  0  0  0
  -26.2210  -13.0520   20.1620 N   0  0  0  0  0  0  0  0  0  0  0  0
  -25.8910  -11.7650   20.4350 N   0  0  0  0  0  0  0  0  0  0  0  0
  -23.9080  -10.5140   20.9900 C   0  0  0  0  0  0  0  0  0  0  0  0
  -24.3630   -9.5580   21.9250 C   0  0  0  0  0  3  0  0  0  0  0  0
  -23.6580   -8.3500   22.1160 C   0  0  0  0  0  3  0  0  0  0  0  0
  -22.4820   -8.0890   21.3760 C   0  0  0  0  0  0  0  0  0  0  0  0
  -22.0440   -9.0340   20.4300 C   0  0  0  0  0  3  0  0  0  0  0  0
  -22.7500  -10.2340   20.2370 C   0  0  0  0  0  3  0  0  0  0  0  0
  -21.7450   -6.9340   21.4810 O   0  0  0  0  0  0  0  0  0  0  0  0
  -21.7090   -6.2050   22.6430 C   0  0  0  0  0  0  0  0  0  0  0  0
  -21.2580   -6.7640   23.8590 C   0  0  0  0  0  3  0  0  0  0  0  0
  -21.1730   -5.9580   25.0140 C   0  0  0  0  0  3  0  0  0  0  0  0
  -21.5240   -4.5970   24.9510 C   0  0  0  0  0  0  0  0  0  0  0  0
  -21.9640   -4.0390   23.7380 C   0  0  0  0  0  3  0  0  0  0  0  0
  -22.0520   -4.8390   22.5880 C   0  0  0  0  0  0  0  0  0  0  0  0
  -22.4580   -4.2930   21.4160 F   0  0  0  0  0  0  0  0  0  0  0  0
  -21.4320   -3.8200   26.0560 F   0  0  0  0  0  0  0  0  0  0  0  0
  -22.7410  -13.5890   21.1600 C   0  0  0  0  0  0  0  0  0  0  0  0
  -22.0400  -12.8750   22.0360 N   0  0  0  0  0  0  0  0  0  0  0  0
  -22.2800  -14.6150   20.6620 O   0  0  0  0  0  0  0  0  0  0  0  0
  -22.4240  -12.0490   22.4690 H   0  0  0  0  0  0  0  0  0  0  0  0
  -21.1030  -13.1630   22.2770 H   0  0  0  0  0  0  0  0  0  0  0  0
  -25.3250  -15.2940   20.2790 N   0  0  0  0  0  0  0  0  0  0  0  0
  -24.5650  -15.9460   20.4490 H   0  0  0  0  0  0  0  0  0  0  0  0
  -26.1680  -15.7480   19.9550 H   0  0  0  0  0  0  0  0  0  0  0  0
  -28.8980  -23.8120   20.1210 C   0  0  0  0  0  3  0  0  0  0  0  0
  -28.0070  -25.0510   20.6840 C   0  0  0  0  0  3  0  0  0  0  0  0
  -28.2390  -26.4750   20.2350 O   0  0  0  0  0  0  0  0  0  0  0  0
  -24.5780  -31.9750   23.2250 C   0  0  0  0  0  0  0  0  0  0  0  0
  -27.1470  -27.3700   20.1880 C   0  0  0  0  0  0  0  0  0  0  0  0
  -23.3610  -30.5760   21.5920 C   0  0  0  0  0  3  0  0  0  0  0  0
  -24.8030  -29.0220   20.1520 C   0  0  0  0  0  0  0  0  0  0  0  0
  -25.9000  -30.8860   21.3930 C   0  0  0  0  0  2  0  0  0  0  0  0
  -25.9750  -29.5000   20.7510 C   0  0  0  0  0  0  0  0  0  0  0  0
  -27.1510  -28.6850   20.7590 C   0  0  0  0  0  3  0  0  0  0  0  0
  -25.9630  -26.9630   19.5360 C   0  0  0  0  0  3  0  0  0  0  0  0
  -24.8040  -27.7680   19.5210 C   0  0  0  0  0  3  0  0  0  0  0  0
  -23.5690  -29.9010   20.2080 C   0  0  0  0  0  2  0  0  0  0  0  0
  -24.6320  -31.1640   22.1260 N   0  0  0  0  0  0  0  0  0  0  0  0
  -23.4990  -32.2500   23.7700 O   0  0  0  0  0  0  0  0  0  0  0  0
  -22.7050  -29.5610   22.5590 C   0  0  0  0  0  0  0  0  0  0  0  0
  -21.3780  -29.3780   22.4440 N   0  0  0  0  0  0  0  0  0  0  0  0
  -23.3910  -28.9380   23.3750 O   0  0  0  0  0  0  0  0  0  0  0  0
  -20.8820  -29.9330   21.7590 H   0  0  0  0  0  0  0  0  0  0  0  0
  -18.0080  -28.1650   22.9640 C   0  0  0  0  0  0  0  0  0  0  0  0
  -20.5680  -28.4380   23.2220 C   0  0  0  0  0  3  0  0  0  0  0  0
  -20.6740  -27.0050   22.6530 C   0  0  0  0  0  2  0  0  0  0  0  0
  -19.5700  -26.6730   21.6440 C   0  0  0  0  0  2  0  0  0  0  0  0
  -18.1900  -26.8150   22.2920 C   0  0  0  0  0  2  0  0  0  0  0  0
  -19.1250  -28.9340   23.3860 C   0  0  0  0  0  0  0  0  0  0  0  0
  -18.9000  -30.1980   23.9740 C   0  0  0  0  0  3  0  0  0  0  0  0
  -17.5930  -30.6930   24.1410 C   0  0  0  0  0  3  0  0  0  0  0  0
  -16.4920  -29.9190   23.7350 C   0  0  0  0  0  3  0  0  0  0  0  0
  -16.7000  -28.6580   23.1500 C   0  0  0  0  0  3  0  0  0  0  0  0
  -25.8660  -32.6120   23.8370 C   0  0  0  0  0  3  0  0  0  0  0  0
  -26.3820  -31.8530   25.1200 C   0  0  1  0  0  0  0  0  0  0  0  0
  -25.2890  -31.6310   26.1910 C   0  0  0  0  0  1  0  0  0  0  0  0
  -26.9590  -30.4700   24.7370 C   0  0  0  0  0  1  0  0  0  0  0  0
  -27.5340  -32.6510   25.7710 C   0  0  0  0  0  1  0  0  0  0  0  0
  -25.5610  -34.0140   24.1590 N   0  0  0  0  0  0  0  0  0  0  0  0
  -25.8950  -35.0610   23.3950 C   0  0  0  0  0  0  0  0  0  0  0  0
  -26.5640  -34.9480   22.3640 O   0  0  0  0  0  0  0  0  0  0  0  0
  -24.9720  -34.1720   24.9640 H   0  0  0  0  0  0  0  0  0  0  0  0
  -24.1820  -36.8630   23.0290 C   0  0  0  0  0  1  0  0  0  0  0  0
  -25.4170  -36.4530   23.8490 C   0  0  0  0  0  3  0  0  0  0  0  0
  -27.5520  -37.3230   24.6880 C   0  0  0  0  0  1  0  0  0  0  0  0
  -26.4560  -37.5000   23.7410 N   0  0  0  0  0  0  0  0  0  0  0  0
  -26.0540  -38.4230   23.8910 H   0  0  0  0  0  0  0  0  0  0  0  0
  1  3  2  0
  2  9  1  0
  2  1  1  0
  4  2  1  0
  5  8  2  0
  5  9  1  0
  6 10  2  0
  7 10  1  0
  7 11  1  0
  8  6  1  0
  9  7  2  0
 10 12  1  0
 13 21  1  0
 14 19  1  0
 15 16  1  0
 15 14  1  0
 17 16  1  0
 17 26  1  0
 17 18  1  0
 19 13  1  0
 19 18  1  0
 20 13  2  0
 21  8  1  0
 22 21  1  0
 23 24  2  0
 24 43  1  0
 25 24  1  0
 25 28  1  0
 26 27  1  0
 26 23  1  0
 27 25  2  0
 28 29  1  0
 29 30  2  0
 31 34  1  0
 31 30  1  0
 32 31  2  0
 33 32  1  0
 33 28  2  0
 34 35  1  0
 35 36  1  0
 36 37  2  0
 38 37  1  0
 38 42  1  0
 39 38  2  0
 40 35  2  0
 40 39  1  0
 41 40  1  0
 43 44  1  0
 44 47  1  0
 44 46  1  0
 45 43  2  0
 48 23  1  0
 48 49  1  0
 50 48  1  0
 51 52  2  0
 51  1  1  0
 53 52  1  0
 54 65  2  0
 55 53  1  0
 55 60  1  0
 56 64  1  0
 56 66  1  0
 57 63  1  0
 57 59  1  0
 58 64  1  0
 59 60  2  0
 59 58  1  0
 61 55  2  0
 62 61  1  0
 62 57  2  0
 63 56  1  0
 64 54  1  0
 66 68  2  0
 67 66  1  0
 69 67  1  0
 70 79  2  0
 70 75  1  0
 71 67  1  0
 71 75  1  0
 72 71  1  0
 73 74  1  0
 73 72  1  0
 74 70  1  0
 75 76  2  0
 76 77  1  0
 78 77  2  0
 79 78  1  0
 80 54  1  0
 80 85  1  0
 80 81  1  0
 81 84  1  1
 81 82  1  0
 83 81  1  0
 85 88  1  0
 86 90  1  0
 86 85  1  0
 87 86  2  0
 90 89  1  0
 92 90  1  0
 92 93  1  0
 92 91  1  0
M  ISO  4  13 100  21 100  52 101  53 101
M  END
>  <TORSDO>  (64) 
F 19

>  <SCORE>  (64) 
-14.140

>  <name>  (64) 
63

>  <ligand_id>  (64) 
63

>  <original_smiles>  (64) 
[H]c1c([H])c([H])c2c(c1[H])C([H])([H])C([H])([H])C([H])([H])C2([H])N([H])C(=O)C1([H])N(C(=O)C([H])(N([H])C(=O)C([H])(N([H])C([H])([H])[H])C([H])([H])[H])C(C([H])([H])[H])(C([H])([H])[H])C([H])([H])[H])C([H])([H])c2c([H])c(OC([H])([H])C([H])([H])C(=O)N([H])c3c([H])c(N([H])C(=O)N4C([H])([H])C([H])([H])C([H])([H])C([H])(n5nc(-c6c([H])c([H])c(Oc7c([H])c([H])c(F)c([H])c7F)c([H])c6[H])c(C(=O)N([H])[H])c5N([H])[H])C4([H])[H])c([H])c(F)c3C([H])([H])[H])c([H])c([H])c2C1([H])[H]

>  <smiles>  (64) 
[H]c1c([H])c([H])c2c(c1[H])C([H])([H])C([H])([H])C([H])([H])C2([H])N([H])C(=O)C1([H])N(C(=O)C([H])(N([H])C(=O)C([H])(N([H])C([H])([H])[H])C([H])([H])[H])C(C([H])([H])[H])(C([H])([H])[H])C([H])([H])[H])C([H])([H])c2c([H])c(OC([H])([H])C([H])([H])C(=O)N([H])c3c([H])c(N([H])C(=O)N4C([H])([H])C([H])([H])C([H])([H])C([H])(n5nc(-c6c([H])c([H])c(Oc7c([H])c([H])c(F)c([H])c7F)c([H])c6[H])c(C(=O)N([H])[H])c5N([H])[H])C4([H])[H])c([H])c(F)c3C([H])([H])[H])c([H])c([H])c2C1([H])[H]

$$$$
64:0:0
     RDKit          3D

 96105  0  0  1  0  0  0  0  0999 V2000
  -28.5420  -17.8810   16.3140 C   0  0  0  0  0  3  0  0  0  0  0  0
  -28.7890  -16.7040   17.0360 C   0  0  0  0  0  3  0  0  0  0  0  0
  -28.6870  -19.1210   16.9540 C   0  0  0  0  0  3  0  0  0  0  0  0
  -29.1930  -16.7800   18.3810 C   0  0  0  0  0  3  0  0  0  0  0  0
  -29.1380  -20.4680   18.8900 C   0  0  0  0  0  3  0  0  0  0  0  0
  -29.7960  -19.4450   20.9930 C   0  0  0  0  0  3  0  0  0  0  0  0
  -29.0770  -19.1920   18.3100 C   0  0  0  0  0  0  0  0  0  0  0  0
  -29.3660  -18.0120   19.0560 C   0  0  0  0  0  0  0  0  0  0  0  0
  -29.4690  -20.6680   20.2430 C   0  0  0  0  0  0  0  0  0  0  0  0
  -29.7660  -18.0830   20.4310 C   0  0  0  0  0  0  0  0  0  0  0  0
  -30.8110  -15.7210   21.1180 C   0  0  0  0  0  0  0  0  0  0  0  0
  -30.9530  -13.3370   20.3270 C   0  0  0  0  0  2  0  0  0  0  0  0
  -30.2230  -13.1730   18.9720 C   0  0  0  0  0  2  0  0  0  0  0  0
  -28.7010  -12.9940   19.1670 C   0  0  0  0  0  2  0  0  0  0  0  0
  -28.0880  -13.9210   20.2530 C   0  0  0  0  0  3  0  0  0  0  0  0
  -28.9690  -13.9990   21.5200 C   0  0  0  0  0  2  0  0  0  0  0  0
  -30.3070  -14.4310   21.0980 N   0  0  0  0  0  0  0  0  0  0  0  0
  -32.0150  -15.8930   20.9100 O   0  0  0  0  0  0  0  0  0  0  0  0
  -29.9250  -16.8030   21.2230 N   0  0  0  0  0  0  0  0  0  0  0  0
  -29.0620  -16.5180   21.6620 H   0  0  0  0  0  0  0  0  0  0  0  0
  -25.5920  -14.3770   20.6220 C   0  0  0  0  0  0  0  0  0  0  0  0
  -24.5340  -13.5480   20.8710 C   0  0  0  0  0  0  0  0  0  0  0  0
  -25.0770  -12.2290   20.9590 C   0  0  0  0  0  0  0  0  0  0  0  0
  -26.7090  -13.5590   20.5660 N   0  0  0  0  0  0  0  0  0  0  0  0
  -26.3980  -12.2650   20.8330 N   0  0  0  0  0  0  0  0  0  0  0  0
  -24.4090  -10.9280   21.0970 C   0  0  0  0  0  0  0  0  0  0  0  0
  -24.7390  -10.0330   22.1390 C   0  0  0  0  0  3  0  0  0  0  0  0
  -24.0670   -8.7980   22.2600 C   0  0  0  0  0  3  0  0  0  0  0  0
  -23.0520   -8.4490   21.3400 C   0  0  0  0  0  0  0  0  0  0  0  0
  -22.7430   -9.3330   20.2890 C   0  0  0  0  0  3  0  0  0  0  0  0
  -23.4170  -10.5590   20.1660 C   0  0  0  0  0  3  0  0  0  0  0  0
  -22.3640   -7.2590   21.3650 O   0  0  0  0  0  0  0  0  0  0  0  0
  -22.1310   -6.5870   22.5390 C   0  0  0  0  0  0  0  0  0  0  0  0
  -21.4290   -7.1810   23.6090 C   0  0  0  0  0  3  0  0  0  0  0  0
  -21.1510   -6.4320   24.7710 C   0  0  0  0  0  3  0  0  0  0  0  0
  -21.5660   -5.0890   24.8590 C   0  0  0  0  0  0  0  0  0  0  0  0
  -22.2610   -4.4950   23.7910 C   0  0  0  0  0  3  0  0  0  0  0  0
  -22.5400   -5.2420   22.6320 C   0  0  0  0  0  0  0  0  0  0  0  0
  -23.1920   -4.6570   21.5980 F   0  0  0  0  0  0  0  0  0  0  0  0
  -21.2930   -4.3660   25.9700 F   0  0  0  0  0  0  0  0  0  0  0  0
  -23.0860  -13.9410   20.9260 C   0  0  0  0  0  0  0  0  0  0  0  0
  -22.2860  -13.2290   21.7110 N   0  0  0  0  0  0  0  0  0  0  0  0
  -22.6670  -14.9180   20.3070 O   0  0  0  0  0  0  0  0  0  0  0  0
  -22.6340  -12.4410   22.2360 H   0  0  0  0  0  0  0  0  0  0  0  0
  -21.3100  -13.4790   21.7900 H   0  0  0  0  0  0  0  0  0  0  0  0
  -25.6960  -15.7500   20.4170 N   0  0  0  0  0  0  0  0  0  0  0  0
  -24.8810  -16.3520   20.3950 H   0  0  0  0  0  0  0  0  0  0  0  0
  -26.5490  -16.2310   20.1650 H   0  0  0  0  0  0  0  0  0  0  0  0
  -28.6620  -23.1560   20.3540 C   0  0  0  0  0  0  0  0  0  0  0  0
  -29.5290  -22.1040   20.6810 N   0  0  0  0  0  0  0  0  0  0  0  0
  -27.5030  -22.8760   20.0400 O   0  0  0  0  0  0  0  0  0  0  0  0
  -30.3820  -22.3820   21.1490 H   0  0  0  0  0  0  0  0  0  0  0  0
  -28.2290  -25.6800   20.3350 C   0  0  0  0  0  3  0  0  0  0  0  0
  -29.1310  -24.6100   20.3820 C   0  0  0  0  0  0  0  0  0  0  0  0
  -30.6280  -24.8620   20.4020 C   0  0  0  0  0  1  0  0  0  0  0  0
  -28.4610  -27.1030   20.2390 O   0  0  0  0  0  0  0  0  0  0  0  0
  -24.8630  -32.3190   23.8710 C   0  0  0  0  0  0  0  0  0  0  0  0
  -27.3860  -28.0370   20.2950 C   0  0  0  0  0  0  0  0  0  0  0  0
  -23.6290  -31.1120   22.1090 C   0  0  0  0  0  3  0  0  0  0  0  0
  -25.0490  -29.7200   20.4920 C   0  0  0  0  0  0  0  0  0  0  0  0
  -26.1730  -31.4140   21.9280 C   0  0  0  0  0  2  0  0  0  0  0  0
  -26.2320  -30.1070   21.1330 C   0  0  0  0  0  0  0  0  0  0  0  0
  -27.4000  -29.2760   21.0320 C   0  0  0  0  0  3  0  0  0  0  0  0
  -26.1870  -27.7540   19.6010 C   0  0  0  0  0  3  0  0  0  0  0  0
  -25.0330  -28.5540   19.7140 C   0  0  0  0  0  3  0  0  0  0  0  0
  -23.8200  -30.5960   20.6590 C   0  0  0  0  0  2  0  0  0  0  0  0
  -24.9080  -31.6290   22.6920 N   0  0  0  0  0  0  0  0  0  0  0  0
  -23.7890  -32.5450   24.4470 O   0  0  0  0  0  0  0  0  0  0  0  0
  -22.9730  -30.0000   22.9630 C   0  0  0  0  0  0  0  0  0  0  0  0
  -21.6710  -29.7500   22.7420 N   0  0  0  0  0  0  0  0  0  0  0  0
  -23.6380  -29.3680   23.7880 O   0  0  0  0  0  0  0  0  0  0  0  0
  -21.1900  -30.3160   22.0570 H   0  0  0  0  0  0  0  0  0  0  0  0
  -18.3890  -28.2260   22.8600 C   0  0  0  0  0  0  0  0  0  0  0  0
  -20.8690  -28.7190   23.4040 C   0  0  0  0  0  3  0  0  0  0  0  0
  -21.1680  -27.3200   22.8160 C   0  0  0  0  0  2  0  0  0  0  0  0
  -20.2140  -26.9250   21.6840 C   0  0  0  0  0  2  0  0  0  0  0  0
  -18.7650  -26.9210   22.1810 C   0  0  0  0  0  2  0  0  0  0  0  0
  -19.3780  -29.0780   23.4200 C   0  0  0  0  0  0  0  0  0  0  0  0
  -18.9760  -30.2970   24.0100 C   0  0  0  0  0  3  0  0  0  0  0  0
  -17.6180  -30.6650   24.0460 C   0  0  0  0  0  3  0  0  0  0  0  0
  -16.6430  -29.8100   23.5020 C   0  0  0  0  0  3  0  0  0  0  0  0
  -17.0290  -28.5930   22.9140 C   0  0  0  0  0  3  0  0  0  0  0  0
  -26.1580  -32.8760   24.5380 C   0  0  0  0  0  3  0  0  0  0  0  0
  -26.6620  -31.9960   25.7480 C   0  0  1  0  0  0  0  0  0  0  0  0
  -25.5650  -31.6910   26.7940 C   0  0  0  0  0  1  0  0  0  0  0  0
  -27.2230  -30.6440   25.2490 C   0  0  0  0  0  1  0  0  0  0  0  0
  -27.8270  -32.7150   26.4700 C   0  0  0  0  0  1  0  0  0  0  0  0
  -25.8740  -34.2470   24.9830 N   0  0  0  0  0  0  0  0  0  0  0  0
  -26.2490  -35.3550   24.3290 C   0  0  0  0  0  0  0  0  0  0  0  0
  -26.9390  -35.3260   23.3060 O   0  0  0  0  0  0  0  0  0  0  0  0
  -25.2620  -34.3460   25.7790 H   0  0  0  0  0  0  0  0  0  0  0  0
  -24.5760  -37.2210   24.1030 C   0  0  0  0  0  1  0  0  0  0  0  0
  -25.7870  -36.7100   24.9000 C   0  0  0  0  0  3  0  0  0  0  0  0
  -27.9230  -37.4550   25.8540 C   0  0  0  0  0  1  0  0  0  0  0  0
  -26.8490  -37.7390   24.9070 N   0  0  0  0  0  0  0  0  0  0  0  0
  -26.4620  -38.6530   25.1300 H   0  0  0  0  0  0  0  0  0  0  0  0
  1  3  2  0
  1  2  1  0
  2  4  2  0
  3  7  1  0
  4  8  1  0
  5  9  1  0
  7  5  2  0
  7  8  1  0
  8 10  2  0
  9 50  1  0
  9  6  2  0
 10  6  1  0
 10 19  1  0
 11 19  1  0
 12 17  1  0
 13 14  1  0
 13 12  1  0
 15 14  1  0
 15 24  1  0
 15 16  1  0
 17 11  1  0
 17 16  1  0
 18 11  2  0
 19 20  1  0
 21 22  2  0
 22 41  1  0
 22 23  1  0
 23 26  1  0
 24 21  1  0
 24 25  1  0
 25 23  2  0
 26 27  1  0
 27 28  2  0
 29 32  1  0
 29 28  1  0
 30 29  2  0
 31 30  1  0
 31 26  2  0
 32 33  1  0
 33 38  2  0
 33 34  1  0
 34 35  2  0
 35 36  1  0
 36 40  1  0
 37 36  2  0
 38 37  1  0
 39 38  1  0
 41 42  1  0
 42 45  1  0
 42 44  1  0
 43 41  2  0
 46 21  1  0
 47 46  1  0
 48 46  1  0
 49 54  1  0
 49 50  1  0
 50 52  1  0
 51 49  2  0
 53 54  2  0
 54 55  1  0
 56 58  1  0
 56 53  1  0
 57 68  2  0
 58 63  1  0
 59 67  1  0
 59 69  1  0
 60 66  1  0
 60 62  1  0
 61 67  1  0
 62 61  1  0
 63 62  2  0
 64 65  1  0
 64 58  2  0
 65 60  2  0
 66 59  1  0
 67 57  1  0
 69 71  2  0
 70 69  1  0
 72 70  1  0
 73 82  2  0
 73 78  1  0
 74 70  1  0
 74 78  1  0
 75 74  1  0
 76 77  1  0
 76 75  1  0
 77 73  1  0
 78 79  2  0
 79 80  1  0
 81 80  2  0
 82 81  1  0
 83 57  1  0
 83 88  1  0
 83 84  1  0
 84 87  1  1
 84 85  1  0
 86 84  1  0
 88 91  1  0
 89 93  1  0
 89 88  1  0
 90 89  2  0
 93 92  1  0
 93 95  1  0
 95 96  1  0
 95 94  1  0
M  ISO  4  11 100  19 100  53 101  56 101
M  END
>  <TORSDO>  (65) 
F 18

>  <SCORE>  (65) 
-8.606

>  <name>  (65) 
64

>  <ligand_id>  (65) 
64

>  <original_smiles>  (65) 
[H]C(Oc1c([H])c([H])c2c(c1[H])C([H])([H])N(C(=O)C([H])(N([H])C(=O)C([H])(N([H])C([H])([H])[H])C([H])([H])[H])C(C([H])([H])[H])(C([H])([H])[H])C([H])([H])[H])C([H])(C(=O)N([H])C1([H])c3c([H])c([H])c([H])c([H])c3C([H])([H])C([H])([H])C1([H])[H])C2([H])[H])=C(C(=O)N([H])c1c([H])c(N([H])C(=O)N2C([H])([H])C([H])([H])C([H])([H])C([H])(n3nc(-c4c([H])c([H])c(Oc5c([H])c([H])c(F)c([H])c5F)c([H])c4[H])c(C(=O)N([H])[H])c3N([H])[H])C2([H])[H])c2c([H])c([H])c([H])c([H])c2c1[H])C([H])([H])[H]

>  <smiles>  (65) 
[H]C(Oc1c([H])c([H])c2c(c1[H])C([H])([H])N(C(=O)C([H])(N([H])C(=O)C([H])(N([H])C([H])([H])[H])C([H])([H])[H])C(C([H])([H])[H])(C([H])([H])[H])C([H])([H])[H])C([H])(C(=O)N([H])C1([H])c3c([H])c([H])c([H])c([H])c3C([H])([H])C([H])([H])C1([H])[H])C2([H])[H])=C(C(=O)N([H])c1c([H])c(N([H])C(=O)N2C([H])([H])C([H])([H])C([H])([H])C([H])(n3nc(-c4c([H])c([H])c(Oc5c([H])c([H])c(F)c([H])c5F)c([H])c4[H])c(C(=O)N([H])[H])c3N([H])[H])C2([H])[H])c2c([H])c([H])c([H])c([H])c2c1[H])C([H])([H])[H]

$$$$
65:0:0
     RDKit          3D

 92100  0  0  1  0  0  0  0  0999 V2000
  -28.7530  -22.2290   19.8590 C   0  0  0  0  0  0  0  0  0  0  0  0
  -29.3620  -21.1110   20.4180 N   0  0  0  0  0  0  0  0  0  0  0  0
  -27.9370  -22.0890   18.9460 O   0  0  0  0  0  0  0  0  0  0  0  0
  -29.8020  -21.2700   21.3140 H   0  0  0  0  0  0  0  0  0  0  0  0
  -30.2500  -17.2170   18.6310 C   0  0  0  0  0  3  0  0  0  0  0  0
  -30.2700  -18.4130   17.8890 C   0  0  0  0  0  3  0  0  0  0  0  0
  -29.5780  -18.5010   20.5900 C   0  0  0  0  0  3  0  0  0  0  0  0
  -29.9220  -17.2050   20.0050 C   0  0  0  0  0  0  0  0  0  0  0  0
  -29.5890  -19.7560   19.8400 C   0  0  0  0  0  0  0  0  0  0  0  0
  -29.9690  -19.6550   18.4760 C   0  0  0  0  0  0  0  0  0  0  0  0
  -30.1180  -20.7620   17.7090 F   0  0  0  0  0  0  0  0  0  0  0  0
  -30.6180  -14.7470   20.4040 C   0  0  0  0  0  0  0  0  0  0  0  0
  -30.4140  -12.4680   19.4180 C   0  0  0  0  0  2  0  0  0  0  0  0
  -29.5150  -12.5900   18.1660 C   0  0  0  0  0  2  0  0  0  0  0  0
  -28.0290  -12.4350   18.5530 C   0  0  0  0  0  2  0  0  0  0  0  0
  -27.6390  -13.3080   19.7760 C   0  0  0  0  0  3  0  0  0  0  0  0
  -28.6700  -13.1930   20.9210 C   0  0  0  0  0  2  0  0  0  0  0  0
  -29.9900  -13.5220   20.3700 N   0  0  0  0  0  0  0  0  0  0  0  0
  -31.7960  -14.8400   20.0470 O   0  0  0  0  0  0  0  0  0  0  0  0
  -29.8720  -15.8830   20.6800 N   0  0  0  0  0  0  0  0  0  0  0  0
  -29.0380  -15.7120   21.2250 H   0  0  0  0  0  0  0  0  0  0  0  0
  -25.2310  -13.9070   20.4340 C   0  0  0  0  0  0  0  0  0  0  0  0
  -24.1570  -13.1360   20.7930 C   0  0  0  0  0  0  0  0  0  0  0  0
  -24.6240  -11.7870   20.7990 C   0  0  0  0  0  0  0  0  0  0  0  0
  -26.2810  -13.0250   20.2360 N   0  0  0  0  0  0  0  0  0  0  0  0
  -25.9210  -11.7460   20.5180 N   0  0  0  0  0  0  0  0  0  0  0  0
  -23.8930  -10.5270   20.9980 C   0  0  0  0  0  0  0  0  0  0  0  0
  -24.3120   -9.5720   21.9490 C   0  0  0  0  0  3  0  0  0  0  0  0
  -23.5820   -8.3780   22.1360 C   0  0  0  0  0  3  0  0  0  0  0  0
  -22.4170   -8.1320   21.3700 C   0  0  0  0  0  0  0  0  0  0  0  0
  -22.0170   -9.0760   20.4090 C   0  0  0  0  0  3  0  0  0  0  0  0
  -22.7490  -10.2610   20.2210 C   0  0  0  0  0  3  0  0  0  0  0  0
  -21.6580   -6.9890   21.4640 O   0  0  0  0  0  0  0  0  0  0  0  0
  -21.6030   -6.2550   22.6240 C   0  0  0  0  0  0  0  0  0  0  0  0
  -21.1780   -6.8220   23.8430 C   0  0  0  0  0  3  0  0  0  0  0  0
  -21.0680   -6.0150   24.9950 C   0  0  0  0  0  3  0  0  0  0  0  0
  -21.3750   -4.6430   24.9240 C   0  0  0  0  0  0  0  0  0  0  0  0
  -21.7940   -4.0750   23.7080 C   0  0  0  0  0  3  0  0  0  0  0  0
  -21.9060   -4.8800   22.5600 C   0  0  0  0  0  0  0  0  0  0  0  0
  -22.2890   -4.3230   21.3870 F   0  0  0  0  0  0  0  0  0  0  0  0
  -21.2630   -3.8670   26.0280 F   0  0  0  0  0  0  0  0  0  0  0  0
  -22.7540  -13.6180   21.0210 C   0  0  0  0  0  0  0  0  0  0  0  0
  -22.0060  -12.9380   21.8840 N   0  0  0  0  0  0  0  0  0  0  0  0
  -22.3270  -14.6310   20.4700 O   0  0  0  0  0  0  0  0  0  0  0  0
  -22.3630  -12.1180   22.3500 H   0  0  0  0  0  0  0  0  0  0  0  0
  -21.0620  -13.2420   22.0800 H   0  0  0  0  0  0  0  0  0  0  0  0
  -25.4010  -15.2740   20.2400 N   0  0  0  0  0  0  0  0  0  0  0  0
  -24.6340  -15.9320   20.3390 H   0  0  0  0  0  0  0  0  0  0  0  0
  -26.2610  -15.7110   19.9360 H   0  0  0  0  0  0  0  0  0  0  0  0
  -29.0180  -23.7260   20.3770 C   0  0  0  0  0  3  0  0  0  0  0  0
  -27.9830  -24.9080   19.9880 C   0  0  0  0  0  3  0  0  0  0  0  0
  -28.2580  -26.3760   20.2030 O   0  0  0  0  0  0  0  0  0  0  0  0
  -24.6160  -31.9070   23.2100 C   0  0  0  0  0  0  0  0  0  0  0  0
  -27.1700  -27.2820   20.1470 C   0  0  0  0  0  0  0  0  0  0  0  0
  -23.3960  -30.4990   21.5950 C   0  0  0  0  0  3  0  0  0  0  0  0
  -24.8250  -28.9410   20.1600 C   0  0  0  0  0  0  0  0  0  0  0  0
  -25.9410  -30.8040   21.3820 C   0  0  0  0  0  2  0  0  0  0  0  0
  -26.0090  -29.4180   20.7360 C   0  0  0  0  0  0  0  0  0  0  0  0
  -27.1880  -28.6030   20.7150 C   0  0  0  0  0  3  0  0  0  0  0  0
  -25.9560  -26.8770   19.5440 C   0  0  0  0  0  3  0  0  0  0  0  0
  -24.8040  -27.6790   19.5550 C   0  0  0  0  0  3  0  0  0  0  0  0
  -23.5940  -29.8230   20.2160 C   0  0  0  0  0  2  0  0  0  0  0  0
  -24.6710  -31.0890   22.1160 N   0  0  0  0  0  0  0  0  0  0  0  0
  -23.5380  -32.1860   23.7530 O   0  0  0  0  0  0  0  0  0  0  0  0
  -22.7420  -29.4880   22.5690 C   0  0  0  0  0  0  0  0  0  0  0  0
  -21.4170  -29.2990   22.4480 N   0  0  0  0  0  0  0  0  0  0  0  0
  -23.4280  -28.8770   23.3920 O   0  0  0  0  0  0  0  0  0  0  0  0
  -20.9260  -29.8440   21.7520 H   0  0  0  0  0  0  0  0  0  0  0  0
  -18.0480  -28.0710   22.9550 C   0  0  0  0  0  0  0  0  0  0  0  0
  -20.6020  -28.3640   23.2300 C   0  0  0  0  0  3  0  0  0  0  0  0
  -20.7230  -26.9250   22.6780 C   0  0  0  0  0  2  0  0  0  0  0  0
  -19.6270  -26.5720   21.6680 C   0  0  0  0  0  2  0  0  0  0  0  0
  -18.2410  -26.7120   22.3030 C   0  0  0  0  0  2  0  0  0  0  0  0
  -19.1550  -28.8540   23.3760 C   0  0  0  0  0  0  0  0  0  0  0  0
  -18.9170  -30.1220   23.9470 C   0  0  0  0  0  3  0  0  0  0  0  0
  -17.6060  -30.6100   24.0980 C   0  0  0  0  0  3  0  0  0  0  0  0
  -16.5120  -29.8250   23.6920 C   0  0  0  0  0  3  0  0  0  0  0  0
  -16.7350  -28.5560   23.1280 C   0  0  0  0  0  3  0  0  0  0  0  0
  -25.9010  -32.5470   23.8180 C   0  0  0  0  0  3  0  0  0  0  0  0
  -26.4360  -31.7760   25.0870 C   0  0  1  0  0  0  0  0  0  0  0  0
  -25.3530  -31.5330   26.1670 C   0  0  0  0  0  1  0  0  0  0  0  0
  -27.0150  -30.4020   24.6830 C   0  0  0  0  0  1  0  0  0  0  0  0
  -27.5930  -32.5750   25.7310 C   0  0  0  0  0  1  0  0  0  0  0  0
  -25.5870  -33.9430   24.1560 N   0  0  0  0  0  0  0  0  0  0  0  0
  -25.9100  -35.0010   23.4010 C   0  0  0  0  0  0  0  0  0  0  0  0
  -26.5730  -34.9050   22.3640 O   0  0  0  0  0  0  0  0  0  0  0  0
  -25.0030  -34.0910   24.9660 H   0  0  0  0  0  0  0  0  0  0  0  0
  -24.1780  -36.7910   23.0640 C   0  0  0  0  0  1  0  0  0  0  0  0
  -25.4230  -36.3860   23.8700 C   0  0  0  0  0  3  0  0  0  0  0  0
  -27.5600  -37.2640   24.6990 C   0  0  0  0  0  1  0  0  0  0  0  0
  -26.4550  -37.4400   23.7600 N   0  0  0  0  0  0  0  0  0  0  0  0
  -26.0500  -38.3590   23.9160 H   0  0  0  0  0  0  0  0  0  0  0  0
  1 50  1  0
  1  2  1  0
  2  4  1  0
  3  1  2  0
  5  8  1  0
  6 10  1  0
  6  5  2  0
  8  7  2  0
  8 20  1  0
  9  2  1  0
  9  7  1  0
 10  9  2  0
 11 10  1  0
 12 20  1  0
 13 18  1  0
 14 15  1  0
 14 13  1  0
 16 15  1  0
 16 25  1  0
 16 17  1  0
 18 12  1  0
 18 17  1  0
 19 12  2  0
 20 21  1  0
 22 23  2  0
 23 24  1  0
 23 42  1  0
 24 27  1  0
 25 22  1  0
 25 26  1  0
 26 24  2  0
 27 28  1  0
 28 29  2  0
 30 33  1  0
 30 29  1  0
 31 30  2  0
 32 31  1  0
 32 27  2  0
 33 34  1  0
 34 35  1  0
 35 36  2  0
 37 36  1  0
 37 41  1  0
 38 37  2  0
 39 34  2  0
 39 38  1  0
 40 39  1  0
 42 43  1  0
 43 46  1  0
 43 45  1  0
 44 42  2  0
 47 48  1  0
 47 22  1  0
 49 47  1  0
 51 52  1  0
 51 50  2  0
 53 64  2  0
 54 52  1  0
 54 59  1  0
 55 63  1  0
 55 65  1  0
 56 62  1  0
 56 58  1  0
 57 63  1  0
 58 57  1  0
 59 58  2  0
 60 61  1  0
 60 54  2  0
 61 56  2  0
 62 55  1  0
 63 53  1  0
 65 67  2  0
 66 65  1  0
 68 66  1  0
 69 78  2  0
 69 74  1  0
 70 66  1  0
 70 74  1  0
 71 70  1  0
 72 73  1  0
 72 71  1  0
 73 69  1  0
 74 75  2  0
 75 76  1  0
 77 76  2  0
 78 77  1  0
 79 53  1  0
 79 84  1  0
 79 80  1  0
 80 83  1  1
 80 81  1  0
 82 80  1  0
 84 87  1  0
 85 89  1  0
 85 84  1  0
 86 85  2  0
 89 88  1  0
 91 89  1  0
 91 92  1  0
 91 90  1  0
M  ISO  4  12 100  20 100  51 101  52 101
M  END
>  <TORSDO>  (66) 
F 19

>  <SCORE>  (66) 
-14.169

>  <name>  (66) 
65

>  <ligand_id>  (66) 
65

>  <original_smiles>  (66) 
[H]c1c([H])c([H])c2c(c1[H])C([H])([H])C([H])([H])C([H])([H])C2([H])N([H])C(=O)C1([H])N(C(=O)C([H])(N([H])C(=O)C([H])(N([H])C([H])([H])[H])C([H])([H])[H])C(C([H])([H])[H])(C([H])([H])[H])C([H])([H])[H])C([H])([H])c2c([H])c(OC([H])([H])C([H])([H])C(=O)N([H])c3c([H])c(N([H])C(=O)N4C([H])([H])C([H])([H])C([H])([H])C([H])(n5nc(-c6c([H])c([H])c(Oc7c([H])c([H])c(F)c([H])c7F)c([H])c6[H])c(C(=O)N([H])[H])c5N([H])[H])C4([H])[H])c([H])c([H])c3F)c([H])c([H])c2C1([H])[H]

>  <smiles>  (66) 
[H]c1c([H])c([H])c2c(c1[H])C([H])([H])C([H])([H])C([H])([H])C2([H])N([H])C(=O)C1([H])N(C(=O)C([H])(N([H])C(=O)C([H])(N([H])C([H])([H])[H])C([H])([H])[H])C(C([H])([H])[H])(C([H])([H])[H])C([H])([H])[H])C([H])([H])c2c([H])c(OC([H])([H])C([H])([H])C(=O)N([H])c3c([H])c(N([H])C(=O)N4C([H])([H])C([H])([H])C([H])([H])C([H])(n5nc(-c6c([H])c([H])c(Oc7c([H])c([H])c(F)c([H])c7F)c([H])c6[H])c(C(=O)N([H])[H])c5N([H])[H])C4([H])[H])c([H])c([H])c3F)c([H])c([H])c2C1([H])[H]

$$$$
66:0:0
     RDKit          3D

 94102  0  0  1  0  0  0  0  0999 V2000
  -29.8670  -21.9720   20.7160 C   0  0  0  0  0  0  0  0  0  0  0  0
  -29.6630  -20.6810   20.3520 N   0  0  0  0  0  0  0  0  0  0  0  0
  -30.9010  -22.3880   21.2430 O   0  0  0  0  0  0  0  0  0  0  0  0
  -28.7350  -20.4920   19.9980 H   0  0  0  0  0  0  0  0  0  0  0  0
  -31.9620  -19.6820   20.3580 C   0  0  0  0  0  3  0  0  0  0  0  0
  -32.2400  -17.2600   20.3560 C   0  0  0  0  0  3  0  0  0  0  0  0
  -30.0040  -18.2320   20.3740 C   0  0  0  0  0  3  0  0  0  0  0  0
  -32.8000  -18.5500   20.3530 C   0  0  0  0  0  0  0  0  0  0  0  0
  -30.5520  -19.5470   20.3760 C   0  0  0  0  0  0  0  0  0  0  0  0
  -30.8380  -17.0790   20.3400 C   0  0  0  0  0  0  0  0  0  0  0  0
  -30.9090  -14.6410   19.8610 C   0  0  0  0  0  0  0  0  0  0  0  0
  -30.5440  -12.3560   19.0060 C   0  0  0  0  0  2  0  0  0  0  0  0
  -29.5710  -12.3990   17.8110 C   0  0  0  0  0  2  0  0  0  0  0  0
  -28.1130  -12.3160   18.3020 C   0  0  0  0  0  2  0  0  0  0  0  0
  -27.8090  -13.3110   19.4550 C   0  0  0  0  0  3  0  0  0  0  0  0
  -28.9020  -13.2610   20.5480 C   0  0  0  0  0  2  0  0  0  0  0  0
  -30.2030  -13.4780   19.8960 N   0  0  0  0  0  0  0  0  0  0  0  0
  -32.0140  -14.7140   19.3190 O   0  0  0  0  0  0  0  0  0  0  0  0
  -30.2800  -15.7550   20.3050 N   0  0  0  0  0  0  0  0  0  0  0  0
  -29.3100  -15.6510   20.5580 H   0  0  0  0  0  0  0  0  0  0  0  0
  -25.4980  -14.0200   20.3330 C   0  0  0  0  0  0  0  0  0  0  0  0
  -24.4130  -13.2950   20.7440 C   0  0  0  0  0  0  0  0  0  0  0  0
  -24.7930  -11.9210   20.6410 C   0  0  0  0  0  0  0  0  0  0  0  0
  -26.4750  -13.0920   20.0100 N   0  0  0  0  0  0  0  0  0  0  0  0
  -26.0580  -11.8220   20.2520 N   0  0  0  0  0  0  0  0  0  0  0  0
  -24.0080  -10.6950   20.8360 C   0  0  0  0  0  0  0  0  0  0  0  0
  -24.3920   -9.7130   21.7750 C   0  0  0  0  0  3  0  0  0  0  0  0
  -23.6100   -8.5520   21.9570 C   0  0  0  0  0  3  0  0  0  0  0  0
  -22.4300   -8.3650   21.1990 C   0  0  0  0  0  0  0  0  0  0  0  0
  -22.0650   -9.3340   20.2490 C   0  0  0  0  0  3  0  0  0  0  0  0
  -22.8460  -10.4870   20.0650 C   0  0  0  0  0  3  0  0  0  0  0  0
  -21.6230   -7.2560   21.2890 O   0  0  0  0  0  0  0  0  0  0  0  0
  -21.4650   -6.5750   22.4700 C   0  0  0  0  0  0  0  0  0  0  0  0
  -20.9820   -7.2080   23.6360 C   0  0  0  0  0  3  0  0  0  0  0  0
  -20.7700   -6.4560   24.8090 C   0  0  0  0  0  3  0  0  0  0  0  0
  -21.0290   -5.0720   24.8150 C   0  0  0  0  0  0  0  0  0  0  0  0
  -21.5040   -4.4390   23.6530 C   0  0  0  0  0  3  0  0  0  0  0  0
  -21.7190   -5.1890   22.4820 C   0  0  0  0  0  0  0  0  0  0  0  0
  -22.1570   -4.5700   21.3600 F   0  0  0  0  0  0  0  0  0  0  0  0
  -20.8170   -4.3470   25.9380 F   0  0  0  0  0  0  0  0  0  0  0  0
  -23.0640  -13.8380   21.1190 C   0  0  0  0  0  0  0  0  0  0  0  0
  -22.3580  -13.1610   22.0170 N   0  0  0  0  0  0  0  0  0  0  0  0
  -22.6480  -14.8970   20.6500 O   0  0  0  0  0  0  0  0  0  0  0  0
  -22.7080  -12.3000   22.4150 H   0  0  0  0  0  0  0  0  0  0  0  0
  -21.4560  -13.5050   22.3120 H   0  0  0  0  0  0  0  0  0  0  0  0
  -25.7300  -15.3840   20.1870 N   0  0  0  0  0  0  0  0  0  0  0  0
  -25.0100  -16.0770   20.3630 H   0  0  0  0  0  0  0  0  0  0  0  0
  -26.5790  -15.7850   19.8080 H   0  0  0  0  0  0  0  0  0  0  0  0
  -34.8370  -19.2410   21.6800 C   0  0  0  0  0  1  0  0  0  0  0  0
  -34.3060  -18.7260   20.3380 C   0  0  0  0  0  2  0  0  0  0  0  0
  -28.7090  -22.9590   20.4710 C   0  0  0  0  0  2  0  0  0  0  0  0
  -29.0580  -24.4760   20.6090 C   0  0  0  0  0  2  0  0  0  0  0  0
  -27.8890  -25.3800   20.1590 C   0  0  0  0  0  2  0  0  0  0  0  0
  -28.1100  -26.8050   20.2830 O   0  0  0  0  0  0  0  0  0  0  0  0
  -24.5170  -32.1170   23.4180 C   0  0  0  0  0  0  0  0  0  0  0  0
  -26.9730  -27.6010   20.2620 C   0  0  0  0  0  0  0  0  0  0  0  0
  -23.2370  -30.7430   21.8110 C   0  0  0  0  0  3  0  0  0  0  0  0
  -24.6170  -29.1850   20.3390 C   0  0  0  0  0  0  0  0  0  0  0  0
  -25.7680  -31.0430   21.5460 C   0  0  0  0  0  2  0  0  0  0  0  0
  -25.8060  -29.6720   20.8970 C   0  0  0  0  0  0  0  0  0  0  0  0
  -26.9860  -28.8880   20.8550 C   0  0  0  0  0  3  0  0  0  0  0  0
  -25.7630  -27.1510   19.6760 C   0  0  0  0  0  3  0  0  0  0  0  0
  -24.5930  -27.9260   19.7240 C   0  0  0  0  0  3  0  0  0  0  0  0
  -23.3940  -30.0680   20.4240 C   0  0  0  0  0  2  0  0  0  0  0  0
  -24.5280  -31.3150   22.3150 N   0  0  0  0  0  0  0  0  0  0  0  0
  -23.4560  -32.4110   23.9850 O   0  0  0  0  0  0  0  0  0  0  0  0
  -22.5930  -29.7300   22.7860 C   0  0  0  0  0  0  0  0  0  0  0  0
  -21.2830  -29.4870   22.6170 N   0  0  0  0  0  0  0  0  0  0  0  0
  -23.2700  -29.1670   23.6510 O   0  0  0  0  0  0  0  0  0  0  0  0
  -20.7970  -29.9950   21.8910 H   0  0  0  0  0  0  0  0  0  0  0  0
  -17.9700  -28.0840   22.9600 C   0  0  0  0  0  0  0  0  0  0  0  0
  -20.4770  -28.5460   23.3940 C   0  0  0  0  0  3  0  0  0  0  0  0
  -20.7190  -27.0910   22.9330 C   0  0  0  0  0  2  0  0  0  0  0  0
  -19.7210  -26.6190   21.8700 C   0  0  0  0  0  2  0  0  0  0  0  0
  -18.2890  -26.7080   22.4010 C   0  0  0  0  0  2  0  0  0  0  0  0
  -18.9980  -28.9530   23.4110 C   0  0  0  0  0  0  0  0  0  0  0  0
  -18.6500  -30.2350   23.8880 C   0  0  0  0  0  3  0  0  0  0  0  0
  -17.3060  -30.6510   23.9220 C   0  0  0  0  0  3  0  0  0  0  0  0
  -16.2910  -29.7810   23.4900 C   0  0  0  0  0  3  0  0  0  0  0  0
  -16.6230  -28.4990   23.0140 C   0  0  0  0  0  3  0  0  0  0  0  0
  -25.8310  -32.7210   24.0010 C   0  0  0  0  0  3  0  0  0  0  0  0
  -25.5670  -34.1320   24.3150 N   0  0  0  0  0  0  0  0  0  0  0  0
  -25.9140  -35.1630   23.5330 C   0  0  0  0  0  0  0  0  0  0  0  0
  -26.5620  -35.0250   22.4910 O   0  0  0  0  0  0  0  0  0  0  0  0
  -24.9920  -34.3150   25.1230 H   0  0  0  0  0  0  0  0  0  0  0  0
  -24.2280  -36.9940   23.1790 C   0  0  0  0  0  1  0  0  0  0  0  0
  -25.4720  -36.5710   23.9760 C   0  0  0  0  0  3  0  0  0  0  0  0
  -27.6440  -37.4070   24.7560 C   0  0  0  0  0  1  0  0  0  0  0  0
  -26.5310  -37.5930   23.8280 N   0  0  0  0  0  0  0  0  0  0  0  0
  -26.1540  -38.5260   23.9700 H   0  0  0  0  0  0  0  0  0  0  0  0
  -26.3560  -31.9540   25.2760 C   0  0  1  0  0  0  0  0  0  0  0  0
  -25.2740  -31.7340   26.3590 C   0  0  0  0  0  1  0  0  0  0  0  0
  -26.9200  -30.5680   24.8860 C   0  0  0  0  0  1  0  0  0  0  0  0
  -27.5240  -32.7400   25.9170 C   0  0  0  0  0  1  0  0  0  0  0  0
  1  3  2  0
  2  9  1  0
  2  1  1  0
  4  2  1  0
  5  9  1  0
  7  9  2  0
  8  6  1  0
  8  5  2  0
 10  6  2  0
 10  7  1  0
 11 17  1  0
 11 19  1  0
 12 17  1  0
 13 14  1  0
 13 12  1  0
 15 14  1  0
 15 24  1  0
 15 16  1  0
 17 16  1  0
 18 11  2  0
 19 10  1  0
 19 20  1  0
 21 22  2  0
 22 41  1  0
 23 22  1  0
 23 26  1  0
 24 25  1  0
 24 21  1  0
 25 23  2  0
 26 27  1  0
 27 28  2  0
 29 32  1  0
 29 28  1  0
 30 29  2  0
 31 30  1  0
 31 26  2  0
 32 33  1  0
 33 38  2  0
 33 34  1  0
 34 35  2  0
 35 36  1  0
 36 40  1  0
 37 36  2  0
 38 37  1  0
 39 38  1  0
 41 42  1  0
 42 45  1  0
 42 44  1  0
 43 41  2  0
 46 21  1  0
 46 47  1  0
 48 46  1  0
 50  8  1  0
 50 49  1  0
 51 52  1  0
 51  1  1  0
 53 54  1  0
 53 52  1  0
 55 66  2  0
 56 54  1  0
 56 61  1  0
 57 65  1  0
 57 67  1  0
 58 64  1  0
 58 60  1  0
 59 65  1  0
 60 59  1  0
 61 60  2  0
 62 63  1  0
 62 56  2  0
 63 58  2  0
 64 57  1  0
 65 55  1  0
 67 69  2  0
 68 67  1  0
 70 68  1  0
 71 80  2  0
 71 76  1  0
 72 68  1  0
 72 76  1  0
 73 72  1  0
 74 75  1  0
 74 73  1  0
 75 71  1  0
 76 77  2  0
 77 78  1  0
 79 78  2  0
 80 79  1  0
 81 55  1  0
 81 82  1  0
 81 91  1  0
 82 85  1  0
 83 87  1  0
 83 82  1  0
 84 83  2  0
 87 86  1  0
 89 90  1  0
 89 87  1  0
 89 88  1  0
 91 94  1  1
 91 92  1  0
 93 91  1  0
M  ISO  4  11 100  19 100  53 101  54 101
M  END
>  <TORSDO>  (67) 
F 21

>  <SCORE>  (67) 
-12.835

>  <name>  (67) 
66

>  <ligand_id>  (67) 
66

>  <original_smiles>  (67) 
[H]c1c([H])c([H])c2c(c1[H])C([H])([H])C([H])([H])C([H])([H])C2([H])N([H])C(=O)C1([H])N(C(=O)C([H])(N([H])C(=O)C([H])(N([H])C([H])([H])[H])C([H])([H])[H])C(C([H])([H])[H])(C([H])([H])[H])C([H])([H])[H])C([H])([H])c2c([H])c(OC([H])([H])C([H])([H])C([H])([H])C(=O)N([H])c3c([H])c(N([H])C(=O)N4C([H])([H])C([H])([H])C([H])([H])C([H])(n5nc(-c6c([H])c([H])c(Oc7c([H])c([H])c(F)c([H])c7F)c([H])c6[H])c(C(=O)N([H])[H])c5N([H])[H])C4([H])[H])c([H])c(C([H])([H])C([H])([H])[H])c3[H])c([H])c([H])c2C1([H])[H]

>  <smiles>  (67) 
[H]c1c([H])c([H])c2c(c1[H])C([H])([H])C([H])([H])C([H])([H])C2([H])N([H])C(=O)C1([H])N(C(=O)C([H])(N([H])C(=O)C([H])(N([H])C([H])([H])[H])C([H])([H])[H])C(C([H])([H])[H])(C([H])([H])[H])C([H])([H])[H])C([H])([H])c2c([H])c(OC([H])([H])C([H])([H])C([H])([H])C(=O)N([H])c3c([H])c(N([H])C(=O)N4C([H])([H])C([H])([H])C([H])([H])C([H])(n5nc(-c6c([H])c([H])c(Oc7c([H])c([H])c(F)c([H])c7F)c([H])c6[H])c(C(=O)N([H])[H])c5N([H])[H])C4([H])[H])c([H])c(C([H])([H])C([H])([H])[H])c3[H])c([H])c([H])c2C1([H])[H]

$$$$
67:0:0
     RDKit          3D

 97105  0  0  1  0  0  0  0  0999 V2000
  -31.3850  -19.3790   21.8610 C   0  0  0  0  0  3  0  0  0  0  0  0
  -31.0780  -18.0940   21.3730 C   0  0  0  0  0  3  0  0  0  0  0  0
  -29.1110  -19.0990   20.3820 C   0  0  0  0  0  3  0  0  0  0  0  0
  -30.5930  -20.5420   21.6600 C   0  0  0  0  0  0  0  0  0  0  0  0
  -29.9030  -17.8350   20.6510 C   0  0  0  0  0  0  0  0  0  0  0  0
  -29.4280  -20.5220   20.8080 C   0  0  0  0  0  0  0  0  0  0  0  0
  -30.4070  -15.1220   20.2840 C   0  0  0  0  0  0  0  0  0  0  0  0
  -30.3250  -12.7610   19.3000 C   0  0  0  0  0  2  0  0  0  0  0  0
  -29.3630  -12.6630   18.0910 C   0  0  0  0  0  2  0  0  0  0  0  0
  -27.9200  -12.4030   18.5610 C   0  0  0  0  0  2  0  0  0  0  0  0
  -27.5130  -13.3170   19.7460 C   0  0  0  0  0  3  0  0  0  0  0  0
  -28.5960  -13.3750   20.8440 C   0  0  0  0  0  2  0  0  0  0  0  0
  -29.8250  -13.8490   20.1960 N   0  0  0  0  0  0  0  0  0  0  0  0
  -31.6200  -15.1690   20.0430 O   0  0  0  0  0  0  0  0  0  0  0  0
  -29.6120  -16.3260   20.3680 N   0  0  0  0  0  0  0  0  0  0  0  0
  -28.6270  -16.1250   20.2870 H   0  0  0  0  0  0  0  0  0  0  0  0
  -25.1480  -13.8380   20.5560 C   0  0  0  0  0  0  0  0  0  0  0  0
  -24.1070  -13.0400   20.9400 C   0  0  0  0  0  0  0  0  0  0  0  0
  -24.5930  -11.6980   20.8760 C   0  0  0  0  0  0  0  0  0  0  0  0
  -26.1980  -12.9830   20.2780 N   0  0  0  0  0  0  0  0  0  0  0  0
  -25.8770  -11.6880   20.5360 N   0  0  0  0  0  0  0  0  0  0  0  0
  -23.8900  -10.4200   21.0610 C   0  0  0  0  0  0  0  0  0  0  0  0
  -24.3500   -9.4500   21.9780 C   0  0  0  0  0  3  0  0  0  0  0  0
  -23.6450   -8.2390   22.1510 C   0  0  0  0  0  3  0  0  0  0  0  0
  -22.4670   -7.9900   21.4080 C   0  0  0  0  0  0  0  0  0  0  0  0
  -22.0270   -8.9490   20.4790 C   0  0  0  0  0  3  0  0  0  0  0  0
  -22.7330  -10.1530   20.3030 C   0  0  0  0  0  3  0  0  0  0  0  0
  -21.7320   -6.8330   21.4930 O   0  0  0  0  0  0  0  0  0  0  0  0
  -21.6950   -6.0870   22.6430 C   0  0  0  0  0  0  0  0  0  0  0  0
  -21.2330   -6.6220   23.8650 C   0  0  0  0  0  3  0  0  0  0  0  0
  -21.1450   -5.8010   25.0060 C   0  0  0  0  0  3  0  0  0  0  0  0
  -21.5120   -4.4430   24.9270 C   0  0  0  0  0  0  0  0  0  0  0  0
  -21.9660   -3.9060   23.7090 C   0  0  0  0  0  3  0  0  0  0  0  0
  -22.0540   -4.7260   22.5700 C   0  0  0  0  0  0  0  0  0  0  0  0
  -22.4730   -4.1980   21.3950 F   0  0  0  0  0  0  0  0  0  0  0  0
  -21.4200   -3.6510   26.0200 F   0  0  0  0  0  0  0  0  0  0  0  0
  -22.7080  -13.4900   21.2440 C   0  0  0  0  0  0  0  0  0  0  0  0
  -22.0090  -12.7730   22.1170 N   0  0  0  0  0  0  0  0  0  0  0  0
  -22.2430  -14.5140   20.7440 O   0  0  0  0  0  0  0  0  0  0  0  0
  -22.3980  -11.9450   22.5430 H   0  0  0  0  0  0  0  0  0  0  0  0
  -21.0710  -13.0560   22.3620 H   0  0  0  0  0  0  0  0  0  0  0  0
  -25.2820  -15.2140   20.3930 N   0  0  0  0  0  0  0  0  0  0  0  0
  -24.4980  -15.8450   20.5220 H   0  0  0  0  0  0  0  0  0  0  0  0
  -26.0890  -15.6670   19.9880 H   0  0  0  0  0  0  0  0  0  0  0  0
  -31.0390  -21.6640   22.5180 C   0  0  0  0  0  0  0  0  0  0  0  0
  -31.1190  -21.4840   23.8370 N   0  0  0  0  0  0  0  0  0  0  0  0
  -31.4460  -22.8340   22.0440 N   0  0  0  0  0  4  0  0  0  0  0  0
  -30.8060  -20.6060   24.2270 H   0  0  0  0  0  0  0  0  0  0  0  0
  -31.4400  -22.1940   24.4740 H   0  0  0  0  0  0  0  0  0  0  0  0
  -31.1580  -23.0850   21.0950 H   0  0  0  0  0  0  0  0  0  0  0  0
  -31.8390  -23.5570   22.6260 H   0  0  0  0  0  0  0  0  0  0  0  0
  -28.8030  -23.2210   20.2700 C   0  0  0  0  0  0  0  0  0  0  0  0
  -28.5620  -21.8250   20.5850 N   0  0  0  0  0  0  0  0  0  0  0  0
  -29.9030  -23.5100   19.7910 O   0  0  0  0  0  0  0  0  0  0  0  0
  -27.5730  -21.6600   20.7280 H   0  0  0  0  0  0  0  0  0  0  0  0
  -27.7160  -24.5100   20.3720 C   0  0  0  0  0  2  0  0  0  0  0  0
  -28.0880  -26.0600   20.2820 O   0  0  0  0  0  0  0  0  0  0  0  0
  -24.5930  -31.9500   23.2160 C   0  0  0  0  0  0  0  0  0  0  0  0
  -27.0710  -27.1090   20.2250 C   0  0  0  0  0  0  0  0  0  0  0  0
  -23.3620  -30.5480   21.6090 C   0  0  0  0  0  3  0  0  0  0  0  0
  -24.7770  -28.9340   20.1870 C   0  0  0  0  0  0  0  0  0  0  0  0
  -25.9220  -30.7630   21.4210 C   0  0  0  0  0  2  0  0  0  0  0  0
  -25.9730  -29.3560   20.7820 C   0  0  0  0  0  0  0  0  0  0  0  0
  -27.1190  -28.4620   20.7800 C   0  0  0  0  0  3  0  0  0  0  0  0
  -25.8490  -26.8130   19.5800 C   0  0  0  0  0  3  0  0  0  0  0  0
  -24.7330  -27.6770   19.5670 C   0  0  0  0  0  3  0  0  0  0  0  0
  -23.5640  -29.8510   20.2370 C   0  0  0  0  0  2  0  0  0  0  0  0
  -24.6480  -31.1110   22.1350 N   0  0  0  0  0  0  0  0  0  0  0  0
  -23.5140  -32.2550   23.7490 O   0  0  0  0  0  0  0  0  0  0  0  0
  -22.6780  -29.5640   22.5910 C   0  0  0  0  0  0  0  0  0  0  0  0
  -21.3500  -29.3910   22.4660 N   0  0  0  0  0  0  0  0  0  0  0  0
  -23.3470  -28.9560   23.4320 O   0  0  0  0  0  0  0  0  0  0  0  0
  -20.8660  -29.9300   21.7620 H   0  0  0  0  0  0  0  0  0  0  0  0
  -17.9700  -28.1850   22.9830 C   0  0  0  0  0  0  0  0  0  0  0  0
  -20.5270  -28.4680   23.2550 C   0  0  0  0  0  3  0  0  0  0  0  0
  -20.6390  -27.0220   22.7160 C   0  0  0  0  0  2  0  0  0  0  0  0
  -19.5440  -26.6690   21.7060 C   0  0  0  0  0  2  0  0  0  0  0  0
  -18.1580  -26.8210   22.3390 C   0  0  0  0  0  2  0  0  0  0  0  0
  -19.0830  -28.9650   23.3980 C   0  0  0  0  0  0  0  0  0  0  0  0
  -18.8520  -30.2380   23.9630 C   0  0  0  0  0  3  0  0  0  0  0  0
  -17.5420  -30.7320   24.1140 C   0  0  0  0  0  3  0  0  0  0  0  0
  -16.4460  -29.9510   23.7120 C   0  0  0  0  0  3  0  0  0  0  0  0
  -16.6600  -28.6790   23.1530 C   0  0  0  0  0  3  0  0  0  0  0  0
  -25.8810  -32.5820   23.8240 C   0  0  0  0  0  3  0  0  0  0  0  0
  -26.3960  -31.8230   25.1090 C   0  0  1  0  0  0  0  0  0  0  0  0
  -25.3050  -31.6090   26.1840 C   0  0  0  0  0  1  0  0  0  0  0  0
  -26.9640  -30.4340   24.7360 C   0  0  0  0  0  1  0  0  0  0  0  0
  -27.5590  -32.6140   25.7510 C   0  0  0  0  0  1  0  0  0  0  0  0
  -25.5840  -33.9880   24.1460 N   0  0  0  0  0  0  0  0  0  0  0  0
  -25.9020  -35.0350   23.3740 C   0  0  0  0  0  0  0  0  0  0  0  0
  -26.5410  -34.9190   22.3250 O   0  0  0  0  0  0  0  0  0  0  0  0
  -25.0110  -34.1510   24.9610 H   0  0  0  0  0  0  0  0  0  0  0  0
  -24.1740  -36.8390   23.0640 C   0  0  0  0  0  1  0  0  0  0  0  0
  -25.4390  -36.4320   23.8350 C   0  0  0  0  0  3  0  0  0  0  0  0
  -27.6030  -37.3170   24.5880 C   0  0  0  0  0  1  0  0  0  0  0  0
  -26.4750  -37.4770   23.6750 N   0  0  0  0  0  0  0  0  0  0  0  0
  -26.0810  -38.4030   23.8200 H   0  0  0  0  0  0  0  0  0  0  0  0
  2  1  2  0
  3  5  2  0
  3  6  1  0
  4  1  1  0
  4 45  1  0
  5  2  1  0
  6  4  2  0
  7 15  1  0
  8 13  1  0
  9 10  1  0
  9  8  1  0
 11 10  1  0
 11 20  1  0
 11 12  1  0
 13  7  1  0
 13 12  1  0
 14  7  2  0
 15  5  1  0
 16 15  1  0
 17 18  2  0
 18 37  1  0
 19 18  1  0
 19 22  1  0
 20 21  1  0
 20 17  1  0
 21 19  2  0
 22 23  1  0
 23 24  2  0
 25 28  1  0
 25 24  1  0
 26 25  2  0
 27 26  1  0
 27 22  2  0
 28 29  1  0
 29 30  1  0
 30 31  2  0
 32 31  1  0
 32 36  1  0
 33 32  2  0
 34 29  2  0
 34 33  1  0
 35 34  1  0
 37 38  1  0
 38 41  1  0
 38 40  1  0
 39 37  2  0
 42 43  1  0
 42 17  1  0
 44 42  1  0
 45 46  1  0
 46 48  1  0
 46 49  1  0
 47 45  2  0
 47 51  1  0
 50 47  1  0
 52 56  1  0
 52 53  1  0
 53 55  1  0
 53  6  1  0
 54 52  2  0
 57 56  1  0
 58 69  2  0
 59 57  1  0
 59 64  1  0
 60 68  1  0
 60 70  1  0
 61 67  1  0
 61 63  1  0
 62 68  1  0
 63 62  1  0
 64 63  2  0
 65 59  2  0
 66 65  1  0
 66 61  2  0
 67 60  1  0
 68 58  1  0
 70 72  2  0
 71 70  1  0
 73 71  1  0
 74 83  2  0
 74 79  1  0
 75 71  1  0
 75 79  1  0
 76 75  1  0
 77 78  1  0
 77 76  1  0
 78 74  1  0
 79 80  2  0
 80 81  1  0
 82 81  2  0
 83 82  1  0
 84 58  1  0
 84 89  1  0
 84 85  1  0
 85 88  1  1
 85 86  1  0
 87 85  1  0
 89 92  1  0
 90 94  1  0
 90 89  1  0
 91 90  2  0
 94 93  1  0
 96 97  1  0
 96 94  1  0
 96 95  1  0
M  ISO  4   7 100  15 100  56 101  57 101
M  END
>  <TORSDO>  (68) 
F 19

>  <SCORE>  (68) 
-14.709

>  <name>  (68) 
67

>  <ligand_id>  (68) 
67

>  <original_smiles>  (68) 
[H]c1c([H])c([H])c2c(c1[H])C([H])([H])C([H])([H])C([H])([H])C2([H])N([H])C(=O)C1([H])N(C(=O)C([H])(N([H])C(=O)C([H])(N([H])C([H])([H])[H])C([H])([H])[H])C(C([H])([H])[H])(C([H])([H])[H])C([H])([H])[H])C([H])([H])c2c([H])c(OC([H])([H])C(=O)N([H])c3c([H])c(N([H])C(=O)N4C([H])([H])C([H])([H])C([H])([H])C([H])(n5nc(-c6c([H])c([H])c(Oc7c([H])c([H])c(F)c([H])c7F)c([H])c6[H])c(C(=O)N([H])[H])c5N([H])[H])C4([H])[H])c([H])c([H])c3C(N([H])[H])=[N+]([H])[H])c([H])c([H])c2C1([H])[H]

>  <smiles>  (68) 
[H]c1c([H])c([H])c2c(c1[H])C([H])([H])C([H])([H])C([H])([H])C2([H])N([H])C(=O)C1([H])N(C(=O)C([H])(N([H])C(=O)C([H])(N([H])C([H])([H])[H])C([H])([H])[H])C(C([H])([H])[H])(C([H])([H])[H])C([H])([H])[H])C([H])([H])c2c([H])c(OC([H])([H])C(=O)N([H])c3c([H])c(N([H])C(=O)N4C([H])([H])C([H])([H])C([H])([H])C([H])(n5nc(-c6c([H])c([H])c(Oc7c([H])c([H])c(F)c([H])c7F)c([H])c6[H])c(C(=O)N([H])[H])c5N([H])[H])C4([H])[H])c([H])c([H])c3C(N([H])[H])=[N+]([H])[H])c([H])c([H])c2C1([H])[H]

$$$$
68:0:0
     RDKit          3D

 96104  0  0  1  0  0  0  0  0999 V2000
  -29.3020  -20.5420   20.3080 C   0  0  0  0  0  0  0  0  0  0  0  0
  -28.0970  -20.4440   20.8630 N   0  0  0  0  0  4  0  0  0  0  0  0
  -29.8050  -21.7670   20.0410 N   0  0  0  0  0  0  0  0  0  0  0  0
  -27.6600  -19.5370   20.9330 H   0  0  0  0  0  0  0  0  0  0  0  0
  -27.6670  -21.2190   21.3370 H   0  0  0  0  0  0  0  0  0  0  0  0
  -30.7770  -21.8110   19.7590 H   0  0  0  0  0  0  0  0  0  0  0  0
  -29.8480  -18.0920   20.6120 C   0  0  0  0  0  3  0  0  0  0  0  0
  -30.6020  -19.3080   18.6180 C   0  0  0  0  0  3  0  0  0  0  0  0
  -30.8770  -16.8950   18.7550 C   0  0  0  0  0  3  0  0  0  0  0  0
  -29.9760  -19.3080   19.8820 C   0  0  0  0  0  0  0  0  0  0  0  0
  -30.2750  -16.8650   20.0400 C   0  0  0  0  0  0  0  0  0  0  0  0
  -31.0500  -18.1010   18.0580 C   0  0  0  0  0  0  0  0  0  0  0  0
  -31.5960  -18.0880   16.8160 F   0  0  0  0  0  0  0  0  0  0  0  0
  -30.7060  -14.4760   20.4570 C   0  0  0  0  0  0  0  0  0  0  0  0
  -30.3600  -12.3050   19.3630 C   0  0  0  0  0  2  0  0  0  0  0  0
  -29.4400  -12.5300   18.1440 C   0  0  0  0  0  2  0  0  0  0  0  0
  -27.9620  -12.4010   18.5630 C   0  0  0  0  0  2  0  0  0  0  0  0
  -27.6190  -13.2550   19.8170 C   0  0  0  0  0  3  0  0  0  0  0  0
  -28.6690  -13.0670   20.9370 C   0  0  0  0  0  2  0  0  0  0  0  0
  -30.0000  -13.3170   20.3690 N   0  0  0  0  0  0  0  0  0  0  0  0
  -31.8880  -14.5530   20.1200 O   0  0  0  0  0  0  0  0  0  0  0  0
  -30.0050  -15.6080   20.6890 N   0  0  0  0  0  0  0  0  0  0  0  0
  -29.0810  -15.4980   21.0810 H   0  0  0  0  0  0  0  0  0  0  0  0
  -25.2230  -13.8700   20.5130 C   0  0  0  0  0  0  0  0  0  0  0  0
  -24.1520  -13.1040   20.8790 C   0  0  0  0  0  0  0  0  0  0  0  0
  -24.6090  -11.7480   20.8610 C   0  0  0  0  0  0  0  0  0  0  0  0
  -26.2670  -12.9850   20.2940 N   0  0  0  0  0  0  0  0  0  0  0  0
  -25.9000  -11.7050   20.5650 N   0  0  0  0  0  0  0  0  0  0  0  0
  -23.8820  -10.4890   21.0520 C   0  0  0  0  0  0  0  0  0  0  0  0
  -24.3140   -9.5180   21.9850 C   0  0  0  0  0  3  0  0  0  0  0  0
  -23.5850   -8.3230   22.1630 C   0  0  0  0  0  3  0  0  0  0  0  0
  -22.4120   -8.0850   21.4080 C   0  0  0  0  0  0  0  0  0  0  0  0
  -21.9970   -9.0430   20.4670 C   0  0  0  0  0  3  0  0  0  0  0  0
  -22.7250  -10.2320   20.2860 C   0  0  0  0  0  3  0  0  0  0  0  0
  -21.6540   -6.9430   21.5000 O   0  0  0  0  0  0  0  0  0  0  0  0
  -21.6140   -6.1920   22.6490 C   0  0  0  0  0  0  0  0  0  0  0  0
  -21.2040   -6.7430   23.8830 C   0  0  0  0  0  3  0  0  0  0  0  0
  -21.1140   -5.9210   25.0240 C   0  0  0  0  0  3  0  0  0  0  0  0
  -21.4210   -4.5510   24.9330 C   0  0  0  0  0  0  0  0  0  0  0  0
  -21.8230   -3.9990   23.7030 C   0  0  0  0  0  3  0  0  0  0  0  0
  -21.9150   -4.8190   22.5640 C   0  0  0  0  0  0  0  0  0  0  0  0
  -22.2860   -4.2780   21.3770 F   0  0  0  0  0  0  0  0  0  0  0  0
  -21.3230   -3.7590   26.0260 F   0  0  0  0  0  0  0  0  0  0  0  0
  -22.7530  -13.5780   21.1410 C   0  0  0  0  0  0  0  0  0  0  0  0
  -22.0220  -12.8890   22.0080 N   0  0  0  0  0  0  0  0  0  0  0  0
  -22.3210  -14.6050   20.6130 O   0  0  0  0  0  0  0  0  0  0  0  0
  -22.3820  -12.0600   22.4610 H   0  0  0  0  0  0  0  0  0  0  0  0
  -21.0840  -13.1900   22.2300 H   0  0  0  0  0  0  0  0  0  0  0  0
  -25.3960  -15.2410   20.3270 N   0  0  0  0  0  0  0  0  0  0  0  0
  -24.6240  -15.8950   20.3940 H   0  0  0  0  0  0  0  0  0  0  0  0
  -26.2510  -15.6710   19.9970 H   0  0  0  0  0  0  0  0  0  0  0  0
  -28.9910  -22.9560   19.6910 C   0  0  0  0  0  2  0  0  0  0  0  0
  -29.2470  -24.1100   21.9590 C   0  0  0  0  0  1  0  0  0  0  0  0
  -29.2970  -24.2860   20.4240 C   0  0  0  0  0  3  0  0  0  0  0  0
  -28.2210  -25.2830   19.9190 C   0  0  0  0  0  2  0  0  0  0  0  0
  -28.3540  -26.6740   20.2560 O   0  0  0  0  0  0  0  0  0  0  0  0
  -24.5790  -31.8900   23.2730 C   0  0  0  0  0  0  0  0  0  0  0  0
  -27.1900  -27.4280   20.1890 C   0  0  0  0  0  0  0  0  0  0  0  0
  -23.3630  -30.5020   21.6370 C   0  0  0  0  0  3  0  0  0  0  0  0
  -24.8010  -28.9670   20.2030 C   0  0  0  0  0  0  0  0  0  0  0  0
  -25.8960  -30.8450   21.4270 C   0  0  0  0  0  2  0  0  0  0  0  0
  -25.9700  -29.4800   20.7770 C   0  0  0  0  0  0  0  0  0  0  0  0
  -27.1670  -28.7270   20.7510 C   0  0  0  0  0  3  0  0  0  0  0  0
  -25.9930  -26.9400   19.6010 C   0  0  0  0  0  3  0  0  0  0  0  0
  -24.8080  -27.6980   19.6120 C   0  0  0  0  0  3  0  0  0  0  0  0
  -23.5590  -29.8280   20.2570 C   0  0  0  0  0  2  0  0  0  0  0  0
  -24.6330  -31.0910   22.1700 N   0  0  0  0  0  0  0  0  0  0  0  0
  -23.4980  -32.1650   23.8150 O   0  0  0  0  0  0  0  0  0  0  0  0
  -22.7120  -29.4780   22.5900 C   0  0  0  0  0  0  0  0  0  0  0  0
  -21.3890  -29.2980   22.4620 N   0  0  0  0  0  0  0  0  0  0  0  0
  -23.3940  -28.8430   23.4010 O   0  0  0  0  0  0  0  0  0  0  0  0
  -20.9050  -29.8470   21.7670 H   0  0  0  0  0  0  0  0  0  0  0  0
  -18.0080  -28.1150   22.9630 C   0  0  0  0  0  0  0  0  0  0  0  0
  -20.5690  -28.3600   23.2270 C   0  0  0  0  0  3  0  0  0  0  0  0
  -20.6690  -26.9350   22.6340 C   0  0  0  0  0  2  0  0  0  0  0  0
  -19.5520  -26.6200   21.6320 C   0  0  0  0  0  2  0  0  0  0  0  0
  -18.1840  -26.7540   22.3100 C   0  0  0  0  0  2  0  0  0  0  0  0
  -19.1350  -28.8720   23.3890 C   0  0  0  0  0  0  0  0  0  0  0  0
  -18.9240  -30.1420   23.9730 C   0  0  0  0  0  3  0  0  0  0  0  0
  -17.6210  -30.6480   24.1430 C   0  0  0  0  0  3  0  0  0  0  0  0
  -16.5110  -29.8900   23.7340 C   0  0  0  0  0  3  0  0  0  0  0  0
  -16.7060  -28.6270   23.1440 C   0  0  0  0  0  3  0  0  0  0  0  0
  -25.8640  -32.5180   23.8940 C   0  0  0  0  0  3  0  0  0  0  0  0
  -26.3720  -31.7520   25.1770 C   0  0  1  0  0  0  0  0  0  0  0  0
  -25.2760  -31.5220   26.2450 C   0  0  0  0  0  1  0  0  0  0  0  0
  -26.9440  -30.3670   24.7940 C   0  0  0  0  0  1  0  0  0  0  0  0
  -27.5270  -32.5420   25.8380 C   0  0  0  0  0  1  0  0  0  0  0  0
  -25.5630  -33.9200   24.2160 N   0  0  0  0  0  0  0  0  0  0  0  0
  -25.9030  -34.9630   23.4480 C   0  0  0  0  0  0  0  0  0  0  0  0
  -26.5740  -34.8470   22.4190 O   0  0  0  0  0  0  0  0  0  0  0  0
  -24.9640  -34.0880   25.0120 H   0  0  0  0  0  0  0  0  0  0  0  0
  -24.1850  -36.7610   23.0690 C   0  0  0  0  0  1  0  0  0  0  0  0
  -25.4220  -36.3580   23.8880 C   0  0  0  0  0  3  0  0  0  0  0  0
  -27.5590  -37.2350   24.7210 C   0  0  0  0  0  1  0  0  0  0  0  0
  -26.4620  -37.4020   23.7720 N   0  0  0  0  0  0  0  0  0  0  0  0
  -26.0610  -38.3260   23.9090 H   0  0  0  0  0  0  0  0  0  0  0  0
  1  2  2  0
  2  4  1  0
  2  5  1  0
  3  1  1  0
  6  3  1  0
  8 10  1  0
  9 11  2  0
 10  1  1  0
 10  7  2  0
 11  7  1  0
 11 22  1  0
 12  8  2  0
 12  9  1  0
 13 12  1  0
 14 22  1  0
 15 20  1  0
 16 17  1  0
 16 15  1  0
 18 17  1  0
 18 27  1  0
 18 19  1  0
 20 14  1  0
 20 19  1  0
 21 14  2  0
 22 23  1  0
 24 25  2  0
 25 44  1  0
 26 25  1  0
 26 29  1  0
 27 24  1  0
 27 28  1  0
 28 26  2  0
 29 30  1  0
 30 31  2  0
 32 35  1  0
 32 31  1  0
 33 32  2  0
 34 33  1  0
 34 29  2  0
 35 36  1  0
 36 37  1  0
 37 38  2  0
 39 38  1  0
 39 43  1  0
 40 39  2  0
 41 36  2  0
 41 40  1  0
 42 41  1  0
 44 45  1  0
 45 48  1  0
 45 47  1  0
 46 44  2  0
 49 50  1  0
 49 24  1  0
 51 49  1  0
 52  3  1  0
 52 54  1  0
 54 53  1  0
 55 56  1  0
 55 54  1  0
 57 68  2  0
 58 56  1  0
 58 63  1  0
 59 67  1  0
 59 69  1  0
 60 66  1  0
 60 62  1  0
 61 67  1  0
 62 61  1  0
 63 62  2  0
 64 65  1  0
 64 58  2  0
 65 60  2  0
 66 59  1  0
 67 57  1  0
 69 71  2  0
 70 69  1  0
 72 70  1  0
 73 82  2  0
 73 78  1  0
 74 70  1  0
 74 78  1  0
 75 74  1  0
 76 77  1  0
 76 75  1  0
 77 73  1  0
 78 79  2  0
 79 80  1  0
 81 80  2  0
 82 81  1  0
 83 57  1  0
 83 88  1  0
 83 84  1  0
 84 87  1  1
 84 85  1  0
 86 84  1  0
 88 91  1  0
 89 93  1  0
 89 88  1  0
 90 89  2  0
 93 92  1  0
 95 93  1  0
 95 96  1  0
 95 94  1  0
M  ISO  4  14 100  22 100  55 101  56 101
M  END
>  <TORSDO>  (69) 
F 20

>  <SCORE>  (69) 
-14.252

>  <name>  (69) 
68

>  <ligand_id>  (69) 
68

>  <original_smiles>  (69) 
[H]c1c([H])c([H])c2c(c1[H])C([H])([H])C([H])([H])C([H])([H])C2([H])N([H])C(=O)C1([H])N(C(=O)C([H])(N([H])C(=O)C([H])(N([H])C([H])([H])[H])C([H])([H])[H])C(C([H])([H])[H])(C([H])([H])[H])C([H])([H])[H])C([H])([H])c2c([H])c(OC([H])([H])C([H])(C([H])([H])[H])C([H])([H])[N+]([H])=C(c3c([H])c(F)c([H])c(N([H])C(=O)N4C([H])([H])C([H])([H])C([H])([H])C([H])(n5nc(-c6c([H])c([H])c(Oc7c([H])c([H])c(F)c([H])c7F)c([H])c6[H])c(C(=O)N([H])[H])c5N([H])[H])C4([H])[H])c3[H])N([H])[H])c([H])c([H])c2C1([H])[H]

>  <smiles>  (69) 
[H]c1c([H])c([H])c2c(c1[H])C([H])([H])C([H])([H])C([H])([H])C2([H])N([H])C(=O)C1([H])N(C(=O)C([H])(N([H])C(=O)C([H])(N([H])C([H])([H])[H])C([H])([H])[H])C(C([H])([H])[H])(C([H])([H])[H])C([H])([H])[H])C([H])([H])c2c([H])c(OC([H])([H])C([H])(C([H])([H])[H])C([H])([H])[N+]([H])=C(c3c([H])c(F)c([H])c(N([H])C(=O)N4C([H])([H])C([H])([H])C([H])([H])C([H])(n5nc(-c6c([H])c([H])c(Oc7c([H])c([H])c(F)c([H])c7F)c([H])c6[H])c(C(=O)N([H])[H])c5N([H])[H])C4([H])[H])c3[H])N([H])[H])c([H])c([H])c2C1([H])[H]

$$$$
69:0:0
     RDKit          3D

 94103  0  0  1  0  0  0  0  0999 V2000
  -29.1690  -22.4090   19.4710 C   0  0  0  0  0  0  0  0  0  0  0  0
  -28.8170  -23.1070   21.6760 C   0  0  0  0  0  2  0  0  0  0  0  0
  -29.2630  -21.6100   21.6070 C   0  0  0  0  0  2  0  0  0  0  0  0
  -29.1280  -23.7540   20.3100 C   0  0  1  0  0  0  0  0  0  0  0  0
  -30.5470  -24.3610   20.2910 C   0  0  0  0  0  1  0  0  0  0  0  0
  -29.3490  -21.2380   20.1960 N   0  0  0  0  0  0  0  0  0  0  0  0
  -29.0320  -22.4630   18.2450 O   0  0  0  0  0  0  0  0  0  0  0  0
  -30.1920  -19.6880   18.4150 C   0  0  0  0  0  3  0  0  0  0  0  0
  -30.5640  -18.4370   17.8940 C   0  0  0  0  0  3  0  0  0  0  0  0
  -29.6110  -18.6000   20.5040 C   0  0  0  0  0  3  0  0  0  0  0  0
  -29.6920  -19.8450   19.7320 C   0  0  0  0  0  0  0  0  0  0  0  0
  -30.0030  -17.2810   19.9900 C   0  0  0  0  0  0  0  0  0  0  0  0
  -30.4680  -17.2580   18.6510 C   0  0  0  0  0  0  0  0  0  0  0  0
  -30.7800  -16.0920   18.0350 F   0  0  0  0  0  0  0  0  0  0  0  0
  -30.6100  -14.8100   20.5580 C   0  0  0  0  0  0  0  0  0  0  0  0
  -30.4440  -12.5010   19.6310 C   0  0  0  0  0  2  0  0  0  0  0  0
  -29.5680  -12.5500   18.3600 C   0  0  0  0  0  2  0  0  0  0  0  0
  -28.0790  -12.3870   18.7240 C   0  0  0  0  0  2  0  0  0  0  0  0
  -27.6500  -13.2970   19.9050 C   0  0  0  0  0  3  0  0  0  0  0  0
  -28.6570  -13.2470   21.0740 C   0  0  0  0  0  2  0  0  0  0  0  0
  -29.9790  -13.5830   20.5310 N   0  0  0  0  0  0  0  0  0  0  0  0
  -31.8180  -14.8710   20.3140 O   0  0  0  0  0  0  0  0  0  0  0  0
  -29.8510  -15.9710   20.6940 N   0  0  0  0  0  0  0  0  0  0  0  0
  -28.9510  -15.8330   21.1260 H   0  0  0  0  0  0  0  0  0  0  0  0
  -25.2290  -13.8900   20.5090 C   0  0  0  0  0  0  0  0  0  0  0  0
  -24.1470  -13.1210   20.8460 C   0  0  0  0  0  0  0  0  0  0  0  0
  -24.6150  -11.7710   20.8670 C   0  0  0  0  0  0  0  0  0  0  0  0
  -26.2840  -13.0100   20.3400 N   0  0  0  0  0  0  0  0  0  0  0  0
  -25.9200  -11.7320   20.6200 N   0  0  0  0  0  0  0  0  0  0  0  0
  -23.8820  -10.5120   21.0510 C   0  0  0  0  0  0  0  0  0  0  0  0
  -24.2850   -9.5540   22.0090 C   0  0  0  0  0  3  0  0  0  0  0  0
  -23.5510   -8.3600   22.1810 C   0  0  0  0  0  3  0  0  0  0  0  0
  -22.4020   -8.1130   21.3940 C   0  0  0  0  0  0  0  0  0  0  0  0
  -22.0170   -9.0590   20.4270 C   0  0  0  0  0  3  0  0  0  0  0  0
  -22.7500  -10.2450   20.2540 C   0  0  0  0  0  3  0  0  0  0  0  0
  -21.6440   -6.9690   21.4720 O   0  0  0  0  0  0  0  0  0  0  0  0
  -21.5730   -6.2310   22.6260 C   0  0  0  0  0  0  0  0  0  0  0  0
  -21.1400   -6.7950   23.8440 C   0  0  0  0  0  3  0  0  0  0  0  0
  -21.0130   -5.9840   24.9900 C   0  0  0  0  0  3  0  0  0  0  0  0
  -21.3110   -4.6110   24.9180 C   0  0  0  0  0  0  0  0  0  0  0  0
  -21.7370   -4.0460   23.7030 C   0  0  0  0  0  3  0  0  0  0  0  0
  -21.8650   -4.8530   22.5590 C   0  0  0  0  0  0  0  0  0  0  0  0
  -22.2560   -4.2990   21.3860 F   0  0  0  0  0  0  0  0  0  0  0  0
  -21.1840   -3.8310   26.0170 F   0  0  0  0  0  0  0  0  0  0  0  0
  -22.7390  -13.6020   21.0380 C   0  0  0  0  0  0  0  0  0  0  0  0
  -21.9680  -12.9280   21.8850 N   0  0  0  0  0  0  0  0  0  0  0  0
  -22.3270  -14.6140   20.4710 O   0  0  0  0  0  0  0  0  0  0  0  0
  -22.3120  -12.1120   22.3680 H   0  0  0  0  0  0  0  0  0  0  0  0
  -21.0210  -13.2400   22.0530 H   0  0  0  0  0  0  0  0  0  0  0  0
  -25.4030  -15.2560   20.3110 N   0  0  0  0  0  0  0  0  0  0  0  0
  -24.6340  -15.9160   20.3600 H   0  0  0  0  0  0  0  0  0  0  0  0
  -26.2670  -15.6810   19.9970 H   0  0  0  0  0  0  0  0  0  0  0  0
  -28.1020  -24.9300   19.8350 C   0  0  0  0  0  2  0  0  0  0  0  0
  -28.2890  -26.3970   20.1490 O   0  0  0  0  0  0  0  0  0  0  0  0
  -24.5760  -31.8750   23.1620 C   0  0  0  0  0  0  0  0  0  0  0  0
  -27.1830  -27.2860   20.0870 C   0  0  0  0  0  0  0  0  0  0  0  0
  -23.3710  -30.4690   21.5330 C   0  0  0  0  0  3  0  0  0  0  0  0
  -24.8180  -28.9240   20.0950 C   0  0  0  0  0  0  0  0  0  0  0  0
  -25.9120  -30.7900   21.3340 C   0  0  0  0  0  2  0  0  0  0  0  0
  -25.9930  -29.4070   20.6850 C   0  0  0  0  0  0  0  0  0  0  0  0
  -27.1760  -28.5990   20.6730 C   0  0  0  0  0  3  0  0  0  0  0  0
  -25.9840  -26.8800   19.4580 C   0  0  0  0  0  3  0  0  0  0  0  0
  -24.8190  -27.6690   19.4710 C   0  0  0  0  0  3  0  0  0  0  0  0
  -23.5800  -29.7990   20.1520 C   0  0  0  0  0  2  0  0  0  0  0  0
  -24.6400  -31.0640   22.0660 N   0  0  0  0  0  0  0  0  0  0  0  0
  -23.4950  -32.1470   23.7020 O   0  0  0  0  0  0  0  0  0  0  0  0
  -22.7190  -29.4500   22.4990 C   0  0  0  0  0  0  0  0  0  0  0  0
  -21.3900  -29.2750   22.3940 N   0  0  0  0  0  0  0  0  0  0  0  0
  -23.4080  -28.8190   23.3050 O   0  0  0  0  0  0  0  0  0  0  0  0
  -20.8930  -29.8370   21.7160 H   0  0  0  0  0  0  0  0  0  0  0  0
  -18.0180  -28.0810   22.9400 C   0  0  0  0  0  0  0  0  0  0  0  0
  -20.5800  -28.3370   23.1730 C   0  0  0  0  0  3  0  0  0  0  0  0
  -20.6720  -26.9070   22.5910 C   0  0  0  0  0  2  0  0  0  0  0  0
  -19.5540  -26.5890   21.5930 C   0  0  0  0  0  2  0  0  0  0  0  0
  -18.1820  -26.7340   22.2570 C   0  0  0  0  0  2  0  0  0  0  0  0
  -19.1440  -28.8400   23.3560 C   0  0  0  0  0  0  0  0  0  0  0  0
  -18.9340  -30.1010   23.9560 C   0  0  0  0  0  3  0  0  0  0  0  0
  -17.6320  -30.6020   24.1420 C   0  0  0  0  0  3  0  0  0  0  0  0
  -16.5220  -29.8400   23.7420 C   0  0  0  0  0  3  0  0  0  0  0  0
  -16.7160  -28.5810   23.1460 C   0  0  0  0  0  3  0  0  0  0  0  0
  -25.8580  -32.5190   23.7740 C   0  0  0  0  0  3  0  0  0  0  0  0
  -25.5330  -33.9090   24.1260 N   0  0  0  0  0  0  0  0  0  0  0  0
  -25.8480  -34.9780   23.3830 C   0  0  0  0  0  0  0  0  0  0  0  0
  -26.5120  -34.8990   22.3460 O   0  0  0  0  0  0  0  0  0  0  0  0
  -24.9400  -34.0430   24.9330 H   0  0  0  0  0  0  0  0  0  0  0  0
  -24.1020  -36.7610   23.0680 C   0  0  0  0  0  1  0  0  0  0  0  0
  -25.3510  -36.3550   23.8670 C   0  0  0  0  0  3  0  0  0  0  0  0
  -27.4830  -37.2410   24.7010 C   0  0  0  0  0  1  0  0  0  0  0  0
  -26.3730  -37.4200   23.7680 N   0  0  0  0  0  0  0  0  0  0  0  0
  -25.9580  -38.3330   23.9380 H   0  0  0  0  0  0  0  0  0  0  0  0
  -26.3980  -31.7400   25.0350 C   0  0  1  0  0  0  0  0  0  0  0  0
  -25.3230  -31.4800   26.1150 C   0  0  0  0  0  1  0  0  0  0  0  0
  -26.9880  -30.3730   24.6190 C   0  0  0  0  0  1  0  0  0  0  0  0
  -27.5500  -32.5400   25.6890 C   0  0  0  0  0  1  0  0  0  0  0  0
  1  6  1  0
  1  4  1  0
  3  2  1  0
  4  5  1  1
  4  2  1  0
  6  3  1  0
  7  1  2  0
  8 11  1  0
  9  8  2  0
  9 13  1  0
 11  6  1  0
 11 10  2  0
 12 10  1  0
 12 23  1  0
 13 12  2  0
 14 13  1  0
 15 23  1  0
 16 21  1  0
 17 18  1  0
 17 16  1  0
 19 18  1  0
 19 28  1  0
 19 20  1  0
 21 15  1  0
 21 20  1  0
 22 15  2  0
 23 24  1  0
 25 26  2  0
 26 27  1  0
 26 45  1  0
 27 30  1  0
 28 25  1  0
 28 29  1  0
 29 27  2  0
 30 31  1  0
 31 32  2  0
 33 36  1  0
 33 32  1  0
 34 33  2  0
 35 34  1  0
 35 30  2  0
 36 37  1  0
 37 38  1  0
 38 39  2  0
 40 39  1  0
 40 44  1  0
 41 40  2  0
 42 37  2  0
 42 41  1  0
 43 42  1  0
 45 46  1  0
 46 49  1  0
 46 48  1  0
 47 45  2  0
 50 51  1  0
 50 25  1  0
 52 50  1  0
 53 54  1  0
 53  4  1  0
 55 66  2  0
 56 54  1  0
 56 61  1  0
 57 65  1  0
 57 67  1  0
 58 64  1  0
 58 60  1  0
 59 65  1  0
 60 59  1  0
 61 60  2  0
 62 63  1  0
 62 56  2  0
 63 58  2  0
 64 57  1  0
 65 55  1  0
 67 69  2  0
 68 67  1  0
 70 68  1  0
 71 80  2  0
 71 76  1  0
 72 68  1  0
 72 76  1  0
 73 72  1  0
 74 75  1  0
 74 73  1  0
 75 71  1  0
 76 77  2  0
 77 78  1  0
 79 78  2  0
 80 79  1  0
 81 55  1  0
 81 82  1  0
 81 91  1  0
 82 85  1  0
 83 87  1  0
 83 82  1  0
 84 83  2  0
 87 86  1  0
 89 87  1  0
 89 90  1  0
 89 88  1  0
 91 94  1  1
 91 92  1  0
 93 91  1  0
M  ISO  4  15 100  23 100  53 101  54 101
M  END
>  <TORSDO>  (70) 
F 18

>  <SCORE>  (70) 
-14.682

>  <name>  (70) 
69

>  <ligand_id>  (70) 
69

>  <original_smiles>  (70) 
[H]c1c([H])c([H])c2c(c1[H])C([H])([H])C([H])([H])C([H])([H])C2([H])N([H])C(=O)C1([H])N(C(=O)C([H])(N([H])C(=O)C([H])(N([H])C([H])([H])[H])C([H])([H])[H])C(C([H])([H])[H])(C([H])([H])[H])C([H])([H])[H])C([H])([H])c2c([H])c(OC([H])([H])C3(C([H])([H])[H])C(=O)N(c4c([H])c([H])c(F)c(N([H])C(=O)N5C([H])([H])C([H])([H])C([H])([H])C([H])(n6nc(-c7c([H])c([H])c(Oc8c([H])c([H])c(F)c([H])c8F)c([H])c7[H])c(C(=O)N([H])[H])c6N([H])[H])C5([H])[H])c4[H])C([H])([H])C3([H])[H])c([H])c([H])c2C1([H])[H]

>  <smiles>  (70) 
[H]c1c([H])c([H])c2c(c1[H])C([H])([H])C([H])([H])C([H])([H])C2([H])N([H])C(=O)C1([H])N(C(=O)C([H])(N([H])C(=O)C([H])(N([H])C([H])([H])[H])C([H])([H])[H])C(C([H])([H])[H])(C([H])([H])[H])C([H])([H])[H])C([H])([H])c2c([H])c(OC([H])([H])C3(C([H])([H])[H])C(=O)N(c4c([H])c([H])c(F)c(N([H])C(=O)N5C([H])([H])C([H])([H])C([H])([H])C([H])(n6nc(-c7c([H])c([H])c(Oc8c([H])c([H])c(F)c([H])c8F)c([H])c7[H])c(C(=O)N([H])[H])c6N([H])[H])C5([H])[H])c4[H])C([H])([H])C3([H])[H])c([H])c([H])c2C1([H])[H]

$$$$
70:0:0
     RDKit          3D

 92100  0  0  1  0  0  0  0  0999 V2000
  -28.9320  -23.2690   20.1080 C   0  0  0  0  0  0  0  0  0  0  0  0
  -28.7110  -21.8610   20.3860 N   0  0  0  0  0  0  0  0  0  0  0  0
  -29.9990  -23.6030   19.5870 O   0  0  0  0  0  0  0  0  0  0  0  0
  -27.8700  -21.7200   20.9310 H   0  0  0  0  0  0  0  0  0  0  0  0
  -30.9270  -19.4640   18.3320 C   0  0  0  0  0  3  0  0  0  0  0  0
  -30.3130  -20.6010   18.8940 C   0  0  0  0  0  3  0  0  0  0  0  0
  -29.2590  -19.0970   20.4700 C   0  0  0  0  0  3  0  0  0  0  0  0
  -30.7290  -18.1370   18.7900 C   0  0  0  0  0  0  0  0  0  0  0  0
  -29.4150  -20.5200   19.9750 C   0  0  0  0  0  0  0  0  0  0  0  0
  -29.9300  -17.8440   19.9390 C   0  0  0  0  0  0  0  0  0  0  0  0
  -31.3560  -17.0640   17.9130 C   0  0  0  0  0  1  0  0  0  0  0  0
  -30.5100  -15.1130   20.2940 C   0  0  0  0  0  0  0  0  0  0  0  0
  -30.4100  -12.7300   19.3990 C   0  0  0  0  0  2  0  0  0  0  0  0
  -29.4920  -12.6450   18.1570 C   0  0  0  0  0  2  0  0  0  0  0  0
  -28.0330  -12.4080   18.5840 C   0  0  0  0  0  2  0  0  0  0  0  0
  -27.6010  -13.3490   19.7410 C   0  0  0  0  0  3  0  0  0  0  0  0
  -28.6470  -13.4130   20.8740 C   0  0  0  0  0  2  0  0  0  0  0  0
  -29.9110  -13.8450   20.2640 N   0  0  0  0  0  0  0  0  0  0  0  0
  -31.7280  -15.1120   20.0890 O   0  0  0  0  0  0  0  0  0  0  0  0
  -29.7510  -16.3450   20.3890 N   0  0  0  0  0  0  0  0  0  0  0  0
  -28.8270  -16.1610   20.7510 H   0  0  0  0  0  0  0  0  0  0  0  0
  -25.2160  -13.9140   20.4590 C   0  0  0  0  0  0  0  0  0  0  0  0
  -24.1510  -13.1340   20.8220 C   0  0  0  0  0  0  0  0  0  0  0  0
  -24.6240  -11.7860   20.8060 C   0  0  0  0  0  0  0  0  0  0  0  0
  -26.2650  -13.0400   20.2340 N   0  0  0  0  0  0  0  0  0  0  0  0
  -25.9200  -11.7550   20.5110 N   0  0  0  0  0  0  0  0  0  0  0  0
  -23.9010  -10.5220   20.9960 C   0  0  0  0  0  0  0  0  0  0  0  0
  -24.3220   -9.5630   21.9440 C   0  0  0  0  0  3  0  0  0  0  0  0
  -23.5960   -8.3660   22.1220 C   0  0  0  0  0  3  0  0  0  0  0  0
  -22.4360   -8.1180   21.3520 C   0  0  0  0  0  0  0  0  0  0  0  0
  -22.0320   -9.0650   20.3950 C   0  0  0  0  0  3  0  0  0  0  0  0
  -22.7590  -10.2540   20.2150 C   0  0  0  0  0  3  0  0  0  0  0  0
  -21.6840   -6.9710   21.4390 O   0  0  0  0  0  0  0  0  0  0  0  0
  -21.6150   -6.2410   22.5980 C   0  0  0  0  0  0  0  0  0  0  0  0
  -21.1520   -6.8040   23.8080 C   0  0  0  0  0  3  0  0  0  0  0  0
  -21.0310   -6.0000   24.9590 C   0  0  0  0  0  3  0  0  0  0  0  0
  -21.3630   -4.6330   24.9020 C   0  0  0  0  0  0  0  0  0  0  0  0
  -21.8190   -4.0700   23.6970 C   0  0  0  0  0  3  0  0  0  0  0  0
  -21.9410   -4.8700   22.5490 C   0  0  0  0  0  0  0  0  0  0  0  0
  -22.3610   -4.3170   21.3860 F   0  0  0  0  0  0  0  0  0  0  0  0
  -21.2400   -3.8590   26.0050 F   0  0  0  0  0  0  0  0  0  0  0  0
  -22.7490  -13.6080   21.0700 C   0  0  0  0  0  0  0  0  0  0  0  0
  -22.0120  -12.9170   21.9320 N   0  0  0  0  0  0  0  0  0  0  0  0
  -22.3160  -14.6280   20.5340 O   0  0  0  0  0  0  0  0  0  0  0  0
  -22.3760  -12.0940   22.3890 H   0  0  0  0  0  0  0  0  0  0  0  0
  -21.0710  -13.2180   22.1410 H   0  0  0  0  0  0  0  0  0  0  0  0
  -25.3720  -15.2840   20.2720 N   0  0  0  0  0  0  0  0  0  0  0  0
  -24.5940  -15.9290   20.3600 H   0  0  0  0  0  0  0  0  0  0  0  0
  -26.2120  -15.7250   19.9200 H   0  0  0  0  0  0  0  0  0  0  0  0
  -27.4200  -24.4640   21.8940 C   0  0  0  0  0  1  0  0  0  0  0  0
  -27.8810  -24.5520   20.4320 C   0  0  0  0  0  3  0  0  0  0  0  0
  -28.2130  -26.0920   20.1910 O   0  0  0  0  0  0  0  0  0  0  0  0
  -24.6300  -31.8840   23.2070 C   0  0  0  0  0  0  0  0  0  0  0  0
  -27.1790  -27.1230   20.1600 C   0  0  0  0  0  0  0  0  0  0  0  0
  -23.4230  -30.4880   21.5780 C   0  0  0  0  0  3  0  0  0  0  0  0
  -24.8620  -28.9100   20.1430 C   0  0  0  0  0  0  0  0  0  0  0  0
  -25.9800  -30.7400   21.4000 C   0  0  0  0  0  2  0  0  0  0  0  0
  -26.0500  -29.3430   20.7460 C   0  0  0  0  0  0  0  0  0  0  0  0
  -27.2100  -28.4680   20.7340 C   0  0  0  0  0  3  0  0  0  0  0  0
  -25.9650  -26.8150   19.5090 C   0  0  0  0  0  3  0  0  0  0  0  0
  -24.8360  -27.6620   19.5060 C   0  0  0  0  0  3  0  0  0  0  0  0
  -23.6380  -29.8140   20.1980 C   0  0  0  0  0  2  0  0  0  0  0  0
  -24.6990  -31.0610   22.1150 N   0  0  0  0  0  0  0  0  0  0  0  0
  -23.5460  -32.1680   23.7400 O   0  0  0  0  0  0  0  0  0  0  0  0
  -22.7490  -29.4800   22.5450 C   0  0  0  0  0  0  0  0  0  0  0  0
  -21.4200  -29.3060   22.4260 N   0  0  0  0  0  0  0  0  0  0  0  0
  -23.4250  -28.8580   23.3670 O   0  0  0  0  0  0  0  0  0  0  0  0
  -20.9290  -29.8590   21.7370 H   0  0  0  0  0  0  0  0  0  0  0  0
  -18.0450  -28.0920   22.9530 C   0  0  0  0  0  0  0  0  0  0  0  0
  -20.6050  -28.3680   23.2040 C   0  0  0  0  0  3  0  0  0  0  0  0
  -20.7090  -26.9340   22.6330 C   0  0  0  0  0  2  0  0  0  0  0  0
  -19.6030  -26.6040   21.6260 C   0  0  0  0  0  2  0  0  0  0  0  0
  -18.2240  -26.7440   22.2770 C   0  0  0  0  0  2  0  0  0  0  0  0
  -19.1620  -28.8620   23.3740 C   0  0  0  0  0  0  0  0  0  0  0  0
  -18.9380  -30.1220   23.9690 C   0  0  0  0  0  3  0  0  0  0  0  0
  -17.6320  -30.6150   24.1450 C   0  0  0  0  0  3  0  0  0  0  0  0
  -16.5290  -29.8430   23.7370 C   0  0  0  0  0  3  0  0  0  0  0  0
  -16.7370  -28.5840   23.1480 C   0  0  0  0  0  3  0  0  0  0  0  0
  -25.9090  -32.5260   23.8260 C   0  0  0  0  0  3  0  0  0  0  0  0
  -25.5920  -33.9220   24.1660 N   0  0  0  0  0  0  0  0  0  0  0  0
  -25.9100  -34.9840   23.4130 C   0  0  0  0  0  0  0  0  0  0  0  0
  -26.5660  -34.8910   22.3730 O   0  0  0  0  0  0  0  0  0  0  0  0
  -25.0050  -34.0670   24.9740 H   0  0  0  0  0  0  0  0  0  0  0  0
  -24.1710  -36.7780   23.0990 C   0  0  0  0  0  1  0  0  0  0  0  0
  -25.4260  -36.3680   23.8890 C   0  0  0  0  0  3  0  0  0  0  0  0
  -27.5680  -37.2570   24.6970 C   0  0  0  0  0  1  0  0  0  0  0  0
  -26.4530  -37.4260   23.7690 N   0  0  0  0  0  0  0  0  0  0  0  0
  -26.0470  -38.3440   23.9260 H   0  0  0  0  0  0  0  0  0  0  0  0
  -26.4300  -31.7570   25.1030 C   0  0  1  0  0  0  0  0  0  0  0  0
  -25.3410  -31.5210   26.1760 C   0  0  0  0  0  1  0  0  0  0  0  0
  -27.0120  -30.3770   24.7170 C   0  0  0  0  0  1  0  0  0  0  0  0
  -27.5840  -32.5520   25.7570 C   0  0  0  0  0  1  0  0  0  0  0  0
  1  2  1  0
  1 51  1  0
  2  4  1  0
  3  1  2  0
  5  8  2  0
  5  6  1  0
  6  9  2  0
  8 10  1  0
  9  2  1  0
  9  7  1  0
 10 20  1  0
 10  7  2  0
 11  8  1  0
 12 20  1  0
 13 18  1  0
 14 15  1  0
 14 13  1  0
 16 15  1  0
 16 25  1  0
 16 17  1  0
 18 12  1  0
 18 17  1  0
 19 12  2  0
 20 21  1  0
 22 23  2  0
 23 42  1  0
 24 23  1  0
 24 27  1  0
 25 22  1  0
 25 26  1  0
 26 24  2  0
 27 28  1  0
 28 29  2  0
 30 33  1  0
 30 29  1  0
 31 30  2  0
 32 31  1  0
 32 27  2  0
 33 34  1  0
 34 35  1  0
 35 36  2  0
 37 36  1  0
 37 41  1  0
 38 37  2  0
 39 34  2  0
 39 38  1  0
 40 39  1  0
 42 43  1  0
 43 46  1  0
 43 45  1  0
 44 42  2  0
 47 48  1  0
 47 22  1  0
 49 47  1  0
 51 50  1  0
 52 51  1  0
 53 64  2  0
 54 52  1  0
 54 59  1  0
 55 63  1  0
 55 65  1  0
 56 62  1  0
 56 58  1  0
 57 63  1  0
 58 57  1  0
 59 58  2  0
 60 54  2  0
 61 60  1  0
 61 56  2  0
 62 55  1  0
 63 53  1  0
 65 67  2  0
 66 65  1  0
 68 66  1  0
 69 78  2  0
 69 74  1  0
 70 66  1  0
 70 74  1  0
 71 70  1  0
 72 73  1  0
 72 71  1  0
 73 69  1  0
 74 75  2  0
 75 76  1  0
 77 76  2  0
 78 77  1  0
 79 53  1  0
 79 80  1  0
 79 89  1  0
 80 83  1  0
 81 85  1  0
 81 80  1  0
 82 81  2  0
 85 84  1  0
 87 85  1  0
 87 88  1  0
 87 86  1  0
 89 92  1  1
 89 90  1  0
 91 89  1  0
M  ISO  4  12 100  20 100  51 101  52 101
M  END
>  <TORSDO>  (71) 
F 18

>  <SCORE>  (71) 
-14.562

>  <name>  (71) 
70

>  <ligand_id>  (71) 
70

>  <original_smiles>  (71) 
[H]c1c([H])c([H])c2c(c1[H])C([H])([H])C([H])([H])C([H])([H])C2([H])N([H])C(=O)C1([H])N(C(=O)C([H])(N([H])C(=O)C([H])(N([H])C([H])([H])[H])C([H])([H])[H])C(C([H])([H])[H])(C([H])([H])[H])C([H])([H])[H])C([H])([H])c2c([H])c(OC([H])(C(=O)N([H])c3c([H])c([H])c(C([H])([H])[H])c(N([H])C(=O)N4C([H])([H])C([H])([H])C([H])([H])C([H])(n5nc(-c6c([H])c([H])c(Oc7c([H])c([H])c(F)c([H])c7F)c([H])c6[H])c(C(=O)N([H])[H])c5N([H])[H])C4([H])[H])c3[H])C([H])([H])[H])c([H])c([H])c2C1([H])[H]

>  <smiles>  (71) 
[H]c1c([H])c([H])c2c(c1[H])C([H])([H])C([H])([H])C([H])([H])C2([H])N([H])C(=O)C1([H])N(C(=O)C([H])(N([H])C(=O)C([H])(N([H])C([H])([H])[H])C([H])([H])[H])C(C([H])([H])[H])(C([H])([H])[H])C([H])([H])[H])C([H])([H])c2c([H])c(OC([H])(C(=O)N([H])c3c([H])c([H])c(C([H])([H])[H])c(N([H])C(=O)N4C([H])([H])C([H])([H])C([H])([H])C([H])(n5nc(-c6c([H])c([H])c(Oc7c([H])c([H])c(F)c([H])c7F)c([H])c6[H])c(C(=O)N([H])[H])c5N([H])[H])C4([H])[H])c3[H])C([H])([H])[H])c([H])c([H])c2C1([H])[H]

$$$$
71:0:0
     RDKit          3D

 92100  0  0  1  0  0  0  0  0999 V2000
  -29.2050  -22.3760   19.9710 C   0  0  0  0  0  0  0  0  0  0  0  0
  -29.4770  -21.2170   20.6870 N   0  0  0  0  0  0  0  0  0  0  0  0
  -29.1430  -22.3320   18.7400 O   0  0  0  0  0  0  0  0  0  0  0  0
  -29.2860  -21.2770   21.6800 H   0  0  0  0  0  0  0  0  0  0  0  0
  -32.0820  -18.9030   19.1490 C   0  0  0  0  0  3  0  0  0  0  0  0
  -31.5730  -17.6150   19.3900 C   0  0  0  0  0  3  0  0  0  0  0  0
  -29.6950  -18.6140   20.5500 C   0  0  0  0  0  3  0  0  0  0  0  0
  -31.4300  -20.0610   19.6130 C   0  0  0  0  0  0  0  0  0  0  0  0
  -30.4010  -17.3960   20.1570 C   0  0  0  0  0  0  0  0  0  0  0  0
  -30.1590  -19.9690   20.2520 C   0  0  0  0  0  0  0  0  0  0  0  0
  -32.1860  -21.3770   19.4520 C   0  0  0  0  0  1  0  0  0  0  0  0
  -30.6450  -14.7840   20.3110 C   0  0  0  0  0  0  0  0  0  0  0  0
  -30.3410  -12.5210   19.3160 C   0  0  0  0  0  2  0  0  0  0  0  0
  -29.4000  -12.6130   18.0980 C   0  0  0  0  0  2  0  0  0  0  0  0
  -27.9340  -12.4550   18.5440 C   0  0  0  0  0  2  0  0  0  0  0  0
  -27.5800  -13.3440   19.7650 C   0  0  0  0  0  3  0  0  0  0  0  0
  -28.6550  -13.2780   20.8740 C   0  0  0  0  0  2  0  0  0  0  0  0
  -29.9470  -13.5970   20.2560 N   0  0  0  0  0  0  0  0  0  0  0  0
  -31.8460  -14.7670   20.0440 O   0  0  0  0  0  0  0  0  0  0  0  0
  -29.9640  -15.9940   20.4590 N   0  0  0  0  0  0  0  0  0  0  0  0
  -29.0010  -15.8940   20.7400 H   0  0  0  0  0  0  0  0  0  0  0  0
  -25.2020  -13.9360   20.5200 C   0  0  0  0  0  0  0  0  0  0  0  0
  -24.1360  -13.1640   20.8950 C   0  0  0  0  0  0  0  0  0  0  0  0
  -24.5960  -11.8110   20.8590 C   0  0  0  0  0  0  0  0  0  0  0  0
  -26.2420  -13.0550   20.2740 N   0  0  0  0  0  0  0  0  0  0  0  0
  -25.8860  -11.7720   20.5420 N   0  0  0  0  0  0  0  0  0  0  0  0
  -23.8640  -10.5490   21.0470 C   0  0  0  0  0  0  0  0  0  0  0  0
  -24.2940   -9.5780   21.9770 C   0  0  0  0  0  3  0  0  0  0  0  0
  -23.5620   -8.3830   22.1550 C   0  0  0  0  0  3  0  0  0  0  0  0
  -22.3840   -8.1540   21.4040 C   0  0  0  0  0  0  0  0  0  0  0  0
  -21.9740   -9.1150   20.4640 C   0  0  0  0  0  3  0  0  0  0  0  0
  -22.7060  -10.3000   20.2830 C   0  0  0  0  0  3  0  0  0  0  0  0
  -21.6240   -7.0130   21.4930 O   0  0  0  0  0  0  0  0  0  0  0  0
  -21.5760   -6.2680   22.6420 C   0  0  0  0  0  0  0  0  0  0  0  0
  -21.1490   -6.8200   23.8710 C   0  0  0  0  0  3  0  0  0  0  0  0
  -21.0480   -5.9990   25.0130 C   0  0  0  0  0  3  0  0  0  0  0  0
  -21.3630   -4.6290   24.9270 C   0  0  0  0  0  0  0  0  0  0  0  0
  -21.7840   -4.0790   23.7040 C   0  0  0  0  0  3  0  0  0  0  0  0
  -21.8860   -4.8950   22.5640 C   0  0  0  0  0  0  0  0  0  0  0  0
  -22.2700   -4.3540   21.3840 F   0  0  0  0  0  0  0  0  0  0  0  0
  -21.2590   -3.8400   26.0230 F   0  0  0  0  0  0  0  0  0  0  0  0
  -22.7420  -13.6450   21.1740 C   0  0  0  0  0  0  0  0  0  0  0  0
  -22.0140  -12.9460   22.0380 N   0  0  0  0  0  0  0  0  0  0  0  0
  -22.3070  -14.6750   20.6610 O   0  0  0  0  0  0  0  0  0  0  0  0
  -22.3780  -12.1120   22.4730 H   0  0  0  0  0  0  0  0  0  0  0  0
  -21.0790  -13.2500   22.2680 H   0  0  0  0  0  0  0  0  0  0  0  0
  -25.3690  -15.3060   20.3430 N   0  0  0  0  0  0  0  0  0  0  0  0
  -24.6020  -15.9600   20.4470 H   0  0  0  0  0  0  0  0  0  0  0  0
  -26.2120  -15.7390   19.9880 H   0  0  0  0  0  0  0  0  0  0  0  0
  -28.9520  -23.7940   20.6690 C   0  0  0  0  0  3  0  0  0  0  0  0
  -28.2140  -24.9770   19.8490 C   0  0  0  0  0  3  0  0  0  0  0  0
  -28.3060  -26.4270   20.2450 O   0  0  0  0  0  0  0  0  0  0  0  0
  -24.6060  -31.8890   23.2230 C   0  0  0  0  0  0  0  0  0  0  0  0
  -27.1950  -27.3010   20.1530 C   0  0  0  0  0  0  0  0  0  0  0  0
  -23.3940  -30.4940   21.5870 C   0  0  0  0  0  3  0  0  0  0  0  0
  -24.8370  -28.9480   20.1470 C   0  0  0  0  0  0  0  0  0  0  0  0
  -25.9370  -30.7990   21.3990 C   0  0  0  0  0  2  0  0  0  0  0  0
  -26.0090  -29.4200   20.7500 C   0  0  0  0  0  0  0  0  0  0  0  0
  -27.1860  -28.6060   20.7490 C   0  0  0  0  0  3  0  0  0  0  0  0
  -26.0040  -26.9080   19.4950 C   0  0  0  0  0  3  0  0  0  0  0  0
  -24.8400  -27.6990   19.5100 C   0  0  0  0  0  3  0  0  0  0  0  0
  -23.6030  -29.8250   20.2040 C   0  0  0  0  0  2  0  0  0  0  0  0
  -24.6650  -31.0800   22.1240 N   0  0  0  0  0  0  0  0  0  0  0  0
  -23.5240  -32.1670   23.7620 O   0  0  0  0  0  0  0  0  0  0  0  0
  -22.7360  -29.4750   22.5470 C   0  0  0  0  0  0  0  0  0  0  0  0
  -21.4080  -29.2990   22.4280 N   0  0  0  0  0  0  0  0  0  0  0  0
  -23.4170  -28.8480   23.3630 O   0  0  0  0  0  0  0  0  0  0  0  0
  -20.9180  -29.8580   21.7440 H   0  0  0  0  0  0  0  0  0  0  0  0
  -18.0320  -28.1010   22.9370 C   0  0  0  0  0  0  0  0  0  0  0  0
  -20.5910  -28.3600   23.2000 C   0  0  0  0  0  3  0  0  0  0  0  0
  -20.6910  -26.9290   22.6250 C   0  0  0  0  0  2  0  0  0  0  0  0
  -19.5850  -26.6080   21.6140 C   0  0  0  0  0  2  0  0  0  0  0  0
  -18.2050  -26.7530   22.2620 C   0  0  0  0  0  2  0  0  0  0  0  0
  -19.1520  -28.8630   23.3640 C   0  0  0  0  0  0  0  0  0  0  0  0
  -18.9360  -30.1260   23.9570 C   0  0  0  0  0  3  0  0  0  0  0  0
  -17.6290  -30.6250   24.1290 C   0  0  0  0  0  3  0  0  0  0  0  0
  -16.5240  -29.8600   23.7190 C   0  0  0  0  0  3  0  0  0  0  0  0
  -16.7270  -28.6000   23.1280 C   0  0  0  0  0  3  0  0  0  0  0  0
  -25.8890  -32.5210   23.8420 C   0  0  0  0  0  3  0  0  0  0  0  0
  -26.4090  -31.7500   25.1170 C   0  0  1  0  0  0  0  0  0  0  0  0
  -25.3190  -31.5150   26.1880 C   0  0  0  0  0  1  0  0  0  0  0  0
  -26.9900  -30.3710   24.7240 C   0  0  0  0  0  1  0  0  0  0  0  0
  -27.5600  -32.5460   25.7750 C   0  0  0  0  0  1  0  0  0  0  0  0
  -25.5800  -33.9200   24.1760 N   0  0  0  0  0  0  0  0  0  0  0  0
  -25.9060  -34.9750   23.4160 C   0  0  0  0  0  0  0  0  0  0  0  0
  -26.5670  -34.8720   22.3800 O   0  0  0  0  0  0  0  0  0  0  0  0
  -24.9940  -34.0730   24.9820 H   0  0  0  0  0  0  0  0  0  0  0  0
  -24.1770  -36.7720   23.0730 C   0  0  0  0  0  1  0  0  0  0  0  0
  -25.4200  -36.3630   23.8800 C   0  0  0  0  0  3  0  0  0  0  0  0
  -27.5580  -37.2450   24.7080 C   0  0  0  0  0  1  0  0  0  0  0  0
  -26.4530  -37.4150   23.7660 N   0  0  0  0  0  0  0  0  0  0  0  0
  -26.0480  -38.3360   23.9140 H   0  0  0  0  0  0  0  0  0  0  0  0
  1 50  1  0
  1  2  1  0
  2  4  1  0
  3  1  2  0
  5  6  2  0
  5  8  1  0
  6  9  1  0
  8 10  2  0
  9 20  1  0
  9  7  2  0
 10  7  1  0
 10  2  1  0
 11  8  1  0
 12 20  1  0
 13 18  1  0
 14 15  1  0
 14 13  1  0
 16 15  1  0
 16 25  1  0
 16 17  1  0
 18 12  1  0
 18 17  1  0
 19 12  2  0
 20 21  1  0
 22 23  2  0
 23 42  1  0
 24 23  1  0
 24 27  1  0
 25 22  1  0
 25 26  1  0
 26 24  2  0
 27 28  1  0
 28 29  2  0
 30 33  1  0
 30 29  1  0
 31 30  2  0
 32 31  1  0
 32 27  2  0
 33 34  1  0
 34 35  1  0
 35 36  2  0
 37 36  1  0
 37 41  1  0
 38 37  2  0
 39 34  2  0
 39 38  1  0
 40 39  1  0
 42 43  1  0
 43 46  1  0
 43 45  1  0
 44 42  2  0
 47 48  1  0
 47 22  1  0
 49 47  1  0
 51 52  1  0
 51 50  2  0
 53 64  2  0
 54 52  1  0
 54 59  1  0
 55 63  1  0
 55 65  1  0
 56 62  1  0
 56 58  1  0
 57 63  1  0
 58 57  1  0
 59 58  2  0
 60 61  1  0
 60 54  2  0
 61 56  2  0
 62 55  1  0
 63 53  1  0
 65 67  2  0
 66 65  1  0
 68 66  1  0
 69 78  2  0
 69 74  1  0
 70 66  1  0
 70 74  1  0
 71 70  1  0
 72 73  1  0
 72 71  1  0
 73 69  1  0
 74 75  2  0
 75 76  1  0
 77 76  2  0
 78 77  1  0
 79 53  1  0
 79 84  1  0
 79 80  1  0
 80 83  1  1
 80 81  1  0
 82 80  1  0
 84 87  1  0
 85 89  1  0
 85 84  1  0
 86 85  2  0
 89 88  1  0
 91 89  1  0
 91 92  1  0
 91 90  1  0
M  ISO  4  12 100  20 100  51 101  52 101
M  END
>  <TORSDO>  (72) 
F 19

>  <SCORE>  (72) 
-14.267

>  <name>  (72) 
71

>  <ligand_id>  (72) 
71

>  <original_smiles>  (72) 
[H]c1c([H])c([H])c2c(c1[H])C([H])([H])C([H])([H])C([H])([H])C2([H])N([H])C(=O)C1([H])N(C(=O)C([H])(N([H])C(=O)C([H])(N([H])C([H])([H])[H])C([H])([H])[H])C(C([H])([H])[H])(C([H])([H])[H])C([H])([H])[H])C([H])([H])c2c([H])c(OC([H])([H])C([H])([H])C(=O)N([H])c3c([H])c(N([H])C(=O)N4C([H])([H])C([H])([H])C([H])([H])C([H])(n5nc(-c6c([H])c([H])c(Oc7c([H])c([H])c(F)c([H])c7F)c([H])c6[H])c(C(=O)N([H])[H])c5N([H])[H])C4([H])[H])c([H])c([H])c3C([H])([H])[H])c([H])c([H])c2C1([H])[H]

>  <smiles>  (72) 
[H]c1c([H])c([H])c2c(c1[H])C([H])([H])C([H])([H])C([H])([H])C2([H])N([H])C(=O)C1([H])N(C(=O)C([H])(N([H])C(=O)C([H])(N([H])C([H])([H])[H])C([H])([H])[H])C(C([H])([H])[H])(C([H])([H])[H])C([H])([H])[H])C([H])([H])c2c([H])c(OC([H])([H])C([H])([H])C(=O)N([H])c3c([H])c(N([H])C(=O)N4C([H])([H])C([H])([H])C([H])([H])C([H])(n5nc(-c6c([H])c([H])c(Oc7c([H])c([H])c(F)c([H])c7F)c([H])c6[H])c(C(=O)N([H])[H])c5N([H])[H])C4([H])[H])c([H])c([H])c3C([H])([H])[H])c([H])c([H])c2C1([H])[H]

$$$$
72:0:0
     RDKit          3D

 96105  0  0  1  0  0  0  0  0999 V2000
  -28.0450  -21.5810   20.9340 C   0  0  0  0  0  0  0  0  0  0  0  0
  -29.6250  -22.9850   20.0820 C   0  0  0  0  0  2  0  0  0  0  0  0
  -27.4890  -23.0210   21.0900 C   0  0  0  0  0  3  0  0  0  0  0  0
  -28.3710  -23.9510   20.2170 C   0  0  0  0  0  3  0  0  0  0  0  0
  -29.2750  -21.5320   20.3760 N   0  0  0  0  0  0  0  0  0  0  0  0
  -27.3870  -20.6080   21.3180 O   0  0  0  0  0  0  0  0  0  0  0  0
  -32.3830  -19.3330   19.7910 C   0  0  0  0  0  3  0  0  0  0  0  0
  -31.9820  -18.0430   20.1520 C   0  0  0  0  0  3  0  0  0  0  0  0
  -29.7750  -18.9180   20.5940 C   0  0  0  0  0  3  0  0  0  0  0  0
  -31.5150  -20.4410   19.8100 C   0  0  0  0  0  0  0  0  0  0  0  0
  -30.1600  -20.3040   20.2580 C   0  0  0  0  0  0  0  0  0  0  0  0
  -30.6610  -17.7520   20.5490 C   0  0  0  0  0  0  0  0  0  0  0  0
  -30.9990  -15.1360   20.7070 C   0  0  0  0  0  0  0  0  0  0  0  0
  -30.8040  -12.8540   19.7180 C   0  0  0  0  0  2  0  0  0  0  0  0
  -29.9610  -12.9170   18.4270 C   0  0  0  0  0  2  0  0  0  0  0  0
  -28.4670  -12.7580   18.7610 C   0  0  0  0  0  2  0  0  0  0  0  0
  -28.0180  -13.6790   19.9250 C   0  0  0  0  0  3  0  0  0  0  0  0
  -28.9890  -13.6200   21.1230 C   0  0  0  0  0  2  0  0  0  0  0  0
  -30.3280  -13.9360   20.6160 N   0  0  0  0  0  0  0  0  0  0  0  0
  -32.2120  -15.1310   20.4950 O   0  0  0  0  0  0  0  0  0  0  0  0
  -30.2810  -16.3300   20.8490 N   0  0  0  0  0  0  0  0  0  0  0  0
  -29.3150  -16.1920   21.1070 H   0  0  0  0  0  0  0  0  0  0  0  0
  -25.6000  -14.3070   20.4880 C   0  0  0  0  0  0  0  0  0  0  0  0
  -24.5000  -13.5480   20.7820 C   0  0  0  0  0  0  0  0  0  0  0  0
  -24.9440  -12.1910   20.7830 C   0  0  0  0  0  0  0  0  0  0  0  0
  -26.6420  -13.4110   20.3230 N   0  0  0  0  0  0  0  0  0  0  0  0
  -26.2510  -12.1330   20.5640 N   0  0  0  0  0  0  0  0  0  0  0  0
  -24.1860  -10.9390   20.9190 C   0  0  0  0  0  0  0  0  0  0  0  0
  -24.5370   -9.9620   21.8760 C   0  0  0  0  0  3  0  0  0  0  0  0
  -23.7800   -8.7770   21.9990 C   0  0  0  0  0  3  0  0  0  0  0  0
  -22.6590   -8.5610   21.1640 C   0  0  0  0  0  0  0  0  0  0  0  0
  -22.3270   -9.5270   20.1960 C   0  0  0  0  0  3  0  0  0  0  0  0
  -23.0840  -10.7030   20.0710 C   0  0  0  0  0  3  0  0  0  0  0  0
  -21.8810   -7.4300   21.1940 O   0  0  0  0  0  0  0  0  0  0  0  0
  -21.7480   -6.6790   22.3360 C   0  0  0  0  0  0  0  0  0  0  0  0
  -21.2350   -7.2280   23.5310 C   0  0  0  0  0  3  0  0  0  0  0  0
  -21.0480   -6.4050   24.6610 C   0  0  0  0  0  3  0  0  0  0  0  0
  -21.3640   -5.0360   24.5940 C   0  0  0  0  0  0  0  0  0  0  0  0
  -21.8700   -4.4860   23.4030 C   0  0  0  0  0  3  0  0  0  0  0  0
  -22.0580   -5.3060   22.2760 C   0  0  0  0  0  0  0  0  0  0  0  0
  -22.5250   -4.7670   21.1240 F   0  0  0  0  0  0  0  0  0  0  0  0
  -21.1780   -4.2430   25.6760 F   0  0  0  0  0  0  0  0  0  0  0  0
  -23.0960  -14.0490   20.9550 C   0  0  0  0  0  0  0  0  0  0  0  0
  -22.3000  -13.3670   21.7720 N   0  0  0  0  0  0  0  0  0  0  0  0
  -22.7120  -15.0800   20.4030 O   0  0  0  0  0  0  0  0  0  0  0  0
  -22.6250  -12.5330   22.2370 H   0  0  0  0  0  0  0  0  0  0  0  0
  -21.3540  -13.6850   21.9330 H   0  0  0  0  0  0  0  0  0  0  0  0
  -25.7990  -15.6740   20.3230 N   0  0  0  0  0  0  0  0  0  0  0  0
  -25.0320  -16.3360   20.3600 H   0  0  0  0  0  0  0  0  0  0  0  0
  -26.6720  -16.0930   20.0280 H   0  0  0  0  0  0  0  0  0  0  0  0
  -33.2810  -22.1980   19.7760 C   0  0  0  0  0  2  0  0  0  0  0  0
  -32.1400  -21.6710   19.3010 C   0  0  0  0  0  3  0  0  0  0  0  0
  -25.2100  -23.9350   21.9060 C   0  0  0  0  0  1  0  0  0  0  0  0
  -25.9570  -23.1370   20.8280 C   0  0  0  0  0  2  0  0  0  0  0  0
  -28.4610  -25.4800   20.7870 C   0  0  0  0  0  2  0  0  0  0  0  0
  -28.5310  -26.7670   20.0170 O   0  0  0  0  0  0  0  0  0  0  0  0
  -24.6680  -31.9890   23.2730 C   0  0  0  0  0  0  0  0  0  0  0  0
  -27.4190  -27.6330   20.0370 C   0  0  0  0  0  0  0  0  0  0  0  0
  -23.5180  -30.6370   21.5570 C   0  0  0  0  0  3  0  0  0  0  0  0
  -25.0250  -29.2050   20.0610 C   0  0  0  0  0  0  0  0  0  0  0  0
  -26.0470  -31.0390   21.4060 C   0  0  0  0  0  2  0  0  0  0  0  0
  -26.1760  -29.6950   20.6910 C   0  0  0  0  0  0  0  0  0  0  0  0
  -27.3820  -28.9230   20.6650 C   0  0  0  0  0  3  0  0  0  0  0  0
  -26.2470  -27.2050   19.3820 C   0  0  0  0  0  3  0  0  0  0  0  0
  -25.0630  -27.9680   19.3970 C   0  0  0  0  0  3  0  0  0  0  0  0
  -23.7640  -30.0450   20.1450 C   0  0  0  0  0  2  0  0  0  0  0  0
  -24.7620  -31.2390   22.1360 N   0  0  0  0  0  0  0  0  0  0  0  0
  -23.5730  -32.2050   23.8150 O   0  0  0  0  0  0  0  0  0  0  0  0
  -22.8860  -29.5500   22.4600 C   0  0  0  0  0  0  0  0  0  0  0  0
  -21.5650  -29.3440   22.3230 N   0  0  0  0  0  0  0  0  0  0  0  0
  -23.5840  -28.8980   23.2420 O   0  0  0  0  0  0  0  0  0  0  0  0
  -21.0640  -29.9260   21.6680 H   0  0  0  0  0  0  0  0  0  0  0  0
  -18.2130  -28.0580   22.7860 C   0  0  0  0  0  0  0  0  0  0  0  0
  -20.7710  -28.3430   23.0380 C   0  0  0  0  0  3  0  0  0  0  0  0
  -20.8890  -26.9550   22.3680 C   0  0  0  0  0  2  0  0  0  0  0  0
  -19.7780  -26.6820   21.3480 C   0  0  0  0  0  2  0  0  0  0  0  0
  -18.4010  -26.7600   22.0190 C   0  0  0  0  0  2  0  0  0  0  0  0
  -19.3260  -28.8090   23.2500 C   0  0  0  0  0  0  0  0  0  0  0  0
  -19.0970  -30.0280   23.9280 C   0  0  0  0  0  3  0  0  0  0  0  0
  -17.7870  -30.4940   24.1460 C   0  0  0  0  0  3  0  0  0  0  0  0
  -16.6890  -29.7400   23.6980 C   0  0  0  0  0  3  0  0  0  0  0  0
  -16.9020  -28.5240   23.0230 C   0  0  0  0  0  3  0  0  0  0  0  0
  -25.9280  -32.6280   23.9320 C   0  0  0  0  0  3  0  0  0  0  0  0
  -26.4170  -31.8540   25.2190 C   0  0  1  0  0  0  0  0  0  0  0  0
  -25.2940  -31.5950   26.2500 C   0  0  0  0  0  1  0  0  0  0  0  0
  -27.0310  -30.4860   24.8350 C   0  0  0  0  0  1  0  0  0  0  0  0
  -27.5380  -32.6570   25.9210 C   0  0  0  0  0  1  0  0  0  0  0  0
  -25.5920  -34.0210   24.2630 N   0  0  0  0  0  0  0  0  0  0  0  0
  -25.9250  -35.0830   23.5180 C   0  0  0  0  0  0  0  0  0  0  0  0
  -26.6160  -34.9960   22.4990 O   0  0  0  0  0  0  0  0  0  0  0  0
  -24.9760  -34.1610   25.0500 H   0  0  0  0  0  0  0  0  0  0  0  0
  -24.1780  -36.8560   23.1510 C   0  0  0  0  0  1  0  0  0  0  0  0
  -25.4110  -36.4610   23.9770 C   0  0  0  0  0  3  0  0  0  0  0  0
  -27.5170  -37.3730   24.8510 C   0  0  0  0  0  1  0  0  0  0  0  0
  -26.4320  -37.5290   23.8870 N   0  0  0  0  0  0  0  0  0  0  0  0
  -26.0110  -38.4430   24.0320 H   0  0  0  0  0  0  0  0  0  0  0  0
  1  3  1  0
  1  6  2  0
  2  4  1  0
  2  5  1  0
  3 54  1  0
  4 55  1  0
  4  3  1  0
  5  1  1  0
  7 10  2  0
  7  8  1  0
  8 12  2  0
 10 11  1  0
 11  5  1  0
 11  9  2  0
 12  9  1  0
 12 21  1  0
 13 21  1  0
 14 19  1  0
 15 16  1  0
 15 14  1  0
 17 16  1  0
 17 26  1  0
 17 18  1  0
 19 13  1  0
 19 18  1  0
 20 13  2  0
 21 22  1  0
 23 24  2  0
 24 25  1  0
 24 43  1  0
 25 28  1  0
 26 23  1  0
 26 27  1  0
 27 25  2  0
 28 29  1  0
 29 30  2  0
 31 34  1  0
 31 30  1  0
 32 31  2  0
 33 32  1  0
 33 28  2  0
 34 35  1  0
 35 36  1  0
 36 37  2  0
 38 37  1  0
 38 42  1  0
 39 38  2  0
 40 35  2  0
 40 39  1  0
 41 40  1  0
 43 44  1  0
 44 47  1  0
 44 46  1  0
 45 43  2  0
 48 49  1  0
 48 23  1  0
 50 48  1  0
 52 51  2  0
 52 10  1  0
 54 53  1  0
 56 58  1  0
 56 55  1  0
 57 68  2  0
 58 63  1  0
 59 67  1  0
 59 69  1  0
 60 66  1  0
 60 62  1  0
 61 67  1  0
 62 61  1  0
 63 62  2  0
 64 65  1  0
 64 58  2  0
 65 60  2  0
 66 59  1  0
 67 57  1  0
 69 71  2  0
 70 69  1  0
 72 70  1  0
 73 82  2  0
 73 78  1  0
 74 70  1  0
 74 78  1  0
 75 74  1  0
 76 77  1  0
 76 75  1  0
 77 73  1  0
 78 79  2  0
 79 80  1  0
 81 80  2  0
 82 81  1  0
 83 57  1  0
 83 88  1  0
 83 84  1  0
 84 87  1  1
 84 85  1  0
 86 84  1  0
 88 91  1  0
 89 93  1  0
 89 88  1  0
 90 89  2  0
 93 92  1  0
 95 93  1  0
 95 96  1  0
 95 94  1  0
M  ISO  4  13 100  21 100  55 101  56 101
M  END
>  <TORSDO>  (73) 
F 20

>  <SCORE>  (73) 
-12.967

>  <name>  (73) 
72

>  <ligand_id>  (73) 
72

>  <original_smiles>  (73) 
[H]C([H])=C([H])c1c([H])c([H])c(N([H])C(=O)N2C([H])([H])C([H])([H])C([H])([H])C([H])(n3nc(-c4c([H])c([H])c(Oc5c([H])c([H])c(F)c([H])c5F)c([H])c4[H])c(C(=O)N([H])[H])c3N([H])[H])C2([H])[H])c([H])c1N1C(=O)C([H])(C([H])([H])C([H])([H])[H])C([H])(C([H])([H])Oc2c([H])c([H])c3c(c2[H])C([H])([H])N(C(=O)C([H])(N([H])C(=O)C([H])(N([H])C([H])([H])[H])C([H])([H])[H])C(C([H])([H])[H])(C([H])([H])[H])C([H])([H])[H])C([H])(C(=O)N([H])C2([H])c4c([H])c([H])c([H])c([H])c4C([H])([H])C([H])([H])C2([H])[H])C3([H])[H])C1([H])[H]

>  <smiles>  (73) 
[H]C([H])=C([H])c1c([H])c([H])c(N([H])C(=O)N2C([H])([H])C([H])([H])C([H])([H])C([H])(n3nc(-c4c([H])c([H])c(Oc5c([H])c([H])c(F)c([H])c5F)c([H])c4[H])c(C(=O)N([H])[H])c3N([H])[H])C2([H])[H])c([H])c1N1C(=O)C([H])(C([H])([H])C([H])([H])[H])C([H])(C([H])([H])Oc2c([H])c([H])c3c(c2[H])C([H])([H])N(C(=O)C([H])(N([H])C(=O)C([H])(N([H])C([H])([H])[H])C([H])([H])[H])C(C([H])([H])[H])(C([H])([H])[H])C([H])([H])[H])C([H])(C(=O)N([H])C2([H])c4c([H])c([H])c([H])c([H])c4C([H])([H])C([H])([H])C2([H])[H])C3([H])[H])C1([H])[H]

$$$$
73:0:0
     RDKit          3D

 98105  0  0  1  0  0  0  0  0999 V2000
  -28.2660  -16.6210   20.5800 C   0  0  0  0  0  3  0  0  0  0  0  0
  -30.0590  -18.2680   20.5840 C   0  0  0  0  0  3  0  0  0  0  0  0
  -27.3510  -17.6130   20.1880 C   0  0  0  0  0  0  0  0  0  0  0  0
  -29.1320  -19.3450   20.1710 C   0  0  0  0  0  0  0  0  0  0  0  0
  -29.6370  -16.8740   20.7850 C   0  0  0  0  0  0  0  0  0  0  0  0
  -27.7840  -18.9330   19.9600 C   0  0  0  0  0  0  0  0  0  0  0  0
  -26.8460  -19.8060   19.5230 F   0  0  0  0  0  0  0  0  0  0  0  0
  -31.0170  -14.5570   20.9490 C   0  0  0  0  0  0  0  0  0  0  0  0
  -30.9880  -12.0820   20.4980 C   0  0  0  0  0  2  0  0  0  0  0  0
  -30.2210  -11.8200   19.1800 C   0  0  0  0  0  2  0  0  0  0  0  0
  -28.7030  -11.7210   19.4300 C   0  0  0  0  0  2  0  0  0  0  0  0
  -28.1790  -12.8710   20.3270 C   0  0  0  0  0  3  0  0  0  0  0  0
  -29.0650  -13.0520   21.5810 C   0  0  0  0  0  2  0  0  0  0  0  0
  -30.4430  -13.3120   21.1250 N   0  0  0  0  0  0  0  0  0  0  0  0
  -32.1710  -14.6500   20.5170 O   0  0  0  0  0  0  0  0  0  0  0  0
  -30.2840  -15.6560   21.3640 N   0  0  0  0  0  0  0  0  0  0  0  0
  -29.6660  -15.2740   22.0630 H   0  0  0  0  0  0  0  0  0  0  0  0
  -25.7980  -13.6570   20.8770 C   0  0  0  0  0  3  0  0  0  0  0  0
  -24.6360  -12.9760   21.1150 C   0  0  0  0  0  0  0  0  0  0  0  0
  -24.9690  -11.5880   21.0290 C   0  0  0  0  0  0  0  0  0  0  0  0
  -26.7720  -12.6920   20.6740 N   0  0  0  0  0  0  0  0  0  0  0  0
  -26.2720  -11.4380   20.8210 N   0  0  0  0  0  0  0  0  0  0  0  0
  -24.1100  -10.3980   21.0700 C   0  0  0  0  0  0  0  0  0  0  0  0
  -24.4230   -9.2900   21.8900 C   0  0  0  0  0  3  0  0  0  0  0  0
  -23.5710   -8.1650   21.9270 C   0  0  0  0  0  3  0  0  0  0  0  0
  -22.3920   -8.1410   21.1450 C   0  0  0  0  0  0  0  0  0  0  0  0
  -22.0970   -9.2360   20.3140 C   0  0  0  0  0  3  0  0  0  0  0  0
  -22.9490  -10.3520   20.2730 C   0  0  0  0  0  3  0  0  0  0  0  0
  -21.5210   -7.0780   21.0980 O   0  0  0  0  0  0  0  0  0  0  0  0
  -21.3720   -6.2220   22.1580 C   0  0  0  0  0  0  0  0  0  0  0  0
  -20.9990   -6.6820   23.4410 C   0  0  0  0  0  3  0  0  0  0  0  0
  -20.7880   -5.7600   24.4860 C   0  0  0  0  0  3  0  0  0  0  0  0
  -20.9410   -4.3810   24.2500 C   0  0  0  0  0  0  0  0  0  0  0  0
  -21.3060   -3.9200   22.9730 C   0  0  0  0  0  3  0  0  0  0  0  0
  -21.5170   -4.8390   21.9300 C   0  0  0  0  0  0  0  0  0  0  0  0
  -21.8490   -4.3890   20.6950 F   0  0  0  0  0  0  0  0  0  0  0  0
  -20.7310   -3.4940   25.2510 F   0  0  0  0  0  0  0  0  0  0  0  0
  -23.2730  -13.5770   21.3070 C   0  0  0  0  0  0  0  0  0  0  0  0
  -22.4220  -12.9270   22.0940 N   0  0  0  0  0  0  0  0  0  0  0  0
  -22.9700  -14.6540   20.7950 O   0  0  0  0  0  0  0  0  0  0  0  0
  -22.6780  -12.0560   22.5320 H   0  0  0  0  0  0  0  0  0  0  0  0
  -21.5040  -13.3110   22.2620 H   0  0  0  0  0  0  0  0  0  0  0  0
  -26.1040  -15.0090   20.7840 N   0  0  0  0  0  1  0  0  0  0  0  0
  -25.3830  -15.7180   20.8590 H   0  0  0  0  0  0  0  0  0  0  0  0
  -26.9780  -15.3610   20.4210 H   0  0  0  0  0  0  0  0  0  0  0  0
  -30.4950  -21.4050   19.4160 C   0  0  0  0  0  0  0  0  0  0  0  0
  -28.4400  -21.9650   20.1850 C   0  0  0  0  0  2  0  0  0  0  0  0
  -30.3500  -22.9490   19.2270 C   0  0  0  0  0  3  0  0  0  0  0  0
  -29.1290  -23.3910   20.0680 C   0  0  0  0  0  3  0  0  0  0  0  0
  -31.6350  -23.7200   19.5770 C   0  0  0  0  0  1  0  0  0  0  0  0
  -29.4110  -20.8210   19.9670 N   0  0  0  0  0  0  0  0  0  0  0  0
  -31.5200  -20.8080   19.0700 O   0  0  0  0  0  0  0  0  0  0  0  0
  -28.2100  -24.6370   19.5420 C   0  0  0  0  0  2  0  0  0  0  0  0
  -28.4550  -26.1180   19.7470 O   0  0  0  0  0  0  0  0  0  0  0  0
  -24.6220  -31.3900   23.0050 C   0  0  0  0  0  0  0  0  0  0  0  0
  -27.3360  -26.9960   19.7320 C   0  0  0  0  0  0  0  0  0  0  0  0
  -23.4430  -30.0140   21.3320 C   0  0  0  0  0  3  0  0  0  0  0  0
  -24.9240  -28.5740   19.8190 C   0  0  0  0  0  0  0  0  0  0  0  0
  -25.9730  -30.4150   21.1260 C   0  0  0  0  0  2  0  0  0  0  0  0
  -26.0910  -29.0630   20.4200 C   0  0  0  0  0  0  0  0  0  0  0  0
  -27.2980  -28.2880   20.3650 C   0  0  0  0  0  3  0  0  0  0  0  0
  -26.1390  -26.5890   19.0970 C   0  0  0  0  0  3  0  0  0  0  0  0
  -24.9540  -27.3450   19.1470 C   0  0  0  0  0  3  0  0  0  0  0  0
  -23.6600  -29.4060   19.9220 C   0  0  0  0  0  2  0  0  0  0  0  0
  -24.6990  -30.6240   21.8770 N   0  0  0  0  0  0  0  0  0  0  0  0
  -23.5380  -31.6080   23.5650 O   0  0  0  0  0  0  0  0  0  0  0  0
  -22.8310  -28.9370   22.2610 C   0  0  0  0  0  0  0  0  0  0  0  0
  -21.5110  -28.7080   22.1420 N   0  0  0  0  0  0  0  0  0  0  0  0
  -23.5420  -28.3140   23.0520 O   0  0  0  0  0  0  0  0  0  0  0  0
  -20.9920  -29.2680   21.4800 H   0  0  0  0  0  0  0  0  0  0  0  0
  -18.2020  -27.3160   22.5980 C   0  0  0  0  0  0  0  0  0  0  0  0
  -20.7400  -27.7120   22.8880 C   0  0  0  0  0  3  0  0  0  0  0  0
  -20.9240  -26.2990   22.2850 C   0  0  0  0  0  2  0  0  0  0  0  0
  -19.8470  -25.9370   21.2570 C   0  0  0  0  0  2  0  0  0  0  0  0
  -18.4560  -25.9930   21.8950 C   0  0  0  0  0  2  0  0  0  0  0  0
  -19.2740  -28.1300   23.0500 C   0  0  0  0  0  0  0  0  0  0  0  0
  -18.9820  -29.3650   23.6680 C   0  0  0  0  0  3  0  0  0  0  0  0
  -17.6500  -29.7890   23.8380 C   0  0  0  0  0  3  0  0  0  0  0  0
  -16.5920  -28.9720   23.4010 C   0  0  0  0  0  3  0  0  0  0  0  0
  -16.8680  -27.7370   22.7870 C   0  0  0  0  0  3  0  0  0  0  0  0
  -25.8900  -32.0470   23.6310 C   0  0  0  0  0  3  0  0  0  0  0  0
  -26.4530  -31.2520   24.8720 C   0  0  1  0  0  0  0  0  0  0  0  0
  -25.3890  -30.9470   25.9530 C   0  0  0  0  0  1  0  0  0  0  0  0
  -27.0670  -29.9040   24.4280 C   0  0  0  0  0  1  0  0  0  0  0  0
  -27.5930  -32.0580   25.5380 C   0  0  0  0  0  1  0  0  0  0  0  0
  -25.5330  -33.4200   24.0180 N   0  0  0  0  0  0  0  0  0  0  0  0
  -25.8610  -34.5180   23.3240 C   0  0  0  0  0  0  0  0  0  0  0  0
  -26.5630  -34.4830   22.3100 O   0  0  0  0  0  0  0  0  0  0  0  0
  -24.9120  -33.5200   24.8070 H   0  0  0  0  0  0  0  0  0  0  0  0
  -24.1070  -36.2940   23.0010 C   0  0  0  0  0  1  0  0  0  0  0  0
  -25.3260  -35.8710   23.8360 C   0  0  0  0  0  3  0  0  0  0  0  0
  -27.4080  -36.7550   24.7910 C   0  0  0  0  0  1  0  0  0  0  0  0
  -26.3390  -36.9490   23.8160 N   0  0  0  0  0  0  0  0  0  0  0  0
  -25.9060  -37.8520   23.9940 H   0  0  0  0  0  0  0  0  0  0  0  0
  -25.8710  -17.2690   20.0240 C   0  0  0  0  0  3  0  0  0  0  0  0
  -25.5880  -16.0450   20.4710 F   0  0  0  0  0  0  0  0  0  0  0  0
  -25.1110  -18.1220   20.7120 F   0  0  0  0  0  0  0  0  0  0  0  0
  -25.5290  -17.3360   18.7370 F   0  0  0  0  0  0  0  0  0  0  0  0
  1  5  1  0
  2  5  2  0
  3  1  2  0
  4  2  1  0
  5 16  1  0
  6  4  2  0
  6  3  1  0
  7  6  1  0
  8 14  1  0
  8 16  1  0
  9 14  1  0
 10 11  1  0
 10  9  1  0
 12 11  1  0
 12 21  1  0
 12 13  1  0
 14 13  1  0
 15  8  2  0
 16 17  1  0
 18 19  2  0
 19 38  1  0
 20 23  1  0
 20 19  1  0
 21 22  1  0
 21 18  1  0
 22 20  2  0
 23 24  1  0
 24 25  2  0
 26 25  1  0
 27 26  2  0
 28 27  1  0
 28 23  2  0
 29 26  1  0
 29 30  1  0
 30 31  1  0
 31 32  2  0
 33 32  1  0
 33 37  1  0
 34 33  2  0
 35 30  2  0
 35 34  1  0
 36 35  1  0
 38 39  1  0
 39 42  1  0
 39 41  1  0
 40 38  2  0
 45 43  1  0
 46 51  1  0
 48 46  1  0
 48 50  1  0
 48 49  1  0
 49 53  1  0
 49 47  1  0
 51  4  1  0
 51 47  1  0
 52 46  2  0
 53 54  1  0
 55 66  2  0
 56 54  1  0
 56 61  1  0
 57 65  1  0
 57 67  1  0
 58 64  1  0
 58 60  1  0
 59 65  1  0
 60 59  1  0
 61 60  2  0
 62 63  1  0
 62 56  2  0
 63 58  2  0
 64 57  1  0
 65 55  1  0
 67 69  2  0
 68 67  1  0
 70 68  1  0
 71 80  2  0
 71 76  1  0
 72 68  1  0
 72 76  1  0
 73 72  1  0
 74 75  1  0
 74 73  1  0
 75 71  1  0
 76 77  2  0
 77 78  1  0
 79 78  2  0
 80 79  1  0
 81 55  1  0
 81 86  1  0
 81 82  1  0
 82 85  1  1
 82 83  1  0
 84 82  1  0
 86 89  1  0
 87 91  1  0
 87 86  1  0
 88 87  2  0
 91 90  1  0
 93 91  1  0
 93 94  1  0
 93 92  1  0
 95  3  1  0
 95 97  1  0
 96 44  1  0
 98 95  1  0
M  ISO  4   8 100  16 100  53 101  54 101
M  END
>  <TORSDO>  (74) 
F 19

>  <SCORE>  (74) 
-11.241

>  <name>  (74) 
73

>  <ligand_id>  (74) 
73

>  <original_smiles>  (74) 
[H]c1c([H])c([H])c2c(c1[H])C([H])([H])C([H])([H])C([H])([H])C2([H])N([H])C(=O)C1([H])N(C(=O)C([H])(N([H])C(=O)C([H])(N([H])C([H])([H])[H])C([H])([H])[H])C(C([H])([H])[H])(C([H])([H])[H])C([H])([H])[H])C([H])([H])c2c([H])c(OC([H])([H])C3([H])C([H])([H])N(c4c([H])c(N([H])C(=O)N5C([H])([H])C([H])([H])C([H])([H])C([H])(n6nc(-c7c([H])c([H])c(Oc8c([H])c([H])c(F)c([H])c8F)c([H])c7[H])c(C(=O)N([H])[H])c6N([H])[H])C5([H])[H])c([H])c(C(F)(F)F)c4F)C(=O)C3([H])C([H])([H])[H])c([H])c([H])c2C1([H])[H]

>  <smiles>  (74) 
[H]c1c([H])c([H])c2c(c1[H])C([H])([H])C([H])([H])C([H])([H])C2([H])N([H])C(=O)C1([H])N(C(=O)C([H])(N([H])C(=O)C([H])(N([H])C([H])([H])[H])C([H])([H])[H])C(C([H])([H])[H])(C([H])([H])[H])C([H])([H])[H])C([H])([H])c2c([H])c(OC([H])([H])C3([H])C([H])([H])N(c4c([H])c(N([H])C(=O)N5C([H])([H])C([H])([H])C([H])([H])C([H])(n6nc(-c7c([H])c([H])c(Oc8c([H])c([H])c(F)c([H])c8F)c([H])c7[H])c(C(=O)N([H])[H])c6N([H])[H])C5([H])[H])c([H])c(C(F)(F)F)c4F)C(=O)C3([H])C([H])([H])[H])c([H])c([H])c2C1([H])[H]

$$$$
74:0:0
     RDKit          3D

 96104  0  0  1  0  0  0  0  0999 V2000
  -30.2720  -17.3130   18.6950 C   0  0  0  0  0  3  0  0  0  0  0  0
  -29.5710  -18.5670   20.6580 C   0  0  0  0  0  3  0  0  0  0  0  0
  -30.3350  -18.5160   17.9600 C   0  0  0  0  0  0  0  0  0  0  0  0
  -29.9260  -17.2820   20.0630 C   0  0  0  0  0  0  0  0  0  0  0  0
  -29.6160  -19.8300   19.9300 C   0  0  0  0  0  0  0  0  0  0  0  0
  -30.0330  -19.7550   18.5730 C   0  0  0  0  0  0  0  0  0  0  0  0
  -30.2030  -20.8880   17.8480 F   0  0  0  0  0  0  0  0  0  0  0  0
  -30.6450  -14.8270   20.4240 C   0  0  0  0  0  0  0  0  0  0  0  0
  -30.4570  -12.5680   19.3980 C   0  0  0  0  0  2  0  0  0  0  0  0
  -29.5420  -12.6880   18.1590 C   0  0  0  0  0  2  0  0  0  0  0  0
  -28.0650  -12.5080   18.5600 C   0  0  0  0  0  2  0  0  0  0  0  0
  -27.6790  -13.3730   19.7910 C   0  0  0  0  0  3  0  0  0  0  0  0
  -28.7170  -13.2520   20.9280 C   0  0  0  0  0  2  0  0  0  0  0  0
  -30.0300  -13.5980   20.3730 N   0  0  0  0  0  0  0  0  0  0  0  0
  -31.8180  -14.9380   20.0530 O   0  0  0  0  0  0  0  0  0  0  0  0
  -29.8860  -15.9510   20.7230 N   0  0  0  0  0  0  0  0  0  0  0  0
  -29.0640  -15.7660   21.2810 H   0  0  0  0  0  0  0  0  0  0  0  0
  -25.2870  -13.9630   20.4930 C   0  0  0  0  0  0  0  0  0  0  0  0
  -24.2190  -13.1880   20.8550 C   0  0  0  0  0  0  0  0  0  0  0  0
  -24.6840  -11.8370   20.8250 C   0  0  0  0  0  0  0  0  0  0  0  0
  -26.3310  -13.0830   20.2620 N   0  0  0  0  0  0  0  0  0  0  0  0
  -25.9770  -11.8010   20.5260 N   0  0  0  0  0  0  0  0  0  0  0  0
  -23.9590  -10.5730   21.0070 C   0  0  0  0  0  0  0  0  0  0  0  0
  -24.3690   -9.6150   21.9590 C   0  0  0  0  0  3  0  0  0  0  0  0
  -23.6430   -8.4160   22.1280 C   0  0  0  0  0  3  0  0  0  0  0  0
  -22.4900   -8.1650   21.3450 C   0  0  0  0  0  0  0  0  0  0  0  0
  -22.1010   -9.1130   20.3800 C   0  0  0  0  0  3  0  0  0  0  0  0
  -22.8270  -10.3040   20.2100 C   0  0  0  0  0  3  0  0  0  0  0  0
  -21.7350   -7.0210   21.4240 O   0  0  0  0  0  0  0  0  0  0  0  0
  -21.6420   -6.2980   22.5870 C   0  0  0  0  0  0  0  0  0  0  0  0
  -21.1330   -6.8640   23.7760 C   0  0  0  0  0  3  0  0  0  0  0  0
  -20.9900   -6.0640   24.9300 C   0  0  0  0  0  3  0  0  0  0  0  0
  -21.3420   -4.7010   24.8900 C   0  0  0  0  0  0  0  0  0  0  0  0
  -21.8430   -4.1370   23.7050 C   0  0  0  0  0  3  0  0  0  0  0  0
  -21.9880   -4.9340   22.5550 C   0  0  0  0  0  0  0  0  0  0  0  0
  -22.4500   -4.3790   21.4080 F   0  0  0  0  0  0  0  0  0  0  0  0
  -21.1980   -3.9310   25.9940 F   0  0  0  0  0  0  0  0  0  0  0  0
  -22.8210  -13.6620   21.1130 C   0  0  0  0  0  0  0  0  0  0  0  0
  -22.0780  -12.9610   21.9660 N   0  0  0  0  0  0  0  0  0  0  0  0
  -22.3930  -14.6920   20.5920 O   0  0  0  0  0  0  0  0  0  0  0  0
  -22.4310  -12.1310   22.4160 H   0  0  0  0  0  0  0  0  0  0  0  0
  -21.1350  -13.2650   22.1720 H   0  0  0  0  0  0  0  0  0  0  0  0
  -25.4550  -15.3330   20.3240 N   0  0  0  0  0  0  0  0  0  0  0  0
  -24.6870  -15.9900   20.4230 H   0  0  0  0  0  0  0  0  0  0  0  0
  -26.3130  -15.7710   20.0200 H   0  0  0  0  0  0  0  0  0  0  0  0
  -30.7640  -18.4890   16.4950 C   0  0  1  0  0  0  0  0  0  0  0  0
  -31.1590  -17.2710   16.1130 F   0  0  0  0  0  0  0  0  0  0  0  0
  -29.7490  -18.8580   15.7110 F   0  0  0  0  0  0  0  0  0  0  0  0
  -31.7850  -19.3220   16.2960 F   0  0  0  0  0  0  0  0  0  0  0  0
  -28.7240  -22.2900   20.0290 C   0  0  0  0  0  0  0  0  0  0  0  0
  -29.3660  -21.1670   20.5400 N   0  0  0  0  0  0  0  0  0  0  0  0
  -28.0490  -22.1980   19.0020 O   0  0  0  0  0  0  0  0  0  0  0  0
  -29.7750  -21.2990   21.4570 H   0  0  0  0  0  0  0  0  0  0  0  0
  -28.7410  -23.7230   20.7530 C   0  0  0  0  0  3  0  0  0  0  0  0
  -28.1810  -25.0020   19.9300 C   0  0  0  0  0  3  0  0  0  0  0  0
  -28.2510  -26.4330   20.4100 O   0  0  0  0  0  0  0  0  0  0  0  0
  -24.5290  -31.9680   23.2690 C   0  0  0  0  0  0  0  0  0  0  0  0
  -27.1560  -27.3240   20.2920 C   0  0  0  0  0  0  0  0  0  0  0  0
  -23.3470  -30.5610   21.6260 C   0  0  0  0  0  3  0  0  0  0  0  0
  -24.8080  -28.9910   20.2290 C   0  0  0  0  0  0  0  0  0  0  0  0
  -25.8890  -30.8580   21.4690 C   0  0  0  0  0  2  0  0  0  0  0  0
  -25.9710  -29.4610   20.8540 C   0  0  0  0  0  0  0  0  0  0  0  0
  -27.1410  -28.6340   20.8870 C   0  0  0  0  0  3  0  0  0  0  0  0
  -25.9790  -26.9500   19.6020 C   0  0  0  0  0  3  0  0  0  0  0  0
  -24.8210  -27.7450   19.5910 C   0  0  0  0  0  3  0  0  0  0  0  0
  -23.5770  -29.8750   20.2530 C   0  0  0  0  0  2  0  0  0  0  0  0
  -24.6090  -31.1470   22.1800 N   0  0  0  0  0  0  0  0  0  0  0  0
  -23.4390  -32.2510   23.7870 O   0  0  0  0  0  0  0  0  0  0  0  0
  -22.6640  -29.5540   22.5840 C   0  0  0  0  0  0  0  0  0  0  0  0
  -21.3390  -29.3770   22.4360 N   0  0  0  0  0  0  0  0  0  0  0  0
  -23.3250  -28.9380   23.4240 O   0  0  0  0  0  0  0  0  0  0  0  0
  -20.8640  -29.9320   21.7380 H   0  0  0  0  0  0  0  0  0  0  0  0
  -17.9470  -28.1990   22.9000 C   0  0  0  0  0  0  0  0  0  0  0  0
  -20.5040  -28.4470   23.2010 C   0  0  0  0  0  3  0  0  0  0  0  0
  -20.6050  -27.0120   22.6360 C   0  0  0  0  0  2  0  0  0  0  0  0
  -19.5110  -26.6880   21.6110 C   0  0  0  0  0  2  0  0  0  0  0  0
  -18.1240  -26.8440   22.2390 C   0  0  0  0  0  2  0  0  0  0  0  0
  -19.0650  -28.9590   23.3390 C   0  0  0  0  0  0  0  0  0  0  0  0
  -18.8460  -30.2270   23.9200 C   0  0  0  0  0  3  0  0  0  0  0  0
  -17.5410  -30.7310   24.0740 C   0  0  0  0  0  3  0  0  0  0  0  0
  -16.4390  -29.9720   23.6480 C   0  0  0  0  0  3  0  0  0  0  0  0
  -16.6430  -28.7090   23.0630 C   0  0  0  0  0  3  0  0  0  0  0  0
  -25.8000  -32.6050   23.9040 C   0  0  0  0  0  3  0  0  0  0  0  0
  -26.2850  -31.8510   25.2010 C   0  0  1  0  0  0  0  0  0  0  0  0
  -25.1700  -31.6360   26.2520 C   0  0  0  0  0  1  0  0  0  0  0  0
  -26.8650  -30.4650   24.8370 C   0  0  0  0  0  1  0  0  0  0  0  0
  -27.4240  -32.6500   25.8770 C   0  0  0  0  0  1  0  0  0  0  0  0
  -25.4930  -34.0110   24.2040 N   0  0  0  0  0  0  0  0  0  0  0  0
  -25.8510  -35.0510   23.4370 C   0  0  0  0  0  0  0  0  0  0  0  0
  -26.5420  -34.9260   22.4230 O   0  0  0  0  0  0  0  0  0  0  0  0
  -24.8710  -34.1800   24.9830 H   0  0  0  0  0  0  0  0  0  0  0  0
  -24.1580  -36.8670   23.0060 C   0  0  0  0  0  1  0  0  0  0  0  0
  -25.3660  -36.4520   23.8620 C   0  0  0  0  0  3  0  0  0  0  0  0
  -27.4810  -37.3260   24.7580 C   0  0  0  0  0  1  0  0  0  0  0  0
  -26.4160  -37.4920   23.7720 N   0  0  0  0  0  0  0  0  0  0  0  0
  -26.0150  -38.4190   23.8910 H   0  0  0  0  0  0  0  0  0  0  0  0
  1  4  1  0
  3  6  1  0
  3  1  2  0
  4  2  2  0
  4 16  1  0
  5 51  1  0
  5  2  1  0
  6  5  2  0
  7  6  1  0
  8 16  1  0
  9 14  1  0
 10 11  1  0
 10  9  1  0
 12 11  1  0
 12 21  1  0
 12 13  1  0
 14  8  1  0
 14 13  1  0
 15  8  2  0
 16 17  1  0
 18 19  2  0
 19 38  1  0
 20 19  1  0
 20 23  1  0
 21 18  1  0
 21 22  1  0
 22 20  2  0
 23 24  1  0
 24 25  2  0
 26 29  1  0
 26 25  1  0
 27 26  2  0
 28 27  1  0
 28 23  2  0
 29 30  1  0
 30 31  1  0
 31 32  2  0
 33 32  1  0
 33 37  1  0
 34 33  2  0
 35 30  2  0
 35 34  1  0
 36 35  1  0
 38 39  1  0
 39 42  1  0
 39 41  1  0
 40 38  2  0
 43 44  1  0
 43 18  1  0
 45 43  1  0
 46  3  1  0
 46 47  1  6
 48 46  1  0
 49 46  1  0
 50 51  1  0
 50 54  1  0
 51 53  1  0
 52 50  2  0
 55 56  1  0
 55 54  2  0
 57 68  2  0
 58 56  1  0
 58 63  1  0
 59 67  1  0
 59 69  1  0
 60 66  1  0
 60 62  1  0
 61 67  1  0
 62 63  2  0
 62 61  1  0
 64 58  2  0
 65 64  1  0
 65 60  2  0
 66 59  1  0
 67 57  1  0
 69 71  2  0
 70 69  1  0
 72 70  1  0
 73 82  2  0
 73 78  1  0
 74 70  1  0
 74 78  1  0
 75 74  1  0
 76 77  1  0
 76 75  1  0
 77 73  1  0
 78 79  2  0
 79 80  1  0
 81 80  2  0
 82 81  1  0
 83 57  1  0
 83 88  1  0
 83 84  1  0
 84 87  1  1
 84 85  1  0
 86 84  1  0
 88 91  1  0
 89 93  1  0
 89 88  1  0
 90 89  2  0
 93 92  1  0
 95 93  1  0
 95 96  1  0
 95 94  1  0
M  ISO  4   8 100  16 100  55 101  56 101
M  END
>  <TORSDO>  (75) 
F 20

>  <SCORE>  (75) 
-13.992

>  <name>  (75) 
74

>  <ligand_id>  (75) 
74

>  <original_smiles>  (75) 
[H]c1c([H])c([H])c2c(c1[H])C([H])([H])C([H])([H])C([H])([H])C2([H])N([H])C(=O)C1([H])N(C(=O)C([H])(N([H])C(=O)C([H])(N([H])C([H])([H])[H])C([H])([H])[H])C(C([H])([H])[H])(C([H])([H])[H])C([H])([H])[H])C([H])([H])c2c([H])c(OC([H])([H])C([H])([H])C(=O)N([H])c3c([H])c(N([H])C(=O)N4C([H])([H])C([H])([H])C([H])([H])C([H])(n5nc(-c6c([H])c([H])c(Oc7c([H])c([H])c(F)c([H])c7F)c([H])c6[H])c(C(=O)N([H])[H])c5N([H])[H])C4([H])[H])c([H])c(C(F)(F)F)c3F)c([H])c([H])c2C1([H])[H]

>  <smiles>  (75) 
[H]c1c([H])c([H])c2c(c1[H])C([H])([H])C([H])([H])C([H])([H])C2([H])N([H])C(=O)C1([H])N(C(=O)C([H])(N([H])C(=O)C([H])(N([H])C([H])([H])[H])C([H])([H])[H])C(C([H])([H])[H])(C([H])([H])[H])C([H])([H])[H])C([H])([H])c2c([H])c(OC([H])([H])C([H])([H])C(=O)N([H])c3c([H])c(N([H])C(=O)N4C([H])([H])C([H])([H])C([H])([H])C([H])(n5nc(-c6c([H])c([H])c(Oc7c([H])c([H])c(F)c([H])c7F)c([H])c6[H])c(C(=O)N([H])[H])c5N([H])[H])C4([H])[H])c([H])c(C(F)(F)F)c3F)c([H])c([H])c2C1([H])[H]

$$$$
75:0:0
     RDKit          3D

 97105  0  0  1  0  0  0  0  0999 V2000
  -29.2400  -22.6410   20.1970 C   0  0  0  0  0  0  0  0  0  0  0  0
  -28.9670  -21.2980   19.9120 N   0  0  0  0  0  0  0  0  0  0  0  0
  -30.1160  -22.9390   21.0100 O   0  0  0  0  0  0  0  0  0  0  0  0
  -28.3460  -21.1780   19.1250 H   0  0  0  0  0  0  0  0  0  0  0  0
  -30.4510  -17.5790   21.7370 C   0  0  0  0  0  3  0  0  0  0  0  0
  -29.4050  -18.7160   19.8590 C   0  0  0  0  0  3  0  0  0  0  0  0
  -30.4230  -18.7940   22.4580 C   0  0  0  0  0  0  0  0  0  0  0  0
  -29.8940  -17.4730   20.4490 C   0  0  0  0  0  0  0  0  0  0  0  0
  -29.4560  -20.0180   20.5230 C   0  0  0  0  0  0  0  0  0  0  0  0
  -29.9240  -19.9870   21.8670 C   0  0  0  0  0  0  0  0  0  0  0  0
  -29.8510  -21.1020   22.6310 F   0  0  0  0  0  0  0  0  0  0  0  0
  -30.5460  -15.0050   19.8150 C   0  0  0  0  0  0  0  0  0  0  0  0
  -30.3520  -12.7410   18.7560 C   0  0  0  0  0  2  0  0  0  0  0  0
  -29.3070  -12.7850   17.6200 C   0  0  0  0  0  2  0  0  0  0  0  0
  -27.8840  -12.5600   18.1720 C   0  0  0  0  0  2  0  0  0  0  0  0
  -27.5820  -13.4240   19.4250 C   0  0  0  0  0  3  0  0  0  0  0  0
  -28.7330  -13.3570   20.4490 C   0  0  0  0  0  2  0  0  0  0  0  0
  -29.9560  -13.7660   19.7460 N   0  0  0  0  0  0  0  0  0  0  0  0
  -31.7290  -15.1450   19.4920 O   0  0  0  0  0  0  0  0  0  0  0  0
  -29.7030  -16.1070   19.9040 N   0  0  0  0  0  0  0  0  0  0  0  0
  -28.7400  -15.8740   19.7180 H   0  0  0  0  0  0  0  0  0  0  0  0
  -25.2640  -13.9440   20.3900 C   0  0  0  0  0  0  0  0  0  0  0  0
  -24.2450  -13.1370   20.8190 C   0  0  0  0  0  0  0  0  0  0  0  0
  -24.7230  -11.7970   20.6870 C   0  0  0  0  0  0  0  0  0  0  0  0
  -26.2930  -13.0930   20.0230 N   0  0  0  0  0  0  0  0  0  0  0  0
  -25.9810  -11.7950   20.2640 N   0  0  0  0  0  0  0  0  0  0  0  0
  -24.0330  -10.5150   20.8830 C   0  0  0  0  0  0  0  0  0  0  0  0
  -24.4290   -9.6080   21.8900 C   0  0  0  0  0  3  0  0  0  0  0  0
  -23.7380   -8.3910   22.0690 C   0  0  0  0  0  3  0  0  0  0  0  0
  -22.6360   -8.0710   21.2390 C   0  0  0  0  0  0  0  0  0  0  0  0
  -22.2610   -8.9660   20.2220 C   0  0  0  0  0  3  0  0  0  0  0  0
  -22.9540  -10.1750   20.0420 C   0  0  0  0  0  3  0  0  0  0  0  0
  -21.9210   -6.9010   21.3240 O   0  0  0  0  0  0  0  0  0  0  0  0
  -21.6700   -6.2980   22.5310 C   0  0  0  0  0  0  0  0  0  0  0  0
  -20.9450   -6.9490   23.5520 C   0  0  0  0  0  3  0  0  0  0  0  0
  -20.6480   -6.2670   24.7500 C   0  0  0  0  0  3  0  0  0  0  0  0
  -21.0640   -4.9340   24.9230 C   0  0  0  0  0  0  0  0  0  0  0  0
  -21.7810   -4.2820   23.9040 C   0  0  0  0  0  3  0  0  0  0  0  0
  -22.0790   -4.9620   22.7100 C   0  0  0  0  0  0  0  0  0  0  0  0
  -22.7510   -4.3210   21.7230 F   0  0  0  0  0  0  0  0  0  0  0  0
  -20.7720   -4.2760   26.0690 F   0  0  0  0  0  0  0  0  0  0  0  0
  -22.8710  -13.5770   21.2300 C   0  0  0  0  0  0  0  0  0  0  0  0
  -22.2270  -12.8320   22.1230 N   0  0  0  0  0  0  0  0  0  0  0  0
  -22.3760  -14.6160   20.7940 O   0  0  0  0  0  0  0  0  0  0  0  0
  -22.6420  -11.9930   22.4990 H   0  0  0  0  0  0  0  0  0  0  0  0
  -21.3060  -13.1070   22.4340 H   0  0  0  0  0  0  0  0  0  0  0  0
  -25.3900  -15.3240   20.2600 N   0  0  0  0  0  0  0  0  0  0  0  0
  -24.6210  -15.9540   20.4630 H   0  0  0  0  0  0  0  0  0  0  0  0
  -26.1870  -15.7950   19.8540 H   0  0  0  0  0  0  0  0  0  0  0  0
  -30.9440  -18.7660   23.8530 C   0  0  0  0  0  0  0  0  0  0  0  0
  -30.3740  -19.7600   24.8600 C   0  0  0  0  0  1  0  0  0  0  0  0
  -31.7560  -17.9230   24.2500 O   0  0  0  0  0  0  0  0  0  0  0  0
  -27.3310  -23.3950   18.6340 C   0  0  0  0  0  1  0  0  0  0  0  0
  -29.6310  -24.3440   18.3880 C   0  0  0  0  0  1  0  0  0  0  0  0
  -28.5700  -23.8900   19.4100 C   0  0  2  0  0  0  0  0  0  0  0  0
  -28.1630  -25.2200   20.2730 C   0  0  0  0  0  2  0  0  0  0  0  0
  -28.2320  -26.6320   19.7460 O   0  0  0  0  0  0  0  0  0  0  0  0
  -24.5450  -31.9380   23.0950 C   0  0  0  0  0  0  0  0  0  0  0  0
  -27.1100  -27.4830   19.8200 C   0  0  0  0  0  0  0  0  0  0  0  0
  -23.3100  -30.5860   21.4390 C   0  0  0  0  0  3  0  0  0  0  0  0
  -24.7350  -29.0930   19.9230 C   0  0  0  0  0  0  0  0  0  0  0  0
  -25.8420  -30.9300   21.1980 C   0  0  0  0  0  2  0  0  0  0  0  0
  -25.9190  -29.5700   20.5030 C   0  0  0  0  0  0  0  0  0  0  0  0
  -27.1100  -28.7800   20.4340 C   0  0  0  0  0  3  0  0  0  0  0  0
  -25.9030  -27.0640   19.2260 C   0  0  0  0  0  3  0  0  0  0  0  0
  -24.7320  -27.8480   19.2730 C   0  0  0  0  0  3  0  0  0  0  0  0
  -23.4950  -29.9600   20.0300 C   0  0  0  0  0  2  0  0  0  0  0  0
  -24.5860  -31.1680   21.9670 N   0  0  0  0  0  0  0  0  0  0  0  0
  -23.4740  -32.1850   23.6680 O   0  0  0  0  0  0  0  0  0  0  0  0
  -22.6810  -29.5310   22.3820 C   0  0  0  0  0  0  0  0  0  0  0  0
  -21.3550  -29.3370   22.2800 N   0  0  0  0  0  0  0  0  0  0  0  0
  -23.3860  -28.8910   23.1660 O   0  0  0  0  0  0  0  0  0  0  0  0
  -20.8440  -29.9080   21.6200 H   0  0  0  0  0  0  0  0  0  0  0  0
  -18.0060  -28.0820   22.8270 C   0  0  0  0  0  0  0  0  0  0  0  0
  -20.5680  -28.3630   23.0370 C   0  0  0  0  0  3  0  0  0  0  0  0
  -20.6700  -26.9550   22.4060 C   0  0  0  0  0  2  0  0  0  0  0  0
  -19.5450  -26.6560   21.4110 C   0  0  0  0  0  2  0  0  0  0  0  0
  -18.1800  -26.7600   22.0960 C   0  0  0  0  0  2  0  0  0  0  0  0
  -19.1270  -28.8410   23.2540 C   0  0  0  0  0  0  0  0  0  0  0  0
  -18.9100  -30.0770   23.8990 C   0  0  0  0  0  3  0  0  0  0  0  0
  -17.6060  -30.5550   24.1200 C   0  0  0  0  0  3  0  0  0  0  0  0
  -16.4990  -29.7930   23.7080 C   0  0  0  0  0  3  0  0  0  0  0  0
  -16.6990  -28.5580   23.0670 C   0  0  0  0  0  3  0  0  0  0  0  0
  -25.8370  -32.5630   23.7050 C   0  0  0  0  0  3  0  0  0  0  0  0
  -26.3830  -31.7650   24.9520 C   0  0  1  0  0  0  0  0  0  0  0  0
  -25.3110  -31.4900   26.0330 C   0  0  0  0  0  1  0  0  0  0  0  0
  -26.9730  -30.4040   24.5170 C   0  0  0  0  0  1  0  0  0  0  0  0
  -27.5360  -32.5550   25.6140 C   0  0  0  0  0  1  0  0  0  0  0  0
  -25.5280  -33.9510   24.0750 N   0  0  0  0  0  0  0  0  0  0  0  0
  -25.8630  -35.0270   23.3510 C   0  0  0  0  0  0  0  0  0  0  0  0
  -26.5350  -34.9540   22.3180 O   0  0  0  0  0  0  0  0  0  0  0  0
  -24.9330  -34.0830   24.8790 H   0  0  0  0  0  0  0  0  0  0  0  0
  -24.1680  -36.8550   23.0200 C   0  0  0  0  0  1  0  0  0  0  0  0
  -25.3790  -36.4020   23.8510 C   0  0  0  0  0  3  0  0  0  0  0  0
  -27.4900  -37.2310   24.7910 C   0  0  0  0  0  1  0  0  0  0  0  0
  -26.4260  -37.4460   23.8130 N   0  0  0  0  0  0  0  0  0  0  0  0
  -26.0250  -38.3650   23.9780 H   0  0  0  0  0  0  0  0  0  0  0  0
  1  3  2  0
  2  1  1  0
  2  9  1  0
  4  2  1  0
  5  7  1  0
  6  8  1  0
  6  9  2  0
  7 50  1  0
  8  5  2  0
  9 10  1  0
 10  7  2  0
 10 11  1  0
 12 20  1  0
 13 18  1  0
 14 15  1  0
 14 13  1  0
 16 15  1  0
 16 25  1  0
 16 17  1  0
 18 12  1  0
 18 17  1  0
 19 12  2  0
 20  8  1  0
 21 20  1  0
 22 23  2  0
 23 42  1  0
 24 23  1  0
 24 27  1  0
 25 26  1  0
 25 22  1  0
 26 24  2  0
 27 28  1  0
 28 29  2  0
 30 33  1  0
 30 29  1  0
 31 30  2  0
 32 31  1  0
 32 27  2  0
 33 34  1  0
 34 39  2  0
 34 35  1  0
 35 36  2  0
 36 37  1  0
 37 41  1  0
 38 37  2  0
 39 38  1  0
 40 39  1  0
 42 43  1  0
 43 46  1  0
 43 45  1  0
 44 42  2  0
 47 22  1  0
 47 48  1  0
 49 47  1  0
 50 52  2  0
 50 51  1  0
 55 53  1  6
 54 55  1  0
 55  1  1  0
 55 56  1  0
 57 59  1  0
 57 56  1  0
 58 69  2  0
 59 64  1  0
 60 68  1  0
 60 70  1  0
 61 67  1  0
 61 63  1  0
 62 68  1  0
 63 62  1  0
 64 63  2  0
 65 66  1  0
 65 59  2  0
 66 61  2  0
 67 60  1  0
 68 58  1  0
 70 72  2  0
 71 70  1  0
 73 71  1  0
 74 83  2  0
 74 79  1  0
 75 71  1  0
 75 79  1  0
 76 75  1  0
 77 78  1  0
 77 76  1  0
 78 74  1  0
 79 80  2  0
 80 81  1  0
 82 81  2  0
 83 82  1  0
 84 58  1  0
 84 89  1  0
 84 85  1  0
 85 88  1  1
 85 86  1  0
 87 85  1  0
 89 92  1  0
 90 94  1  0
 90 89  1  0
 91 90  2  0
 94 93  1  0
 96 94  1  0
 96 97  1  0
 96 95  1  0
M  ISO  4  12 100  20 100  56 101  57 101
M  END
>  <TORSDO>  (76) 
F 20

>  <SCORE>  (76) 
-10.228

>  <name>  (76) 
75

>  <ligand_id>  (76) 
75

>  <original_smiles>  (76) 
[H]c1c([H])c([H])c2c(c1[H])C([H])([H])C([H])([H])C([H])([H])C2([H])N([H])C(=O)C1([H])N(C(=O)C([H])(N([H])C(=O)C([H])(N([H])C([H])([H])[H])C([H])([H])[H])C(C([H])([H])[H])(C([H])([H])[H])C([H])([H])[H])C([H])([H])c2c([H])c(OC([H])([H])C(C(=O)N([H])c3c([H])c(N([H])C(=O)N4C([H])([H])C([H])([H])C([H])([H])C([H])(n5nc(-c6c([H])c([H])c(Oc7c([H])c([H])c(F)c([H])c7F)c([H])c6[H])c(C(=O)N([H])[H])c5N([H])[H])C4([H])[H])c([H])c(C(=O)C([H])([H])[H])c3F)(C([H])([H])[H])C([H])([H])[H])c([H])c([H])c2C1([H])[H]

>  <smiles>  (76) 
[H]c1c([H])c([H])c2c(c1[H])C([H])([H])C([H])([H])C([H])([H])C2([H])N([H])C(=O)C1([H])N(C(=O)C([H])(N([H])C(=O)C([H])(N([H])C([H])([H])[H])C([H])([H])[H])C(C([H])([H])[H])(C([H])([H])[H])C([H])([H])[H])C([H])([H])c2c([H])c(OC([H])([H])C(C(=O)N([H])c3c([H])c(N([H])C(=O)N4C([H])([H])C([H])([H])C([H])([H])C([H])(n5nc(-c6c([H])c([H])c(Oc7c([H])c([H])c(F)c([H])c7F)c([H])c6[H])c(C(=O)N([H])[H])c5N([H])[H])C4([H])[H])c([H])c(C(=O)C([H])([H])[H])c3F)(C([H])([H])[H])C([H])([H])[H])c([H])c([H])c2C1([H])[H]

$$$$
76:0:0
     RDKit          3D

 96105  0  0  1  0  0  0  0  0999 V2000
  -30.5230  -21.0010   19.9120 C   0  0  0  0  0  3  0  0  0  0  0  0
  -29.9510  -22.7030   18.3790 C   0  0  0  0  0  0  0  0  0  0  0  0
  -30.5660  -22.3750   19.6430 C   0  0  0  0  0  0  0  0  0  0  0  0
  -29.6280  -21.3610   17.9740 C   0  0  0  0  0  0  0  0  0  0  0  0
  -29.9090  -20.2540   18.9030 N   0  0  0  0  0  0  0  0  0  0  0  0
  -27.4880  -18.0920   20.7270 C   0  0  0  0  0  3  0  0  0  0  0  0
  -28.8260  -17.7400   21.0230 C   0  0  0  0  0  2  0  0  0  0  0  0
  -28.1470  -18.7340   18.4670 C   0  0  0  0  0  2  0  0  0  0  0  0
  -27.1360  -18.4870   19.4170 C   0  0  0  0  0  0  0  0  0  0  0  0
  -29.4780  -18.7400   18.9320 C   0  0  0  0  0  3  0  0  0  0  0  0
  -29.6910  -17.5860   19.9170 C   0  0  0  0  0  3  0  0  0  0  0  0
  -25.7010  -18.8100   19.0650 C   0  0  0  0  0  1  0  0  0  0  0  0
  -30.4500  -14.8870   19.7930 C   0  0  0  0  0  0  0  0  0  0  0  0
  -30.4750  -12.4020   19.1610 C   0  0  0  0  0  2  0  0  0  0  0  0
  -29.5220  -12.0780   17.9860 C   0  0  0  0  0  2  0  0  0  0  0  0
  -28.0820  -11.8480   18.4840 C   0  0  0  0  0  2  0  0  0  0  0  0
  -27.6340  -12.9230   19.5080 C   0  0  0  0  0  3  0  0  0  0  0  0
  -28.7040  -13.1770   20.5860 C   0  0  0  0  0  2  0  0  0  0  0  0
  -29.9200  -13.5910   19.8770 N   0  0  0  0  0  0  0  0  0  0  0  0
  -31.6690  -14.9510   19.5820 O   0  0  0  0  0  0  0  0  0  0  0  0
  -29.6000  -16.0470   19.6350 N   0  0  0  0  0  0  0  0  0  0  0  0
  -28.6450  -15.7620   19.4880 H   0  0  0  0  0  0  0  0  0  0  0  0
  -25.3040  -13.5290   20.3740 C   0  0  0  0  0  0  0  0  0  0  0  0
  -24.2490  -12.7680   20.7900 C   0  0  0  0  0  0  0  0  0  0  0  0
  -24.6960  -11.4110   20.7350 C   0  0  0  0  0  0  0  0  0  0  0  0
  -26.3230  -12.6390   20.0800 N   0  0  0  0  0  0  0  0  0  0  0  0
  -25.9730  -11.3570   20.3720 N   0  0  0  0  0  0  0  0  0  0  0  0
  -23.9620  -10.1570   20.9570 C   0  0  0  0  0  0  0  0  0  0  0  0
  -24.2370   -9.3220   22.0620 C   0  0  0  0  0  3  0  0  0  0  0  0
  -23.5020   -8.1340   22.2640 C   0  0  0  0  0  3  0  0  0  0  0  0
  -22.4760   -7.7710   21.3600 C   0  0  0  0  0  0  0  0  0  0  0  0
  -22.2200   -8.5930   20.2480 C   0  0  0  0  0  3  0  0  0  0  0  0
  -22.9560   -9.7730   20.0480 C   0  0  0  0  0  3  0  0  0  0  0  0
  -21.7250   -6.6250   21.4620 O   0  0  0  0  0  0  0  0  0  0  0  0
  -21.0960   -6.2790   22.6310 C   0  0  0  0  0  0  0  0  0  0  0  0
  -20.2260   -7.1690   23.2960 C   0  0  0  0  0  3  0  0  0  0  0  0
  -19.5440   -6.7490   24.4540 C   0  0  0  0  0  3  0  0  0  0  0  0
  -19.7250   -5.4420   24.9450 C   0  0  0  0  0  0  0  0  0  0  0  0
  -20.5880   -4.5530   24.2800 C   0  0  0  0  0  3  0  0  0  0  0  0
  -21.2700   -4.9710   23.1240 C   0  0  0  0  0  0  0  0  0  0  0  0
  -22.0850   -4.1050   22.4750 F   0  0  0  0  0  0  0  0  0  0  0  0
  -19.0640   -5.0370   26.0540 F   0  0  0  0  0  0  0  0  0  0  0  0
  -22.8690  -13.2600   21.1260 C   0  0  0  0  0  0  0  0  0  0  0  0
  -22.1810  -12.5860   22.0360 N   0  0  0  0  0  0  0  0  0  0  0  0
  -22.4120  -14.2790   20.6070 O   0  0  0  0  0  0  0  0  0  0  0  0
  -22.5560  -11.7550   22.4660 H   0  0  0  0  0  0  0  0  0  0  0  0
  -21.2600  -12.8980   22.3050 H   0  0  0  0  0  0  0  0  0  0  0  0
  -25.4800  -14.9000   20.2020 N   0  0  0  0  0  0  0  0  0  0  0  0
  -24.7410  -15.5650   20.4000 H   0  0  0  0  0  0  0  0  0  0  0  0
  -26.3390  -15.3370   19.8960 H   0  0  0  0  0  0  0  0  0  0  0  0
  -31.0810  -23.2940   20.5100 O   0  0  0  0  0  0  0  0  0  0  0  0
  -31.4530  -22.9040   21.2970 H   0  0  0  0  0  0  0  0  0  0  0  0
  -29.0390  -21.0410   16.7850 O   0  0  0  0  0  0  0  0  0  0  0  0
  -29.1030  -20.0990   16.6630 H   0  0  0  0  0  0  0  0  0  0  0  0
  -29.5960  -24.1960   17.6250 C   0  0  0  0  0  2  0  0  0  0  0  0
  -29.7090  -25.7230   18.0800 O   0  0  0  0  0  0  0  0  0  0  0  0
  -25.3590  -29.6930   22.6580 C   0  0  0  0  0  0  0  0  0  0  0  0
  -28.5200  -26.5460   18.3270 C   0  0  0  0  0  0  0  0  0  0  0  0
  -24.3180  -28.6310   20.6960 C   0  0  0  0  0  3  0  0  0  0  0  0
  -25.9290  -27.8220   18.8520 C   0  0  0  0  0  0  0  0  0  0  0  0
  -26.7830  -29.3840   20.5880 C   0  0  0  0  0  2  0  0  0  0  0  0
  -27.0580  -28.2720   19.5460 C   0  0  0  0  0  0  0  0  0  0  0  0
  -28.3500  -27.6570   19.2720 C   0  0  0  0  0  3  0  0  0  0  0  0
  -27.3310  -26.2210   17.6340 C   0  0  0  0  0  3  0  0  0  0  0  0
  -26.0790  -26.8180   17.8860 C   0  0  0  0  0  3  0  0  0  0  0  0
  -24.5690  -28.4310   19.1770 C   0  0  0  0  0  2  0  0  0  0  0  0
  -25.5060  -29.2440   21.3710 N   0  0  0  0  0  0  0  0  0  0  0  0
  -24.2730  -29.6110   23.2550 O   0  0  0  0  0  0  0  0  0  0  0  0
  -23.8810  -27.2840   21.3260 C   0  0  0  0  0  0  0  0  0  0  0  0
  -22.6080  -26.8960   21.1330 N   0  0  0  0  0  0  0  0  0  0  0  0
  -24.6950  -26.5990   21.9490 O   0  0  0  0  0  0  0  0  0  0  0  0
  -21.9940  -27.5130   20.6200 H   0  0  0  0  0  0  0  0  0  0  0  0
  -19.5340  -24.9870   21.3030 C   0  0  0  0  0  0  0  0  0  0  0  0
  -22.0190  -25.6370   21.5970 C   0  0  0  0  0  3  0  0  0  0  0  0
  -22.3330  -24.4820   20.6170 C   0  0  0  0  0  2  0  0  0  0  0  0
  -21.2380  -24.2710   19.5700 C   0  0  0  0  0  2  0  0  0  0  0  0
  -19.9020  -23.9540   20.2500 C   0  0  0  0  0  2  0  0  0  0  0  0
  -20.5290  -25.7890   21.9260 C   0  0  0  0  0  0  0  0  0  0  0  0
  -20.1310  -26.7560   22.8770 C   0  0  0  0  0  3  0  0  0  0  0  0
  -18.7740  -26.9260   23.2070 C   0  0  0  0  0  3  0  0  0  0  0  0
  -17.7980  -26.1210   22.5960 C   0  0  0  0  0  3  0  0  0  0  0  0
  -18.1790  -25.1530   21.6510 C   0  0  0  0  0  3  0  0  0  0  0  0
  -26.5420  -30.3480   23.4300 C   0  0  0  0  0  3  0  0  0  0  0  0
  -27.1290  -29.4220   24.5680 C   0  0  1  0  0  0  0  0  0  0  0  0
  -26.0540  -28.8780   25.5360 C   0  0  0  0  0  1  0  0  0  0  0  0
  -27.8750  -28.2090   23.9650 C   0  0  0  0  0  1  0  0  0  0  0  0
  -28.1650  -30.2100   25.4040 C   0  0  0  0  0  1  0  0  0  0  0  0
  -26.0550  -31.6160   24.0000 N   0  0  0  0  0  0  0  0  0  0  0  0
  -26.1940  -32.8180   23.4250 C   0  0  0  0  0  0  0  0  0  0  0  0
  -26.8080  -32.9830   22.3690 O   0  0  0  0  0  0  0  0  0  0  0  0
  -25.4920  -31.5500   24.8340 H   0  0  0  0  0  0  0  0  0  0  0  0
  -24.2050  -34.3600   23.4750 C   0  0  0  0  0  1  0  0  0  0  0  0
  -25.5510  -34.0260   24.1350 C   0  0  0  0  0  3  0  0  0  0  0  0
  -27.5780  -35.1010   25.0090 C   0  0  0  0  0  1  0  0  0  0  0  0
  -26.4080  -35.2300   24.1450 N   0  0  0  0  0  0  0  0  0  0  0  0
  -25.8800  -36.0440   24.4480 H   0  0  0  0  0  0  0  0  0  0  0  0
  2  3  1  0
  3  1  2  0
  3 51  1  0
  4  2  2  0
  4  5  1  0
  5 10  1  0
  5  1  1  0
  6  7  1  0
  8  9  1  0
  9  6  2  0
 10  8  1  0
 10 11  1  0
 11 21  1  0
 11  7  1  0
 12  9  1  0
 13 19  1  0
 14 19  1  0
 15 16  1  0
 15 14  1  0
 17 16  1  0
 17 26  1  0
 17 18  1  0
 19 18  1  0
 20 13  2  0
 21 13  1  0
 22 21  1  0
 23 24  2  0
 24 43  1  0
 25 24  1  0
 25 28  1  0
 26 27  1  0
 26 23  1  0
 27 25  2  0
 28 29  1  0
 29 30  2  0
 31 34  1  0
 31 30  1  0
 32 31  2  0
 33 32  1  0
 33 28  2  0
 34 35  1  0
 35 40  2  0
 35 36  1  0
 36 37  2  0
 37 38  1  0
 38 42  1  0
 39 38  2  0
 40 39  1  0
 41 40  1  0
 43 44  1  0
 44 47  1  0
 44 46  1  0
 45 43  2  0
 48 23  1  0
 48 49  1  0
 50 48  1  0
 51 52  1  0
 53  4  1  0
 54 53  1  0
 55 56  1  0
 55  2  1  0
 56 58  1  0
 57 68  2  0
 58 63  1  0
 59 69  1  0
 59 67  1  0
 60 66  1  0
 60 62  1  0
 61 67  1  0
 62 61  1  0
 63 62  2  0
 64 65  1  0
 64 58  2  0
 65 60  2  0
 66 59  1  0
 67 57  1  0
 69 71  2  0
 70 69  1  0
 72 70  1  0
 73 82  2  0
 73 78  1  0
 74 70  1  0
 74 78  1  0
 75 74  1  0
 76 77  1  0
 76 75  1  0
 77 73  1  0
 78 79  2  0
 79 80  1  0
 81 80  2  0
 82 81  1  0
 83 57  1  0
 83 88  1  0
 83 84  1  0
 84 87  1  1
 84 85  1  0
 86 84  1  0
 88 91  1  0
 89 88  1  0
 89 93  1  0
 90 89  2  0
 93 92  1  0
 93 95  1  0
 95 96  1  0
 95 94  1  0
M  ISO  4  13 100  21 100  55 101  56 101
M  END
>  <TORSDO>  (77) 
F 20

>  <SCORE>  (77) 
-8.113

>  <name>  (77) 
76

>  <ligand_id>  (77) 
76

>  <original_smiles>  (77) 
[H]Oc1c(C([H])([H])Oc2c([H])c([H])c3c(c2[H])C([H])([H])N(C(=O)C([H])(N([H])C(=O)C([H])(N([H])C([H])([H])[H])C([H])([H])[H])C(C([H])([H])[H])(C([H])([H])[H])C([H])([H])[H])C([H])(C(=O)N([H])C2([H])c4c([H])c([H])c([H])c([H])c4C([H])([H])C([H])([H])C2([H])[H])C3([H])[H])c(O[H])n(-c2c([H])c(C([H])([H])[H])c([H])c([H])c2N([H])C(=O)N2C([H])([H])C([H])([H])C([H])([H])C([H])(n3nc(-c4c([H])c([H])c(Oc5c([H])c([H])c(F)c([H])c5F)c([H])c4[H])c(C(=O)N([H])[H])c3N([H])[H])C2([H])[H])c1[H]

>  <smiles>  (77) 
[H]Oc1c(C([H])([H])Oc2c([H])c([H])c3c(c2[H])C([H])([H])N(C(=O)C([H])(N([H])C(=O)C([H])(N([H])C([H])([H])[H])C([H])([H])[H])C(C([H])([H])[H])(C([H])([H])[H])C([H])([H])[H])C([H])(C(=O)N([H])C2([H])c4c([H])c([H])c([H])c([H])c4C([H])([H])C([H])([H])C2([H])[H])C3([H])[H])c(O[H])n(-c2c([H])c(C([H])([H])[H])c([H])c([H])c2N([H])C(=O)N2C([H])([H])C([H])([H])C([H])([H])C([H])(n3nc(-c4c([H])c([H])c(Oc5c([H])c([H])c(F)c([H])c5F)c([H])c4[H])c(C(=O)N([H])[H])c3N([H])[H])C2([H])[H])c1[H]

$$$$
77:0:0
     RDKit          3D

 93101  0  0  1  0  0  0  0  0999 V2000
  -29.0570  -22.3750   20.6400 C   0  0  0  0  0  0  0  0  0  0  0  0
  -28.9290  -21.0600   20.1900 N   0  0  0  0  0  0  0  0  0  0  0  0
  -29.7550  -22.6220   21.6260 O   0  0  0  0  0  0  0  0  0  0  0  0
  -28.2010  -20.9220   19.5050 H   0  0  0  0  0  0  0  0  0  0  0  0
  -31.9920  -18.9850   21.0170 C   0  0  0  0  0  3  0  0  0  0  0  0
  -31.1190  -20.0580   20.7800 C   0  0  0  0  0  3  0  0  0  0  0  0
  -31.5500  -17.6510   20.9480 C   0  0  0  0  0  3  0  0  0  0  0  0
  -29.3140  -18.4590   20.4060 C   0  0  0  0  0  0  0  0  0  0  0  0
  -29.7530  -19.8560   20.4860 C   0  0  0  0  0  0  0  0  0  0  0  0
  -30.2170  -17.3230   20.6170 C   0  0  0  0  0  0  0  0  0  0  0  0
  -27.8560  -18.1690   20.0850 C   0  0  0  0  0  1  0  0  0  0  0  0
  -30.5950  -14.7460   20.3020 C   0  0  0  0  0  0  0  0  0  0  0  0
  -30.3550  -12.4920   19.2590 C   0  0  0  0  0  2  0  0  0  0  0  0
  -29.4020  -12.5940   18.0490 C   0  0  0  0  0  2  0  0  0  0  0  0
  -27.9400  -12.4260   18.5010 C   0  0  0  0  0  2  0  0  0  0  0  0
  -27.5890  -13.2900   19.7420 C   0  0  0  0  0  3  0  0  0  0  0  0
  -28.6670  -13.1790   20.8420 C   0  0  0  0  0  2  0  0  0  0  0  0
  -29.9520  -13.5330   20.2300 N   0  0  0  0  0  0  0  0  0  0  0  0
  -31.7750  -14.8220   19.9460 O   0  0  0  0  0  0  0  0  0  0  0  0
  -29.8310  -15.8850   20.5450 N   0  0  0  0  0  0  0  0  0  0  0  0
  -28.8490  -15.6930   20.6580 H   0  0  0  0  0  0  0  0  0  0  0  0
  -25.2100  -13.8680   20.5050 C   0  0  0  0  0  0  0  0  0  0  0  0
  -24.1550  -13.0880   20.8900 C   0  0  0  0  0  0  0  0  0  0  0  0
  -24.6220  -11.7390   20.8460 C   0  0  0  0  0  0  0  0  0  0  0  0
  -26.2550  -12.9940   20.2510 N   0  0  0  0  0  0  0  0  0  0  0  0
  -25.9090  -11.7090   20.5180 N   0  0  0  0  0  0  0  0  0  0  0  0
  -23.9040  -10.4720   21.0390 C   0  0  0  0  0  0  0  0  0  0  0  0
  -24.3550   -9.5010   21.9620 C   0  0  0  0  0  3  0  0  0  0  0  0
  -23.6350   -8.3010   22.1450 C   0  0  0  0  0  3  0  0  0  0  0  0
  -22.4530   -8.0610   21.4030 C   0  0  0  0  0  0  0  0  0  0  0  0
  -22.0230   -9.0210   20.4680 C   0  0  0  0  0  3  0  0  0  0  0  0
  -22.7430  -10.2120   20.2840 C   0  0  0  0  0  3  0  0  0  0  0  0
  -21.7050   -6.9120   21.4940 O   0  0  0  0  0  0  0  0  0  0  0  0
  -21.6720   -6.1650   22.6440 C   0  0  0  0  0  0  0  0  0  0  0  0
  -21.2520   -6.7110   23.8760 C   0  0  0  0  0  3  0  0  0  0  0  0
  -21.1670   -5.8890   25.0170 C   0  0  0  0  0  3  0  0  0  0  0  0
  -21.4920   -4.5220   24.9290 C   0  0  0  0  0  0  0  0  0  0  0  0
  -21.9090   -3.9760   23.7020 C   0  0  0  0  0  3  0  0  0  0  0  0
  -21.9940   -4.7940   22.5620 C   0  0  0  0  0  0  0  0  0  0  0  0
  -22.3750   -4.2590   21.3770 F   0  0  0  0  0  0  0  0  0  0  0  0
  -21.4050   -3.7310   26.0240 F   0  0  0  0  0  0  0  0  0  0  0  0
  -22.7600  -13.5580   21.1840 C   0  0  0  0  0  0  0  0  0  0  0  0
  -22.0460  -12.8520   22.0550 N   0  0  0  0  0  0  0  0  0  0  0  0
  -22.3110  -14.5850   20.6760 O   0  0  0  0  0  0  0  0  0  0  0  0
  -22.4220  -12.0220   22.4870 H   0  0  0  0  0  0  0  0  0  0  0  0
  -21.1120  -13.1490   22.2950 H   0  0  0  0  0  0  0  0  0  0  0  0
  -25.3630  -15.2410   20.3250 N   0  0  0  0  0  0  0  0  0  0  0  0
  -24.5840  -15.8820   20.4340 H   0  0  0  0  0  0  0  0  0  0  0  0
  -26.1720  -15.6700   19.9000 H   0  0  0  0  0  0  0  0  0  0  0  0
  -26.9410  -23.1170   19.4070 C   0  0  0  0  0  1  0  0  0  0  0  0
  -28.2990  -23.6170   19.9460 C   0  0  0  0  0  3  0  0  0  0  0  0
  -28.1120  -25.0150   20.7740 C   0  0  0  0  0  2  0  0  0  0  0  0
  -28.3030  -26.4010   20.2120 O   0  0  0  0  0  0  0  0  0  0  0  0
  -24.6020  -31.8910   23.2370 C   0  0  0  0  0  0  0  0  0  0  0  0
  -27.2140  -27.2950   20.2010 C   0  0  0  0  0  0  0  0  0  0  0  0
  -23.4120  -30.4920   21.5900 C   0  0  0  0  0  3  0  0  0  0  0  0
  -24.8670  -28.9410   20.1690 C   0  0  0  0  0  0  0  0  0  0  0  0
  -25.9550  -30.8010   21.4240 C   0  0  0  0  0  2  0  0  0  0  0  0
  -26.0350  -29.4180   20.7770 C   0  0  0  0  0  0  0  0  0  0  0  0
  -27.2160  -28.6100   20.7760 C   0  0  0  0  0  3  0  0  0  0  0  0
  -26.0270  -26.8850   19.5650 C   0  0  0  0  0  3  0  0  0  0  0  0
  -24.8660  -27.6810   19.5520 C   0  0  0  0  0  3  0  0  0  0  0  0
  -23.6330  -29.8230   20.2090 C   0  0  0  0  0  2  0  0  0  0  0  0
  -24.6760  -31.0820   22.1370 N   0  0  0  0  0  0  0  0  0  0  0  0
  -23.5140  -32.1660   23.7640 O   0  0  0  0  0  0  0  0  0  0  0  0
  -22.7440  -29.4720   22.5470 C   0  0  0  0  0  0  0  0  0  0  0  0
  -21.4170  -29.2970   22.4200 N   0  0  0  0  0  0  0  0  0  0  0  0
  -23.4190  -28.8420   23.3650 O   0  0  0  0  0  0  0  0  0  0  0  0
  -20.9290  -29.8590   21.7370 H   0  0  0  0  0  0  0  0  0  0  0  0
  -18.0360  -28.1170   22.9250 C   0  0  0  0  0  0  0  0  0  0  0  0
  -20.5980  -28.3580   23.1860 C   0  0  0  0  0  3  0  0  0  0  0  0
  -20.6880  -26.9310   22.5990 C   0  0  0  0  0  2  0  0  0  0  0  0
  -19.5800  -26.6230   21.5870 C   0  0  0  0  0  2  0  0  0  0  0  0
  -18.2020  -26.7720   22.2370 C   0  0  0  0  0  2  0  0  0  0  0  0
  -19.1620  -28.8680   23.3570 C   0  0  0  0  0  0  0  0  0  0  0  0
  -18.9520  -30.1280   23.9580 C   0  0  0  0  0  3  0  0  0  0  0  0
  -17.6510  -30.6340   24.1380 C   0  0  0  0  0  3  0  0  0  0  0  0
  -16.5410  -29.8810   23.7210 C   0  0  0  0  0  3  0  0  0  0  0  0
  -16.7340  -28.6240   23.1200 C   0  0  0  0  0  3  0  0  0  0  0  0
  -25.8800  -32.5250   23.8680 C   0  0  0  0  0  3  0  0  0  0  0  0
  -26.3810  -31.7600   25.1540 C   0  0  1  0  0  0  0  0  0  0  0  0
  -25.2790  -31.5290   26.2140 C   0  0  0  0  0  1  0  0  0  0  0  0
  -26.9690  -30.3800   24.7760 C   0  0  0  0  0  1  0  0  0  0  0  0
  -27.5260  -32.5560   25.8240 C   0  0  0  0  0  1  0  0  0  0  0  0
  -25.5670  -33.9260   24.1920 N   0  0  0  0  0  0  0  0  0  0  0  0
  -25.9010  -34.9770   23.4320 C   0  0  0  0  0  0  0  0  0  0  0  0
  -26.5760  -34.8710   22.4030 O   0  0  0  0  0  0  0  0  0  0  0  0
  -24.9710  -34.0830   24.9920 H   0  0  0  0  0  0  0  0  0  0  0  0
  -24.1740  -36.7690   23.0650 C   0  0  0  0  0  1  0  0  0  0  0  0
  -25.4120  -36.3680   23.8830 C   0  0  0  0  0  3  0  0  0  0  0  0
  -27.5430  -37.2530   24.7220 C   0  0  0  0  0  1  0  0  0  0  0  0
  -26.4460  -37.4210   23.7740 N   0  0  0  0  0  0  0  0  0  0  0  0
  -26.0390  -38.3410   23.9130 H   0  0  0  0  0  0  0  0  0  0  0  0
  1  3  2  0
  2  9  1  0
  2  1  1  0
  4  2  1  0
  6  5  2  0
  7  5  1  0
  8  9  2  0
  8 10  1  0
  9  6  1  0
 10  7  2  0
 11  8  1  0
 12 20  1  0
 13 18  1  0
 14 15  1  0
 14 13  1  0
 16 15  1  0
 16 25  1  0
 16 17  1  0
 18 12  1  0
 18 17  1  0
 19 12  2  0
 20 10  1  0
 20 21  1  0
 22 23  2  0
 23 42  1  0
 24 23  1  0
 24 27  1  0
 25 22  1  0
 25 26  1  0
 26 24  2  0
 27 28  1  0
 28 29  2  0
 30 33  1  0
 30 29  1  0
 31 30  2  0
 32 31  1  0
 32 27  2  0
 33 34  1  0
 34 35  1  0
 35 36  2  0
 37 36  1  0
 37 41  1  0
 38 37  2  0
 39 34  2  0
 39 38  1  0
 40 39  1  0
 42 43  1  0
 43 46  1  0
 43 45  1  0
 44 42  2  0
 47 48  1  0
 47 22  1  0
 49 47  1  0
 51 50  1  0
 51  1  1  0
 51 52  1  0
 53 52  1  0
 54 65  2  0
 55 53  1  0
 55 60  1  0
 56 64  1  0
 56 66  1  0
 57 63  1  0
 57 59  1  0
 58 64  1  0
 59 58  1  0
 60 59  2  0
 61 55  2  0
 62 61  1  0
 62 57  2  0
 63 56  1  0
 64 54  1  0
 66 68  2  0
 67 66  1  0
 69 67  1  0
 70 79  2  0
 70 75  1  0
 71 67  1  0
 71 75  1  0
 72 71  1  0
 73 74  1  0
 73 72  1  0
 74 70  1  0
 75 76  2  0
 76 77  1  0
 78 77  2  0
 79 78  1  0
 80 54  1  0
 80 85  1  0
 80 81  1  0
 81 84  1  1
 81 82  1  0
 83 81  1  0
 85 88  1  0
 86 90  1  0
 86 85  1  0
 87 86  2  0
 90 89  1  0
 92 90  1  0
 92 93  1  0
 92 91  1  0
M  ISO  4  12 100  20 100  52 101  53 101
M  END
>  <TORSDO>  (78) 
F 19

>  <SCORE>  (78) 
-14.740

>  <name>  (78) 
77

>  <ligand_id>  (78) 
77

>  <original_smiles>  (78) 
[H]c1c([H])c(N([H])C(=O)N2C([H])([H])C([H])([H])C([H])([H])C([H])(n3nc(-c4c([H])c([H])c(Oc5c([H])c([H])c(F)c([H])c5F)c([H])c4[H])c(C(=O)N([H])[H])c3N([H])[H])C2([H])[H])c(C([H])([H])[H])c(N([H])C(=O)C([H])(C([H])([H])[H])C([H])([H])Oc2c([H])c([H])c3c(c2[H])C([H])([H])N(C(=O)C([H])(N([H])C(=O)C([H])(N([H])C([H])([H])[H])C([H])([H])[H])C(C([H])([H])[H])(C([H])([H])[H])C([H])([H])[H])C([H])(C(=O)N([H])C2([H])c4c([H])c([H])c([H])c([H])c4C([H])([H])C([H])([H])C2([H])[H])C3([H])[H])c1[H]

>  <smiles>  (78) 
[H]c1c([H])c(N([H])C(=O)N2C([H])([H])C([H])([H])C([H])([H])C([H])(n3nc(-c4c([H])c([H])c(Oc5c([H])c([H])c(F)c([H])c5F)c([H])c4[H])c(C(=O)N([H])[H])c3N([H])[H])C2([H])[H])c(C([H])([H])[H])c(N([H])C(=O)C([H])(C([H])([H])[H])C([H])([H])Oc2c([H])c([H])c3c(c2[H])C([H])([H])N(C(=O)C([H])(N([H])C(=O)C([H])(N([H])C([H])([H])[H])C([H])([H])[H])C(C([H])([H])[H])(C([H])([H])[H])C([H])([H])[H])C([H])(C(=O)N([H])C2([H])c4c([H])c([H])c([H])c([H])c4C([H])([H])C([H])([H])C2([H])[H])C3([H])[H])c1[H]

$$$$
78:0:0
     RDKit          3D

 96105  0  0  1  0  0  0  0  0999 V2000
  -27.8150  -21.6140   20.9350 C   0  0  0  0  0  0  0  0  0  0  0  0
  -29.6020  -22.9320   20.3740 C   0  0  0  0  0  2  0  0  0  0  0  0
  -27.3330  -23.0850   21.0290 C   0  0  0  0  0  3  0  0  0  0  0  0
  -28.3830  -23.9540   20.2850 C   0  0  0  0  0  3  0  0  0  0  0  0
  -29.1140  -21.5120   20.5950 N   0  0  0  0  0  0  0  0  0  0  0  0
  -27.0600  -20.6650   21.1730 O   0  0  0  0  0  0  0  0  0  0  0  0
  -31.2750  -20.4560   20.0720 C   0  0  0  0  0  3  0  0  0  0  0  0
  -31.8010  -18.0710   20.2590 C   0  0  0  0  0  3  0  0  0  0  0  0
  -29.5920  -18.8830   20.8530 C   0  0  0  0  0  3  0  0  0  0  0  0
  -32.1770  -19.3880   19.9340 C   0  0  0  0  0  0  0  0  0  0  0  0
  -29.9510  -20.2680   20.5220 C   0  0  0  0  0  0  0  0  0  0  0  0
  -30.5070  -17.7450   20.7370 C   0  0  0  0  0  0  0  0  0  0  0  0
  -33.5720  -19.6590   19.4070 C   0  0  0  0  0  1  0  0  0  0  0  0
  -30.9260  -15.1410   20.9480 C   0  0  0  0  0  0  0  0  0  0  0  0
  -30.8060  -12.8320   20.0060 C   0  0  0  0  0  2  0  0  0  0  0  0
  -30.0080  -12.8620   18.6860 C   0  0  0  0  0  2  0  0  0  0  0  0
  -28.5010  -12.7040   18.9600 C   0  0  0  0  0  2  0  0  0  0  0  0
  -28.0030  -13.6320   20.1000 C   0  0  0  0  0  3  0  0  0  0  0  0
  -28.9340  -13.5960   21.3300 C   0  0  0  0  0  2  0  0  0  0  0  0
  -30.2870  -13.9240   20.8650 N   0  0  0  0  0  0  0  0  0  0  0  0
  -32.1480  -15.1680   20.7790 O   0  0  0  0  0  0  0  0  0  0  0  0
  -30.1660  -16.3120   21.0330 N   0  0  0  0  0  0  0  0  0  0  0  0
  -29.1920  -16.1440   21.2390 H   0  0  0  0  0  0  0  0  0  0  0  0
  -25.5640  -14.2440   20.5850 C   0  0  0  0  0  0  0  0  0  0  0  0
  -24.4600  -13.4810   20.8500 C   0  0  0  0  0  0  0  0  0  0  0  0
  -24.9120  -12.1260   20.8750 C   0  0  0  0  0  0  0  0  0  0  0  0
  -26.6170  -13.3550   20.4570 N   0  0  0  0  0  0  0  0  0  0  0  0
  -26.2270  -12.0770   20.6970 N   0  0  0  0  0  0  0  0  0  0  0  0
  -24.1600  -10.8720   20.9980 C   0  0  0  0  0  0  0  0  0  0  0  0
  -24.5160   -9.8840   21.9430 C   0  0  0  0  0  3  0  0  0  0  0  0
  -23.7640   -8.6950   22.0550 C   0  0  0  0  0  3  0  0  0  0  0  0
  -22.6410   -8.4830   21.2200 C   0  0  0  0  0  0  0  0  0  0  0  0
  -22.3040   -9.4580   20.2650 C   0  0  0  0  0  3  0  0  0  0  0  0
  -23.0570  -10.6400   20.1510 C   0  0  0  0  0  3  0  0  0  0  0  0
  -21.8670   -7.3480   21.2400 O   0  0  0  0  0  0  0  0  0  0  0  0
  -21.7700   -6.5640   22.3610 C   0  0  0  0  0  0  0  0  0  0  0  0
  -21.3230   -7.0810   23.5960 C   0  0  0  0  0  3  0  0  0  0  0  0
  -21.1720   -6.2250   24.7040 C   0  0  0  0  0  3  0  0  0  0  0  0
  -21.4570   -4.8520   24.5790 C   0  0  0  0  0  0  0  0  0  0  0  0
  -21.8980   -4.3340   23.3480 C   0  0  0  0  0  3  0  0  0  0  0  0
  -22.0510   -5.1880   22.2420 C   0  0  0  0  0  0  0  0  0  0  0  0
  -22.4550   -4.6790   21.0520 F   0  0  0  0  0  0  0  0  0  0  0  0
  -21.3050   -4.0270   25.6410 F   0  0  0  0  0  0  0  0  0  0  0  0
  -23.0470  -13.9710   20.9760 C   0  0  0  0  0  0  0  0  0  0  0  0
  -22.2300  -13.2920   21.7730 N   0  0  0  0  0  0  0  0  0  0  0  0
  -22.6720  -14.9920   20.4010 O   0  0  0  0  0  0  0  0  0  0  0  0
  -22.5430  -12.4650   22.2590 H   0  0  0  0  0  0  0  0  0  0  0  0
  -21.2770  -13.6030   21.8980 H   0  0  0  0  0  0  0  0  0  0  0  0
  -25.7580  -15.6120   20.4140 N   0  0  0  0  0  0  0  0  0  0  0  0
  -24.9900  -16.2750   20.4320 H   0  0  0  0  0  0  0  0  0  0  0  0
  -26.6360  -16.0350   20.1410 H   0  0  0  0  0  0  0  0  0  0  0  0
  -25.8700  -23.3210   20.5700 C   0  0  0  0  0  2  0  0  0  0  0  0
  -24.6560  -23.6730   22.6010 C   0  0  0  0  0  1  0  0  0  0  0  0
  -25.1900  -24.2480   21.4140 O   0  0  0  0  0  0  0  0  0  0  0  0
  -28.4680  -25.4840   20.8590 C   0  0  0  0  0  2  0  0  0  0  0  0
  -28.4780  -26.7630   20.0730 O   0  0  0  0  0  0  0  0  0  0  0  0
  -24.6360  -32.0020   23.3430 C   0  0  0  0  0  0  0  0  0  0  0  0
  -27.3590  -27.6180   20.1150 C   0  0  0  0  0  0  0  0  0  0  0  0
  -23.4770  -30.6630   21.6200 C   0  0  0  0  0  3  0  0  0  0  0  0
  -24.9730  -29.2060   20.1360 C   0  0  0  0  0  0  0  0  0  0  0  0
  -26.0100  -31.0380   21.4750 C   0  0  0  0  0  2  0  0  0  0  0  0
  -26.1270  -29.6880   20.7680 C   0  0  0  0  0  0  0  0  0  0  0  0
  -27.3270  -28.9080   20.7410 C   0  0  0  0  0  3  0  0  0  0  0  0
  -26.1840  -27.1940   19.4630 C   0  0  0  0  0  3  0  0  0  0  0  0
  -25.0040  -27.9680   19.4730 C   0  0  0  0  0  3  0  0  0  0  0  0
  -23.7210  -30.0590   20.2110 C   0  0  0  0  0  2  0  0  0  0  0  0
  -24.7260  -31.2510   22.2030 N   0  0  0  0  0  0  0  0  0  0  0  0
  -23.5430  -32.2270   23.8810 O   0  0  0  0  0  0  0  0  0  0  0  0
  -22.8240  -29.5890   22.5240 C   0  0  0  0  0  0  0  0  0  0  0  0
  -21.5020  -29.3950   22.3760 N   0  0  0  0  0  0  0  0  0  0  0  0
  -23.5060  -28.9370   23.3180 O   0  0  0  0  0  0  0  0  0  0  0  0
  -21.0100  -29.9770   21.7150 H   0  0  0  0  0  0  0  0  0  0  0  0
  -18.1430  -28.1140   22.7950 C   0  0  0  0  0  0  0  0  0  0  0  0
  -20.6960  -28.4020   23.0890 C   0  0  0  0  0  3  0  0  0  0  0  0
  -20.8230  -27.0070   22.4330 C   0  0  0  0  0  2  0  0  0  0  0  0
  -19.7310  -26.7250   21.3970 C   0  0  0  0  0  2  0  0  0  0  0  0
  -18.3440  -26.8080   22.0430 C   0  0  0  0  0  2  0  0  0  0  0  0
  -19.2480  -28.8700   23.2710 C   0  0  0  0  0  0  0  0  0  0  0  0
  -19.0060  -30.0920   23.9340 C   0  0  0  0  0  3  0  0  0  0  0  0
  -17.6920  -30.5620   24.1230 C   0  0  0  0  0  3  0  0  0  0  0  0
  -16.6030  -29.8040   23.6620 C   0  0  0  0  0  3  0  0  0  0  0  0
  -16.8280  -28.5820   23.0050 C   0  0  0  0  0  3  0  0  0  0  0  0
  -25.8990  -32.6270   24.0100 C   0  0  0  0  0  3  0  0  0  0  0  0
  -26.3860  -31.8320   25.2840 C   0  0  1  0  0  0  0  0  0  0  0  0
  -25.2690  -31.5660   26.3200 C   0  0  0  0  0  1  0  0  0  0  0  0
  -26.9880  -30.4670   24.8760 C   0  0  0  0  0  1  0  0  0  0  0  0
  -27.5160  -32.6170   25.9910 C   0  0  0  0  0  1  0  0  0  0  0  0
  -25.5750  -34.0170   24.3660 N   0  0  0  0  0  0  0  0  0  0  0  0
  -25.9300  -35.0900   23.6450 C   0  0  0  0  0  0  0  0  0  0  0  0
  -26.6310  -35.0150   22.6330 O   0  0  0  0  0  0  0  0  0  0  0  0
  -24.9580  -34.1470   25.1530 H   0  0  0  0  0  0  0  0  0  0  0  0
  -24.2050  -36.8870   23.2830 C   0  0  0  0  0  1  0  0  0  0  0  0
  -25.4240  -36.4680   24.1210 C   0  0  0  0  0  3  0  0  0  0  0  0
  -27.5290  -37.3390   25.0320 C   0  0  0  0  0  1  0  0  0  0  0  0
  -26.4560  -37.5250   24.0600 N   0  0  0  0  0  0  0  0  0  0  0  0
  -26.0430  -38.4410   24.2160 H   0  0  0  0  0  0  0  0  0  0  0  0
  1  3  1  0
  1  6  2  0
  2  5  1  0
  3 52  1  0
  4  2  1  0
  4 55  1  0
  4  3  1  0
  5  1  1  0
  7 11  1  0
  8 12  2  0
 10  7  2  0
 10  8  1  0
 11  5  1  0
 11  9  2  0
 12  9  1  0
 12 22  1  0
 13 10  1  0
 14 22  1  0
 15 20  1  0
 16 17  1  0
 16 15  1  0
 18 17  1  0
 18 27  1  0
 18 19  1  0
 20 14  1  0
 20 19  1  0
 21 14  2  0
 22 23  1  0
 24 25  2  0
 25 26  1  0
 25 44  1  0
 26 29  1  0
 27 24  1  0
 27 28  1  0
 28 26  2  0
 29 30  1  0
 30 31  2  0
 32 35  1  0
 32 31  1  0
 33 32  2  0
 34 33  1  0
 34 29  2  0
 35 36  1  0
 36 37  1  0
 37 38  2  0
 39 38  1  0
 39 43  1  0
 40 39  2  0
 41 36  2  0
 41 40  1  0
 42 41  1  0
 44 45  1  0
 45 48  1  0
 45 47  1  0
 46 44  2  0
 49 50  1  0
 49 24  1  0
 51 49  1  0
 52 54  1  0
 54 53  1  0
 56 58  1  0
 56 55  1  0
 57 68  2  0
 58 63  1  0
 59 67  1  0
 59 69  1  0
 60 66  1  0
 60 62  1  0
 61 67  1  0
 62 61  1  0
 63 62  2  0
 64 65  1  0
 64 58  2  0
 65 60  2  0
 66 59  1  0
 67 57  1  0
 69 71  2  0
 70 69  1  0
 72 70  1  0
 73 82  2  0
 73 78  1  0
 74 70  1  0
 74 78  1  0
 75 74  1  0
 76 77  1  0
 76 75  1  0
 77 73  1  0
 78 79  2  0
 79 80  1  0
 81 80  2  0
 82 81  1  0
 83 57  1  0
 83 88  1  0
 83 84  1  0
 84 87  1  1
 84 85  1  0
 86 84  1  0
 88 91  1  0
 89 93  1  0
 89 88  1  0
 90 89  2  0
 93 92  1  0
 95 93  1  0
 95 96  1  0
 95 94  1  0
M  ISO  4  14 100  22 100  55 101  56 101
M  END
>  <TORSDO>  (79) 
F 20

>  <SCORE>  (79) 
-12.573

>  <name>  (79) 
78

>  <ligand_id>  (79) 
78

>  <original_smiles>  (79) 
[H]c1c([H])c([H])c2c(c1[H])C([H])([H])C([H])([H])C([H])([H])C2([H])N([H])C(=O)C1([H])N(C(=O)C([H])(N([H])C(=O)C([H])(N([H])C([H])([H])[H])C([H])([H])[H])C(C([H])([H])[H])(C([H])([H])[H])C([H])([H])[H])C([H])([H])c2c([H])c(OC([H])([H])C3([H])C([H])([H])N(c4c([H])c(N([H])C(=O)N5C([H])([H])C([H])([H])C([H])([H])C([H])(n6nc(-c7c([H])c([H])c(Oc8c([H])c([H])c(F)c([H])c8F)c([H])c7[H])c(C(=O)N([H])[H])c6N([H])[H])C5([H])[H])c([H])c(C([H])([H])[H])c4[H])C(=O)C3([H])C([H])([H])OC([H])([H])[H])c([H])c([H])c2C1([H])[H]

>  <smiles>  (79) 
[H]c1c([H])c([H])c2c(c1[H])C([H])([H])C([H])([H])C([H])([H])C2([H])N([H])C(=O)C1([H])N(C(=O)C([H])(N([H])C(=O)C([H])(N([H])C([H])([H])[H])C([H])([H])[H])C(C([H])([H])[H])(C([H])([H])[H])C([H])([H])[H])C([H])([H])c2c([H])c(OC([H])([H])C3([H])C([H])([H])N(c4c([H])c(N([H])C(=O)N5C([H])([H])C([H])([H])C([H])([H])C([H])(n6nc(-c7c([H])c([H])c(Oc8c([H])c([H])c(F)c([H])c8F)c([H])c7[H])c(C(=O)N([H])[H])c6N([H])[H])C5([H])[H])c([H])c(C([H])([H])[H])c4[H])C(=O)C3([H])C([H])([H])OC([H])([H])[H])c([H])c([H])c2C1([H])[H]

$$$$
79:0:0
     RDKit          3D

 94102  0  0  1  0  0  0  0  0999 V2000
  -30.2080  -21.7340   20.6350 C   0  0  0  0  0  0  0  0  0  0  0  0
  -29.3330  -24.0610   20.3990 C   0  0  0  0  0  0  0  0  0  0  0  0
  -29.2750  -22.6790   20.2430 N   0  0  0  0  0  0  0  0  0  0  0  0
  -31.2410  -22.0650   21.2280 O   0  0  0  0  0  0  0  0  0  0  0  0
  -30.2810  -24.6330   20.9510 O   0  0  0  0  0  0  0  0  0  0  0  0
  -28.4620  -22.3190   19.7690 H   0  0  0  0  0  0  0  0  0  0  0  0
  -28.8600  -19.4840   20.5850 C   0  0  0  0  0  3  0  0  0  0  0  0
  -31.1800  -17.9650   20.1410 C   0  0  0  0  0  3  0  0  0  0  0  0
  -30.0660  -20.2080   20.3840 C   0  0  0  0  0  0  0  0  0  0  0  0
  -29.9830  -17.2460   20.3910 C   0  0  0  0  0  0  0  0  0  0  0  0
  -28.8240  -18.0520   20.5870 C   0  0  0  0  0  0  0  0  0  0  0  0
  -31.2210  -19.3950   20.1400 C   0  0  0  0  0  0  0  0  0  0  0  0
  -27.6430  -17.4290   20.8090 F   0  0  0  0  0  0  0  0  0  0  0  0
  -32.4210  -19.9830   19.9150 F   0  0  0  0  0  0  0  0  0  0  0  0
  -30.6130  -14.7230   20.0290 C   0  0  0  0  0  0  0  0  0  0  0  0
  -30.3150  -12.5150   18.9120 C   0  0  0  0  0  2  0  0  0  0  0  0
  -29.2980  -12.6900   17.7620 C   0  0  0  0  0  2  0  0  0  0  0  0
  -27.8530  -12.5330   18.2760 C   0  0  0  0  0  2  0  0  0  0  0  0
  -27.5840  -13.3560   19.5640 C   0  0  0  0  0  3  0  0  0  0  0  0
  -28.7090  -13.1540   20.6050 C   0  0  0  0  0  2  0  0  0  0  0  0
  -29.9810  -13.5060   19.9570 N   0  0  0  0  0  0  0  0  0  0  0  0
  -31.7550  -14.8700   19.5810 O   0  0  0  0  0  0  0  0  0  0  0  0
  -29.8450  -15.7790   20.4560 N   0  0  0  0  0  0  0  0  0  0  0  0
  -28.9530  -15.4860   20.8270 H   0  0  0  0  0  0  0  0  0  0  0  0
  -25.2480  -13.9610   20.4450 C   0  0  0  0  0  0  0  0  0  0  0  0
  -24.1940  -13.1910   20.8530 C   0  0  0  0  0  0  0  0  0  0  0  0
  -24.6350  -11.8360   20.7540 C   0  0  0  0  0  0  0  0  0  0  0  0
  -26.2640  -13.0770   20.1210 N   0  0  0  0  0  0  0  0  0  0  0  0
  -25.9040  -11.7910   20.3680 N   0  0  0  0  0  0  0  0  0  0  0  0
  -23.9030  -10.5770   20.9500 C   0  0  0  0  0  0  0  0  0  0  0  0
  -24.3500   -9.5970   21.8630 C   0  0  0  0  0  3  0  0  0  0  0  0
  -23.6170   -8.4030   22.0470 C   0  0  0  0  0  3  0  0  0  0  0  0
  -22.4250   -8.1830   21.3180 C   0  0  0  0  0  0  0  0  0  0  0  0
  -21.9970   -9.1520   20.3940 C   0  0  0  0  0  3  0  0  0  0  0  0
  -22.7290  -10.3360   20.2080 C   0  0  0  0  0  3  0  0  0  0  0  0
  -21.6630   -7.0430   21.4130 O   0  0  0  0  0  0  0  0  0  0  0  0
  -21.5940   -6.3180   22.5750 C   0  0  0  0  0  0  0  0  0  0  0  0
  -21.1370   -6.8880   23.7830 C   0  0  0  0  0  3  0  0  0  0  0  0
  -21.0150   -6.0880   24.9370 C   0  0  0  0  0  3  0  0  0  0  0  0
  -21.3420   -4.7200   24.8830 C   0  0  0  0  0  0  0  0  0  0  0  0
  -21.7940   -4.1500   23.6800 C   0  0  0  0  0  3  0  0  0  0  0  0
  -21.9160   -4.9460   22.5290 C   0  0  0  0  0  0  0  0  0  0  0  0
  -22.3310   -4.3870   21.3670 F   0  0  0  0  0  0  0  0  0  0  0  0
  -21.2190   -3.9500   25.9900 F   0  0  0  0  0  0  0  0  0  0  0  0
  -22.8230  -13.6770   21.2240 C   0  0  0  0  0  0  0  0  0  0  0  0
  -22.1410  -12.9670   22.1160 N   0  0  0  0  0  0  0  0  0  0  0  0
  -22.3670  -14.7210   20.7590 O   0  0  0  0  0  0  0  0  0  0  0  0
  -22.5230  -12.1220   22.5130 H   0  0  0  0  0  0  0  0  0  0  0  0
  -21.2230  -13.2740   22.4070 H   0  0  0  0  0  0  0  0  0  0  0  0
  -25.4200  -15.3350   20.3030 N   0  0  0  0  0  0  0  0  0  0  0  0
  -24.6780  -15.9940   20.5110 H   0  0  0  0  0  0  0  0  0  0  0  0
  -26.2730  -15.7890   20.0010 H   0  0  0  0  0  0  0  0  0  0  0  0
  -28.1790  -25.0100   19.8770 C   0  0  0  0  0  2  0  0  0  0  0  0
  -28.3590  -26.4730   20.1360 O   0  0  0  0  0  0  0  0  0  0  0  0
  -24.5490  -31.8130   23.1740 C   0  0  0  0  0  0  0  0  0  0  0  0
  -27.2320  -27.3130   20.0820 C   0  0  0  0  0  0  0  0  0  0  0  0
  -23.3690  -30.4140   21.5180 C   0  0  0  0  0  3  0  0  0  0  0  0
  -24.8440  -28.8990   20.0800 C   0  0  0  0  0  0  0  0  0  0  0  0
  -25.9050  -30.7680   21.3450 C   0  0  0  0  0  2  0  0  0  0  0  0
  -26.0050  -29.3970   20.6830 C   0  0  0  0  0  0  0  0  0  0  0  0
  -27.2010  -28.6160   20.6740 C   0  0  0  0  0  3  0  0  0  0  0  0
  -26.0440  -26.8750   19.4500 C   0  0  0  0  0  3  0  0  0  0  0  0
  -24.8670  -27.6450   19.4530 C   0  0  0  0  0  3  0  0  0  0  0  0
  -23.5950  -29.7550   20.1320 C   0  0  0  0  0  2  0  0  0  0  0  0
  -24.6260  -31.0160   22.0690 N   0  0  0  0  0  0  0  0  0  0  0  0
  -23.4610  -32.0710   23.7090 O   0  0  0  0  0  0  0  0  0  0  0  0
  -22.7170  -29.3790   22.4670 C   0  0  0  0  0  0  0  0  0  0  0  0
  -21.3920  -29.1950   22.3450 N   0  0  0  0  0  0  0  0  0  0  0  0
  -23.4040  -28.7450   23.2730 O   0  0  0  0  0  0  0  0  0  0  0  0
  -20.8970  -29.7590   21.6680 H   0  0  0  0  0  0  0  0  0  0  0  0
  -18.0210  -27.9900   22.8640 C   0  0  0  0  0  0  0  0  0  0  0  0
  -20.5830  -28.2430   23.1070 C   0  0  0  0  0  3  0  0  0  0  0  0
  -20.6770  -26.8230   22.5010 C   0  0  0  0  0  2  0  0  0  0  0  0
  -19.5610  -26.5210   21.4940 C   0  0  0  0  0  2  0  0  0  0  0  0
  -18.1880  -26.6540   22.1590 C   0  0  0  0  0  2  0  0  0  0  0  0
  -19.1450  -28.7430   23.2950 C   0  0  0  0  0  0  0  0  0  0  0  0
  -18.9340  -29.9940   23.9150 C   0  0  0  0  0  3  0  0  0  0  0  0
  -17.6310  -30.4910   24.1080 C   0  0  0  0  0  3  0  0  0  0  0  0
  -16.5220  -29.7350   23.6920 C   0  0  0  0  0  3  0  0  0  0  0  0
  -16.7180  -28.4860   23.0760 C   0  0  0  0  0  3  0  0  0  0  0  0
  -25.8210  -32.4580   23.8060 C   0  0  0  0  0  3  0  0  0  0  0  0
  -25.4950  -33.8520   24.1360 N   0  0  0  0  0  0  0  0  0  0  0  0
  -25.8040  -34.9090   23.3730 C   0  0  0  0  0  0  0  0  0  0  0  0
  -26.4640  -34.8130   22.3350 O   0  0  0  0  0  0  0  0  0  0  0  0
  -24.9060  -33.9990   24.9430 H   0  0  0  0  0  0  0  0  0  0  0  0
  -24.0430  -36.6740   23.0440 C   0  0  0  0  0  1  0  0  0  0  0  0
  -25.3030  -36.2910   23.8350 C   0  0  0  0  0  3  0  0  0  0  0  0
  -27.4340  -37.2180   24.6300 C   0  0  0  0  0  1  0  0  0  0  0  0
  -26.3180  -37.3600   23.7000 N   0  0  0  0  0  0  0  0  0  0  0  0
  -25.8980  -38.2750   23.8460 H   0  0  0  0  0  0  0  0  0  0  0  0
  -26.3360  -31.6900   25.0850 C   0  0  1  0  0  0  0  0  0  0  0  0
  -25.2370  -31.4380   26.1430 C   0  0  0  0  0  1  0  0  0  0  0  0
  -26.9390  -30.3210   24.6970 C   0  0  0  0  0  1  0  0  0  0  0  0
  -27.4720  -32.4970   25.7580 C   0  0  0  0  0  1  0  0  0  0  0  0
  1  4  2  0
  2  5  2  0
  3  2  1  0
  3  1  1  0
  6  3  1  0
  7 11  1  0
  8 10  1  0
  9  7  2  0
  9  1  1  0
 10 23  1  0
 10 11  2  0
 11 13  1  0
 12  8  2  0
 12  9  1  0
 14 12  1  0
 15 23  1  0
 16 21  1  0
 17 18  1  0
 17 16  1  0
 19 18  1  0
 19 28  1  0
 19 20  1  0
 21 15  1  0
 21 20  1  0
 22 15  2  0
 23 24  1  0
 25 26  2  0
 26 45  1  0
 27 26  1  0
 27 30  1  0
 28 29  1  0
 28 25  1  0
 29 27  2  0
 30 31  1  0
 31 32  2  0
 33 36  1  0
 33 32  1  0
 34 33  2  0
 35 34  1  0
 35 30  2  0
 36 37  1  0
 37 38  1  0
 38 39  2  0
 40 39  1  0
 40 44  1  0
 41 40  2  0
 42 37  2  0
 42 41  1  0
 43 42  1  0
 45 46  1  0
 46 49  1  0
 46 48  1  0
 47 45  2  0
 50 25  1  0
 50 51  1  0
 52 50  1  0
 53 54  1  0
 53  2  1  0
 55 66  2  0
 56 54  1  0
 56 61  1  0
 57 65  1  0
 57 67  1  0
 58 64  1  0
 58 60  1  0
 59 65  1  0
 60 59  1  0
 61 60  2  0
 62 63  1  0
 62 56  2  0
 63 58  2  0
 64 57  1  0
 65 55  1  0
 67 69  2  0
 68 67  1  0
 70 68  1  0
 71 80  2  0
 71 76  1  0
 72 68  1  0
 72 76  1  0
 73 72  1  0
 74 75  1  0
 74 73  1  0
 75 71  1  0
 76 77  2  0
 77 78  1  0
 79 78  2  0
 80 79  1  0
 81 55  1  0
 81 82  1  0
 81 91  1  0
 82 85  1  0
 83 87  1  0
 83 82  1  0
 84 83  2  0
 87 86  1  0
 89 87  1  0
 89 90  1  0
 89 88  1  0
 91 94  1  1
 91 92  1  0
 93 91  1  0
M  ISO  4  15 100  23 100  53 101  54 101
M  END
>  <TORSDO>  (80) 
F 18

>  <SCORE>  (80) 
-14.735

>  <name>  (80) 
79

>  <ligand_id>  (80) 
79

>  <original_smiles>  (80) 
[H]c1c([H])c([H])c2c(c1[H])C([H])([H])C([H])([H])C([H])([H])C2([H])N([H])C(=O)C1([H])N(C(=O)C([H])(N([H])C(=O)C([H])(N([H])C([H])([H])[H])C([H])([H])[H])C(C([H])([H])[H])(C([H])([H])[H])C([H])([H])[H])C([H])([H])c2c([H])c(OC([H])([H])C(=O)N([H])C(=O)c3c([H])c(F)c(N([H])C(=O)N4C([H])([H])C([H])([H])C([H])([H])C([H])(n5nc(-c6c([H])c([H])c(Oc7c([H])c([H])c(F)c([H])c7F)c([H])c6[H])c(C(=O)N([H])[H])c5N([H])[H])C4([H])[H])c([H])c3F)c([H])c([H])c2C1([H])[H]

>  <smiles>  (80) 
[H]c1c([H])c([H])c2c(c1[H])C([H])([H])C([H])([H])C([H])([H])C2([H])N([H])C(=O)C1([H])N(C(=O)C([H])(N([H])C(=O)C([H])(N([H])C([H])([H])[H])C([H])([H])[H])C(C([H])([H])[H])(C([H])([H])[H])C([H])([H])[H])C([H])([H])c2c([H])c(OC([H])([H])C(=O)N([H])C(=O)c3c([H])c(F)c(N([H])C(=O)N4C([H])([H])C([H])([H])C([H])([H])C([H])(n5nc(-c6c([H])c([H])c(Oc7c([H])c([H])c(F)c([H])c7F)c([H])c6[H])c(C(=O)N([H])[H])c5N([H])[H])C4([H])[H])c([H])c3F)c([H])c([H])c2C1([H])[H]

$$$$
80:0:0
     RDKit          3D

 97106  0  0  1  0  0  0  0  0999 V2000
  -28.8970  -23.8930   20.5640 C   0  0  0  0  0  0  0  0  0  0  0  0
  -29.5230  -23.9730   21.8880 C   0  0  0  0  0  0  0  0  0  0  0  0
  -30.3150  -21.5240   21.8450 C   0  0  0  0  0  0  0  0  0  0  0  0
  -28.3410  -25.0180   19.9430 C   0  0  0  0  0  3  0  0  0  0  0  0
  -28.9450  -22.4070   19.9860 C   0  0  0  0  0  2  0  0  0  0  0  0
  -30.6660  -22.9920   22.1690 C   0  0  0  0  0  2  0  0  0  0  0  0
  -29.5440  -21.2120   20.7620 N   0  0  0  0  0  0  0  0  0  0  0  0
  -29.1930  -24.7890   22.7550 O   0  0  0  0  0  0  0  0  0  0  0  0
  -30.8000  -20.6730   22.5990 O   0  0  0  0  0  0  0  0  0  0  0  0
  -28.9340  -19.6440   18.9160 C   0  0  0  0  0  3  0  0  0  0  0  0
  -29.7910  -18.5170   20.8860 C   0  0  0  0  0  3  0  0  0  0  0  0
  -29.2450  -17.2060   18.9060 C   0  0  0  0  0  3  0  0  0  0  0  0
  -29.4370  -19.7910   20.2330 C   0  0  0  0  0  0  0  0  0  0  0  0
  -28.8370  -18.3950   18.2690 C   0  0  0  0  0  0  0  0  0  0  0  0
  -29.7150  -17.2060   20.2360 C   0  0  0  0  0  0  0  0  0  0  0  0
  -30.5980  -14.7610   20.3920 C   0  0  0  0  0  0  0  0  0  0  0  0
  -30.3820  -12.4840   19.3800 C   0  0  0  0  0  2  0  0  0  0  0  0
  -29.4620  -12.5820   18.1430 C   0  0  0  0  0  2  0  0  0  0  0  0
  -27.9850  -12.4240   18.5550 C   0  0  0  0  0  2  0  0  0  0  0  0
  -27.6090  -13.3020   19.7800 C   0  0  0  0  0  3  0  0  0  0  0  0
  -28.6550  -13.1900   20.9140 C   0  0  0  0  0  2  0  0  0  0  0  0
  -29.9680  -13.5320   20.3460 N   0  0  0  0  0  0  0  0  0  0  0  0
  -31.7400  -14.8760   19.9400 O   0  0  0  0  0  0  0  0  0  0  0  0
  -29.9120  -15.8710   20.8670 N   0  0  0  0  0  0  0  0  0  0  0  0
  -29.1450  -15.6050   21.4670 H   0  0  0  0  0  0  0  0  0  0  0  0
  -25.2140  -13.9090   20.4750 C   0  0  0  0  0  0  0  0  0  0  0  0
  -24.1400  -13.1460   20.8410 C   0  0  0  0  0  0  0  0  0  0  0  0
  -24.5960  -11.7920   20.8270 C   0  0  0  0  0  0  0  0  0  0  0  0
  -26.2560  -13.0220   20.2540 N   0  0  0  0  0  0  0  0  0  0  0  0
  -25.8880  -11.7430   20.5260 N   0  0  0  0  0  0  0  0  0  0  0  0
  -23.8610  -10.5350   21.0250 C   0  0  0  0  0  0  0  0  0  0  0  0
  -24.2900   -9.5650   21.9580 C   0  0  0  0  0  3  0  0  0  0  0  0
  -23.5530   -8.3760   22.1440 C   0  0  0  0  0  3  0  0  0  0  0  0
  -22.3740   -8.1480   21.3980 C   0  0  0  0  0  0  0  0  0  0  0  0
  -21.9610   -9.1050   20.4530 C   0  0  0  0  0  3  0  0  0  0  0  0
  -22.6990  -10.2860   20.2640 C   0  0  0  0  0  3  0  0  0  0  0  0
  -21.6090   -7.0100   21.4920 O   0  0  0  0  0  0  0  0  0  0  0  0
  -21.5690   -6.2620   22.6420 C   0  0  0  0  0  0  0  0  0  0  0  0
  -21.1780   -6.8170   23.8790 C   0  0  0  0  0  3  0  0  0  0  0  0
  -21.0820   -5.9990   25.0220 C   0  0  0  0  0  3  0  0  0  0  0  0
  -21.3700   -4.6240   24.9280 C   0  0  0  0  0  0  0  0  0  0  0  0
  -21.7540   -4.0660   23.6960 C   0  0  0  0  0  3  0  0  0  0  0  0
  -21.8500   -4.8830   22.5560 C   0  0  0  0  0  0  0  0  0  0  0  0
  -22.2000   -4.3380   21.3660 F   0  0  0  0  0  0  0  0  0  0  0  0
  -21.2710   -3.8330   26.0220 F   0  0  0  0  0  0  0  0  0  0  0  0
  -22.7440  -13.6340   21.1010 C   0  0  0  0  0  0  0  0  0  0  0  0
  -22.0090  -12.9530   21.9730 N   0  0  0  0  0  0  0  0  0  0  0  0
  -22.3140  -14.6570   20.5700 O   0  0  0  0  0  0  0  0  0  0  0  0
  -22.3670  -12.1280   22.4310 H   0  0  0  0  0  0  0  0  0  0  0  0
  -21.0720  -13.2630   22.1890 H   0  0  0  0  0  0  0  0  0  0  0  0
  -25.3910  -15.2780   20.2900 N   0  0  0  0  0  0  0  0  0  0  0  0
  -24.6400  -15.9470   20.4160 H   0  0  0  0  0  0  0  0  0  0  0  0
  -26.2580  -15.7080   19.9940 H   0  0  0  0  0  0  0  0  0  0  0  0
  -28.3110  -18.3350   16.9800 N   0  0  0  0  0  0  0  0  0  0  0  0
  -27.6760  -19.0750   16.6980 H   0  0  0  0  0  0  0  0  0  0  0  0
  -28.0130  -17.4300   16.6320 H   0  0  0  0  0  0  0  0  0  0  0  0
  -28.3480  -26.4030   20.3190 O   0  0  0  0  0  0  0  0  0  0  0  0
  -24.6090  -31.8750   23.2270 C   0  0  0  0  0  0  0  0  0  0  0  0
  -27.2290  -27.2730   20.1990 C   0  0  0  0  0  0  0  0  0  0  0  0
  -23.4020  -30.4770   21.5860 C   0  0  0  0  0  3  0  0  0  0  0  0
  -24.8560  -28.9180   20.1560 C   0  0  0  0  0  0  0  0  0  0  0  0
  -25.9440  -30.7840   21.4040 C   0  0  0  0  0  2  0  0  0  0  0  0
  -26.0250  -29.4020   20.7550 C   0  0  0  0  0  0  0  0  0  0  0  0
  -27.2090  -28.5960   20.7590 C   0  0  0  0  0  3  0  0  0  0  0  0
  -26.0320  -26.8470   19.5770 C   0  0  0  0  0  3  0  0  0  0  0  0
  -24.8660  -27.6470   19.5520 C   0  0  0  0  0  3  0  0  0  0  0  0
  -23.6180  -29.7950   20.2060 C   0  0  0  0  0  2  0  0  0  0  0  0
  -24.6710  -31.0640   22.1280 N   0  0  0  0  0  0  0  0  0  0  0  0
  -23.5260  -32.1550   23.7620 O   0  0  0  0  0  0  0  0  0  0  0  0
  -22.7340  -29.4670   22.5500 C   0  0  0  0  0  0  0  0  0  0  0  0
  -21.4050  -29.3000   22.4310 N   0  0  0  0  0  0  0  0  0  0  0  0
  -23.4110  -28.8350   23.3670 O   0  0  0  0  0  0  0  0  0  0  0  0
  -20.9180  -29.8620   21.7460 H   0  0  0  0  0  0  0  0  0  0  0  0
  -18.0230  -28.1180   22.9480 C   0  0  0  0  0  0  0  0  0  0  0  0
  -20.5840  -28.3650   23.2040 C   0  0  0  0  0  3  0  0  0  0  0  0
  -20.6770  -26.9350   22.6250 C   0  0  0  0  0  2  0  0  0  0  0  0
  -19.5670  -26.6190   21.6170 C   0  0  0  0  0  2  0  0  0  0  0  0
  -18.1900  -26.7690   22.2690 C   0  0  0  0  0  2  0  0  0  0  0  0
  -19.1470  -28.8750   23.3720 C   0  0  0  0  0  0  0  0  0  0  0  0
  -18.9350  -30.1360   23.9710 C   0  0  0  0  0  3  0  0  0  0  0  0
  -17.6330  -30.6410   24.1450 C   0  0  0  0  0  3  0  0  0  0  0  0
  -16.5240  -29.8810   23.7360 C   0  0  0  0  0  3  0  0  0  0  0  0
  -16.7210  -28.6220   23.1410 C   0  0  0  0  0  3  0  0  0  0  0  0
  -25.8910  -32.5080   23.8490 C   0  0  0  0  0  3  0  0  0  0  0  0
  -25.5810  -33.9060   24.1850 N   0  0  0  0  0  0  0  0  0  0  0  0
  -25.9120  -34.9630   23.4310 C   0  0  0  0  0  0  0  0  0  0  0  0
  -26.5760  -34.8630   22.3960 O   0  0  0  0  0  0  0  0  0  0  0  0
  -24.9930  -34.0570   24.9920 H   0  0  0  0  0  0  0  0  0  0  0  0
  -24.1830  -36.7590   23.0970 C   0  0  0  0  0  1  0  0  0  0  0  0
  -25.4290  -36.3500   23.8980 C   0  0  0  0  0  3  0  0  0  0  0  0
  -27.5740  -37.2290   24.7130 C   0  0  0  0  0  1  0  0  0  0  0  0
  -26.4630  -37.4040   23.7810 N   0  0  0  0  0  0  0  0  0  0  0  0
  -26.0580  -38.3230   23.9420 H   0  0  0  0  0  0  0  0  0  0  0  0
  -26.4080  -31.7360   25.1260 C   0  0  1  0  0  0  0  0  0  0  0  0
  -25.3180  -31.5070   26.1980 C   0  0  0  0  0  1  0  0  0  0  0  0
  -26.9820  -30.3550   24.7370 C   0  0  0  0  0  1  0  0  0  0  0  0
  -27.5630  -32.5270   25.7840 C   0  0  0  0  0  1  0  0  0  0  0  0
  1  2  1  0
  2  6  1  0
  2  8  2  0
  3  6  1  0
  3  9  2  0
  4 57  1  0
  4  1  2  0
  5  1  1  0
  5  7  1  0
  7  3  1  0
 10 13  1  0
 12 15  2  0
 13  7  1  0
 13 11  2  0
 14 12  1  0
 14 10  2  0
 15 24  1  0
 15 11  1  0
 16 24  1  0
 17 22  1  0
 18 19  1  0
 18 17  1  0
 20 19  1  0
 20 29  1  0
 20 21  1  0
 22 16  1  0
 22 21  1  0
 23 16  2  0
 24 25  1  0
 26 27  2  0
 27 46  1  0
 28 27  1  0
 28 31  1  0
 29 26  1  0
 29 30  1  0
 30 28  2  0
 31 32  1  0
 32 33  2  0
 34 37  1  0
 34 33  1  0
 35 34  2  0
 36 35  1  0
 36 31  2  0
 37 38  1  0
 38 39  1  0
 39 40  2  0
 41 40  1  0
 41 45  1  0
 42 41  2  0
 43 38  2  0
 43 42  1  0
 44 43  1  0
 46 47  1  0
 47 50  1  0
 47 49  1  0
 48 46  2  0
 51 52  1  0
 51 26  1  0
 53 51  1  0
 54 14  1  0
 55 54  1  0
 56 54  1  0
 58 69  2  0
 59 57  1  0
 59 64  1  0
 60 68  1  0
 60 70  1  0
 61 67  1  0
 61 63  1  0
 62 68  1  0
 63 64  2  0
 63 62  1  0
 65 59  2  0
 66 65  1  0
 66 61  2  0
 67 60  1  0
 68 58  1  0
 70 72  2  0
 71 70  1  0
 73 71  1  0
 74 83  2  0
 74 79  1  0
 75 71  1  0
 75 79  1  0
 76 75  1  0
 77 78  1  0
 77 76  1  0
 78 74  1  0
 79 80  2  0
 80 81  1  0
 82 81  2  0
 83 82  1  0
 84 58  1  0
 84 85  1  0
 84 94  1  0
 85 88  1  0
 86 90  1  0
 86 85  1  0
 87 86  2  0
 90 89  1  0
 92 90  1  0
 92 93  1  0
 92 91  1  0
 94 97  1  1
 94 95  1  0
 96 94  1  0
M  ISO  4   4 101  16 100  24 100  57 101
M  END
>  <TORSDO>  (81) 
F 18

>  <SCORE>  (81) 
-15.506

>  <name>  (81) 
80

>  <ligand_id>  (81) 
80

>  <original_smiles>  (81) 
[H]C(Oc1c([H])c([H])c2c(c1[H])C([H])([H])N(C(=O)C([H])(N([H])C(=O)C([H])(N([H])C([H])([H])[H])C([H])([H])[H])C(C([H])([H])[H])(C([H])([H])[H])C([H])([H])[H])C([H])(C(=O)N([H])C1([H])c3c([H])c([H])c([H])c([H])c3C([H])([H])C([H])([H])C1([H])[H])C2([H])[H])=C1C(=O)C([H])([H])C(=O)N(c2c([H])c(N([H])[H])c([H])c(N([H])C(=O)N3C([H])([H])C([H])([H])C([H])([H])C([H])(n4nc(-c5c([H])c([H])c(Oc6c([H])c([H])c(F)c([H])c6F)c([H])c5[H])c(C(=O)N([H])[H])c4N([H])[H])C3([H])[H])c2[H])C1([H])[H]

>  <smiles>  (81) 
[H]C(Oc1c([H])c([H])c2c(c1[H])C([H])([H])N(C(=O)C([H])(N([H])C(=O)C([H])(N([H])C([H])([H])[H])C([H])([H])[H])C(C([H])([H])[H])(C([H])([H])[H])C([H])([H])[H])C([H])(C(=O)N([H])C1([H])c3c([H])c([H])c([H])c([H])c3C([H])([H])C([H])([H])C1([H])[H])C2([H])[H])=C1C(=O)C([H])([H])C(=O)N(c2c([H])c(N([H])[H])c([H])c(N([H])C(=O)N3C([H])([H])C([H])([H])C([H])([H])C([H])(n4nc(-c5c([H])c([H])c(Oc6c([H])c([H])c(F)c([H])c6F)c([H])c5[H])c(C(=O)N([H])[H])c4N([H])[H])C3([H])[H])c2[H])C1([H])[H]

$$$$
81:0:0
     RDKit          3D

 96105  0  0  1  0  0  0  0  0999 V2000
  -29.7390  -19.9520   18.7420 C   0  0  0  0  0  3  0  0  0  0  0  0
  -30.1130  -17.5210   18.6990 C   0  0  0  0  0  3  0  0  0  0  0  0
  -29.6040  -18.6490   20.7910 C   0  0  0  0  0  3  0  0  0  0  0  0
  -30.0200  -18.7650   18.0320 C   0  0  0  0  0  0  0  0  0  0  0  0
  -29.5300  -19.9560   20.1320 C   0  0  0  0  0  0  0  0  0  0  0  0
  -29.9100  -17.3950   20.0940 C   0  0  0  0  0  0  0  0  0  0  0  0
  -30.6410  -14.8810   20.3060 C   0  0  0  0  0  0  0  0  0  0  0  0
  -30.4480  -12.5920   19.3110 C   0  0  0  0  0  2  0  0  0  0  0  0
  -29.5130  -12.6860   18.0830 C   0  0  0  0  0  2  0  0  0  0  0  0
  -28.0400  -12.5090   18.5050 C   0  0  0  0  0  2  0  0  0  0  0  0
  -27.6670  -13.3720   19.7410 C   0  0  0  0  0  3  0  0  0  0  0  0
  -28.7320  -13.2750   20.8580 C   0  0  0  0  0  2  0  0  0  0  0  0
  -30.0280  -13.6420   20.2740 N   0  0  0  0  0  0  0  0  0  0  0  0
  -31.7990  -14.9840   19.8900 O   0  0  0  0  0  0  0  0  0  0  0  0
  -29.9180  -16.0140   20.6790 N   0  0  0  0  0  0  0  0  0  0  0  0
  -29.1430  -15.8160   21.2940 H   0  0  0  0  0  0  0  0  0  0  0  0
  -25.2680  -13.9320   20.4630 C   0  0  0  0  0  0  0  0  0  0  0  0
  -24.2110  -13.1480   20.8370 C   0  0  0  0  0  0  0  0  0  0  0  0
  -24.6890  -11.8010   20.8080 C   0  0  0  0  0  0  0  0  0  0  0  0
  -26.3230  -13.0650   20.2300 N   0  0  0  0  0  0  0  0  0  0  0  0
  -25.9810  -11.7780   20.4980 N   0  0  0  0  0  0  0  0  0  0  0  0
  -23.9740  -10.5320   21.0030 C   0  0  0  0  0  0  0  0  0  0  0  0
  -24.4080   -9.5730   21.9450 C   0  0  0  0  0  3  0  0  0  0  0  0
  -23.6930   -8.3700   22.1270 C   0  0  0  0  0  3  0  0  0  0  0  0
  -22.5260   -8.1180   21.3660 C   0  0  0  0  0  0  0  0  0  0  0  0
  -22.1100   -9.0650   20.4130 C   0  0  0  0  0  3  0  0  0  0  0  0
  -22.8270  -10.2580   20.2300 C   0  0  0  0  0  3  0  0  0  0  0  0
  -21.7770   -6.9700   21.4580 O   0  0  0  0  0  0  0  0  0  0  0  0
  -21.7180   -6.2400   22.6170 C   0  0  0  0  0  0  0  0  0  0  0  0
  -21.2530   -6.7990   23.8280 C   0  0  0  0  0  3  0  0  0  0  0  0
  -21.1420   -5.9930   24.9780 C   0  0  0  0  0  3  0  0  0  0  0  0
  -21.4900   -4.6290   24.9200 C   0  0  0  0  0  0  0  0  0  0  0  0
  -21.9460   -4.0690   23.7140 C   0  0  0  0  0  3  0  0  0  0  0  0
  -22.0570   -4.8730   22.5640 C   0  0  0  0  0  0  0  0  0  0  0  0
  -22.4790   -4.3230   21.4000 F   0  0  0  0  0  0  0  0  0  0  0  0
  -21.3750   -3.8520   26.0230 F   0  0  0  0  0  0  0  0  0  0  0  0
  -22.8080  -13.6120   21.1030 C   0  0  0  0  0  0  0  0  0  0  0  0
  -22.0820  -12.9130   21.9680 N   0  0  0  0  0  0  0  0  0  0  0  0
  -22.3660  -14.6350   20.5830 O   0  0  0  0  0  0  0  0  0  0  0  0
  -22.4510  -12.0870   22.4170 H   0  0  0  0  0  0  0  0  0  0  0  0
  -21.1440  -13.2120   22.1880 H   0  0  0  0  0  0  0  0  0  0  0  0
  -25.4170  -15.3030   20.2790 N   0  0  0  0  0  0  0  0  0  0  0  0
  -24.6480  -15.9510   20.4060 H   0  0  0  0  0  0  0  0  0  0  0  0
  -26.2600  -15.7470   19.9360 H   0  0  0  0  0  0  0  0  0  0  0  0
  -30.3920  -22.1480   20.9390 C   0  0  0  0  0  3  0  0  0  0  0  0
  -30.0870  -23.4620   20.9400 C   0  0  0  0  0  0  0  0  0  0  0  0
  -28.2390  -22.2100   20.3310 C   0  0  0  0  0  2  0  0  0  0  0  0
  -28.6080  -23.7100   20.7810 C   0  0  0  0  0  3  0  0  0  0  0  0
  -31.0480  -24.6170   21.1170 C   0  0  0  0  0  1  0  0  0  0  0  0
  -29.3370  -21.2600   20.7500 N   0  0  0  0  0  0  0  0  0  0  0  0
  -28.1120  -24.9790   19.8980 C   0  0  0  0  0  2  0  0  0  0  0  0
  -28.2100  -26.4290   20.3280 O   0  0  0  0  0  0  0  0  0  0  0  0
  -24.5610  -31.9810   23.2650 C   0  0  0  0  0  0  0  0  0  0  0  0
  -27.1150  -27.3310   20.2320 C   0  0  0  0  0  0  0  0  0  0  0  0
  -23.3420  -30.5810   21.6420 C   0  0  0  0  0  3  0  0  0  0  0  0
  -24.7750  -29.0140   20.2140 C   0  0  0  0  0  0  0  0  0  0  0  0
  -25.8890  -30.8590   21.4600 C   0  0  0  0  0  2  0  0  0  0  0  0
  -25.9510  -29.4740   20.8150 C   0  0  0  0  0  0  0  0  0  0  0  0
  -27.1190  -28.6420   20.8230 C   0  0  0  0  0  3  0  0  0  0  0  0
  -25.9200  -26.9620   19.5680 C   0  0  0  0  0  3  0  0  0  0  0  0
  -24.7650  -27.7650   19.5810 C   0  0  0  0  0  3  0  0  0  0  0  0
  -23.5450  -29.8990   20.2640 C   0  0  0  0  0  2  0  0  0  0  0  0
  -24.6160  -31.1600   22.1750 N   0  0  0  0  0  0  0  0  0  0  0  0
  -23.4800  -32.2700   23.8000 O   0  0  0  0  0  0  0  0  0  0  0  0
  -22.6780  -29.5730   22.6100 C   0  0  0  0  0  0  0  0  0  0  0  0
  -21.3540  -29.3830   22.4770 N   0  0  0  0  0  0  0  0  0  0  0  0
  -23.3550  -28.9640   23.4420 O   0  0  0  0  0  0  0  0  0  0  0  0
  -20.8650  -29.9220   21.7770 H   0  0  0  0  0  0  0  0  0  0  0  0
  -17.9840  -28.1650   22.9750 C   0  0  0  0  0  0  0  0  0  0  0  0
  -20.5370  -28.4530   23.2590 C   0  0  0  0  0  3  0  0  0  0  0  0
  -20.6570  -27.0120   22.7140 C   0  0  0  0  0  2  0  0  0  0  0  0
  -19.5680  -26.6580   21.6970 C   0  0  0  0  0  2  0  0  0  0  0  0
  -18.1780  -26.8050   22.3250 C   0  0  0  0  0  2  0  0  0  0  0  0
  -19.0920  -28.9460   23.3990 C   0  0  0  0  0  0  0  0  0  0  0  0
  -18.8570  -30.2170   23.9650 C   0  0  0  0  0  3  0  0  0  0  0  0
  -17.5470  -30.7100   24.1130 C   0  0  0  0  0  3  0  0  0  0  0  0
  -16.4530  -29.9260   23.7050 C   0  0  0  0  0  3  0  0  0  0  0  0
  -16.6720  -28.6570   23.1420 C   0  0  0  0  0  3  0  0  0  0  0  0
  -25.8500  -32.6130   23.8740 C   0  0  0  0  0  3  0  0  0  0  0  0
  -26.3720  -31.8500   25.1540 C   0  0  1  0  0  0  0  0  0  0  0  0
  -25.2800  -31.6160   26.2250 C   0  0  0  0  0  1  0  0  0  0  0  0
  -26.9600  -30.4710   24.7750 C   0  0  0  0  0  1  0  0  0  0  0  0
  -27.5250  -32.6490   25.8060 C   0  0  0  0  0  1  0  0  0  0  0  0
  -25.5470  -34.0150   24.1980 N   0  0  0  0  0  0  0  0  0  0  0  0
  -25.8810  -35.0630   23.4340 C   0  0  0  0  0  0  0  0  0  0  0  0
  -26.5480  -34.9530   22.4010 O   0  0  0  0  0  0  0  0  0  0  0  0
  -24.9590  -34.1750   25.0020 H   0  0  0  0  0  0  0  0  0  0  0  0
  -24.1670  -36.8660   23.0710 C   0  0  0  0  0  1  0  0  0  0  0  0
  -25.4010  -36.4550   23.8890 C   0  0  0  0  0  3  0  0  0  0  0  0
  -27.5350  -37.3260   24.7360 C   0  0  0  0  0  1  0  0  0  0  0  0
  -26.4430  -37.5000   23.7830 N   0  0  0  0  0  0  0  0  0  0  0  0
  -26.0410  -38.4240   23.9240 H   0  0  0  0  0  0  0  0  0  0  0  0
  -30.2350  -18.8250   16.5270 C   0  0  1  0  0  0  0  0  0  0  0  0
  -29.9770  -20.0380   16.0300 F   0  0  0  0  0  0  0  0  0  0  0  0
  -31.5000  -18.5180   16.2430 F   0  0  0  0  0  0  0  0  0  0  0  0
  -29.4340  -17.9530   15.9190 F   0  0  0  0  0  0  0  0  0  0  0  0
  1  5  1  0
  2  6  2  0
  4  2  1  0
  4  1  2  0
  5 50  1  0
  5  3  2  0
  6 15  1  0
  6  3  1  0
  7 15  1  0
  8 13  1  0
  9 10  1  0
  9  8  1  0
 11 10  1  0
 11 20  1  0
 11 12  1  0
 13  7  1  0
 13 12  1  0
 14  7  2  0
 15 16  1  0
 17 18  2  0
 18 37  1  0
 19 18  1  0
 19 22  1  0
 20 17  1  0
 20 21  1  0
 21 19  2  0
 22 23  1  0
 23 24  2  0
 25 28  1  0
 25 24  1  0
 26 25  2  0
 27 26  1  0
 27 22  2  0
 28 29  1  0
 29 30  1  0
 30 31  2  0
 32 31  1  0
 32 36  1  0
 33 32  2  0
 34 29  2  0
 34 33  1  0
 35 34  1  0
 37 38  1  0
 38 41  1  0
 38 40  1  0
 39 37  2  0
 42 43  1  0
 42 17  1  0
 44 42  1  0
 45 46  2  0
 46 49  1  0
 47 50  1  0
 47 48  1  0
 48 51  1  0
 48 46  1  0
 50 45  1  0
 51 52  1  0
 53 64  2  0
 54 52  1  0
 54 59  1  0
 55 63  1  0
 55 65  1  0
 56 62  1  0
 56 58  1  0
 57 63  1  0
 58 59  2  0
 58 57  1  0
 60 61  1  0
 60 54  2  0
 61 56  2  0
 62 55  1  0
 63 53  1  0
 65 67  2  0
 66 65  1  0
 68 66  1  0
 69 78  2  0
 69 74  1  0
 70 66  1  0
 70 74  1  0
 71 70  1  0
 72 73  1  0
 72 71  1  0
 73 69  1  0
 74 75  2  0
 75 76  1  0
 77 76  2  0
 78 77  1  0
 79 53  1  0
 79 84  1  0
 79 80  1  0
 80 83  1  1
 80 81  1  0
 82 80  1  0
 84 87  1  0
 85 89  1  0
 85 84  1  0
 86 85  2  0
 89 88  1  0
 91 89  1  0
 91 92  1  0
 91 90  1  0
 93  4  1  0
 93 94  1  6
 95 93  1  0
 96 93  1  0
M  ISO  4   7 100  15 100  51 101  52 101
M  END
>  <TORSDO>  (82) 
F 19

>  <SCORE>  (82) 
-14.387

>  <name>  (82) 
81

>  <ligand_id>  (82) 
81

>  <original_smiles>  (82) 
[H]C1=C(C([H])([H])[H])C([H])(C([H])([H])Oc2c([H])c([H])c3c(c2[H])C([H])([H])N(C(=O)C([H])(N([H])C(=O)C([H])(N([H])C([H])([H])[H])C([H])([H])[H])C(C([H])([H])[H])(C([H])([H])[H])C([H])([H])[H])C([H])(C(=O)N([H])C2([H])c4c([H])c([H])c([H])c([H])c4C([H])([H])C([H])([H])C2([H])[H])C3([H])[H])C([H])([H])N1c1c([H])c(N([H])C(=O)N2C([H])([H])C([H])([H])C([H])([H])C([H])(n3nc(-c4c([H])c([H])c(Oc5c([H])c([H])c(F)c([H])c5F)c([H])c4[H])c(C(=O)N([H])[H])c3N([H])[H])C2([H])[H])c([H])c(C(F)(F)F)c1[H]

>  <smiles>  (82) 
[H]C1=C(C([H])([H])[H])C([H])(C([H])([H])Oc2c([H])c([H])c3c(c2[H])C([H])([H])N(C(=O)C([H])(N([H])C(=O)C([H])(N([H])C([H])([H])[H])C([H])([H])[H])C(C([H])([H])[H])(C([H])([H])[H])C([H])([H])[H])C([H])(C(=O)N([H])C2([H])c4c([H])c([H])c([H])c([H])c4C([H])([H])C([H])([H])C2([H])[H])C3([H])[H])C([H])([H])N1c1c([H])c(N([H])C(=O)N2C([H])([H])C([H])([H])C([H])([H])C([H])(n3nc(-c4c([H])c([H])c(Oc5c([H])c([H])c(F)c([H])c5F)c([H])c4[H])c(C(=O)N([H])[H])c3N([H])[H])C2([H])[H])c([H])c(C(F)(F)F)c1[H]

$$$$
82:0:0
     RDKit          3D

 98107  0  0  1  0  0  0  0  0999 V2000
  -29.8300  -23.3000   21.4470 C   0  0  0  0  0  3  0  0  0  0  0  0
  -28.6950  -23.5900   20.6200 C   0  0  0  0  0  0  0  0  0  0  0  0
  -30.1750  -21.9650   21.3300 C   0  0  0  0  0  0  0  0  0  0  0  0
  -28.4400  -22.3310   20.0490 C   0  0  0  0  0  0  0  0  0  0  0  0
  -29.3380  -21.2910   20.4420 N   0  0  0  0  0  0  0  0  0  0  0  0
  -29.3810  -19.7350   18.5420 C   0  0  0  0  0  3  0  0  0  0  0  0
  -29.6670  -18.6430   20.6990 C   0  0  0  0  0  3  0  0  0  0  0  0
  -29.7380  -17.3100   18.6500 C   0  0  0  0  0  3  0  0  0  0  0  0
  -29.4520  -19.8830   19.9470 C   0  0  0  0  0  0  0  0  0  0  0  0
  -29.5030  -18.4840   17.9060 C   0  0  0  0  0  0  0  0  0  0  0  0
  -29.8290  -17.3290   20.0630 C   0  0  0  0  0  0  0  0  0  0  0  0
  -30.6490  -14.8640   20.3460 C   0  0  0  0  0  0  0  0  0  0  0  0
  -30.4550  -12.5840   19.3380 C   0  0  0  0  0  2  0  0  0  0  0  0
  -29.5320  -12.6610   18.1000 C   0  0  0  0  0  2  0  0  0  0  0  0
  -28.0600  -12.4800   18.5160 C   0  0  0  0  0  2  0  0  0  0  0  0
  -27.6750  -13.3590   19.7400 C   0  0  0  0  0  3  0  0  0  0  0  0
  -28.7250  -13.2690   20.8720 C   0  0  0  0  0  2  0  0  0  0  0  0
  -30.0270  -13.6300   20.2990 N   0  0  0  0  0  0  0  0  0  0  0  0
  -31.8100  -14.9680   19.9350 O   0  0  0  0  0  0  0  0  0  0  0  0
  -29.9370  -15.9970   20.7380 N   0  0  0  0  0  0  0  0  0  0  0  0
  -29.1900  -15.8060   21.3890 H   0  0  0  0  0  0  0  0  0  0  0  0
  -25.2760  -13.9270   20.4560 C   0  0  0  0  0  0  0  0  0  0  0  0
  -24.2120  -13.1500   20.8230 C   0  0  0  0  0  0  0  0  0  0  0  0
  -24.6850  -11.8020   20.8050 C   0  0  0  0  0  0  0  0  0  0  0  0
  -26.3290  -13.0580   20.2270 N   0  0  0  0  0  0  0  0  0  0  0  0
  -25.9800  -11.7740   20.4990 N   0  0  0  0  0  0  0  0  0  0  0  0
  -23.9680  -10.5350   21.0030 C   0  0  0  0  0  0  0  0  0  0  0  0
  -24.4020   -9.5790   21.9460 C   0  0  0  0  0  3  0  0  0  0  0  0
  -23.6870   -8.3740   22.1300 C   0  0  0  0  0  3  0  0  0  0  0  0
  -22.5180   -8.1200   21.3720 C   0  0  0  0  0  0  0  0  0  0  0  0
  -22.1040   -9.0660   20.4170 C   0  0  0  0  0  3  0  0  0  0  0  0
  -22.8220  -10.2600   20.2330 C   0  0  0  0  0  3  0  0  0  0  0  0
  -21.7740   -6.9690   21.4650 O   0  0  0  0  0  0  0  0  0  0  0  0
  -21.7180   -6.2360   22.6240 C   0  0  0  0  0  0  0  0  0  0  0  0
  -21.2690   -6.7970   23.8410 C   0  0  0  0  0  3  0  0  0  0  0  0
  -21.1680   -5.9880   24.9910 C   0  0  0  0  0  3  0  0  0  0  0  0
  -21.5060   -4.6230   24.9260 C   0  0  0  0  0  0  0  0  0  0  0  0
  -21.9490   -4.0650   23.7150 C   0  0  0  0  0  3  0  0  0  0  0  0
  -22.0550   -4.8690   22.5660 C   0  0  0  0  0  0  0  0  0  0  0  0
  -22.4640   -4.3220   21.3960 F   0  0  0  0  0  0  0  0  0  0  0  0
  -21.3990   -3.8450   26.0300 F   0  0  0  0  0  0  0  0  0  0  0  0
  -22.8110  -13.6190   21.0840 C   0  0  0  0  0  0  0  0  0  0  0  0
  -22.0740  -12.9210   21.9440 N   0  0  0  0  0  0  0  0  0  0  0  0
  -22.3730  -14.6400   20.5560 O   0  0  0  0  0  0  0  0  0  0  0  0
  -22.4380  -12.1040   22.4100 H   0  0  0  0  0  0  0  0  0  0  0  0
  -21.1290  -13.2200   22.1410 H   0  0  0  0  0  0  0  0  0  0  0  0
  -25.4320  -15.2930   20.2620 N   0  0  0  0  0  0  0  0  0  0  0  0
  -24.6670  -15.9510   20.3510 H   0  0  0  0  0  0  0  0  0  0  0  0
  -26.2800  -15.7270   19.9170 H   0  0  0  0  0  0  0  0  0  0  0  0
  -29.3890  -18.4070   16.5160 N   0  0  0  0  0  0  0  0  0  0  0  0
  -29.2890  -19.2450   15.9470 H   0  0  0  0  0  0  0  0  0  0  0  0
  -29.5910  -17.5600   15.9920 H   0  0  0  0  0  0  0  0  0  0  0  0
  -31.1960  -21.3010   21.9360 O   0  0  0  0  0  0  0  0  0  0  0  0
  -31.6630  -21.9190   22.4920 H   0  0  0  0  0  0  0  0  0  0  0  0
  -27.4250  -22.0240   19.1910 O   0  0  0  0  0  0  0  0  0  0  0  0
  -27.0280  -22.8380   18.8990 H   0  0  0  0  0  0  0  0  0  0  0  0
  -27.7950  -24.9220   20.5210 C   0  0  0  0  0  2  0  0  0  0  0  0
  -28.2460  -26.3620   20.3520 O   0  0  0  0  0  0  0  0  0  0  0  0
  -24.5990  -31.9640   23.2350 C   0  0  0  0  0  0  0  0  0  0  0  0
  -27.1930  -27.3190   20.2440 C   0  0  0  0  0  0  0  0  0  0  0  0
  -23.3990  -30.5570   21.6030 C   0  0  0  0  0  3  0  0  0  0  0  0
  -24.8530  -29.0040   20.1870 C   0  0  0  0  0  0  0  0  0  0  0  0
  -25.9450  -30.8540   21.4290 C   0  0  0  0  0  2  0  0  0  0  0  0
  -26.0240  -29.4680   20.7990 C   0  0  0  0  0  0  0  0  0  0  0  0
  -27.1990  -28.6370   20.8230 C   0  0  0  0  0  3  0  0  0  0  0  0
  -26.0070  -26.9580   19.5600 C   0  0  0  0  0  3  0  0  0  0  0  0
  -24.8560  -27.7600   19.5500 C   0  0  0  0  0  3  0  0  0  0  0  0
  -23.6140  -29.8780   20.2270 C   0  0  0  0  0  2  0  0  0  0  0  0
  -24.6660  -31.1450   22.1440 N   0  0  0  0  0  0  0  0  0  0  0  0
  -23.5140  -32.2500   23.7620 O   0  0  0  0  0  0  0  0  0  0  0  0
  -22.7310  -29.5470   22.5710 C   0  0  0  0  0  0  0  0  0  0  0  0
  -21.4060  -29.3650   22.4420 N   0  0  0  0  0  0  0  0  0  0  0  0
  -23.4070  -28.9310   23.4000 O   0  0  0  0  0  0  0  0  0  0  0  0
  -20.9170  -29.9150   21.7470 H   0  0  0  0  0  0  0  0  0  0  0  0
  -18.0300  -28.1540   22.9400 C   0  0  0  0  0  0  0  0  0  0  0  0
  -20.5850  -28.4300   23.2170 C   0  0  0  0  0  3  0  0  0  0  0  0
  -20.6960  -26.9920   22.6610 C   0  0  0  0  0  2  0  0  0  0  0  0
  -19.6000  -26.6530   21.6450 C   0  0  0  0  0  2  0  0  0  0  0  0
  -18.2150  -26.7970   22.2800 C   0  0  0  0  0  2  0  0  0  0  0  0
  -19.1420  -28.9270   23.3650 C   0  0  0  0  0  0  0  0  0  0  0  0
  -18.9140  -30.1950   23.9440 C   0  0  0  0  0  3  0  0  0  0  0  0
  -17.6050  -30.6910   24.0970 C   0  0  0  0  0  3  0  0  0  0  0  0
  -16.5060  -29.9140   23.6870 C   0  0  0  0  0  3  0  0  0  0  0  0
  -16.7210  -28.6480   23.1140 C   0  0  0  0  0  3  0  0  0  0  0  0
  -25.8810  -32.6020   23.8510 C   0  0  0  0  0  3  0  0  0  0  0  0
  -25.5680  -34.0020   24.1750 N   0  0  0  0  0  0  0  0  0  0  0  0
  -25.9030  -35.0560   23.4150 C   0  0  0  0  0  0  0  0  0  0  0  0
  -26.5780  -34.9520   22.3880 O   0  0  0  0  0  0  0  0  0  0  0  0
  -24.9670  -34.1540   24.9710 H   0  0  0  0  0  0  0  0  0  0  0  0
  -24.1930  -36.8610   23.0300 C   0  0  0  0  0  1  0  0  0  0  0  0
  -25.4150  -36.4470   23.8660 C   0  0  0  0  0  3  0  0  0  0  0  0
  -27.5360  -37.3230   24.7400 C   0  0  0  0  0  1  0  0  0  0  0  0
  -26.4570  -37.4940   23.7720 N   0  0  0  0  0  0  0  0  0  0  0  0
  -26.0540  -38.4190   23.9030 H   0  0  0  0  0  0  0  0  0  0  0  0
  -26.3950  -31.8410   25.1340 C   0  0  1  0  0  0  0  0  0  0  0  0
  -25.2990  -31.6100   26.2030 C   0  0  0  0  0  1  0  0  0  0  0  0
  -26.9820  -30.4610   24.7570 C   0  0  0  0  0  1  0  0  0  0  0  0
  -27.5430  -32.6420   25.7920 C   0  0  0  0  0  1  0  0  0  0  0  0
  2  1  1  0
  3  1  2  0
  3 53  1  0
  4  5  1  0
  4  2  2  0
  5  3  1  0
  6  9  1  0
  8 11  2  0
  9  5  1  0
  9  7  2  0
 10  6  2  0
 10  8  1  0
 11  7  1  0
 11 20  1  0
 12 20  1  0
 13 18  1  0
 14 15  1  0
 14 13  1  0
 16 15  1  0
 16 25  1  0
 16 17  1  0
 18 12  1  0
 18 17  1  0
 19 12  2  0
 20 21  1  0
 22 23  2  0
 23 42  1  0
 24 23  1  0
 24 27  1  0
 25 22  1  0
 25 26  1  0
 26 24  2  0
 27 28  1  0
 28 29  2  0
 30 33  1  0
 30 29  1  0
 31 30  2  0
 32 31  1  0
 32 27  2  0
 33 34  1  0
 34 35  1  0
 35 36  2  0
 37 36  1  0
 37 41  1  0
 38 37  2  0
 39 34  2  0
 39 38  1  0
 40 39  1  0
 42 43  1  0
 43 46  1  0
 43 45  1  0
 44 42  2  0
 47 48  1  0
 47 22  1  0
 49 47  1  0
 50 10  1  0
 51 50  1  0
 52 50  1  0
 53 54  1  0
 55  4  1  0
 56 55  1  0
 57  2  1  0
 58 57  1  0
 59 70  2  0
 60 58  1  0
 60 65  1  0
 61 69  1  0
 61 71  1  0
 62 68  1  0
 62 64  1  0
 63 69  1  0
 64 65  2  0
 64 63  1  0
 66 60  2  0
 67 66  1  0
 67 62  2  0
 68 61  1  0
 69 59  1  0
 71 73  2  0
 72 71  1  0
 74 72  1  0
 75 84  2  0
 75 80  1  0
 76 72  1  0
 76 80  1  0
 77 76  1  0
 78 79  1  0
 78 77  1  0
 79 75  1  0
 80 81  2  0
 81 82  1  0
 83 82  2  0
 84 83  1  0
 85 59  1  0
 85 86  1  0
 85 95  1  0
 86 89  1  0
 87 91  1  0
 87 86  1  0
 88 87  2  0
 91 90  1  0
 93 91  1  0
 93 94  1  0
 93 92  1  0
 95 98  1  1
 95 96  1  0
 97 95  1  0
M  ISO  4  12 100  20 100  57 101  58 101
M  END
>  <TORSDO>  (83) 
F 21

>  <SCORE>  (83) 
-14.507

>  <name>  (83) 
82

>  <ligand_id>  (83) 
82

>  <original_smiles>  (83) 
[H]Oc1c([H])c(C([H])([H])Oc2c([H])c([H])c3c(c2[H])C([H])([H])N(C(=O)C([H])(N([H])C(=O)C([H])(N([H])C([H])([H])[H])C([H])([H])[H])C(C([H])([H])[H])(C([H])([H])[H])C([H])([H])[H])C([H])(C(=O)N([H])C2([H])c4c([H])c([H])c([H])c([H])c4C([H])([H])C([H])([H])C2([H])[H])C3([H])[H])c(O[H])n1-c1c([H])c(N([H])[H])c([H])c(N([H])C(=O)N2C([H])([H])C([H])([H])C([H])([H])C([H])(n3nc(-c4c([H])c([H])c(Oc5c([H])c([H])c(F)c([H])c5F)c([H])c4[H])c(C(=O)N([H])[H])c3N([H])[H])C2([H])[H])c1[H]

>  <smiles>  (83) 
[H]Oc1c([H])c(C([H])([H])Oc2c([H])c([H])c3c(c2[H])C([H])([H])N(C(=O)C([H])(N([H])C(=O)C([H])(N([H])C([H])([H])[H])C([H])([H])[H])C(C([H])([H])[H])(C([H])([H])[H])C([H])([H])[H])C([H])(C(=O)N([H])C2([H])c4c([H])c([H])c([H])c([H])c4C([H])([H])C([H])([H])C2([H])[H])C3([H])[H])c(O[H])n1-c1c([H])c(N([H])[H])c([H])c(N([H])C(=O)N2C([H])([H])C([H])([H])C([H])([H])C([H])(n3nc(-c4c([H])c([H])c(Oc5c([H])c([H])c(F)c([H])c5F)c([H])c4[H])c(C(=O)N([H])[H])c3N([H])[H])C2([H])[H])c1[H]

$$$$
83:0:0
     RDKit          3D

 94102  0  0  1  0  0  0  0  0999 V2000
  -29.7490  -21.6870   20.7190 C   0  0  0  0  0  0  0  0  0  0  0  0
  -29.8420  -22.0690   21.9930 N   0  0  0  0  0  4  0  0  0  0  0  0
  -29.5880  -22.7040   19.8080 N   0  0  0  0  0  0  0  0  0  0  0  0
  -29.9700  -21.3700   22.7090 H   0  0  0  0  0  0  0  0  0  0  0  0
  -29.7520  -23.0280   22.2790 H   0  0  0  0  0  0  0  0  0  0  0  0
  -29.5240  -22.4120   18.8400 H   0  0  0  0  0  0  0  0  0  0  0  0
  -31.0520  -19.5330   20.0750 C   0  0  0  0  0  3  0  0  0  0  0  0
  -31.1770  -18.1010   20.0630 C   0  0  0  0  0  3  0  0  0  0  0  0
  -28.8830  -17.9160   20.7460 C   0  0  0  0  0  3  0  0  0  0  0  0
  -29.8460  -20.1910   20.4610 C   0  0  0  0  0  0  0  0  0  0  0  0
  -30.0910  -17.2490   20.4190 C   0  0  0  0  0  0  0  0  0  0  0  0
  -28.7600  -19.3330   20.7800 C   0  0  0  0  0  0  0  0  0  0  0  0
  -27.5700  -19.8630   21.1540 F   0  0  0  0  0  0  0  0  0  0  0  0
  -30.8340  -14.7830   19.8870 C   0  0  0  0  0  0  0  0  0  0  0  0
  -30.5330  -12.5720   18.7770 C   0  0  0  0  0  2  0  0  0  0  0  0
  -29.4970  -12.7420   17.6410 C   0  0  0  0  0  2  0  0  0  0  0  0
  -28.0570  -12.6010   18.1730 C   0  0  0  0  0  2  0  0  0  0  0  0
  -27.8100  -13.4390   19.4550 C   0  0  0  0  0  3  0  0  0  0  0  0
  -28.9430  -13.2150   20.4840 C   0  0  0  0  0  2  0  0  0  0  0  0
  -30.2160  -13.5600   19.8270 N   0  0  0  0  0  0  0  0  0  0  0  0
  -31.9440  -14.9730   19.3740 O   0  0  0  0  0  0  0  0  0  0  0  0
  -30.0780  -15.7820   20.4410 N   0  0  0  0  0  0  0  0  0  0  0  0
  -29.2710  -15.3970   20.9050 H   0  0  0  0  0  0  0  0  0  0  0  0
  -25.4980  -14.0870   20.3740 C   0  0  0  0  0  0  0  0  0  0  0  0
  -24.4370  -13.3330   20.7980 C   0  0  0  0  0  0  0  0  0  0  0  0
  -24.8490  -11.9690   20.6810 C   0  0  0  0  0  0  0  0  0  0  0  0
  -26.4920  -13.1830   20.0280 N   0  0  0  0  0  0  0  0  0  0  0  0
  -26.1110  -11.9040   20.2720 N   0  0  0  0  0  0  0  0  0  0  0  0
  -24.0980  -10.7230   20.8800 C   0  0  0  0  0  0  0  0  0  0  0  0
  -24.5260   -9.7430   21.8010 C   0  0  0  0  0  3  0  0  0  0  0  0
  -23.7770   -8.5610   21.9880 C   0  0  0  0  0  3  0  0  0  0  0  0
  -22.5860   -8.3510   21.2520 C   0  0  0  0  0  0  0  0  0  0  0  0
  -22.1780   -9.3210   20.3190 C   0  0  0  0  0  3  0  0  0  0  0  0
  -22.9270  -10.4940   20.1310 C   0  0  0  0  0  3  0  0  0  0  0  0
  -21.8090   -7.2230   21.3490 O   0  0  0  0  0  0  0  0  0  0  0  0
  -21.6950   -6.5250   22.5260 C   0  0  0  0  0  0  0  0  0  0  0  0
  -21.2090   -7.1300   23.7050 C   0  0  0  0  0  3  0  0  0  0  0  0
  -21.0420   -6.3600   24.8740 C   0  0  0  0  0  3  0  0  0  0  0  0
  -21.3510   -4.9860   24.8630 C   0  0  0  0  0  0  0  0  0  0  0  0
  -21.8300   -4.3810   23.6870 C   0  0  0  0  0  3  0  0  0  0  0  0
  -21.9980   -5.1490   22.5210 C   0  0  0  0  0  0  0  0  0  0  0  0
  -22.4400   -4.5580   21.3850 F   0  0  0  0  0  0  0  0  0  0  0  0
  -21.1840   -4.2440   25.9820 F   0  0  0  0  0  0  0  0  0  0  0  0
  -23.0810  -13.8410   21.1940 C   0  0  0  0  0  0  0  0  0  0  0  0
  -22.4050  -13.1420   22.1020 N   0  0  0  0  0  0  0  0  0  0  0  0
  -22.6310  -14.8890   20.7350 O   0  0  0  0  0  0  0  0  0  0  0  0
  -22.7830  -12.2920   22.4930 H   0  0  0  0  0  0  0  0  0  0  0  0
  -21.4980  -13.4630   22.4090 H   0  0  0  0  0  0  0  0  0  0  0  0
  -25.6950  -15.4580   20.2310 N   0  0  0  0  0  0  0  0  0  0  0  0
  -24.9510  -16.1250   20.4040 H   0  0  0  0  0  0  0  0  0  0  0  0
  -26.5050  -15.8750   19.7920 H   0  0  0  0  0  0  0  0  0  0  0  0
  -29.6640  -24.2190   20.0280 C   0  0  0  0  0  3  0  0  0  0  0  0
  -28.4550  -25.1300   19.5460 C   0  0  0  0  0  3  0  0  0  0  0  0
  -28.5490  -26.5900   19.7890 O   0  0  0  0  0  0  0  0  0  0  0  0
  -24.5270  -31.6080   23.0520 C   0  0  0  0  0  0  0  0  0  0  0  0
  -27.3730  -27.3590   19.7770 C   0  0  0  0  0  0  0  0  0  0  0  0
  -23.3920  -30.2230   21.3500 C   0  0  0  0  0  3  0  0  0  0  0  0
  -24.9180  -28.8250   19.8500 C   0  0  0  0  0  0  0  0  0  0  0  0
  -25.9070  -30.6940   21.1720 C   0  0  0  0  0  2  0  0  0  0  0  0
  -26.0600  -29.3540   20.4630 C   0  0  0  0  0  0  0  0  0  0  0  0
  -27.2900  -28.6340   20.4160 C   0  0  0  0  0  3  0  0  0  0  0  0
  -26.2030  -26.8790   19.1450 C   0  0  0  0  0  3  0  0  0  0  0  0
  -24.9900  -27.5920   19.1830 C   0  0  0  0  0  3  0  0  0  0  0  0
  -23.6340  -29.6260   19.9400 C   0  0  0  0  0  2  0  0  0  0  0  0
  -24.6270  -30.8580   21.9150 N   0  0  0  0  0  0  0  0  0  0  0  0
  -23.4330  -31.8010   23.6020 O   0  0  0  0  0  0  0  0  0  0  0  0
  -22.7920  -29.1280   22.2640 C   0  0  0  0  0  0  0  0  0  0  0  0
  -21.4800  -28.8780   22.1270 N   0  0  0  0  0  0  0  0  0  0  0  0
  -23.5080  -28.5070   23.0560 O   0  0  0  0  0  0  0  0  0  0  0  0
  -20.9580  -29.4340   21.4650 H   0  0  0  0  0  0  0  0  0  0  0  0
  -18.1740  -27.4850   22.5890 C   0  0  0  0  0  0  0  0  0  0  0  0
  -20.7170  -27.8620   22.8560 C   0  0  0  0  0  3  0  0  0  0  0  0
  -20.8880  -26.4680   22.2090 C   0  0  0  0  0  2  0  0  0  0  0  0
  -19.7960  -26.1400   21.1880 C   0  0  0  0  0  2  0  0  0  0  0  0
  -18.4130  -26.1810   21.8460 C   0  0  0  0  0  2  0  0  0  0  0  0
  -19.2550  -28.2820   23.0490 C   0  0  0  0  0  0  0  0  0  0  0  0
  -18.9760  -29.5010   23.7050 C   0  0  0  0  0  3  0  0  0  0  0  0
  -17.6500  -29.9240   23.9030 C   0  0  0  0  0  3  0  0  0  0  0  0
  -16.5820  -29.1250   23.4580 C   0  0  0  0  0  3  0  0  0  0  0  0
  -16.8450  -27.9060   22.8070 C   0  0  0  0  0  3  0  0  0  0  0  0
  -25.7780  -32.2810   23.6970 C   0  0  0  0  0  3  0  0  0  0  0  0
  -26.3150  -31.5060   24.9630 C   0  0  1  0  0  0  0  0  0  0  0  0
  -25.2230  -31.1980   26.0140 C   0  0  0  0  0  1  0  0  0  0  0  0
  -26.9620  -30.1640   24.5480 C   0  0  0  0  0  1  0  0  0  0  0  0
  -27.4230  -32.3340   25.6540 C   0  0  0  0  0  1  0  0  0  0  0  0
  -25.4060  -33.6580   24.0540 N   0  0  0  0  0  0  0  0  0  0  0  0
  -25.6990  -34.7410   23.3210 C   0  0  0  0  0  0  0  0  0  0  0  0
  -26.3800  -34.6870   22.2930 O   0  0  0  0  0  0  0  0  0  0  0  0
  -24.8000  -33.7690   24.8540 H   0  0  0  0  0  0  0  0  0  0  0  0
  -23.8930  -36.4620   22.9990 C   0  0  0  0  0  1  0  0  0  0  0  0
  -25.1500  -36.0970   23.8040 C   0  0  0  0  0  3  0  0  0  0  0  0
  -27.2370  -37.0650   24.6620 C   0  0  0  0  0  1  0  0  0  0  0  0
  -26.1350  -37.1960   23.7120 N   0  0  0  0  0  0  0  0  0  0  0  0
  -25.6870  -38.0960   23.8680 H   0  0  0  0  0  0  0  0  0  0  0  0
  1  2  2  0
  2  5  1  0
  2  4  1  0
  3 52  1  0
  3  1  1  0
  6  3  1  0
  7 10  1  0
  8  7  2  0
  8 11  1  0
  9 12  1  0
 10  1  1  0
 10 12  2  0
 11 22  1  0
 11  9  2  0
 12 13  1  0
 14 22  1  0
 15 20  1  0
 16 17  1  0
 16 15  1  0
 18 17  1  0
 18 27  1  0
 18 19  1  0
 20 14  1  0
 20 19  1  0
 21 14  2  0
 22 23  1  0
 24 25  2  0
 25 44  1  0
 26 25  1  0
 26 29  1  0
 27 28  1  0
 27 24  1  0
 28 26  2  0
 29 30  1  0
 30 31  2  0
 32 35  1  0
 32 31  1  0
 33 32  2  0
 34 33  1  0
 34 29  2  0
 35 36  1  0
 36 37  1  0
 37 38  2  0
 39 38  1  0
 39 43  1  0
 40 39  2  0
 41 36  2  0
 41 40  1  0
 42 41  1  0
 44 45  1  0
 45 48  1  0
 45 47  1  0
 46 44  2  0
 49 24  1  0
 49 50  1  0
 51 49  1  0
 53 54  1  0
 53 52  2  0
 55 66  2  0
 56 54  1  0
 56 61  1  0
 57 65  1  0
 57 67  1  0
 58 64  1  0
 58 60  1  0
 59 65  1  0
 60 59  1  0
 61 60  2  0
 62 63  1  0
 62 56  2  0
 63 58  2  0
 64 57  1  0
 65 55  1  0
 67 69  2  0
 68 67  1  0
 70 68  1  0
 71 80  2  0
 71 76  1  0
 72 68  1  0
 72 76  1  0
 73 72  1  0
 74 75  1  0
 74 73  1  0
 75 71  1  0
 76 77  2  0
 77 78  1  0
 79 78  2  0
 80 79  1  0
 81 55  1  0
 81 86  1  0
 81 82  1  0
 82 85  1  1
 82 83  1  0
 84 82  1  0
 86 89  1  0
 87 91  1  0
 87 86  1  0
 88 87  2  0
 91 90  1  0
 93 91  1  0
 93 94  1  0
 93 92  1  0
M  ISO  4  14 100  22 100  53 101  54 101
M  END
>  <TORSDO>  (84) 
F 19

>  <SCORE>  (84) 
-12.894

>  <name>  (84) 
83

>  <ligand_id>  (84) 
83

>  <original_smiles>  (84) 
[H]c1c([H])c([H])c2c(c1[H])C([H])([H])C([H])([H])C([H])([H])C2([H])N([H])C(=O)C1([H])N(C(=O)C([H])(N([H])C(=O)C([H])(N([H])C([H])([H])[H])C([H])([H])[H])C(C([H])([H])[H])(C([H])([H])[H])C([H])([H])[H])C([H])([H])c2c([H])c(OC([H])([H])C([H])([H])[N+]([H])=C(c3c([H])c([H])c(N([H])C(=O)N4C([H])([H])C([H])([H])C([H])([H])C([H])(n5nc(-c6c([H])c([H])c(Oc7c([H])c([H])c(F)c([H])c7F)c([H])c6[H])c(C(=O)N([H])[H])c5N([H])[H])C4([H])[H])c([H])c3F)N([H])[H])c([H])c([H])c2C1([H])[H]

>  <smiles>  (84) 
[H]c1c([H])c([H])c2c(c1[H])C([H])([H])C([H])([H])C([H])([H])C2([H])N([H])C(=O)C1([H])N(C(=O)C([H])(N([H])C(=O)C([H])(N([H])C([H])([H])[H])C([H])([H])[H])C(C([H])([H])[H])(C([H])([H])[H])C([H])([H])[H])C([H])([H])c2c([H])c(OC([H])([H])C([H])([H])[N+]([H])=C(c3c([H])c([H])c(N([H])C(=O)N4C([H])([H])C([H])([H])C([H])([H])C([H])(n5nc(-c6c([H])c([H])c(Oc7c([H])c([H])c(F)c([H])c7F)c([H])c6[H])c(C(=O)N([H])[H])c5N([H])[H])C4([H])[H])c([H])c3F)N([H])[H])c([H])c([H])c2C1([H])[H]

$$$$
84:0:0
     RDKit          3D

 94102  0  0  1  0  0  0  0  0999 V2000
  -30.9890  -17.5820   18.8580 C   0  0  0  0  0  3  0  0  0  0  0  0
  -30.0760  -17.3900   19.9220 C   0  0  0  0  0  0  0  0  0  0  0  0
  -29.6200  -19.9490   19.8190 C   0  0  0  0  0  0  0  0  0  0  0  0
  -31.2230  -18.8530   18.2970 C   0  0  0  0  0  0  0  0  0  0  0  0
  -29.3960  -18.6100   20.3850 C   0  0  0  0  0  0  0  0  0  0  0  0
  -30.5630  -20.0080   18.7630 C   0  0  0  0  0  0  0  0  0  0  0  0
  -32.1180  -18.9680   17.2860 F   0  0  0  0  0  0  0  0  0  0  0  0
  -28.5120  -18.4920   21.4040 F   0  0  0  0  0  0  0  0  0  0  0  0
  -30.8960  -21.1970   18.2010 F   0  0  0  0  0  0  0  0  0  0  0  0
  -30.5810  -14.8150   20.2670 C   0  0  0  0  0  0  0  0  0  0  0  0
  -30.3740  -12.5200   19.3000 C   0  0  0  0  0  2  0  0  0  0  0  0
  -29.4360  -12.5670   18.0710 C   0  0  0  0  0  2  0  0  0  0  0  0
  -27.9670  -12.3980   18.5020 C   0  0  0  0  0  2  0  0  0  0  0  0
  -27.5930  -13.2940   19.7130 C   0  0  0  0  0  3  0  0  0  0  0  0
  -28.6540  -13.2380   20.8350 C   0  0  0  0  0  2  0  0  0  0  0  0
  -29.9440  -13.5910   20.2320 N   0  0  0  0  0  0  0  0  0  0  0  0
  -31.7850  -14.8560   19.9930 O   0  0  0  0  0  0  0  0  0  0  0  0
  -29.8340  -15.9890   20.4210 N   0  0  0  0  0  0  0  0  0  0  0  0
  -28.9130  -15.8450   20.8060 H   0  0  0  0  0  0  0  0  0  0  0  0
  -25.2060  -13.8900   20.4220 C   0  0  0  0  0  0  0  0  0  0  0  0
  -24.1370  -13.1210   20.7940 C   0  0  0  0  0  0  0  0  0  0  0  0
  -24.6010  -11.7710   20.7890 C   0  0  0  0  0  0  0  0  0  0  0  0
  -26.2510  -13.0080   20.2060 N   0  0  0  0  0  0  0  0  0  0  0  0
  -25.8950  -11.7290   20.4920 N   0  0  0  0  0  0  0  0  0  0  0  0
  -23.8730  -10.5090   20.9880 C   0  0  0  0  0  0  0  0  0  0  0  0
  -24.2960   -9.5510   21.9350 C   0  0  0  0  0  3  0  0  0  0  0  0
  -23.5640   -8.3580   22.1220 C   0  0  0  0  0  3  0  0  0  0  0  0
  -22.3970   -8.1160   21.3600 C   0  0  0  0  0  0  0  0  0  0  0  0
  -21.9940   -9.0630   20.4030 C   0  0  0  0  0  3  0  0  0  0  0  0
  -22.7270  -10.2460   20.2130 C   0  0  0  0  0  3  0  0  0  0  0  0
  -21.6380   -6.9730   21.4560 O   0  0  0  0  0  0  0  0  0  0  0  0
  -21.5820   -6.2420   22.6160 C   0  0  0  0  0  0  0  0  0  0  0  0
  -21.1530   -6.8090   23.8350 C   0  0  0  0  0  3  0  0  0  0  0  0
  -21.0430   -6.0050   24.9870 C   0  0  0  0  0  3  0  0  0  0  0  0
  -21.3530   -4.6330   24.9180 C   0  0  0  0  0  0  0  0  0  0  0  0
  -21.7740   -4.0640   23.7030 C   0  0  0  0  0  3  0  0  0  0  0  0
  -21.8850   -4.8660   22.5540 C   0  0  0  0  0  0  0  0  0  0  0  0
  -22.2710   -4.3100   21.3810 F   0  0  0  0  0  0  0  0  0  0  0  0
  -21.2400   -3.8570   26.0220 F   0  0  0  0  0  0  0  0  0  0  0  0
  -22.7380  -13.6030   21.0420 C   0  0  0  0  0  0  0  0  0  0  0  0
  -22.0000  -12.9180   21.9080 N   0  0  0  0  0  0  0  0  0  0  0  0
  -22.3070  -14.6200   20.5010 O   0  0  0  0  0  0  0  0  0  0  0  0
  -22.3650  -12.0960   22.3660 H   0  0  0  0  0  0  0  0  0  0  0  0
  -21.0590  -13.2210   22.1140 H   0  0  0  0  0  0  0  0  0  0  0  0
  -25.3680  -15.2560   20.2190 N   0  0  0  0  0  0  0  0  0  0  0  0
  -24.5950  -15.9070   20.3000 H   0  0  0  0  0  0  0  0  0  0  0  0
  -26.2040  -15.6860   19.8420 H   0  0  0  0  0  0  0  0  0  0  0  0
  -28.6300  -22.3800   19.6250 C   0  0  0  0  0  0  0  0  0  0  0  0
  -29.0650  -21.2540   20.3260 N   0  0  0  0  0  0  0  0  0  0  0  0
  -28.1960  -22.2340   18.4790 O   0  0  0  0  0  0  0  0  0  0  0  0
  -29.1240  -21.3690   21.3270 H   0  0  0  0  0  0  0  0  0  0  0  0
  -28.6530  -23.7520   20.2890 C   0  0  0  0  0  3  0  0  0  0  0  0
  -28.1870  -24.9390   19.7100 C   0  0  0  0  0  3  0  0  0  0  0  0
  -28.2640  -26.2970   20.1890 O   0  0  0  0  0  0  0  0  0  0  0  0
  -24.6430  -31.8530   23.2210 C   0  0  0  0  0  0  0  0  0  0  0  0
  -27.1870  -27.2240   20.1160 C   0  0  0  0  0  0  0  0  0  0  0  0
  -23.4220  -30.4710   21.5840 C   0  0  0  0  0  3  0  0  0  0  0  0
  -24.8530  -28.9190   20.1340 C   0  0  0  0  0  0  0  0  0  0  0  0
  -25.9710  -30.7530   21.3950 C   0  0  0  0  0  2  0  0  0  0  0  0
  -26.0360  -29.3760   20.7290 C   0  0  0  0  0  0  0  0  0  0  0  0
  -27.2020  -28.5390   20.7110 C   0  0  0  0  0  3  0  0  0  0  0  0
  -25.9730  -26.8440   19.5030 C   0  0  0  0  0  3  0  0  0  0  0  0
  -24.8290  -27.6630   19.5120 C   0  0  0  0  0  3  0  0  0  0  0  0
  -23.6250  -29.8070   20.1970 C   0  0  0  0  0  2  0  0  0  0  0  0
  -24.6980  -31.0460   22.1210 N   0  0  0  0  0  0  0  0  0  0  0  0
  -23.5630  -32.1340   23.7630 O   0  0  0  0  0  0  0  0  0  0  0  0
  -22.7590  -29.4520   22.5440 C   0  0  0  0  0  0  0  0  0  0  0  0
  -21.4300  -29.2800   22.4260 N   0  0  0  0  0  0  0  0  0  0  0  0
  -23.4380  -28.8210   23.3580 O   0  0  0  0  0  0  0  0  0  0  0  0
  -20.9410  -29.8350   21.7410 H   0  0  0  0  0  0  0  0  0  0  0  0
  -18.0550  -28.0750   22.9370 C   0  0  0  0  0  0  0  0  0  0  0  0
  -20.6150  -28.3410   23.2000 C   0  0  0  0  0  3  0  0  0  0  0  0
  -20.7190  -26.9110   22.6230 C   0  0  0  0  0  2  0  0  0  0  0  0
  -19.6130  -26.5860   21.6130 C   0  0  0  0  0  2  0  0  0  0  0  0
  -18.2330  -26.7270   22.2590 C   0  0  0  0  0  2  0  0  0  0  0  0
  -19.1740  -28.8390   23.3650 C   0  0  0  0  0  0  0  0  0  0  0  0
  -18.9530  -30.1000   23.9610 C   0  0  0  0  0  3  0  0  0  0  0  0
  -17.6480  -30.5980   24.1330 C   0  0  0  0  0  3  0  0  0  0  0  0
  -16.5440  -29.8320   23.7210 C   0  0  0  0  0  3  0  0  0  0  0  0
  -16.7490  -28.5730   23.1280 C   0  0  0  0  0  3  0  0  0  0  0  0
  -25.9280  -32.4800   23.8380 C   0  0  0  0  0  3  0  0  0  0  0  0
  -26.4510  -31.7050   25.1090 C   0  0  1  0  0  0  0  0  0  0  0  0
  -25.3630  -31.4750   26.1840 C   0  0  0  0  0  1  0  0  0  0  0  0
  -27.0240  -30.3220   24.7170 C   0  0  0  0  0  1  0  0  0  0  0  0
  -27.6150  -32.4900   25.7600 C   0  0  0  0  0  1  0  0  0  0  0  0
  -25.6230  -33.8790   24.1790 N   0  0  0  0  0  0  0  0  0  0  0  0
  -25.9450  -34.9370   23.4230 C   0  0  0  0  0  0  0  0  0  0  0  0
  -26.6010  -34.8400   22.3820 O   0  0  0  0  0  0  0  0  0  0  0  0
  -25.0430  -34.0280   24.9920 H   0  0  0  0  0  0  0  0  0  0  0  0
  -24.2150  -36.7340   23.1060 C   0  0  0  0  0  1  0  0  0  0  0  0
  -25.4670  -36.3240   23.8970 C   0  0  0  0  0  3  0  0  0  0  0  0
  -27.6110  -37.2010   24.7060 C   0  0  0  0  0  1  0  0  0  0  0  0
  -26.4990  -37.3760   23.7760 N   0  0  0  0  0  0  0  0  0  0  0  0
  -26.0950  -38.2970   23.9300 H   0  0  0  0  0  0  0  0  0  0  0  0
  1  2  1  0
  2  5  2  0
  2 18  1  0
  3 49  1  0
  3  5  1  0
  4  6  1  0
  4  1  2  0
  5  8  1  0
  6  3  2  0
  7  4  1  0
  9  6  1  0
 10 18  1  0
 11 16  1  0
 12 13  1  0
 12 11  1  0
 14 13  1  0
 14 23  1  0
 14 15  1  0
 16 10  1  0
 16 15  1  0
 17 10  2  0
 18 19  1  0
 20 21  2  0
 21 40  1  0
 22 21  1  0
 22 25  1  0
 23 20  1  0
 23 24  1  0
 24 22  2  0
 25 26  1  0
 26 27  2  0
 28 31  1  0
 28 27  1  0
 29 28  2  0
 30 29  1  0
 30 25  2  0
 31 32  1  0
 32 33  1  0
 33 34  2  0
 35 34  1  0
 35 39  1  0
 36 35  2  0
 37 32  2  0
 37 36  1  0
 38 37  1  0
 40 41  1  0
 41 44  1  0
 41 43  1  0
 42 40  2  0
 45 46  1  0
 45 20  1  0
 47 45  1  0
 48 52  1  0
 48 49  1  0
 49 51  1  0
 50 48  2  0
 53 54  1  0
 53 52  2  0
 55 66  2  0
 56 54  1  0
 56 61  1  0
 57 65  1  0
 57 67  1  0
 58 64  1  0
 58 60  1  0
 59 65  1  0
 60 59  1  0
 61 60  2  0
 62 63  1  0
 62 56  2  0
 63 58  2  0
 64 57  1  0
 65 55  1  0
 67 69  2  0
 68 67  1  0
 70 68  1  0
 71 80  2  0
 71 76  1  0
 72 68  1  0
 72 76  1  0
 73 72  1  0
 74 75  1  0
 74 73  1  0
 75 71  1  0
 76 77  2  0
 77 78  1  0
 79 78  2  0
 80 79  1  0
 81 55  1  0
 81 86  1  0
 81 82  1  0
 82 85  1  1
 82 83  1  0
 84 82  1  0
 86 89  1  0
 87 91  1  0
 87 86  1  0
 88 87  2  0
 91 90  1  0
 93 91  1  0
 93 94  1  0
 93 92  1  0
M  ISO  4  10 100  18 100  53 101  54 101
M  END
>  <TORSDO>  (85) 
F 18

>  <SCORE>  (85) 
-14.331

>  <name>  (85) 
84

>  <ligand_id>  (85) 
84

>  <original_smiles>  (85) 
[H]C(Oc1c([H])c([H])c2c(c1[H])C([H])([H])N(C(=O)C([H])(N([H])C(=O)C([H])(N([H])C([H])([H])[H])C([H])([H])[H])C(C([H])([H])[H])(C([H])([H])[H])C([H])([H])[H])C([H])(C(=O)N([H])C1([H])c3c([H])c([H])c([H])c([H])c3C([H])([H])C([H])([H])C1([H])[H])C2([H])[H])=C([H])C(=O)N([H])c1c(F)c(F)c([H])c(N([H])C(=O)N2C([H])([H])C([H])([H])C([H])([H])C([H])(n3nc(-c4c([H])c([H])c(Oc5c([H])c([H])c(F)c([H])c5F)c([H])c4[H])c(C(=O)N([H])[H])c3N([H])[H])C2([H])[H])c1F

>  <smiles>  (85) 
[H]C(Oc1c([H])c([H])c2c(c1[H])C([H])([H])N(C(=O)C([H])(N([H])C(=O)C([H])(N([H])C([H])([H])[H])C([H])([H])[H])C(C([H])([H])[H])(C([H])([H])[H])C([H])([H])[H])C([H])(C(=O)N([H])C1([H])c3c([H])c([H])c([H])c([H])c3C([H])([H])C([H])([H])C1([H])[H])C2([H])[H])=C([H])C(=O)N([H])c1c(F)c(F)c([H])c(N([H])C(=O)N2C([H])([H])C([H])([H])C([H])([H])C([H])(n3nc(-c4c([H])c([H])c(Oc5c([H])c([H])c(F)c([H])c5F)c([H])c4[H])c(C(=O)N([H])[H])c3N([H])[H])C2([H])[H])c1F

$$$$
85:0:0
     RDKit          3D

 90 98  0  0  1  0  0  0  0  0999 V2000
  -28.9680  -23.2890   20.3770 C   0  0  0  0  0  0  0  0  0  0  0  0
  -28.7020  -21.8630   20.2820 N   0  0  0  0  0  0  0  0  0  0  0  0
  -30.1060  -23.6580   20.6770 O   0  0  0  0  0  0  0  0  0  0  0  0
  -27.7260  -21.6870   20.0820 H   0  0  0  0  0  0  0  0  0  0  0  0
  -31.8350  -19.5840   20.6250 C   0  0  0  0  0  3  0  0  0  0  0  0
  -30.9560  -20.6880   20.5330 C   0  0  0  0  0  3  0  0  0  0  0  0
  -31.4080  -18.2400   20.5810 C   0  0  0  0  0  3  0  0  0  0  0  0
  -29.1500  -19.0900   20.3510 C   0  0  0  0  0  3  0  0  0  0  0  0
  -29.5560  -20.5480   20.3920 C   0  0  0  0  0  0  0  0  0  0  0  0
  -30.0510  -17.8750   20.4400 C   0  0  0  0  0  0  0  0  0  0  0  0
  -30.4940  -15.1230   20.2990 C   0  0  0  0  0  0  0  0  0  0  0  0
  -30.3860  -12.7510   19.3550 C   0  0  0  0  0  2  0  0  0  0  0  0
  -29.4370  -12.6580   18.1380 C   0  0  0  0  0  2  0  0  0  0  0  0
  -27.9880  -12.4170   18.5970 C   0  0  0  0  0  2  0  0  0  0  0  0
  -27.5800  -13.3450   19.7710 C   0  0  0  0  0  3  0  0  0  0  0  0
  -28.6530  -13.4030   20.8790 C   0  0  0  0  0  2  0  0  0  0  0  0
  -29.8960  -13.8530   20.2410 N   0  0  0  0  0  0  0  0  0  0  0  0
  -31.7010  -15.1440   20.0310 O   0  0  0  0  0  0  0  0  0  0  0  0
  -29.7250  -16.3430   20.4280 N   0  0  0  0  0  0  0  0  0  0  0  0
  -28.7400  -16.1440   20.5240 H   0  0  0  0  0  0  0  0  0  0  0  0
  -25.2140  -13.8900   20.5630 C   0  0  0  0  0  0  0  0  0  0  0  0
  -24.1620  -13.1020   20.9410 C   0  0  0  0  0  0  0  0  0  0  0  0
  -24.6360  -11.7560   20.8860 C   0  0  0  0  0  0  0  0  0  0  0  0
  -26.2580  -13.0240   20.2940 N   0  0  0  0  0  0  0  0  0  0  0  0
  -25.9230  -11.7330   20.5540 N   0  0  0  0  0  0  0  0  0  0  0  0
  -23.9200  -10.4860   21.0680 C   0  0  0  0  0  0  0  0  0  0  0  0
  -24.3640   -9.5140   21.9920 C   0  0  0  0  0  3  0  0  0  0  0  0
  -23.6450   -8.3100   22.1640 C   0  0  0  0  0  3  0  0  0  0  0  0
  -22.4690   -8.0710   21.4140 C   0  0  0  0  0  0  0  0  0  0  0  0
  -22.0450   -9.0330   20.4800 C   0  0  0  0  0  3  0  0  0  0  0  0
  -22.7650  -10.2270   20.3050 C   0  0  0  0  0  3  0  0  0  0  0  0
  -21.7220   -6.9210   21.4970 O   0  0  0  0  0  0  0  0  0  0  0  0
  -21.6770   -6.1740   22.6470 C   0  0  0  0  0  0  0  0  0  0  0  0
  -21.2160   -6.7120   23.8680 C   0  0  0  0  0  3  0  0  0  0  0  0
  -21.1210   -5.8890   25.0080 C   0  0  0  0  0  3  0  0  0  0  0  0
  -21.4770   -4.5300   24.9280 C   0  0  0  0  0  0  0  0  0  0  0  0
  -21.9300   -3.9910   23.7110 C   0  0  0  0  0  3  0  0  0  0  0  0
  -22.0270   -4.8100   22.5730 C   0  0  0  0  0  0  0  0  0  0  0  0
  -22.4440   -4.2800   21.3980 F   0  0  0  0  0  0  0  0  0  0  0  0
  -21.3780   -3.7370   26.0220 F   0  0  0  0  0  0  0  0  0  0  0  0
  -22.7660  -13.5670   21.2370 C   0  0  0  0  0  0  0  0  0  0  0  0
  -22.0560  -12.8610   22.1100 N   0  0  0  0  0  0  0  0  0  0  0  0
  -22.3130  -14.5920   20.7280 O   0  0  0  0  0  0  0  0  0  0  0  0
  -22.4370  -12.0310   22.5420 H   0  0  0  0  0  0  0  0  0  0  0  0
  -21.1210  -13.1540   22.3500 H   0  0  0  0  0  0  0  0  0  0  0  0
  -25.3630  -15.2650   20.3980 N   0  0  0  0  0  0  0  0  0  0  0  0
  -24.5860  -15.9060   20.5190 H   0  0  0  0  0  0  0  0  0  0  0  0
  -26.1860  -15.7090   20.0160 H   0  0  0  0  0  0  0  0  0  0  0  0
  -27.8790  -24.5550   20.1300 C   0  0  0  0  0  2  0  0  0  0  0  0
  -28.2060  -26.1040   20.2980 O   0  0  0  0  0  0  0  0  0  0  0  0
  -24.6410  -31.9240   23.2500 C   0  0  0  0  0  0  0  0  0  0  0  0
  -27.1800  -27.1400   20.2280 C   0  0  0  0  0  0  0  0  0  0  0  0
  -23.4330  -30.5340   21.6150 C   0  0  0  0  0  3  0  0  0  0  0  0
  -24.8710  -28.9430   20.1890 C   0  0  0  0  0  0  0  0  0  0  0  0
  -25.9920  -30.7690   21.4500 C   0  0  0  0  0  2  0  0  0  0  0  0
  -26.0570  -29.3700   20.7990 C   0  0  0  0  0  0  0  0  0  0  0  0
  -27.2110  -28.4860   20.7990 C   0  0  0  0  0  3  0  0  0  0  0  0
  -25.9650  -26.8330   19.5740 C   0  0  0  0  0  3  0  0  0  0  0  0
  -24.8420  -27.6910   19.5580 C   0  0  0  0  0  3  0  0  0  0  0  0
  -23.6510  -29.8540   20.2370 C   0  0  0  0  0  2  0  0  0  0  0  0
  -24.7100  -31.0990   22.1600 N   0  0  0  0  0  0  0  0  0  0  0  0
  -23.5560  -32.2170   23.7770 O   0  0  0  0  0  0  0  0  0  0  0  0
  -22.7450  -29.5350   22.5790 C   0  0  0  0  0  0  0  0  0  0  0  0
  -21.4160  -29.3670   22.4500 N   0  0  0  0  0  0  0  0  0  0  0  0
  -23.4110  -28.9120   23.4100 O   0  0  0  0  0  0  0  0  0  0  0  0
  -20.9340  -29.9200   21.7550 H   0  0  0  0  0  0  0  0  0  0  0  0
  -18.0320  -28.1660   22.9460 C   0  0  0  0  0  0  0  0  0  0  0  0
  -20.5910  -28.4340   23.2240 C   0  0  0  0  0  3  0  0  0  0  0  0
  -20.6960  -26.9990   22.6590 C   0  0  0  0  0  2  0  0  0  0  0  0
  -19.5990  -26.6680   21.6410 C   0  0  0  0  0  2  0  0  0  0  0  0
  -18.2140  -26.8140   22.2780 C   0  0  0  0  0  2  0  0  0  0  0  0
  -19.1480  -28.9330   23.3770 C   0  0  0  0  0  0  0  0  0  0  0  0
  -18.9230  -30.1970   23.9630 C   0  0  0  0  0  3  0  0  0  0  0  0
  -17.6160  -30.6950   24.1250 C   0  0  0  0  0  3  0  0  0  0  0  0
  -16.5150  -29.9250   23.7100 C   0  0  0  0  0  3  0  0  0  0  0  0
  -16.7250  -28.6630   23.1260 C   0  0  0  0  0  3  0  0  0  0  0  0
  -25.9200  -32.5570   23.8760 C   0  0  0  0  0  3  0  0  0  0  0  0
  -25.6130  -33.9580   24.2110 N   0  0  0  0  0  0  0  0  0  0  0  0
  -25.9150  -35.0130   23.4420 C   0  0  0  0  0  0  0  0  0  0  0  0
  -26.5480  -34.9090   22.3890 O   0  0  0  0  0  0  0  0  0  0  0  0
  -25.0440  -34.1100   25.0300 H   0  0  0  0  0  0  0  0  0  0  0  0
  -24.1570  -36.7950   23.1710 C   0  0  0  0  0  1  0  0  0  0  0  0
  -25.4430  -36.4020   23.9160 C   0  0  0  0  0  3  0  0  0  0  0  0
  -27.6080  -37.3150   24.6310 C   0  0  0  0  0  1  0  0  0  0  0  0
  -26.4600  -37.4620   23.7410 N   0  0  0  0  0  0  0  0  0  0  0  0
  -26.0550  -38.3800   23.8960 H   0  0  0  0  0  0  0  0  0  0  0  0
  -26.4260  -31.7870   25.1580 C   0  0  1  0  0  0  0  0  0  0  0  0
  -25.3280  -31.5590   26.2230 C   0  0  0  0  0  1  0  0  0  0  0  0
  -27.0050  -30.4050   24.7780 C   0  0  0  0  0  1  0  0  0  0  0  0
  -27.5790  -32.5780   25.8220 C   0  0  0  0  0  1  0  0  0  0  0  0
  1  3  2  0
  2  1  1  0
  2  9  1  0
  4  2  1  0
  6  5  2  0
  7  5  1  0
  8  9  2  0
  8 10  1  0
  9  6  1  0
 10  7  2  0
 11 19  1  0
 12 17  1  0
 13 14  1  0
 13 12  1  0
 15 14  1  0
 15 24  1  0
 15 16  1  0
 17 11  1  0
 17 16  1  0
 18 11  2  0
 19 10  1  0
 19 20  1  0
 21 22  2  0
 22 41  1  0
 23 22  1  0
 23 26  1  0
 24 25  1  0
 24 21  1  0
 25 23  2  0
 26 27  1  0
 27 28  2  0
 29 32  1  0
 29 28  1  0
 30 29  2  0
 31 30  1  0
 31 26  2  0
 32 33  1  0
 33 34  1  0
 34 35  2  0
 36 35  1  0
 36 40  1  0
 37 36  2  0
 38 33  2  0
 38 37  1  0
 39 38  1  0
 41 42  1  0
 42 45  1  0
 42 44  1  0
 43 41  2  0
 46 47  1  0
 46 21  1  0
 48 46  1  0
 49 50  1  0
 49  1  1  0
 51 62  2  0
 52 50  1  0
 52 57  1  0
 53 61  1  0
 53 63  1  0
 54 60  1  0
 54 56  1  0
 55 61  1  0
 56 55  1  0
 57 56  2  0
 58 52  2  0
 59 58  1  0
 59 54  2  0
 60 53  1  0
 61 51  1  0
 63 65  2  0
 64 63  1  0
 66 64  1  0
 67 76  2  0
 67 72  1  0
 68 64  1  0
 68 72  1  0
 69 68  1  0
 70 71  1  0
 70 69  1  0
 71 67  1  0
 72 73  2  0
 73 74  1  0
 75 74  2  0
 76 75  1  0
 77 51  1  0
 77 78  1  0
 77 87  1  0
 78 81  1  0
 79 83  1  0
 79 78  1  0
 80 79  2  0
 83 82  1  0
 85 86  1  0
 85 83  1  0
 85 84  1  0
 87 90  1  1
 87 88  1  0
 89 87  1  0
M  ISO  4  11 100  19 100  49 101  50 101
M  END
>  <TORSDO>  (86) 
F 18

>  <SCORE>  (86) 
-14.692

>  <name>  (86) 
85

>  <ligand_id>  (86) 
85

>  <original_smiles>  (86) 
[H]c1c([H])c(N([H])C(=O)N2C([H])([H])C([H])([H])C([H])([H])C([H])(n3nc(-c4c([H])c([H])c(Oc5c([H])c([H])c(F)c([H])c5F)c([H])c4[H])c(C(=O)N([H])[H])c3N([H])[H])C2([H])[H])c([H])c(N([H])C(=O)C([H])([H])Oc2c([H])c([H])c3c(c2[H])C([H])([H])N(C(=O)C([H])(N([H])C(=O)C([H])(N([H])C([H])([H])[H])C([H])([H])[H])C(C([H])([H])[H])(C([H])([H])[H])C([H])([H])[H])C([H])(C(=O)N([H])C2([H])c4c([H])c([H])c([H])c([H])c4C([H])([H])C([H])([H])C2([H])[H])C3([H])[H])c1[H]

>  <smiles>  (86) 
[H]c1c([H])c(N([H])C(=O)N2C([H])([H])C([H])([H])C([H])([H])C([H])(n3nc(-c4c([H])c([H])c(Oc5c([H])c([H])c(F)c([H])c5F)c([H])c4[H])c(C(=O)N([H])[H])c3N([H])[H])C2([H])[H])c([H])c(N([H])C(=O)C([H])([H])Oc2c([H])c([H])c3c(c2[H])C([H])([H])N(C(=O)C([H])(N([H])C(=O)C([H])(N([H])C([H])([H])[H])C([H])([H])[H])C(C([H])([H])[H])(C([H])([H])[H])C([H])([H])[H])C([H])(C(=O)N([H])C2([H])c4c([H])c([H])c([H])c([H])c4C([H])([H])C([H])([H])C2([H])[H])C3([H])[H])c1[H]

$$$$
86:0:0
     RDKit          3D

 96105  0  0  1  0  0  0  0  0999 V2000
  -28.7560  -23.4480   19.3870 C   0  0  0  0  0  3  0  0  0  0  0  0
  -29.2000  -22.6230   17.2200 C   0  0  0  0  0  3  0  0  0  0  0  0
  -28.5320  -24.5470   20.3050 C   0  0  0  0  0  2  0  0  0  0  0  0
  -28.6030  -23.8080   17.8970 C   0  0  2  0  0  0  0  0  0  0  0  0
  -29.3220  -25.1010   17.4380 C   0  0  0  0  0  1  0  0  0  0  0  0
  -27.1080  -23.8610   17.4910 C   0  0  0  0  0  1  0  0  0  0  0  0
  -29.3330  -21.6250   18.0060 N   0  0  0  0  0  2  0  0  0  0  0  0
  -29.0570  -21.9020   19.3040 N   0  0  0  0  0  0  0  0  0  0  0  0
  -30.4060  -19.5350   22.1100 C   0  0  0  0  0  3  0  0  0  0  0  0
  -29.9170  -20.6760   21.4130 C   0  0  0  0  0  3  0  0  0  0  0  0
  -29.4920  -19.1540   19.5800 C   0  0  0  0  0  3  0  0  0  0  0  0
  -30.4580  -18.2090   21.5830 C   0  0  0  0  0  0  0  0  0  0  0  0
  -29.4390  -20.5890   20.0960 C   0  0  0  0  0  0  0  0  0  0  0  0
  -30.0030  -17.9010   20.2680 C   0  0  0  0  0  0  0  0  0  0  0  0
  -30.9680  -17.1050   22.5000 C   0  0  0  0  0  1  0  0  0  0  0  0
  -30.7100  -15.1520   19.8970 C   0  0  0  0  0  0  0  0  0  0  0  0
  -30.5690  -12.7640   18.9500 C   0  0  0  0  0  2  0  0  0  0  0  0
  -29.5680  -12.6670   17.7720 C   0  0  0  0  0  2  0  0  0  0  0  0
  -28.1360  -12.4340   18.2920 C   0  0  0  0  0  2  0  0  0  0  0  0
  -27.7820  -13.3670   19.4800 C   0  0  0  0  0  3  0  0  0  0  0  0
  -28.9030  -13.4270   20.5380 C   0  0  0  0  0  2  0  0  0  0  0  0
  -30.1100  -13.8810   19.8350 N   0  0  0  0  0  0  0  0  0  0  0  0
  -31.9320  -15.1630   19.6950 O   0  0  0  0  0  0  0  0  0  0  0  0
  -29.9190  -16.3770   19.8420 N   0  0  0  0  0  0  0  0  0  0  0  0
  -28.9870  -16.1400   19.5410 H   0  0  0  0  0  0  0  0  0  0  0  0
  -25.4740  -13.9600   20.3990 C   0  0  0  0  0  0  0  0  0  0  0  0
  -24.4200  -13.1950   20.8150 C   0  0  0  0  0  0  0  0  0  0  0  0
  -24.8570  -11.8380   20.7240 C   0  0  0  0  0  0  0  0  0  0  0  0
  -26.4820  -13.0690   20.0670 N   0  0  0  0  0  0  0  0  0  0  0  0
  -26.1260  -11.7860   20.3310 N   0  0  0  0  0  0  0  0  0  0  0  0
  -24.1150  -10.5850   20.9240 C   0  0  0  0  0  0  0  0  0  0  0  0
  -24.5540   -9.6060   21.8410 C   0  0  0  0  0  3  0  0  0  0  0  0
  -23.8130   -8.4190   22.0340 C   0  0  0  0  0  3  0  0  0  0  0  0
  -22.6180   -8.2020   21.3070 C   0  0  0  0  0  0  0  0  0  0  0  0
  -22.1950   -9.1700   20.3780 C   0  0  0  0  0  3  0  0  0  0  0  0
  -22.9370  -10.3480   20.1840 C   0  0  0  0  0  3  0  0  0  0  0  0
  -21.8450   -7.0710   21.4110 O   0  0  0  0  0  0  0  0  0  0  0  0
  -21.7840   -6.3450   22.5730 C   0  0  0  0  0  0  0  0  0  0  0  0
  -21.3490   -6.9190   23.7890 C   0  0  0  0  0  3  0  0  0  0  0  0
  -21.2340   -6.1200   24.9440 C   0  0  0  0  0  3  0  0  0  0  0  0
  -21.5390   -4.7480   24.8850 C   0  0  0  0  0  0  0  0  0  0  0  0
  -21.9650   -4.1730   23.6760 C   0  0  0  0  0  3  0  0  0  0  0  0
  -22.0850   -4.9700   22.5240 C   0  0  0  0  0  0  0  0  0  0  0  0
  -22.4750   -4.4050   21.3560 F   0  0  0  0  0  0  0  0  0  0  0  0
  -21.4230   -3.9790   25.9940 F   0  0  0  0  0  0  0  0  0  0  0  0
  -23.0510  -13.6920   21.1760 C   0  0  0  0  0  0  0  0  0  0  0  0
  -22.3600  -13.0000   22.0750 N   0  0  0  0  0  0  0  0  0  0  0  0
  -22.6030  -14.7300   20.6910 O   0  0  0  0  0  0  0  0  0  0  0  0
  -22.7350  -12.1640   22.4960 H   0  0  0  0  0  0  0  0  0  0  0  0
  -21.4390  -13.3170   22.3470 H   0  0  0  0  0  0  0  0  0  0  0  0
  -25.6480  -15.3320   20.2490 N   0  0  0  0  0  0  0  0  0  0  0  0
  -24.8930  -15.9890   20.4070 H   0  0  0  0  0  0  0  0  0  0  0  0
  -26.4850  -15.7710   19.8920 H   0  0  0  0  0  0  0  0  0  0  0  0
  -30.9230  -22.4610   15.5210 C   0  0  0  0  0  2  0  0  0  0  0  0
  -29.6170  -22.5510   15.8360 C   0  0  0  0  0  3  0  0  0  0  0  0
  -28.5030  -26.0450   20.0960 O   0  0  0  0  0  0  0  0  0  0  0  0
  -24.6630  -31.7680   23.1070 C   0  0  0  0  0  0  0  0  0  0  0  0
  -27.4020  -27.0160   20.1530 C   0  0  0  0  0  0  0  0  0  0  0  0
  -23.5350  -30.3350   21.4580 C   0  0  0  0  0  3  0  0  0  0  0  0
  -25.0430  -28.7700   20.0780 C   0  0  0  0  0  0  0  0  0  0  0  0
  -26.0920  -30.6400   21.3390 C   0  0  0  0  0  2  0  0  0  0  0  0
  -26.2110  -29.2350   20.6960 C   0  0  0  0  0  0  0  0  0  0  0  0
  -27.3920  -28.3800   20.6990 C   0  0  0  0  0  3  0  0  0  0  0  0
  -26.1880  -26.6630   19.5310 C   0  0  0  0  0  3  0  0  0  0  0  0
  -25.0480  -27.4990   19.4830 C   0  0  0  0  0  3  0  0  0  0  0  0
  -23.7990  -29.6480   20.0920 C   0  0  0  0  0  2  0  0  0  0  0  0
  -24.7840  -30.9400   22.0220 N   0  0  0  0  0  0  0  0  0  0  0  0
  -23.5580  -32.0270   23.6080 O   0  0  0  0  0  0  0  0  0  0  0  0
  -22.8590  -29.3190   22.4140 C   0  0  0  0  0  0  0  0  0  0  0  0
  -21.5360  -29.1240   22.2720 N   0  0  0  0  0  0  0  0  0  0  0  0
  -23.5300  -28.7050   23.2470 O   0  0  0  0  0  0  0  0  0  0  0  0
  -21.0500  -29.6650   21.5710 H   0  0  0  0  0  0  0  0  0  0  0  0
  -18.1730  -27.8410   22.7340 C   0  0  0  0  0  0  0  0  0  0  0  0
  -20.7210  -28.1690   23.0330 C   0  0  0  0  0  3  0  0  0  0  0  0
  -20.8650  -26.7390   22.4600 C   0  0  0  0  0  2  0  0  0  0  0  0
  -19.7850  -26.3880   21.4330 C   0  0  0  0  0  2  0  0  0  0  0  0
  -18.3910  -26.4970   22.0570 C   0  0  0  0  0  2  0  0  0  0  0  0
  -19.2660  -28.6320   23.1760 C   0  0  0  0  0  0  0  0  0  0  0  0
  -19.0050  -29.8860   23.7710 C   0  0  0  0  0  3  0  0  0  0  0  0
  -17.6850  -30.3520   23.9210 C   0  0  0  0  0  3  0  0  0  0  0  0
  -16.6070  -29.5590   23.4920 C   0  0  0  0  0  3  0  0  0  0  0  0
  -16.8510  -28.3040   22.9070 C   0  0  0  0  0  3  0  0  0  0  0  0
  -25.9070  -32.4450   23.7600 C   0  0  0  0  0  3  0  0  0  0  0  0
  -25.5470  -33.8350   24.0830 N   0  0  0  0  0  0  0  0  0  0  0  0
  -25.8770  -34.9030   23.3430 C   0  0  0  0  0  0  0  0  0  0  0  0
  -26.5810  -34.8200   22.3340 O   0  0  0  0  0  0  0  0  0  0  0  0
  -24.9240  -33.9720   24.8660 H   0  0  0  0  0  0  0  0  0  0  0  0
  -24.1180  -36.6590   22.9480 C   0  0  0  0  0  1  0  0  0  0  0  0
  -25.3430  -36.2770   23.7930 C   0  0  0  0  0  3  0  0  0  0  0  0
  -27.4260  -37.2090   24.6990 C   0  0  0  0  0  1  0  0  0  0  0  0
  -26.3520  -37.3560   23.7190 N   0  0  0  0  0  0  0  0  0  0  0  0
  -25.9190  -38.2650   23.8520 H   0  0  0  0  0  0  0  0  0  0  0  0
  -26.4080  -31.6980   25.0590 C   0  0  1  0  0  0  0  0  0  0  0  0
  -25.2900  -31.4320   26.0970 C   0  0  0  0  0  1  0  0  0  0  0  0
  -27.0430  -30.3370   24.6970 C   0  0  0  0  0  1  0  0  0  0  0  0
  -27.5200  -32.5280   25.7430 C   0  0  0  0  0  1  0  0  0  0  0  0
  1  3  1  0
  2 55  1  0
  2  4  1  0
  2  7  1  0
  4  1  1  0
  4  5  1  1
  6  4  1  0
  7  8  1  0
  8  1  1  0
  8 13  1  0
 10  9  2  0
 11 13  2  0
 11 14  1  0
 12  9  1  0
 12 15  1  0
 13 10  1  0
 14 12  2  0
 17 22  1  0
 18 19  1  0
 18 17  1  0
 20 19  1  0
 20 29  1  0
 20 21  1  0
 22 16  1  0
 22 21  1  0
 23 16  2  0
 24 16  1  0
 24 14  1  0
 25 24  1  0
 26 27  2  0
 27 46  1  0
 28 27  1  0
 28 31  1  0
 29 30  1  0
 29 26  1  0
 30 28  2  0
 31 32  1  0
 32 33  2  0
 34 37  1  0
 34 33  1  0
 35 34  2  0
 36 35  1  0
 36 31  2  0
 37 38  1  0
 38 39  1  0
 39 40  2  0
 41 40  1  0
 41 45  1  0
 42 41  2  0
 43 38  2  0
 43 42  1  0
 44 43  1  0
 46 47  1  0
 47 50  1  0
 47 49  1  0
 48 46  2  0
 51 26  1  0
 51 52  1  0
 53 51  1  0
 54 55  2  0
 56 58  1  0
 56  3  1  0
 57 68  2  0
 58 63  1  0
 59 67  1  0
 59 69  1  0
 60 66  1  0
 60 62  1  0
 61 67  1  0
 62 63  2  0
 62 61  1  0
 64 58  2  0
 65 64  1  0
 65 60  2  0
 66 59  1  0
 67 57  1  0
 69 71  2  0
 70 69  1  0
 72 70  1  0
 73 82  2  0
 73 78  1  0
 74 70  1  0
 74 78  1  0
 75 74  1  0
 76 77  1  0
 76 75  1  0
 77 73  1  0
 78 79  2  0
 79 80  1  0
 81 80  2  0
 82 81  1  0
 83 57  1  0
 83 84  1  0
 83 93  1  0
 84 87  1  0
 85 89  1  0
 85 84  1  0
 86 85  2  0
 89 88  1  0
 91 89  1  0
 91 92  1  0
 91 90  1  0
 93 96  1  1
 93 94  1  0
 95 93  1  0
M  ISO  4   3 101  16 100  24 100  56 101
M  END
>  <TORSDO>  (87) 
F 18

>  <SCORE>  (87) 
-13.938

>  <name>  (87) 
86

>  <ligand_id>  (87) 
86

>  <original_smiles>  (87) 
[H]C([H])=C([H])C1=NN(c2c([H])c([H])c(C([H])([H])[H])c(N([H])C(=O)N3C([H])([H])C([H])([H])C([H])([H])C([H])(n4nc(-c5c([H])c([H])c(Oc6c([H])c([H])c(F)c([H])c6F)c([H])c5[H])c(C(=O)N([H])[H])c4N([H])[H])C3([H])[H])c2[H])C(=C([H])Oc2c([H])c([H])c3c(c2[H])C([H])([H])N(C(=O)C([H])(N([H])C(=O)C([H])(N([H])C([H])([H])[H])C([H])([H])[H])C(C([H])([H])[H])(C([H])([H])[H])C([H])([H])[H])C([H])(C(=O)N([H])C2([H])c4c([H])c([H])c([H])c([H])c4C([H])([H])C([H])([H])C2([H])[H])C3([H])[H])C1(C([H])([H])[H])C([H])([H])[H]

>  <smiles>  (87) 
[H]C([H])=C([H])C1=NN(c2c([H])c([H])c(C([H])([H])[H])c(N([H])C(=O)N3C([H])([H])C([H])([H])C([H])([H])C([H])(n4nc(-c5c([H])c([H])c(Oc6c([H])c([H])c(F)c([H])c6F)c([H])c5[H])c(C(=O)N([H])[H])c4N([H])[H])C3([H])[H])c2[H])C(=C([H])Oc2c([H])c([H])c3c(c2[H])C([H])([H])N(C(=O)C([H])(N([H])C(=O)C([H])(N([H])C([H])([H])[H])C([H])([H])[H])C(C([H])([H])[H])(C([H])([H])[H])C([H])([H])[H])C([H])(C(=O)N([H])C2([H])c4c([H])c([H])c([H])c([H])c4C([H])([H])C([H])([H])C2([H])[H])C3([H])[H])C1(C([H])([H])[H])C([H])([H])[H]

$$$$
87:0:0
     RDKit          3D

 92100  0  0  1  0  0  0  0  0999 V2000
  -28.8930  -22.3250   19.7760 C   0  0  0  0  0  0  0  0  0  0  0  0
  -29.0710  -21.1070   20.4280 N   0  0  0  0  0  0  0  0  0  0  0  0
  -28.9610  -22.3830   18.5450 O   0  0  0  0  0  0  0  0  0  0  0  0
  -28.8170  -21.1150   21.4080 H   0  0  0  0  0  0  0  0  0  0  0  0
  -29.4310  -18.4970   20.5120 C   0  0  0  0  0  3  0  0  0  0  0  0
  -30.5370  -19.8620   18.8300 C   0  0  0  0  0  3  0  0  0  0  0  0
  -30.9160  -17.4430   18.8990 C   0  0  0  0  0  3  0  0  0  0  0  0
  -29.6440  -19.8210   19.9280 C   0  0  0  0  0  0  0  0  0  0  0  0
  -30.0660  -17.2750   20.0190 C   0  0  0  0  0  0  0  0  0  0  0  0
  -31.1480  -18.7040   18.3230 C   0  0  0  0  0  0  0  0  0  0  0  0
  -31.9780  -18.8020   17.2560 F   0  0  0  0  0  0  0  0  0  0  0  0
  -30.5950  -14.7370   20.3480 C   0  0  0  0  0  0  0  0  0  0  0  0
  -30.3740  -12.4590   19.3720 C   0  0  0  0  0  2  0  0  0  0  0  0
  -29.4420  -12.5440   18.1440 C   0  0  0  0  0  2  0  0  0  0  0  0
  -27.9700  -12.3840   18.5710 C   0  0  0  0  0  2  0  0  0  0  0  0
  -27.5990  -13.2720   19.7880 C   0  0  0  0  0  3  0  0  0  0  0  0
  -28.6560  -13.1860   20.9110 C   0  0  0  0  0  2  0  0  0  0  0  0
  -29.9570  -13.5200   20.3180 N   0  0  0  0  0  0  0  0  0  0  0  0
  -31.7900  -14.7970   20.0400 O   0  0  0  0  0  0  0  0  0  0  0  0
  -29.8450  -15.8930   20.5440 N   0  0  0  0  0  0  0  0  0  0  0  0
  -28.9480  -15.7350   20.9780 H   0  0  0  0  0  0  0  0  0  0  0  0
  -25.2130  -13.8650   20.5160 C   0  0  0  0  0  0  0  0  0  0  0  0
  -24.1470  -13.0920   20.8890 C   0  0  0  0  0  0  0  0  0  0  0  0
  -24.6100  -11.7410   20.8640 C   0  0  0  0  0  0  0  0  0  0  0  0
  -26.2560  -12.9850   20.2820 N   0  0  0  0  0  0  0  0  0  0  0  0
  -25.9010  -11.7020   20.5540 N   0  0  0  0  0  0  0  0  0  0  0  0
  -23.8840  -10.4790   21.0580 C   0  0  0  0  0  0  0  0  0  0  0  0
  -24.3260   -9.5050   21.9810 C   0  0  0  0  0  3  0  0  0  0  0  0
  -23.5990   -8.3100   22.1640 C   0  0  0  0  0  3  0  0  0  0  0  0
  -22.4150   -8.0780   21.4250 C   0  0  0  0  0  0  0  0  0  0  0  0
  -21.9910   -9.0400   20.4900 C   0  0  0  0  0  3  0  0  0  0  0  0
  -22.7180  -10.2280   20.3060 C   0  0  0  0  0  3  0  0  0  0  0  0
  -21.6580   -6.9360   21.5170 O   0  0  0  0  0  0  0  0  0  0  0  0
  -21.6350   -6.1770   22.6600 C   0  0  0  0  0  0  0  0  0  0  0  0
  -21.2560   -6.7220   23.9070 C   0  0  0  0  0  3  0  0  0  0  0  0
  -21.1780   -5.8910   25.0430 C   0  0  0  0  0  3  0  0  0  0  0  0
  -21.4720   -4.5180   24.9330 C   0  0  0  0  0  0  0  0  0  0  0  0
  -21.8440   -3.9740   23.6920 C   0  0  0  0  0  3  0  0  0  0  0  0
  -21.9230   -4.8020   22.5580 C   0  0  0  0  0  0  0  0  0  0  0  0
  -22.2620   -4.2690   21.3600 F   0  0  0  0  0  0  0  0  0  0  0  0
  -21.3910   -3.7180   26.0220 F   0  0  0  0  0  0  0  0  0  0  0  0
  -22.7500  -13.5710   21.1570 C   0  0  0  0  0  0  0  0  0  0  0  0
  -22.0200  -12.8800   22.0250 N   0  0  0  0  0  0  0  0  0  0  0  0
  -22.3140  -14.5930   20.6290 O   0  0  0  0  0  0  0  0  0  0  0  0
  -22.3860  -12.0550   22.4760 H   0  0  0  0  0  0  0  0  0  0  0  0
  -21.0820  -13.1830   22.2430 H   0  0  0  0  0  0  0  0  0  0  0  0
  -25.3770  -15.2350   20.3320 N   0  0  0  0  0  0  0  0  0  0  0  0
  -24.6080  -15.8880   20.4330 H   0  0  0  0  0  0  0  0  0  0  0  0
  -26.2200  -15.6690   19.9760 H   0  0  0  0  0  0  0  0  0  0  0  0
  -28.5460  -23.6970   20.5270 C   0  0  0  0  0  3  0  0  0  0  0  0
  -28.4200  -25.0510   19.6420 C   0  0  0  0  0  3  0  0  0  0  0  0
  -28.3360  -26.4320   20.2290 O   0  0  0  0  0  0  0  0  0  0  0  0
  -24.6170  -31.8690   23.2320 C   0  0  0  0  0  0  0  0  0  0  0  0
  -27.2020  -27.2750   20.1580 C   0  0  0  0  0  0  0  0  0  0  0  0
  -23.4020  -30.4700   21.6010 C   0  0  0  0  0  3  0  0  0  0  0  0
  -24.8400  -28.9160   20.1630 C   0  0  0  0  0  0  0  0  0  0  0  0
  -25.9430  -30.7780   21.4050 C   0  0  0  0  0  2  0  0  0  0  0  0
  -26.0150  -29.3970   20.7530 C   0  0  0  0  0  0  0  0  0  0  0  0
  -27.1950  -28.5880   20.7390 C   0  0  0  0  0  3  0  0  0  0  0  0
  -25.9970  -26.8530   19.5530 C   0  0  0  0  0  3  0  0  0  0  0  0
  -24.8370  -27.6520   19.5540 C   0  0  0  0  0  3  0  0  0  0  0  0
  -23.6060  -29.7940   20.2180 C   0  0  0  0  0  2  0  0  0  0  0  0
  -24.6730  -31.0590   22.1340 N   0  0  0  0  0  0  0  0  0  0  0  0
  -23.5360  -32.1480   23.7740 O   0  0  0  0  0  0  0  0  0  0  0  0
  -22.7450  -29.4550   22.5670 C   0  0  0  0  0  0  0  0  0  0  0  0
  -21.4180  -29.2770   22.4500 N   0  0  0  0  0  0  0  0  0  0  0  0
  -23.4280  -28.8310   23.3830 O   0  0  0  0  0  0  0  0  0  0  0  0
  -20.9240  -29.8330   21.7660 H   0  0  0  0  0  0  0  0  0  0  0  0
  -18.0450  -28.0700   22.9620 C   0  0  0  0  0  0  0  0  0  0  0  0
  -20.6040  -28.3380   23.2250 C   0  0  0  0  0  3  0  0  0  0  0  0
  -20.7080  -26.9050   22.6550 C   0  0  0  0  0  2  0  0  0  0  0  0
  -19.6050  -26.5750   21.6440 C   0  0  0  0  0  2  0  0  0  0  0  0
  -18.2250  -26.7180   22.2910 C   0  0  0  0  0  2  0  0  0  0  0  0
  -19.1630  -28.8370   23.3860 C   0  0  0  0  0  0  0  0  0  0  0  0
  -18.9410  -30.1020   23.9730 C   0  0  0  0  0  3  0  0  0  0  0  0
  -17.6340  -30.5980   24.1430 C   0  0  0  0  0  3  0  0  0  0  0  0
  -16.5330  -29.8280   23.7350 C   0  0  0  0  0  3  0  0  0  0  0  0
  -16.7380  -28.5660   23.1510 C   0  0  0  0  0  3  0  0  0  0  0  0
  -25.9040  -32.5020   23.8450 C   0  0  0  0  0  3  0  0  0  0  0  0
  -26.4290  -31.7310   25.1180 C   0  0  1  0  0  0  0  0  0  0  0  0
  -25.3460  -31.4940   26.1950 C   0  0  0  0  0  1  0  0  0  0  0  0
  -27.0080  -30.3520   24.7230 C   0  0  0  0  0  1  0  0  0  0  0  0
  -27.5830  -32.5260   25.7720 C   0  0  0  0  0  1  0  0  0  0  0  0
  -25.5920  -33.9000   24.1830 N   0  0  0  0  0  0  0  0  0  0  0  0
  -25.9140  -34.9580   23.4260 C   0  0  0  0  0  0  0  0  0  0  0  0
  -26.5740  -34.8620   22.3880 O   0  0  0  0  0  0  0  0  0  0  0  0
  -25.0030  -34.0480   24.9880 H   0  0  0  0  0  0  0  0  0  0  0  0
  -24.1750  -36.7490   23.1030 C   0  0  0  0  0  1  0  0  0  0  0  0
  -25.4280  -36.3430   23.8950 C   0  0  0  0  0  3  0  0  0  0  0  0
  -27.5730  -37.2310   24.6990 C   0  0  0  0  0  1  0  0  0  0  0  0
  -26.4550  -37.4020   23.7750 N   0  0  0  0  0  0  0  0  0  0  0  0
  -26.0460  -38.3190   23.9370 H   0  0  0  0  0  0  0  0  0  0  0  0
  1  2  1  0
  1 50  1  0
  2  4  1  0
  3  1  2  0
  6  8  1  0
  7  9  2  0
  8  2  1  0
  8  5  2  0
  9  5  1  0
  9 20  1  0
 10  6  2  0
 10  7  1  0
 11 10  1  0
 12 20  1  0
 13 18  1  0
 14 15  1  0
 14 13  1  0
 16 15  1  0
 16 25  1  0
 16 17  1  0
 18 12  1  0
 18 17  1  0
 19 12  2  0
 20 21  1  0
 22 23  2  0
 23 42  1  0
 24 23  1  0
 24 27  1  0
 25 22  1  0
 25 26  1  0
 26 24  2  0
 27 28  1  0
 28 29  2  0
 30 33  1  0
 30 29  1  0
 31 30  2  0
 32 31  1  0
 32 27  2  0
 33 34  1  0
 34 35  1  0
 35 36  2  0
 37 36  1  0
 37 41  1  0
 38 37  2  0
 39 34  2  0
 39 38  1  0
 40 39  1  0
 42 43  1  0
 43 46  1  0
 43 45  1  0
 44 42  2  0
 47 48  1  0
 47 22  1  0
 49 47  1  0
 51 52  1  0
 51 50  2  0
 53 64  2  0
 54 52  1  0
 54 59  1  0
 55 63  1  0
 55 65  1  0
 56 62  1  0
 56 58  1  0
 57 63  1  0
 58 57  1  0
 59 58  2  0
 60 61  1  0
 60 54  2  0
 61 56  2  0
 62 55  1  0
 63 53  1  0
 65 67  2  0
 66 65  1  0
 68 66  1  0
 69 78  2  0
 69 74  1  0
 70 66  1  0
 70 74  1  0
 71 70  1  0
 72 73  1  0
 72 71  1  0
 73 69  1  0
 74 75  2  0
 75 76  1  0
 77 76  2  0
 78 77  1  0
 79 53  1  0
 79 84  1  0
 79 80  1  0
 80 83  1  1
 80 81  1  0
 82 80  1  0
 84 87  1  0
 85 89  1  0
 85 84  1  0
 86 85  2  0
 89 88  1  0
 91 89  1  0
 91 92  1  0
 91 90  1  0
M  ISO  4  12 100  20 100  51 101  52 101
M  END
>  <TORSDO>  (88) 
F 19

>  <SCORE>  (88) 
-14.203

>  <name>  (88) 
87

>  <ligand_id>  (88) 
87

>  <original_smiles>  (88) 
[H]c1c([H])c([H])c2c(c1[H])C([H])([H])C([H])([H])C([H])([H])C2([H])N([H])C(=O)C1([H])N(C(=O)C([H])(N([H])C(=O)C([H])(N([H])C([H])([H])[H])C([H])([H])[H])C(C([H])([H])[H])(C([H])([H])[H])C([H])([H])[H])C([H])([H])c2c([H])c(OC([H])([H])C([H])([H])C(=O)N([H])c3c([H])c(F)c([H])c(N([H])C(=O)N4C([H])([H])C([H])([H])C([H])([H])C([H])(n5nc(-c6c([H])c([H])c(Oc7c([H])c([H])c(F)c([H])c7F)c([H])c6[H])c(C(=O)N([H])[H])c5N([H])[H])C4([H])[H])c3[H])c([H])c([H])c2C1([H])[H]

>  <smiles>  (88) 
[H]c1c([H])c([H])c2c(c1[H])C([H])([H])C([H])([H])C([H])([H])C2([H])N([H])C(=O)C1([H])N(C(=O)C([H])(N([H])C(=O)C([H])(N([H])C([H])([H])[H])C([H])([H])[H])C(C([H])([H])[H])(C([H])([H])[H])C([H])([H])[H])C([H])([H])c2c([H])c(OC([H])([H])C([H])([H])C(=O)N([H])c3c([H])c(F)c([H])c(N([H])C(=O)N4C([H])([H])C([H])([H])C([H])([H])C([H])(n5nc(-c6c([H])c([H])c(Oc7c([H])c([H])c(F)c([H])c7F)c([H])c6[H])c(C(=O)N([H])[H])c5N([H])[H])C4([H])[H])c3[H])c([H])c([H])c2C1([H])[H]

$$$$
88:0:0
     RDKit          3D

 92100  0  0  1  0  0  0  0  0999 V2000
  -28.8810  -18.9750   20.9080 C   0  0  0  0  0  3  0  0  0  0  0  0
  -28.4000  -20.3180   21.0250 C   0  0  0  0  0  3  0  0  0  0  0  0
  -30.2800  -21.1370   19.7710 C   0  0  0  0  0  3  0  0  0  0  0  0
  -30.0880  -18.6860   20.2270 C   0  0  0  0  0  0  0  0  0  0  0  0
  -29.0860  -21.4400   20.4720 C   0  0  0  0  0  0  0  0  0  0  0  0
  -30.7650  -19.8040   19.6590 C   0  0  0  0  0  0  0  0  0  0  0  0
  -31.9350  -19.6020   19.0030 F   0  0  0  0  0  0  0  0  0  0  0  0
  -28.9320  -24.0380   20.2550 C   0  0  0  0  0  0  0  0  0  0  0  0
  -28.5570  -22.7900   20.6890 N   0  0  0  0  0  0  0  0  0  0  0  0
  -29.8510  -24.2200   19.4510 O   0  0  0  0  0  0  0  0  0  0  0  0
  -27.7570  -22.8220   21.3060 H   0  0  0  0  0  0  0  0  0  0  0  0
  -28.1310  -25.2750   20.8200 C   0  0  0  0  0  2  0  0  0  0  0  0
  -28.3960  -26.6020   20.2180 O   0  0  0  0  0  0  0  0  0  0  0  0
  -24.5970  -31.9240   23.2540 C   0  0  0  0  0  0  0  0  0  0  0  0
  -27.2910  -27.4560   20.1720 C   0  0  0  0  0  0  0  0  0  0  0  0
  -23.4270  -30.5350   21.5810 C   0  0  0  0  0  3  0  0  0  0  0  0
  -24.9110  -29.0250   20.1490 C   0  0  0  0  0  0  0  0  0  0  0  0
  -25.9620  -30.8920   21.4280 C   0  0  0  0  0  2  0  0  0  0  0  0
  -26.0660  -29.5250   20.7660 C   0  0  0  0  0  0  0  0  0  0  0  0
  -27.2640  -28.7510   20.7680 C   0  0  0  0  0  3  0  0  0  0  0  0
  -26.1220  -27.0100   19.5210 C   0  0  0  0  0  3  0  0  0  0  0  0
  -24.9400  -27.7720   19.5150 C   0  0  0  0  0  3  0  0  0  0  0  0
  -23.6630  -29.8810   20.1930 C   0  0  0  0  0  2  0  0  0  0  0  0
  -24.6800  -31.1330   22.1450 N   0  0  0  0  0  0  0  0  0  0  0  0
  -23.5050  -32.1820   23.7810 O   0  0  0  0  0  0  0  0  0  0  0  0
  -22.7670  -29.4970   22.5190 C   0  0  0  0  0  0  0  0  0  0  0  0
  -21.4410  -29.3180   22.3850 N   0  0  0  0  0  0  0  0  0  0  0  0
  -23.4460  -28.8570   23.3260 O   0  0  0  0  0  0  0  0  0  0  0  0
  -20.9530  -29.8880   21.7090 H   0  0  0  0  0  0  0  0  0  0  0  0
  -18.0590  -28.1350   22.8800 C   0  0  0  0  0  0  0  0  0  0  0  0
  -20.6220  -28.3650   23.1360 C   0  0  0  0  0  3  0  0  0  0  0  0
  -20.7070  -26.9510   22.5180 C   0  0  0  0  0  2  0  0  0  0  0  0
  -19.5940  -26.6660   21.5050 C   0  0  0  0  0  2  0  0  0  0  0  0
  -18.2190  -26.8050   22.1640 C   0  0  0  0  0  2  0  0  0  0  0  0
  -19.1880  -28.8750   23.3220 C   0  0  0  0  0  0  0  0  0  0  0  0
  -18.9850  -30.1220   23.9510 C   0  0  0  0  0  3  0  0  0  0  0  0
  -17.6860  -30.6300   24.1430 C   0  0  0  0  0  3  0  0  0  0  0  0
  -16.5720  -29.8850   23.7170 C   0  0  0  0  0  3  0  0  0  0  0  0
  -16.7590  -28.6400   23.0910 C   0  0  0  0  0  3  0  0  0  0  0  0
  -25.8670  -32.5610   23.8980 C   0  0  0  0  0  3  0  0  0  0  0  0
  -26.3500  -31.8050   25.1970 C   0  0  1  0  0  0  0  0  0  0  0  0
  -25.2290  -31.5790   26.2380 C   0  0  0  0  0  1  0  0  0  0  0  0
  -26.9430  -30.4230   24.8360 C   0  0  0  0  0  1  0  0  0  0  0  0
  -27.4820  -32.6080   25.8790 C   0  0  0  0  0  1  0  0  0  0  0  0
  -25.5540  -33.9640   24.2030 N   0  0  0  0  0  0  0  0  0  0  0  0
  -25.9040  -35.0070   23.4370 C   0  0  0  0  0  0  0  0  0  0  0  0
  -26.5940  -34.8870   22.4210 O   0  0  0  0  0  0  0  0  0  0  0  0
  -24.9440  -34.1300   24.9910 H   0  0  0  0  0  0  0  0  0  0  0  0
  -24.1990  -36.8050   23.0090 C   0  0  0  0  0  1  0  0  0  0  0  0
  -25.4100  -36.4020   23.8650 C   0  0  0  0  0  3  0  0  0  0  0  0
  -27.5140  -37.2880   24.7680 C   0  0  0  0  0  1  0  0  0  0  0  0
  -26.4520  -37.4470   23.7780 N   0  0  0  0  0  0  0  0  0  0  0  0
  -26.0450  -38.3710   23.8960 H   0  0  0  0  0  0  0  0  0  0  0  0
  -30.7800  -17.2770   20.1340 C   0  0  0  0  0  2  0  0  0  0  0  0
  -30.8070  -14.7740   20.1510 C   0  0  0  0  0  0  0  0  0  0  0  0
  -30.4720  -12.5670   19.0790 C   0  0  0  0  0  2  0  0  0  0  0  0
  -29.4950  -12.7230   17.8960 C   0  0  0  0  0  2  0  0  0  0  0  0
  -28.0420  -12.5600   18.3800 C   0  0  0  0  0  2  0  0  0  0  0  0
  -27.7310  -13.4080   19.6430 C   0  0  0  0  0  3  0  0  0  0  0  0
  -28.8330  -13.2770   20.7180 C   0  0  0  0  0  2  0  0  0  0  0  0
  -30.1130  -13.5960   20.0780 N   0  0  0  0  0  0  0  0  0  0  0  0
  -31.9780  -14.8310   19.7680 O   0  0  0  0  0  0  0  0  0  0  0  0
  -30.1370  -15.9430   20.4110 N   0  0  0  0  0  0  0  0  0  0  0  0
  -29.1620  -15.9070   20.6640 H   0  0  0  0  0  0  0  0  0  0  0  0
  -25.3690  -13.9770   20.4730 C   0  0  0  0  0  0  0  0  0  0  0  0
  -24.3210  -13.1910   20.8670 C   0  0  0  0  0  0  0  0  0  0  0  0
  -24.7860  -11.8430   20.7900 C   0  0  0  0  0  0  0  0  0  0  0  0
  -26.4070  -13.1070   20.1790 N   0  0  0  0  0  0  0  0  0  0  0  0
  -26.0640  -11.8170   20.4320 N   0  0  0  0  0  0  0  0  0  0  0  0
  -24.0710  -10.5740   20.9800 C   0  0  0  0  0  0  0  0  0  0  0  0
  -24.5080   -9.6110   21.9160 C   0  0  0  0  0  3  0  0  0  0  0  0
  -23.7930   -8.4080   22.0940 C   0  0  0  0  0  3  0  0  0  0  0  0
  -22.6240   -8.1580   21.3350 C   0  0  0  0  0  0  0  0  0  0  0  0
  -22.2060   -9.1090   20.3880 C   0  0  0  0  0  3  0  0  0  0  0  0
  -22.9230  -10.3040   20.2080 C   0  0  0  0  0  3  0  0  0  0  0  0
  -21.8790   -7.0070   21.4230 O   0  0  0  0  0  0  0  0  0  0  0  0
  -21.7950   -6.2910   22.5900 C   0  0  0  0  0  0  0  0  0  0  0  0
  -21.2690   -6.8540   23.7730 C   0  0  0  0  0  3  0  0  0  0  0  0
  -21.1370   -6.0620   24.9320 C   0  0  0  0  0  3  0  0  0  0  0  0
  -21.5180   -4.7070   24.9050 C   0  0  0  0  0  0  0  0  0  0  0  0
  -22.0370   -4.1440   23.7260 C   0  0  0  0  0  3  0  0  0  0  0  0
  -22.1720   -4.9330   22.5710 C   0  0  0  0  0  0  0  0  0  0  0  0
  -22.6520   -4.3790   21.4320 F   0  0  0  0  0  0  0  0  0  0  0  0
  -21.3840   -3.9440   26.0160 F   0  0  0  0  0  0  0  0  0  0  0  0
  -22.9330  -13.6580   21.1990 C   0  0  0  0  0  0  0  0  0  0  0  0
  -22.2360  -12.9350   22.0680 N   0  0  0  0  0  0  0  0  0  0  0  0
  -22.4780  -14.6970   20.7250 O   0  0  0  0  0  0  0  0  0  0  0  0
  -22.6180  -12.0920   22.4720 H   0  0  0  0  0  0  0  0  0  0  0  0
  -21.3070  -13.2280   22.3340 H   0  0  0  0  0  0  0  0  0  0  0  0
  -25.5210  -15.3520   20.3160 N   0  0  0  0  0  0  0  0  0  0  0  0
  -24.7540  -15.9980   20.4620 H   0  0  0  0  0  0  0  0  0  0  0  0
  -26.3490  -15.7990   19.9410 H   0  0  0  0  0  0  0  0  0  0  0  0
  1  2  1  0
  3  5  1  0
  4  1  2  0
  5  9  1  0
  5  2  2  0
  6  3  2  0
  6  4  1  0
  7  6  1  0
  8  9  1  0
  8 12  1  0
  9 11  1  0
 10  8  2  0
 13 12  1  0
 14 25  2  0
 15 13  1  0
 15 20  1  0
 16 24  1  0
 16 26  1  0
 17 23  1  0
 17 19  1  0
 18 24  1  0
 19 20  2  0
 19 18  1  0
 21 15  2  0
 22 21  1  0
 22 17  2  0
 23 16  1  0
 24 14  1  0
 26 28  2  0
 27 26  1  0
 29 27  1  0
 30 39  2  0
 30 35  1  0
 31 27  1  0
 31 35  1  0
 32 31  1  0
 33 34  1  0
 33 32  1  0
 34 30  1  0
 35 36  2  0
 36 37  1  0
 38 37  2  0
 39 38  1  0
 40 14  1  0
 40 45  1  0
 40 41  1  0
 41 44  1  1
 41 42  1  0
 43 41  1  0
 45 48  1  0
 46 50  1  0
 46 45  1  0
 47 46  2  0
 50 49  1  0
 52 50  1  0
 52 53  1  0
 52 51  1  0
 54  4  1  0
 54 63  1  0
 55 63  1  0
 56 61  1  0
 57 58  1  0
 57 56  1  0
 59 58  1  0
 59 68  1  0
 59 60  1  0
 61 55  1  0
 61 60  1  0
 62 55  2  0
 63 64  1  0
 65 66  2  0
 66 85  1  0
 67 66  1  0
 67 70  1  0
 68 69  1  0
 68 65  1  0
 69 67  2  0
 70 71  1  0
 71 72  2  0
 73 76  1  0
 73 72  1  0
 74 73  2  0
 75 74  1  0
 75 70  2  0
 76 77  1  0
 77 78  1  0
 78 79  2  0
 80 79  1  0
 80 84  1  0
 81 80  2  0
 82 77  2  0
 82 81  1  0
 83 82  1  0
 85 86  1  0
 86 89  1  0
 86 88  1  0
 87 85  2  0
 90 91  1  0
 90 65  1  0
 92 90  1  0
M  ISO  4  12 101  13 101  55 100  63 100
M  END
>  <TORSDO>  (89) 
F 19

>  <SCORE>  (89) 
-13.820

>  <name>  (89) 
88

>  <ligand_id>  (89) 
88

>  <original_smiles>  (89) 
[H]c1c([H])c([H])c2c(c1[H])C([H])([H])C([H])([H])C([H])([H])C2([H])N([H])C(=O)C1([H])N(C(=O)C([H])(N([H])C(=O)C([H])(N([H])C([H])([H])[H])C([H])([H])[H])C(C([H])([H])[H])(C([H])([H])[H])C([H])([H])[H])C([H])([H])c2c([H])c(OC([H])([H])C(=O)N([H])c3c([H])c([H])c(C([H])([H])N([H])C(=O)N4C([H])([H])C([H])([H])C([H])([H])C([H])(n5nc(-c6c([H])c([H])c(Oc7c([H])c([H])c(F)c([H])c7F)c([H])c6[H])c(C(=O)N([H])[H])c5N([H])[H])C4([H])[H])c(F)c3[H])c([H])c([H])c2C1([H])[H]

>  <smiles>  (89) 
[H]c1c([H])c([H])c2c(c1[H])C([H])([H])C([H])([H])C([H])([H])C2([H])N([H])C(=O)C1([H])N(C(=O)C([H])(N([H])C(=O)C([H])(N([H])C([H])([H])[H])C([H])([H])[H])C(C([H])([H])[H])(C([H])([H])[H])C([H])([H])[H])C([H])([H])c2c([H])c(OC([H])([H])C(=O)N([H])c3c([H])c([H])c(C([H])([H])N([H])C(=O)N4C([H])([H])C([H])([H])C([H])([H])C([H])(n5nc(-c6c([H])c([H])c(Oc7c([H])c([H])c(F)c([H])c7F)c([H])c6[H])c(C(=O)N([H])[H])c5N([H])[H])C4([H])[H])c(F)c3[H])c([H])c([H])c2C1([H])[H]

$$$$
89:0:0
     RDKit          3D

 96104  0  0  1  0  0  0  0  0999 V2000
  -27.7600  -18.1960   19.8420 C   0  0  0  0  0  3  0  0  0  0  0  0
  -29.6930  -17.0510   18.9140 C   0  0  0  0  0  3  0  0  0  0  0  0
  -28.0450  -15.7870   20.1790 C   0  0  0  0  0  3  0  0  0  0  0  0
  -28.9680  -18.3140   19.0970 C   0  0  0  0  0  0  0  0  0  0  0  0
  -27.2790  -16.9610   20.3450 C   0  0  0  0  0  0  0  0  0  0  0  0
  -29.2460  -15.7650   19.4590 C   0  0  0  0  0  0  0  0  0  0  0  0
  -30.5080  -13.4700   19.8170 C   0  0  0  0  0  0  0  0  0  0  0  0
  -30.5770  -10.9990   19.4220 C   0  0  0  0  0  2  0  0  0  0  0  0
  -29.7080  -10.6490   18.1960 C   0  0  0  0  0  2  0  0  0  0  0  0
  -28.2320  -10.4550   18.5970 C   0  0  0  0  0  2  0  0  0  0  0  0
  -27.6990  -11.5890   19.5150 C   0  0  0  0  0  3  0  0  0  0  0  0
  -28.6950  -11.8920   20.6530 C   0  0  0  0  0  2  0  0  0  0  0  0
  -29.9810  -12.2140   20.0150 N   0  0  0  0  0  0  0  0  0  0  0  0
  -31.7320  -13.6280   19.7940 O   0  0  0  0  0  0  0  0  0  0  0  0
  -29.7130  -14.3900   19.1370 N   0  0  0  0  0  0  0  0  0  0  0  0
  -29.0190  -13.8900   18.6020 H   0  0  0  0  0  0  0  0  0  0  0  0
  -25.2210  -12.1150   19.9250 C   0  0  0  0  0  0  0  0  0  0  0  0
  -24.1940  -11.3610   20.4280 C   0  0  0  0  0  0  0  0  0  0  0  0
  -24.7710  -10.1090   20.8060 C   0  0  0  0  0  0  0  0  0  0  0  0
  -26.3520  -11.3140   20.0040 N   0  0  0  0  0  0  0  0  0  0  0  0
  -26.0830  -10.1240   20.6000 N   0  0  0  0  0  0  0  0  0  0  0  0
  -24.1390   -8.8760   21.2970 C   0  0  0  0  0  0  0  0  0  0  0  0
  -24.2120   -8.4980   22.6550 C   0  0  0  0  0  3  0  0  0  0  0  0
  -23.5790   -7.3190   23.1060 C   0  0  0  0  0  3  0  0  0  0  0  0
  -22.8630   -6.5050   22.1960 C   0  0  0  0  0  0  0  0  0  0  0  0
  -22.8150   -6.8720   20.8390 C   0  0  0  0  0  3  0  0  0  0  0  0
  -23.4480   -8.0430   20.3920 C   0  0  0  0  0  3  0  0  0  0  0  0
  -22.2410   -5.3280   22.5380 O   0  0  0  0  0  0  0  0  0  0  0  0
  -21.2070   -5.2980   23.4390 C   0  0  0  0  0  0  0  0  0  0  0  0
  -20.0580   -6.1040   23.2830 C   0  0  0  0  0  3  0  0  0  0  0  0
  -18.9890   -5.9900   24.1920 C   0  0  0  0  0  3  0  0  0  0  0  0
  -19.0610   -5.0670   25.2530 C   0  0  0  0  0  0  0  0  0  0  0  0
  -20.2010   -4.2580   25.4070 C   0  0  0  0  0  3  0  0  0  0  0  0
  -21.2700   -4.3730   24.5000 C   0  0  0  0  0  0  0  0  0  0  0  0
  -22.3570   -3.5770   24.6400 F   0  0  0  0  0  0  0  0  0  0  0  0
  -18.0320   -4.9510   26.1250 F   0  0  0  0  0  0  0  0  0  0  0  0
  -22.7420  -11.7410   20.4720 C   0  0  0  0  0  0  0  0  0  0  0  0
  -22.0050  -11.2420   21.4570 N   0  0  0  0  0  0  0  0  0  0  0  0
  -22.2640  -12.5260   19.6550 O   0  0  0  0  0  0  0  0  0  0  0  0
  -22.4040  -10.6100   22.1350 H   0  0  0  0  0  0  0  0  0  0  0  0
  -21.0290  -11.4890   21.5330 H   0  0  0  0  0  0  0  0  0  0  0  0
  -25.2840  -13.3940   19.3830 N   0  0  0  0  0  0  0  0  0  0  0  0
  -24.4650  -13.9810   19.2710 H   0  0  0  0  0  0  0  0  0  0  0  0
  -26.1290  -13.8320   19.0440 H   0  0  0  0  0  0  0  0  0  0  0  0
  -24.7790  -16.6490   20.3710 C   0  0  0  0  0  0  0  0  0  0  0  0
  -23.5400  -17.0570   21.1550 C   0  0  0  0  0  1  0  0  0  0  0  0
  -25.9750  -16.9310   20.9310 N   0  0  0  0  0  0  0  0  0  0  0  0
  -24.6140  -16.0600   19.3020 O   0  0  0  0  0  0  0  0  0  0  0  0
  -25.9170  -17.2970   21.8710 H   0  0  0  0  0  0  0  0  0  0  0  0
  -28.6850  -20.7980   18.1540 C   0  0  0  0  0  0  0  0  0  0  0  0
  -29.4050  -19.6670   18.5830 N   0  0  0  0  0  0  0  0  0  0  0  0
  -27.4620  -20.7350   18.0140 O   0  0  0  0  0  0  0  0  0  0  0  0
  -30.4070  -19.8000   18.5540 H   0  0  0  0  0  0  0  0  0  0  0  0
  -29.4360  -22.0800   17.8390 C   0  0  0  0  0  3  0  0  0  0  0  0
  -28.8650  -23.3500   17.5710 C   0  0  0  0  0  3  0  0  0  0  0  0
  -29.0880  -24.7640   17.4060 O   0  0  0  0  0  0  0  0  0  0  0  0
  -27.1750  -29.0190   23.0440 C   0  0  0  0  0  0  0  0  0  0  0  0
  -28.2600  -25.7690   17.9720 C   0  0  0  0  0  0  0  0  0  0  0  0
  -25.5600  -28.8030   21.1920 C   0  0  0  0  0  3  0  0  0  0  0  0
  -26.4580  -27.7490   19.0320 C   0  0  0  0  0  0  0  0  0  0  0  0
  -28.0780  -28.5640   20.7430 C   0  0  0  0  0  2  0  0  0  0  0  0
  -27.7420  -27.6300   19.5770 C   0  0  0  0  0  0  0  0  0  0  0  0
  -28.6490  -26.6570   19.0390 C   0  0  0  0  0  3  0  0  0  0  0  0
  -26.9690  -25.9610   17.4420 C   0  0  0  0  0  3  0  0  0  0  0  0
  -26.0770  -26.9240   17.9580 C   0  0  0  0  0  3  0  0  0  0  0  0
  -25.5200  -28.7770   19.6400 C   0  0  0  0  0  2  0  0  0  0  0  0
  -26.9650  -28.7840   21.7150 N   0  0  0  0  0  0  0  0  0  0  0  0
  -26.2360  -29.2740   23.8130 O   0  0  0  0  0  0  0  0  0  0  0  0
  -24.6880  -27.6490   21.7430 C   0  0  0  0  0  0  0  0  0  0  0  0
  -23.3900  -27.6510   21.3970 N   0  0  0  0  0  0  0  0  0  0  0  0
  -25.1870  -26.7640   22.4420 O   0  0  0  0  0  0  0  0  0  0  0  0
  -23.0550  -28.4130   20.8240 H   0  0  0  0  0  0  0  0  0  0  0  0
  -19.9000  -26.7370   21.1170 C   0  0  0  0  0  0  0  0  0  0  0  0
  -22.4020  -26.6340   21.7610 C   0  0  0  0  0  3  0  0  0  0  0  0
  -22.4880  -25.4140   20.8170 C   0  0  0  0  0  2  0  0  0  0  0  0
  -21.5290  -25.5060   19.6250 C   0  0  0  0  0  2  0  0  0  0  0  0
  -20.0810  -25.6140   20.1110 C   0  0  0  0  0  2  0  0  0  0  0  0
  -20.9930  -27.2270   21.8800 C   0  0  0  0  0  0  0  0  0  0  0  0
  -20.7770  -28.3010   22.7720 C   0  0  0  0  0  3  0  0  0  0  0  0
  -19.5020  -28.8780   22.9110 C   0  0  0  0  0  3  0  0  0  0  0  0
  -18.4200  -28.3790   22.1630 C   0  0  0  0  0  3  0  0  0  0  0  0
  -18.6190  -27.3100   21.2700 C   0  0  0  0  0  3  0  0  0  0  0  0
  -28.6090  -29.0030   23.6590 C   0  0  0  0  0  3  0  0  0  0  0  0
  -28.6640  -30.0480   24.6920 N   0  0  0  0  0  0  0  0  0  0  0  0
  -29.1370  -31.2870   24.5000 C   0  0  0  0  0  0  0  0  0  0  0  0
  -29.6450  -31.6510   23.4360 O   0  0  0  0  0  0  0  0  0  0  0  0
  -28.2120  -29.8370   25.5690 H   0  0  0  0  0  0  0  0  0  0  0  0
  -27.8230  -33.1970   25.4740 C   0  0  0  0  0  1  0  0  0  0  0  0
  -29.0370  -32.2770   25.6760 C   0  0  0  0  0  3  0  0  0  0  0  0
  -31.3960  -32.3320   26.3550 C   0  0  0  0  0  1  0  0  0  0  0  0
  -30.2550  -33.0970   25.8610 N   0  0  0  0  0  0  0  0  0  0  0  0
  -30.0790  -33.8590   26.5110 H   0  0  0  0  0  0  0  0  0  0  0  0
  -29.0090  -27.6020   24.2670 C   0  0  1  0  0  0  0  0  0  0  0  0
  -27.9180  -26.9850   25.1730 C   0  0  0  0  0  1  0  0  0  0  0  0
  -29.3180  -26.5850   23.1440 C   0  0  0  0  0  1  0  0  0  0  0  0
  -30.3030  -27.7450   25.1000 C   0  0  0  0  0  1  0  0  0  0  0  0
  1  5  1  0
  2  4  1  0
  2  6  2  0
  3  5  2  0
  4  1  2  0
  5 47  1  0
  6  3  1  0
  7 13  1  0
  8 13  1  0
  9 10  1  0
  9  8  1  0
 11 10  1  0
 11 20  1  0
 11 12  1  0
 13 12  1  0
 14  7  2  0
 15  6  1  0
 15  7  1  0
 16 15  1  0
 17 20  1  0
 17 18  2  0
 18 37  1  0
 18 19  1  0
 19 22  1  0
 20 21  1  0
 21 19  2  0
 22 23  1  0
 23 24  2  0
 25 28  1  0
 25 24  1  0
 26 25  2  0
 27 26  1  0
 27 22  2  0
 28 29  1  0
 29 34  1  0
 30 29  2  0
 30 31  1  0
 31 32  2  0
 32 33  1  0
 32 36  1  0
 34 35  1  0
 34 33  2  0
 37 38  1  0
 38 41  1  0
 38 40  1  0
 39 37  2  0
 42 17  1  0
 43 42  1  0
 44 42  1  0
 45 47  1  0
 45 46  1  0
 47 49  1  0
 48 45  2  0
 50 51  1  0
 51  4  1  0
 52 50  2  0
 53 51  1  0
 54 50  1  0
 55 54  2  0
 56 55  1  0
 56 58  1  0
 57 68  2  0
 58 63  1  0
 59 67  1  0
 59 69  1  0
 60 62  1  0
 60 66  1  0
 61 67  1  0
 62 61  1  0
 63 62  2  0
 64 65  1  0
 64 58  2  0
 65 60  2  0
 66 59  1  0
 67 57  1  0
 69 71  2  0
 70 69  1  0
 72 70  1  0
 73 82  2  0
 73 78  1  0
 74 70  1  0
 74 78  1  0
 75 74  1  0
 76 77  1  0
 76 75  1  0
 77 73  1  0
 78 79  2  0
 79 80  1  0
 81 80  2  0
 82 81  1  0
 83 57  1  0
 83 93  1  0
 83 84  1  0
 84 87  1  0
 85 84  1  0
 85 89  1  0
 86 85  2  0
 89 88  1  0
 89 91  1  0
 91 90  1  0
 91 92  1  0
 93 96  1  1
 93 94  1  0
 95 93  1  0
M  ISO  4   7 100  15 100  55 101  56 101
M  END
>  <TORSDO>  (90) 
F 19

>  <SCORE>  (90) 
-0.354

>  <name>  (90) 
89

>  <ligand_id>  (90) 
89

>  <original_smiles>  (90) 
[H]C(Oc1c([H])c([H])c2c(c1[H])C([H])([H])N(C(=O)C([H])(N([H])C(=O)C([H])(N([H])C([H])([H])[H])C([H])([H])[H])C(C([H])([H])[H])(C([H])([H])[H])C([H])([H])[H])C([H])(C(=O)N([H])C1([H])c3c([H])c([H])c([H])c([H])c3C([H])([H])C([H])([H])C1([H])[H])C2([H])[H])=C([H])C(=O)N([H])c1c([H])c(N([H])C(=O)N2C([H])([H])C([H])([H])C([H])([H])C([H])(n3nc(-c4c([H])c([H])c(Oc5c([H])c([H])c(F)c([H])c5F)c([H])c4[H])c(C(=O)N([H])[H])c3N([H])[H])C2([H])[H])c([H])c(N([H])C(=O)C([H])([H])[H])c1[H]

>  <smiles>  (90) 
[H]C(Oc1c([H])c([H])c2c(c1[H])C([H])([H])N(C(=O)C([H])(N([H])C(=O)C([H])(N([H])C([H])([H])[H])C([H])([H])[H])C(C([H])([H])[H])(C([H])([H])[H])C([H])([H])[H])C([H])(C(=O)N([H])C1([H])c3c([H])c([H])c([H])c([H])c3C([H])([H])C([H])([H])C1([H])[H])C2([H])[H])=C([H])C(=O)N([H])c1c([H])c(N([H])C(=O)N2C([H])([H])C([H])([H])C([H])([H])C([H])(n3nc(-c4c([H])c([H])c(Oc5c([H])c([H])c(F)c([H])c5F)c([H])c4[H])c(C(=O)N([H])[H])c3N([H])[H])C2([H])[H])c([H])c(N([H])C(=O)C([H])([H])[H])c1[H]

$$$$
90:0:0
     RDKit          3D

 95104  0  0  1  0  0  0  0  0999 V2000
  -30.6520  -24.5470   19.2980 C   0  0  0  0  0  0  0  0  0  0  0  0
  -30.8280  -22.5870   17.9340 C   0  0  0  0  0  2  0  0  0  0  0  0
  -30.2510  -23.7830   17.1500 C   0  0  0  0  0  2  0  0  0  0  0  0
  -30.6280  -22.9950   19.3920 C   0  0  0  0  0  3  0  0  0  0  0  0
  -30.3720  -24.9510   18.0280 N   0  0  0  0  0  0  0  0  0  0  0  0
  -30.8180  -25.2830   20.2760 O   0  0  0  0  0  0  0  0  0  0  0  0
  -31.4410  -28.4300   17.1470 C   0  0  0  0  0  3  0  0  0  0  0  0
  -31.3110  -27.1910   17.8000 C   0  0  0  0  0  3  0  0  0  0  0  0
  -29.3640  -26.6740   16.4490 C   0  0  0  0  0  3  0  0  0  0  0  0
  -29.4590  -27.9360   15.7770 C   0  0  0  0  0  0  0  0  0  0  0  0
  -30.5200  -28.8100   16.1480 C   0  0  0  0  0  0  0  0  0  0  0  0
  -30.2980  -26.2750   17.4530 C   0  0  0  0  0  0  0  0  0  0  0  0
  -30.6870  -30.1900   15.5230 C   0  0  0  0  0  1  0  0  0  0  0  0
  -27.6420  -28.2470   12.4700 C   0  0  0  0  0  0  0  0  0  0  0  0
  -26.3010  -27.3310   10.6110 C   0  0  0  0  0  2  0  0  0  0  0  0
  -25.4190  -26.1900   11.1710 C   0  0  0  0  0  2  0  0  0  0  0  0
  -26.1880  -24.8460   11.1410 C   0  0  0  0  0  2  0  0  0  0  0  0
  -27.6280  -24.9540   11.7140 C   0  0  0  0  0  3  0  0  0  0  0  0
  -28.3540  -26.1880   11.1410 C   0  0  0  0  0  2  0  0  0  0  0  0
  -27.5260  -27.3690   11.4300 N   0  0  0  0  0  0  0  0  0  0  0  0
  -27.0280  -29.3140   12.4600 O   0  0  0  0  0  0  0  0  0  0  0  0
  -28.3480  -28.3600   14.8100 C   0  0  0  0  0  0  0  0  0  0  0  0
  -28.3100  -27.8000   13.5620 N   0  0  0  0  0  0  0  0  0  0  0  0
  -27.5390  -29.1940   15.2160 O   0  0  0  0  0  0  0  0  0  0  0  0
  -28.8780  -26.9870   13.4160 H   0  0  0  0  0  0  0  0  0  0  0  0
  -29.4380  -23.2150   12.2430 C   0  0  0  0  0  0  0  0  0  0  0  0
  -29.7300  -22.0000   11.6890 C   0  0  0  0  0  0  0  0  0  0  0  0
  -28.8090  -21.8240   10.6100 C   0  0  0  0  0  0  0  0  0  0  0  0
  -28.3830  -23.7240   11.5070 N   0  0  0  0  0  0  0  0  0  0  0  0
  -28.0430  -22.9010   10.4820 N   0  0  0  0  0  0  0  0  0  0  0  0
  -28.5750  -20.6740    9.7290 C   0  0  0  0  0  0  0  0  0  0  0  0
  -29.2770  -20.5220    8.5140 C   0  0  0  0  0  3  0  0  0  0  0  0
  -29.0500  -19.3990    7.6900 C   0  0  0  0  0  3  0  0  0  0  0  0
  -28.1140  -18.4090    8.0790 C   0  0  0  0  0  0  0  0  0  0  0  0
  -27.4030  -18.5750    9.2810 C   0  0  0  0  0  3  0  0  0  0  0  0
  -27.6280  -19.6960   10.0970 C   0  0  0  0  0  3  0  0  0  0  0  0
  -27.8080  -17.3010    7.3250 O   0  0  0  0  0  0  0  0  0  0  0  0
  -28.7440  -16.3330    7.0610 C   0  0  0  0  0  0  0  0  0  0  0  0
  -29.7710  -16.0160    7.9770 C   0  0  0  0  0  3  0  0  0  0  0  0
  -30.6660  -14.9660    7.6950 C   0  0  0  0  0  3  0  0  0  0  0  0
  -30.5300  -14.2250    6.5050 C   0  0  0  0  0  0  0  0  0  0  0  0
  -29.5020  -14.5340    5.5960 C   0  0  0  0  0  3  0  0  0  0  0  0
  -28.6090  -15.5830    5.8760 C   0  0  0  0  0  0  0  0  0  0  0  0
  -27.6090  -15.8640    5.0050 F   0  0  0  0  0  0  0  0  0  0  0  0
  -31.3830  -13.2090    6.2390 F   0  0  0  0  0  0  0  0  0  0  0  0
  -30.7420  -21.0080   12.1890 C   0  0  0  0  0  0  0  0  0  0  0  0
  -31.6260  -20.5370   11.3170 N   0  0  0  0  0  0  0  0  0  0  0  0
  -30.7900  -20.6910   13.3770 O   0  0  0  0  0  0  0  0  0  0  0  0
  -31.6040  -20.8110   10.3460 H   0  0  0  0  0  0  0  0  0  0  0  0
  -32.3370  -19.8890   11.6230 H   0  0  0  0  0  0  0  0  0  0  0  0
  -29.9580  -23.9240   13.3230 N   0  0  0  0  0  0  0  0  0  0  0  0
  -30.7100  -23.5710   13.9030 H   0  0  0  0  0  0  0  0  0  0  0  0
  -29.5820  -24.8070   13.6400 H   0  0  0  0  0  0  0  0  0  0  0  0
  -31.2080  -22.1450   20.6220 C   0  0  0  0  0  2  0  0  0  0  0  0
  -32.5990  -21.9840   21.0480 O   0  0  0  0  0  0  0  0  0  0  0  0
  -39.1410  -19.1460   21.4400 C   0  0  0  0  0  0  0  0  0  0  0  0
  -33.4760  -21.0560   20.4850 C   0  0  0  0  0  0  0  0  0  0  0  0
  -37.9500  -18.8420   19.2870 C   0  0  0  0  0  3  0  0  0  0  0  0
  -35.4500  -19.3750   19.3120 C   0  0  0  0  0  0  0  0  0  0  0  0
  -36.6430  -19.0370   21.4840 C   0  0  0  0  0  2  0  0  0  0  0  0
  -35.5000  -19.6440   20.6860 C   0  0  0  0  0  0  0  0  0  0  0  0
  -34.5150  -20.4820   21.2720 C   0  0  0  0  0  3  0  0  0  0  0  0
  -33.4350  -20.7300   19.1160 C   0  0  0  0  0  3  0  0  0  0  0  0
  -34.4220  -19.9150   18.5220 C   0  0  0  0  0  3  0  0  0  0  0  0
  -36.5400  -18.5030   18.7350 C   0  0  0  0  0  2  0  0  0  0  0  0
  -37.9500  -19.0330   20.7760 N   0  0  0  0  0  0  0  0  0  0  0  0
  -40.2240  -19.0590   20.8410 O   0  0  0  0  0  0  0  0  0  0  0  0
  -38.5130  -20.0620   18.5190 C   0  0  0  0  0  0  0  0  0  0  0  0
  -39.5470  -19.8370   17.6890 N   0  0  0  0  0  0  0  0  0  0  0  0
  -38.0020  -21.1760   18.6500 O   0  0  0  0  0  0  0  0  0  0  0  0
  -39.9170  -18.8980   17.6370 H   0  0  0  0  0  0  0  0  0  0  0  0
  -42.6370  -20.6490   16.0060 C   0  0  0  0  0  0  0  0  0  0  0  0
  -40.1920  -20.8260   16.8260 C   0  0  0  0  0  3  0  0  0  0  0  0
  -39.7880  -20.6160   15.3510 C   0  0  0  0  0  2  0  0  0  0  0  0
  -40.7730  -19.7320   14.5690 C   0  0  0  0  0  2  0  0  0  0  0  0
  -42.1770  -20.3430   14.5860 C   0  0  0  0  0  2  0  0  0  0  0  0
  -41.7060  -20.8670   17.0580 C   0  0  0  0  0  0  0  0  0  0  0  0
  -42.1940  -21.1380   18.3560 C   0  0  0  0  0  3  0  0  0  0  0  0
  -43.5740  -21.1850   18.6120 C   0  0  0  0  0  3  0  0  0  0  0  0
  -44.4960  -20.9750   17.5690 C   0  0  0  0  0  3  0  0  0  0  0  0
  -44.0230  -20.7180   16.2670 C   0  0  0  0  0  3  0  0  0  0  0  0
  -39.1950  -19.3700   22.9850 C   0  0  0  0  0  3  0  0  0  0  0  0
  -40.3940  -18.6880   23.4870 N   0  0  0  0  0  0  0  0  0  0  0  0
  -40.4610  -17.3860   23.7920 C   0  0  0  0  0  0  0  0  0  0  0  0
  -39.4820  -16.6350   23.7430 O   0  0  0  0  0  0  0  0  0  0  0  0
  -41.2460  -19.2320   23.5010 H   0  0  0  0  0  0  0  0  0  0  0  0
  -42.2750  -15.7330   23.2360 C   0  0  0  0  0  1  0  0  0  0  0  0
  -41.8300  -16.8260   24.2190 C   0  0  0  0  0  3  0  0  0  0  0  0
  -42.1940  -17.2790   26.6060 C   0  0  0  0  0  1  0  0  0  0  0  0
  -41.8410  -16.2850   25.5960 N   0  0  0  0  0  0  0  0  0  0  0  0
  -42.4980  -15.5120   25.6690 H   0  0  0  0  0  0  0  0  0  0  0  0
  -39.2100  -20.8950   23.3910 C   0  0  1  0  0  0  0  0  0  0  0  0
  -40.3810  -21.2740   24.3290 C   0  0  0  0  0  1  0  0  0  0  0  0
  -39.2910  -21.8020   22.1390 C   0  0  0  0  0  1  0  0  0  0  0  0
  -37.8920  -21.2530   24.1140 C   0  0  0  0  0  1  0  0  0  0  0  0
  1  4  1  0
  1  6  2  0
  2  4  1  0
  3  2  1  0
  3  5  1  0
  4 54  1  0
  5  1  1  0
  7  8  1  0
  9 12  1  0
 10 11  1  0
 10  9  2  0
 11  7  2  0
 12  8  2  0
 12  5  1  0
 13 11  1  0
 14 23  1  0
 15 16  1  0
 15 20  1  0
 17 16  1  0
 17 18  1  0
 18 19  1  0
 19 20  1  0
 20 14  1  0
 21 14  2  0
 22 24  2  0
 22 10  1  0
 23 22  1  0
 25 23  1  0
 26 51  1  0
 27 46  1  0
 27 26  2  0
 28 27  1  0
 29 18  1  0
 29 26  1  0
 30 28  2  0
 30 29  1  0
 31 36  1  0
 31 28  1  0
 32 31  2  0
 33 34  2  0
 33 32  1  0
 34 35  1  0
 35 36  2  0
 37 34  1  0
 38 37  1  0
 38 39  1  0
 40 39  2  0
 41 40  1  0
 42 43  1  0
 42 41  2  0
 43 38  2  0
 44 43  1  0
 45 41  1  0
 46 48  2  0
 47 50  1  0
 47 46  1  0
 49 47  1  0
 51 53  1  0
 51 52  1  0
 54 55  1  0
 57 55  1  0
 57 62  1  0
 58 68  1  0
 58 66  1  0
 59 61  1  0
 61 62  2  0
 61 60  1  0
 63 57  2  0
 64 63  1  0
 64 59  2  0
 65 58  1  0
 65 59  1  0
 66 56  1  0
 66 60  1  0
 67 56  2  0
 68 70  2  0
 69 68  1  0
 71 69  1  0
 72 81  2  0
 72 77  1  0
 73 77  1  0
 73 69  1  0
 74 73  1  0
 75 76  1  0
 75 74  1  0
 76 72  1  0
 77 78  2  0
 78 79  1  0
 80 79  2  0
 81 80  1  0
 82 56  1  0
 82 92  1  0
 82 83  1  0
 83 86  1  0
 83 84  1  0
 84 88  1  0
 85 84  2  0
 88 87  1  0
 88 90  1  0
 90 91  1  0
 90 89  1  0
 92 95  1  1
 92 93  1  0
 94 92  1  0
M  ISO  4  14 100  23 100  54 101  55 101
M  END
>  <TORSDO>  (91) 
F 18

>  <SCORE>  (91) 
-4.748

>  <name>  (91) 
90

>  <ligand_id>  (91) 
90

>  <original_smiles>  (91) 
[H]c1c([H])c([H])c2c(c1[H])C([H])([H])C([H])([H])C([H])([H])C2([H])N([H])C(=O)C1([H])N(C(=O)C([H])(N([H])C(=O)C([H])(N([H])C([H])([H])[H])C([H])([H])[H])C(C([H])([H])[H])(C([H])([H])[H])C([H])([H])[H])C([H])([H])c2c([H])c(OC([H])([H])C3([H])C(=O)N(c4c([H])c([H])c(C([H])([H])[H])c(C(=O)N([H])C(=O)N5C([H])([H])C([H])([H])C([H])([H])C([H])(n6nc(-c7c([H])c([H])c(Oc8c([H])c([H])c(F)c([H])c8F)c([H])c7[H])c(C(=O)N([H])[H])c6N([H])[H])C5([H])[H])c4[H])C([H])([H])C3([H])[H])c([H])c([H])c2C1([H])[H]

>  <smiles>  (91) 
[H]c1c([H])c([H])c2c(c1[H])C([H])([H])C([H])([H])C([H])([H])C2([H])N([H])C(=O)C1([H])N(C(=O)C([H])(N([H])C(=O)C([H])(N([H])C([H])([H])[H])C([H])([H])[H])C(C([H])([H])[H])(C([H])([H])[H])C([H])([H])[H])C([H])([H])c2c([H])c(OC([H])([H])C3([H])C(=O)N(c4c([H])c([H])c(C([H])([H])[H])c(C(=O)N([H])C(=O)N5C([H])([H])C([H])([H])C([H])([H])C([H])(n6nc(-c7c([H])c([H])c(Oc8c([H])c([H])c(F)c([H])c8F)c([H])c7[H])c(C(=O)N([H])[H])c6N([H])[H])C5([H])[H])c4[H])C([H])([H])C3([H])[H])c([H])c([H])c2C1([H])[H]

$$$$
91:0:0
     RDKit          3D

 94103  0  0  1  0  0  0  0  0999 V2000
  -27.6110  -19.9720   18.0650 C   0  0  0  0  0  3  0  0  0  0  0  0
  -27.8000  -21.1970   18.7100 C   0  0  0  0  0  3  0  0  0  0  0  0
  -28.9940  -20.0240   20.4960 C   0  0  0  0  0  3  0  0  0  0  0  0
  -28.1060  -18.7730   18.5950 C   0  0  0  0  0  0  0  0  0  0  0  0
  -28.8130  -18.7150   19.8360 C   0  0  0  0  0  0  0  0  0  0  0  0
  -28.4990  -21.3070   19.9310 C   0  0  0  0  0  0  0  0  0  0  0  0
  -27.8940  -17.5160   17.7480 C   0  0  0  0  0  2  0  0  0  0  0  0
  -29.1580  -16.6530   17.6250 C   0  0  0  0  0  2  0  0  0  0  0  0
  -30.1070  -16.8000   18.8210 C   0  0  0  0  0  2  0  0  0  0  0  0
  -29.3330  -17.1860   20.1080 C   0  0  0  0  0  3  0  0  0  0  0  0
  -30.6340  -15.2770   21.3460 C   0  0  0  0  0  0  0  0  0  0  0  0
  -30.6640  -12.9300   20.4640 C   0  0  0  0  0  2  0  0  0  0  0  0
  -29.9070  -12.8170   19.1230 C   0  0  0  0  0  2  0  0  0  0  0  0
  -28.4030  -12.5860   19.3590 C   0  0  0  0  0  2  0  0  0  0  0  0
  -27.8120  -13.5370   20.4330 C   0  0  0  0  0  3  0  0  0  0  0  0
  -28.7050  -13.6410   21.6870 C   0  0  0  0  0  2  0  0  0  0  0  0
  -30.0410  -14.0350   21.2330 N   0  0  0  0  0  0  0  0  0  0  0  0
  -31.8620  -15.3560   21.2620 O   0  0  0  0  0  0  0  0  0  0  0  0
  -29.8870  -16.4660   21.3370 N   0  0  0  0  0  0  0  0  0  0  0  0
  -30.3280  -17.1520   21.9300 H   0  0  0  0  0  0  0  0  0  0  0  0
  -25.3420  -14.0380   20.8700 C   0  0  0  0  0  0  0  0  0  0  0  0
  -24.2680  -13.2230   21.1040 C   0  0  0  0  0  0  0  0  0  0  0  0
  -24.7840  -11.8910   21.1530 C   0  0  0  0  0  0  0  0  0  0  0  0
  -26.4370  -13.1960   20.7680 N   0  0  0  0  0  0  0  0  0  0  0  0
  -26.1040  -11.9030   21.0120 N   0  0  0  0  0  0  0  0  0  0  0  0
  -24.0890  -10.6030   21.2680 C   0  0  0  0  0  0  0  0  0  0  0  0
  -24.4490   -9.6600   22.2560 C   0  0  0  0  0  3  0  0  0  0  0  0
  -23.7530   -8.4360   22.3620 C   0  0  0  0  0  3  0  0  0  0  0  0
  -22.6860   -8.1470   21.4790 C   0  0  0  0  0  0  0  0  0  0  0  0
  -22.3470   -9.0790   20.4840 C   0  0  0  0  0  3  0  0  0  0  0  0
  -23.0440  -10.2960   20.3750 C   0  0  0  0  0  3  0  0  0  0  0  0
  -21.9720   -6.9730   21.4890 O   0  0  0  0  0  0  0  0  0  0  0  0
  -21.8170   -6.2360   22.6350 C   0  0  0  0  0  0  0  0  0  0  0  0
  -21.2250   -6.7790   23.7960 C   0  0  0  0  0  3  0  0  0  0  0  0
  -21.0190   -5.9640   24.9280 C   0  0  0  0  0  3  0  0  0  0  0  0
  -21.3950   -4.6090   24.8980 C   0  0  0  0  0  0  0  0  0  0  0  0
  -21.9810   -4.0650   23.7410 C   0  0  0  0  0  3  0  0  0  0  0  0
  -22.1870   -4.8770   22.6120 C   0  0  0  0  0  0  0  0  0  0  0  0
  -22.7300   -4.3430   21.4920 F   0  0  0  0  0  0  0  0  0  0  0  0
  -21.1930   -3.8230   25.9830 F   0  0  0  0  0  0  0  0  0  0  0  0
  -22.8310  -13.6470   21.1820 C   0  0  0  0  0  0  0  0  0  0  0  0
  -22.0270  -12.9350   21.9630 N   0  0  0  0  0  0  0  0  0  0  0  0
  -22.4220  -14.6440   20.5890 O   0  0  0  0  0  0  0  0  0  0  0  0
  -22.3670  -12.1280   22.4630 H   0  0  0  0  0  0  0  0  0  0  0  0
  -21.0590  -13.2040   22.0670 H   0  0  0  0  0  0  0  0  0  0  0  0
  -25.4810  -15.4140   20.7160 N   0  0  0  0  0  0  0  0  0  0  0  0
  -24.7000  -16.0550   20.8180 H   0  0  0  0  0  0  0  0  0  0  0  0
  -26.3720  -15.8840   20.6540 H   0  0  0  0  0  0  0  0  0  0  0  0
  -28.3810  -23.9650   19.9170 C   0  0  0  0  0  0  0  0  0  0  0  0
  -28.5560  -22.6970   20.5140 N   0  0  0  0  0  0  0  0  0  0  0  0
  -28.5550  -24.1120   18.7040 O   0  0  0  0  0  0  0  0  0  0  0  0
  -28.6250  -22.7310   21.5210 H   0  0  0  0  0  0  0  0  0  0  0  0
  -28.0120  -25.3020   20.7560 C   0  0  0  0  0  2  0  0  0  0  0  0
  -28.1000  -26.6800   20.1160 O   0  0  0  0  0  0  0  0  0  0  0  0
  -24.6860  -32.2000   23.4910 C   0  0  0  0  0  0  0  0  0  0  0  0
  -27.0270  -27.6060   20.2080 C   0  0  0  0  0  0  0  0  0  0  0  0
  -23.3800  -30.9010   21.8470 C   0  0  0  0  0  3  0  0  0  0  0  0
  -24.7290  -29.3430   20.3200 C   0  0  0  0  0  0  0  0  0  0  0  0
  -25.9270  -31.1300   21.5850 C   0  0  0  0  0  2  0  0  0  0  0  0
  -25.9390  -29.7640   20.8890 C   0  0  0  0  0  0  0  0  0  0  0  0
  -27.0940  -28.9130   20.8100 C   0  0  0  0  0  3  0  0  0  0  0  0
  -25.7930  -27.2490   19.6350 C   0  0  0  0  0  3  0  0  0  0  0  0
  -24.6640  -28.0950   19.6830 C   0  0  0  0  0  3  0  0  0  0  0  0
  -23.5260  -30.2620   20.4400 C   0  0  0  0  0  2  0  0  0  0  0  0
  -24.6860  -31.4280   22.3630 N   0  0  0  0  0  0  0  0  0  0  0  0
  -23.6290  -32.4930   24.0710 O   0  0  0  0  0  0  0  0  0  0  0  0
  -22.7120  -29.8750   22.7970 C   0  0  0  0  0  0  0  0  0  0  0  0
  -21.3930  -29.6650   22.6370 N   0  0  0  0  0  0  0  0  0  0  0  0
  -23.3800  -29.2720   23.6390 O   0  0  0  0  0  0  0  0  0  0  0  0
  -20.9070  -30.2030   21.9330 H   0  0  0  0  0  0  0  0  0  0  0  0
  -18.0610  -28.2900   22.9640 C   0  0  0  0  0  0  0  0  0  0  0  0
  -20.5770  -28.7100   23.3920 C   0  0  0  0  0  3  0  0  0  0  0  0
  -20.7980  -27.2660   22.8840 C   0  0  0  0  0  2  0  0  0  0  0  0
  -19.7900  -26.8420   21.8120 C   0  0  0  0  0  2  0  0  0  0  0  0
  -18.3610  -26.9290   22.3560 C   0  0  0  0  0  2  0  0  0  0  0  0
  -19.1030  -29.1310   23.4350 C   0  0  0  0  0  0  0  0  0  0  0  0
  -18.7740  -30.3980   23.9620 C   0  0  0  0  0  3  0  0  0  0  0  0
  -17.4350  -30.8290   24.0230 C   0  0  0  0  0  3  0  0  0  0  0  0
  -16.4060  -29.9850   23.5700 C   0  0  0  0  0  3  0  0  0  0  0  0
  -16.7180  -28.7190   23.0460 C   0  0  0  0  0  3  0  0  0  0  0  0
  -26.0060  -32.7700   24.0920 C   0  0  0  0  0  3  0  0  0  0  0  0
  -25.7520  -34.1650   24.4830 N   0  0  0  0  0  0  0  0  0  0  0  0
  -26.1250  -35.2380   23.7700 C   0  0  0  0  0  0  0  0  0  0  0  0
  -26.7880  -35.1530   22.7330 O   0  0  0  0  0  0  0  0  0  0  0  0
  -25.1630  -34.3090   25.2890 H   0  0  0  0  0  0  0  0  0  0  0  0
  -24.4800  -37.1230   23.4960 C   0  0  0  0  0  1  0  0  0  0  0  0
  -25.6960  -36.6240   24.2920 C   0  0  0  0  0  3  0  0  0  0  0  0
  -27.8630  -37.3730   25.1710 C   0  0  0  0  0  1  0  0  0  0  0  0
  -26.7750  -37.6360   24.2340 N   0  0  0  0  0  0  0  0  0  0  0  0
  -26.4070  -38.5640   24.4220 H   0  0  0  0  0  0  0  0  0  0  0  0
  -26.5370  -31.9390   25.3250 C   0  0  1  0  0  0  0  0  0  0  0  0
  -25.4700  -31.6900   26.4160 C   0  0  0  0  0  1  0  0  0  0  0  0
  -27.0740  -30.5630   24.8680 C   0  0  0  0  0  1  0  0  0  0  0  0
  -27.7260  -32.6810   25.9820 C   0  0  0  0  0  1  0  0  0  0  0  0
  1  4  2  0
  1  2  1  0
  2  6  2  0
  4  5  1  0
  5 10  1  0
  5  3  2  0
  6  3  1  0
  6 50  1  0
  7  4  1  0
  8  7  1  0
  8  9  1  0
  9 10  1  0
 10 19  1  0
 12 17  1  0
 13 14  1  0
 13 12  1  0
 15 14  1  0
 15 24  1  0
 15 16  1  0
 17 11  1  0
 17 16  1  0
 18 11  2  0
 19 11  1  0
 19 20  1  0
 21 22  2  0
 22 23  1  0
 22 41  1  0
 23 26  1  0
 24 21  1  0
 24 25  1  0
 25 23  2  0
 26 27  1  0
 27 28  2  0
 29 32  1  0
 29 28  1  0
 30 29  2  0
 31 30  1  0
 31 26  2  0
 32 33  1  0
 33 34  1  0
 34 35  2  0
 36 35  1  0
 36 40  1  0
 37 36  2  0
 38 33  2  0
 38 37  1  0
 39 38  1  0
 41 42  1  0
 42 45  1  0
 42 44  1  0
 43 41  2  0
 46 47  1  0
 46 21  1  0
 48 46  1  0
 49 50  1  0
 49 53  1  0
 50 52  1  0
 51 49  2  0
 54 56  1  0
 54 53  1  0
 55 66  2  0
 56 61  1  0
 57 65  1  0
 57 67  1  0
 58 64  1  0
 58 60  1  0
 59 65  1  0
 60 59  1  0
 61 60  2  0
 62 63  1  0
 62 56  2  0
 63 58  2  0
 64 57  1  0
 65 55  1  0
 67 69  2  0
 68 67  1  0
 70 68  1  0
 71 80  2  0
 71 76  1  0
 72 68  1  0
 72 76  1  0
 73 72  1  0
 74 75  1  0
 74 73  1  0
 75 71  1  0
 76 77  2  0
 77 78  1  0
 79 78  2  0
 80 79  1  0
 81 55  1  0
 81 82  1  0
 81 91  1  0
 82 85  1  0
 83 87  1  0
 83 82  1  0
 84 83  2  0
 87 86  1  0
 89 87  1  0
 89 90  1  0
 89 88  1  0
 91 94  1  1
 91 92  1  0
 93 91  1  0
M  ISO  4  11 100  19 100  53 101  54 101
M  END
>  <TORSDO>  (92) 
F 18

>  <SCORE>  (92) 
-11.973

>  <name>  (92) 
91

>  <ligand_id>  (92) 
91

>  <original_smiles>  (92) 
[H]c1c([H])c([H])c2c(c1[H])C([H])([H])C([H])([H])C([H])([H])C2([H])N([H])C(=O)C1([H])N(C(=O)C([H])(N([H])C(=O)C([H])(N([H])C([H])([H])[H])C([H])([H])[H])C(C([H])([H])[H])(C([H])([H])[H])C([H])([H])[H])C([H])([H])c2c([H])c(OC([H])([H])C(=O)N([H])c3c([H])c([H])c4c(c3[H])C([H])(N([H])C(=O)N3C([H])([H])C([H])([H])C([H])([H])C([H])(n5nc(-c6c([H])c([H])c(Oc7c([H])c([H])c(F)c([H])c7F)c([H])c6[H])c(C(=O)N([H])[H])c5N([H])[H])C3([H])[H])C([H])([H])C([H])([H])C4([H])[H])c([H])c([H])c2C1([H])[H]

>  <smiles>  (92) 
[H]c1c([H])c([H])c2c(c1[H])C([H])([H])C([H])([H])C([H])([H])C2([H])N([H])C(=O)C1([H])N(C(=O)C([H])(N([H])C(=O)C([H])(N([H])C([H])([H])[H])C([H])([H])[H])C(C([H])([H])[H])(C([H])([H])[H])C([H])([H])[H])C([H])([H])c2c([H])c(OC([H])([H])C(=O)N([H])c3c([H])c([H])c4c(c3[H])C([H])(N([H])C(=O)N3C([H])([H])C([H])([H])C([H])([H])C([H])(n5nc(-c6c([H])c([H])c(Oc7c([H])c([H])c(F)c([H])c7F)c([H])c6[H])c(C(=O)N([H])[H])c5N([H])[H])C3([H])[H])C([H])([H])C([H])([H])C4([H])[H])c([H])c([H])c2C1([H])[H]

$$$$
92:0:0
     RDKit          3D

 99108  0  0  1  0  0  0  0  0999 V2000
  -30.1960  -21.7430   19.9870 C   0  0  0  0  0  0  0  0  0  0  0  0
  -28.3190  -21.4750   18.7290 C   0  0  0  0  0  2  0  0  0  0  0  0
  -27.9480  -22.7600   19.5900 C   0  0  0  0  0  3  0  0  0  0  0  0
  -29.1010  -22.6650   20.6390 C   0  0  1  0  0  0  0  0  0  0  0  0
  -28.6180  -21.9610   21.9270 C   0  0  0  0  0  1  0  0  0  0  0  0
  -29.7700  -21.0790   18.8920 N   0  0  0  0  0  0  0  0  0  0  0  0
  -31.3310  -21.6480   20.4660 O   0  0  0  0  0  0  0  0  0  0  0  0
  -30.1270  -19.9290   16.7630 C   0  0  0  0  0  3  0  0  0  0  0  0
  -31.4440  -17.9190   16.3660 C   0  0  0  0  0  3  0  0  0  0  0  0
  -31.3610  -18.8930   18.6000 C   0  0  0  0  0  3  0  0  0  0  0  0
  -30.5770  -18.9220   15.8950 C   0  0  0  0  0  0  0  0  0  0  0  0
  -30.4540  -19.9660   18.1370 C   0  0  0  0  0  0  0  0  0  0  0  0
  -31.8870  -17.8510   17.7050 C   0  0  0  0  0  0  0  0  0  0  0  0
  -33.9290  -16.1630   18.2030 C   0  0  0  0  0  0  0  0  0  0  0  0
  -36.0260  -15.1070   17.2970 C   0  0  0  0  0  2  0  0  0  0  0  0
  -36.7490  -16.1240   16.3830 C   0  0  0  0  0  2  0  0  0  0  0  0
  -36.1940  -16.0720   14.9470 C   0  0  0  0  0  2  0  0  0  0  0  0
  -34.6440  -16.0810   14.9160 C   0  0  0  0  0  3  0  0  0  0  0  0
  -34.0540  -15.0570   15.9120 C   0  0  0  0  0  2  0  0  0  0  0  0
  -34.5680  -15.3860   17.2540 N   0  0  0  0  0  0  0  0  0  0  0  0
  -34.4840  -16.4000   19.2810 O   0  0  0  0  0  0  0  0  0  0  0  0
  -32.6350  -16.5740   17.9290 N   0  0  0  0  0  0  0  0  0  0  0  0
  -32.3030  -15.8930   17.2620 H   0  0  0  0  0  0  0  0  0  0  0  0
  -33.6080  -16.8320   12.6910 C   0  0  0  0  0  0  0  0  0  0  0  0
  -33.3230  -16.1620   11.5340 C   0  0  0  0  0  0  0  0  0  0  0  0
  -33.7160  -14.8070   11.7590 C   0  0  0  0  0  0  0  0  0  0  0  0
  -34.1280  -15.8890   13.5630 N   0  0  0  0  0  0  0  0  0  0  0  0
  -34.1410  -14.6510   13.0080 N   0  0  0  0  0  0  0  0  0  0  0  0
  -33.7680  -13.6650   10.8380 C   0  0  0  0  0  0  0  0  0  0  0  0
  -32.7610  -12.6760   10.8300 C   0  0  0  0  0  3  0  0  0  0  0  0
  -32.8230  -11.5980    9.9210 C   0  0  0  0  0  3  0  0  0  0  0  0
  -33.8970  -11.5020    9.0060 C   0  0  0  0  0  0  0  0  0  0  0  0
  -34.9100  -12.4770    9.0340 C   0  0  0  0  0  3  0  0  0  0  0  0
  -34.8500  -13.5470    9.9420 C   0  0  0  0  0  3  0  0  0  0  0  0
  -34.0540  -10.4760    8.1050 O   0  0  0  0  0  0  0  0  0  0  0  0
  -32.9960   -9.9890    7.3800 C   0  0  0  0  0  0  0  0  0  0  0  0
  -32.4630  -10.6900    6.2760 C   0  0  0  0  0  3  0  0  0  0  0  0
  -31.4230  -10.1190    5.5160 C   0  0  0  0  0  3  0  0  0  0  0  0
  -30.9200   -8.8470    5.8520 C   0  0  0  0  0  0  0  0  0  0  0  0
  -31.4530   -8.1460    6.9470 C   0  0  0  0  0  3  0  0  0  0  0  0
  -32.4910   -8.7150    7.7070 C   0  0  0  0  0  0  0  0  0  0  0  0
  -33.0150   -8.0250    8.7480 F   0  0  0  0  0  0  0  0  0  0  0  0
  -29.9250   -8.2950    5.1180 F   0  0  0  0  0  0  0  0  0  0  0  0
  -32.8190  -16.7660   10.2540 C   0  0  0  0  0  0  0  0  0  0  0  0
  -31.7390  -16.2200    9.7040 N   0  0  0  0  0  0  0  0  0  0  0  0
  -33.3530  -17.7560    9.7590 O   0  0  0  0  0  0  0  0  0  0  0  0
  -31.2880  -15.4200   10.1220 H   0  0  0  0  0  0  0  0  0  0  0  0
  -31.3570  -16.6110    8.8550 H   0  0  0  0  0  0  0  0  0  0  0  0
  -33.5030  -18.1650   13.0660 N   0  0  0  0  0  0  0  0  0  0  0  0
  -33.1780  -18.8750   12.4200 H   0  0  0  0  0  0  0  0  0  0  0  0
  -33.9170  -18.5470   13.9040 H   0  0  0  0  0  0  0  0  0  0  0  0
  -30.0800  -18.9130   14.4520 C   0  0  1  0  0  0  0  0  0  0  0  0
  -28.7680  -19.1490   14.4160 F   0  0  0  0  0  0  0  0  0  0  0  0
  -30.6960  -19.8690   13.7570 F   0  0  0  0  0  0  0  0  0  0  0  0
  -30.2970  -17.7380   13.8580 F   0  0  0  0  0  0  0  0  0  0  0  0
  -29.8580  -25.0900   19.8990 C   0  0  0  0  0  1  0  0  0  0  0  0
  -29.6580  -24.0640   21.0330 C   0  0  0  0  0  2  0  0  0  0  0  0
  -26.3840  -22.9650   20.0460 C   0  0  0  0  0  2  0  0  0  0  0  0
  -25.8230  -24.0760   20.9090 O   0  0  0  0  0  0  0  0  0  0  0  0
  -18.9160  -26.2610   20.0820 C   0  0  0  0  0  0  0  0  0  0  0  0
  -24.8770  -24.9680   20.3400 C   0  0  0  0  0  0  0  0  0  0  0  0
  -20.5420  -27.0000   18.3790 C   0  0  0  0  0  3  0  0  0  0  0  0
  -23.0140  -26.6870   18.9770 C   0  0  0  0  0  0  0  0  0  0  0  0
  -21.3070  -26.5510   20.7900 C   0  0  0  0  0  2  0  0  0  0  0  0
  -22.6850  -26.1760   20.2400 C   0  0  0  0  0  0  0  0  0  0  0  0
  -23.6190  -25.3350   20.9310 C   0  0  0  0  0  3  0  0  0  0  0  0
  -25.1760  -25.5590   19.0930 C   0  0  0  0  0  3  0  0  0  0  0  0
  -24.2640  -26.3920   18.4130 C   0  0  0  0  0  3  0  0  0  0  0  0
  -21.9880  -27.5520   18.2680 C   0  0  0  0  0  2  0  0  0  0  0  0
  -20.2110  -26.5680   19.7760 N   0  0  0  0  0  0  0  0  0  0  0  0
  -18.0120  -26.3590   19.2390 O   0  0  0  0  0  0  0  0  0  0  0  0
  -20.3460  -25.8800   17.3290 C   0  0  0  0  0  0  0  0  0  0  0  0
  -19.7890  -26.2350   16.1580 N   0  0  0  0  0  0  0  0  0  0  0  0
  -20.7140  -24.7270   17.5660 O   0  0  0  0  0  0  0  0  0  0  0  0
  -19.5050  -27.1970   16.0410 H   0  0  0  0  0  0  0  0  0  0  0  0
  -17.7510  -25.7490   13.2060 C   0  0  0  0  0  0  0  0  0  0  0  0
  -19.5560  -25.3490   15.0150 C   0  0  0  0  0  3  0  0  0  0  0  0
  -20.5880  -25.6030   13.8930 C   0  0  0  0  0  2  0  0  0  0  0  0
  -20.1030  -26.6080   12.8430 C   0  0  0  0  0  2  0  0  0  0  0  0
  -18.8140  -26.1140   12.1830 C   0  0  0  0  0  2  0  0  0  0  0  0
  -18.0990  -25.4040   14.5400 C   0  0  0  0  0  0  0  0  0  0  0  0
  -17.0700  -25.1050   15.4590 C   0  0  0  0  0  3  0  0  0  0  0  0
  -15.7190  -25.1440   15.0670 C   0  0  0  0  0  3  0  0  0  0  0  0
  -15.3820  -25.4720   13.7420 C   0  0  0  0  0  3  0  0  0  0  0  0
  -16.3970  -25.7680   12.8140 C   0  0  0  0  0  3  0  0  0  0  0  0
  -18.5050  -25.7940   21.5130 C   0  0  0  0  0  3  0  0  0  0  0  0
  -17.7770  -24.3940   21.5230 C   0  0  1  0  0  0  0  0  0  0  0  0
  -17.1510  -24.0070   20.1640 C   0  0  0  0  0  1  0  0  0  0  0  0
  -18.7600  -23.2690   21.9240 C   0  0  0  0  0  1  0  0  0  0  0  0
  -16.6520  -24.3960   22.5840 C   0  0  0  0  0  1  0  0  0  0  0  0
  -17.6340  -26.8320   22.0870 N   0  0  0  0  0  0  0  0  0  0  0  0
  -17.9990  -27.6840   23.0530 C   0  0  0  0  0  0  0  0  0  0  0  0
  -19.1000  -27.6340   23.6080 O   0  0  0  0  0  0  0  0  0  0  0  0
  -16.7390  -26.9650   21.6420 H   0  0  0  0  0  0  0  0  0  0  0  0
  -17.7180  -30.0790   23.7700 C   0  0  0  0  0  1  0  0  0  0  0  0
  -16.9820  -28.7630   23.4720 C   0  0  0  0  0  3  0  0  0  0  0  0
  -14.9650  -27.6210   24.2820 C   0  0  0  0  0  1  0  0  0  0  0  0
  -16.1610  -28.3790   24.6410 N   0  0  0  0  0  0  0  0  0  0  0  0
  -15.8710  -29.2010   25.1650 H   0  0  0  0  0  0  0  0  0  0  0  0
  1  7  2  0
  1  4  1  0
  2  6  1  0
  2  3  1  0
  3 58  1  0
  3  4  1  0
  4 57  1  0
  4  5  1  1
  6  1  1  0
  8 12  1  0
  9 13  2  0
 11  9  1  0
 11  8  2  0
 12 10  2  0
 12  6  1  0
 13 22  1  0
 13 10  1  0
 14 21  2  0
 16 15  1  0
 17 16  1  0
 18 27  1  0
 18 17  1  0
 18 19  1  0
 19 20  1  0
 20 15  1  0
 20 14  1  0
 22 14  1  0
 23 22  1  0
 24 49  1  0
 24 27  1  0
 25 26  1  0
 25 24  2  0
 26 28  2  0
 28 27  1  0
 29 26  1  0
 30 29  1  0
 31 30  2  0
 32 33  2  0
 32 31  1  0
 33 34  1  0
 34 29  2  0
 35 32  1  0
 36 41  1  0
 36 35  1  0
 37 36  2  0
 38 39  2  0
 38 37  1  0
 39 40  1  0
 40 41  2  0
 41 42  1  0
 43 39  1  0
 44 25  1  0
 45 47  1  0
 45 44  1  0
 46 44  2  0
 48 45  1  0
 49 51  1  0
 50 49  1  0
 52 11  1  0
 52 53  1  1
 54 52  1  0
 55 52  1  0
 56 57  1  0
 58 59  1  0
 61 59  1  0
 61 66  1  0
 62 72  1  0
 62 70  1  0
 63 65  1  0
 65 64  1  0
 65 66  2  0
 67 61  2  0
 68 63  2  0
 68 67  1  0
 69 62  1  0
 69 63  1  0
 70 60  1  0
 70 64  1  0
 71 60  2  0
 72 74  2  0
 73 72  1  0
 75 73  1  0
 76 81  1  0
 77 73  1  0
 78 77  1  0
 79 78  1  0
 80 79  1  0
 80 76  1  0
 81 77  1  0
 81 82  2  0
 83 82  1  0
 84 83  2  0
 85 76  2  0
 85 84  1  0
 86 60  1  0
 86 87  1  0
 86 91  1  0
 87 89  1  1
 87 90  1  0
 88 87  1  0
 91 92  1  0
 92 96  1  0
 92 93  2  0
 94 91  1  0
 96 95  1  0
 96 98  1  0
 97 98  1  0
 98 99  1  0
M  ISO  4  14 100  22 100  58 101  59 101
M  END
>  <TORSDO>  (93) 
F 20

>  <SCORE>  (93) 
-7.075

>  <name>  (93) 
92

>  <ligand_id>  (93) 
92

>  <original_smiles>  (93) 
[H]c1c([H])c([H])c2c(c1[H])C([H])([H])C([H])([H])C([H])([H])C2([H])N([H])C(=O)C1([H])N(C(=O)C([H])(N([H])C(=O)C([H])(N([H])C([H])([H])[H])C([H])([H])[H])C(C([H])([H])[H])(C([H])([H])[H])C([H])([H])[H])C([H])([H])c2c([H])c(OC([H])([H])C3([H])C([H])([H])N(c4c([H])c(N([H])C(=O)N5C([H])([H])C([H])([H])C([H])([H])C([H])(n6nc(-c7c([H])c([H])c(Oc8c([H])c([H])c(F)c([H])c8F)c([H])c7[H])c(C(=O)N([H])[H])c6N([H])[H])C5([H])[H])c([H])c(C(F)(F)F)c4[H])C(=O)C3(C([H])([H])[H])C([H])([H])C([H])([H])[H])c([H])c([H])c2C1([H])[H]

>  <smiles>  (93) 
[H]c1c([H])c([H])c2c(c1[H])C([H])([H])C([H])([H])C([H])([H])C2([H])N([H])C(=O)C1([H])N(C(=O)C([H])(N([H])C(=O)C([H])(N([H])C([H])([H])[H])C([H])([H])[H])C(C([H])([H])[H])(C([H])([H])[H])C([H])([H])[H])C([H])([H])c2c([H])c(OC([H])([H])C3([H])C([H])([H])N(c4c([H])c(N([H])C(=O)N5C([H])([H])C([H])([H])C([H])([H])C([H])(n6nc(-c7c([H])c([H])c(Oc8c([H])c([H])c(F)c([H])c8F)c([H])c7[H])c(C(=O)N([H])[H])c6N([H])[H])C5([H])[H])c([H])c(C(F)(F)F)c4[H])C(=O)C3(C([H])([H])[H])C([H])([H])C([H])([H])[H])c([H])c([H])c2C1([H])[H]

$$$$
93:0:0
     RDKit          3D

 92100  0  0  1  0  0  0  0  0999 V2000
  -28.8450  -22.5450   19.8690 C   0  0  0  0  0  0  0  0  0  0  0  0
  -29.3190  -21.4370   20.5940 N   0  0  0  0  0  0  0  0  0  0  0  0
  -28.4000  -22.3750   18.7320 O   0  0  0  0  0  0  0  0  0  0  0  0
  -29.4700  -21.6080   21.5790 H   0  0  0  0  0  0  0  0  0  0  0  0
  -30.5200  -18.7320   18.2050 C   0  0  0  0  0  3  0  0  0  0  0  0
  -30.1840  -19.9620   18.7880 C   0  0  0  0  0  3  0  0  0  0  0  0
  -29.6740  -18.7800   20.8450 C   0  0  0  0  0  3  0  0  0  0  0  0
  -30.4110  -17.5100   18.8980 C   0  0  0  0  0  0  0  0  0  0  0  0
  -29.6890  -20.0570   20.1060 C   0  0  0  0  0  0  0  0  0  0  0  0
  -30.0590  -17.4710   20.2820 C   0  0  0  0  0  0  0  0  0  0  0  0
  -30.5810  -16.2600   18.0560 C   0  0  0  0  0  1  0  0  0  0  0  0
  -30.7770  -14.9930   20.9360 C   0  0  0  0  0  0  0  0  0  0  0  0
  -30.7410  -12.6370   20.0900 C   0  0  0  0  0  2  0  0  0  0  0  0
  -29.9360  -12.5920   18.7730 C   0  0  0  0  0  2  0  0  0  0  0  0
  -28.4310  -12.4250   19.0580 C   0  0  0  0  0  2  0  0  0  0  0  0
  -27.9170  -13.3670   20.1800 C   0  0  0  0  0  3  0  0  0  0  0  0
  -28.8560  -13.3750   21.4050 C   0  0  0  0  0  2  0  0  0  0  0  0
  -30.1950  -13.7390   20.9220 N   0  0  0  0  0  0  0  0  0  0  0  0
  -31.9950  -15.0810   20.7510 O   0  0  0  0  0  0  0  0  0  0  0  0
  -29.9670  -16.1370   20.9840 N   0  0  0  0  0  0  0  0  0  0  0  0
  -29.0710  -15.9650   21.4160 H   0  0  0  0  0  0  0  0  0  0  0  0
  -25.4640  -13.9380   20.6590 C   0  0  0  0  0  0  0  0  0  0  0  0
  -24.3790  -13.1560   20.9480 C   0  0  0  0  0  0  0  0  0  0  0  0
  -24.8610  -11.8120   21.0000 C   0  0  0  0  0  0  0  0  0  0  0  0
  -26.5370  -13.0700   20.5500 N   0  0  0  0  0  0  0  0  0  0  0  0
  -26.1760  -11.7890   20.8190 N   0  0  0  0  0  0  0  0  0  0  0  0
  -24.1360  -10.5440   21.1530 C   0  0  0  0  0  0  0  0  0  0  0  0
  -24.4980   -9.6010   22.1400 C   0  0  0  0  0  3  0  0  0  0  0  0
  -23.7710   -8.3980   22.2810 C   0  0  0  0  0  3  0  0  0  0  0  0
  -22.6690   -8.1310   21.4350 C   0  0  0  0  0  0  0  0  0  0  0  0
  -22.3280   -9.0630   20.4380 C   0  0  0  0  0  3  0  0  0  0  0  0
  -23.0550  -10.2560   20.2960 C   0  0  0  0  0  3  0  0  0  0  0  0
  -21.9220   -6.9780   21.4820 O   0  0  0  0  0  0  0  0  0  0  0  0
  -21.7870   -6.2560   22.6410 C   0  0  0  0  0  0  0  0  0  0  0  0
  -21.2310   -6.8180   23.8110 C   0  0  0  0  0  3  0  0  0  0  0  0
  -21.0490   -6.0210   24.9580 C   0  0  0  0  0  3  0  0  0  0  0  0
  -21.4090   -4.6590   24.9330 C   0  0  0  0  0  0  0  0  0  0  0  0
  -21.9560   -4.0960   23.7670 C   0  0  0  0  0  3  0  0  0  0  0  0
  -22.1420   -4.8910   22.6230 C   0  0  0  0  0  0  0  0  0  0  0  0
  -22.6480   -4.3380   21.4950 F   0  0  0  0  0  0  0  0  0  0  0  0
  -21.2270   -3.8900   26.0330 F   0  0  0  0  0  0  0  0  0  0  0  0
  -22.9560  -13.6170   21.0710 C   0  0  0  0  0  0  0  0  0  0  0  0
  -22.1580  -12.9320   21.8840 N   0  0  0  0  0  0  0  0  0  0  0  0
  -22.5560  -14.6220   20.4850 O   0  0  0  0  0  0  0  0  0  0  0  0
  -22.4890  -12.1150   22.3750 H   0  0  0  0  0  0  0  0  0  0  0  0
  -21.2020  -13.2290   22.0170 H   0  0  0  0  0  0  0  0  0  0  0  0
  -25.6260  -15.3060   20.4580 N   0  0  0  0  0  0  0  0  0  0  0  0
  -24.8430  -15.9500   20.4740 H   0  0  0  0  0  0  0  0  0  0  0  0
  -26.4970  -15.7510   20.2010 H   0  0  0  0  0  0  0  0  0  0  0  0
  -28.8460  -23.9390   20.4730 C   0  0  0  0  0  3  0  0  0  0  0  0
  -28.4050  -25.0840   19.7990 C   0  0  0  0  0  3  0  0  0  0  0  0
  -28.4220  -26.4640   20.2040 O   0  0  0  0  0  0  0  0  0  0  0  0
  -24.5150  -31.9000   23.0660 C   0  0  0  0  0  0  0  0  0  0  0  0
  -27.3040  -27.3370   20.0840 C   0  0  0  0  0  0  0  0  0  0  0  0
  -23.3840  -30.4650   21.4070 C   0  0  0  0  0  3  0  0  0  0  0  0
  -24.9050  -28.9430   20.0130 C   0  0  0  0  0  0  0  0  0  0  0  0
  -25.9240  -30.8300   21.2820 C   0  0  0  0  0  2  0  0  0  0  0  0
  -26.0520  -29.4470   20.6380 C   0  0  0  0  0  0  0  0  0  0  0  0
  -27.2490  -28.6560   20.6650 C   0  0  0  0  0  3  0  0  0  0  0  0
  -26.1260  -26.9070   19.4310 C   0  0  0  0  0  3  0  0  0  0  0  0
  -24.9500  -27.6820   19.3990 C   0  0  0  0  0  3  0  0  0  0  0  0
  -23.6470  -29.7900   20.0340 C   0  0  0  0  0  2  0  0  0  0  0  0
  -24.6250  -31.0860   21.9750 N   0  0  0  0  0  0  0  0  0  0  0  0
  -23.4140  -32.1520   23.5770 O   0  0  0  0  0  0  0  0  0  0  0  0
  -22.7230  -29.4370   22.3590 C   0  0  0  0  0  0  0  0  0  0  0  0
  -21.3920  -29.2800   22.2580 N   0  0  0  0  0  0  0  0  0  0  0  0
  -23.4090  -28.7870   23.1530 O   0  0  0  0  0  0  0  0  0  0  0  0
  -20.8950  -29.8610   21.5970 H   0  0  0  0  0  0  0  0  0  0  0  0
  -18.0050  -28.1460   22.8500 C   0  0  0  0  0  0  0  0  0  0  0  0
  -20.5780  -28.3330   23.0260 C   0  0  0  0  0  3  0  0  0  0  0  0
  -20.6190  -26.9210   22.3950 C   0  0  0  0  0  2  0  0  0  0  0  0
  -19.4710  -26.6650   21.4140 C   0  0  0  0  0  2  0  0  0  0  0  0
  -18.1190  -26.8200   22.1170 C   0  0  0  0  0  2  0  0  0  0  0  0
  -19.1590  -28.8640   23.2630 C   0  0  0  0  0  0  0  0  0  0  0  0
  -18.9960  -30.1080   23.9100 C   0  0  0  0  0  3  0  0  0  0  0  0
  -17.7110  -30.6340   24.1480 C   0  0  0  0  0  3  0  0  0  0  0  0
  -16.5730  -29.9120   23.7490 C   0  0  0  0  0  3  0  0  0  0  0  0
  -16.7210  -28.6700   23.1060 C   0  0  0  0  0  3  0  0  0  0  0  0
  -25.7670  -32.5710   23.7120 C   0  0  0  0  0  3  0  0  0  0  0  0
  -26.2970  -31.8020   24.9840 C   0  0  1  0  0  0  0  0  0  0  0  0
  -25.2020  -31.5110   26.0370 C   0  0  0  0  0  1  0  0  0  0  0  0
  -26.9350  -30.4510   24.5850 C   0  0  0  0  0  1  0  0  0  0  0  0
  -27.4120  -32.6270   25.6670 C   0  0  0  0  0  1  0  0  0  0  0  0
  -25.4020  -33.9520   24.0610 N   0  0  0  0  0  0  0  0  0  0  0  0
  -25.7730  -35.0370   23.3680 C   0  0  0  0  0  0  0  0  0  0  0  0
  -26.5250  -34.9810   22.3910 O   0  0  0  0  0  0  0  0  0  0  0  0
  -24.7460  -34.0690   24.8200 H   0  0  0  0  0  0  0  0  0  0  0  0
  -24.0830  -36.8420   22.9030 C   0  0  0  0  0  1  0  0  0  0  0  0
  -25.2250  -36.4010   23.8330 C   0  0  0  0  0  3  0  0  0  0  0  0
  -27.2410  -37.2510   24.9470 C   0  0  0  0  0  1  0  0  0  0  0  0
  -26.2550  -37.4610   23.8910 N   0  0  0  0  0  0  0  0  0  0  0  0
  -25.8270  -38.3720   24.0340 H   0  0  0  0  0  0  0  0  0  0  0  0
  1 50  1  0
  1  2  1  0
  2  4  1  0
  3  1  2  0
  5  6  2  0
  5  8  1  0
  6  9  1  0
  8 10  2  0
  9  2  1  0
  9  7  2  0
 10  7  1  0
 10 20  1  0
 11  8  1  0
 12 20  1  0
 13 18  1  0
 14 15  1  0
 14 13  1  0
 16 15  1  0
 16 25  1  0
 16 17  1  0
 18 12  1  0
 18 17  1  0
 19 12  2  0
 20 21  1  0
 22 23  2  0
 23 24  1  0
 23 42  1  0
 24 27  1  0
 25 22  1  0
 25 26  1  0
 26 24  2  0
 27 28  1  0
 28 29  2  0
 30 33  1  0
 30 29  1  0
 31 30  2  0
 32 31  1  0
 32 27  2  0
 33 34  1  0
 34 35  1  0
 35 36  2  0
 37 36  1  0
 37 41  1  0
 38 37  2  0
 39 34  2  0
 39 38  1  0
 40 39  1  0
 42 43  1  0
 43 46  1  0
 43 45  1  0
 44 42  2  0
 47 48  1  0
 47 22  1  0
 49 47  1  0
 51 52  1  0
 51 50  2  0
 53 64  2  0
 54 52  1  0
 54 59  1  0
 55 63  1  0
 55 65  1  0
 56 62  1  0
 56 58  1  0
 57 63  1  0
 58 59  2  0
 58 57  1  0
 60 54  2  0
 61 60  1  0
 61 56  2  0
 62 55  1  0
 63 53  1  0
 65 67  2  0
 66 65  1  0
 68 66  1  0
 69 78  2  0
 69 74  1  0
 70 66  1  0
 70 74  1  0
 71 70  1  0
 72 73  1  0
 72 71  1  0
 73 69  1  0
 74 75  2  0
 75 76  1  0
 77 76  2  0
 78 77  1  0
 79 53  1  0
 79 84  1  0
 79 80  1  0
 80 83  1  1
 80 81  1  0
 82 80  1  0
 84 87  1  0
 85 89  1  0
 85 84  1  0
 86 85  2  0
 89 88  1  0
 89 91  1  0
 91 92  1  0
 91 90  1  0
M  ISO  4  12 100  20 100  51 101  52 101
M  END
>  <TORSDO>  (94) 
F 18

>  <SCORE>  (94) 
-13.945

>  <name>  (94) 
93

>  <ligand_id>  (94) 
93

>  <original_smiles>  (94) 
[H]C(Oc1c([H])c([H])c2c(c1[H])C([H])([H])N(C(=O)C([H])(N([H])C(=O)C([H])(N([H])C([H])([H])[H])C([H])([H])[H])C(C([H])([H])[H])(C([H])([H])[H])C([H])([H])[H])C([H])(C(=O)N([H])C1([H])c3c([H])c([H])c([H])c([H])c3C([H])([H])C([H])([H])C1([H])[H])C2([H])[H])=C([H])C(=O)N([H])c1c([H])c([H])c(C([H])([H])[H])c(N([H])C(=O)N2C([H])([H])C([H])([H])C([H])([H])C([H])(n3nc(-c4c([H])c([H])c(Oc5c([H])c([H])c(F)c([H])c5F)c([H])c4[H])c(C(=O)N([H])[H])c3N([H])[H])C2([H])[H])c1[H]

>  <smiles>  (94) 
[H]C(Oc1c([H])c([H])c2c(c1[H])C([H])([H])N(C(=O)C([H])(N([H])C(=O)C([H])(N([H])C([H])([H])[H])C([H])([H])[H])C(C([H])([H])[H])(C([H])([H])[H])C([H])([H])[H])C([H])(C(=O)N([H])C1([H])c3c([H])c([H])c([H])c([H])c3C([H])([H])C([H])([H])C1([H])[H])C2([H])[H])=C([H])C(=O)N([H])c1c([H])c([H])c(C([H])([H])[H])c(N([H])C(=O)N2C([H])([H])C([H])([H])C([H])([H])C([H])(n3nc(-c4c([H])c([H])c(Oc5c([H])c([H])c(F)c([H])c5F)c([H])c4[H])c(C(=O)N([H])[H])c3N([H])[H])C2([H])[H])c1[H]

$$$$
94:0:0
     RDKit          3D

100109  0  0  1  0  0  0  0  0999 V2000
  -30.1790  -20.1050   18.8650 C   0  0  0  0  0  3  0  0  0  0  0  0
  -29.2480  -18.7800   20.6570 C   0  0  0  0  0  3  0  0  0  0  0  0
  -30.9210  -18.9890   18.4440 C   0  0  0  0  0  0  0  0  0  0  0  0
  -30.7190  -17.6930   19.0180 C   0  0  0  0  0  0  0  0  0  0  0  0
  -29.2870  -20.0520   19.9450 C   0  0  0  0  0  0  0  0  0  0  0  0
  -29.9800  -17.5770   20.2540 C   0  0  0  0  0  0  0  0  0  0  0  0
  -31.9700  -19.2760   17.3800 C   0  0  0  0  0  1  0  0  0  0  0  0
  -30.7040  -15.1510   21.0600 C   0  0  0  0  0  0  0  0  0  0  0  0
  -30.7430  -12.7410   20.3710 C   0  0  0  0  0  2  0  0  0  0  0  0
  -30.0010  -12.5430   19.0260 C   0  0  0  0  0  2  0  0  0  0  0  0
  -28.4780  -12.4130   19.2400 C   0  0  0  0  0  2  0  0  0  0  0  0
  -27.9010  -13.4230   20.2720 C   0  0  0  0  0  3  0  0  0  0  0  0
  -28.7920  -13.5360   21.5290 C   0  0  0  0  0  2  0  0  0  0  0  0
  -30.1400  -13.8920   21.0800 N   0  0  0  0  0  0  0  0  0  0  0  0
  -31.9280  -15.2640   20.9300 O   0  0  0  0  0  0  0  0  0  0  0  0
  -29.8650  -16.2710   20.9960 N   0  0  0  0  0  0  0  0  0  0  0  0
  -28.9370  -16.0940   21.3550 H   0  0  0  0  0  0  0  0  0  0  0  0
  -25.4440  -13.9950   20.7380 C   0  0  0  0  0  0  0  0  0  0  0  0
  -24.3480  -13.2090   20.9870 C   0  0  0  0  0  0  0  0  0  0  0  0
  -24.8250  -11.8630   21.0110 C   0  0  0  0  0  0  0  0  0  0  0  0
  -26.5140  -13.1230   20.6150 N   0  0  0  0  0  0  0  0  0  0  0  0
  -26.1420  -11.8370   20.8470 N   0  0  0  0  0  0  0  0  0  0  0  0
  -24.0940  -10.5920   21.1140 C   0  0  0  0  0  0  0  0  0  0  0  0
  -24.4830   -9.5880   22.0290 C   0  0  0  0  0  3  0  0  0  0  0  0
  -23.7520   -8.3830   22.1220 C   0  0  0  0  0  3  0  0  0  0  0  0
  -22.6190   -8.1730   21.3000 C   0  0  0  0  0  0  0  0  0  0  0  0
  -22.2510   -9.1670   20.3750 C   0  0  0  0  0  3  0  0  0  0  0  0
  -22.9830  -10.3620   20.2800 C   0  0  0  0  0  3  0  0  0  0  0  0
  -21.8630   -7.0250   21.3050 O   0  0  0  0  0  0  0  0  0  0  0  0
  -21.7870   -6.2200   22.4140 C   0  0  0  0  0  0  0  0  0  0  0  0
  -21.3180   -6.7000   23.6550 C   0  0  0  0  0  3  0  0  0  0  0  0
  -21.1890   -5.8180   24.7490 C   0  0  0  0  0  3  0  0  0  0  0  0
  -21.5200   -4.4570   24.6000 C   0  0  0  0  0  0  0  0  0  0  0  0
  -21.9820   -3.9770   23.3620 C   0  0  0  0  0  3  0  0  0  0  0  0
  -22.1110   -4.8550   22.2720 C   0  0  0  0  0  0  0  0  0  0  0  0
  -22.5360   -4.3810   21.0770 F   0  0  0  0  0  0  0  0  0  0  0  0
  -21.3910   -3.6080   25.6460 F   0  0  0  0  0  0  0  0  0  0  0  0
  -22.9240  -13.6680   21.0960 C   0  0  0  0  0  0  0  0  0  0  0  0
  -22.1120  -12.9820   21.8940 N   0  0  0  0  0  0  0  0  0  0  0  0
  -22.5300  -14.6740   20.5090 O   0  0  0  0  0  0  0  0  0  0  0  0
  -22.4340  -12.1650   22.3940 H   0  0  0  0  0  0  0  0  0  0  0  0
  -21.1550  -13.2800   22.0180 H   0  0  0  0  0  0  0  0  0  0  0  0
  -25.6210  -15.3660   20.5870 N   0  0  0  0  0  0  0  0  0  0  0  0
  -24.8590  -16.0320   20.6420 H   0  0  0  0  0  0  0  0  0  0  0  0
  -26.5040  -15.8040   20.3640 H   0  0  0  0  0  0  0  0  0  0  0  0
  -28.8900  -22.1100   21.3140 C   0  0  0  0  0  3  0  0  0  0  0  0
  -28.8160  -23.4420   21.0750 C   0  0  0  0  0  0  0  0  0  0  0  0
  -28.1180  -22.2380   19.1890 C   0  0  0  0  0  2  0  0  0  0  0  0
  -28.4290  -23.7430   19.6400 C   0  0  0  0  0  3  0  0  0  0  0  0
  -28.5640  -21.2710   20.2570 N   0  0  0  0  0  0  0  0  0  0  0  0
  -29.7500  -24.3140   23.2160 C   0  0  0  0  0  2  0  0  0  0  0  0
  -29.1450  -24.4900   22.0270 C   0  0  0  0  0  3  0  0  0  0  0  0
  -27.3290  -24.9150   19.4110 C   0  0  0  0  0  2  0  0  0  0  0  0
  -27.6690  -26.3820   19.2350 O   0  0  0  0  0  0  0  0  0  0  0  0
  -24.4580  -31.6760   23.0510 C   0  0  0  0  0  0  0  0  0  0  0  0
  -26.6180  -27.3240   19.3620 C   0  0  0  0  0  0  0  0  0  0  0  0
  -23.0670  -30.4560   21.4230 C   0  0  0  0  0  3  0  0  0  0  0  0
  -24.3270  -29.0240   19.7190 C   0  0  0  0  0  0  0  0  0  0  0  0
  -25.5870  -30.7310   21.0200 C   0  0  0  0  0  2  0  0  0  0  0  0
  -25.5650  -29.4140   20.2440 C   0  0  0  0  0  0  0  0  0  0  0  0
  -26.7160  -28.5800   20.0570 C   0  0  0  0  0  3  0  0  0  0  0  0
  -25.3630  -27.0270   18.7840 C   0  0  0  0  0  3  0  0  0  0  0  0
  -24.2330  -27.8420   18.9720 C   0  0  0  0  0  3  0  0  0  0  0  0
  -23.1260  -29.9150   19.9720 C   0  0  0  0  0  2  0  0  0  0  0  0
  -24.3970  -30.9670   21.8870 N   0  0  0  0  0  0  0  0  0  0  0  0
  -23.4400  -31.9230   23.7120 O   0  0  0  0  0  0  0  0  0  0  0  0
  -22.4760  -29.3640   22.3450 C   0  0  0  0  0  0  0  0  0  0  0  0
  -21.1520  -29.1440   22.2570 N   0  0  0  0  0  0  0  0  0  0  0  0
  -23.2060  -28.7190   23.1030 O   0  0  0  0  0  0  0  0  0  0  0  0
  -20.6170  -29.7230   21.6240 H   0  0  0  0  0  0  0  0  0  0  0  0
  -17.8720  -27.6840   22.6970 C   0  0  0  0  0  0  0  0  0  0  0  0
  -20.3980  -28.1380   23.0050 C   0  0  0  0  0  3  0  0  0  0  0  0
  -20.6180  -26.7240   22.4190 C   0  0  0  0  0  2  0  0  0  0  0  0
  -19.5600  -26.3280   21.3860 C   0  0  0  0  0  2  0  0  0  0  0  0
  -18.1630  -26.3600   22.0100 C   0  0  0  0  0  2  0  0  0  0  0  0
  -18.9220  -28.5260   23.1500 C   0  0  0  0  0  0  0  0  0  0  0  0
  -18.5990  -29.7610   23.7520 C   0  0  0  0  0  3  0  0  0  0  0  0
  -17.2580  -30.1570   23.9070 C   0  0  0  0  0  3  0  0  0  0  0  0
  -16.2210  -29.3150   23.4680 C   0  0  0  0  0  3  0  0  0  0  0  0
  -16.5290  -28.0800   22.8690 C   0  0  0  0  0  3  0  0  0  0  0  0
  -25.8100  -32.2320   23.5960 C   0  0  0  0  0  3  0  0  0  0  0  0
  -25.5880  -33.6290   23.9970 N   0  0  0  0  0  0  0  0  0  0  0  0
  -26.0010  -34.6970   23.3010 C   0  0  0  0  0  0  0  0  0  0  0  0
  -26.6780  -34.6040   22.2740 O   0  0  0  0  0  0  0  0  0  0  0  0
  -24.9910  -33.7820   24.7960 H   0  0  0  0  0  0  0  0  0  0  0  0
  -24.4090  -36.6250   23.0130 C   0  0  0  0  0  1  0  0  0  0  0  0
  -25.5990  -36.0880   23.8280 C   0  0  0  0  0  3  0  0  0  0  0  0
  -27.7640  -36.7770   24.7580 C   0  0  0  0  0  1  0  0  0  0  0  0
  -26.7040  -37.0710   23.7980 N   0  0  0  0  0  0  0  0  0  0  0  0
  -26.3580  -38.0080   23.9860 H   0  0  0  0  0  0  0  0  0  0  0  0
  -26.3830  -31.3930   24.8040 C   0  0  1  0  0  0  0  0  0  0  0  0
  -25.3670  -31.1790   25.9500 C   0  0  0  0  0  1  0  0  0  0  0  0
  -26.8580  -30.0000   24.3320 C   0  0  0  0  0  1  0  0  0  0  0  0
  -27.6260  -32.1040   25.3900 C   0  0  0  0  0  1  0  0  0  0  0  0
  -31.2180  -16.4440   18.2570 C   0  0  1  0  0  0  0  0  0  0  0  0
  -32.3380  -15.9690   18.7950 F   0  0  0  0  0  0  0  0  0  0  0  0
  -30.2510  -15.5400   18.3090 F   0  0  0  0  0  0  0  0  0  0  0  0
  -31.4480  -16.5920   16.8370 N   0  0  0  0  0  0  0  0  0  0  0  0
  -32.4420  -16.4980   16.6760 H   0  0  0  0  0  0  0  0  0  0  0  0
  -31.2220  -17.5430   16.5860 H   0  0  0  0  0  0  0  0  0  0  0  0
  1  5  1  0
  3  1  2  0
  3  4  1  0
  4  6  2  0
  5 50  1  0
  5  2  2  0
  6  2  1  0
  6 16  1  0
  7  3  1  0
  8 14  1  0
  9 14  1  0
 10 11  1  0
 10  9  1  0
 12 11  1  0
 12 21  1  0
 12 13  1  0
 14 13  1  0
 15  8  2  0
 16  8  1  0
 16 17  1  0
 18 19  2  0
 19 20  1  0
 19 38  1  0
 20 23  1  0
 21 18  1  0
 21 22  1  0
 22 20  2  0
 23 24  1  0
 24 25  2  0
 26 29  1  0
 26 25  1  0
 27 26  2  0
 28 27  1  0
 28 23  2  0
 29 30  1  0
 30 31  1  0
 31 32  2  0
 33 32  1  0
 33 37  1  0
 34 33  2  0
 35 30  2  0
 35 34  1  0
 36 35  1  0
 38 39  1  0
 39 42  1  0
 39 41  1  0
 40 38  2  0
 43 44  1  0
 43 18  1  0
 45 43  1  0
 47 46  2  0
 47 52  1  0
 48 49  1  0
 48 50  1  0
 49 53  1  0
 49 47  1  0
 50 46  1  0
 52 51  2  0
 54 56  1  0
 54 53  1  0
 55 66  2  0
 56 61  1  0
 57 65  1  0
 57 67  1  0
 58 64  1  0
 58 60  1  0
 59 65  1  0
 60 59  1  0
 61 60  2  0
 62 63  1  0
 62 56  2  0
 63 58  2  0
 64 57  1  0
 65 55  1  0
 67 69  2  0
 68 67  1  0
 70 68  1  0
 71 80  2  0
 71 76  1  0
 72 68  1  0
 72 76  1  0
 73 72  1  0
 74 75  1  0
 74 73  1  0
 75 71  1  0
 76 77  2  0
 77 78  1  0
 79 78  2  0
 80 79  1  0
 81 55  1  0
 81 82  1  0
 81 91  1  0
 82 85  1  0
 83 87  1  0
 83 82  1  0
 84 83  2  0
 87 86  1  0
 89 87  1  0
 89 90  1  0
 89 88  1  0
 91 94  1  1
 91 92  1  0
 93 91  1  0
 95 97  1  6
 95 96  1  0
 95  4  1  0
 98 95  1  0
 99 98  1  0
100 98  1  0
M  ISO  4   8 100  16 100  53 101  54 101
M  END
>  <TORSDO>  (95) 
F 21

>  <SCORE>  (95) 
-12.745

>  <name>  (95) 
94

>  <ligand_id>  (95) 
94

>  <original_smiles>  (95) 
[H]C([H])=C([H])C1=C([H])N(c2c([H])c(N([H])C(=O)N3C([H])([H])C([H])([H])C([H])([H])C([H])(n4nc(-c5c([H])c([H])c(Oc6c([H])c([H])c(F)c([H])c6F)c([H])c5[H])c(C(=O)N([H])[H])c4N([H])[H])C3([H])[H])c(C(F)(F)N([H])[H])c(C([H])([H])[H])c2[H])C([H])([H])C1([H])C([H])([H])Oc1c([H])c([H])c2c(c1[H])C([H])([H])N(C(=O)C([H])(N([H])C(=O)C([H])(N([H])C([H])([H])[H])C([H])([H])[H])C(C([H])([H])[H])(C([H])([H])[H])C([H])([H])[H])C([H])(C(=O)N([H])C1([H])c3c([H])c([H])c([H])c([H])c3C([H])([H])C([H])([H])C1([H])[H])C2([H])[H]

>  <smiles>  (95) 
[H]C([H])=C([H])C1=C([H])N(c2c([H])c(N([H])C(=O)N3C([H])([H])C([H])([H])C([H])([H])C([H])(n4nc(-c5c([H])c([H])c(Oc6c([H])c([H])c(F)c([H])c6F)c([H])c5[H])c(C(=O)N([H])[H])c4N([H])[H])C3([H])[H])c(C(F)(F)N([H])[H])c(C([H])([H])[H])c2[H])C([H])([H])C1([H])C([H])([H])Oc1c([H])c([H])c2c(c1[H])C([H])([H])N(C(=O)C([H])(N([H])C(=O)C([H])(N([H])C([H])([H])[H])C([H])([H])[H])C(C([H])([H])[H])(C([H])([H])[H])C([H])([H])[H])C([H])(C(=O)N([H])C1([H])c3c([H])c([H])c([H])c([H])c3C([H])([H])C([H])([H])C1([H])[H])C2([H])[H]

$$$$
95:0:0
     RDKit          3D

 91 99  0  0  1  0  0  0  0  0999 V2000
  -28.9200  -23.4070   20.2880 C   0  0  0  0  0  0  0  0  0  0  0  0
  -28.4800  -22.0730   20.1000 N   0  0  0  0  0  0  0  0  0  0  0  0
  -30.0660  -23.6340   20.6870 O   0  0  0  0  0  0  0  0  0  0  0  0
  -27.5130  -22.1050   19.8010 H   0  0  0  0  0  0  0  0  0  0  0  0
  -30.2820  -20.0580   20.4200 C   0  0  0  0  0  3  0  0  0  0  0  0
  -30.5710  -18.6180   20.4870 C   0  0  0  0  0  3  0  0  0  0  0  0
  -27.9980  -19.5700   20.1140 C   0  0  0  0  0  3  0  0  0  0  0  0
  -28.9640  -20.6200   20.2310 C   0  0  0  0  0  0  0  0  0  0  0  0
  -29.5680  -17.5840   20.3820 C   0  0  0  0  0  0  0  0  0  0  0  0
  -28.2750  -18.1570   20.1900 C   0  0  0  0  0  0  0  0  0  0  0  0
  -27.2350  -17.2980   20.0710 F   0  0  0  0  0  0  0  0  0  0  0  0
  -30.5100  -14.9630   20.3310 C   0  0  0  0  0  0  0  0  0  0  0  0
  -30.4250  -12.6170   19.3750 C   0  0  0  0  0  2  0  0  0  0  0  0
  -29.4820  -12.5960   18.1490 C   0  0  0  0  0  2  0  0  0  0  0  0
  -28.0160  -12.3860   18.5800 C   0  0  0  0  0  2  0  0  0  0  0  0
  -27.6140  -13.2920   19.7720 C   0  0  0  0  0  3  0  0  0  0  0  0
  -28.6750  -13.2690   20.8940 C   0  0  0  0  0  2  0  0  0  0  0  0
  -29.9520  -13.6870   20.2940 N   0  0  0  0  0  0  0  0  0  0  0  0
  -31.7030  -15.0880   20.0360 O   0  0  0  0  0  0  0  0  0  0  0  0
  -29.6350  -16.0570   20.5100 N   0  0  0  0  0  0  0  0  0  0  0  0
  -28.7070  -15.6950   20.6650 H   0  0  0  0  0  0  0  0  0  0  0  0
  -25.2220  -13.8590   20.5000 C   0  0  0  0  0  0  0  0  0  0  0  0
  -24.1620  -13.0780   20.8700 C   0  0  0  0  0  0  0  0  0  0  0  0
  -24.6370  -11.7310   20.8440 C   0  0  0  0  0  0  0  0  0  0  0  0
  -26.2750  -12.9890   20.2680 N   0  0  0  0  0  0  0  0  0  0  0  0
  -25.9300  -11.7020   20.5400 N   0  0  0  0  0  0  0  0  0  0  0  0
  -23.9190  -10.4650   21.0370 C   0  0  0  0  0  0  0  0  0  0  0  0
  -24.3550   -9.5000   21.9720 C   0  0  0  0  0  3  0  0  0  0  0  0
  -23.6330   -8.3010   22.1520 C   0  0  0  0  0  3  0  0  0  0  0  0
  -22.4600   -8.0580   21.3990 C   0  0  0  0  0  0  0  0  0  0  0  0
  -22.0410   -9.0120   20.4550 C   0  0  0  0  0  3  0  0  0  0  0  0
  -22.7640  -10.2020   20.2720 C   0  0  0  0  0  3  0  0  0  0  0  0
  -21.7110   -6.9100   21.4890 O   0  0  0  0  0  0  0  0  0  0  0  0
  -21.6710   -6.1640   22.6410 C   0  0  0  0  0  0  0  0  0  0  0  0
  -21.2450   -6.7130   23.8690 C   0  0  0  0  0  3  0  0  0  0  0  0
  -21.1540   -5.8950   25.0120 C   0  0  0  0  0  3  0  0  0  0  0  0
  -21.4780   -4.5270   24.9270 C   0  0  0  0  0  0  0  0  0  0  0  0
  -21.8960   -3.9770   23.7040 C   0  0  0  0  0  3  0  0  0  0  0  0
  -21.9900   -4.7940   22.5620 C   0  0  0  0  0  0  0  0  0  0  0  0
  -22.3740   -4.2540   21.3800 F   0  0  0  0  0  0  0  0  0  0  0  0
  -21.3820   -3.7390   26.0230 F   0  0  0  0  0  0  0  0  0  0  0  0
  -22.7610  -13.5480   21.1340 C   0  0  0  0  0  0  0  0  0  0  0  0
  -22.0370  -12.8550   22.0060 N   0  0  0  0  0  0  0  0  0  0  0  0
  -22.3180  -14.5670   20.6060 O   0  0  0  0  0  0  0  0  0  0  0  0
  -22.4090  -12.0330   22.4580 H   0  0  0  0  0  0  0  0  0  0  0  0
  -21.0980  -13.1540   22.2280 H   0  0  0  0  0  0  0  0  0  0  0  0
  -25.3610  -15.2300   20.3230 N   0  0  0  0  0  0  0  0  0  0  0  0
  -24.5760  -15.8570   20.4490 H   0  0  0  0  0  0  0  0  0  0  0  0
  -26.2010  -15.7250   20.0400 H   0  0  0  0  0  0  0  0  0  0  0  0
  -27.9180  -24.6900   19.9720 C   0  0  0  0  0  2  0  0  0  0  0  0
  -28.2470  -26.1880   20.2400 O   0  0  0  0  0  0  0  0  0  0  0  0
  -24.6450  -31.8880   23.2390 C   0  0  0  0  0  0  0  0  0  0  0  0
  -27.1970  -27.1790   20.1790 C   0  0  0  0  0  0  0  0  0  0  0  0
  -23.4310  -30.4950   21.6090 C   0  0  0  0  0  3  0  0  0  0  0  0
  -24.8660  -28.9240   20.1720 C   0  0  0  0  0  0  0  0  0  0  0  0
  -25.9850  -30.7580   21.4260 C   0  0  0  0  0  2  0  0  0  0  0  0
  -26.0520  -29.3670   20.7720 C   0  0  0  0  0  0  0  0  0  0  0  0
  -27.2170  -28.5100   20.7610 C   0  0  0  0  0  3  0  0  0  0  0  0
  -25.9820  -26.8410   19.5390 C   0  0  0  0  0  3  0  0  0  0  0  0
  -24.8440  -27.6730   19.5410 C   0  0  0  0  0  3  0  0  0  0  0  0
  -23.6400  -29.8210   20.2290 C   0  0  0  0  0  2  0  0  0  0  0  0
  -24.7070  -31.0690   22.1470 N   0  0  0  0  0  0  0  0  0  0  0  0
  -23.5630  -32.1750   23.7740 O   0  0  0  0  0  0  0  0  0  0  0  0
  -22.7580  -29.4880   22.5750 C   0  0  0  0  0  0  0  0  0  0  0  0
  -21.4290  -29.3160   22.4540 N   0  0  0  0  0  0  0  0  0  0  0  0
  -23.4330  -28.8630   23.3970 O   0  0  0  0  0  0  0  0  0  0  0  0
  -20.9400  -29.8710   21.7670 H   0  0  0  0  0  0  0  0  0  0  0  0
  -18.0510  -28.1080   22.9660 C   0  0  0  0  0  0  0  0  0  0  0  0
  -20.6090  -28.3810   23.2310 C   0  0  0  0  0  3  0  0  0  0  0  0
  -20.7160  -26.9450   22.6660 C   0  0  0  0  0  2  0  0  0  0  0  0
  -19.6140  -26.6120   21.6540 C   0  0  0  0  0  2  0  0  0  0  0  0
  -18.2330  -26.7560   22.2980 C   0  0  0  0  0  2  0  0  0  0  0  0
  -19.1680  -28.8790   23.3910 C   0  0  0  0  0  0  0  0  0  0  0  0
  -18.9420  -30.1420   23.9770 C   0  0  0  0  0  3  0  0  0  0  0  0
  -17.6350  -30.6370   24.1430 C   0  0  0  0  0  3  0  0  0  0  0  0
  -16.5340  -29.8650   23.7330 C   0  0  0  0  0  3  0  0  0  0  0  0
  -16.7440  -28.6030   23.1500 C   0  0  0  0  0  3  0  0  0  0  0  0
  -25.9280  -32.5210   23.8570 C   0  0  0  0  0  3  0  0  0  0  0  0
  -25.6200  -33.9190   24.1960 N   0  0  0  0  0  0  0  0  0  0  0  0
  -25.9220  -34.9760   23.4320 C   0  0  0  0  0  0  0  0  0  0  0  0
  -26.5590  -34.8760   22.3780 O   0  0  0  0  0  0  0  0  0  0  0  0
  -25.0490  -34.0690   25.0160 H   0  0  0  0  0  0  0  0  0  0  0  0
  -24.1640  -36.7560   23.1570 C   0  0  0  0  0  1  0  0  0  0  0  0
  -25.4470  -36.3620   23.9080 C   0  0  0  0  0  3  0  0  0  0  0  0
  -27.6110  -37.2720   24.6310 C   0  0  0  0  0  1  0  0  0  0  0  0
  -26.4650  -37.4240   23.7400 N   0  0  0  0  0  0  0  0  0  0  0  0
  -26.0570  -38.3420   23.8980 H   0  0  0  0  0  0  0  0  0  0  0  0
  -26.4490  -31.7490   25.1330 C   0  0  1  0  0  0  0  0  0  0  0  0
  -25.3590  -31.5150   26.2060 C   0  0  0  0  0  1  0  0  0  0  0  0
  -27.0240  -30.3670   24.7420 C   0  0  0  0  0  1  0  0  0  0  0  0
  -27.6050  -32.5390   25.7870 C   0  0  0  0  0  1  0  0  0  0  0  0
  1  3  2  0
  2  8  1  0
  2  1  1  0
  4  2  1  0
  5  6  1  0
  7 10  2  0
  7  8  1  0
  8  5  2  0
  9  6  2  0
  9 20  1  0
 10  9  1  0
 11 10  1  0
 12 20  1  0
 13 18  1  0
 14 15  1  0
 14 13  1  0
 16 15  1  0
 16 25  1  0
 16 17  1  0
 18 12  1  0
 18 17  1  0
 19 12  2  0
 20 21  1  0
 22 23  2  0
 23 42  1  0
 24 23  1  0
 24 27  1  0
 25 22  1  0
 25 26  1  0
 26 24  2  0
 27 28  1  0
 28 29  2  0
 30 33  1  0
 30 29  1  0
 31 30  2  0
 32 31  1  0
 32 27  2  0
 33 34  1  0
 34 35  1  0
 35 36  2  0
 37 36  1  0
 37 41  1  0
 38 37  2  0
 39 34  2  0
 39 38  1  0
 40 39  1  0
 42 43  1  0
 43 46  1  0
 43 45  1  0
 44 42  2  0
 47 48  1  0
 47 22  1  0
 49 47  1  0
 50 51  1  0
 50  1  1  0
 52 63  2  0
 53 51  1  0
 53 58  1  0
 54 62  1  0
 54 64  1  0
 55 61  1  0
 55 57  1  0
 56 62  1  0
 57 56  1  0
 58 57  2  0
 59 60  1  0
 59 53  2  0
 60 55  2  0
 61 54  1  0
 62 52  1  0
 64 66  2  0
 65 64  1  0
 67 65  1  0
 68 77  2  0
 68 73  1  0
 69 65  1  0
 69 73  1  0
 70 69  1  0
 71 72  1  0
 71 70  1  0
 72 68  1  0
 73 74  2  0
 74 75  1  0
 76 75  2  0
 77 76  1  0
 78 52  1  0
 78 79  1  0
 78 88  1  0
 79 82  1  0
 80 84  1  0
 80 79  1  0
 81 80  2  0
 84 83  1  0
 86 87  1  0
 86 84  1  0
 86 85  1  0
 88 91  1  1
 88 89  1  0
 90 88  1  0
M  ISO  4  12 100  20 100  50 101  51 101
M  END
>  <TORSDO>  (96) 
F 18

>  <SCORE>  (96) 
-14.879

>  <name>  (96) 
95

>  <ligand_id>  (96) 
95

>  <original_smiles>  (96) 
[H]c1c([H])c([H])c2c(c1[H])C([H])([H])C([H])([H])C([H])([H])C2([H])N([H])C(=O)C1([H])N(C(=O)C([H])(N([H])C(=O)C([H])(N([H])C([H])([H])[H])C([H])([H])[H])C(C([H])([H])[H])(C([H])([H])[H])C([H])([H])[H])C([H])([H])c2c([H])c(OC([H])([H])C(=O)N([H])c3c([H])c([H])c(N([H])C(=O)N4C([H])([H])C([H])([H])C([H])([H])C([H])(n5nc(-c6c([H])c([H])c(Oc7c([H])c([H])c(F)c([H])c7F)c([H])c6[H])c(C(=O)N([H])[H])c5N([H])[H])C4([H])[H])c(F)c3[H])c([H])c([H])c2C1([H])[H]

>  <smiles>  (96) 
[H]c1c([H])c([H])c2c(c1[H])C([H])([H])C([H])([H])C([H])([H])C2([H])N([H])C(=O)C1([H])N(C(=O)C([H])(N([H])C(=O)C([H])(N([H])C([H])([H])[H])C([H])([H])[H])C(C([H])([H])[H])(C([H])([H])[H])C([H])([H])[H])C([H])([H])c2c([H])c(OC([H])([H])C(=O)N([H])c3c([H])c([H])c(N([H])C(=O)N4C([H])([H])C([H])([H])C([H])([H])C([H])(n5nc(-c6c([H])c([H])c(Oc7c([H])c([H])c(F)c([H])c7F)c([H])c6[H])c(C(=O)N([H])[H])c5N([H])[H])C4([H])[H])c(F)c3[H])c([H])c([H])c2C1([H])[H]

$$$$
96:0:0
     RDKit          3D

100109  0  0  1  0  0  0  0  0999 V2000
  -31.0330  -19.5280   21.7250 C   0  0  0  0  0  3  0  0  0  0  0  0
  -31.0850  -18.1100   21.8610 C   0  0  0  0  0  3  0  0  0  0  0  0
  -30.0270  -20.1860   20.9600 C   0  0  0  0  0  0  0  0  0  0  0  0
  -30.1380  -17.2630   21.2310 C   0  0  0  0  0  0  0  0  0  0  0  0
  -29.1400  -17.9110   20.4440 C   0  0  0  0  0  0  0  0  0  0  0  0
  -29.0940  -19.3420   20.3050 C   0  0  0  0  0  0  0  0  0  0  0  0
  -28.1770  -19.9120   19.4840 F   0  0  0  0  0  0  0  0  0  0  0  0
  -30.9480  -14.8110   21.4070 C   0  0  0  0  0  0  0  0  0  0  0  0
  -30.9670  -12.4800   20.5450 C   0  0  0  0  0  2  0  0  0  0  0  0
  -30.1530  -12.4450   19.2320 C   0  0  0  0  0  2  0  0  0  0  0  0
  -28.6520  -12.2390   19.5180 C   0  0  0  0  0  2  0  0  0  0  0  0
  -28.1150  -13.1800   20.6290 C   0  0  0  0  0  3  0  0  0  0  0  0
  -29.0570  -13.1870   21.8550 C   0  0  0  0  0  2  0  0  0  0  0  0
  -30.4040  -13.5530   21.3860 N   0  0  0  0  0  0  0  0  0  0  0  0
  -32.1360  -15.0090   21.1460 O   0  0  0  0  0  0  0  0  0  0  0  0
  -30.0480  -15.8330   21.5320 N   0  0  0  0  0  0  0  0  0  0  0  0
  -29.1080  -15.5020   21.6830 H   0  0  0  0  0  0  0  0  0  0  0  0
  -25.6690  -13.7200   21.2100 C   0  0  0  0  0  0  0  0  0  0  0  0
  -24.5850  -12.9200   21.4410 C   0  0  0  0  0  0  0  0  0  0  0  0
  -25.0600  -11.5770   21.3560 C   0  0  0  0  0  0  0  0  0  0  0  0
  -26.7380  -12.8620   20.9920 N   0  0  0  0  0  0  0  0  0  0  0  0
  -26.3710  -11.5640   21.1430 N   0  0  0  0  0  0  0  0  0  0  0  0
  -24.3330  -10.3040   21.4080 C   0  0  0  0  0  0  0  0  0  0  0  0
  -24.7000   -9.2800   22.3090 C   0  0  0  0  0  3  0  0  0  0  0  0
  -23.9700   -8.0720   22.3560 C   0  0  0  0  0  3  0  0  0  0  0  0
  -22.8600   -7.8800   21.4990 C   0  0  0  0  0  0  0  0  0  0  0  0
  -22.5120   -8.8950   20.5890 C   0  0  0  0  0  3  0  0  0  0  0  0
  -23.2420  -10.0930   20.5410 C   0  0  0  0  0  3  0  0  0  0  0  0
  -22.1110   -6.7300   21.4550 O   0  0  0  0  0  0  0  0  0  0  0  0
  -21.9660   -5.9230   22.5550 C   0  0  0  0  0  0  0  0  0  0  0  0
  -21.3980   -6.3980   23.7580 C   0  0  0  0  0  3  0  0  0  0  0  0
  -21.2010   -5.5170   24.8390 C   0  0  0  0  0  3  0  0  0  0  0  0
  -21.5630   -4.1620   24.7190 C   0  0  0  0  0  0  0  0  0  0  0  0
  -22.1230   -3.6860   23.5220 C   0  0  0  0  0  3  0  0  0  0  0  0
  -22.3210   -4.5640   22.4410 C   0  0  0  0  0  0  0  0  0  0  0  0
  -22.8410   -4.0940   21.2810 F   0  0  0  0  0  0  0  0  0  0  0  0
  -21.3670   -3.3150   25.7570 F   0  0  0  0  0  0  0  0  0  0  0  0
  -23.1670  -13.3750   21.6360 C   0  0  0  0  0  0  0  0  0  0  0  0
  -22.3860  -12.6340   22.4130 N   0  0  0  0  0  0  0  0  0  0  0  0
  -22.7580  -14.4240   21.1390 O   0  0  0  0  0  0  0  0  0  0  0  0
  -22.7300  -11.7870   22.8420 H   0  0  0  0  0  0  0  0  0  0  0  0
  -21.4330  -12.9220   22.5850 H   0  0  0  0  0  0  0  0  0  0  0  0
  -25.8260  -15.0980   21.1520 N   0  0  0  0  0  0  0  0  0  0  0  0
  -25.0300  -15.7230   21.2220 H   0  0  0  0  0  0  0  0  0  0  0  0
  -26.6760  -15.5870   20.9080 H   0  0  0  0  0  0  0  0  0  0  0  0
  -31.0340  -22.4410   20.5420 C   0  0  0  0  0  0  0  0  0  0  0  0
  -30.6260  -23.9160   20.3770 C   0  0  0  0  0  2  0  0  0  0  0  0
  -28.7670  -22.5070   20.8120 C   0  0  0  0  0  2  0  0  0  0  0  0
  -29.2210  -24.0150   20.9980 C   0  0  1  0  0  0  0  0  0  0  0  0
  -29.3230  -24.3130   22.5120 C   0  0  0  0  0  1  0  0  0  0  0  0
  -29.9820  -21.6510   20.8310 N   0  0  0  0  0  0  0  0  0  0  0  0
  -32.2040  -22.0700   20.4120 O   0  0  0  0  0  0  0  0  0  0  0  0
  -28.2460  -25.0970   20.3460 C   0  0  0  0  0  2  0  0  0  0  0  0
  -28.4290  -26.5520   20.5680 O   0  0  0  0  0  0  0  0  0  0  0  0
  -24.6570  -32.0410   23.3430 C   0  0  0  0  0  0  0  0  0  0  0  0
  -27.3060  -27.3960   20.4550 C   0  0  0  0  0  0  0  0  0  0  0  0
  -23.4680  -30.5870   21.7420 C   0  0  0  0  0  3  0  0  0  0  0  0
  -24.9330  -28.9990   20.3750 C   0  0  0  0  0  0  0  0  0  0  0  0
  -26.0080  -30.9050   21.5670 C   0  0  0  0  0  2  0  0  0  0  0  0
  -26.0960  -29.5080   20.9680 C   0  0  0  0  0  0  0  0  0  0  0  0
  -27.2830  -28.7160   21.0030 C   0  0  0  0  0  3  0  0  0  0  0  0
  -26.1240  -26.9510   19.8160 C   0  0  0  0  0  3  0  0  0  0  0  0
  -24.9490  -27.7250   19.7900 C   0  0  0  0  0  3  0  0  0  0  0  0
  -23.6940  -29.8690   20.3850 C   0  0  0  0  0  2  0  0  0  0  0  0
  -24.7300  -31.1970   22.2730 N   0  0  0  0  0  0  0  0  0  0  0  0
  -23.5700  -32.3350   23.8610 O   0  0  0  0  0  0  0  0  0  0  0  0
  -22.8020  -29.5990   22.7290 C   0  0  0  0  0  0  0  0  0  0  0  0
  -21.4880  -29.3750   22.5630 N   0  0  0  0  0  0  0  0  0  0  0  0
  -23.4670  -29.0370   23.6030 O   0  0  0  0  0  0  0  0  0  0  0  0
  -21.0100  -29.8810   21.8290 H   0  0  0  0  0  0  0  0  0  0  0  0
  -18.1390  -28.0690   22.9700 C   0  0  0  0  0  0  0  0  0  0  0  0
  -20.6660  -28.4570   23.3530 C   0  0  0  0  0  3  0  0  0  0  0  0
  -20.8550  -26.9960   22.8830 C   0  0  0  0  0  2  0  0  0  0  0  0
  -19.8240  -26.5590   21.8380 C   0  0  0  0  0  2  0  0  0  0  0  0
  -18.4050  -26.6870   22.3980 C   0  0  0  0  0  2  0  0  0  0  0  0
  -19.2010  -28.9060   23.4030 C   0  0  0  0  0  0  0  0  0  0  0  0
  -18.9000  -30.1940   23.8970 C   0  0  0  0  0  3  0  0  0  0  0  0
  -17.5680  -30.6470   23.9610 C   0  0  0  0  0  3  0  0  0  0  0  0
  -16.5210  -29.8090   23.5440 C   0  0  0  0  0  3  0  0  0  0  0  0
  -16.8060  -28.5230   23.0530 C   0  0  0  0  0  3  0  0  0  0  0  0
  -25.9350  -32.6960   23.9530 C   0  0  0  0  0  3  0  0  0  0  0  0
  -26.4500  -31.9630   25.2510 C   0  0  1  0  0  0  0  0  0  0  0  0
  -25.3460  -31.7170   26.3060 C   0  0  0  0  0  1  0  0  0  0  0  0
  -27.0750  -30.5940   24.8950 C   0  0  0  0  0  1  0  0  0  0  0  0
  -27.5690  -32.7990   25.9160 C   0  0  0  0  0  1  0  0  0  0  0  0
  -25.6170  -34.1020   24.2450 N   0  0  0  0  0  0  0  0  0  0  0  0
  -25.9230  -35.1340   23.4490 C   0  0  0  0  0  0  0  0  0  0  0  0
  -26.5740  -35.0050   22.4080 O   0  0  0  0  0  0  0  0  0  0  0  0
  -25.0350  -34.2730   25.0520 H   0  0  0  0  0  0  0  0  0  0  0  0
  -24.1540  -36.8880   23.0920 C   0  0  0  0  0  1  0  0  0  0  0  0
  -25.4290  -36.5310   23.8730 C   0  0  0  0  0  3  0  0  0  0  0  0
  -27.5760  -37.4800   24.5970 C   0  0  0  0  0  1  0  0  0  0  0  0
  -26.4400  -37.5940   23.6850 N   0  0  0  0  0  0  0  0  0  0  0  0
  -26.0240  -38.5130   23.8140 H   0  0  0  0  0  0  0  0  0  0  0  0
  -26.9030  -17.0780   19.8270 C   0  0  0  0  0  0  0  0  0  0  0  0
  -28.2380  -17.0900   19.7210 N   0  0  0  0  0  0  0  0  0  0  0  0
  -26.2840  -17.7030   20.6900 O   0  0  0  0  0  0  0  0  0  0  0  0
  -28.6500  -16.4480   19.0640 H   0  0  0  0  0  0  0  0  0  0  0  0
  -25.0130  -15.8400   18.9310 C   0  0  0  0  0  2  0  0  0  0  0  0
  -26.3120  -16.1800   18.8520 C   0  0  0  0  0  3  0  0  0  0  0  0
  1  2  1  0
  3  1  2  0
  4 16  1  0
  4  2  2  0
  5  4  1  0
  6  5  2  0
  6  3  1  0
  7  6  1  0
  8 16  1  0
  9 14  1  0
 10 11  1  0
 10  9  1  0
 12 11  1  0
 12 21  1  0
 12 13  1  0
 14  8  1  0
 14 13  1  0
 15  8  2  0
 16 17  1  0
 18 19  2  0
 19 38  1  0
 20 23  1  0
 20 19  1  0
 21 22  1  0
 21 18  1  0
 22 20  2  0
 23 24  1  0
 24 25  2  0
 26 25  1  0
 27 26  2  0
 28 27  1  0
 28 23  2  0
 29 26  1  0
 29 30  1  0
 30 31  1  0
 31 32  2  0
 33 32  1  0
 33 37  1  0
 34 33  2  0
 35 30  2  0
 35 34  1  0
 36 35  1  0
 38 39  1  0
 39 42  1  0
 39 41  1  0
 40 38  2  0
 43 18  1  0
 43 44  1  0
 45 43  1  0
 46 51  1  0
 47 46  1  0
 47 49  1  0
 48 51  1  0
 48 49  1  0
 49 50  1  1
 51  3  1  0
 52 46  2  0
 53 54  1  0
 53 49  1  0
 55 66  2  0
 56 54  1  0
 56 61  1  0
 57 65  1  0
 57 67  1  0
 58 64  1  0
 58 60  1  0
 59 65  1  0
 60 61  2  0
 60 59  1  0
 62 56  2  0
 63 62  1  0
 63 58  2  0
 64 57  1  0
 65 55  1  0
 67 69  2  0
 68 67  1  0
 70 68  1  0
 71 80  2  0
 71 76  1  0
 72 68  1  0
 72 76  1  0
 73 72  1  0
 74 75  1  0
 74 73  1  0
 75 71  1  0
 76 77  2  0
 77 78  1  0
 79 78  2  0
 80 79  1  0
 81 55  1  0
 81 86  1  0
 81 82  1  0
 82 85  1  1
 82 83  1  0
 84 82  1  0
 86 89  1  0
 87 91  1  0
 87 86  1  0
 88 87  2  0
 91 90  1  0
 93 94  1  0
 93 91  1  0
 93 92  1  0
 95 97  2  0
 96 95  1  0
 96  5  1  0
 98 96  1  0
100 99  2  0
100 95  1  0
M  ISO  4   8 100  16 100  53 101  54 101
M  END
>  <TORSDO>  (97) 
F 20

>  <SCORE>  (97) 
-9.021

>  <name>  (97) 
96

>  <ligand_id>  (97) 
96

>  <original_smiles>  (97) 
[H]C([H])=C([H])C(=O)N([H])c1c(F)c(N2C(=O)C([H])([H])C(C([H])([H])[H])(C([H])([H])Oc3c([H])c([H])c4c(c3[H])C([H])([H])N(C(=O)C([H])(N([H])C(=O)C([H])(N([H])C([H])([H])[H])C([H])([H])[H])C(C([H])([H])[H])(C([H])([H])[H])C([H])([H])[H])C([H])(C(=O)N([H])C3([H])c5c([H])c([H])c([H])c([H])c5C([H])([H])C([H])([H])C3([H])[H])C4([H])[H])C2([H])[H])c([H])c([H])c1N([H])C(=O)N1C([H])([H])C([H])([H])C([H])([H])C([H])(n2nc(-c3c([H])c([H])c(Oc4c([H])c([H])c(F)c([H])c4F)c([H])c3[H])c(C(=O)N([H])[H])c2N([H])[H])C1([H])[H]

>  <smiles>  (97) 
[H]C([H])=C([H])C(=O)N([H])c1c(F)c(N2C(=O)C([H])([H])C(C([H])([H])[H])(C([H])([H])Oc3c([H])c([H])c4c(c3[H])C([H])([H])N(C(=O)C([H])(N([H])C(=O)C([H])(N([H])C([H])([H])[H])C([H])([H])[H])C(C([H])([H])[H])(C([H])([H])[H])C([H])([H])[H])C([H])(C(=O)N([H])C3([H])c5c([H])c([H])c([H])c([H])c5C([H])([H])C([H])([H])C3([H])[H])C4([H])[H])C2([H])[H])c([H])c([H])c1N([H])C(=O)N1C([H])([H])C([H])([H])C([H])([H])C([H])(n2nc(-c3c([H])c([H])c(Oc4c([H])c([H])c(F)c([H])c4F)c([H])c3[H])c(C(=O)N([H])[H])c2N([H])[H])C1([H])[H]

$$$$
