0:0:0
     RDKit          3D

 90 98  0  0  1  0  0  0  0  0999 V2000
  -30.6580  -20.1120   19.2790 C   0  0  0  0  0  3  0  0  0  0  0  0
  -31.4160  -19.0270   18.8050 C   0  0  0  0  0  3  0  0  0  0  0  0
  -29.2600  -18.5290   20.4720 C   0  0  0  0  0  3  0  0  0  0  0  0
  -29.5210  -19.9220   20.0880 C   0  0  0  0  0  0  0  0  0  0  0  0
  -30.0630  -17.3750   20.0480 C   0  0  0  0  0  0  0  0  0  0  0  0
  -31.1110  -17.6940   19.1390 C   0  0  0  0  0  0  0  0  0  0  0  0
  -31.8190  -16.7360   18.5000 F   0  0  0  0  0  0  0  0  0  0  0  0
  -30.5580  -14.7800   20.3330 C   0  0  0  0  0  0  0  0  0  0  0  0
  -30.3510  -12.4880   19.3660 C   0  0  0  0  0  2  0  0  0  0  0  0
  -29.4180  -12.5450   18.1380 C   0  0  0  0  0  2  0  0  0  0  0  0
  -27.9470  -12.3790   18.5670 C   0  0  0  0  0  2  0  0  0  0  0  0
  -27.5680  -13.2820   19.7700 C   0  0  0  0  0  3  0  0  0  0  0  0
  -28.6240  -13.2220   20.8940 C   0  0  0  0  0  2  0  0  0  0  0  0
  -29.9180  -13.5610   20.2920 N   0  0  0  0  0  0  0  0  0  0  0  0
  -31.7730  -14.8050   20.1320 O   0  0  0  0  0  0  0  0  0  0  0  0
  -29.7900  -15.9460   20.4300 N   0  0  0  0  0  0  0  0  0  0  0  0
  -28.8460  -15.7680   20.7340 H   0  0  0  0  0  0  0  0  0  0  0  0
  -25.1830  -13.8760   20.4900 C   0  0  0  0  0  0  0  0  0  0  0  0
  -24.1170  -13.1030   20.8600 C   0  0  0  0  0  0  0  0  0  0  0  0
  -24.5820  -11.7520   20.8440 C   0  0  0  0  0  0  0  0  0  0  0  0
  -26.2280  -12.9960   20.2640 N   0  0  0  0  0  0  0  0  0  0  0  0
  -25.8750  -11.7140   20.5440 N   0  0  0  0  0  0  0  0  0  0  0  0
  -23.8570  -10.4900   21.0400 C   0  0  0  0  0  0  0  0  0  0  0  0
  -24.2920   -9.5230   21.9710 C   0  0  0  0  0  3  0  0  0  0  0  0
  -23.5640   -8.3260   22.1540 C   0  0  0  0  0  3  0  0  0  0  0  0
  -22.3870   -8.0890   21.4050 C   0  0  0  0  0  0  0  0  0  0  0  0
  -21.9730   -9.0450   20.4610 C   0  0  0  0  0  3  0  0  0  0  0  0
  -22.7010  -10.2330   20.2770 C   0  0  0  0  0  3  0  0  0  0  0  0
  -21.6300   -6.9460   21.4980 O   0  0  0  0  0  0  0  0  0  0  0  0
  -21.5960   -6.1970   22.6470 C   0  0  0  0  0  0  0  0  0  0  0  0
  -21.1970   -6.7490   23.8850 C   0  0  0  0  0  3  0  0  0  0  0  0
  -21.1110   -5.9270   25.0260 C   0  0  0  0  0  3  0  0  0  0  0  0
  -21.4120   -4.5540   24.9310 C   0  0  0  0  0  0  0  0  0  0  0  0
  -21.8030   -4.0030   23.6980 C   0  0  0  0  0  3  0  0  0  0  0  0
  -21.8920   -4.8220   22.5590 C   0  0  0  0  0  0  0  0  0  0  0  0
  -22.2500   -4.2830   21.3680 F   0  0  0  0  0  0  0  0  0  0  0  0
  -21.3210   -3.7620   26.0240 F   0  0  0  0  0  0  0  0  0  0  0  0
  -22.7160  -13.5800   21.1150 C   0  0  0  0  0  0  0  0  0  0  0  0
  -21.9840  -12.8890   21.9810 N   0  0  0  0  0  0  0  0  0  0  0  0
  -22.2810  -14.6000   20.5820 O   0  0  0  0  0  0  0  0  0  0  0  0
  -22.3480  -12.0620   22.4310 H   0  0  0  0  0  0  0  0  0  0  0  0
  -21.0440  -13.1890   22.1960 H   0  0  0  0  0  0  0  0  0  0  0  0
  -25.3480  -15.2450   20.3000 N   0  0  0  0  0  0  0  0  0  0  0  0
  -24.5800  -15.8990   20.4110 H   0  0  0  0  0  0  0  0  0  0  0  0
  -26.1860  -15.6810   19.9350 H   0  0  0  0  0  0  0  0  0  0  0  0
  -28.6700  -21.2110   20.3630 C   0  0  0  0  0  3  0  0  0  0  0  0
  -29.0220  -22.4730   20.1610 N   0  0  0  0  0  0  0  0  0  0  0  0
  -28.0560  -23.6590   20.0570 C   0  0  0  0  0  2  0  0  0  0  0  0
  -28.3910  -25.0530   20.8240 C   0  0  0  0  0  2  0  0  0  0  0  0
  -28.3910  -26.4300   20.2120 O   0  0  0  0  0  0  0  0  0  0  0  0
  -24.6230  -31.8740   23.2470 C   0  0  0  0  0  0  0  0  0  0  0  0
  -27.2650  -27.2760   20.2430 C   0  0  0  0  0  0  0  0  0  0  0  0
  -23.4360  -30.4630   21.6030 C   0  0  0  0  0  3  0  0  0  0  0  0
  -24.9020  -28.9060   20.1950 C   0  0  0  0  0  0  0  0  0  0  0  0
  -25.9780  -30.7850   21.4350 C   0  0  0  0  0  2  0  0  0  0  0  0
  -26.0670  -29.3980   20.7970 C   0  0  0  0  0  0  0  0  0  0  0  0
  -27.2550  -28.5980   20.8010 C   0  0  0  0  0  3  0  0  0  0  0  0
  -26.0780  -26.8370   19.6270 C   0  0  0  0  0  3  0  0  0  0  0  0
  -24.9130  -27.6330   19.5960 C   0  0  0  0  0  3  0  0  0  0  0  0
  -23.6640  -29.7840   20.2270 C   0  0  0  0  0  2  0  0  0  0  0  0
  -24.6980  -31.0590   22.1530 N   0  0  0  0  0  0  0  0  0  0  0  0
  -23.5350  -32.1470   23.7730 O   0  0  0  0  0  0  0  0  0  0  0  0
  -22.7690  -29.4490   22.5630 C   0  0  0  0  0  0  0  0  0  0  0  0
  -21.4420  -29.2710   22.4340 N   0  0  0  0  0  0  0  0  0  0  0  0
  -23.4440  -28.8240   23.3850 O   0  0  0  0  0  0  0  0  0  0  0  0
  -20.9530  -29.8210   21.7420 H   0  0  0  0  0  0  0  0  0  0  0  0
  -18.0670  -28.0720   22.9310 C   0  0  0  0  0  0  0  0  0  0  0  0
  -20.6230  -28.3370   23.2070 C   0  0  0  0  0  3  0  0  0  0  0  0
  -20.7250  -26.9020   22.6390 C   0  0  0  0  0  2  0  0  0  0  0  0
  -19.6290  -26.5810   21.6160 C   0  0  0  0  0  2  0  0  0  0  0  0
  -18.2480  -26.7200   22.2610 C   0  0  0  0  0  2  0  0  0  0  0  0
  -19.1820  -28.8380   23.3610 C   0  0  0  0  0  0  0  0  0  0  0  0
  -18.9590  -30.1040   23.9460 C   0  0  0  0  0  3  0  0  0  0  0  0
  -17.6520  -30.6000   24.1100 C   0  0  0  0  0  3  0  0  0  0  0  0
  -16.5500  -29.8290   23.6980 C   0  0  0  0  0  3  0  0  0  0  0  0
  -16.7590  -28.5670   23.1140 C   0  0  0  0  0  3  0  0  0  0  0  0
  -25.8980  -32.5140   23.8760 C   0  0  0  0  0  3  0  0  0  0  0  0
  -26.4060  -31.7510   25.1610 C   0  0  1  0  0  0  0  0  0  0  0  0
  -25.3070  -31.5200   26.2220 C   0  0  0  0  0  1  0  0  0  0  0  0
  -26.9930  -30.3710   24.7820 C   0  0  0  0  0  1  0  0  0  0  0  0
  -27.5510  -32.5510   25.8250 C   0  0  0  0  0  1  0  0  0  0  0  0
  -25.5820  -33.9130   24.1990 N   0  0  0  0  0  0  0  0  0  0  0  0
  -25.9150  -34.9660   23.4390 C   0  0  0  0  0  0  0  0  0  0  0  0
  -26.5880  -34.8610   22.4110 O   0  0  0  0  0  0  0  0  0  0  0  0
  -24.9830  -34.0670   24.9970 H   0  0  0  0  0  0  0  0  0  0  0  0
  -24.1810  -36.7530   23.0770 C   0  0  0  0  0  1  0  0  0  0  0  0
  -25.4220  -36.3550   23.8910 C   0  0  0  0  0  3  0  0  0  0  0  0
  -27.5540  -37.2520   24.7190 C   0  0  0  0  0  1  0  0  0  0  0  0
  -26.4520  -37.4110   23.7730 N   0  0  0  0  0  0  0  0  0  0  0  0
  -26.0420  -38.3300   23.9140 H   0  0  0  0  0  0  0  0  0  0  0  0
  1  4  1  0
  2  6  1  0
  2  1  2  0
  4 46  1  0
  4  3  2  0
  5 16  1  0
  5  3  1  0
  6  5  2  0
  7  6  1  0
  8 16  1  0
  9 14  1  0
 10 11  1  0
 10  9  1  0
 12 11  1  0
 12 21  1  0
 12 13  1  0
 14  8  1  0
 14 13  1  0
 15  8  2  0
 16 17  1  0
 18 19  2  0
 19 38  1  0
 20 19  1  0
 20 23  1  0
 21 18  1  0
 21 22  1  0
 22 20  2  0
 23 24  1  0
 24 25  2  0
 26 29  1  0
 26 25  1  0
 27 26  2  0
 28 27  1  0
 28 23  2  0
 29 30  1  0
 30 31  1  0
 31 32  2  0
 33 32  1  0
 33 37  1  0
 34 33  2  0
 35 30  2  0
 35 34  1  0
 36 35  1  0
 38 39  1  0
 39 42  1  0
 39 41  1  0
 40 38  2  0
 43 44  1  0
 43 18  1  0
 45 43  1  0
 47 46  2  0
 48 47  1  0
 48 49  1  0
 50 52  1  0
 50 49  1  0
 51 62  2  0
 52 57  1  0
 53 61  1  0
 53 63  1  0
 54 60  1  0
 54 56  1  0
 55 61  1  0
 56 57  2  0
 56 55  1  0
 58 52  2  0
 59 58  1  0
 59 54  2  0
 60 53  1  0
 61 51  1  0
 63 65  2  0
 64 63  1  0
 66 64  1  0
 67 76  2  0
 67 72  1  0
 68 64  1  0
 68 72  1  0
 69 68  1  0
 70 71  1  0
 70 69  1  0
 71 67  1  0
 72 73  2  0
 73 74  1  0
 75 74  2  0
 76 75  1  0
 77 51  1  0
 77 82  1  0
 77 78  1  0
 78 81  1  1
 78 79  1  0
 80 78  1  0
 82 85  1  0
 83 87  1  0
 83 82  1  0
 84 83  2  0
 87 86  1  0
 89 87  1  0
 89 90  1  0
 89 88  1  0
M  ISO  4   8 100  16 100  49 101  50 101
M  END
>  <TORSDO>  (1) 
F 19

>  <SCORE>  (1) 
-14.248

>  <name>  (1) 
0

>  <ligand_id>  (1) 
0

>  <original_smiles>  (1) 
[H]C(=NC([H])([H])C([H])([H])Oc1c([H])c([H])c2c(c1[H])C([H])([H])N(C(=O)C([H])(N([H])C(=O)C([H])(N([H])C([H])([H])[H])C([H])([H])[H])C(C([H])([H])[H])(C([H])([H])[H])C([H])([H])[H])C([H])(C(=O)N([H])C1([H])c3c([H])c([H])c([H])c([H])c3C([H])([H])C([H])([H])C1([H])[H])C2([H])[H])c1c([H])c([H])c(F)c(N([H])C(=O)N2C([H])([H])C([H])([H])C([H])([H])C([H])(n3nc(-c4c([H])c([H])c(Oc5c([H])c([H])c(F)c([H])c5F)c([H])c4[H])c(C(=O)N([H])[H])c3N([H])[H])C2([H])[H])c1[H]

>  <smiles>  (1) 
[H]C(=NC([H])([H])C([H])([H])Oc1c([H])c([H])c2c(c1[H])C([H])([H])N(C(=O)C([H])(N([H])C(=O)C([H])(N([H])C([H])([H])[H])C([H])([H])[H])C(C([H])([H])[H])(C([H])([H])[H])C([H])([H])[H])C([H])(C(=O)N([H])C1([H])c3c([H])c([H])c([H])c([H])c3C([H])([H])C([H])([H])C1([H])[H])C2([H])[H])c1c([H])c([H])c(F)c(N([H])C(=O)N2C([H])([H])C([H])([H])C([H])([H])C([H])(n3nc(-c4c([H])c([H])c(Oc5c([H])c([H])c(F)c([H])c5F)c([H])c4[H])c(C(=O)N([H])[H])c3N([H])[H])C2([H])[H])c1[H]

$$$$
1:0:0
     RDKit          3D

 99108  0  0  1  0  0  0  0  0999 V2000
  -28.8570  -19.9530   18.9850 C   0  0  0  0  0  3  0  0  0  0  0  0
  -29.3170  -17.5420   18.9230 C   0  0  0  0  0  3  0  0  0  0  0  0
  -30.1460  -18.9140   20.7630 C   0  0  0  0  0  3  0  0  0  0  0  0
  -28.7010  -18.6860   18.3790 C   0  0  0  0  0  0  0  0  0  0  0  0
  -29.5880  -20.1430   20.1820 C   0  0  0  0  0  0  0  0  0  0  0  0
  -30.0260  -17.5910   20.1400 C   0  0  0  0  0  0  0  0  0  0  0  0
  -31.0750  -15.2090   20.1740 C   0  0  0  0  0  0  0  0  0  0  0  0
  -30.8300  -13.0090   19.0170 C   0  0  0  0  0  2  0  0  0  0  0  0
  -29.8410  -13.1870   17.8420 C   0  0  0  0  0  2  0  0  0  0  0  0
  -28.3870  -12.9940   18.3140 C   0  0  0  0  0  2  0  0  0  0  0  0
  -28.0780  -13.7740   19.6210 C   0  0  0  0  0  3  0  0  0  0  0  0
  -29.1840  -13.5820   20.6850 C   0  0  0  0  0  2  0  0  0  0  0  0
  -30.4610  -13.9790   20.0750 N   0  0  0  0  0  0  0  0  0  0  0  0
  -32.2030  -15.3680   19.6940 O   0  0  0  0  0  0  0  0  0  0  0  0
  -30.3830  -16.2750   20.7320 N   0  0  0  0  0  0  0  0  0  0  0  0
  -29.6830  -15.9490   21.3830 H   0  0  0  0  0  0  0  0  0  0  0  0
  -25.7250  -14.3210   20.4830 C   0  0  0  0  0  0  0  0  0  0  0  0
  -24.6720  -13.5280   20.8460 C   0  0  0  0  0  0  0  0  0  0  0  0
  -25.1250  -12.1810   20.7050 C   0  0  0  0  0  0  0  0  0  0  0  0
  -26.7530  -13.4570   20.1440 N   0  0  0  0  0  0  0  0  0  0  0  0
  -26.4000  -12.1590   20.3370 N   0  0  0  0  0  0  0  0  0  0  0  0
  -24.4000  -10.9100   20.8430 C   0  0  0  0  0  0  0  0  0  0  0  0
  -24.7920   -9.9290   21.7800 C   0  0  0  0  0  3  0  0  0  0  0  0
  -24.0660   -8.7260   21.9050 C   0  0  0  0  0  3  0  0  0  0  0  0
  -22.9340   -8.4930   21.0880 C   0  0  0  0  0  0  0  0  0  0  0  0
  -22.5610   -9.4600   20.1390 C   0  0  0  0  0  3  0  0  0  0  0  0
  -23.2890  -10.6550   20.0130 C   0  0  0  0  0  3  0  0  0  0  0  0
  -22.1820   -7.3430   21.1240 O   0  0  0  0  0  0  0  0  0  0  0  0
  -21.9910   -6.6430   22.2880 C   0  0  0  0  0  0  0  0  0  0  0  0
  -21.3840   -7.2300   23.4200 C   0  0  0  0  0  3  0  0  0  0  0  0
  -21.1450   -6.4540   24.5710 C   0  0  0  0  0  3  0  0  0  0  0  0
  -21.5010   -5.0920   24.5910 C   0  0  0  0  0  0  0  0  0  0  0  0
  -22.1020   -4.5050   23.4640 C   0  0  0  0  0  3  0  0  0  0  0  0
  -22.3420   -5.2770   22.3150 C   0  0  0  0  0  0  0  0  0  0  0  0
  -22.9030   -4.7010   21.2230 F   0  0  0  0  0  0  0  0  0  0  0  0
  -21.2630   -4.3440   25.6940 F   0  0  0  0  0  0  0  0  0  0  0  0
  -23.2910  -13.9910   21.2130 C   0  0  0  0  0  0  0  0  0  0  0  0
  -22.6130  -13.2650   22.0950 N   0  0  0  0  0  0  0  0  0  0  0  0
  -22.8220  -15.0300   20.7510 O   0  0  0  0  0  0  0  0  0  0  0  0
  -23.0050  -12.4220   22.4890 H   0  0  0  0  0  0  0  0  0  0  0  0
  -21.6920  -13.5590   22.3850 H   0  0  0  0  0  0  0  0  0  0  0  0
  -25.8950  -15.7010   20.3910 N   0  0  0  0  0  0  0  0  0  0  0  0
  -25.1520  -16.3540   20.6060 H   0  0  0  0  0  0  0  0  0  0  0  0
  -26.7550  -16.1540   20.1100 H   0  0  0  0  0  0  0  0  0  0  0  0
  -27.8330  -18.5400   17.1690 C   0  0  0  0  0  0  0  0  0  0  0  0
  -25.8070  -19.5120   16.2570 C   0  0  0  0  0  0  0  0  0  0  0  0
  -24.7040  -20.5080   16.6060 C   0  0  0  0  0  1  0  0  0  0  0  0
  -26.7990  -19.3980   17.1530 N   0  0  0  0  0  0  0  0  0  0  0  0
  -28.0690  -17.6570   16.3380 O   0  0  0  0  0  0  0  0  0  0  0  0
  -25.7210  -18.8760   15.2010 O   0  0  0  0  0  0  0  0  0  0  0  0
  -26.7450  -20.0050   17.9570 H   0  0  0  0  0  0  0  0  0  0  0  0
  -30.2950  -22.0300   21.7870 C   0  0  0  0  0  0  0  0  0  0  0  0
  -30.2580  -23.5780   21.9050 C   0  0  0  0  0  2  0  0  0  0  0  0
  -29.1450  -22.7850   19.9700 C   0  0  0  0  0  2  0  0  0  0  0  0
  -29.1970  -24.0770   20.9030 C   0  0  0  0  0  3  0  0  0  0  0  0
  -29.6590  -21.5590   20.6920 N   0  0  0  0  0  0  0  0  0  0  0  0
  -30.8660  -21.3420   22.6380 O   0  0  0  0  0  0  0  0  0  0  0  0
  -29.3900  -25.5450   20.2080 C   0  0  0  0  0  2  0  0  0  0  0  0
  -29.1320  -26.8840   20.8510 O   0  0  0  0  0  0  0  0  0  0  0  0
  -24.8830  -32.1350   23.4790 C   0  0  0  0  0  0  0  0  0  0  0  0
  -27.9700  -27.6750   20.6680 C   0  0  0  0  0  0  0  0  0  0  0  0
  -23.8870  -30.6600   21.7690 C   0  0  0  0  0  3  0  0  0  0  0  0
  -25.5250  -29.1850   20.4610 C   0  0  0  0  0  0  0  0  0  0  0  0
  -26.4140  -31.1160   21.7690 C   0  0  0  0  0  2  0  0  0  0  0  0
  -26.6180  -29.7340   21.1420 C   0  0  0  0  0  0  0  0  0  0  0  0
  -27.8370  -28.9900   21.2360 C   0  0  0  0  0  3  0  0  0  0  0  0
  -26.8460  -27.1870   19.9640 C   0  0  0  0  0  3  0  0  0  0  0  0
  -25.6470  -27.9210   19.8600 C   0  0  0  0  0  3  0  0  0  0  0  0
  -24.2410  -29.9910   20.4130 C   0  0  0  0  0  2  0  0  0  0  0  0
  -25.0750  -31.3240   22.3960 N   0  0  0  0  0  0  0  0  0  0  0  0
  -23.7480  -32.3510   23.9310 O   0  0  0  0  0  0  0  0  0  0  0  0
  -23.2130  -29.6130   22.6880 C   0  0  0  0  0  0  0  0  0  0  0  0
  -21.9180  -29.3400   22.4520 N   0  0  0  0  0  0  0  0  0  0  0  0
  -23.8580  -29.0500   23.5760 O   0  0  0  0  0  0  0  0  0  0  0  0
  -21.4550  -29.8530   21.7160 H   0  0  0  0  0  0  0  0  0  0  0  0
  -18.5930  -27.9330   22.7080 C   0  0  0  0  0  0  0  0  0  0  0  0
  -21.1030  -28.3560   23.1660 C   0  0  0  0  0  3  0  0  0  0  0  0
  -21.3380  -26.9310   22.6120 C   0  0  0  0  0  2  0  0  0  0  0  0
  -20.3380  -26.5340   21.5220 C   0  0  0  0  0  2  0  0  0  0  0  0
  -18.9050  -26.5950   22.0590 C   0  0  0  0  0  2  0  0  0  0  0  0
  -19.6260  -28.7660   23.2130 C   0  0  0  0  0  0  0  0  0  0  0  0
  -19.2830  -30.0140   23.7770 C   0  0  0  0  0  3  0  0  0  0  0  0
  -17.9410  -30.4320   23.8420 C   0  0  0  0  0  3  0  0  0  0  0  0
  -16.9210  -29.5960   23.3540 C   0  0  0  0  0  3  0  0  0  0  0  0
  -17.2480  -28.3480   22.7940 C   0  0  0  0  0  3  0  0  0  0  0  0
  -26.0780  -32.8470   24.1880 C   0  0  0  0  0  3  0  0  0  0  0  0
  -26.5100  -32.1440   25.5330 C   0  0  1  0  0  0  0  0  0  0  0  0
  -25.3230  -31.7880   26.4590 C   0  0  0  0  0  1  0  0  0  0  0  0
  -27.2910  -30.8410   25.2440 C   0  0  0  0  0  1  0  0  0  0  0  0
  -27.4690  -33.0660   26.3220 C   0  0  0  0  0  1  0  0  0  0  0  0
  -25.6770  -34.2390   24.4410 N   0  0  0  0  0  0  0  0  0  0  0  0
  -26.0030  -35.2810   23.6640 C   0  0  0  0  0  0  0  0  0  0  0  0
  -26.7400  -35.1750   22.6790 O   0  0  0  0  0  0  0  0  0  0  0  0
  -25.0310  -34.3920   25.2020 H   0  0  0  0  0  0  0  0  0  0  0  0
  -24.2080  -36.9670   23.1420 C   0  0  0  0  0  1  0  0  0  0  0  0
  -25.4200  -36.6590   24.0370 C   0  0  0  0  0  3  0  0  0  0  0  0
  -27.4570  -37.6870   24.9420 C   0  0  0  0  0  1  0  0  0  0  0  0
  -26.4020  -37.7600   23.9360 N   0  0  0  0  0  0  0  0  0  0  0  0
  -25.9420  -38.6620   24.0230 H   0  0  0  0  0  0  0  0  0  0  0  0
  1  5  1  0
  2  6  2  0
  4  2  1  0
  4  1  2  0
  5 56  1  0
  5  3  2  0
  6 15  1  0
  6  3  1  0
  7 15  1  0
  8 13  1  0
  9 10  1  0
  9  8  1  0
 11 10  1  0
 11 20  1  0
 11 12  1  0
 13  7  1  0
 13 12  1  0
 14  7  2  0
 15 16  1  0
 17 18  2  0
 18 37  1  0
 19 22  1  0
 19 18  1  0
 20 21  1  0
 20 17  1  0
 21 19  2  0
 22 23  1  0
 23 24  2  0
 25 28  1  0
 25 24  1  0
 26 25  2  0
 27 26  1  0
 27 22  2  0
 28 29  1  0
 29 34  2  0
 29 30  1  0
 30 31  2  0
 31 32  1  0
 32 36  1  0
 33 32  2  0
 34 33  1  0
 35 34  1  0
 37 38  1  0
 38 41  1  0
 38 40  1  0
 39 37  2  0
 42 17  1  0
 42 43  1  0
 44 42  1  0
 45  4  1  0
 46 47  1  0
 46 48  1  0
 48 45  1  0
 48 51  1  0
 49 45  2  0
 50 46  2  0
 52 53  1  0
 52 57  2  0
 54 56  1  0
 54 55  1  0
 55 58  1  0
 55 53  1  0
 56 52  1  0
 58 59  1  0
 60 71  2  0
 61 59  1  0
 61 66  1  0
 62 70  1  0
 62 72  1  0
 63 65  1  0
 64 70  1  0
 65 66  2  0
 65 64  1  0
 67 61  2  0
 68 67  1  0
 68 63  2  0
 69 63  1  0
 69 62  1  0
 70 60  1  0
 72 74  2  0
 73 72  1  0
 75 73  1  0
 76 85  2  0
 76 81  1  0
 77 73  1  0
 77 81  1  0
 78 77  1  0
 79 80  1  0
 79 78  1  0
 80 76  1  0
 81 82  2  0
 82 83  1  0
 84 83  2  0
 85 84  1  0
 86 60  1  0
 86 91  1  0
 86 87  1  0
 87 90  1  1
 87 88  1  0
 89 87  1  0
 91 94  1  0
 92 96  1  0
 92 91  1  0
 93 92  2  0
 96 95  1  0
 98 99  1  0
 98 96  1  0
 98 97  1  0
M  ISO  4   7 100  15 100  58 101  59 101
M  END
>  <TORSDO>  (2) 
F 19

>  <SCORE>  (2) 
-9.679

>  <name>  (2) 
1

>  <ligand_id>  (2) 
1

>  <original_smiles>  (2) 
[H]c1c([H])c([H])c2c(c1[H])C([H])([H])C([H])([H])C([H])([H])C2([H])N([H])C(=O)C1([H])N(C(=O)C([H])(N([H])C(=O)C([H])(N([H])C([H])([H])[H])C([H])([H])[H])C(C([H])([H])[H])(C([H])([H])[H])C([H])([H])[H])C([H])([H])c2c([H])c(OC([H])([H])C3([H])C([H])([H])C(=O)N(c4c([H])c(C(=O)N([H])C(=O)C([H])([H])[H])c([H])c(N([H])C(=O)N5C([H])([H])C([H])([H])C([H])([H])C([H])(n6nc(-c7c([H])c([H])c(Oc8c([H])c([H])c(F)c([H])c8F)c([H])c7[H])c(C(=O)N([H])[H])c6N([H])[H])C5([H])[H])c4[H])C3([H])[H])c([H])c([H])c2C1([H])[H]

>  <smiles>  (2) 
[H]c1c([H])c([H])c2c(c1[H])C([H])([H])C([H])([H])C([H])([H])C2([H])N([H])C(=O)C1([H])N(C(=O)C([H])(N([H])C(=O)C([H])(N([H])C([H])([H])[H])C([H])([H])[H])C(C([H])([H])[H])(C([H])([H])[H])C([H])([H])[H])C([H])([H])c2c([H])c(OC([H])([H])C3([H])C([H])([H])C(=O)N(c4c([H])c(C(=O)N([H])C(=O)C([H])([H])[H])c([H])c(N([H])C(=O)N5C([H])([H])C([H])([H])C([H])([H])C([H])(n6nc(-c7c([H])c([H])c(Oc8c([H])c([H])c(F)c([H])c8F)c([H])c7[H])c(C(=O)N([H])[H])c6N([H])[H])C5([H])[H])c4[H])C3([H])[H])c([H])c([H])c2C1([H])[H]

$$$$
2:0:0
     RDKit          3D

 94103  0  0  1  0  0  0  0  0999 V2000
  -30.5880  -22.0810   19.6840 C   0  0  0  0  0  3  0  0  0  0  0  0
  -30.1940  -23.3680   19.5830 C   0  0  0  0  0  0  0  0  0  0  0  0
  -28.4080  -22.0070   20.2250 C   0  0  0  0  0  2  0  0  0  0  0  0
  -28.7020  -23.5260   19.7640 C   0  0  0  0  0  3  0  0  0  0  0  0
  -29.6050  -21.1310   19.9430 N   0  0  0  0  0  0  0  0  0  0  0  0
  -30.9880  -18.6950   22.4920 C   0  0  0  0  0  3  0  0  0  0  0  0
  -30.9310  -17.4430   21.8480 C   0  0  0  0  0  3  0  0  0  0  0  0
  -29.8100  -18.5310   19.9840 C   0  0  0  0  0  3  0  0  0  0  0  0
  -30.4930  -19.8810   21.9020 C   0  0  0  0  0  0  0  0  0  0  0  0
  -29.9210  -19.8610   20.5960 C   0  0  0  0  0  0  0  0  0  0  0  0
  -30.3280  -17.2960   20.5840 C   0  0  0  0  0  0  0  0  0  0  0  0
  -30.6280  -21.1680   22.7150 C   0  0  0  0  0  1  0  0  0  0  0  0
  -30.9250  -14.7610   20.0970 C   0  0  0  0  0  0  0  0  0  0  0  0
  -30.6690  -12.4710   19.0980 C   0  0  0  0  0  2  0  0  0  0  0  0
  -29.6920  -12.5340   17.9030 C   0  0  0  0  0  2  0  0  0  0  0  0
  -28.2320  -12.3990   18.3860 C   0  0  0  0  0  2  0  0  0  0  0  0
  -27.9140  -13.3130   19.6000 C   0  0  0  0  0  3  0  0  0  0  0  0
  -29.0070  -13.2130   20.6850 C   0  0  0  0  0  2  0  0  0  0  0  0
  -30.2780  -13.5450   20.0350 N   0  0  0  0  0  0  0  0  0  0  0  0
  -32.1320  -14.8230   19.8430 O   0  0  0  0  0  0  0  0  0  0  0  0
  -30.1280  -15.9060   20.0840 N   0  0  0  0  0  0  0  0  0  0  0  0
  -29.1680  -15.6950   19.8600 H   0  0  0  0  0  0  0  0  0  0  0  0
  -25.5820  -13.9890   20.4240 C   0  0  0  0  0  0  0  0  0  0  0  0
  -24.4990  -13.2520   20.8170 C   0  0  0  0  0  0  0  0  0  0  0  0
  -24.9040  -11.8840   20.7480 C   0  0  0  0  0  0  0  0  0  0  0  0
  -26.5800  -13.0710   20.1350 N   0  0  0  0  0  0  0  0  0  0  0  0
  -26.1820  -11.7990   20.3940 N   0  0  0  0  0  0  0  0  0  0  0  0
  -24.1330  -10.6500   20.9380 C   0  0  0  0  0  0  0  0  0  0  0  0
  -24.5370   -9.6570   21.8550 C   0  0  0  0  0  3  0  0  0  0  0  0
  -23.7660   -8.4890   22.0320 C   0  0  0  0  0  3  0  0  0  0  0  0
  -22.5750   -8.3060   21.2900 C   0  0  0  0  0  0  0  0  0  0  0  0
  -22.1890   -9.2870   20.3590 C   0  0  0  0  0  3  0  0  0  0  0  0
  -22.9610  -10.4460   20.1810 C   0  0  0  0  0  3  0  0  0  0  0  0
  -21.7750   -7.1930   21.3780 O   0  0  0  0  0  0  0  0  0  0  0  0
  -21.6920   -6.4560   22.5330 C   0  0  0  0  0  0  0  0  0  0  0  0
  -21.2610   -7.0250   23.7500 C   0  0  0  0  0  3  0  0  0  0  0  0
  -21.1250   -6.2150   24.8960 C   0  0  0  0  0  3  0  0  0  0  0  0
  -21.4080   -4.8390   24.8250 C   0  0  0  0  0  0  0  0  0  0  0  0
  -21.8300   -4.2690   23.6110 C   0  0  0  0  0  3  0  0  0  0  0  0
  -21.9700   -5.0750   22.4680 C   0  0  0  0  0  0  0  0  0  0  0  0
  -22.3580   -4.5150   21.2960 F   0  0  0  0  0  0  0  0  0  0  0  0
  -21.2700   -4.0600   25.9230 F   0  0  0  0  0  0  0  0  0  0  0  0
  -23.1310  -13.7850   21.1400 C   0  0  0  0  0  0  0  0  0  0  0  0
  -22.4040  -13.1080   22.0200 N   0  0  0  0  0  0  0  0  0  0  0  0
  -22.7210  -14.8330   20.6450 O   0  0  0  0  0  0  0  0  0  0  0  0
  -22.7470  -12.2540   22.4360 H   0  0  0  0  0  0  0  0  0  0  0  0
  -21.4890  -13.4450   22.2820 H   0  0  0  0  0  0  0  0  0  0  0  0
  -25.7900  -15.3570   20.2600 N   0  0  0  0  0  0  0  0  0  0  0  0
  -25.0360  -16.0240   20.3870 H   0  0  0  0  0  0  0  0  0  0  0  0
  -26.6210  -15.7730   19.8610 H   0  0  0  0  0  0  0  0  0  0  0  0
  -32.1420  -24.7420   20.1420 C   0  0  0  0  0  2  0  0  0  0  0  0
  -31.1010  -24.4700   19.3390 C   0  0  0  0  0  3  0  0  0  0  0  0
  -28.1700  -24.7850   20.6620 C   0  0  0  0  0  2  0  0  0  0  0  0
  -28.4130  -26.2540   20.3750 O   0  0  0  0  0  0  0  0  0  0  0  0
  -24.6270  -31.8010   23.2580 C   0  0  0  0  0  0  0  0  0  0  0  0
  -27.3190  -27.1530   20.3430 C   0  0  0  0  0  0  0  0  0  0  0  0
  -23.4730  -30.3740   21.6070 C   0  0  0  0  0  3  0  0  0  0  0  0
  -24.9660  -28.8020   20.2450 C   0  0  0  0  0  0  0  0  0  0  0  0
  -26.0190  -30.6860   21.4860 C   0  0  0  0  0  2  0  0  0  0  0  0
  -26.1220  -29.2900   20.8680 C   0  0  0  0  0  0  0  0  0  0  0  0
  -27.3040  -28.4770   20.9060 C   0  0  0  0  0  3  0  0  0  0  0  0
  -26.1420  -26.7390   19.6910 C   0  0  0  0  0  3  0  0  0  0  0  0
  -24.9820  -27.5340   19.6450 C   0  0  0  0  0  3  0  0  0  0  0  0
  -23.7300  -29.6800   20.2440 C   0  0  0  0  0  2  0  0  0  0  0  0
  -24.7250  -30.9710   22.1740 N   0  0  0  0  0  0  0  0  0  0  0  0
  -23.5280  -32.0830   23.7560 O   0  0  0  0  0  0  0  0  0  0  0  0
  -22.7850  -29.3700   22.5650 C   0  0  0  0  0  0  0  0  0  0  0  0
  -21.4630  -29.1840   22.4030 N   0  0  0  0  0  0  0  0  0  0  0  0
  -23.4410  -28.7640   23.4150 O   0  0  0  0  0  0  0  0  0  0  0  0
  -20.9930  -29.7300   21.6940 H   0  0  0  0  0  0  0  0  0  0  0  0
  -18.0830  -27.9460   22.7910 C   0  0  0  0  0  0  0  0  0  0  0  0
  -20.6250  -28.2540   23.1630 C   0  0  0  0  0  3  0  0  0  0  0  0
  -20.7740  -26.8090   22.6310 C   0  0  0  0  0  2  0  0  0  0  0  0
  -19.7230  -26.4430   21.5820 C   0  0  0  0  0  2  0  0  0  0  0  0
  -18.3110  -26.5830   22.1600 C   0  0  0  0  0  2  0  0  0  0  0  0
  -19.1720  -28.7370   23.2480 C   0  0  0  0  0  0  0  0  0  0  0  0
  -18.9100  -30.0110   23.7950 C   0  0  0  0  0  3  0  0  0  0  0  0
  -17.5920  -30.4930   23.8980 C   0  0  0  0  0  3  0  0  0  0  0  0
  -16.5180  -29.7000   23.4590 C   0  0  0  0  0  3  0  0  0  0  0  0
  -16.7650  -28.4310   22.9070 C   0  0  0  0  0  3  0  0  0  0  0  0
  -25.8900  -32.4470   23.9040 C   0  0  0  0  0  3  0  0  0  0  0  0
  -26.3680  -31.7020   25.2100 C   0  0  1  0  0  0  0  0  0  0  0  0
  -25.2420  -31.4820   26.2480 C   0  0  0  0  0  1  0  0  0  0  0  0
  -26.9690  -30.3210   24.8600 C   0  0  0  0  0  1  0  0  0  0  0  0
  -27.4900  -32.5130   25.8990 C   0  0  0  0  0  1  0  0  0  0  0  0
  -25.5710  -33.8520   24.1990 N   0  0  0  0  0  0  0  0  0  0  0  0
  -25.9170  -34.8920   23.4290 C   0  0  0  0  0  0  0  0  0  0  0  0
  -26.6080  -34.7740   22.4140 O   0  0  0  0  0  0  0  0  0  0  0  0
  -24.9660  -34.0180   24.9880 H   0  0  0  0  0  0  0  0  0  0  0  0
  -24.1890  -36.6740   23.0170 C   0  0  0  0  0  1  0  0  0  0  0  0
  -25.4190  -36.2890   23.8540 C   0  0  0  0  0  3  0  0  0  0  0  0
  -27.5340  -37.2030   24.6990 C   0  0  0  0  0  1  0  0  0  0  0  0
  -26.4480  -37.3430   23.7340 N   0  0  0  0  0  0  0  0  0  0  0  0
  -26.0350  -38.2630   23.8610 H   0  0  0  0  0  0  0  0  0  0  0  0
  1  5  1  0
  2  1  2  0
  2  4  1  0
  4  3  1  0
  4 53  1  0
  5  3  1  0
  5 10  1  0
  7  6  2  0
  8 11  2  0
  8 10  1  0
  9  6  1  0
  9 12  1  0
 10  9  2  0
 11  7  1  0
 14 19  1  0
 15 16  1  0
 15 14  1  0
 17 16  1  0
 17 26  1  0
 17 18  1  0
 19 13  1  0
 19 18  1  0
 20 13  2  0
 21 13  1  0
 21 11  1  0
 22 21  1  0
 23 24  2  0
 24 43  1  0
 25 24  1  0
 25 28  1  0
 26 27  1  0
 26 23  1  0
 27 25  2  0
 28 29  1  0
 29 30  2  0
 31 34  1  0
 31 30  1  0
 32 31  2  0
 33 32  1  0
 33 28  2  0
 34 35  1  0
 35 36  1  0
 36 37  2  0
 38 37  1  0
 38 42  1  0
 39 38  2  0
 40 35  2  0
 40 39  1  0
 41 40  1  0
 43 44  1  0
 44 47  1  0
 44 46  1  0
 45 43  2  0
 48 49  1  0
 48 23  1  0
 50 48  1  0
 52  2  1  0
 52 51  2  0
 54 53  1  0
 55 66  2  0
 56 54  1  0
 56 61  1  0
 57 65  1  0
 57 67  1  0
 58 60  1  0
 59 65  1  0
 60 61  2  0
 60 59  1  0
 62 56  2  0
 63 62  1  0
 63 58  2  0
 64 58  1  0
 64 57  1  0
 65 55  1  0
 67 69  2  0
 68 67  1  0
 70 68  1  0
 71 80  2  0
 71 76  1  0
 72 68  1  0
 72 76  1  0
 73 72  1  0
 74 75  1  0
 74 73  1  0
 75 71  1  0
 76 77  2  0
 77 78  1  0
 79 78  2  0
 80 79  1  0
 81 55  1  0
 81 86  1  0
 81 82  1  0
 82 85  1  1
 82 83  1  0
 84 82  1  0
 86 89  1  0
 87 91  1  0
 87 86  1  0
 88 87  2  0
 91 90  1  0
 93 91  1  0
 93 94  1  0
 93 92  1  0
M  ISO  4  13 100  21 100  53 101  54 101
M  END
>  <TORSDO>  (3) 
F 19

>  <SCORE>  (3) 
-14.140

>  <name>  (3) 
2

>  <ligand_id>  (3) 
2

>  <original_smiles>  (3) 
[H]C([H])=C([H])C1=C([H])N(c2c([H])c(N([H])C(=O)N3C([H])([H])C([H])([H])C([H])([H])C([H])(n4nc(-c5c([H])c([H])c(Oc6c([H])c([H])c(F)c([H])c6F)c([H])c5[H])c(C(=O)N([H])[H])c4N([H])[H])C3([H])[H])c([H])c([H])c2C([H])([H])[H])C([H])([H])C1([H])C([H])([H])Oc1c([H])c([H])c2c(c1[H])C([H])([H])N(C(=O)C([H])(N([H])C(=O)C([H])(N([H])C([H])([H])[H])C([H])([H])[H])C(C([H])([H])[H])(C([H])([H])[H])C([H])([H])[H])C([H])(C(=O)N([H])C1([H])c3c([H])c([H])c([H])c([H])c3C([H])([H])C([H])([H])C1([H])[H])C2([H])[H]

>  <smiles>  (3) 
[H]C([H])=C([H])C1=C([H])N(c2c([H])c(N([H])C(=O)N3C([H])([H])C([H])([H])C([H])([H])C([H])(n4nc(-c5c([H])c([H])c(Oc6c([H])c([H])c(F)c([H])c6F)c([H])c5[H])c(C(=O)N([H])[H])c4N([H])[H])C3([H])[H])c([H])c([H])c2C([H])([H])[H])C([H])([H])C1([H])C([H])([H])Oc1c([H])c([H])c2c(c1[H])C([H])([H])N(C(=O)C([H])(N([H])C(=O)C([H])(N([H])C([H])([H])[H])C([H])([H])[H])C(C([H])([H])[H])(C([H])([H])[H])C([H])([H])[H])C([H])(C(=O)N([H])C1([H])c3c([H])c([H])c([H])c([H])c3C([H])([H])C([H])([H])C1([H])[H])C2([H])[H]

$$$$
3:0:0
     RDKit          3D

 97106  0  0  1  0  0  0  0  0999 V2000
  -28.9470  -21.6950   18.9330 C   0  0  0  0  0  0  0  0  0  0  0  0
  -28.9210  -22.5020   21.0710 C   0  0  0  0  0  2  0  0  0  0  0  0
  -28.5790  -23.2120   18.8180 C   0  0  0  0  0  3  0  0  0  0  0  0
  -28.9200  -23.8280   20.1930 C   0  0  0  0  0  3  0  0  0  0  0  0
  -29.1370  -21.2840   20.2070 N   0  0  0  0  0  0  0  0  0  0  0  0
  -29.0440  -20.9690   17.9380 O   0  0  0  0  0  0  0  0  0  0  0  0
  -30.9560  -20.1430   21.4080 C   0  0  0  0  0  3  0  0  0  0  0  0
  -31.3570  -17.7210   21.4380 C   0  0  0  0  0  3  0  0  0  0  0  0
  -31.7260  -19.0310   21.8050 C   0  0  0  0  0  0  0  0  0  0  0  0
  -29.7960  -20.0040   20.6150 C   0  0  0  0  0  0  0  0  0  0  0  0
  -30.1990  -17.4590   20.6730 C   0  0  0  0  0  0  0  0  0  0  0  0
  -29.4190  -18.6310   20.2680 C   0  0  0  0  0  0  0  0  0  0  0  0
  -32.9830  -19.2450   22.6260 C   0  0  0  0  0  1  0  0  0  0  0  0
  -28.2860  -18.4230   19.5560 F   0  0  0  0  0  0  0  0  0  0  0  0
  -30.6200  -14.8920   20.3170 C   0  0  0  0  0  0  0  0  0  0  0  0
  -30.4290  -12.6020   19.3160 C   0  0  0  0  0  2  0  0  0  0  0  0
  -29.4800  -12.6420   18.0970 C   0  0  0  0  0  2  0  0  0  0  0  0
  -28.0140  -12.4680   18.5400 C   0  0  0  0  0  2  0  0  0  0  0  0
  -27.6390  -13.3690   19.7470 C   0  0  0  0  0  3  0  0  0  0  0  0
  -28.7070  -13.3100   20.8620 C   0  0  0  0  0  2  0  0  0  0  0  0
  -29.9910  -13.6690   20.2460 N   0  0  0  0  0  0  0  0  0  0  0  0
  -31.8200  -14.9730   20.0360 O   0  0  0  0  0  0  0  0  0  0  0  0
  -29.8340  -16.0360   20.4280 N   0  0  0  0  0  0  0  0  0  0  0  0
  -28.8430  -15.8630   20.3640 H   0  0  0  0  0  0  0  0  0  0  0  0
  -25.2570  -13.9540   20.4930 C   0  0  0  0  0  0  0  0  0  0  0  0
  -24.1960  -13.1770   20.8720 C   0  0  0  0  0  0  0  0  0  0  0  0
  -24.6620  -11.8270   20.8380 C   0  0  0  0  0  0  0  0  0  0  0  0
  -26.3010  -13.0770   20.2520 N   0  0  0  0  0  0  0  0  0  0  0  0
  -25.9530  -11.7920   20.5230 N   0  0  0  0  0  0  0  0  0  0  0  0
  -23.9410  -10.5630   21.0320 C   0  0  0  0  0  0  0  0  0  0  0  0
  -24.3810   -9.5970   21.9630 C   0  0  0  0  0  3  0  0  0  0  0  0
  -23.6590   -8.3970   22.1440 C   0  0  0  0  0  3  0  0  0  0  0  0
  -22.4830   -8.1550   21.3930 C   0  0  0  0  0  0  0  0  0  0  0  0
  -22.0650   -9.1100   20.4500 C   0  0  0  0  0  3  0  0  0  0  0  0
  -22.7870  -10.3020   20.2680 C   0  0  0  0  0  3  0  0  0  0  0  0
  -21.7330   -7.0090   21.4840 O   0  0  0  0  0  0  0  0  0  0  0  0
  -21.6890   -6.2650   22.6370 C   0  0  0  0  0  0  0  0  0  0  0  0
  -21.2620   -6.8180   23.8640 C   0  0  0  0  0  3  0  0  0  0  0  0
  -21.1690   -6.0020   25.0090 C   0  0  0  0  0  3  0  0  0  0  0  0
  -21.4900   -4.6330   24.9270 C   0  0  0  0  0  0  0  0  0  0  0  0
  -21.9090   -4.0800   23.7040 C   0  0  0  0  0  3  0  0  0  0  0  0
  -22.0050   -4.8940   22.5610 C   0  0  0  0  0  0  0  0  0  0  0  0
  -22.3900   -4.3520   21.3810 F   0  0  0  0  0  0  0  0  0  0  0  0
  -21.3910   -3.8470   26.0240 F   0  0  0  0  0  0  0  0  0  0  0  0
  -22.7980  -13.6510   21.1460 C   0  0  0  0  0  0  0  0  0  0  0  0
  -22.0730  -12.9510   22.0100 N   0  0  0  0  0  0  0  0  0  0  0  0
  -22.3570  -14.6760   20.6270 O   0  0  0  0  0  0  0  0  0  0  0  0
  -22.4420  -12.1220   22.4510 H   0  0  0  0  0  0  0  0  0  0  0  0
  -21.1340  -13.2500   22.2350 H   0  0  0  0  0  0  0  0  0  0  0  0
  -25.4150  -15.3250   20.3110 N   0  0  0  0  0  0  0  0  0  0  0  0
  -24.6430  -15.9720   20.4180 H   0  0  0  0  0  0  0  0  0  0  0  0
  -26.2440  -15.7650   19.9330 H   0  0  0  0  0  0  0  0  0  0  0  0
  -30.7120  -23.7480   17.3990 C   0  0  0  0  0  1  0  0  0  0  0  0
  -28.4250  -23.8810   16.3250 C   0  0  0  0  0  1  0  0  0  0  0  0
  -29.2130  -24.0160   17.6370 C   0  0  0  0  0  3  0  0  0  0  0  0
  -28.0320  -25.1020   20.6740 C   0  0  0  0  0  2  0  0  0  0  0  0
  -28.2580  -26.5110   20.2050 O   0  0  0  0  0  0  0  0  0  0  0  0
  -24.5590  -31.9730   23.2470 C   0  0  0  0  0  0  0  0  0  0  0  0
  -27.1580  -27.3930   20.1870 C   0  0  0  0  0  0  0  0  0  0  0  0
  -23.3490  -30.5720   21.6140 C   0  0  0  0  0  3  0  0  0  0  0  0
  -24.7970  -29.0220   20.1790 C   0  0  0  0  0  0  0  0  0  0  0  0
  -25.8880  -30.8920   21.4130 C   0  0  0  0  0  2  0  0  0  0  0  0
  -25.9690  -29.5090   20.7710 C   0  0  0  0  0  0  0  0  0  0  0  0
  -27.1560  -28.7080   20.7620 C   0  0  0  0  0  3  0  0  0  0  0  0
  -25.9690  -26.9750   19.5560 C   0  0  0  0  0  3  0  0  0  0  0  0
  -24.8010  -27.7620   19.5610 C   0  0  0  0  0  3  0  0  0  0  0  0
  -23.5550  -29.8910   20.2350 C   0  0  0  0  0  2  0  0  0  0  0  0
  -24.6180  -31.1640   22.1480 N   0  0  0  0  0  0  0  0  0  0  0  0
  -23.4790  -32.2500   23.7870 O   0  0  0  0  0  0  0  0  0  0  0  0
  -22.6910  -29.5580   22.5810 C   0  0  0  0  0  0  0  0  0  0  0  0
  -21.3640  -29.3790   22.4620 N   0  0  0  0  0  0  0  0  0  0  0  0
  -23.3730  -28.9350   23.3980 O   0  0  0  0  0  0  0  0  0  0  0  0
  -20.8700  -29.9350   21.7770 H   0  0  0  0  0  0  0  0  0  0  0  0
  -17.9950  -28.1590   22.9650 C   0  0  0  0  0  0  0  0  0  0  0  0
  -20.5510  -28.4370   23.2360 C   0  0  0  0  0  3  0  0  0  0  0  0
  -20.6620  -27.0030   22.6670 C   0  0  0  0  0  2  0  0  0  0  0  0
  -19.5630  -26.6690   21.6540 C   0  0  0  0  0  2  0  0  0  0  0  0
  -18.1800  -26.8070   22.2960 C   0  0  0  0  0  2  0  0  0  0  0  0
  -19.1080  -28.9310   23.3920 C   0  0  0  0  0  0  0  0  0  0  0  0
  -18.8800  -30.1940   23.9800 C   0  0  0  0  0  3  0  0  0  0  0  0
  -17.5710  -30.6850   24.1470 C   0  0  0  0  0  3  0  0  0  0  0  0
  -16.4720  -29.9100   23.7380 C   0  0  0  0  0  3  0  0  0  0  0  0
  -16.6860  -28.6490   23.1520 C   0  0  0  0  0  3  0  0  0  0  0  0
  -25.8430  -32.6080   23.8640 C   0  0  0  0  0  3  0  0  0  0  0  0
  -26.3640  -31.8440   25.1430 C   0  0  1  0  0  0  0  0  0  0  0  0
  -25.2750  -31.6140   26.2170 C   0  0  0  0  0  1  0  0  0  0  0  0
  -26.9480  -30.4640   24.7610 C   0  0  0  0  0  1  0  0  0  0  0  0
  -27.5180  -32.6410   25.7980 C   0  0  0  0  0  1  0  0  0  0  0  0
  -25.5350  -34.0090   24.1900 N   0  0  0  0  0  0  0  0  0  0  0  0
  -25.8680  -35.0600   23.4280 C   0  0  0  0  0  0  0  0  0  0  0  0
  -26.5370  -34.9550   22.3980 O   0  0  0  0  0  0  0  0  0  0  0  0
  -24.9380  -34.1670   24.9890 H   0  0  0  0  0  0  0  0  0  0  0  0
  -24.1480  -36.8620   23.0720 C   0  0  0  0  0  1  0  0  0  0  0  0
  -25.3850  -36.4500   23.8850 C   0  0  0  0  0  3  0  0  0  0  0  0
  -27.5210  -37.3300   24.7180 C   0  0  0  0  0  1  0  0  0  0  0  0
  -26.4210  -37.4990   23.7720 N   0  0  0  0  0  0  0  0  0  0  0  0
  -26.0170  -38.4190   23.9170 H   0  0  0  0  0  0  0  0  0  0  0  0
  1  5  1  0
  3 55  1  0
  3  1  1  0
  3  4  1  0
  4 56  1  0
  4  2  1  0
  5 10  1  0
  5  2  1  0
  6  1  2  0
  7  9  1  0
  8  9  2  0
  9 13  1  0
 10  7  2  0
 11  8  1  0
 12 10  1  0
 12 11  2  0
 14 12  1  0
 15 23  1  0
 16 21  1  0
 17 18  1  0
 17 16  1  0
 19 18  1  0
 19 28  1  0
 19 20  1  0
 21 15  1  0
 21 20  1  0
 22 15  2  0
 23 11  1  0
 24 23  1  0
 25 26  2  0
 26 45  1  0
 27 26  1  0
 27 30  1  0
 28 25  1  0
 28 29  1  0
 29 27  2  0
 30 31  1  0
 31 32  2  0
 33 36  1  0
 33 32  1  0
 34 33  2  0
 35 34  1  0
 35 30  2  0
 36 37  1  0
 37 38  1  0
 38 39  2  0
 40 39  1  0
 40 44  1  0
 41 40  2  0
 42 37  2  0
 42 41  1  0
 43 42  1  0
 45 46  1  0
 46 49  1  0
 46 48  1  0
 47 45  2  0
 50 51  1  0
 50 25  1  0
 52 50  1  0
 53 55  1  0
 54 55  1  0
 57 56  1  0
 58 69  2  0
 59 57  1  0
 59 64  1  0
 60 68  1  0
 60 70  1  0
 61 67  1  0
 61 63  1  0
 62 68  1  0
 63 62  1  0
 64 63  2  0
 65 66  1  0
 65 59  2  0
 66 61  2  0
 67 60  1  0
 68 58  1  0
 70 72  2  0
 71 70  1  0
 73 71  1  0
 74 83  2  0
 74 79  1  0
 75 71  1  0
 75 79  1  0
 76 75  1  0
 77 78  1  0
 77 76  1  0
 78 74  1  0
 79 80  2  0
 80 81  1  0
 82 81  2  0
 83 82  1  0
 84 58  1  0
 84 89  1  0
 84 85  1  0
 85 88  1  1
 85 86  1  0
 87 85  1  0
 89 92  1  0
 90 94  1  0
 90 89  1  0
 91 90  2  0
 94 93  1  0
 96 94  1  0
 96 97  1  0
 96 95  1  0
M  ISO  4  15 100  23 100  56 101  57 101
M  END
>  <TORSDO>  (4) 
F 19

>  <SCORE>  (4) 
-13.991

>  <name>  (4) 
3

>  <ligand_id>  (4) 
3

>  <original_smiles>  (4) 
[H]c1c([H])c([H])c2c(c1[H])C([H])([H])C([H])([H])C([H])([H])C2([H])N([H])C(=O)C1([H])N(C(=O)C([H])(N([H])C(=O)C([H])(N([H])C([H])([H])[H])C([H])([H])[H])C(C([H])([H])[H])(C([H])([H])[H])C([H])([H])[H])C([H])([H])c2c([H])c(OC([H])([H])C3([H])C([H])([H])N(c4c([H])c(C([H])([H])[H])c([H])c(N([H])C(=O)N5C([H])([H])C([H])([H])C([H])([H])C([H])(n6nc(-c7c([H])c([H])c(Oc8c([H])c([H])c(F)c([H])c8F)c([H])c7[H])c(C(=O)N([H])[H])c6N([H])[H])C5([H])[H])c4F)C(=O)C3([H])C([H])(C([H])([H])[H])C([H])([H])[H])c([H])c([H])c2C1([H])[H]

>  <smiles>  (4) 
[H]c1c([H])c([H])c2c(c1[H])C([H])([H])C([H])([H])C([H])([H])C2([H])N([H])C(=O)C1([H])N(C(=O)C([H])(N([H])C(=O)C([H])(N([H])C([H])([H])[H])C([H])([H])[H])C(C([H])([H])[H])(C([H])([H])[H])C([H])([H])[H])C([H])([H])c2c([H])c(OC([H])([H])C3([H])C([H])([H])N(c4c([H])c(C([H])([H])[H])c([H])c(N([H])C(=O)N5C([H])([H])C([H])([H])C([H])([H])C([H])(n6nc(-c7c([H])c([H])c(Oc8c([H])c([H])c(F)c([H])c8F)c([H])c7[H])c(C(=O)N([H])[H])c6N([H])[H])C5([H])[H])c4F)C(=O)C3([H])C([H])(C([H])([H])[H])C([H])([H])[H])c([H])c([H])c2C1([H])[H]

$$$$
4:0:0
     RDKit          3D

 99108  0  0  1  0  0  0  0  0999 V2000
  -28.6410  -21.8710   19.5510 C   0  0  0  0  0  3  0  0  0  0  0  0
  -29.4700  -23.2700   21.8770 C   0  0  0  0  0  2  0  0  0  0  0  0
  -30.1320  -21.9210   21.5460 C   0  0  0  0  0  2  0  0  0  0  0  0
  -28.2200  -23.3490   19.6920 C   0  0  2  0  0  0  0  0  0  0  0  0
  -29.1700  -24.1910   20.6560 C   0  0  2  0  0  0  0  0  0  0  0  0
  -26.7730  -23.2390   20.2270 C   0  0  0  0  0  1  0  0  0  0  0  0
  -28.1690  -23.9590   18.2680 C   0  0  0  0  0  1  0  0  0  0  0  0
  -30.5190  -24.5000   19.9570 C   0  0  0  0  0  1  0  0  0  0  0  0
  -29.4470  -21.2330   20.4460 N   0  0  0  0  0  0  0  0  0  0  0  0
  -28.1360  -21.1750   18.5080 N   0  0  0  0  0  0  0  0  0  0  0  0
  -27.5440  -21.6350   17.8320 H   0  0  0  0  0  0  0  0  0  0  0  0
  -28.3730  -20.2090   18.3360 H   0  0  0  0  0  0  0  0  0  0  0  0
  -28.5050  -18.9480   20.7030 C   0  0  0  0  0  3  0  0  0  0  0  0
  -30.9020  -19.1620   20.3670 C   0  0  0  0  0  3  0  0  0  0  0  0
  -28.6470  -17.5440   20.7900 C   0  0  0  0  0  3  0  0  0  0  0  0
  -31.0390  -17.7470   20.4340 C   0  0  0  0  0  3  0  0  0  0  0  0
  -29.6280  -19.7720   20.4890 C   0  0  0  0  0  0  0  0  0  0  0  0
  -29.9080  -16.9170   20.6470 C   0  0  0  0  0  0  0  0  0  0  0  0
  -30.6570  -14.5410   20.1150 C   0  0  0  0  0  0  0  0  0  0  0  0
  -30.3360  -12.4020   18.9090 C   0  0  0  0  0  2  0  0  0  0  0  0
  -29.3150  -12.6350   17.7730 C   0  0  0  0  0  2  0  0  0  0  0  0
  -27.8680  -12.4840   18.2830 C   0  0  0  0  0  2  0  0  0  0  0  0
  -27.6110  -13.2750   19.5930 C   0  0  0  0  0  3  0  0  0  0  0  0
  -28.7280  -12.9940   20.6240 C   0  0  0  0  0  2  0  0  0  0  0  0
  -30.0190  -13.3400   19.9980 N   0  0  0  0  0  0  0  0  0  0  0  0
  -31.7480  -14.7680   19.5800 O   0  0  0  0  0  0  0  0  0  0  0  0
  -29.9420  -15.4840   20.7730 N   0  0  0  0  0  0  0  0  0  0  0  0
  -29.1210  -15.0870   21.2040 H   0  0  0  0  0  0  0  0  0  0  0  0
  -25.2590  -13.8800   20.4480 C   0  0  0  0  0  0  0  0  0  0  0  0
  -24.2090  -13.1060   20.8610 C   0  0  0  0  0  0  0  0  0  0  0  0
  -24.6580  -11.7530   20.7720 C   0  0  0  0  0  0  0  0  0  0  0  0
  -26.2830  -12.9990   20.1380 N   0  0  0  0  0  0  0  0  0  0  0  0
  -25.9280  -11.7130   20.3880 N   0  0  0  0  0  0  0  0  0  0  0  0
  -23.9360  -10.4910   20.9730 C   0  0  0  0  0  0  0  0  0  0  0  0
  -24.3950   -9.5140   21.8840 C   0  0  0  0  0  3  0  0  0  0  0  0
  -23.6740   -8.3160   22.0740 C   0  0  0  0  0  3  0  0  0  0  0  0
  -22.4780   -8.0860   21.3530 C   0  0  0  0  0  0  0  0  0  0  0  0
  -22.0370   -9.0510   20.4300 C   0  0  0  0  0  3  0  0  0  0  0  0
  -22.7590  -10.2410   20.2390 C   0  0  0  0  0  3  0  0  0  0  0  0
  -21.7240   -6.9420   21.4520 O   0  0  0  0  0  0  0  0  0  0  0  0
  -21.6860   -6.2050   22.6090 C   0  0  0  0  0  0  0  0  0  0  0  0
  -21.2510   -6.7600   23.8320 C   0  0  0  0  0  3  0  0  0  0  0  0
  -21.1610   -5.9480   24.9810 C   0  0  0  0  0  3  0  0  0  0  0  0
  -21.4950   -4.5840   24.9080 C   0  0  0  0  0  0  0  0  0  0  0  0
  -21.9240   -4.0280   23.6900 C   0  0  0  0  0  3  0  0  0  0  0  0
  -22.0160   -4.8350   22.5420 C   0  0  0  0  0  0  0  0  0  0  0  0
  -22.4090   -4.2910   21.3660 F   0  0  0  0  0  0  0  0  0  0  0  0
  -21.4020   -3.8020   26.0090 F   0  0  0  0  0  0  0  0  0  0  0  0
  -22.8330  -13.5850   21.2250 C   0  0  0  0  0  0  0  0  0  0  0  0
  -22.1510  -12.8710   22.1150 N   0  0  0  0  0  0  0  0  0  0  0  0
  -22.3720  -14.6250   20.7560 O   0  0  0  0  0  0  0  0  0  0  0  0
  -22.5380  -12.0300   22.5150 H   0  0  0  0  0  0  0  0  0  0  0  0
  -21.2300  -13.1720   22.4010 H   0  0  0  0  0  0  0  0  0  0  0  0
  -25.4220  -15.2540   20.2880 N   0  0  0  0  0  0  0  0  0  0  0  0
  -24.6570  -15.9030   20.4330 H   0  0  0  0  0  0  0  0  0  0  0  0
  -26.2310  -15.6830   19.8580 H   0  0  0  0  0  0  0  0  0  0  0  0
  -29.2520  -26.2010   22.3810 C   0  0  0  0  0  1  0  0  0  0  0  0
  -28.5380  -25.5810   21.1570 C   0  0  0  0  0  3  0  0  0  0  0  0
  -28.5060  -26.6590   20.1830 O   0  0  0  0  0  0  0  0  0  0  0  0
  -24.6280  -31.8810   23.2040 C   0  0  0  0  0  0  0  0  0  0  0  0
  -27.3600  -27.4390   20.1780 C   0  0  0  0  0  0  0  0  0  0  0  0
  -23.4650  -30.4750   21.5360 C   0  0  0  0  0  3  0  0  0  0  0  0
  -24.9590  -28.9490   20.1370 C   0  0  0  0  0  0  0  0  0  0  0  0
  -25.9950  -30.8460   21.3900 C   0  0  0  0  0  2  0  0  0  0  0  0
  -26.1040  -29.4750   20.7500 C   0  0  0  0  0  0  0  0  0  0  0  0
  -27.3100  -28.7300   20.7640 C   0  0  0  0  0  3  0  0  0  0  0  0
  -26.2020  -26.9430   19.5470 C   0  0  0  0  0  3  0  0  0  0  0  0
  -25.0050  -27.6820   19.5300 C   0  0  0  0  0  3  0  0  0  0  0  0
  -23.7090  -29.8000   20.1600 C   0  0  0  0  0  2  0  0  0  0  0  0
  -24.7140  -31.0830   22.1020 N   0  0  0  0  0  0  0  0  0  0  0  0
  -23.5340  -32.1450   23.7230 O   0  0  0  0  0  0  0  0  0  0  0  0
  -22.8000  -29.4480   22.4810 C   0  0  0  0  0  0  0  0  0  0  0  0
  -21.4790  -29.2560   22.3270 N   0  0  0  0  0  0  0  0  0  0  0  0
  -23.4700  -28.8260   23.3100 O   0  0  0  0  0  0  0  0  0  0  0  0
  -21.0000  -29.8110   21.6310 H   0  0  0  0  0  0  0  0  0  0  0  0
  -18.1070  -28.0280   22.7440 C   0  0  0  0  0  0  0  0  0  0  0  0
  -20.6540  -28.3110   23.0770 C   0  0  0  0  0  3  0  0  0  0  0  0
  -20.7850  -26.8810   22.5050 C   0  0  0  0  0  2  0  0  0  0  0  0
  -19.7110  -26.5480   21.4640 C   0  0  0  0  0  2  0  0  0  0  0  0
  -18.3120  -26.6800   22.0750 C   0  0  0  0  0  2  0  0  0  0  0  0
  -19.2070  -28.8010   23.2010 C   0  0  0  0  0  0  0  0  0  0  0  0
  -18.9610  -30.0630   23.7840 C   0  0  0  0  0  3  0  0  0  0  0  0
  -17.6480  -30.5510   23.9170 C   0  0  0  0  0  3  0  0  0  0  0  0
  -16.5620  -29.7760   23.4770 C   0  0  0  0  0  3  0  0  0  0  0  0
  -16.7920  -28.5150   22.8960 C   0  0  0  0  0  3  0  0  0  0  0  0
  -25.8970  -32.5190   23.8510 C   0  0  0  0  0  3  0  0  0  0  0  0
  -25.5730  -33.9150   24.1770 N   0  0  0  0  0  0  0  0  0  0  0  0
  -25.9090  -34.9700   23.4220 C   0  0  0  0  0  0  0  0  0  0  0  0
  -26.5930  -34.8710   22.4000 O   0  0  0  0  0  0  0  0  0  0  0  0
  -24.9660  -34.0650   24.9700 H   0  0  0  0  0  0  0  0  0  0  0  0
  -24.1710  -36.7480   23.0420 C   0  0  0  0  0  1  0  0  0  0  0  0
  -25.4040  -36.3550   23.8720 C   0  0  0  0  0  3  0  0  0  0  0  0
  -27.5170  -37.2580   24.7350 C   0  0  0  0  0  1  0  0  0  0  0  0
  -26.4300  -37.4150   23.7730 N   0  0  0  0  0  0  0  0  0  0  0  0
  -26.0140  -38.3320   23.9110 H   0  0  0  0  0  0  0  0  0  0  0  0
  -26.3960  -31.7480   25.1340 C   0  0  1  0  0  0  0  0  0  0  0  0
  -25.2850  -31.4970   26.1790 C   0  0  0  0  0  1  0  0  0  0  0  0
  -26.9980  -30.3770   24.7460 C   0  0  0  0  0  1  0  0  0  0  0  0
  -27.5270  -32.5490   25.8200 C   0  0  0  0  0  1  0  0  0  0  0  0
  1 10  1  0
  1  4  1  0
  1  9  1  0
  3  2  1  0
  4  6  1  1
  4  5  1  0
  5  8  1  6
  5 58  1  0
  5  2  1  0
  7  4  1  0
  9 17  1  0
  9  3  1  0
 11 10  1  0
 12 10  1  0
 13 15  1  0
 14 16  2  0
 14 17  1  0
 16 18  1  0
 17 13  2  0
 18 27  1  0
 18 15  2  0
 19 27  1  0
 20 25  1  0
 21 22  1  0
 21 20  1  0
 23 22  1  0
 23 32  1  0
 23 24  1  0
 25 19  1  0
 25 24  1  0
 26 19  2  0
 27 28  1  0
 29 30  2  0
 30 49  1  0
 31 30  1  0
 31 34  1  0
 32 33  1  0
 32 29  1  0
 33 31  2  0
 34 35  1  0
 35 36  2  0
 37 40  1  0
 37 36  1  0
 38 37  2  0
 39 38  1  0
 39 34  2  0
 40 41  1  0
 41 42  1  0
 42 43  2  0
 44 43  1  0
 44 48  1  0
 45 44  2  0
 46 41  2  0
 46 45  1  0
 47 46  1  0
 49 50  1  0
 50 53  1  0
 50 52  1  0
 51 49  2  0
 54 55  1  0
 54 29  1  0
 56 54  1  0
 58 57  1  0
 59 58  1  0
 60 71  2  0
 61 59  1  0
 61 66  1  0
 62 70  1  0
 62 72  1  0
 63 69  1  0
 63 65  1  0
 64 70  1  0
 65 66  2  0
 65 64  1  0
 67 61  2  0
 68 67  1  0
 68 63  2  0
 69 62  1  0
 70 60  1  0
 72 74  2  0
 73 72  1  0
 75 73  1  0
 76 85  2  0
 76 81  1  0
 77 73  1  0
 77 81  1  0
 78 77  1  0
 79 80  1  0
 79 78  1  0
 80 76  1  0
 81 82  2  0
 82 83  1  0
 84 83  2  0
 85 84  1  0
 86 60  1  0
 86 87  1  0
 86 96  1  0
 87 90  1  0
 88 92  1  0
 88 87  1  0
 89 88  2  0
 92 91  1  0
 94 92  1  0
 94 95  1  0
 94 93  1  0
 96 99  1  1
 96 97  1  0
 98 96  1  0
M  ISO  4  19 100  27 100  58 101  59 101
M  END
>  <TORSDO>  (5) 
F 18

>  <SCORE>  (5) 
-14.958

>  <name>  (5) 
4

>  <ligand_id>  (5) 
4

>  <original_smiles>  (5) 
[H]c1c([H])c([H])c2c(c1[H])C([H])([H])C([H])([H])C([H])([H])C2([H])N([H])C(=O)C1([H])N(C(=O)C([H])(N([H])C(=O)C([H])(N([H])C([H])([H])[H])C([H])([H])[H])C(C([H])([H])[H])(C([H])([H])[H])C([H])([H])[H])C([H])([H])c2c([H])c(OC([H])(C([H])([H])[H])C3(C([H])([H])[H])C([H])([H])C([H])([H])N(c4c([H])c([H])c(N([H])C(=O)N5C([H])([H])C([H])([H])C([H])([H])C([H])(n6nc(-c7c([H])c([H])c(Oc8c([H])c([H])c(F)c([H])c8F)c([H])c7[H])c(C(=O)N([H])[H])c6N([H])[H])C5([H])[H])c([H])c4[H])C(=[N+]([H])[H])C3(C([H])([H])[H])C([H])([H])[H])c([H])c([H])c2C1([H])[H]

>  <smiles>  (5) 
[H]c1c([H])c([H])c2c(c1[H])C([H])([H])C([H])([H])C([H])([H])C2([H])N([H])C(=O)C1([H])N(C(=O)C([H])(N([H])C(=O)C([H])(N([H])C([H])([H])[H])C([H])([H])[H])C(C([H])([H])[H])(C([H])([H])[H])C([H])([H])[H])C([H])([H])c2c([H])c(OC([H])(C([H])([H])[H])C3(C([H])([H])[H])C([H])([H])C([H])([H])N(c4c([H])c([H])c(N([H])C(=O)N5C([H])([H])C([H])([H])C([H])([H])C([H])(n6nc(-c7c([H])c([H])c(Oc8c([H])c([H])c(F)c([H])c8F)c([H])c7[H])c(C(=O)N([H])[H])c6N([H])[H])C5([H])[H])c([H])c4[H])C(=[N+]([H])[H])C3(C([H])([H])[H])C([H])([H])[H])c([H])c([H])c2C1([H])[H]

$$$$
5:0:0
     RDKit          3D

 90 98  0  0  1  0  0  0  0  0999 V2000
  -27.3980  -21.5820   19.1530 O   0  0  0  0  0  0  0  0  0  0  0  0
  -27.5830  -21.8100   21.6420 O   0  0  0  0  0  0  0  0  0  0  0  0
  -28.2540  -21.8390   20.3280 S   0  0  1  0  0  0  0  0  0  0  0  0
  -31.8550  -19.5870   20.3350 C   0  0  0  0  0  3  0  0  0  0  0  0
  -31.5040  -18.2150   20.3730 C   0  0  0  0  0  3  0  0  0  0  0  0
  -30.8960  -20.6280   20.3210 C   0  0  0  0  0  3  0  0  0  0  0  0
  -29.1840  -18.8920   20.3870 C   0  0  0  0  0  3  0  0  0  0  0  0
  -30.1580  -17.7700   20.3990 C   0  0  0  0  0  0  0  0  0  0  0  0
  -29.5200  -20.3380   20.3420 C   0  0  0  0  0  0  0  0  0  0  0  0
  -30.6470  -15.0870   20.3110 C   0  0  0  0  0  0  0  0  0  0  0  0
  -30.5200  -12.7410   19.3680 C   0  0  0  0  0  2  0  0  0  0  0  0
  -29.5770  -12.7020   18.1440 C   0  0  0  0  0  2  0  0  0  0  0  0
  -28.1190  -12.4820   18.5900 C   0  0  0  0  0  2  0  0  0  0  0  0
  -27.7160  -13.4000   19.7740 C   0  0  0  0  0  3  0  0  0  0  0  0
  -28.7830  -13.4190   20.8900 C   0  0  0  0  0  2  0  0  0  0  0  0
  -30.0480  -13.8310   20.2680 N   0  0  0  0  0  0  0  0  0  0  0  0
  -31.8470  -15.1390   20.0200 O   0  0  0  0  0  0  0  0  0  0  0  0
  -29.8610  -16.2640   20.4590 N   0  0  0  0  0  0  0  0  0  0  0  0
  -28.8860  -16.0470   20.6050 H   0  0  0  0  0  0  0  0  0  0  0  0
  -25.3420  -13.9520   20.5550 C   0  0  0  0  0  0  0  0  0  0  0  0
  -24.2880  -13.1650   20.9240 C   0  0  0  0  0  0  0  0  0  0  0  0
  -24.7580  -11.8170   20.8600 C   0  0  0  0  0  0  0  0  0  0  0  0
  -26.3870  -13.0850   20.2840 N   0  0  0  0  0  0  0  0  0  0  0  0
  -26.0450  -11.7950   20.5340 N   0  0  0  0  0  0  0  0  0  0  0  0
  -24.0400  -10.5490   21.0350 C   0  0  0  0  0  0  0  0  0  0  0  0
  -24.4570   -9.5860   21.9800 C   0  0  0  0  0  3  0  0  0  0  0  0
  -23.7370   -8.3820   22.1420 C   0  0  0  0  0  3  0  0  0  0  0  0
  -22.5860   -8.1320   21.3590 C   0  0  0  0  0  0  0  0  0  0  0  0
  -22.1880   -9.0830   20.4020 C   0  0  0  0  0  3  0  0  0  0  0  0
  -22.9090  -10.2780   20.2380 C   0  0  0  0  0  3  0  0  0  0  0  0
  -21.8390   -6.9810   21.4300 O   0  0  0  0  0  0  0  0  0  0  0  0
  -21.7190   -6.2730   22.5980 C   0  0  0  0  0  0  0  0  0  0  0  0
  -21.1640   -6.8460   23.7630 C   0  0  0  0  0  3  0  0  0  0  0  0
  -20.9950   -6.0620   24.9230 C   0  0  0  0  0  3  0  0  0  0  0  0
  -21.3670   -4.7050   24.9160 C   0  0  0  0  0  0  0  0  0  0  0  0
  -21.9140   -4.1310   23.7540 C   0  0  0  0  0  3  0  0  0  0  0  0
  -22.0850   -4.9120   22.5980 C   0  0  0  0  0  0  0  0  0  0  0  0
  -22.5920   -4.3480   21.4750 F   0  0  0  0  0  0  0  0  0  0  0  0
  -21.1980   -3.9490   26.0250 F   0  0  0  0  0  0  0  0  0  0  0  0
  -22.8910  -13.6300   21.2180 C   0  0  0  0  0  0  0  0  0  0  0  0
  -22.1780  -12.9180   22.0830 N   0  0  0  0  0  0  0  0  0  0  0  0
  -22.4420  -14.6600   20.7170 O   0  0  0  0  0  0  0  0  0  0  0  0
  -22.5550  -12.0850   22.5110 H   0  0  0  0  0  0  0  0  0  0  0  0
  -21.2410  -13.2110   22.3220 H   0  0  0  0  0  0  0  0  0  0  0  0
  -25.4940  -15.3270   20.4010 N   0  0  0  0  0  0  0  0  0  0  0  0
  -24.7180  -15.9680   20.5240 H   0  0  0  0  0  0  0  0  0  0  0  0
  -26.3200  -15.7770   20.0260 H   0  0  0  0  0  0  0  0  0  0  0  0
  -28.0080  -24.8880   20.2960 C   0  0  0  0  0  3  0  0  0  0  0  0
  -28.8070  -23.7370   20.0950 C   0  0  0  0  0  3  0  0  0  0  0  0
  -28.2710  -26.3220   20.1290 O   0  0  0  0  0  0  0  0  0  0  0  0
  -24.6510  -31.9370   23.2500 C   0  0  0  0  0  0  0  0  0  0  0  0
  -27.2130  -27.2970   20.1190 C   0  0  0  0  0  0  0  0  0  0  0  0
  -23.4380  -30.5660   21.5970 C   0  0  0  0  0  3  0  0  0  0  0  0
  -24.8780  -29.0220   20.1330 C   0  0  0  0  0  0  0  0  0  0  0  0
  -25.9890  -30.8450   21.4150 C   0  0  0  0  0  2  0  0  0  0  0  0
  -26.0600  -29.4640   20.7430 C   0  0  0  0  0  0  0  0  0  0  0  0
  -27.2280  -28.6150   20.7250 C   0  0  0  0  0  3  0  0  0  0  0  0
  -26.0100  -26.9600   19.4600 C   0  0  0  0  0  3  0  0  0  0  0  0
  -24.8650  -27.7820   19.4770 C   0  0  0  0  0  3  0  0  0  0  0  0
  -23.6480  -29.9130   20.2050 C   0  0  0  0  0  2  0  0  0  0  0  0
  -24.7130  -31.1370   22.1420 N   0  0  0  0  0  0  0  0  0  0  0  0
  -23.5700  -32.2120   23.7920 O   0  0  0  0  0  0  0  0  0  0  0  0
  -22.7720  -29.5410   22.5470 C   0  0  0  0  0  0  0  0  0  0  0  0
  -21.4460  -29.3560   22.4170 N   0  0  0  0  0  0  0  0  0  0  0  0
  -23.4500  -28.9140   23.3650 O   0  0  0  0  0  0  0  0  0  0  0  0
  -20.9550  -29.9150   21.7320 H   0  0  0  0  0  0  0  0  0  0  0  0
  -18.0760  -28.1210   22.9080 C   0  0  0  0  0  0  0  0  0  0  0  0
  -20.6330  -28.4040   23.1770 C   0  0  0  0  0  3  0  0  0  0  0  0
  -20.7460  -26.9780   22.5870 C   0  0  0  0  0  2  0  0  0  0  0  0
  -19.6470  -26.6570   21.5680 C   0  0  0  0  0  2  0  0  0  0  0  0
  -18.2650  -26.7820   22.2150 C   0  0  0  0  0  2  0  0  0  0  0  0
  -19.1880  -28.8890   23.3450 C   0  0  0  0  0  0  0  0  0  0  0  0
  -18.9570  -30.1420   23.9540 C   0  0  0  0  0  3  0  0  0  0  0  0
  -17.6480  -30.6280   24.1270 C   0  0  0  0  0  3  0  0  0  0  0  0
  -16.5510  -29.8570   23.7060 C   0  0  0  0  0  3  0  0  0  0  0  0
  -16.7660  -28.6050   23.1010 C   0  0  0  0  0  3  0  0  0  0  0  0
  -25.9350  -32.5640   23.8760 C   0  0  0  0  0  3  0  0  0  0  0  0
  -25.6260  -33.9600   24.2250 N   0  0  0  0  0  0  0  0  0  0  0  0
  -25.9150  -35.0210   23.4610 C   0  0  0  0  0  0  0  0  0  0  0  0
  -26.5370  -34.9280   22.4000 O   0  0  0  0  0  0  0  0  0  0  0  0
  -25.0650  -34.1030   25.0530 H   0  0  0  0  0  0  0  0  0  0  0  0
  -24.1440  -36.7930   23.2210 C   0  0  0  0  0  1  0  0  0  0  0  0
  -25.4400  -36.4030   23.9500 C   0  0  0  0  0  3  0  0  0  0  0  0
  -27.6080  -37.3230   24.6510 C   0  0  0  0  0  1  0  0  0  0  0  0
  -26.4490  -37.4700   23.7710 N   0  0  0  0  0  0  0  0  0  0  0  0
  -26.0410  -38.3850   23.9380 H   0  0  0  0  0  0  0  0  0  0  0  0
  -26.4500  -31.7790   25.1450 C   0  0  1  0  0  0  0  0  0  0  0  0
  -25.3600  -31.5340   26.2120 C   0  0  0  0  0  1  0  0  0  0  0  0
  -27.0300  -30.4030   24.7430 C   0  0  0  0  0  1  0  0  0  0  0  0
  -27.6040  -32.5650   25.8120 C   0  0  0  0  0  1  0  0  0  0  0  0
  1  3  2  0
  3  9  1  0
  3  2  2  0
  4  5  1  0
  5  8  2  0
  6  4  2  0
  6  9  1  0
  7  8  1  0
  8 18  1  0
  9  7  2  0
 10 18  1  0
 11 16  1  0
 12 13  1  0
 12 11  1  0
 14 13  1  0
 14 23  1  0
 14 15  1  0
 16 10  1  0
 16 15  1  0
 17 10  2  0
 18 19  1  0
 20 21  2  0
 21 40  1  0
 22 21  1  0
 22 25  1  0
 23 24  1  0
 23 20  1  0
 24 22  2  0
 25 26  1  0
 26 27  2  0
 28 31  1  0
 28 27  1  0
 29 28  2  0
 30 29  1  0
 30 25  2  0
 31 32  1  0
 32 37  2  0
 32 33  1  0
 33 34  2  0
 35 34  1  0
 35 39  1  0
 36 35  2  0
 37 36  1  0
 38 37  1  0
 40 41  1  0
 41 44  1  0
 41 43  1  0
 42 40  2  0
 45 46  1  0
 45 20  1  0
 47 45  1  0
 49 48  2  0
  3 49  1  6
 50 48  1  0
 51 62  2  0
 52 50  1  0
 52 57  1  0
 53 61  1  0
 53 63  1  0
 54 60  1  0
 54 56  1  0
 55 61  1  0
 56 55  1  0
 57 56  2  0
 58 59  1  0
 58 52  2  0
 59 54  2  0
 60 53  1  0
 61 51  1  0
 63 65  2  0
 64 63  1  0
 66 64  1  0
 67 76  2  0
 67 72  1  0
 68 64  1  0
 68 72  1  0
 69 68  1  0
 70 71  1  0
 70 69  1  0
 71 67  1  0
 72 73  2  0
 73 74  1  0
 75 74  2  0
 76 75  1  0
 77 51  1  0
 77 78  1  0
 77 87  1  0
 78 81  1  0
 79 83  1  0
 79 78  1  0
 80 79  2  0
 83 82  1  0
 85 86  1  0
 85 83  1  0
 85 84  1  0
 87 90  1  1
 87 88  1  0
 89 87  1  0
M  ISO  4  10 100  18 100  48 101  50 101
M  END
>  <TORSDO>  (6) 
F 18

>  <SCORE>  (6) 
-15.096

>  <name>  (6) 
5

>  <ligand_id>  (6) 
5

>  <original_smiles>  (6) 
[H]C(Oc1c([H])c([H])c2c(c1[H])C([H])([H])N(C(=O)C([H])(N([H])C(=O)C([H])(N([H])C([H])([H])[H])C([H])([H])[H])C(C([H])([H])[H])(C([H])([H])[H])C([H])([H])[H])C([H])(C(=O)N([H])C1([H])c3c([H])c([H])c([H])c([H])c3C([H])([H])C([H])([H])C1([H])[H])C2([H])[H])=C([H])S(=O)(=O)c1c([H])c([H])c([H])c(N([H])C(=O)N2C([H])([H])C([H])([H])C([H])([H])C([H])(n3nc(-c4c([H])c([H])c(Oc5c([H])c([H])c(F)c([H])c5F)c([H])c4[H])c(C(=O)N([H])[H])c3N([H])[H])C2([H])[H])c1[H]

>  <smiles>  (6) 
[H]C(Oc1c([H])c([H])c2c(c1[H])C([H])([H])N(C(=O)C([H])(N([H])C(=O)C([H])(N([H])C([H])([H])[H])C([H])([H])[H])C(C([H])([H])[H])(C([H])([H])[H])C([H])([H])[H])C([H])(C(=O)N([H])C1([H])c3c([H])c([H])c([H])c([H])c3C([H])([H])C([H])([H])C1([H])[H])C2([H])[H])=C([H])S(=O)(=O)c1c([H])c([H])c([H])c(N([H])C(=O)N2C([H])([H])C([H])([H])C([H])([H])C([H])(n3nc(-c4c([H])c([H])c(Oc5c([H])c([H])c(F)c([H])c5F)c([H])c4[H])c(C(=O)N([H])[H])c3N([H])[H])C2([H])[H])c1[H]

$$$$
6:0:0
     RDKit          3D

 99107  0  0  1  0  0  0  0  0999 V2000
  -30.2250  -21.2160   21.0500 C   0  0  0  0  0  0  0  0  0  0  0  0
  -30.3600  -22.0850   20.0320 N   0  0  0  0  0  0  0  0  0  0  0  0
  -30.0690  -21.6890   22.2880 N   0  0  0  0  0  4  0  0  0  0  0  0
  -30.3300  -21.6900   19.1010 H   0  0  0  0  0  0  0  0  0  0  0  0
  -30.0510  -21.0380   23.0580 H   0  0  0  0  0  0  0  0  0  0  0  0
  -30.0780  -22.6740   22.4860 H   0  0  0  0  0  0  0  0  0  0  0  0
  -31.5180  -19.0800   21.0080 C   0  0  0  0  0  3  0  0  0  0  0  0
  -31.5980  -17.6660   20.9830 C   0  0  0  0  0  3  0  0  0  0  0  0
  -29.2020  -17.5600   20.6160 C   0  0  0  0  0  3  0  0  0  0  0  0
  -30.2790  -19.7490   20.8650 C   0  0  0  0  0  0  0  0  0  0  0  0
  -29.1100  -18.9740   20.6370 C   0  0  0  0  0  0  0  0  0  0  0  0
  -30.4290  -16.8860   20.8040 C   0  0  0  0  0  0  0  0  0  0  0  0
  -27.7510  -19.6190   20.3910 C   0  0  0  0  0  1  0  0  0  0  0  0
  -31.0580  -14.5220   20.1080 C   0  0  0  0  0  0  0  0  0  0  0  0
  -30.7240  -12.3500   18.9680 C   0  0  0  0  0  2  0  0  0  0  0  0
  -29.7440  -12.5590   17.7930 C   0  0  0  0  0  2  0  0  0  0  0  0
  -28.2770  -12.4670   18.2620 C   0  0  0  0  0  2  0  0  0  0  0  0
  -28.0010  -13.3210   19.5270 C   0  0  0  0  0  3  0  0  0  0  0  0
  -29.0740  -13.0470   20.6040 C   0  0  0  0  0  2  0  0  0  0  0  0
  -30.3950  -13.3360   20.0090 N   0  0  0  0  0  0  0  0  0  0  0  0
  -32.1450  -14.7290   19.5550 O   0  0  0  0  0  0  0  0  0  0  0  0
  -30.3820  -15.4570   20.8050 N   0  0  0  0  0  0  0  0  0  0  0  0
  -29.5650  -15.0710   21.2540 H   0  0  0  0  0  0  0  0  0  0  0  0
  -25.6650  -14.0300   20.3500 C   0  0  0  0  0  0  0  0  0  0  0  0
  -24.5710  -13.3030   20.7370 C   0  0  0  0  0  0  0  0  0  0  0  0
  -24.9550  -11.9310   20.6380 C   0  0  0  0  0  0  0  0  0  0  0  0
  -26.6510  -13.1030   20.0440 N   0  0  0  0  0  0  0  0  0  0  0  0
  -26.2270  -11.8340   20.2710 N   0  0  0  0  0  0  0  0  0  0  0  0
  -24.1690  -10.7030   20.8130 C   0  0  0  0  0  0  0  0  0  0  0  0
  -24.5420   -9.7190   21.7560 C   0  0  0  0  0  3  0  0  0  0  0  0
  -23.7630   -8.5530   21.9190 C   0  0  0  0  0  3  0  0  0  0  0  0
  -22.5980   -8.3640   21.1380 C   0  0  0  0  0  0  0  0  0  0  0  0
  -22.2430   -9.3360   20.1870 C   0  0  0  0  0  3  0  0  0  0  0  0
  -23.0220  -10.4940   20.0220 C   0  0  0  0  0  3  0  0  0  0  0  0
  -21.7950   -7.2510   21.2100 O   0  0  0  0  0  0  0  0  0  0  0  0
  -21.6070   -6.5720   22.3870 C   0  0  0  0  0  0  0  0  0  0  0  0
  -21.0830   -7.2030   23.5360 C   0  0  0  0  0  3  0  0  0  0  0  0
  -20.8420   -6.4510   24.7040 C   0  0  0  0  0  3  0  0  0  0  0  0
  -21.1150   -5.0700   24.7210 C   0  0  0  0  0  0  0  0  0  0  0  0
  -21.6320   -4.4390   23.5750 C   0  0  0  0  0  3  0  0  0  0  0  0
  -21.8740   -5.1880   22.4110 C   0  0  0  0  0  0  0  0  0  0  0  0
  -22.3530   -4.5710   21.3040 F   0  0  0  0  0  0  0  0  0  0  0  0
  -20.8770   -4.3460   25.8400 F   0  0  0  0  0  0  0  0  0  0  0  0
  -23.2140  -13.8440   21.0850 C   0  0  0  0  0  0  0  0  0  0  0  0
  -22.4920  -13.1710   21.9750 N   0  0  0  0  0  0  0  0  0  0  0  0
  -22.8030  -14.8980   20.6010 O   0  0  0  0  0  0  0  0  0  0  0  0
  -22.8360  -12.3190   22.3920 H   0  0  0  0  0  0  0  0  0  0  0  0
  -21.5820  -13.5160   22.2470 H   0  0  0  0  0  0  0  0  0  0  0  0
  -25.9000  -15.3960   20.2170 N   0  0  0  0  0  0  0  0  0  0  0  0
  -25.1700  -16.0820   20.3680 H   0  0  0  0  0  0  0  0  0  0  0  0
  -26.7400  -15.7900   19.8110 H   0  0  0  0  0  0  0  0  0  0  0  0
  -30.4530  -23.5720   20.1070 C   0  0  0  0  0  3  0  0  0  0  0  0
  -31.5880  -23.5890   17.7730 C   0  0  0  0  0  1  0  0  0  0  0  0
  -32.9830  -23.6390   19.8890 C   0  0  0  0  0  1  0  0  0  0  0  0
  -31.6500  -24.0530   19.2450 C   0  0  0  0  0  3  0  0  0  0  0  0
  -29.1350  -24.2830   19.7060 C   0  0  0  0  0  0  0  0  0  0  0  0
  -28.3640  -23.8180   18.8600 O   0  0  0  0  0  0  0  0  0  0  0  0
  -28.8090  -25.6080   20.4300 C   0  0  0  0  0  2  0  0  0  0  0  0
  -28.6210  -26.6930   19.5100 O   0  0  0  0  0  0  0  0  0  0  0  0
  -24.5900  -31.4340   23.0150 C   0  0  0  0  0  0  0  0  0  0  0  0
  -27.4170  -27.3440   19.6280 C   0  0  0  0  0  0  0  0  0  0  0  0
  -23.4270  -30.0510   21.3260 C   0  0  0  0  0  3  0  0  0  0  0  0
  -24.9350  -28.6820   19.7870 C   0  0  0  0  0  0  0  0  0  0  0  0
  -25.9190  -30.5780   21.0880 C   0  0  0  0  0  2  0  0  0  0  0  0
  -26.0730  -29.2500   20.3730 C   0  0  0  0  0  0  0  0  0  0  0  0
  -27.3210  -28.5890   20.2900 C   0  0  0  0  0  3  0  0  0  0  0  0
  -26.2640  -26.7810   19.0480 C   0  0  0  0  0  3  0  0  0  0  0  0
  -25.0240  -27.4450   19.1220 C   0  0  0  0  0  3  0  0  0  0  0  0
  -23.6410  -29.4570   19.9070 C   0  0  0  0  0  2  0  0  0  0  0  0
  -24.6650  -30.7010   21.8680 N   0  0  0  0  0  0  0  0  0  0  0  0
  -23.5090  -31.6090   23.5950 O   0  0  0  0  0  0  0  0  0  0  0  0
  -22.8640  -28.9430   22.2430 C   0  0  0  0  0  0  0  0  0  0  0  0
  -21.5560  -28.6670   22.1160 N   0  0  0  0  0  0  0  0  0  0  0  0
  -23.6020  -28.3310   23.0210 O   0  0  0  0  0  0  0  0  0  0  0  0
  -21.0190  -29.2160   21.4590 H   0  0  0  0  0  0  0  0  0  0  0  0
  -18.2890  -27.1910   22.5640 C   0  0  0  0  0  0  0  0  0  0  0  0
  -20.8190  -27.6370   22.8480 C   0  0  0  0  0  3  0  0  0  0  0  0
  -21.0320  -26.2450   22.2110 C   0  0  0  0  0  2  0  0  0  0  0  0
  -19.9570  -25.8790   21.1840 C   0  0  0  0  0  2  0  0  0  0  0  0
  -18.5690  -25.8880   21.8330 C   0  0  0  0  0  2  0  0  0  0  0  0
  -19.3450  -28.0190   23.0270 C   0  0  0  0  0  0  0  0  0  0  0  0
  -19.0300  -29.2360   23.6690 C   0  0  0  0  0  3  0  0  0  0  0  0
  -17.6920  -29.6290   23.8530 C   0  0  0  0  0  3  0  0  0  0  0  0
  -16.6490  -28.7970   23.4070 C   0  0  0  0  0  3  0  0  0  0  0  0
  -16.9490  -27.5800   22.7700 C   0  0  0  0  0  3  0  0  0  0  0  0
  -25.8530  -32.1070   23.6390 C   0  0  0  0  0  3  0  0  0  0  0  0
  -25.4810  -33.4760   24.0200 N   0  0  0  0  0  0  0  0  0  0  0  0
  -25.7600  -34.5680   23.2950 C   0  0  0  0  0  0  0  0  0  0  0  0
  -26.4280  -34.5330   22.2580 O   0  0  0  0  0  0  0  0  0  0  0  0
  -24.8820  -33.5750   24.8260 H   0  0  0  0  0  0  0  0  0  0  0  0
  -23.9410  -36.2810   23.0150 C   0  0  0  0  0  1  0  0  0  0  0  0
  -25.2080  -35.9150   23.8020 C   0  0  0  0  0  3  0  0  0  0  0  0
  -27.3040  -36.8750   24.6460 C   0  0  0  0  0  1  0  0  0  0  0  0
  -26.1850  -37.0220   23.7190 N   0  0  0  0  0  0  0  0  0  0  0  0
  -25.7330  -37.9140   23.9070 H   0  0  0  0  0  0  0  0  0  0  0  0
  -26.4300  -31.3180   24.8790 C   0  0  1  0  0  0  0  0  0  0  0  0
  -25.3690  -30.9880   25.9540 C   0  0  0  0  0  1  0  0  0  0  0  0
  -27.0740  -29.9860   24.4280 C   0  0  0  0  0  1  0  0  0  0  0  0
  -27.5520  -32.1460   25.5520 C   0  0  0  0  0  1  0  0  0  0  0  0
  1  3  2  0
  2 52  1  0
  2  1  1  0
  3  6  1  0
  3  5  1  0
  4  2  1  0
  8  7  1  0
  9 11  2  0
  9 12  1  0
 10  7  2  0
 10  1  1  0
 11 10  1  0
 12 22  1  0
 12  8  2  0
 13 11  1  0
 14 22  1  0
 15 20  1  0
 16 17  1  0
 16 15  1  0
 18 17  1  0
 18 27  1  0
 18 19  1  0
 20 14  1  0
 20 19  1  0
 21 14  2  0
 22 23  1  0
 24 25  2  0
 25 44  1  0
 26 25  1  0
 26 29  1  0
 27 28  1  0
 27 24  1  0
 28 26  2  0
 29 30  1  0
 30 31  2  0
 32 35  1  0
 32 31  1  0
 33 32  2  0
 34 33  1  0
 34 29  2  0
 35 36  1  0
 36 41  2  0
 36 37  1  0
 37 38  2  0
 38 39  1  0
 39 43  1  0
 40 39  2  0
 41 40  1  0
 42 41  1  0
 44 45  1  0
 45 48  1  0
 45 47  1  0
 46 44  2  0
 49 24  1  0
 49 50  1  0
 51 49  1  0
 52 55  1  0
 53 55  1  0
 55 54  1  0
 56 52  1  0
 56 58  1  0
 57 56  2  0
 59 61  1  0
 59 58  1  0
 60 71  2  0
 61 66  1  0
 62 70  1  0
 62 72  1  0
 63 69  1  0
 63 65  1  0
 64 70  1  0
 65 64  1  0
 66 65  2  0
 67 68  1  0
 67 61  2  0
 68 63  2  0
 69 62  1  0
 70 60  1  0
 72 74  2  0
 73 72  1  0
 75 73  1  0
 76 85  2  0
 76 81  1  0
 77 73  1  0
 77 81  1  0
 78 77  1  0
 79 80  1  0
 79 78  1  0
 80 76  1  0
 81 82  2  0
 82 83  1  0
 84 83  2  0
 85 84  1  0
 86 60  1  0
 86 87  1  0
 86 96  1  0
 87 90  1  0
 88 92  1  0
 88 87  1  0
 89 88  2  0
 92 91  1  0
 94 92  1  0
 94 95  1  0
 94 93  1  0
 96 99  1  1
 96 97  1  0
 98 96  1  0
M  ISO  4  14 100  22 100  58 101  59 101
M  END
>  <TORSDO>  (7) 
F 21

>  <SCORE>  (7) 
-12.304

>  <name>  (7) 
6

>  <ligand_id>  (7) 
6

>  <original_smiles>  (7) 
[H]c1c([H])c([H])c2c(c1[H])C([H])([H])C([H])([H])C([H])([H])C2([H])N([H])C(=O)C1([H])N(C(=O)C([H])(N([H])C(=O)C([H])(N([H])C([H])([H])[H])C([H])([H])[H])C(C([H])([H])[H])(C([H])([H])[H])C([H])([H])[H])C([H])([H])c2c([H])c(OC([H])([H])C(=O)C([H])(N([H])C(c3c([H])c([H])c(N([H])C(=O)N4C([H])([H])C([H])([H])C([H])([H])C([H])(n5nc(-c6c([H])c([H])c(Oc7c([H])c([H])c(F)c([H])c7F)c([H])c6[H])c(C(=O)N([H])[H])c5N([H])[H])C4([H])[H])c([H])c3C([H])([H])[H])=[N+]([H])[H])C([H])(C([H])([H])[H])C([H])([H])[H])c([H])c([H])c2C1([H])[H]

>  <smiles>  (7) 
[H]c1c([H])c([H])c2c(c1[H])C([H])([H])C([H])([H])C([H])([H])C2([H])N([H])C(=O)C1([H])N(C(=O)C([H])(N([H])C(=O)C([H])(N([H])C([H])([H])[H])C([H])([H])[H])C(C([H])([H])[H])(C([H])([H])[H])C([H])([H])[H])C([H])([H])c2c([H])c(OC([H])([H])C(=O)C([H])(N([H])C(c3c([H])c([H])c(N([H])C(=O)N4C([H])([H])C([H])([H])C([H])([H])C([H])(n5nc(-c6c([H])c([H])c(Oc7c([H])c([H])c(F)c([H])c7F)c([H])c6[H])c(C(=O)N([H])[H])c5N([H])[H])C4([H])[H])c([H])c3C([H])([H])[H])=[N+]([H])[H])C([H])(C([H])([H])[H])C([H])([H])[H])c([H])c([H])c2C1([H])[H]

$$$$
7:0:0
     RDKit          3D

 94102  0  0  1  0  0  0  0  0999 V2000
  -28.8650  -21.6000   19.9740 C   0  0  0  0  0  0  0  0  0  0  0  0
  -29.5720  -20.5270   20.4450 N   0  0  0  0  0  0  0  0  0  0  0  0
  -28.1080  -21.4900   19.0050 O   0  0  0  0  0  0  0  0  0  0  0  0
  -30.3380  -20.7400   21.0690 H   0  0  0  0  0  0  0  0  0  0  0  0
  -27.8120  -18.8330   20.2920 C   0  0  0  0  0  3  0  0  0  0  0  0
  -28.2270  -16.4400   20.4640 C   0  0  0  0  0  3  0  0  0  0  0  0
  -30.1050  -18.0030   20.4760 C   0  0  0  0  0  0  0  0  0  0  0  0
  -29.1920  -19.1200   20.3550 C   0  0  0  0  0  0  0  0  0  0  0  0
  -29.6240  -16.6350   20.5070 C   0  0  0  0  0  0  0  0  0  0  0  0
  -27.3350  -17.5220   20.3680 C   0  0  0  0  0  0  0  0  0  0  0  0
  -31.5920  -18.2870   20.6130 C   0  0  0  0  0  1  0  0  0  0  0  0
  -25.9980  -17.3150   20.4010 F   0  0  0  0  0  0  0  0  0  0  0  0
  -30.8030  -14.4500   19.9730 C   0  0  0  0  0  0  0  0  0  0  0  0
  -30.4100  -12.2090   18.9570 C   0  0  0  0  0  2  0  0  0  0  0  0
  -29.4270  -12.2940   17.7730 C   0  0  0  0  0  2  0  0  0  0  0  0
  -27.9740  -12.1870   18.2690 C   0  0  0  0  0  2  0  0  0  0  0  0
  -27.6850  -13.1280   19.4680 C   0  0  0  0  0  3  0  0  0  0  0  0
  -28.7820  -13.0050   20.5530 C   0  0  0  0  0  2  0  0  0  0  0  0
  -30.0760  -13.2860   19.9170 N   0  0  0  0  0  0  0  0  0  0  0  0
  -31.8590  -14.5570   19.3400 O   0  0  0  0  0  0  0  0  0  0  0  0
  -31.3270  -15.6280   21.9760 C   0  0  0  0  0  1  0  0  0  0  0  0
  -30.4260  -15.4540   20.8340 N   0  0  0  0  0  0  0  0  0  0  0  0
  -25.3400  -13.8160   20.2590 C   0  0  0  0  0  0  0  0  0  0  0  0
  -24.2680  -13.0960   20.7040 C   0  0  0  0  0  0  0  0  0  0  0  0
  -24.6770  -11.7300   20.6690 C   0  0  0  0  0  0  0  0  0  0  0  0
  -26.3480  -12.9000   20.0100 N   0  0  0  0  0  0  0  0  0  0  0  0
  -25.9520  -11.6360   20.3080 N   0  0  0  0  0  0  0  0  0  0  0  0
  -23.9080  -10.5020   20.9000 C   0  0  0  0  0  0  0  0  0  0  0  0
  -24.3450   -9.5170   21.8130 C   0  0  0  0  0  3  0  0  0  0  0  0
  -23.5760   -8.3550   22.0320 C   0  0  0  0  0  3  0  0  0  0  0  0
  -22.3560   -8.1690   21.3380 C   0  0  0  0  0  0  0  0  0  0  0  0
  -21.9380   -9.1420   20.4140 C   0  0  0  0  0  3  0  0  0  0  0  0
  -22.7070  -10.2970   20.1920 C   0  0  0  0  0  3  0  0  0  0  0  0
  -21.5580   -7.0590   21.4680 O   0  0  0  0  0  0  0  0  0  0  0  0
  -21.5410   -6.3170   22.6220 C   0  0  0  0  0  0  0  0  0  0  0  0
  -21.2260   -6.8910   23.8730 C   0  0  0  0  0  3  0  0  0  0  0  0
  -21.1540   -6.0790   25.0220 C   0  0  0  0  0  3  0  0  0  0  0  0
  -21.3840   -4.6940   24.9220 C   0  0  0  0  0  0  0  0  0  0  0  0
  -21.6930   -4.1200   23.6760 C   0  0  0  0  0  3  0  0  0  0  0  0
  -21.7690   -4.9290   22.5300 C   0  0  0  0  0  0  0  0  0  0  0  0
  -22.0450   -4.3680   21.3280 F   0  0  0  0  0  0  0  0  0  0  0  0
  -21.3070   -3.9120   26.0240 F   0  0  0  0  0  0  0  0  0  0  0  0
  -22.9070  -13.6370   21.0390 C   0  0  0  0  0  0  0  0  0  0  0  0
  -22.1980  -12.9870   21.9550 N   0  0  0  0  0  0  0  0  0  0  0  0
  -22.4850  -14.6730   20.5260 O   0  0  0  0  0  0  0  0  0  0  0  0
  -22.5530  -12.1500   22.3960 H   0  0  0  0  0  0  0  0  0  0  0  0
  -21.2880  -13.3320   22.2230 H   0  0  0  0  0  0  0  0  0  0  0  0
  -25.5280  -15.1660   20.0170 N   0  0  0  0  0  0  0  0  0  0  0  0
  -24.8200  -15.8610   20.2260 H   0  0  0  0  0  0  0  0  0  0  0  0
  -26.3750  -15.5760   19.6500 H   0  0  0  0  0  0  0  0  0  0  0  0
  -29.0680  -22.8740   20.6930 C   0  0  0  0  0  3  0  0  0  0  0  0
  -28.3620  -24.0090   20.3910 C   0  0  0  0  0  3  0  0  0  0  0  0
  -28.3790  -25.3450   21.1770 C   0  0  0  0  0  2  0  0  0  0  0  0
  -28.4170  -26.5770   20.4040 O   0  0  0  0  0  0  0  0  0  0  0  0
  -24.5760  -31.9220   23.3100 C   0  0  0  0  0  0  0  0  0  0  0  0
  -27.2700  -27.3600   20.4020 C   0  0  0  0  0  0  0  0  0  0  0  0
  -23.4070  -30.4960   21.6630 C   0  0  0  0  0  3  0  0  0  0  0  0
  -24.8900  -28.9120   20.3110 C   0  0  0  0  0  0  0  0  0  0  0  0
  -25.9440  -30.8240   21.5290 C   0  0  0  0  0  2  0  0  0  0  0  0
  -26.0390  -29.4340   20.9200 C   0  0  0  0  0  0  0  0  0  0  0  0
  -27.2340  -28.6690   20.9570 C   0  0  0  0  0  3  0  0  0  0  0  0
  -26.1030  -26.8620   19.7870 C   0  0  0  0  0  3  0  0  0  0  0  0
  -24.9210  -27.6270   19.7390 C   0  0  0  0  0  3  0  0  0  0  0  0
  -23.6510  -29.7840   20.3050 C   0  0  0  0  0  2  0  0  0  0  0  0
  -24.6590  -31.0980   22.2260 N   0  0  0  0  0  0  0  0  0  0  0  0
  -23.4810  -32.2120   23.8130 O   0  0  0  0  0  0  0  0  0  0  0  0
  -22.7190  -29.5010   22.6270 C   0  0  0  0  0  0  0  0  0  0  0  0
  -21.3930  -29.3400   22.4790 N   0  0  0  0  0  0  0  0  0  0  0  0
  -23.3770  -28.8750   23.4610 O   0  0  0  0  0  0  0  0  0  0  0  0
  -20.9230  -29.8930   21.7760 H   0  0  0  0  0  0  0  0  0  0  0  0
  -17.9890  -28.2220   22.9560 C   0  0  0  0  0  0  0  0  0  0  0  0
  -20.5490  -28.4250   23.2480 C   0  0  0  0  0  3  0  0  0  0  0  0
  -20.6230  -26.9880   22.6800 C   0  0  0  0  0  2  0  0  0  0  0  0
  -19.5260  -26.6870   21.6560 C   0  0  0  0  0  2  0  0  0  0  0  0
  -18.1410  -26.8660   22.2850 C   0  0  0  0  0  2  0  0  0  0  0  0
  -19.1200  -28.9610   23.3930 C   0  0  0  0  0  0  0  0  0  0  0  0
  -18.9250  -30.2310   23.9770 C   0  0  0  0  0  3  0  0  0  0  0  0
  -17.6310  -30.7630   24.1290 C   0  0  0  0  0  3  0  0  0  0  0  0
  -16.5130  -30.0210   23.7080 C   0  0  0  0  0  3  0  0  0  0  0  0
  -16.6930  -28.7530   23.1280 C   0  0  0  0  0  3  0  0  0  0  0  0
  -25.8480  -32.5580   23.9520 C   0  0  0  0  0  3  0  0  0  0  0  0
  -26.3250  -31.8100   25.2580 C   0  0  1  0  0  0  0  0  0  0  0  0
  -25.2000  -31.5950   26.2960 C   0  0  0  0  0  1  0  0  0  0  0  0
  -26.9180  -30.4260   24.9080 C   0  0  0  0  0  1  0  0  0  0  0  0
  -27.4570  -32.6160   25.9390 C   0  0  0  0  0  1  0  0  0  0  0  0
  -25.5410  -33.9660   24.2430 N   0  0  0  0  0  0  0  0  0  0  0  0
  -25.8960  -34.9990   23.4670 C   0  0  0  0  0  0  0  0  0  0  0  0
  -26.5850  -34.8670   22.4520 O   0  0  0  0  0  0  0  0  0  0  0  0
  -24.9310  -34.1420   25.0270 H   0  0  0  0  0  0  0  0  0  0  0  0
  -24.1830  -36.7900   23.0390 C   0  0  0  0  0  1  0  0  0  0  0  0
  -25.4090  -36.4000   23.8810 C   0  0  0  0  0  3  0  0  0  0  0  0
  -27.5370  -37.2900   24.7220 C   0  0  0  0  0  1  0  0  0  0  0  0
  -26.4500  -37.4450   23.7590 N   0  0  0  0  0  0  0  0  0  0  0  0
  -26.0460  -38.3690   23.8800 H   0  0  0  0  0  0  0  0  0  0  0  0
  1  2  1  0
  1 51  1  0
  2  4  1  0
  3  1  2  0
  5  8  2  0
  5 10  1  0
  6  9  1  0
  7  9  2  0
  7 11  1  0
  8  2  1  0
  8  7  1  0
  9 22  1  0
 10 12  1  0
 10  6  2  0
 13 22  1  0
 14 19  1  0
 15 16  1  0
 15 14  1  0
 17 16  1  0
 17 26  1  0
 17 18  1  0
 19 13  1  0
 19 18  1  0
 20 13  2  0
 22 21  1  0
 23 24  2  0
 24 43  1  0
 25 24  1  0
 25 28  1  0
 26 23  1  0
 26 27  1  0
 27 25  2  0
 28 29  1  0
 29 30  2  0
 31 34  1  0
 31 30  1  0
 32 31  2  0
 33 32  1  0
 33 28  2  0
 34 35  1  0
 35 36  1  0
 36 37  2  0
 38 37  1  0
 38 42  1  0
 39 38  2  0
 40 35  2  0
 40 39  1  0
 41 40  1  0
 43 44  1  0
 44 47  1  0
 44 46  1  0
 45 43  2  0
 48 49  1  0
 48 23  1  0
 50 48  1  0
 52 51  2  0
 52 53  1  0
 54 53  1  0
 55 66  2  0
 56 54  1  0
 56 61  1  0
 57 65  1  0
 57 67  1  0
 58 60  1  0
 59 65  1  0
 60 61  2  0
 60 59  1  0
 62 56  2  0
 63 62  1  0
 63 58  2  0
 64 58  1  0
 64 57  1  0
 65 55  1  0
 67 69  2  0
 68 67  1  0
 70 68  1  0
 71 80  2  0
 71 76  1  0
 72 68  1  0
 72 76  1  0
 73 72  1  0
 74 75  1  0
 74 73  1  0
 75 71  1  0
 76 77  2  0
 77 78  1  0
 79 78  2  0
 80 79  1  0
 81 55  1  0
 81 86  1  0
 81 82  1  0
 82 85  1  1
 82 83  1  0
 84 82  1  0
 86 89  1  0
 87 91  1  0
 87 86  1  0
 88 87  2  0
 91 90  1  0
 93 94  1  0
 93 91  1  0
 93 92  1  0
M  ISO  4  13 100  22 100  53 101  54 101
M  END
>  <TORSDO>  (8) 
F 19

>  <SCORE>  (8) 
-14.237

>  <name>  (8) 
7

>  <ligand_id>  (8) 
7

>  <original_smiles>  (8) 
[H]C(C(=O)N([H])c1c([H])c(F)c([H])c(N(C(=O)N2C([H])([H])C([H])([H])C([H])([H])C([H])(n3nc(-c4c([H])c([H])c(Oc5c([H])c([H])c(F)c([H])c5F)c([H])c4[H])c(C(=O)N([H])[H])c3N([H])[H])C2([H])[H])C([H])([H])[H])c1C([H])([H])[H])=C([H])C([H])([H])Oc1c([H])c([H])c2c(c1[H])C([H])([H])N(C(=O)C([H])(N([H])C(=O)C([H])(N([H])C([H])([H])[H])C([H])([H])[H])C(C([H])([H])[H])(C([H])([H])[H])C([H])([H])[H])C([H])(C(=O)N([H])C1([H])c3c([H])c([H])c([H])c([H])c3C([H])([H])C([H])([H])C1([H])[H])C2([H])[H]

>  <smiles>  (8) 
[H]C(C(=O)N([H])c1c([H])c(F)c([H])c(N(C(=O)N2C([H])([H])C([H])([H])C([H])([H])C([H])(n3nc(-c4c([H])c([H])c(Oc5c([H])c([H])c(F)c([H])c5F)c([H])c4[H])c(C(=O)N([H])[H])c3N([H])[H])C2([H])[H])C([H])([H])[H])c1C([H])([H])[H])=C([H])C([H])([H])Oc1c([H])c([H])c2c(c1[H])C([H])([H])N(C(=O)C([H])(N([H])C(=O)C([H])(N([H])C([H])([H])[H])C([H])([H])[H])C(C([H])([H])[H])(C([H])([H])[H])C([H])([H])[H])C([H])(C(=O)N([H])C1([H])c3c([H])c([H])c([H])c([H])c3C([H])([H])C([H])([H])C1([H])[H])C2([H])[H]

$$$$
8:0:0
     RDKit          3D

 95104  0  0  1  0  0  0  0  0999 V2000
  -28.6890  -22.0250   21.4270 C   0  0  0  0  0  0  0  0  0  0  0  0
  -28.9600  -22.4800   19.2110 C   0  0  0  0  0  2  0  0  0  0  0  0
  -28.3980  -23.5480   21.2800 C   0  0  0  0  0  3  0  0  0  0  0  0
  -28.2390  -23.7970   19.7750 C   0  0  0  0  0  3  0  0  0  0  0  0
  -27.1810  -24.0260   22.1020 C   0  0  0  0  0  1  0  0  0  0  0  0
  -29.0720  -21.4170   20.2810 N   0  0  0  0  0  0  0  0  0  0  0  0
  -28.5610  -21.4490   22.5130 O   0  0  0  0  0  0  0  0  0  0  0  0
  -29.5290  -18.7940   20.3440 C   0  0  0  0  0  3  0  0  0  0  0  0
  -31.8120  -17.9900   20.3810 C   0  0  0  0  0  3  0  0  0  0  0  0
  -31.3700  -20.4120   20.2670 C   0  0  0  0  0  0  0  0  0  0  0  0
  -29.9590  -20.2010   20.2690 C   0  0  0  0  0  0  0  0  0  0  0  0
  -30.4410  -17.6420   20.3880 C   0  0  0  0  0  0  0  0  0  0  0  0
  -32.2600  -19.3180   20.3130 C   0  0  0  0  0  0  0  0  0  0  0  0
  -32.0020  -21.8010   20.2790 C   0  0  0  0  0  1  0  0  0  0  0  0
  -33.5960  -19.5410   20.3070 F   0  0  0  0  0  0  0  0  0  0  0  0
  -30.7820  -15.0100   20.2130 C   0  0  0  0  0  0  0  0  0  0  0  0
  -30.5440  -12.7360   19.1950 C   0  0  0  0  0  2  0  0  0  0  0  0
  -29.5870  -12.8010   17.9850 C   0  0  0  0  0  2  0  0  0  0  0  0
  -28.1310  -12.6090   18.4460 C   0  0  0  0  0  2  0  0  0  0  0  0
  -27.7730  -13.4930   19.6690 C   0  0  0  0  0  3  0  0  0  0  0  0
  -28.8520  -13.4310   20.7710 C   0  0  0  0  0  2  0  0  0  0  0  0
  -30.1310  -13.7940   20.1500 N   0  0  0  0  0  0  0  0  0  0  0  0
  -31.9620  -15.0440   19.8610 O   0  0  0  0  0  0  0  0  0  0  0  0
  -30.0510  -16.1860   20.4580 N   0  0  0  0  0  0  0  0  0  0  0  0
  -29.0810  -16.0140   20.6690 H   0  0  0  0  0  0  0  0  0  0  0  0
  -25.4000  -14.0620   20.4480 C   0  0  0  0  0  0  0  0  0  0  0  0
  -24.3460  -13.2770   20.8300 C   0  0  0  0  0  0  0  0  0  0  0  0
  -24.8180  -11.9300   20.7810 C   0  0  0  0  0  0  0  0  0  0  0  0
  -26.4430  -13.1900   20.1840 N   0  0  0  0  0  0  0  0  0  0  0  0
  -26.1030  -11.9040   20.4480 N   0  0  0  0  0  0  0  0  0  0  0  0
  -24.1030  -10.6620   20.9720 C   0  0  0  0  0  0  0  0  0  0  0  0
  -24.5330   -9.7050   21.9170 C   0  0  0  0  0  3  0  0  0  0  0  0
  -23.8160   -8.5020   22.0970 C   0  0  0  0  0  3  0  0  0  0  0  0
  -22.6550   -8.2470   21.3300 C   0  0  0  0  0  0  0  0  0  0  0  0
  -22.2430   -9.1930   20.3730 C   0  0  0  0  0  3  0  0  0  0  0  0
  -22.9600  -10.3880   20.1930 C   0  0  0  0  0  3  0  0  0  0  0  0
  -21.9090   -7.0950   21.4180 O   0  0  0  0  0  0  0  0  0  0  0  0
  -21.8260   -6.3790   22.5850 C   0  0  0  0  0  0  0  0  0  0  0  0
  -21.2970   -6.9410   23.7670 C   0  0  0  0  0  3  0  0  0  0  0  0
  -21.1660   -6.1490   24.9250 C   0  0  0  0  0  3  0  0  0  0  0  0
  -21.5550   -4.7960   24.9010 C   0  0  0  0  0  0  0  0  0  0  0  0
  -22.0760   -4.2340   23.7210 C   0  0  0  0  0  3  0  0  0  0  0  0
  -22.2090   -5.0230   22.5660 C   0  0  0  0  0  0  0  0  0  0  0  0
  -22.6920   -4.4710   21.4260 F   0  0  0  0  0  0  0  0  0  0  0  0
  -21.4220   -4.0310   26.0100 F   0  0  0  0  0  0  0  0  0  0  0  0
  -22.9520  -13.7460   21.1290 C   0  0  0  0  0  0  0  0  0  0  0  0
  -22.2460  -13.0430   22.0080 N   0  0  0  0  0  0  0  0  0  0  0  0
  -22.4990  -14.7690   20.6190 O   0  0  0  0  0  0  0  0  0  0  0  0
  -22.6280  -12.2160   22.4400 H   0  0  0  0  0  0  0  0  0  0  0  0
  -21.3130  -13.3410   22.2550 H   0  0  0  0  0  0  0  0  0  0  0  0
  -25.5530  -15.4330   20.2750 N   0  0  0  0  0  0  0  0  0  0  0  0
  -24.7800  -16.0790   20.3870 H   0  0  0  0  0  0  0  0  0  0  0  0
  -26.3810  -15.8760   19.8980 H   0  0  0  0  0  0  0  0  0  0  0  0
  -28.6420  -25.2540   19.1590 C   0  0  0  0  0  2  0  0  0  0  0  0
  -28.4910  -26.6070   19.7950 O   0  0  0  0  0  0  0  0  0  0  0  0
  -24.5680  -31.7630   23.0290 C   0  0  0  0  0  0  0  0  0  0  0  0
  -27.3370  -27.4180   19.7530 C   0  0  0  0  0  0  0  0  0  0  0  0
  -23.4090  -30.3840   21.3420 C   0  0  0  0  0  3  0  0  0  0  0  0
  -24.9090  -28.9530   19.8340 C   0  0  0  0  0  0  0  0  0  0  0  0
  -25.9320  -30.8120   21.1480 C   0  0  0  0  0  2  0  0  0  0  0  0
  -26.0650  -29.4610   20.4420 C   0  0  0  0  0  0  0  0  0  0  0  0
  -27.2770  -28.7040   20.3920 C   0  0  0  0  0  3  0  0  0  0  0  0
  -26.1550  -26.9640   19.1340 C   0  0  0  0  0  3  0  0  0  0  0  0
  -24.9590  -27.7110   19.1740 C   0  0  0  0  0  3  0  0  0  0  0  0
  -23.6350  -29.7730   19.9340 C   0  0  0  0  0  2  0  0  0  0  0  0
  -24.6550  -31.0030   21.8970 N   0  0  0  0  0  0  0  0  0  0  0  0
  -23.4790  -31.9730   23.5850 O   0  0  0  0  0  0  0  0  0  0  0  0
  -22.8000  -29.3010   22.2640 C   0  0  0  0  0  0  0  0  0  0  0  0
  -21.4800  -29.0770   22.1470 N   0  0  0  0  0  0  0  0  0  0  0  0
  -23.5160  -28.6640   23.0410 O   0  0  0  0  0  0  0  0  0  0  0  0
  -20.9600  -29.6480   21.4940 H   0  0  0  0  0  0  0  0  0  0  0  0
  -18.1560  -27.7460   22.6660 C   0  0  0  0  0  0  0  0  0  0  0  0
  -20.7120  -28.0740   22.8840 C   0  0  0  0  0  3  0  0  0  0  0  0
  -20.8400  -26.6790   22.2300 C   0  0  0  0  0  2  0  0  0  0  0  0
  -19.7220  -26.3770   21.2280 C   0  0  0  0  0  2  0  0  0  0  0  0
  -18.3530  -26.4430   21.9120 C   0  0  0  0  0  2  0  0  0  0  0  0
  -19.2620  -28.5200   23.1090 C   0  0  0  0  0  0  0  0  0  0  0  0
  -19.0230  -29.7410   23.7750 C   0  0  0  0  0  3  0  0  0  0  0  0
  -17.7080  -30.1910   24.0010 C   0  0  0  0  0  3  0  0  0  0  0  0
  -16.6170  -29.4160   23.5720 C   0  0  0  0  0  3  0  0  0  0  0  0
  -16.8420  -28.1950   22.9120 C   0  0  0  0  0  3  0  0  0  0  0  0
  -25.8280  -32.4230   23.6690 C   0  0  0  0  0  3  0  0  0  0  0  0
  -25.4660  -33.7980   24.0450 N   0  0  0  0  0  0  0  0  0  0  0  0
  -25.7690  -34.8890   23.3280 C   0  0  0  0  0  0  0  0  0  0  0  0
  -26.4500  -34.8440   22.2990 O   0  0  0  0  0  0  0  0  0  0  0  0
  -24.8540  -33.9050   24.8390 H   0  0  0  0  0  0  0  0  0  0  0  0
  -23.9950  -36.6460   23.0150 C   0  0  0  0  0  1  0  0  0  0  0  0
  -25.2320  -36.2430   23.8320 C   0  0  0  0  0  3  0  0  0  0  0  0
  -27.3150  -37.1590   24.7530 C   0  0  0  0  0  1  0  0  0  0  0  0
  -26.2350  -37.3290   23.7840 N   0  0  0  0  0  0  0  0  0  0  0  0
  -25.7970  -38.2320   23.9530 H   0  0  0  0  0  0  0  0  0  0  0  0
  -26.3720  -31.6340   24.9230 C   0  0  1  0  0  0  0  0  0  0  0  0
  -25.2860  -31.3300   25.9820 C   0  0  0  0  0  1  0  0  0  0  0  0
  -27.0050  -30.2890   24.4890 C   0  0  0  0  0  1  0  0  0  0  0  0
  -27.4910  -32.4520   25.6090 C   0  0  0  0  0  1  0  0  0  0  0  0
  1  7  2  0
  2  4  1  0
  2  6  1  0
  3  1  1  0
  3  5  1  0
  4 54  1  0
  4  3  1  0
  6  1  1  0
  8 12  1  0
  9 12  2  0
 10 11  1  0
 10 14  1  0
 10 13  2  0
 11  6  1  0
 11  8  2  0
 12 24  1  0
 13  9  1  0
 15 13  1  0
 16 24  1  0
 17 22  1  0
 18 19  1  0
 18 17  1  0
 20 19  1  0
 20 29  1  0
 20 21  1  0
 22 16  1  0
 22 21  1  0
 23 16  2  0
 24 25  1  0
 26 27  2  0
 27 46  1  0
 28 27  1  0
 28 31  1  0
 29 26  1  0
 29 30  1  0
 30 28  2  0
 31 32  1  0
 32 33  2  0
 34 37  1  0
 34 33  1  0
 35 34  2  0
 36 35  1  0
 36 31  2  0
 37 38  1  0
 38 39  1  0
 39 40  2  0
 41 40  1  0
 41 45  1  0
 42 41  2  0
 43 38  2  0
 43 42  1  0
 44 43  1  0
 46 47  1  0
 47 50  1  0
 47 49  1  0
 48 46  2  0
 51 52  1  0
 51 26  1  0
 53 51  1  0
 54 55  1  0
 56 67  2  0
 57 55  1  0
 57 62  1  0
 58 66  1  0
 58 68  1  0
 59 65  1  0
 59 61  1  0
 60 66  1  0
 61 60  1  0
 62 61  2  0
 63 64  1  0
 63 57  2  0
 64 59  2  0
 65 58  1  0
 66 56  1  0
 68 70  2  0
 69 68  1  0
 71 69  1  0
 72 81  2  0
 72 77  1  0
 73 69  1  0
 73 77  1  0
 74 73  1  0
 75 76  1  0
 75 74  1  0
 76 72  1  0
 77 78  2  0
 78 79  1  0
 80 79  2  0
 81 80  1  0
 82 56  1  0
 82 83  1  0
 82 92  1  0
 83 86  1  0
 84 88  1  0
 84 83  1  0
 85 84  2  0
 88 87  1  0
 90 88  1  0
 90 91  1  0
 90 89  1  0
 92 95  1  1
 92 93  1  0
 94 92  1  0
M  ISO  4  16 100  24 100  54 101  55 101
M  END
>  <TORSDO>  (9) 
F 18

>  <SCORE>  (9) 
-14.216

>  <name>  (9) 
8

>  <ligand_id>  (9) 
8

>  <original_smiles>  (9) 
[H]c1c([H])c([H])c2c(c1[H])C([H])([H])C([H])([H])C([H])([H])C2([H])N([H])C(=O)C1([H])N(C(=O)C([H])(N([H])C(=O)C([H])(N([H])C([H])([H])[H])C([H])([H])[H])C(C([H])([H])[H])(C([H])([H])[H])C([H])([H])[H])C([H])([H])c2c([H])c(OC([H])([H])C3([H])C([H])([H])N(c4c([H])c(N([H])C(=O)N5C([H])([H])C([H])([H])C([H])([H])C([H])(n6nc(-c7c([H])c([H])c(Oc8c([H])c([H])c(F)c([H])c8F)c([H])c7[H])c(C(=O)N([H])[H])c6N([H])[H])C5([H])[H])c([H])c(F)c4C([H])([H])[H])C(=O)C3([H])C([H])([H])[H])c([H])c([H])c2C1([H])[H]

>  <smiles>  (9) 
[H]c1c([H])c([H])c2c(c1[H])C([H])([H])C([H])([H])C([H])([H])C2([H])N([H])C(=O)C1([H])N(C(=O)C([H])(N([H])C(=O)C([H])(N([H])C([H])([H])[H])C([H])([H])[H])C(C([H])([H])[H])(C([H])([H])[H])C([H])([H])[H])C([H])([H])c2c([H])c(OC([H])([H])C3([H])C([H])([H])N(c4c([H])c(N([H])C(=O)N5C([H])([H])C([H])([H])C([H])([H])C([H])(n6nc(-c7c([H])c([H])c(Oc8c([H])c([H])c(F)c([H])c8F)c([H])c7[H])c(C(=O)N([H])[H])c6N([H])[H])C5([H])[H])c([H])c(F)c4C([H])([H])[H])C(=O)C3([H])C([H])([H])[H])c([H])c([H])c2C1([H])[H]

$$$$
9:0:0
     RDKit          3D

 96105  0  0  1  0  0  0  0  0999 V2000
  -30.5310  -21.8010   18.4190 C   0  0  0  0  0  0  0  0  0  0  0  0
  -30.8240  -23.2660   18.0810 C   0  0  0  0  0  2  0  0  0  0  0  0
  -29.7100  -24.2240   18.5110 C   0  0  0  0  0  2  0  0  0  0  0  0
  -29.0440  -22.5100   20.2400 C   0  0  0  0  0  2  0  0  0  0  0  0
  -29.3480  -24.0670   19.9930 C   0  0  1  0  0  0  0  0  0  0  0  0
  -30.5290  -24.4860   20.8950 C   0  0  0  0  0  1  0  0  0  0  0  0
  -29.9690  -21.4810   19.6190 N   0  0  0  0  0  0  0  0  0  0  0  0
  -30.8460  -20.9560   17.5740 O   0  0  0  0  0  0  0  0  0  0  0  0
  -28.7600  -19.3230   20.1060 C   0  0  0  0  0  3  0  0  0  0  0  0
  -31.1310  -17.8810   20.4440 C   0  0  0  0  0  3  0  0  0  0  0  0
  -28.7320  -17.9130   20.3260 C   0  0  0  0  0  0  0  0  0  0  0  0
  -29.9660  -20.0570   20.0180 C   0  0  0  0  0  0  0  0  0  0  0  0
  -29.9230  -17.1350   20.4390 C   0  0  0  0  0  0  0  0  0  0  0  0
  -31.1580  -19.2990   20.2690 C   0  0  0  0  0  0  0  0  0  0  0  0
  -27.3590  -17.2780   20.4030 C   0  0  0  0  0  1  0  0  0  0  0  0
  -32.7010  -20.0740   20.4150 Cl  0  0  0  0  0  0  0  0  0  0  0  0
  -30.6090  -14.6460   20.0720 C   0  0  0  0  0  0  0  0  0  0  0  0
  -30.3490  -12.4520   18.9270 C   0  0  0  0  0  2  0  0  0  0  0  0
  -29.3260  -12.6190   17.7810 C   0  0  0  0  0  2  0  0  0  0  0  0
  -27.8880  -12.4120   18.2950 C   0  0  0  0  0  2  0  0  0  0  0  0
  -27.5960  -13.2150   19.5900 C   0  0  0  0  0  3  0  0  0  0  0  0
  -28.7290  -13.0360   20.6280 C   0  0  0  0  0  2  0  0  0  0  0  0
  -29.9960  -13.4220   19.9840 N   0  0  0  0  0  0  0  0  0  0  0  0
  -31.7340  -14.8300   19.5960 O   0  0  0  0  0  0  0  0  0  0  0  0
  -29.8450  -15.6710   20.5660 N   0  0  0  0  0  0  0  0  0  0  0  0
  -28.9680  -15.3370   20.9370 H   0  0  0  0  0  0  0  0  0  0  0  0
  -25.2310  -13.7300   20.4550 C   0  0  0  0  0  0  0  0  0  0  0  0
  -24.2110  -12.9260   20.8790 C   0  0  0  0  0  0  0  0  0  0  0  0
  -24.7030  -11.5890   20.7850 C   0  0  0  0  0  0  0  0  0  0  0  0
  -26.2850  -12.8860   20.1450 N   0  0  0  0  0  0  0  0  0  0  0  0
  -25.9730  -11.5900   20.4000 N   0  0  0  0  0  0  0  0  0  0  0  0
  -24.0160  -10.3070   20.9830 C   0  0  0  0  0  0  0  0  0  0  0  0
  -24.4620   -9.3710   21.9410 C   0  0  0  0  0  3  0  0  0  0  0  0
  -23.7730   -8.1540   22.1260 C   0  0  0  0  0  3  0  0  0  0  0  0
  -22.6230   -7.8650   21.3530 C   0  0  0  0  0  0  0  0  0  0  0  0
  -22.1970   -8.7900   20.3840 C   0  0  0  0  0  3  0  0  0  0  0  0
  -22.8870   -9.9980   20.1970 C   0  0  0  0  0  3  0  0  0  0  0  0
  -21.9050   -6.6970   21.4470 O   0  0  0  0  0  0  0  0  0  0  0  0
  -21.7790   -6.0240   22.6360 C   0  0  0  0  0  0  0  0  0  0  0  0
  -21.1970   -6.6260   23.7730 C   0  0  0  0  0  3  0  0  0  0  0  0
  -21.0230   -5.8780   24.9540 C   0  0  0  0  0  3  0  0  0  0  0  0
  -21.4190   -4.5270   24.9970 C   0  0  0  0  0  0  0  0  0  0  0  0
  -21.9940   -3.9250   23.8640 C   0  0  0  0  0  3  0  0  0  0  0  0
  -22.1710   -4.6720   22.6850 C   0  0  0  0  0  0  0  0  0  0  0  0
  -22.7050   -4.0810   21.5900 F   0  0  0  0  0  0  0  0  0  0  0  0
  -21.2450   -3.8050   26.1280 F   0  0  0  0  0  0  0  0  0  0  0  0
  -22.8230  -13.3670   21.2460 C   0  0  0  0  0  0  0  0  0  0  0  0
  -22.1670  -12.6380   22.1430 N   0  0  0  0  0  0  0  0  0  0  0  0
  -22.3310  -14.3920   20.7760 O   0  0  0  0  0  0  0  0  0  0  0  0
  -22.5810  -11.8090   22.5440 H   0  0  0  0  0  0  0  0  0  0  0  0
  -21.2390  -12.9150   22.4330 H   0  0  0  0  0  0  0  0  0  0  0  0
  -25.3330  -15.1030   20.2780 N   0  0  0  0  0  0  0  0  0  0  0  0
  -24.5310  -15.7100   20.4000 H   0  0  0  0  0  0  0  0  0  0  0  0
  -26.1040  -15.5530   19.8030 H   0  0  0  0  0  0  0  0  0  0  0  0
  -28.1410  -25.0650   20.2930 C   0  0  0  0  0  2  0  0  0  0  0  0
  -28.3290  -26.5050   19.9970 O   0  0  0  0  0  0  0  0  0  0  0  0
  -24.6720  -31.8600   23.1650 C   0  0  0  0  0  0  0  0  0  0  0  0
  -27.2020  -27.3410   20.0000 C   0  0  0  0  0  0  0  0  0  0  0  0
  -23.4330  -30.5080   21.5100 C   0  0  0  0  0  3  0  0  0  0  0  0
  -24.8490  -28.9650   20.0450 C   0  0  0  0  0  0  0  0  0  0  0  0
  -25.9720  -30.8010   21.3070 C   0  0  0  0  0  2  0  0  0  0  0  0
  -26.0280  -29.4350   20.6370 C   0  0  0  0  0  0  0  0  0  0  0  0
  -27.2080  -28.6330   20.6040 C   0  0  0  0  0  3  0  0  0  0  0  0
  -26.0030  -26.9270   19.3770 C   0  0  0  0  0  3  0  0  0  0  0  0
  -24.8380  -27.7170   19.4050 C   0  0  0  0  0  3  0  0  0  0  0  0
  -23.6230  -29.8530   20.1170 C   0  0  0  0  0  2  0  0  0  0  0  0
  -24.7120  -31.0730   22.0510 N   0  0  0  0  0  0  0  0  0  0  0  0
  -23.5970  -32.1420   23.7150 O   0  0  0  0  0  0  0  0  0  0  0  0
  -22.7660  -29.4830   22.4570 C   0  0  0  0  0  0  0  0  0  0  0  0
  -21.4360  -29.3230   22.3350 N   0  0  0  0  0  0  0  0  0  0  0  0
  -23.4410  -28.8350   23.2610 O   0  0  0  0  0  0  0  0  0  0  0  0
  -20.9520  -29.8980   21.6600 H   0  0  0  0  0  0  0  0  0  0  0  0
  -18.0430  -28.1970   22.8730 C   0  0  0  0  0  0  0  0  0  0  0  0
  -20.6110  -28.3850   23.0950 C   0  0  0  0  0  3  0  0  0  0  0  0
  -20.6640  -26.9690   22.4750 C   0  0  0  0  0  2  0  0  0  0  0  0
  -19.5330  -26.7040   21.4770 C   0  0  0  0  0  2  0  0  0  0  0  0
  -18.1690  -26.8650   22.1540 C   0  0  0  0  0  2  0  0  0  0  0  0
  -19.1890  -28.9180   23.3000 C   0  0  0  0  0  0  0  0  0  0  0  0
  -19.0140  -30.1670   23.9340 C   0  0  0  0  0  3  0  0  0  0  0  0
  -17.7260  -30.6960   24.1430 C   0  0  0  0  0  3  0  0  0  0  0  0
  -16.5940  -29.9710   23.7300 C   0  0  0  0  0  3  0  0  0  0  0  0
  -16.7530  -28.7240   23.1030 C   0  0  0  0  0  3  0  0  0  0  0  0
  -25.9690  -32.4610   23.7880 C   0  0  0  0  0  3  0  0  0  0  0  0
  -25.6800  -33.8540   24.1570 N   0  0  0  0  0  0  0  0  0  0  0  0
  -25.9990  -34.9220   23.4120 C   0  0  0  0  0  0  0  0  0  0  0  0
  -26.6370  -34.8360   22.3590 O   0  0  0  0  0  0  0  0  0  0  0  0
  -25.1120  -33.9940   24.9800 H   0  0  0  0  0  0  0  0  0  0  0  0
  -24.2690  -36.7310   23.1530 C   0  0  0  0  0  1  0  0  0  0  0  0
  -25.5340  -36.3030   23.9140 C   0  0  0  0  0  3  0  0  0  0  0  0
  -27.6960  -37.1610   24.7000 C   0  0  0  0  0  1  0  0  0  0  0  0
  -26.5690  -37.3530   23.7910 N   0  0  0  0  0  0  0  0  0  0  0  0
  -26.1730  -38.2720   23.9680 H   0  0  0  0  0  0  0  0  0  0  0  0
  -26.4920  -31.6520   25.0370 C   0  0  1  0  0  0  0  0  0  0  0  0
  -25.4080  -31.3960   26.1110 C   0  0  0  0  0  1  0  0  0  0  0  0
  -27.0580  -30.2800   24.6040 C   0  0  0  0  0  1  0  0  0  0  0  0
  -27.6580  -32.4180   25.7060 C   0  0  0  0  0  1  0  0  0  0  0  0
  1  7  1  0
  2  1  1  0
  2  3  1  0
  3  5  1  0
  5  4  1  0
  5 55  1  0
  5  6  1  1
  7 12  1  0
  7  4  1  0
  8  1  2  0
  9 11  1  0
 11 15  1  0
 11 13  2  0
 12  9  2  0
 12 14  1  0
 13 10  1  0
 13 25  1  0
 14 16  1  0
 14 10  2  0
 17 25  1  0
 18 23  1  0
 19 20  1  0
 19 18  1  0
 21 20  1  0
 21 30  1  0
 21 22  1  0
 23 17  1  0
 23 22  1  0
 24 17  2  0
 25 26  1  0
 27 28  2  0
 28 47  1  0
 29 28  1  0
 29 32  1  0
 30 31  1  0
 30 27  1  0
 31 29  2  0
 32 33  1  0
 33 34  2  0
 35 38  1  0
 35 34  1  0
 36 35  2  0
 37 36  1  0
 37 32  2  0
 38 39  1  0
 39 44  2  0
 39 40  1  0
 40 41  2  0
 41 42  1  0
 42 46  1  0
 43 42  2  0
 44 43  1  0
 45 44  1  0
 47 48  1  0
 48 51  1  0
 48 50  1  0
 49 47  2  0
 52 53  1  0
 52 27  1  0
 54 52  1  0
 56 58  1  0
 56 55  1  0
 57 68  2  0
 58 63  1  0
 59 67  1  0
 59 69  1  0
 60 66  1  0
 60 62  1  0
 61 67  1  0
 62 61  1  0
 63 62  2  0
 64 65  1  0
 64 58  2  0
 65 60  2  0
 66 59  1  0
 67 57  1  0
 69 71  2  0
 70 69  1  0
 72 70  1  0
 73 82  2  0
 73 78  1  0
 74 70  1  0
 74 78  1  0
 75 74  1  0
 76 77  1  0
 76 75  1  0
 77 73  1  0
 78 79  2  0
 79 80  1  0
 81 80  2  0
 82 81  1  0
 83 57  1  0
 83 84  1  0
 83 93  1  0
 84 87  1  0
 85 89  1  0
 85 84  1  0
 86 85  2  0
 89 88  1  0
 91 89  1  0
 91 92  1  0
 91 90  1  0
 93 96  1  1
 93 94  1  0
 95 93  1  0
M  ISO  4  17 100  25 100  55 101  56 101
M  END
>  <TORSDO>  (10) 
F 18

>  <SCORE>  (10) 
-14.597

>  <name>  (10) 
9

>  <ligand_id>  (10) 
9

>  <original_smiles>  (10) 
[H]c1c([H])c([H])c2c(c1[H])C([H])([H])C([H])([H])C([H])([H])C2([H])N([H])C(=O)C1([H])N(C(=O)C([H])(N([H])C(=O)C([H])(N([H])C([H])([H])[H])C([H])([H])[H])C(C([H])([H])[H])(C([H])([H])[H])C([H])([H])[H])C([H])([H])c2c([H])c(OC([H])([H])C3(C([H])([H])[H])C([H])([H])N(c4c([H])c(C([H])([H])[H])c(N([H])C(=O)N5C([H])([H])C([H])([H])C([H])([H])C([H])(n6nc(-c7c([H])c([H])c(Oc8c([H])c([H])c(F)c([H])c8F)c([H])c7[H])c(C(=O)N([H])[H])c6N([H])[H])C5([H])[H])c([H])c4Cl)C(=O)C([H])([H])C3([H])[H])c([H])c([H])c2C1([H])[H]

>  <smiles>  (10) 
[H]c1c([H])c([H])c2c(c1[H])C([H])([H])C([H])([H])C([H])([H])C2([H])N([H])C(=O)C1([H])N(C(=O)C([H])(N([H])C(=O)C([H])(N([H])C([H])([H])[H])C([H])([H])[H])C(C([H])([H])[H])(C([H])([H])[H])C([H])([H])[H])C([H])([H])c2c([H])c(OC([H])([H])C3(C([H])([H])[H])C([H])([H])N(c4c([H])c(C([H])([H])[H])c(N([H])C(=O)N5C([H])([H])C([H])([H])C([H])([H])C([H])(n6nc(-c7c([H])c([H])c(Oc8c([H])c([H])c(F)c([H])c8F)c([H])c7[H])c(C(=O)N([H])[H])c6N([H])[H])C5([H])[H])c([H])c4Cl)C(=O)C([H])([H])C3([H])[H])c([H])c([H])c2C1([H])[H]

$$$$
10:0:0
     RDKit          3D

 97106  0  0  1  0  0  0  0  0999 V2000
  -30.8370  -21.4090   18.9550 C   0  0  0  0  0  0  0  0  0  0  0  0
  -29.2240  -22.2010   20.6340 C   0  0  0  0  0  2  0  0  0  0  0  0
  -29.5370  -23.7300   20.2300 C   0  0  0  0  0  3  0  0  0  0  0  0
  -30.7390  -22.8240   18.2920 C   0  0  2  0  0  0  0  0  0  0  0  0
  -30.3910  -22.6730   16.7980 C   0  0  0  0  0  1  0  0  0  0  0  0
  -32.0850  -23.5710   18.4280 C   0  0  0  0  0  1  0  0  0  0  0  0
  -30.0770  -21.0880   20.0360 N   0  0  0  0  0  0  0  0  0  0  0  0
  -31.6570  -20.6170   18.4750 O   0  0  0  0  0  0  0  0  0  0  0  0
  -29.6900  -23.6600   18.8150 O   0  0  0  0  0  0  0  0  0  0  0  0
  -30.8330  -18.5020   22.7090 C   0  0  0  0  0  3  0  0  0  0  0  0
  -30.5880  -19.7140   22.0360 C   0  0  0  0  0  3  0  0  0  0  0  0
  -30.7420  -17.2520   22.0600 C   0  0  0  0  0  0  0  0  0  0  0  0
  -30.2380  -19.7430   20.6680 C   0  0  0  0  0  0  0  0  0  0  0  0
  -30.4070  -17.1760   20.6830 C   0  0  0  0  0  0  0  0  0  0  0  0
  -30.1350  -18.4410   20.0080 C   0  0  0  0  0  0  0  0  0  0  0  0
  -30.9450  -16.0000   22.8980 C   0  0  0  0  0  1  0  0  0  0  0  0
  -29.7250  -18.3950   18.7160 F   0  0  0  0  0  0  0  0  0  0  0  0
  -30.9210  -14.7060   19.9610 C   0  0  0  0  0  0  0  0  0  0  0  0
  -30.5820  -12.4770   18.8720 C   0  0  0  0  0  2  0  0  0  0  0  0
  -29.5670  -12.6270   17.7200 C   0  0  0  0  0  2  0  0  0  0  0  0
  -28.1150  -12.5090   18.2330 C   0  0  0  0  0  2  0  0  0  0  0  0
  -27.8570  -13.3660   19.4990 C   0  0  0  0  0  3  0  0  0  0  0  0
  -28.9800  -13.1860   20.5440 C   0  0  0  0  0  2  0  0  0  0  0  0
  -30.2490  -13.5100   19.8750 N   0  0  0  0  0  0  0  0  0  0  0  0
  -32.1090  -14.7830   19.6350 O   0  0  0  0  0  0  0  0  0  0  0  0
  -30.1400  -15.8370   20.1130 N   0  0  0  0  0  0  0  0  0  0  0  0
  -29.1580  -15.6350   20.0230 H   0  0  0  0  0  0  0  0  0  0  0  0
  -25.5340  -14.0410   20.3580 C   0  0  0  0  0  0  0  0  0  0  0  0
  -24.4620  -13.3010   20.7760 C   0  0  0  0  0  0  0  0  0  0  0  0
  -24.8730  -11.9340   20.7090 C   0  0  0  0  0  0  0  0  0  0  0  0
  -26.5320  -13.1270   20.0600 N   0  0  0  0  0  0  0  0  0  0  0  0
  -26.1440  -11.8540   20.3350 N   0  0  0  0  0  0  0  0  0  0  0  0
  -24.1110  -10.6980   20.9240 C   0  0  0  0  0  0  0  0  0  0  0  0
  -24.5420   -9.7120   21.8390 C   0  0  0  0  0  3  0  0  0  0  0  0
  -23.7810   -8.5410   22.0430 C   0  0  0  0  0  3  0  0  0  0  0  0
  -22.5750   -8.3450   21.3290 C   0  0  0  0  0  0  0  0  0  0  0  0
  -22.1610   -9.3170   20.4030 C   0  0  0  0  0  3  0  0  0  0  0  0
  -22.9240  -10.4800   20.1970 C   0  0  0  0  0  3  0  0  0  0  0  0
  -21.7860   -7.2270   21.4440 O   0  0  0  0  0  0  0  0  0  0  0  0
  -21.7350   -6.4980   22.6060 C   0  0  0  0  0  0  0  0  0  0  0  0
  -21.3610   -7.0820   23.8370 C   0  0  0  0  0  3  0  0  0  0  0  0
  -21.2570   -6.2810   24.9920 C   0  0  0  0  0  3  0  0  0  0  0  0
  -21.5110   -4.8990   24.9170 C   0  0  0  0  0  0  0  0  0  0  0  0
  -21.8750   -4.3150   23.6900 C   0  0  0  0  0  3  0  0  0  0  0  0
  -21.9840   -5.1120   22.5390 C   0  0  0  0  0  0  0  0  0  0  0  0
  -22.3170   -4.5420   21.3550 F   0  0  0  0  0  0  0  0  0  0  0  0
  -21.4030   -4.1280   26.0230 F   0  0  0  0  0  0  0  0  0  0  0  0
  -23.0990  -13.8250   21.1220 C   0  0  0  0  0  0  0  0  0  0  0  0
  -22.3980  -13.1530   22.0300 N   0  0  0  0  0  0  0  0  0  0  0  0
  -22.6680  -14.8660   20.6270 O   0  0  0  0  0  0  0  0  0  0  0  0
  -22.7600  -12.3090   22.4510 H   0  0  0  0  0  0  0  0  0  0  0  0
  -21.4840  -13.4850   22.3090 H   0  0  0  0  0  0  0  0  0  0  0  0
  -25.7330  -15.4080   20.1810 N   0  0  0  0  0  0  0  0  0  0  0  0
  -24.9840  -16.0770   20.3250 H   0  0  0  0  0  0  0  0  0  0  0  0
  -26.5630  -15.8300   19.7850 H   0  0  0  0  0  0  0  0  0  0  0  0
  -28.4120  -24.8580   20.5440 C   0  0  0  0  0  2  0  0  0  0  0  0
  -28.6340  -26.3520   20.5020 O   0  0  0  0  0  0  0  0  0  0  0  0
  -24.7000  -31.8420   23.2480 C   0  0  0  0  0  0  0  0  0  0  0  0
  -27.5100  -27.2170   20.4060 C   0  0  0  0  0  0  0  0  0  0  0  0
  -23.5880  -30.3840   21.5970 C   0  0  0  0  0  3  0  0  0  0  0  0
  -25.1240  -28.8270   20.2700 C   0  0  0  0  0  0  0  0  0  0  0  0
  -26.1350  -30.7330   21.5130 C   0  0  0  0  0  2  0  0  0  0  0  0
  -26.2660  -29.3380   20.8980 C   0  0  0  0  0  0  0  0  0  0  0  0
  -27.4620  -28.5480   20.9490 C   0  0  0  0  0  3  0  0  0  0  0  0
  -26.3350  -26.7780   19.7480 C   0  0  0  0  0  3  0  0  0  0  0  0
  -25.1640  -27.5540   19.6860 C   0  0  0  0  0  3  0  0  0  0  0  0
  -23.8720  -29.6830   20.2440 C   0  0  0  0  0  2  0  0  0  0  0  0
  -24.8240  -31.0050   22.1750 N   0  0  0  0  0  0  0  0  0  0  0  0
  -23.5900  -32.1150   23.7270 O   0  0  0  0  0  0  0  0  0  0  0  0
  -22.8990  -29.3810   22.5520 C   0  0  0  0  0  0  0  0  0  0  0  0
  -21.5830  -29.1760   22.3750 N   0  0  0  0  0  0  0  0  0  0  0  0
  -23.5520  -28.7870   23.4140 O   0  0  0  0  0  0  0  0  0  0  0  0
  -21.1140  -29.7040   21.6520 H   0  0  0  0  0  0  0  0  0  0  0  0
  -18.2130  -27.9100   22.7470 C   0  0  0  0  0  0  0  0  0  0  0  0
  -20.7470  -28.2440   23.1350 C   0  0  0  0  0  3  0  0  0  0  0  0
  -20.9120  -26.7960   22.6140 C   0  0  0  0  0  2  0  0  0  0  0  0
  -19.8720  -26.4140   21.5570 C   0  0  0  0  0  2  0  0  0  0  0  0
  -18.4560  -26.5450   22.1250 C   0  0  0  0  0  2  0  0  0  0  0  0
  -19.2890  -28.7140   23.2060 C   0  0  0  0  0  0  0  0  0  0  0  0
  -19.0090  -29.9900   23.7420 C   0  0  0  0  0  3  0  0  0  0  0  0
  -17.6850  -30.4610   23.8270 C   0  0  0  0  0  3  0  0  0  0  0  0
  -16.6230  -29.6540   23.3850 C   0  0  0  0  0  3  0  0  0  0  0  0
  -16.8880  -28.3800   22.8510 C   0  0  0  0  0  3  0  0  0  0  0  0
  -25.9430  -32.5130   23.9070 C   0  0  0  0  0  3  0  0  0  0  0  0
  -25.5870  -33.9060   24.2120 N   0  0  0  0  0  0  0  0  0  0  0  0
  -25.9300  -34.9620   23.4630 C   0  0  0  0  0  0  0  0  0  0  0  0
  -26.6450  -34.8690   22.4630 O   0  0  0  0  0  0  0  0  0  0  0  0
  -24.9520  -34.0530   24.9840 H   0  0  0  0  0  0  0  0  0  0  0  0
  -24.1760  -36.7130   23.0290 C   0  0  0  0  0  1  0  0  0  0  0  0
  -25.3930  -36.3420   23.8920 C   0  0  0  0  0  3  0  0  0  0  0  0
  -27.4750  -37.2780   24.7950 C   0  0  0  0  0  1  0  0  0  0  0  0
  -26.4040  -37.4180   23.8130 N   0  0  0  0  0  0  0  0  0  0  0  0
  -25.9720  -38.3280   23.9450 H   0  0  0  0  0  0  0  0  0  0  0  0
  -26.4330  -31.7660   25.2090 C   0  0  1  0  0  0  0  0  0  0  0  0
  -25.3100  -31.5060   26.2390 C   0  0  0  0  0  1  0  0  0  0  0  0
  -27.0650  -30.4010   24.8550 C   0  0  0  0  0  1  0  0  0  0  0  0
  -27.5400  -32.5950   25.9020 C   0  0  0  0  0  1  0  0  0  0  0  0
  1  7  1  0
  3 56  1  0
  3  2  1  0
  4  6  1  6
  4  9  1  0
  4  1  1  0
  5  4  1  0
  7  2  1  0
  7 13  1  0
  8  1  2  0
  9  3  1  0
 11 10  2  0
 12 10  1  0
 12 16  1  0
 13 11  1  0
 14 12  2  0
 15 13  2  0
 15 14  1  0
 17 15  1  0
 18 26  1  0
 19 24  1  0
 20 21  1  0
 20 19  1  0
 22 21  1  0
 22 31  1  0
 22 23  1  0
 24 18  1  0
 24 23  1  0
 25 18  2  0
 26 14  1  0
 27 26  1  0
 28 29  2  0
 29 48  1  0
 30 29  1  0
 30 33  1  0
 31 32  1  0
 31 28  1  0
 32 30  2  0
 33 34  1  0
 34 35  2  0
 36 39  1  0
 36 35  1  0
 37 36  2  0
 38 37  1  0
 38 33  2  0
 39 40  1  0
 40 41  1  0
 41 42  2  0
 43 42  1  0
 43 47  1  0
 44 43  2  0
 45 40  2  0
 45 44  1  0
 46 45  1  0
 48 49  1  0
 49 52  1  0
 49 51  1  0
 50 48  2  0
 53 54  1  0
 53 28  1  0
 55 53  1  0
 57 56  1  0
 58 69  2  0
 59 57  1  0
 59 64  1  0
 60 68  1  0
 60 70  1  0
 61 63  1  0
 62 68  1  0
 63 64  2  0
 63 62  1  0
 65 59  2  0
 66 65  1  0
 66 61  2  0
 67 61  1  0
 67 60  1  0
 68 58  1  0
 70 72  2  0
 71 70  1  0
 73 71  1  0
 74 83  2  0
 74 79  1  0
 75 71  1  0
 75 79  1  0
 76 75  1  0
 77 78  1  0
 77 76  1  0
 78 74  1  0
 79 80  2  0
 80 81  1  0
 82 81  2  0
 83 82  1  0
 84 58  1  0
 84 85  1  0
 84 94  1  0
 85 88  1  0
 86 90  1  0
 86 85  1  0
 87 86  2  0
 90 89  1  0
 92 90  1  0
 92 93  1  0
 92 91  1  0
 94 97  1  1
 94 95  1  0
 96 94  1  0
M  ISO  4  18 100  26 100  56 101  57 101
M  END
>  <TORSDO>  (11) 
F 18

>  <SCORE>  (11) 
-13.330

>  <name>  (11) 
10

>  <ligand_id>  (11) 
10

>  <original_smiles>  (11) 
[H]c1c([H])c([H])c2c(c1[H])C([H])([H])C([H])([H])C([H])([H])C2([H])N([H])C(=O)C1([H])N(C(=O)C([H])(N([H])C(=O)C([H])(N([H])C([H])([H])[H])C([H])([H])[H])C(C([H])([H])[H])(C([H])([H])[H])C([H])([H])[H])C([H])([H])c2c([H])c(OC([H])([H])C3([H])OC(C([H])([H])[H])(C([H])([H])[H])C(=O)N(c4c([H])c([H])c(C([H])([H])[H])c(N([H])C(=O)N5C([H])([H])C([H])([H])C([H])([H])C([H])(n6nc(-c7c([H])c([H])c(Oc8c([H])c([H])c(F)c([H])c8F)c([H])c7[H])c(C(=O)N([H])[H])c6N([H])[H])C5([H])[H])c4F)C3([H])[H])c([H])c([H])c2C1([H])[H]

>  <smiles>  (11) 
[H]c1c([H])c([H])c2c(c1[H])C([H])([H])C([H])([H])C([H])([H])C2([H])N([H])C(=O)C1([H])N(C(=O)C([H])(N([H])C(=O)C([H])(N([H])C([H])([H])[H])C([H])([H])[H])C(C([H])([H])[H])(C([H])([H])[H])C([H])([H])[H])C([H])([H])c2c([H])c(OC([H])([H])C3([H])OC(C([H])([H])[H])(C([H])([H])[H])C(=O)N(c4c([H])c([H])c(C([H])([H])[H])c(N([H])C(=O)N5C([H])([H])C([H])([H])C([H])([H])C([H])(n6nc(-c7c([H])c([H])c(Oc8c([H])c([H])c(F)c([H])c8F)c([H])c7[H])c(C(=O)N([H])[H])c6N([H])[H])C5([H])[H])c4F)C3([H])[H])c([H])c([H])c2C1([H])[H]

$$$$
11:0:0
     RDKit          3D

100109  0  0  1  0  0  0  0  0999 V2000
  -29.2950  -18.2990   18.2220 C   0  0  0  0  0  3  0  0  0  0  0  0
  -29.8670  -18.7210   20.9080 C   0  0  0  0  0  3  0  0  0  0  0  0
  -29.2610  -19.6210   18.7130 C   0  0  0  0  0  0  0  0  0  0  0  0
  -29.5570  -19.8950   20.0820 C   0  0  0  0  0  0  0  0  0  0  0  0
  -29.8940  -17.3430   20.4030 C   0  0  0  0  0  0  0  0  0  0  0  0
  -29.5970  -17.1920   19.0310 C   0  0  0  0  0  0  0  0  0  0  0  0
  -29.5460  -15.9600   18.4730 F   0  0  0  0  0  0  0  0  0  0  0  0
  -30.8130  -14.9590   20.9080 C   0  0  0  0  0  0  0  0  0  0  0  0
  -30.7310  -12.6260   20.0080 C   0  0  0  0  0  2  0  0  0  0  0  0
  -29.9150  -12.6290   18.6960 C   0  0  0  0  0  2  0  0  0  0  0  0
  -28.4100  -12.4720   18.9890 C   0  0  0  0  0  2  0  0  0  0  0  0
  -27.9200  -13.4040   20.1300 C   0  0  0  0  0  3  0  0  0  0  0  0
  -28.8690  -13.3700   21.3490 C   0  0  0  0  0  2  0  0  0  0  0  0
  -30.2160  -13.7140   20.8740 N   0  0  0  0  0  0  0  0  0  0  0  0
  -32.0050  -15.0670   20.6030 O   0  0  0  0  0  0  0  0  0  0  0  0
  -30.0460  -16.0850   21.1890 N   0  0  0  0  0  0  0  0  0  0  0  0
  -29.2150  -15.8530   21.7100 H   0  0  0  0  0  0  0  0  0  0  0  0
  -25.4750  -14.0010   20.6220 C   0  0  0  0  0  0  0  0  0  0  0  0
  -24.3820  -13.2320   20.9150 C   0  0  0  0  0  0  0  0  0  0  0  0
  -24.8490  -11.8830   20.9610 C   0  0  0  0  0  0  0  0  0  0  0  0
  -26.5380  -13.1210   20.5040 N   0  0  0  0  0  0  0  0  0  0  0  0
  -26.1620  -11.8440   20.7700 N   0  0  0  0  0  0  0  0  0  0  0  0
  -24.1110  -10.6230   21.1180 C   0  0  0  0  0  0  0  0  0  0  0  0
  -24.4680   -9.6730   22.1010 C   0  0  0  0  0  3  0  0  0  0  0  0
  -23.7290   -8.4780   22.2440 C   0  0  0  0  0  3  0  0  0  0  0  0
  -22.6210   -8.2240   21.4030 C   0  0  0  0  0  0  0  0  0  0  0  0
  -22.2840   -9.1610   20.4110 C   0  0  0  0  0  3  0  0  0  0  0  0
  -23.0220  -10.3470   20.2660 C   0  0  0  0  0  3  0  0  0  0  0  0
  -21.8620   -7.0790   21.4530 O   0  0  0  0  0  0  0  0  0  0  0  0
  -21.7520   -6.3380   22.6020 C   0  0  0  0  0  0  0  0  0  0  0  0
  -21.2450   -6.8920   23.7990 C   0  0  0  0  0  3  0  0  0  0  0  0
  -21.0820   -6.0770   24.9370 C   0  0  0  0  0  3  0  0  0  0  0  0
  -21.4150   -4.7110   24.8800 C   0  0  0  0  0  0  0  0  0  0  0  0
  -21.9150   -4.1570   23.6880 C   0  0  0  0  0  3  0  0  0  0  0  0
  -22.0790   -4.9690   22.5510 C   0  0  0  0  0  0  0  0  0  0  0  0
  -22.5410   -4.4250   21.3990 F   0  0  0  0  0  0  0  0  0  0  0  0
  -21.2520   -3.9260   25.9700 F   0  0  0  0  0  0  0  0  0  0  0  0
  -22.9660  -13.7100   21.0480 C   0  0  0  0  0  0  0  0  0  0  0  0
  -22.1650  -13.0360   21.8670 N   0  0  0  0  0  0  0  0  0  0  0  0
  -22.5740  -14.7170   20.4610 O   0  0  0  0  0  0  0  0  0  0  0  0
  -22.4940  -12.2220   22.3640 H   0  0  0  0  0  0  0  0  0  0  0  0
  -21.2110  -13.3400   22.0000 H   0  0  0  0  0  0  0  0  0  0  0  0
  -25.6500  -15.3680   20.4250 N   0  0  0  0  0  0  0  0  0  0  0  0
  -24.8710  -16.0190   20.4500 H   0  0  0  0  0  0  0  0  0  0  0  0
  -26.5180  -15.8020   20.1390 H   0  0  0  0  0  0  0  0  0  0  0  0
  -28.6480  -22.2960   20.6000 C   0  0  0  0  0  0  0  0  0  0  0  0
  -30.6010  -23.5490   20.2350 C   0  0  0  0  0  2  0  0  0  0  0  0
  -30.9110  -22.0470   20.5140 C   0  0  0  0  0  2  0  0  0  0  0  0
  -29.1710  -23.7880   20.7360 C   0  0  0  0  0  3  0  0  0  0  0  0
  -29.6340  -21.3290   20.5120 N   0  0  0  0  0  0  0  0  0  0  0  0
  -27.4400  -22.0430   20.6060 O   0  0  0  0  0  0  0  0  0  0  0  0
  -28.3210  -25.0190   20.0800 C   0  0  0  0  0  2  0  0  0  0  0  0
  -28.5400  -26.4960   20.3450 O   0  0  0  0  0  0  0  0  0  0  0  0
  -24.6710  -31.9110   23.2820 C   0  0  0  0  0  0  0  0  0  0  0  0
  -27.4410  -27.3930   20.2400 C   0  0  0  0  0  0  0  0  0  0  0  0
  -23.5400  -30.5060   21.6000 C   0  0  0  0  0  3  0  0  0  0  0  0
  -25.0560  -29.0070   20.1820 C   0  0  0  0  0  0  0  0  0  0  0  0
  -26.0800  -30.8670   21.4850 C   0  0  0  0  0  2  0  0  0  0  0  0
  -26.2040  -29.4950   20.8200 C   0  0  0  0  0  0  0  0  0  0  0  0
  -27.3980  -28.7000   20.8400 C   0  0  0  0  0  3  0  0  0  0  0  0
  -26.2730  -26.9920   19.5490 C   0  0  0  0  0  3  0  0  0  0  0  0
  -25.0980  -27.7650   19.5340 C   0  0  0  0  0  3  0  0  0  0  0  0
  -23.8010  -29.8580   20.2170 C   0  0  0  0  0  2  0  0  0  0  0  0
  -24.7810  -31.1130   22.1790 N   0  0  0  0  0  0  0  0  0  0  0  0
  -23.5690  -32.1580   23.7930 O   0  0  0  0  0  0  0  0  0  0  0  0
  -22.8770  -29.4620   22.5330 C   0  0  0  0  0  0  0  0  0  0  0  0
  -21.5540  -29.2680   22.3870 N   0  0  0  0  0  0  0  0  0  0  0  0
  -23.5530  -28.8330   23.3510 O   0  0  0  0  0  0  0  0  0  0  0  0
  -21.0670  -29.8300   21.7030 H   0  0  0  0  0  0  0  0  0  0  0  0
  -18.1820  -28.0420   22.8570 C   0  0  0  0  0  0  0  0  0  0  0  0
  -20.7390  -28.3060   23.1310 C   0  0  0  0  0  3  0  0  0  0  0  0
  -20.8470  -26.8920   22.5160 C   0  0  0  0  0  2  0  0  0  0  0  0
  -19.7460  -26.5930   21.4930 C   0  0  0  0  0  2  0  0  0  0  0  0
  -18.3640  -26.7140   22.1420 C   0  0  0  0  0  2  0  0  0  0  0  0
  -19.2970  -28.7970   23.3070 C   0  0  0  0  0  0  0  0  0  0  0  0
  -19.0730  -30.0400   23.9370 C   0  0  0  0  0  3  0  0  0  0  0  0
  -17.7660  -30.5300   24.1190 C   0  0  0  0  0  3  0  0  0  0  0  0
  -16.6650  -29.7720   23.6840 C   0  0  0  0  0  3  0  0  0  0  0  0
  -16.8730  -28.5290   23.0590 C   0  0  0  0  0  3  0  0  0  0  0  0
  -25.9230  -32.5690   23.9390 C   0  0  0  0  0  3  0  0  0  0  0  0
  -25.5880  -33.9700   24.2310 N   0  0  0  0  0  0  0  0  0  0  0  0
  -25.9360  -35.0130   23.4650 C   0  0  0  0  0  0  0  0  0  0  0  0
  -26.6410  -34.8960   22.4580 O   0  0  0  0  0  0  0  0  0  0  0  0
  -24.9650  -34.1340   25.0070 H   0  0  0  0  0  0  0  0  0  0  0  0
  -24.2000  -36.7810   23.0270 C   0  0  0  0  0  1  0  0  0  0  0  0
  -25.4220  -36.4060   23.8800 C   0  0  0  0  0  3  0  0  0  0  0  0
  -27.5180  -37.3360   24.7580 C   0  0  0  0  0  1  0  0  0  0  0  0
  -26.4470  -37.4670   23.7750 N   0  0  0  0  0  0  0  0  0  0  0  0
  -26.0260  -38.3860   23.8860 H   0  0  0  0  0  0  0  0  0  0  0  0
  -26.3950  -31.8290   25.2520 C   0  0  1  0  0  0  0  0  0  0  0  0
  -25.2610  -31.5970   26.2770 C   0  0  0  0  0  1  0  0  0  0  0  0
  -27.0100  -30.4510   24.9140 C   0  0  0  0  0  1  0  0  0  0  0  0
  -27.5070  -32.6500   25.9450 C   0  0  0  0  0  1  0  0  0  0  0  0
  -28.9290  -20.7140   17.7020 C   0  0  0  0  0  2  0  0  0  0  0  0
  -30.0360  -21.6460   17.5070 N   0  0  0  0  0  0  0  0  0  0  0  0
  -30.9740  -21.2770   17.6690 H   0  0  0  0  0  0  0  0  0  0  0  0
  -30.2400  -22.0310   14.7640 C   0  0  0  0  0  1  0  0  0  0  0  0
  -31.0710  -23.7980   16.5970 O   0  0  0  0  0  0  0  0  0  0  0  0
  -28.5670  -23.3980   16.3560 O   0  0  0  0  0  0  0  0  0  0  0  0
  -29.9460  -22.8880   16.3390 S   0  0  2  0  0  0  0  0  0  0  0  0
  1  3  2  0
  1  6  1  0
  3  4  1  0
  4 50  1  0
  4  2  2  0
  5  2  1  0
  5 16  1  0
  6  5  2  0
  7  6  1  0
  8 16  1  0
  9 14  1  0
 10 11  1  0
 10  9  1  0
 12 11  1  0
 12 21  1  0
 12 13  1  0
 14  8  1  0
 14 13  1  0
 15  8  2  0
 16 17  1  0
 18 19  2  0
 19 20  1  0
 19 38  1  0
 20 23  1  0
 21 18  1  0
 21 22  1  0
 22 20  2  0
 23 24  1  0
 24 25  2  0
 26 29  1  0
 26 25  1  0
 27 26  2  0
 28 27  1  0
 28 23  2  0
 29 30  1  0
 30 31  1  0
 31 32  2  0
 33 32  1  0
 33 37  1  0
 34 33  2  0
 35 30  2  0
 35 34  1  0
 36 35  1  0
 38 39  1  0
 39 42  1  0
 39 41  1  0
 40 38  2  0
 43 44  1  0
 43 18  1  0
 45 43  1  0
 46 51  2  0
 46 49  1  0
 47 48  1  0
 47 49  1  0
 49 52  1  0
 50 48  1  0
 50 46  1  0
 52 53  1  0
 54 65  2  0
 55 53  1  0
 55 60  1  0
 56 64  1  0
 56 66  1  0
 57 63  1  0
 57 59  1  0
 58 64  1  0
 59 60  2  0
 59 58  1  0
 61 55  2  0
 62 61  1  0
 62 57  2  0
 63 56  1  0
 64 54  1  0
 66 68  2  0
 67 66  1  0
 69 67  1  0
 70 79  2  0
 70 75  1  0
 71 67  1  0
 71 75  1  0
 72 71  1  0
 73 74  1  0
 73 72  1  0
 74 70  1  0
 75 76  2  0
 76 77  1  0
 78 77  2  0
 79 78  1  0
 80 54  1  0
 80 81  1  0
 80 90  1  0
 81 84  1  0
 82 86  1  0
 82 81  1  0
 83 82  2  0
 86 85  1  0
 88 86  1  0
 88 89  1  0
 88 87  1  0
 90 93  1  1
 90 91  1  0
 92 90  1  0
 94  3  1  0
 95 96  1  0
 95 94  1  0
100 97  1  6
100 99  2  0
100 98  2  0
100 95  1  0
M  ISO  4   8 100  16 100  52 101  53 101
M  END
>  <TORSDO>  (12) 
F 21

>  <SCORE>  (12) 
-13.499

>  <name>  (12) 
11

>  <ligand_id>  (12) 
11

>  <original_smiles>  (12) 
[H]c1c([H])c([H])c2c(c1[H])C([H])([H])C([H])([H])C([H])([H])C2([H])N([H])C(=O)C1([H])N(C(=O)C([H])(N([H])C(=O)C([H])(N([H])C([H])([H])[H])C([H])([H])[H])C(C([H])([H])[H])(C([H])([H])[H])C([H])([H])[H])C([H])([H])c2c([H])c(OC([H])([H])C3([H])C(=O)N(c4c([H])c(N([H])C(=O)N5C([H])([H])C([H])([H])C([H])([H])C([H])(n6nc(-c7c([H])c([H])c(Oc8c([H])c([H])c(F)c([H])c8F)c([H])c7[H])c(C(=O)N([H])[H])c6N([H])[H])C5([H])[H])c(F)c([H])c4C([H])([H])N([H])S(=O)(=O)C([H])([H])[H])C([H])([H])C3([H])[H])c([H])c([H])c2C1([H])[H]

>  <smiles>  (12) 
[H]c1c([H])c([H])c2c(c1[H])C([H])([H])C([H])([H])C([H])([H])C2([H])N([H])C(=O)C1([H])N(C(=O)C([H])(N([H])C(=O)C([H])(N([H])C([H])([H])[H])C([H])([H])[H])C(C([H])([H])[H])(C([H])([H])[H])C([H])([H])[H])C([H])([H])c2c([H])c(OC([H])([H])C3([H])C(=O)N(c4c([H])c(N([H])C(=O)N5C([H])([H])C([H])([H])C([H])([H])C([H])(n6nc(-c7c([H])c([H])c(Oc8c([H])c([H])c(F)c([H])c8F)c([H])c7[H])c(C(=O)N([H])[H])c6N([H])[H])C5([H])[H])c(F)c([H])c4C([H])([H])N([H])S(=O)(=O)C([H])([H])[H])C([H])([H])C3([H])[H])c([H])c([H])c2C1([H])[H]

$$$$
12:0:0
     RDKit          3D

 97105  0  0  1  0  0  0  0  0999 V2000
  -31.6980  -22.5060   21.5240 C   0  0  0  0  0  3  0  0  0  0  0  0
  -30.4540  -23.1530   21.4840 C   0  0  0  0  0  3  0  0  0  0  0  0
  -29.4720  -21.1610   20.4720 C   0  0  0  0  0  3  0  0  0  0  0  0
  -31.8480  -21.1930   21.0290 C   0  0  0  0  0  0  0  0  0  0  0  0
  -30.7320  -20.5040   20.4740 C   0  0  0  0  0  0  0  0  0  0  0  0
  -29.3290  -22.4880   20.9550 C   0  0  0  0  0  0  0  0  0  0  0  0
  -33.2320  -20.5690   21.1020 C   0  0  0  0  0  1  0  0  0  0  0  0
  -27.6340  -24.3490   20.8930 C   0  0  0  0  0  0  0  0  0  0  0  0
  -28.0360  -23.0690   21.0480 N   0  0  0  0  0  0  0  0  0  0  0  0
  -26.6650  -24.7320   21.5510 O   0  0  0  0  0  0  0  0  0  0  0  0
  -27.3420  -22.4730   21.4780 H   0  0  0  0  0  0  0  0  0  0  0  0
  -28.3360  -25.3230   19.8990 C   0  0  0  0  0  2  0  0  0  0  0  0
  -28.2890  -26.7200   20.2930 O   0  0  0  0  0  0  0  0  0  0  0  0
  -24.5390  -31.9720   23.2660 C   0  0  0  0  0  0  0  0  0  0  0  0
  -27.1220  -27.4660   20.2090 C   0  0  0  0  0  0  0  0  0  0  0  0
  -23.3140  -30.5770   21.6340 C   0  0  0  0  0  3  0  0  0  0  0  0
  -24.7480  -29.0180   20.2070 C   0  0  0  0  0  0  0  0  0  0  0  0
  -25.8450  -30.9010   21.4320 C   0  0  0  0  0  2  0  0  0  0  0  0
  -25.9120  -29.5250   20.7960 C   0  0  0  0  0  0  0  0  0  0  0  0
  -27.0990  -28.7540   20.7980 C   0  0  0  0  0  3  0  0  0  0  0  0
  -25.9430  -26.9910   19.5900 C   0  0  0  0  0  3  0  0  0  0  0  0
  -24.7580  -27.7500   19.6010 C   0  0  0  0  0  3  0  0  0  0  0  0
  -23.5130  -29.8890   20.2560 C   0  0  0  0  0  2  0  0  0  0  0  0
  -24.5850  -31.1660   22.1680 N   0  0  0  0  0  0  0  0  0  0  0  0
  -23.4620  -32.2580   23.8070 O   0  0  0  0  0  0  0  0  0  0  0  0
  -22.6560  -29.5660   22.6000 C   0  0  0  0  0  0  0  0  0  0  0  0
  -21.3290  -29.3930   22.4740 N   0  0  0  0  0  0  0  0  0  0  0  0
  -23.3320  -28.9440   23.4220 O   0  0  0  0  0  0  0  0  0  0  0  0
  -20.8420  -29.9470   21.7840 H   0  0  0  0  0  0  0  0  0  0  0  0
  -17.9470  -28.2230   22.9690 C   0  0  0  0  0  0  0  0  0  0  0  0
  -20.5060  -28.4660   23.2500 C   0  0  0  0  0  3  0  0  0  0  0  0
  -20.6020  -27.0300   22.6870 C   0  0  0  0  0  2  0  0  0  0  0  0
  -19.5010  -26.7040   21.6720 C   0  0  0  0  0  2  0  0  0  0  0  0
  -18.1180  -26.8660   22.3080 C   0  0  0  0  0  2  0  0  0  0  0  0
  -19.0690  -28.9810   23.3980 C   0  0  0  0  0  0  0  0  0  0  0  0
  -18.8560  -30.2520   23.9740 C   0  0  0  0  0  3  0  0  0  0  0  0
  -17.5540  -30.7630   24.1310 C   0  0  0  0  0  3  0  0  0  0  0  0
  -16.4460  -30.0020   23.7180 C   0  0  0  0  0  3  0  0  0  0  0  0
  -16.6450  -28.7340   23.1430 C   0  0  0  0  0  3  0  0  0  0  0  0
  -25.8330  -32.5910   23.8800 C   0  0  0  0  0  3  0  0  0  0  0  0
  -25.5440  -33.9960   24.1980 N   0  0  0  0  0  0  0  0  0  0  0  0
  -25.8900  -35.0370   23.4300 C   0  0  0  0  0  0  0  0  0  0  0  0
  -26.5620  -34.9160   22.4010 O   0  0  0  0  0  0  0  0  0  0  0  0
  -24.9480  -34.1660   24.9950 H   0  0  0  0  0  0  0  0  0  0  0  0
  -24.1870  -36.8500   23.0570 C   0  0  0  0  0  1  0  0  0  0  0  0
  -25.4200  -36.4340   23.8750 C   0  0  0  0  0  3  0  0  0  0  0  0
  -27.5620  -37.2970   24.7080 C   0  0  0  0  0  1  0  0  0  0  0  0
  -26.4660  -37.4730   23.7590 N   0  0  0  0  0  0  0  0  0  0  0  0
  -26.0710  -38.4000   23.9000 H   0  0  0  0  0  0  0  0  0  0  0  0
  -26.3430  -31.8220   25.1600 C   0  0  1  0  0  0  0  0  0  0  0  0
  -25.2510  -31.6040   26.2320 C   0  0  0  0  0  1  0  0  0  0  0  0
  -26.9090  -30.4340   24.7730 C   0  0  0  0  0  1  0  0  0  0  0  0
  -27.5040  -32.6080   25.8150 C   0  0  0  0  0  1  0  0  0  0  0  0
  -30.8990  -19.1260   19.7910 C   0  0  0  0  0  3  0  0  0  0  0  0
  -30.7250  -16.9850   21.0800 C   0  0  0  0  0  0  0  0  0  0  0  0
  -30.1640  -17.9980   20.3860 N   0  0  0  0  0  0  0  0  0  0  0  0
  -31.8290  -17.1030   21.6190 O   0  0  0  0  0  0  0  0  0  0  0  0
  -29.2230  -17.8580   20.0470 H   0  0  0  0  0  0  0  0  0  0  0  0
  -29.9500  -15.6450   21.2080 C   0  0  0  0  0  2  0  0  0  0  0  0
  -30.5850  -14.5230   20.3220 C   0  0  0  0  0  0  0  0  0  0  0  0
  -30.2640  -12.3960   19.0840 C   0  0  0  0  0  2  0  0  0  0  0  0
  -29.2830  -12.6150   17.9140 C   0  0  0  0  0  2  0  0  0  0  0  0
  -27.8270  -12.4390   18.3860 C   0  0  0  0  0  2  0  0  0  0  0  0
  -27.5180  -13.2510   19.6720 C   0  0  0  0  0  3  0  0  0  0  0  0
  -28.6070  -13.0210   20.7450 C   0  0  0  0  0  2  0  0  0  0  0  0
  -29.9120  -13.3480   20.1500 N   0  0  0  0  0  0  0  0  0  0  0  0
  -31.6560  -14.7220   19.7340 O   0  0  0  0  0  0  0  0  0  0  0  0
  -25.1290  -13.8170   20.4420 C   0  0  0  0  0  0  0  0  0  0  0  0
  -24.0820  -13.0280   20.8370 C   0  0  0  0  0  0  0  0  0  0  0  0
  -24.5630  -11.6840   20.7900 C   0  0  0  0  0  0  0  0  0  0  0  0
  -26.1820  -12.9540   20.1840 N   0  0  0  0  0  0  0  0  0  0  0  0
  -25.8460  -11.6640   20.4490 N   0  0  0  0  0  0  0  0  0  0  0  0
  -23.8620  -10.4090   20.9960 C   0  0  0  0  0  0  0  0  0  0  0  0
  -24.3240   -9.4540   21.9270 C   0  0  0  0  0  3  0  0  0  0  0  0
  -23.6210   -8.2450   22.1200 C   0  0  0  0  0  3  0  0  0  0  0  0
  -22.4430   -7.9830   21.3810 C   0  0  0  0  0  0  0  0  0  0  0  0
  -22.0010   -8.9270   20.4380 C   0  0  0  0  0  3  0  0  0  0  0  0
  -22.7040  -10.1280   20.2430 C   0  0  0  0  0  3  0  0  0  0  0  0
  -21.7100   -6.8250   21.4830 O   0  0  0  0  0  0  0  0  0  0  0  0
  -21.6840   -6.0900   22.6400 C   0  0  0  0  0  0  0  0  0  0  0  0
  -21.2620   -6.6480   23.8670 C   0  0  0  0  0  3  0  0  0  0  0  0
  -21.1840   -5.8380   25.0190 C   0  0  0  0  0  3  0  0  0  0  0  0
  -21.5170   -4.4720   24.9430 C   0  0  0  0  0  0  0  0  0  0  0  0
  -21.9340   -3.9150   23.7210 C   0  0  0  0  0  3  0  0  0  0  0  0
  -22.0130   -4.7220   22.5730 C   0  0  0  0  0  0  0  0  0  0  0  0
  -22.3950   -4.1750   21.3930 F   0  0  0  0  0  0  0  0  0  0  0  0
  -21.4350   -3.6930   26.0470 F   0  0  0  0  0  0  0  0  0  0  0  0
  -22.6860  -13.4830   21.1480 C   0  0  0  0  0  0  0  0  0  0  0  0
  -21.9920  -12.7720   22.0310 N   0  0  0  0  0  0  0  0  0  0  0  0
  -22.2170  -14.5030   20.6440 O   0  0  0  0  0  0  0  0  0  0  0  0
  -22.3840  -11.9470   22.4600 H   0  0  0  0  0  0  0  0  0  0  0  0
  -21.0580  -13.0610   22.2840 H   0  0  0  0  0  0  0  0  0  0  0  0
  -25.2650  -15.1900   20.2640 N   0  0  0  0  0  0  0  0  0  0  0  0
  -24.4900  -15.8310   20.3960 H   0  0  0  0  0  0  0  0  0  0  0  0
  -26.0970  -15.6460   19.9090 H   0  0  0  0  0  0  0  0  0  0  0  0
  -31.3940  -19.0100   17.3120 C   0  0  0  0  0  2  0  0  0  0  0  0
  -30.5300  -19.2030   18.3210 C   0  0  0  0  0  3  0  0  0  0  0  0
  2  1  1  0
  3  5  2  0
  3  6  1  0
  4  7  1  0
  4  1  2  0
  5  4  1  0
  6  9  1  0
  6  2  2  0
  8  9  1  0
  8 10  2  0
  9 11  1  0
 12 13  1  0
 12  8  1  0
 14 25  2  0
 15 13  1  0
 15 20  1  0
 16 24  1  0
 16 26  1  0
 17 23  1  0
 17 19  1  0
 18 24  1  0
 19 20  2  0
 19 18  1  0
 21 22  1  0
 21 15  2  0
 22 17  2  0
 23 16  1  0
 24 14  1  0
 26 28  2  0
 27 26  1  0
 29 27  1  0
 30 39  2  0
 30 35  1  0
 31 27  1  0
 31 35  1  0
 32 31  1  0
 33 34  1  0
 33 32  1  0
 34 30  1  0
 35 36  2  0
 36 37  1  0
 38 37  2  0
 39 38  1  0
 40 14  1  0
 40 41  1  0
 40 50  1  0
 41 44  1  0
 42 46  1  0
 42 41  1  0
 43 42  2  0
 46 45  1  0
 48 46  1  0
 48 49  1  0
 48 47  1  0
 50 53  1  1
 50 51  1  0
 52 50  1  0
 54 97  1  0
 54 56  1  0
 54  5  1  0
 55 59  1  0
 55 57  2  0
 56 55  1  0
 58 56  1  0
 60 59  1  0
 61 66  1  0
 62 63  1  0
 62 61  1  0
 64 63  1  0
 64 71  1  0
 64 65  1  0
 66 60  1  0
 66 65  1  0
 67 60  2  0
 68 69  2  0
 69 88  1  0
 70 69  1  0
 70 73  1  0
 71 68  1  0
 71 72  1  0
 72 70  2  0
 73 74  1  0
 74 75  2  0
 76 79  1  0
 76 75  1  0
 77 76  2  0
 78 77  1  0
 78 73  2  0
 79 80  1  0
 80 81  1  0
 81 82  2  0
 83 82  1  0
 83 87  1  0
 84 83  2  0
 85 80  2  0
 85 84  1  0
 86 85  1  0
 88 89  1  0
 89 92  1  0
 89 91  1  0
 90 88  2  0
 93 94  1  0
 93 68  1  0
 95 93  1  0
 96 97  2  0
M  ISO  4  12 101  13 101  59 100  60 100
M  END
>  <TORSDO>  (13) 
F 22

>  <SCORE>  (13) 
-13.224

>  <name>  (13) 
12

>  <ligand_id>  (13) 
12

>  <original_smiles>  (13) 
[H]C([H])=C([H])C([H])(c1c([H])c(N([H])C(=O)C([H])([H])Oc2c([H])c([H])c3c(c2[H])C([H])([H])N(C(=O)C([H])(N([H])C(=O)C([H])(N([H])C([H])([H])[H])C([H])([H])[H])C(C([H])([H])[H])(C([H])([H])[H])C([H])([H])[H])C([H])(C(=O)N([H])C2([H])c4c([H])c([H])c([H])c([H])c4C([H])([H])C([H])([H])C2([H])[H])C3([H])[H])c([H])c([H])c1C([H])([H])[H])N([H])C(=O)C([H])([H])C(=O)N1C([H])([H])C([H])([H])C([H])([H])C([H])(n2nc(-c3c([H])c([H])c(Oc4c([H])c([H])c(F)c([H])c4F)c([H])c3[H])c(C(=O)N([H])[H])c2N([H])[H])C1([H])[H]

>  <smiles>  (13) 
[H]C([H])=C([H])C([H])(c1c([H])c(N([H])C(=O)C([H])([H])Oc2c([H])c([H])c3c(c2[H])C([H])([H])N(C(=O)C([H])(N([H])C(=O)C([H])(N([H])C([H])([H])[H])C([H])([H])[H])C(C([H])([H])[H])(C([H])([H])[H])C([H])([H])[H])C([H])(C(=O)N([H])C2([H])c4c([H])c([H])c([H])c([H])c4C([H])([H])C([H])([H])C2([H])[H])C3([H])[H])c([H])c([H])c1C([H])([H])[H])N([H])C(=O)C([H])([H])C(=O)N1C([H])([H])C([H])([H])C([H])([H])C([H])(n2nc(-c3c([H])c([H])c(Oc4c([H])c([H])c(F)c([H])c4F)c([H])c3[H])c(C(=O)N([H])[H])c2N([H])[H])C1([H])[H]

$$$$
13:0:0
     RDKit          3D

 95104  0  0  1  0  0  0  0  0999 V2000
  -29.1010  -22.5790   19.4230 C   0  0  0  0  0  0  0  0  0  0  0  0
  -30.6900  -22.4280   21.0750 C   0  0  0  0  0  2  0  0  0  0  0  0
  -30.1330  -23.8750   21.1160 C   0  0  0  0  0  3  0  0  0  0  0  0
  -29.3950  -24.0950   19.7610 C   0  0  1  0  0  0  0  0  0  0  0  0
  -31.2350  -24.8750   21.5100 C   0  0  0  0  0  1  0  0  0  0  0  0
  -30.3270  -24.6590   18.6660 C   0  0  0  0  0  1  0  0  0  0  0  0
  -29.8550  -21.6930   20.1360 N   0  0  0  0  0  0  0  0  0  0  0  0
  -28.2640  -22.2520   18.5750 O   0  0  0  0  0  0  0  0  0  0  0  0
  -31.1060  -19.4870   19.9480 C   0  0  0  0  0  3  0  0  0  0  0  0
  -31.1440  -18.0580   20.0190 C   0  0  0  0  0  3  0  0  0  0  0  0
  -28.7300  -19.4560   20.2800 C   0  0  0  0  0  3  0  0  0  0  0  0
  -28.7590  -18.0340   20.3780 C   0  0  0  0  0  0  0  0  0  0  0  0
  -29.8970  -20.2280   20.0770 C   0  0  0  0  0  0  0  0  0  0  0  0
  -29.9700  -17.2830   20.2630 C   0  0  0  0  0  0  0  0  0  0  0  0
  -27.4310  -17.3480   20.6470 C   0  0  0  0  0  1  0  0  0  0  0  0
  -30.6770  -14.7590   19.9880 C   0  0  0  0  0  0  0  0  0  0  0  0
  -30.3980  -12.5150   18.9460 C   0  0  0  0  0  2  0  0  0  0  0  0
  -29.3970  -12.6520   17.7790 C   0  0  0  0  0  2  0  0  0  0  0  0
  -27.9440  -12.5020   18.2760 C   0  0  0  0  0  2  0  0  0  0  0  0
  -27.6470  -13.3620   19.5330 C   0  0  0  0  0  3  0  0  0  0  0  0
  -28.7620  -13.2030   20.5940 C   0  0  0  0  0  2  0  0  0  0  0  0
  -30.0480  -13.5370   19.9520 N   0  0  0  0  0  0  0  0  0  0  0  0
  -31.8230  -14.9020   19.5520 O   0  0  0  0  0  0  0  0  0  0  0  0
  -29.9000  -15.8180   20.3790 N   0  0  0  0  0  0  0  0  0  0  0  0
  -29.0260  -15.4940   20.7630 H   0  0  0  0  0  0  0  0  0  0  0  0
  -25.2970  -13.9660   20.3870 C   0  0  0  0  0  0  0  0  0  0  0  0
  -24.2430  -13.1990   20.8000 C   0  0  0  0  0  0  0  0  0  0  0  0
  -24.6860  -11.8430   20.7120 C   0  0  0  0  0  0  0  0  0  0  0  0
  -26.3200  -13.0810   20.0810 N   0  0  0  0  0  0  0  0  0  0  0  0
  -25.9600  -11.7960   20.3370 N   0  0  0  0  0  0  0  0  0  0  0  0
  -23.9490  -10.5870   20.9100 C   0  0  0  0  0  0  0  0  0  0  0  0
  -24.3570   -9.6350   21.8700 C   0  0  0  0  0  3  0  0  0  0  0  0
  -23.6230   -8.4430   22.0530 C   0  0  0  0  0  3  0  0  0  0  0  0
  -22.4660   -8.1970   21.2760 C   0  0  0  0  0  0  0  0  0  0  0  0
  -22.0760   -9.1390   20.3060 C   0  0  0  0  0  3  0  0  0  0  0  0
  -22.8110  -10.3210   20.1200 C   0  0  0  0  0  3  0  0  0  0  0  0
  -21.7060   -7.0560   21.3660 O   0  0  0  0  0  0  0  0  0  0  0  0
  -21.5500   -6.3870   22.5530 C   0  0  0  0  0  0  0  0  0  0  0  0
  -20.9870   -7.0050   23.6900 C   0  0  0  0  0  3  0  0  0  0  0  0
  -20.7810   -6.2600   24.8690 C   0  0  0  0  0  3  0  0  0  0  0  0
  -21.1340   -4.8980   24.9090 C   0  0  0  0  0  0  0  0  0  0  0  0
  -21.6890   -4.2780   23.7750 C   0  0  0  0  0  3  0  0  0  0  0  0
  -21.8950   -5.0220   22.6020 C   0  0  0  0  0  0  0  0  0  0  0  0
  -22.4130   -4.4160   21.5050 F   0  0  0  0  0  0  0  0  0  0  0  0
  -20.9310   -4.1780   26.0380 F   0  0  0  0  0  0  0  0  0  0  0  0
  -22.8670  -13.6880   21.1530 C   0  0  0  0  0  0  0  0  0  0  0  0
  -22.1760  -12.9930   22.0490 N   0  0  0  0  0  0  0  0  0  0  0  0
  -22.4110  -14.7230   20.6680 O   0  0  0  0  0  0  0  0  0  0  0  0
  -22.5520  -12.1550   22.4690 H   0  0  0  0  0  0  0  0  0  0  0  0
  -21.2540  -13.3050   22.3240 H   0  0  0  0  0  0  0  0  0  0  0  0
  -25.4540  -15.3350   20.2170 N   0  0  0  0  0  0  0  0  0  0  0  0
  -24.6900  -15.9810   20.3780 H   0  0  0  0  0  0  0  0  0  0  0  0
  -26.2530  -15.7680   19.7760 H   0  0  0  0  0  0  0  0  0  0  0  0
  -28.1040  -25.0450   19.7990 C   0  0  0  0  0  2  0  0  0  0  0  0
  -28.2370  -26.5260   19.8200 O   0  0  0  0  0  0  0  0  0  0  0  0
  -24.3740  -31.6890   23.0590 C   0  0  0  0  0  0  0  0  0  0  0  0
  -27.0700  -27.3120   19.8230 C   0  0  0  0  0  0  0  0  0  0  0  0
  -23.1760  -30.3090   21.4010 C   0  0  0  0  0  3  0  0  0  0  0  0
  -24.6440  -28.8430   19.9050 C   0  0  0  0  0  0  0  0  0  0  0  0
  -25.7000  -30.7080   21.1760 C   0  0  0  0  0  2  0  0  0  0  0  0
  -25.8090  -29.3540   20.4890 C   0  0  0  0  0  0  0  0  0  0  0  0
  -27.0220  -28.6040   20.4340 C   0  0  0  0  0  3  0  0  0  0  0  0
  -25.8730  -26.8510   19.2210 C   0  0  0  0  0  3  0  0  0  0  0  0
  -24.6780  -27.5940   19.2640 C   0  0  0  0  0  3  0  0  0  0  0  0
  -23.3840  -29.6810   19.9980 C   0  0  0  0  0  2  0  0  0  0  0  0
  -24.4360  -30.9170   21.9350 N   0  0  0  0  0  0  0  0  0  0  0  0
  -23.2960  -31.9180   23.6240 O   0  0  0  0  0  0  0  0  0  0  0  0
  -22.5650  -29.2430   22.3410 C   0  0  0  0  0  0  0  0  0  0  0  0
  -21.2460  -29.0200   22.2230 N   0  0  0  0  0  0  0  0  0  0  0  0
  -23.2750  -28.6190   23.1340 O   0  0  0  0  0  0  0  0  0  0  0  0
  -20.7310  -29.5710   21.5510 H   0  0  0  0  0  0  0  0  0  0  0  0
  -17.9120  -27.7060   22.7320 C   0  0  0  0  0  0  0  0  0  0  0  0
  -20.4650  -28.0360   22.9750 C   0  0  0  0  0  3  0  0  0  0  0  0
  -20.6020  -26.6280   22.3540 C   0  0  0  0  0  2  0  0  0  0  0  0
  -19.4940  -26.3010   21.3460 C   0  0  0  0  0  2  0  0  0  0  0  0
  -18.1190  -26.3840   22.0130 C   0  0  0  0  0  2  0  0  0  0  0  0
  -19.0140  -28.4900   23.1690 C   0  0  0  0  0  0  0  0  0  0  0  0
  -18.7650  -29.7290   23.8000 C   0  0  0  0  0  3  0  0  0  0  0  0
  -17.4500  -30.1850   24.0000 C   0  0  0  0  0  3  0  0  0  0  0  0
  -16.3630  -29.3970   23.5820 C   0  0  0  0  0  3  0  0  0  0  0  0
  -16.5950  -28.1600   22.9540 C   0  0  0  0  0  3  0  0  0  0  0  0
  -25.6510  -32.3380   23.6750 C   0  0  0  0  0  3  0  0  0  0  0  0
  -25.3090  -33.7130   24.0640 N   0  0  0  0  0  0  0  0  0  0  0  0
  -25.5900  -34.8010   23.3360 C   0  0  0  0  0  0  0  0  0  0  0  0
  -26.2370  -34.7550   22.2860 O   0  0  0  0  0  0  0  0  0  0  0  0
  -24.7320  -33.8180   24.8860 H   0  0  0  0  0  0  0  0  0  0  0  0
  -23.8040  -36.5560   23.0810 C   0  0  0  0  0  1  0  0  0  0  0  0
  -25.0710  -36.1550   23.8530 C   0  0  0  0  0  3  0  0  0  0  0  0
  -27.1880  -37.0790   24.6910 C   0  0  0  0  0  1  0  0  0  0  0  0
  -26.0710  -37.2420   23.7650 N   0  0  0  0  0  0  0  0  0  0  0  0
  -25.6390  -38.1460   23.9390 H   0  0  0  0  0  0  0  0  0  0  0  0
  -26.2190  -31.5370   24.9150 C   0  0  1  0  0  0  0  0  0  0  0  0
  -25.1570  -31.2240   25.9960 C   0  0  0  0  0  1  0  0  0  0  0  0
  -26.8390  -30.1950   24.4610 C   0  0  0  0  0  1  0  0  0  0  0  0
  -27.3560  -32.3450   25.5830 C   0  0  0  0  0  1  0  0  0  0  0  0
  1  4  1  0
  1  7  1  0
  2  3  1  0
  3  5  1  0
  4  6  1  6
  4 54  1  0
  4  3  1  0
  7  2  1  0
  8  1  2  0
  9 10  2  0
  9 13  1  0
 10 14  1  0
 11 12  1  0
 12 15  1  0
 13  7  1  0
 13 11  2  0
 14 12  2  0
 14 24  1  0
 16 24  1  0
 17 22  1  0
 18 19  1  0
 18 17  1  0
 20 19  1  0
 20 29  1  0
 20 21  1  0
 22 16  1  0
 22 21  1  0
 23 16  2  0
 24 25  1  0
 26 27  2  0
 27 46  1  0
 28 27  1  0
 28 31  1  0
 29 30  1  0
 29 26  1  0
 30 28  2  0
 31 32  1  0
 32 33  2  0
 34 37  1  0
 34 33  1  0
 35 34  2  0
 36 35  1  0
 36 31  2  0
 37 38  1  0
 38 43  2  0
 38 39  1  0
 39 40  2  0
 40 41  1  0
 41 45  1  0
 42 41  2  0
 43 42  1  0
 44 43  1  0
 46 47  1  0
 47 50  1  0
 47 49  1  0
 48 46  2  0
 51 52  1  0
 51 26  1  0
 53 51  1  0
 54 55  1  0
 55 57  1  0
 56 67  2  0
 57 62  1  0
 58 66  1  0
 58 68  1  0
 59 65  1  0
 59 61  1  0
 60 66  1  0
 61 60  1  0
 62 61  2  0
 63 64  1  0
 63 57  2  0
 64 59  2  0
 65 58  1  0
 66 56  1  0
 68 70  2  0
 69 68  1  0
 71 69  1  0
 72 81  2  0
 72 77  1  0
 73 69  1  0
 73 77  1  0
 74 73  1  0
 75 76  1  0
 75 74  1  0
 76 72  1  0
 77 78  2  0
 78 79  1  0
 80 79  2  0
 81 80  1  0
 82 56  1  0
 82 83  1  0
 82 92  1  0
 83 86  1  0
 84 88  1  0
 84 83  1  0
 85 84  2  0
 88 87  1  0
 90 88  1  0
 90 91  1  0
 90 89  1  0
 92 95  1  1
 92 93  1  0
 94 92  1  0
M  ISO  4  16 100  24 100  54 101  55 101
M  END
>  <TORSDO>  (14) 
F 18

>  <SCORE>  (14) 
-13.795

>  <name>  (14) 
13

>  <ligand_id>  (14) 
13

>  <original_smiles>  (14) 
[H]c1c([H])c([H])c2c(c1[H])C([H])([H])C([H])([H])C([H])([H])C2([H])N([H])C(=O)C1([H])N(C(=O)C([H])(N([H])C(=O)C([H])(N([H])C([H])([H])[H])C([H])([H])[H])C(C([H])([H])[H])(C([H])([H])[H])C([H])([H])[H])C([H])([H])c2c([H])c(OC([H])([H])C3(C([H])([H])[H])C(=O)N(c4c([H])c([H])c(N([H])C(=O)N5C([H])([H])C([H])([H])C([H])([H])C([H])(n6nc(-c7c([H])c([H])c(Oc8c([H])c([H])c(F)c([H])c8F)c([H])c7[H])c(C(=O)N([H])[H])c6N([H])[H])C5([H])[H])c(C([H])([H])[H])c4[H])C([H])([H])C3([H])C([H])([H])[H])c([H])c([H])c2C1([H])[H]

>  <smiles>  (14) 
[H]c1c([H])c([H])c2c(c1[H])C([H])([H])C([H])([H])C([H])([H])C2([H])N([H])C(=O)C1([H])N(C(=O)C([H])(N([H])C(=O)C([H])(N([H])C([H])([H])[H])C([H])([H])[H])C(C([H])([H])[H])(C([H])([H])[H])C([H])([H])[H])C([H])([H])c2c([H])c(OC([H])([H])C3(C([H])([H])[H])C(=O)N(c4c([H])c([H])c(N([H])C(=O)N5C([H])([H])C([H])([H])C([H])([H])C([H])(n6nc(-c7c([H])c([H])c(Oc8c([H])c([H])c(F)c([H])c8F)c([H])c7[H])c(C(=O)N([H])[H])c6N([H])[H])C5([H])[H])c(C([H])([H])[H])c4[H])C([H])([H])C3([H])C([H])([H])[H])c([H])c([H])c2C1([H])[H]

$$$$
14:0:0
     RDKit          3D

 95103  0  0  1  0  0  0  0  0999 V2000
  -29.9800  -21.6780   20.9150 C   0  0  0  0  0  0  0  0  0  0  0  0
  -30.8070  -22.1240   21.8620 N   0  0  0  0  0  4  0  0  0  0  0  0
  -29.2570  -22.6520   20.2610 N   0  0  0  0  0  0  0  0  0  0  0  0
  -31.4350  -21.4660   22.3000 H   0  0  0  0  0  0  0  0  0  0  0  0
  -30.8530  -23.0890   22.1410 H   0  0  0  0  0  0  0  0  0  0  0  0
  -28.6620  -22.3180   19.5110 H   0  0  0  0  0  0  0  0  0  0  0  0
  -28.7390  -19.4470   20.5060 C   0  0  0  0  0  3  0  0  0  0  0  0
  -28.7150  -18.0180   20.4670 C   0  0  0  0  0  3  0  0  0  0  0  0
  -31.1010  -17.9440   20.7380 C   0  0  0  0  0  3  0  0  0  0  0  0
  -29.9420  -20.1700   20.6970 C   0  0  0  0  0  0  0  0  0  0  0  0
  -29.8890  -17.2210   20.5970 C   0  0  0  0  0  0  0  0  0  0  0  0
  -31.1260  -19.3720   20.7930 C   0  0  0  0  0  0  0  0  0  0  0  0
  -32.3270  -19.9710   20.9880 F   0  0  0  0  0  0  0  0  0  0  0  0
  -30.5890  -14.7250   20.2800 C   0  0  0  0  0  0  0  0  0  0  0  0
  -30.3590  -12.5070   19.1720 C   0  0  0  0  0  2  0  0  0  0  0  0
  -29.3790  -12.6590   17.9860 C   0  0  0  0  0  2  0  0  0  0  0  0
  -27.9160  -12.4970   18.4500 C   0  0  0  0  0  2  0  0  0  0  0  0
  -27.5950  -13.3330   19.7180 C   0  0  0  0  0  3  0  0  0  0  0  0
  -28.6840  -13.1460   20.8000 C   0  0  0  0  0  2  0  0  0  0  0  0
  -29.9770  -13.5000   20.1950 N   0  0  0  0  0  0  0  0  0  0  0  0
  -31.7440  -14.8950   19.8780 O   0  0  0  0  0  0  0  0  0  0  0  0
  -29.7640  -15.7600   20.6390 N   0  0  0  0  0  0  0  0  0  0  0  0
  -28.8460  -15.4310   20.8900 H   0  0  0  0  0  0  0  0  0  0  0  0
  -25.2240  -13.9330   20.5060 C   0  0  0  0  0  0  0  0  0  0  0  0
  -24.1650  -13.1590   20.8970 C   0  0  0  0  0  0  0  0  0  0  0  0
  -24.6200  -11.8070   20.8320 C   0  0  0  0  0  0  0  0  0  0  0  0
  -26.2580  -13.0510   20.2320 N   0  0  0  0  0  0  0  0  0  0  0  0
  -25.9020  -11.7670   20.4880 N   0  0  0  0  0  0  0  0  0  0  0  0
  -23.8940  -10.5440   21.0210 C   0  0  0  0  0  0  0  0  0  0  0  0
  -24.3320   -9.5720   21.9470 C   0  0  0  0  0  3  0  0  0  0  0  0
  -23.6070   -8.3750   22.1250 C   0  0  0  0  0  3  0  0  0  0  0  0
  -22.4290   -8.1410   21.3750 C   0  0  0  0  0  0  0  0  0  0  0  0
  -22.0100   -9.1020   20.4390 C   0  0  0  0  0  3  0  0  0  0  0  0
  -22.7350  -10.2910   20.2600 C   0  0  0  0  0  3  0  0  0  0  0  0
  -21.6750   -6.9960   21.4630 O   0  0  0  0  0  0  0  0  0  0  0  0
  -21.6100   -6.2620   22.6210 C   0  0  0  0  0  0  0  0  0  0  0  0
  -21.1190   -6.8130   23.8250 C   0  0  0  0  0  3  0  0  0  0  0  0
  -21.0050   -6.0040   24.9740 C   0  0  0  0  0  3  0  0  0  0  0  0
  -21.3720   -4.6460   24.9190 C   0  0  0  0  0  0  0  0  0  0  0  0
  -21.8570   -4.0950   23.7190 C   0  0  0  0  0  3  0  0  0  0  0  0
  -21.9720   -4.9010   22.5730 C   0  0  0  0  0  0  0  0  0  0  0  0
  -22.4190   -4.3610   21.4140 F   0  0  0  0  0  0  0  0  0  0  0  0
  -21.2560   -3.8670   26.0190 F   0  0  0  0  0  0  0  0  0  0  0  0
  -22.7770  -13.6380   21.2100 C   0  0  0  0  0  0  0  0  0  0  0  0
  -22.0670  -12.9290   22.0820 N   0  0  0  0  0  0  0  0  0  0  0  0
  -22.3310  -14.6740   20.7190 O   0  0  0  0  0  0  0  0  0  0  0  0
  -22.4410  -12.0910   22.5010 H   0  0  0  0  0  0  0  0  0  0  0  0
  -21.1360  -13.2300   22.3330 H   0  0  0  0  0  0  0  0  0  0  0  0
  -25.3870  -15.3040   20.3360 N   0  0  0  0  0  0  0  0  0  0  0  0
  -24.6040  -15.9420   20.4320 H   0  0  0  0  0  0  0  0  0  0  0  0
  -26.1780  -15.7210   19.8630 H   0  0  0  0  0  0  0  0  0  0  0  0
  -30.6140  -24.6000   19.4420 C   0  0  0  0  0  1  0  0  0  0  0  0
  -29.4370  -24.1730   20.3360 C   0  0  0  0  0  3  0  0  0  0  0  0
  -28.1830  -25.1020   20.0260 C   0  0  0  0  0  2  0  0  0  0  0  0
  -28.3540  -26.5600   20.2300 O   0  0  0  0  0  0  0  0  0  0  0  0
  -24.6170  -31.9210   23.2860 C   0  0  0  0  0  0  0  0  0  0  0  0
  -27.2220  -27.3900   20.1910 C   0  0  0  0  0  0  0  0  0  0  0  0
  -23.4070  -30.5310   21.6430 C   0  0  0  0  0  3  0  0  0  0  0  0
  -24.8510  -28.9900   20.2030 C   0  0  0  0  0  0  0  0  0  0  0  0
  -25.9440  -30.8570   21.4460 C   0  0  0  0  0  2  0  0  0  0  0  0
  -26.0220  -29.4820   20.7930 C   0  0  0  0  0  0  0  0  0  0  0  0
  -27.2110  -28.6930   20.7760 C   0  0  0  0  0  3  0  0  0  0  0  0
  -26.0240  -26.9490   19.5810 C   0  0  0  0  0  3  0  0  0  0  0  0
  -24.8540  -27.7300   19.5870 C   0  0  0  0  0  3  0  0  0  0  0  0
  -23.6140  -29.8630   20.2590 C   0  0  0  0  0  2  0  0  0  0  0  0
  -24.6760  -31.1190   22.1810 N   0  0  0  0  0  0  0  0  0  0  0  0
  -23.5370  -32.1940   23.8280 O   0  0  0  0  0  0  0  0  0  0  0  0
  -22.7510  -29.5080   22.6010 C   0  0  0  0  0  0  0  0  0  0  0  0
  -21.4270  -29.3160   22.4650 N   0  0  0  0  0  0  0  0  0  0  0  0
  -23.4310  -28.8920   23.4250 O   0  0  0  0  0  0  0  0  0  0  0  0
  -20.9390  -29.8640   21.7720 H   0  0  0  0  0  0  0  0  0  0  0  0
  -18.0570  -28.0970   22.9500 C   0  0  0  0  0  0  0  0  0  0  0  0
  -20.6130  -28.3710   23.2310 C   0  0  0  0  0  3  0  0  0  0  0  0
  -20.7280  -26.9420   22.6520 C   0  0  0  0  0  2  0  0  0  0  0  0
  -19.6320  -26.6150   21.6340 C   0  0  0  0  0  2  0  0  0  0  0  0
  -18.2460  -26.7500   22.2720 C   0  0  0  0  0  2  0  0  0  0  0  0
  -19.1700  -28.8650   23.3860 C   0  0  0  0  0  0  0  0  0  0  0  0
  -18.9390  -30.1260   23.9770 C   0  0  0  0  0  3  0  0  0  0  0  0
  -17.6310  -30.6190   24.1380 C   0  0  0  0  0  3  0  0  0  0  0  0
  -16.5330  -29.8480   23.7190 C   0  0  0  0  0  3  0  0  0  0  0  0
  -16.7470  -28.5880   23.1310 C   0  0  0  0  0  3  0  0  0  0  0  0
  -25.9030  -32.5490   23.9070 C   0  0  0  0  0  3  0  0  0  0  0  0
  -26.4130  -31.7810   25.1880 C   0  0  1  0  0  0  0  0  0  0  0  0
  -25.3150  -31.5480   26.2510 C   0  0  0  0  0  1  0  0  0  0  0  0
  -26.9960  -30.4020   24.8000 C   0  0  0  0  0  1  0  0  0  0  0  0
  -27.5620  -32.5750   25.8520 C   0  0  0  0  0  1  0  0  0  0  0  0
  -25.6020  -33.9510   24.2300 N   0  0  0  0  0  0  0  0  0  0  0  0
  -25.9200  -34.9960   23.4550 C   0  0  0  0  0  0  0  0  0  0  0  0
  -26.5660  -34.8820   22.4110 O   0  0  0  0  0  0  0  0  0  0  0  0
  -25.0270  -34.1140   25.0440 H   0  0  0  0  0  0  0  0  0  0  0  0
  -24.1820  -36.7840   23.1240 C   0  0  0  0  0  1  0  0  0  0  0  0
  -25.4430  -36.3890   23.9090 C   0  0  0  0  0  3  0  0  0  0  0  0
  -27.5890  -37.2900   24.6900 C   0  0  0  0  0  1  0  0  0  0  0  0
  -26.4720  -37.4400   23.7620 N   0  0  0  0  0  0  0  0  0  0  0  0
  -26.0680  -38.3630   23.9000 H   0  0  0  0  0  0  0  0  0  0  0  0
  1  2  2  0
  2  5  1  0
  2  4  1  0
  3 53  1  0
  3  1  1  0
  6  3  1  0
  7 10  1  0
  8  7  2  0
  8 11  1  0
  9 12  1  0
 10 12  2  0
 10  1  1  0
 11 22  1  0
 11  9  2  0
 12 13  1  0
 14 22  1  0
 15 20  1  0
 16 17  1  0
 16 15  1  0
 18 17  1  0
 18 27  1  0
 18 19  1  0
 20 14  1  0
 20 19  1  0
 21 14  2  0
 22 23  1  0
 24 25  2  0
 25 44  1  0
 26 25  1  0
 26 29  1  0
 27 28  1  0
 27 24  1  0
 28 26  2  0
 29 30  1  0
 30 31  2  0
 32 35  1  0
 32 31  1  0
 33 32  2  0
 34 33  1  0
 34 29  2  0
 35 36  1  0
 36 37  1  0
 37 38  2  0
 39 38  1  0
 39 43  1  0
 40 39  2  0
 41 36  2  0
 41 40  1  0
 42 41  1  0
 44 45  1  0
 45 48  1  0
 45 47  1  0
 46 44  2  0
 49 50  1  0
 49 24  1  0
 51 49  1  0
 53 52  1  0
 54 55  1  0
 54 53  1  0
 56 67  2  0
 57 55  1  0
 57 62  1  0
 58 66  1  0
 58 68  1  0
 59 65  1  0
 59 61  1  0
 60 66  1  0
 61 60  1  0
 62 61  2  0
 63 64  1  0
 63 57  2  0
 64 59  2  0
 65 58  1  0
 66 56  1  0
 68 70  2  0
 69 68  1  0
 71 69  1  0
 72 81  2  0
 72 77  1  0
 73 69  1  0
 73 77  1  0
 74 73  1  0
 75 76  1  0
 75 74  1  0
 76 72  1  0
 77 78  2  0
 78 79  1  0
 80 79  2  0
 81 80  1  0
 82 56  1  0
 82 87  1  0
 82 83  1  0
 83 86  1  1
 83 84  1  0
 85 83  1  0
 87 90  1  0
 88 92  1  0
 88 87  1  0
 89 88  2  0
 92 91  1  0
 94 95  1  0
 94 92  1  0
 94 93  1  0
M  ISO  4  14 100  22 100  54 101  55 101
M  END
>  <TORSDO>  (15) 
F 19

>  <SCORE>  (15) 
-14.606

>  <name>  (15) 
14

>  <ligand_id>  (15) 
14

>  <original_smiles>  (15) 
[H]c1c([H])c([H])c2c(c1[H])C([H])([H])C([H])([H])C([H])([H])C2([H])N([H])C(=O)C1([H])N(C(=O)C([H])(N([H])C(=O)C([H])(N([H])C([H])([H])[H])C([H])([H])[H])C(C([H])([H])[H])(C([H])([H])[H])C([H])([H])[H])C([H])([H])c2c([H])c(OC([H])([H])C([H])([N+]([H])=C(c3c([H])c([H])c(N([H])C(=O)N4C([H])([H])C([H])([H])C([H])([H])C([H])(n5nc(-c6c([H])c([H])c(Oc7c([H])c([H])c(F)c([H])c7F)c([H])c6[H])c(C(=O)N([H])[H])c5N([H])[H])C4([H])[H])c([H])c3F)N([H])[H])C([H])([H])[H])c([H])c([H])c2C1([H])[H]

>  <smiles>  (15) 
[H]c1c([H])c([H])c2c(c1[H])C([H])([H])C([H])([H])C([H])([H])C2([H])N([H])C(=O)C1([H])N(C(=O)C([H])(N([H])C(=O)C([H])(N([H])C([H])([H])[H])C([H])([H])[H])C(C([H])([H])[H])(C([H])([H])[H])C([H])([H])[H])C([H])([H])c2c([H])c(OC([H])([H])C([H])([N+]([H])=C(c3c([H])c([H])c(N([H])C(=O)N4C([H])([H])C([H])([H])C([H])([H])C([H])(n5nc(-c6c([H])c([H])c(Oc7c([H])c([H])c(F)c([H])c7F)c([H])c6[H])c(C(=O)N([H])[H])c5N([H])[H])C4([H])[H])c([H])c3F)N([H])[H])C([H])([H])[H])c([H])c([H])c2C1([H])[H]

$$$$
15:0:0
     RDKit          3D

 96105  0  0  1  0  0  0  0  0999 V2000
  -29.3880  -21.8020   21.6960 C   0  0  0  0  0  3  0  0  0  0  0  0
  -29.1990  -23.1430   21.8040 C   0  0  0  0  0  0  0  0  0  0  0  0
  -29.5610  -22.5690   19.5610 C   0  0  0  0  0  2  0  0  0  0  0  0
  -29.4350  -23.8740   20.4760 C   0  0  0  0  0  3  0  0  0  0  0  0
  -29.6870  -21.3440   20.4230 N   0  0  0  0  0  0  0  0  0  0  0  0
  -30.0330  -19.8450   18.5190 C   0  0  0  0  0  3  0  0  0  0  0  0
  -30.4100  -17.4270   18.6530 C   0  0  0  0  0  3  0  0  0  0  0  0
  -30.1180  -18.7460   20.6810 C   0  0  0  0  0  3  0  0  0  0  0  0
  -30.2300  -18.5960   17.8820 C   0  0  0  0  0  0  0  0  0  0  0  0
  -29.9470  -19.9880   19.9230 C   0  0  0  0  0  0  0  0  0  0  0  0
  -30.3720  -17.4390   20.0600 C   0  0  0  0  0  0  0  0  0  0  0  0
  -31.1210  -14.9550   20.2820 C   0  0  0  0  0  0  0  0  0  0  0  0
  -30.8360  -12.7100   19.2220 C   0  0  0  0  0  2  0  0  0  0  0  0
  -29.9180  -12.8520   17.9850 C   0  0  0  0  0  2  0  0  0  0  0  0
  -28.4380  -12.7130   18.3960 C   0  0  0  0  0  2  0  0  0  0  0  0
  -28.0850  -13.5860   19.6310 C   0  0  0  0  0  3  0  0  0  0  0  0
  -29.1250  -13.4340   20.7630 C   0  0  0  0  0  2  0  0  0  0  0  0
  -30.4490  -13.7530   20.2090 N   0  0  0  0  0  0  0  0  0  0  0  0
  -32.2790  -15.0240   19.8520 O   0  0  0  0  0  0  0  0  0  0  0  0
  -30.4660  -16.1060   20.7220 N   0  0  0  0  0  0  0  0  0  0  0  0
  -29.7240  -15.9190   21.3800 H   0  0  0  0  0  0  0  0  0  0  0  0
  -25.7140  -14.2430   20.3590 C   0  0  0  0  0  0  0  0  0  0  0  0
  -24.6180  -13.5030   20.7060 C   0  0  0  0  0  0  0  0  0  0  0  0
  -25.0310  -12.1360   20.6490 C   0  0  0  0  0  0  0  0  0  0  0  0
  -26.7250  -13.3340   20.1040 N   0  0  0  0  0  0  0  0  0  0  0  0
  -26.3200  -12.0590   20.3400 N   0  0  0  0  0  0  0  0  0  0  0  0
  -24.2600  -10.8950   20.8140 C   0  0  0  0  0  0  0  0  0  0  0  0
  -24.6370   -9.9090   21.7500 C   0  0  0  0  0  3  0  0  0  0  0  0
  -23.8680   -8.7350   21.9020 C   0  0  0  0  0  3  0  0  0  0  0  0
  -22.7050   -8.5380   21.1160 C   0  0  0  0  0  0  0  0  0  0  0  0
  -22.3510   -9.5130   20.1670 C   0  0  0  0  0  3  0  0  0  0  0  0
  -23.1220  -10.6780   20.0140 C   0  0  0  0  0  3  0  0  0  0  0  0
  -21.9130   -7.4180   21.1740 O   0  0  0  0  0  0  0  0  0  0  0  0
  -21.7660   -6.7030   22.3340 C   0  0  0  0  0  0  0  0  0  0  0  0
  -21.2790   -7.2920   23.5210 C   0  0  0  0  0  3  0  0  0  0  0  0
  -21.0810   -6.5010   24.6700 C   0  0  0  0  0  3  0  0  0  0  0  0
  -21.3590   -5.1210   24.6320 C   0  0  0  0  0  0  0  0  0  0  0  0
  -21.8400   -4.5320   23.4480 C   0  0  0  0  0  3  0  0  0  0  0  0
  -22.0420   -5.3200   22.3040 C   0  0  0  0  0  0  0  0  0  0  0  0
  -22.4860   -4.7460   21.1600 F   0  0  0  0  0  0  0  0  0  0  0  0
  -21.1610   -4.3580   25.7320 F   0  0  0  0  0  0  0  0  0  0  0  0
  -23.2370  -14.0260   20.9770 C   0  0  0  0  0  0  0  0  0  0  0  0
  -22.4820  -13.3570   21.8430 N   0  0  0  0  0  0  0  0  0  0  0  0
  -22.8320  -15.0620   20.4510 O   0  0  0  0  0  0  0  0  0  0  0  0
  -22.8230  -12.5280   22.3070 H   0  0  0  0  0  0  0  0  0  0  0  0
  -21.5530  -13.6930   22.0580 H   0  0  0  0  0  0  0  0  0  0  0  0
  -25.9290  -15.6090   20.2180 N   0  0  0  0  0  0  0  0  0  0  0  0
  -25.1880  -16.2850   20.3590 H   0  0  0  0  0  0  0  0  0  0  0  0
  -26.8030  -16.0370   19.9390 H   0  0  0  0  0  0  0  0  0  0  0  0
  -30.2100  -18.4650   16.3940 C   0  0  0  0  0  0  0  0  0  0  0  0
  -29.8570  -19.6960   15.5690 C   0  0  0  0  0  1  0  0  0  0  0  0
  -30.4500  -17.4100   15.8020 O   0  0  0  0  0  0  0  0  0  0  0  0
  -29.5160  -23.4430   24.2310 C   0  0  0  0  0  2  0  0  0  0  0  0
  -28.9290  -23.7990   23.0740 C   0  0  0  0  0  3  0  0  0  0  0  0
  -28.4110  -25.0510   19.9870 C   0  0  0  0  0  2  0  0  0  0  0  0
  -28.5550  -26.5240   20.2730 O   0  0  0  0  0  0  0  0  0  0  0  0
  -24.6890  -31.9150   23.2110 C   0  0  0  0  0  0  0  0  0  0  0  0
  -27.4270  -27.3820   20.1710 C   0  0  0  0  0  0  0  0  0  0  0  0
  -23.5270  -30.4800   21.5730 C   0  0  0  0  0  3  0  0  0  0  0  0
  -25.0230  -28.9710   20.1400 C   0  0  0  0  0  0  0  0  0  0  0  0
  -26.0610  -30.8550   21.3980 C   0  0  0  0  0  2  0  0  0  0  0  0
  -26.1780  -29.4780   20.7460 C   0  0  0  0  0  0  0  0  0  0  0  0
  -27.3790  -28.6960   20.7510 C   0  0  0  0  0  3  0  0  0  0  0  0
  -26.2460  -26.9500   19.5210 C   0  0  0  0  0  3  0  0  0  0  0  0
  -25.0640  -27.7160   19.5140 C   0  0  0  0  0  3  0  0  0  0  0  0
  -23.7580  -29.8060   20.1940 C   0  0  0  0  0  2  0  0  0  0  0  0
  -24.7770  -31.1030   22.1150 N   0  0  0  0  0  0  0  0  0  0  0  0
  -23.5980  -32.1640   23.7440 O   0  0  0  0  0  0  0  0  0  0  0  0
  -22.8910  -29.4490   22.5380 C   0  0  0  0  0  0  0  0  0  0  0  0
  -21.5680  -29.2350   22.4150 N   0  0  0  0  0  0  0  0  0  0  0  0
  -23.5870  -28.8420   23.3560 O   0  0  0  0  0  0  0  0  0  0  0  0
  -21.0650  -29.7770   21.7280 H   0  0  0  0  0  0  0  0  0  0  0  0
  -18.2210  -27.9630   22.9420 C   0  0  0  0  0  0  0  0  0  0  0  0
  -20.7760  -28.2780   23.1880 C   0  0  0  0  0  3  0  0  0  0  0  0
  -20.9030  -26.8500   22.6090 C   0  0  0  0  0  2  0  0  0  0  0  0
  -19.8010  -26.5070   21.6000 C   0  0  0  0  0  2  0  0  0  0  0  0
  -18.4210  -26.6210   22.2570 C   0  0  0  0  0  2  0  0  0  0  0  0
  -19.3280  -28.7480   23.3630 C   0  0  0  0  0  0  0  0  0  0  0  0
  -19.0880  -30.0020   23.9670 C   0  0  0  0  0  3  0  0  0  0  0  0
  -17.7750  -30.4740   24.1480 C   0  0  0  0  0  3  0  0  0  0  0  0
  -16.6830  -29.6870   23.7430 C   0  0  0  0  0  3  0  0  0  0  0  0
  -16.9070  -28.4330   23.1460 C   0  0  0  0  0  3  0  0  0  0  0  0
  -25.9530  -32.5870   23.8300 C   0  0  0  0  0  3  0  0  0  0  0  0
  -26.4870  -31.8410   25.1160 C   0  0  1  0  0  0  0  0  0  0  0  0
  -25.3880  -31.5520   26.1650 C   0  0  0  0  0  1  0  0  0  0  0  0
  -27.1430  -30.4930   24.7390 C   0  0  0  0  0  1  0  0  0  0  0  0
  -27.5900  -32.6890   25.7930 C   0  0  0  0  0  1  0  0  0  0  0  0
  -25.6020  -33.9780   24.1530 N   0  0  0  0  0  0  0  0  0  0  0  0
  -25.9230  -35.0410   23.4040 C   0  0  0  0  0  0  0  0  0  0  0  0
  -26.6130  -34.9550   22.3820 O   0  0  0  0  0  0  0  0  0  0  0  0
  -24.9840  -34.1120   24.9420 H   0  0  0  0  0  0  0  0  0  0  0  0
  -24.1710  -36.8030   23.0160 C   0  0  0  0  0  1  0  0  0  0  0  0
  -25.3980  -36.4180   23.8560 C   0  0  0  0  0  3  0  0  0  0  0  0
  -27.4950  -37.3370   24.7430 C   0  0  0  0  0  1  0  0  0  0  0  0
  -26.4140  -37.4900   23.7720 N   0  0  0  0  0  0  0  0  0  0  0  0
  -25.9870  -38.4030   23.9130 H   0  0  0  0  0  0  0  0  0  0  0  0
  1  2  2  0
  2 54  1  0
  3  5  1  0
  3  4  1  0
  4 55  1  0
  4  2  1  0
  5  1  1  0
  6 10  1  0
  7 11  2  0
  9  6  2  0
  9  7  1  0
 10  5  1  0
 10  8  2  0
 11  8  1  0
 11 20  1  0
 12 20  1  0
 13 18  1  0
 14 15  1  0
 14 13  1  0
 16 15  1  0
 16 25  1  0
 16 17  1  0
 18 12  1  0
 18 17  1  0
 19 12  2  0
 20 21  1  0
 22 23  2  0
 23 42  1  0
 24 23  1  0
 24 27  1  0
 25 26  1  0
 25 22  1  0
 26 24  2  0
 27 28  1  0
 28 29  2  0
 30 33  1  0
 30 29  1  0
 31 30  2  0
 32 31  1  0
 32 27  2  0
 33 34  1  0
 34 35  1  0
 35 36  2  0
 37 36  1  0
 37 41  1  0
 38 37  2  0
 39 34  2  0
 39 38  1  0
 40 39  1  0
 42 43  1  0
 43 46  1  0
 43 45  1  0
 44 42  2  0
 47 48  1  0
 47 22  1  0
 49 47  1  0
 50  9  1  0
 51 50  1  0
 52 50  2  0
 54 53  2  0
 55 56  1  0
 57 68  2  0
 58 56  1  0
 58 63  1  0
 59 67  1  0
 59 69  1  0
 60 66  1  0
 60 62  1  0
 61 67  1  0
 62 63  2  0
 62 61  1  0
 64 58  2  0
 65 64  1  0
 65 60  2  0
 66 59  1  0
 67 57  1  0
 69 71  2  0
 70 69  1  0
 72 70  1  0
 73 82  2  0
 73 78  1  0
 74 70  1  0
 74 78  1  0
 75 74  1  0
 76 77  1  0
 76 75  1  0
 77 73  1  0
 78 79  2  0
 79 80  1  0
 81 80  2  0
 82 81  1  0
 83 57  1  0
 83 88  1  0
 83 84  1  0
 84 87  1  1
 84 85  1  0
 86 84  1  0
 88 91  1  0
 89 93  1  0
 89 88  1  0
 90 89  2  0
 93 92  1  0
 95 93  1  0
 95 96  1  0
 95 94  1  0
M  ISO  4  12 100  20 100  55 101  56 101
M  END
>  <TORSDO>  (16) 
F 20

>  <SCORE>  (16) 
-12.595

>  <name>  (16) 
15

>  <ligand_id>  (16) 
15

>  <original_smiles>  (16) 
[H]C([H])=C([H])C1=C([H])N(c2c([H])c(C(=O)C([H])([H])[H])c([H])c(N([H])C(=O)N3C([H])([H])C([H])([H])C([H])([H])C([H])(n4nc(-c5c([H])c([H])c(Oc6c([H])c([H])c(F)c([H])c6F)c([H])c5[H])c(C(=O)N([H])[H])c4N([H])[H])C3([H])[H])c2[H])C([H])([H])C1([H])C([H])([H])Oc1c([H])c([H])c2c(c1[H])C([H])([H])N(C(=O)C([H])(N([H])C(=O)C([H])(N([H])C([H])([H])[H])C([H])([H])[H])C(C([H])([H])[H])(C([H])([H])[H])C([H])([H])[H])C([H])(C(=O)N([H])C1([H])c3c([H])c([H])c([H])c([H])c3C([H])([H])C([H])([H])C1([H])[H])C2([H])[H]

>  <smiles>  (16) 
[H]C([H])=C([H])C1=C([H])N(c2c([H])c(C(=O)C([H])([H])[H])c([H])c(N([H])C(=O)N3C([H])([H])C([H])([H])C([H])([H])C([H])(n4nc(-c5c([H])c([H])c(Oc6c([H])c([H])c(F)c([H])c6F)c([H])c5[H])c(C(=O)N([H])[H])c4N([H])[H])C3([H])[H])c2[H])C([H])([H])C1([H])C([H])([H])Oc1c([H])c([H])c2c(c1[H])C([H])([H])N(C(=O)C([H])(N([H])C(=O)C([H])(N([H])C([H])([H])[H])C([H])([H])[H])C(C([H])([H])[H])(C([H])([H])[H])C([H])([H])[H])C([H])(C(=O)N([H])C1([H])c3c([H])c([H])c([H])c([H])c3C([H])([H])C([H])([H])C1([H])[H])C2([H])[H]

$$$$
16:0:0
     RDKit          3D

 97105  0  0  1  0  0  0  0  0999 V2000
  -27.2260  -18.7520   18.8650 C   0  0  0  0  0  3  0  0  0  0  0  0
  -27.2580  -20.0870   19.2920 C   0  0  0  0  0  3  0  0  0  0  0  0
  -29.3040  -19.6140   20.5050 C   0  0  0  0  0  3  0  0  0  0  0  0
  -28.2560  -17.8450   19.1920 C   0  0  0  0  0  0  0  0  0  0  0  0
  -29.3220  -18.2460   20.0620 C   0  0  0  0  0  0  0  0  0  0  0  0
  -28.3280  -20.5540   20.0780 C   0  0  0  0  0  0  0  0  0  0  0  0
  -28.1660  -16.5130   18.4560 C   0  0  0  0  0  1  0  0  0  0  0  0
  -28.0940  -23.0250   19.7000 C   0  0  0  0  0  0  0  0  0  0  0  0
  -28.4200  -21.9420   20.4530 N   0  0  0  0  0  0  0  0  0  0  0  0
  -27.7700  -22.9300   18.5130 O   0  0  0  0  0  0  0  0  0  0  0  0
  -28.8050  -22.1360   21.3690 H   0  0  0  0  0  0  0  0  0  0  0  0
  -28.1280  -24.4340   20.3470 C   0  0  0  0  0  2  0  0  0  0  0  0
  -28.5710  -25.5840   19.3860 C   0  0  0  0  0  2  0  0  0  0  0  0
  -28.5020  -26.9170   19.9450 O   0  0  0  0  0  0  0  0  0  0  0  0
  -24.6450  -31.9410   23.2340 C   0  0  0  0  0  0  0  0  0  0  0  0
  -27.3060  -27.6180   19.9660 C   0  0  0  0  0  0  0  0  0  0  0  0
  -23.4410  -30.5880   21.5530 C   0  0  0  0  0  3  0  0  0  0  0  0
  -24.8960  -29.1170   20.0600 C   0  0  0  0  0  0  0  0  0  0  0  0
  -25.9640  -30.9730   21.3490 C   0  0  0  0  0  2  0  0  0  0  0  0
  -26.0560  -29.6250   20.6570 C   0  0  0  0  0  0  0  0  0  0  0  0
  -27.2610  -28.8820   20.6080 C   0  0  0  0  0  3  0  0  0  0  0  0
  -26.1190  -27.1260   19.3770 C   0  0  0  0  0  3  0  0  0  0  0  0
  -24.9230  -27.8670   19.4210 C   0  0  0  0  0  3  0  0  0  0  0  0
  -23.6460  -29.9640   20.1470 C   0  0  0  0  0  2  0  0  0  0  0  0
  -24.7030  -31.1810   22.1040 N   0  0  0  0  0  0  0  0  0  0  0  0
  -23.5660  -32.1820   23.7920 O   0  0  0  0  0  0  0  0  0  0  0  0
  -22.8090  -29.5240   22.4790 C   0  0  0  0  0  0  0  0  0  0  0  0
  -21.4910  -29.3150   22.3380 N   0  0  0  0  0  0  0  0  0  0  0  0
  -23.5020  -28.8920   23.2810 O   0  0  0  0  0  0  0  0  0  0  0  0
  -20.9910  -29.8790   21.6660 H   0  0  0  0  0  0  0  0  0  0  0  0
  -18.1470  -28.0070   22.7580 C   0  0  0  0  0  0  0  0  0  0  0  0
  -20.6910  -28.3360   23.0760 C   0  0  0  0  0  3  0  0  0  0  0  0
  -20.8470  -26.9220   22.4710 C   0  0  0  0  0  2  0  0  0  0  0  0
  -19.7690  -26.5880   21.4320 C   0  0  0  0  0  2  0  0  0  0  0  0
  -18.3750  -26.6770   22.0590 C   0  0  0  0  0  2  0  0  0  0  0  0
  -19.2360  -28.7920   23.2220 C   0  0  0  0  0  0  0  0  0  0  0  0
  -18.9710  -30.0370   23.8350 C   0  0  0  0  0  3  0  0  0  0  0  0
  -17.6490  -30.4960   23.9900 C   0  0  0  0  0  3  0  0  0  0  0  0
  -16.5750  -29.7070   23.5430 C   0  0  0  0  0  3  0  0  0  0  0  0
  -16.8240  -28.4640   22.9340 C   0  0  0  0  0  3  0  0  0  0  0  0
  -25.9290  -32.5640   23.8660 C   0  0  0  0  0  3  0  0  0  0  0  0
  -25.6220  -33.9600   24.2080 N   0  0  0  0  0  0  0  0  0  0  0  0
  -25.9530  -35.0170   23.4550 C   0  0  0  0  0  0  0  0  0  0  0  0
  -26.6210  -34.9200   22.4220 O   0  0  0  0  0  0  0  0  0  0  0  0
  -25.0280  -34.1090   25.0110 H   0  0  0  0  0  0  0  0  0  0  0  0
  -24.2320  -36.8170   23.1050 C   0  0  0  0  0  1  0  0  0  0  0  0
  -25.4660  -36.4030   23.9220 C   0  0  0  0  0  3  0  0  0  0  0  0
  -27.5920  -37.2780   24.7840 C   0  0  0  0  0  1  0  0  0  0  0  0
  -26.5020  -37.4530   23.8260 N   0  0  0  0  0  0  0  0  0  0  0  0
  -26.0960  -38.3740   23.9720 H   0  0  0  0  0  0  0  0  0  0  0  0
  -26.4390  -31.7790   25.1360 C   0  0  1  0  0  0  0  0  0  0  0  0
  -25.3350  -31.5030   26.1830 C   0  0  0  0  0  1  0  0  0  0  0  0
  -27.0530  -30.4190   24.7270 C   0  0  0  0  0  1  0  0  0  0  0  0
  -27.5670  -32.5800   25.8310 C   0  0  0  0  0  1  0  0  0  0  0  0
  -31.3700  -17.8530   21.5750 C   0  0  0  0  0  1  0  0  0  0  0  0
  -30.5640  -17.3190   20.3560 C   0  0  1  0  0  0  0  0  0  0  0  0
  -30.8470  -14.8010   21.0030 C   0  0  0  0  0  0  0  0  0  0  0  0
  -30.6540  -12.5880   19.9870 C   0  0  0  0  0  2  0  0  0  0  0  0
  -29.8240  -12.7490   18.6980 C   0  0  0  0  0  2  0  0  0  0  0  0
  -28.3210  -12.5960   19.0040 C   0  0  0  0  0  2  0  0  0  0  0  0
  -27.8550  -13.4410   20.2210 C   0  0  0  0  0  3  0  0  0  0  0  0
  -28.8270  -13.3320   21.4140 C   0  0  0  0  0  2  0  0  0  0  0  0
  -30.1770  -13.6220   20.9130 N   0  0  0  0  0  0  0  0  0  0  0  0
  -32.0720  -14.8250   21.0400 O   0  0  0  0  0  0  0  0  0  0  0  0
  -30.1290  -15.9220   20.7150 N   0  0  0  0  0  0  0  0  0  0  0  0
  -29.1340  -15.7740   20.6550 H   0  0  0  0  0  0  0  0  0  0  0  0
  -25.3950  -14.0000   20.7030 C   0  0  0  0  0  0  0  0  0  0  0  0
  -24.3160  -13.2060   20.9830 C   0  0  0  0  0  0  0  0  0  0  0  0
  -24.8120  -11.8660   21.0290 C   0  0  0  0  0  0  0  0  0  0  0  0
  -26.4770  -13.1400   20.5910 N   0  0  0  0  0  0  0  0  0  0  0  0
  -26.1260  -11.8540   20.8490 N   0  0  0  0  0  0  0  0  0  0  0  0
  -24.1020  -10.5910   21.1760 C   0  0  0  0  0  0  0  0  0  0  0  0
  -24.4870   -9.6400   22.1470 C   0  0  0  0  0  3  0  0  0  0  0  0
  -23.7760   -8.4280   22.2840 C   0  0  0  0  0  3  0  0  0  0  0  0
  -22.6650   -8.1590   21.4480 C   0  0  0  0  0  0  0  0  0  0  0  0
  -22.3010   -9.0990   20.4680 C   0  0  0  0  0  3  0  0  0  0  0  0
  -23.0130  -10.3020   20.3310 C   0  0  0  0  0  3  0  0  0  0  0  0
  -21.9300   -6.9990   21.4940 O   0  0  0  0  0  0  0  0  0  0  0  0
  -21.8160   -6.2630   22.6460 C   0  0  0  0  0  0  0  0  0  0  0  0
  -21.2360   -6.7980   23.8170 C   0  0  0  0  0  3  0  0  0  0  0  0
  -21.0730   -5.9850   24.9570 C   0  0  0  0  0  3  0  0  0  0  0  0
  -21.4830   -4.6390   24.9260 C   0  0  0  0  0  0  0  0  0  0  0  0
  -22.0570   -4.1030   23.7600 C   0  0  0  0  0  3  0  0  0  0  0  0
  -22.2210   -4.9140   22.6230 C   0  0  0  0  0  0  0  0  0  0  0  0
  -22.7560   -4.3880   21.4940 F   0  0  0  0  0  0  0  0  0  0  0  0
  -21.3200   -3.8550   26.0180 F   0  0  0  0  0  0  0  0  0  0  0  0
  -22.8880  -13.6510   21.1070 C   0  0  0  0  0  0  0  0  0  0  0  0
  -22.0980  -12.9550   21.9160 N   0  0  0  0  0  0  0  0  0  0  0  0
  -22.4780  -14.6530   20.5220 O   0  0  0  0  0  0  0  0  0  0  0  0
  -22.4390  -12.1450   22.4120 H   0  0  0  0  0  0  0  0  0  0  0  0
  -21.1360  -13.2360   22.0420 H   0  0  0  0  0  0  0  0  0  0  0  0
  -25.5380  -15.3710   20.5160 N   0  0  0  0  0  0  0  0  0  0  0  0
  -24.7410  -15.9970   20.5590 H   0  0  0  0  0  0  0  0  0  0  0  0
  -26.4020  -15.8530   20.3120 H   0  0  0  0  0  0  0  0  0  0  0  0
  -32.8130  -16.6520   19.0180 C   0  0  0  0  0  1  0  0  0  0  0  0
  -31.7370  -18.8500   18.5540 C   0  0  0  0  0  1  0  0  0  0  0  0
  -31.4670  -17.4030   19.0430 C   0  0  0  0  0  3  0  0  0  0  0  0
  1  4  2  0
  1  2  1  0
  2  6  2  0
  4  5  1  0
  5 56  1  0
  5  3  2  0
  6  9  1  0
  6  3  1  0
  7  4  1  0
  8 12  1  0
  8  9  1  0
  9 11  1  0
 10  8  2  0
 13 14  1  0
 13 12  1  0
 14 16  1  0
 15 26  2  0
 16 21  1  0
 17 25  1  0
 17 27  1  0
 18 24  1  0
 18 20  1  0
 19 25  1  0
 20 19  1  0
 21 20  2  0
 22 23  1  0
 22 16  2  0
 23 18  2  0
 24 17  1  0
 25 15  1  0
 27 29  2  0
 28 27  1  0
 30 28  1  0
 31 40  2  0
 31 36  1  0
 32 28  1  0
 32 36  1  0
 33 32  1  0
 34 35  1  0
 34 33  1  0
 35 31  1  0
 36 37  2  0
 37 38  1  0
 39 38  2  0
 40 39  1  0
 41 15  1  0
 41 42  1  0
 41 51  1  0
 42 45  1  0
 43 47  1  0
 43 42  1  0
 44 43  2  0
 47 46  1  0
 49 47  1  0
 49 50  1  0
 49 48  1  0
 51 54  1  1
 51 52  1  0
 53 51  1  0
 56 65  1  0
 56 55  1  1
 57 64  2  0
 58 63  1  0
 59 60  1  0
 59 58  1  0
 61 60  1  0
 61 70  1  0
 61 62  1  0
 63 57  1  0
 63 62  1  0
 65 57  1  0
 66 65  1  0
 67 68  2  0
 68 69  1  0
 68 87  1  0
 69 72  1  0
 70 67  1  0
 70 71  1  0
 71 69  2  0
 72 73  1  0
 73 74  2  0
 75 78  1  0
 75 74  1  0
 76 75  2  0
 77 76  1  0
 77 72  2  0
 78 79  1  0
 79 80  1  0
 80 81  2  0
 82 81  1  0
 82 86  1  0
 83 82  2  0
 84 79  2  0
 84 83  1  0
 85 84  1  0
 87 88  1  0
 88 91  1  0
 88 90  1  0
 89 87  2  0
 92 93  1  0
 92 67  1  0
 94 92  1  0
 95 97  1  0
 96 97  1  0
 97 56  1  0
M  ISO  4  13 101  14 101  57 100  65 100
M  END
>  <TORSDO>  (17) 
F 21

>  <SCORE>  (17) 
-13.396

>  <name>  (17) 
16

>  <ligand_id>  (17) 
16

>  <original_smiles>  (17) 
[H]c1c([H])c([H])c2c(c1[H])C([H])([H])C([H])([H])C([H])([H])C2([H])N([H])C(=O)C1([H])N(C(=O)C([H])(N([H])C(=O)C([H])(N([H])C([H])([H])[H])C([H])([H])[H])C(C([H])([H])[H])(C([H])([H])[H])C([H])([H])[H])C([H])([H])c2c([H])c(OC([H])([H])C([H])([H])C(=O)N([H])c3c([H])c([H])c(C([H])([H])[H])c(C(N([H])C(=O)N4C([H])([H])C([H])([H])C([H])([H])C([H])(n5nc(-c6c([H])c([H])c(Oc7c([H])c([H])c(F)c([H])c7F)c([H])c6[H])c(C(=O)N([H])[H])c5N([H])[H])C4([H])[H])(C([H])([H])[H])C([H])(C([H])([H])[H])C([H])([H])[H])c3[H])c([H])c([H])c2C1([H])[H]

>  <smiles>  (17) 
[H]c1c([H])c([H])c2c(c1[H])C([H])([H])C([H])([H])C([H])([H])C2([H])N([H])C(=O)C1([H])N(C(=O)C([H])(N([H])C(=O)C([H])(N([H])C([H])([H])[H])C([H])([H])[H])C(C([H])([H])[H])(C([H])([H])[H])C([H])([H])[H])C([H])([H])c2c([H])c(OC([H])([H])C([H])([H])C(=O)N([H])c3c([H])c([H])c(C([H])([H])[H])c(C(N([H])C(=O)N4C([H])([H])C([H])([H])C([H])([H])C([H])(n5nc(-c6c([H])c([H])c(Oc7c([H])c([H])c(F)c([H])c7F)c([H])c6[H])c(C(=O)N([H])[H])c5N([H])[H])C4([H])[H])(C([H])([H])[H])C([H])(C([H])([H])[H])C([H])([H])[H])c3[H])c([H])c([H])c2C1([H])[H]

$$$$
17:0:0
     RDKit          3D

 96105  0  0  1  0  0  0  0  0999 V2000
  -29.4240  -18.5950   20.2660 C   0  0  0  0  0  3  0  0  0  0  0  0
  -31.2700  -17.5620   21.4010 C   0  0  0  0  0  3  0  0  0  0  0  0
  -29.9090  -19.9240   20.6540 C   0  0  0  0  0  0  0  0  0  0  0  0
  -30.1170  -17.3600   20.6310 C   0  0  0  0  0  0  0  0  0  0  0  0
  -31.1600  -19.9070   21.3400 C   0  0  0  0  0  0  0  0  0  0  0  0
  -31.7660  -18.7600   21.7290 N   0  0  0  0  0  0  0  0  0  0  0  0
  -30.5160  -14.7970   20.2940 C   0  0  0  0  0  0  0  0  0  0  0  0
  -30.3200  -12.5430   19.2410 C   0  0  0  0  0  2  0  0  0  0  0  0
  -29.3620  -12.6420   18.0340 C   0  0  0  0  0  2  0  0  0  0  0  0
  -27.8980  -12.4520   18.4820 C   0  0  0  0  0  2  0  0  0  0  0  0
  -27.5410  -13.2970   19.7350 C   0  0  0  0  0  3  0  0  0  0  0  0
  -28.6190  -13.1960   20.8340 C   0  0  0  0  0  2  0  0  0  0  0  0
  -29.8930  -13.5730   20.2130 N   0  0  0  0  0  0  0  0  0  0  0  0
  -31.7220  -14.8780   20.0530 O   0  0  0  0  0  0  0  0  0  0  0  0
  -29.7230  -15.9490   20.3440 N   0  0  0  0  0  0  0  0  0  0  0  0
  -28.7380  -15.7840   20.2070 H   0  0  0  0  0  0  0  0  0  0  0  0
  -25.1590  -13.8560   20.5000 C   0  0  0  0  0  0  0  0  0  0  0  0
  -24.1050  -13.0690   20.8670 C   0  0  0  0  0  0  0  0  0  0  0  0
  -24.5810  -11.7210   20.8220 C   0  0  0  0  0  0  0  0  0  0  0  0
  -26.2090  -12.9910   20.2440 N   0  0  0  0  0  0  0  0  0  0  0  0
  -25.8690  -11.7010   20.5000 N   0  0  0  0  0  0  0  0  0  0  0  0
  -23.8680  -10.4520   21.0060 C   0  0  0  0  0  0  0  0  0  0  0  0
  -24.2900   -9.5010   21.9600 C   0  0  0  0  0  3  0  0  0  0  0  0
  -23.5740   -8.2970   22.1340 C   0  0  0  0  0  3  0  0  0  0  0  0
  -22.4250   -8.0350   21.3500 C   0  0  0  0  0  0  0  0  0  0  0  0
  -22.0230   -8.9760   20.3870 C   0  0  0  0  0  3  0  0  0  0  0  0
  -22.7370  -10.1720   20.2120 C   0  0  0  0  0  3  0  0  0  0  0  0
  -21.6820   -6.8800   21.4290 O   0  0  0  0  0  0  0  0  0  0  0  0
  -21.5940   -6.1640   22.5930 C   0  0  0  0  0  0  0  0  0  0  0  0
  -21.0590   -6.7220   23.7760 C   0  0  0  0  0  3  0  0  0  0  0  0
  -20.9220   -5.9270   24.9300 C   0  0  0  0  0  3  0  0  0  0  0  0
  -21.3090   -4.5730   24.9060 C   0  0  0  0  0  0  0  0  0  0  0  0
  -21.8380   -4.0140   23.7280 C   0  0  0  0  0  3  0  0  0  0  0  0
  -21.9780   -4.8070   22.5770 C   0  0  0  0  0  0  0  0  0  0  0  0
  -22.4670   -4.2580   21.4380 F   0  0  0  0  0  0  0  0  0  0  0  0
  -21.1700   -3.8090   26.0140 F   0  0  0  0  0  0  0  0  0  0  0  0
  -22.7050  -13.5300   21.1530 C   0  0  0  0  0  0  0  0  0  0  0  0
  -21.9850  -12.8160   22.0060 N   0  0  0  0  0  0  0  0  0  0  0  0
  -22.2620  -14.5640   20.6510 O   0  0  0  0  0  0  0  0  0  0  0  0
  -22.3600  -11.9780   22.4290 H   0  0  0  0  0  0  0  0  0  0  0  0
  -21.0480  -13.1080   22.2440 H   0  0  0  0  0  0  0  0  0  0  0  0
  -25.3050  -15.2320   20.3370 N   0  0  0  0  0  0  0  0  0  0  0  0
  -24.5290  -15.8680   20.4860 H   0  0  0  0  0  0  0  0  0  0  0  0
  -26.1280  -15.6930   19.9760 H   0  0  0  0  0  0  0  0  0  0  0  0
  -28.9330  -21.6350   19.0900 C   0  0  0  0  0  0  0  0  0  0  0  0
  -28.3740  -23.0660   19.0530 C   0  0  0  0  0  2  0  0  0  0  0  0
  -28.9150  -22.3750   21.2610 C   0  0  0  0  0  2  0  0  0  0  0  0
  -28.7990  -23.7100   20.3880 C   0  0  0  0  0  3  0  0  0  0  0  0
  -29.2380  -21.2230   20.3340 N   0  0  0  0  0  0  0  0  0  0  0  0
  -29.0830  -20.9660   18.0670 O   0  0  0  0  0  0  0  0  0  0  0  0
  -27.8990  -24.9890   20.8110 C   0  0  0  0  0  2  0  0  0  0  0  0
  -28.2470  -26.3970   20.4170 O   0  0  0  0  0  0  0  0  0  0  0  0
  -24.5310  -31.9190   23.2570 C   0  0  0  0  0  0  0  0  0  0  0  0
  -27.1770  -27.3060   20.3110 C   0  0  0  0  0  0  0  0  0  0  0  0
  -23.3640  -30.5060   21.6000 C   0  0  0  0  0  3  0  0  0  0  0  0
  -24.8460  -28.9550   20.2240 C   0  0  0  0  0  0  0  0  0  0  0  0
  -25.9160  -30.8200   21.4820 C   0  0  0  0  0  2  0  0  0  0  0  0
  -26.0050  -29.4360   20.8420 C   0  0  0  0  0  0  0  0  0  0  0  0
  -27.1810  -28.6200   20.8810 C   0  0  0  0  0  3  0  0  0  0  0  0
  -26.0080  -26.9090   19.6240 C   0  0  0  0  0  3  0  0  0  0  0  0
  -24.8460  -27.6970   19.6070 C   0  0  0  0  0  3  0  0  0  0  0  0
  -23.6060  -29.8180   20.2340 C   0  0  0  0  0  2  0  0  0  0  0  0
  -24.6230  -31.0990   22.1670 N   0  0  0  0  0  0  0  0  0  0  0  0
  -23.4360  -32.1950   23.7620 O   0  0  0  0  0  0  0  0  0  0  0  0
  -22.6860  -29.4950   22.5550 C   0  0  0  0  0  0  0  0  0  0  0  0
  -21.3630  -29.3190   22.4100 N   0  0  0  0  0  0  0  0  0  0  0  0
  -23.3530  -28.8680   23.3860 O   0  0  0  0  0  0  0  0  0  0  0  0
  -20.8850  -29.8750   21.7140 H   0  0  0  0  0  0  0  0  0  0  0  0
  -17.9640  -28.1930   22.9250 C   0  0  0  0  0  0  0  0  0  0  0  0
  -20.5300  -28.3910   23.1770 C   0  0  0  0  0  3  0  0  0  0  0  0
  -20.5920  -26.9620   22.5880 C   0  0  0  0  0  2  0  0  0  0  0  0
  -19.4780  -26.6770   21.5770 C   0  0  0  0  0  2  0  0  0  0  0  0
  -18.1040  -26.8470   22.2340 C   0  0  0  0  0  2  0  0  0  0  0  0
  -19.1030  -28.9250   23.3560 C   0  0  0  0  0  0  0  0  0  0  0  0
  -18.9180  -30.1840   23.9620 C   0  0  0  0  0  3  0  0  0  0  0  0
  -17.6250  -30.7130   24.1450 C   0  0  0  0  0  3  0  0  0  0  0  0
  -16.5000  -29.9770   23.7320 C   0  0  0  0  0  3  0  0  0  0  0  0
  -16.6710  -28.7200   23.1260 C   0  0  0  0  0  3  0  0  0  0  0  0
  -25.8000  -32.5570   23.9030 C   0  0  0  0  0  3  0  0  0  0  0  0
  -26.2750  -31.8200   25.2150 C   0  0  1  0  0  0  0  0  0  0  0  0
  -25.1470  -31.6070   26.2500 C   0  0  0  0  0  1  0  0  0  0  0  0
  -26.8760  -30.4370   24.8800 C   0  0  0  0  0  1  0  0  0  0  0  0
  -27.4050  -32.6360   25.8920 C   0  0  0  0  0  1  0  0  0  0  0  0
  -25.4870  -33.9640   24.1910 N   0  0  0  0  0  0  0  0  0  0  0  0
  -25.8570  -34.9980   23.4260 C   0  0  0  0  0  0  0  0  0  0  0  0
  -26.5670  -34.8680   22.4230 O   0  0  0  0  0  0  0  0  0  0  0  0
  -24.8640  -34.1410   24.9650 H   0  0  0  0  0  0  0  0  0  0  0  0
  -24.1810  -36.8060   22.9450 C   0  0  0  0  0  1  0  0  0  0  0  0
  -25.3640  -36.4000   23.8360 C   0  0  0  0  0  3  0  0  0  0  0  0
  -27.4540  -37.2700   24.7860 C   0  0  0  0  0  1  0  0  0  0  0  0
  -26.4160  -37.4360   23.7720 N   0  0  0  0  0  0  0  0  0  0  0  0
  -26.0150  -38.3650   23.8780 H   0  0  0  0  0  0  0  0  0  0  0  0
  -31.9900  -21.1420   21.7510 C   0  0  1  0  0  0  0  0  0  0  0  0
  -31.6920  -21.4380   23.0120 F   0  0  0  0  0  0  0  0  0  0  0  0
  -33.2920  -20.8440   21.7220 F   0  0  0  0  0  0  0  0  0  0  0  0
  -31.8380  -22.2300   20.9940 F   0  0  0  0  0  0  0  0  0  0  0  0
  1  4  2  0
  1  3  1  0
  2  6  2  0
  3  5  2  0
  4  2  1  0
  5  6  1  0
  5 93  1  0
  7 15  1  0
  8 13  1  0
  9 10  1  0
  9  8  1  0
 11 10  1  0
 11 20  1  0
 11 12  1  0
 13  7  1  0
 13 12  1  0
 14  7  2  0
 15  4  1  0
 16 15  1  0
 17 18  2  0
 18 37  1  0
 19 18  1  0
 19 22  1  0
 20 21  1  0
 20 17  1  0
 21 19  2  0
 22 23  1  0
 23 24  2  0
 25 28  1  0
 25 24  1  0
 26 25  2  0
 27 26  1  0
 27 22  2  0
 28 29  1  0
 29 30  1  0
 30 31  2  0
 32 31  1  0
 32 36  1  0
 33 32  2  0
 34 29  2  0
 34 33  1  0
 35 34  1  0
 37 38  1  0
 38 41  1  0
 38 40  1  0
 39 37  2  0
 42 43  1  0
 42 17  1  0
 44 42  1  0
 45 49  1  0
 46 45  1  0
 46 48  1  0
 48 51  1  0
 48 47  1  0
 49  3  1  0
 49 47  1  0
 50 45  2  0
 52 51  1  0
 53 64  2  0
 54 52  1  0
 54 59  1  0
 55 63  1  0
 55 65  1  0
 56 62  1  0
 56 58  1  0
 57 63  1  0
 58 59  2  0
 58 57  1  0
 60 54  2  0
 61 60  1  0
 61 56  2  0
 62 55  1  0
 63 53  1  0
 65 67  2  0
 66 65  1  0
 68 66  1  0
 69 78  2  0
 69 74  1  0
 70 66  1  0
 70 74  1  0
 71 70  1  0
 72 73  1  0
 72 71  1  0
 73 69  1  0
 74 75  2  0
 75 76  1  0
 77 76  2  0
 78 77  1  0
 79 53  1  0
 79 84  1  0
 79 80  1  0
 80 83  1  1
 80 81  1  0
 82 80  1  0
 84 87  1  0
 85 89  1  0
 85 84  1  0
 86 85  2  0
 89 88  1  0
 91 89  1  0
 91 92  1  0
 91 90  1  0
 93 94  1  1
 95 93  1  0
 96 93  1  0
M  ISO  4   7 100  15 100  51 101  52 101
M  END
>  <TORSDO>  (18) 
F 19

>  <SCORE>  (18) 
-14.913

>  <name>  (18) 
17

>  <ligand_id>  (18) 
17

>  <original_smiles>  (18) 
[H]c1nc(C(F)(F)F)c(N2C(=O)C([H])([H])C([H])(C([H])([H])Oc3c([H])c([H])c4c(c3[H])C([H])([H])N(C(=O)C([H])(N([H])C(=O)C([H])(N([H])C([H])([H])[H])C([H])([H])[H])C(C([H])([H])[H])(C([H])([H])[H])C([H])([H])[H])C([H])(C(=O)N([H])C3([H])c5c([H])c([H])c([H])c([H])c5C([H])([H])C([H])([H])C3([H])[H])C4([H])[H])C2([H])[H])c([H])c1N([H])C(=O)N1C([H])([H])C([H])([H])C([H])([H])C([H])(n2nc(-c3c([H])c([H])c(Oc4c([H])c([H])c(F)c([H])c4F)c([H])c3[H])c(C(=O)N([H])[H])c2N([H])[H])C1([H])[H]

>  <smiles>  (18) 
[H]c1nc(C(F)(F)F)c(N2C(=O)C([H])([H])C([H])(C([H])([H])Oc3c([H])c([H])c4c(c3[H])C([H])([H])N(C(=O)C([H])(N([H])C(=O)C([H])(N([H])C([H])([H])[H])C([H])([H])[H])C(C([H])([H])[H])(C([H])([H])[H])C([H])([H])[H])C([H])(C(=O)N([H])C3([H])c5c([H])c([H])c([H])c([H])c5C([H])([H])C([H])([H])C3([H])[H])C4([H])[H])C2([H])[H])c([H])c1N([H])C(=O)N1C([H])([H])C([H])([H])C([H])([H])C([H])(n2nc(-c3c([H])c([H])c(Oc4c([H])c([H])c(F)c([H])c4F)c([H])c3[H])c(C(=O)N([H])[H])c2N([H])[H])C1([H])[H]

$$$$
18:0:0
     RDKit          3D

 98107  0  0  1  0  0  0  0  0999 V2000
  -29.0900  -19.7730   19.0040 C   0  0  0  0  0  3  0  0  0  0  0  0
  -30.1140  -18.6980   20.9160 C   0  0  0  0  0  3  0  0  0  0  0  0
  -29.4340  -17.3420   19.0120 C   0  0  0  0  0  3  0  0  0  0  0  0
  -29.6680  -19.9490   20.2870 C   0  0  0  0  0  0  0  0  0  0  0  0
  -28.9280  -18.5050   18.3960 C   0  0  0  0  0  0  0  0  0  0  0  0
  -30.0160  -17.3880   20.2970 C   0  0  0  0  0  0  0  0  0  0  0  0
  -30.9760  -14.9970   20.5090 C   0  0  0  0  0  0  0  0  0  0  0  0
  -30.7660  -12.7380   19.4770 C   0  0  0  0  0  2  0  0  0  0  0  0
  -29.8830  -12.8760   18.2200 C   0  0  0  0  0  2  0  0  0  0  0  0
  -28.3870  -12.7560   18.5790 C   0  0  0  0  0  2  0  0  0  0  0  0
  -27.9950  -13.6040   19.8200 C   0  0  0  0  0  3  0  0  0  0  0  0
  -29.0110  -13.4470   20.9730 C   0  0  0  0  0  2  0  0  0  0  0  0
  -30.3430  -13.7760   20.4460 N   0  0  0  0  0  0  0  0  0  0  0  0
  -32.1310  -15.1220   20.0920 O   0  0  0  0  0  0  0  0  0  0  0  0
  -30.2650  -16.0910   20.9660 N   0  0  0  0  0  0  0  0  0  0  0  0
  -29.4960  -15.8040   21.5510 H   0  0  0  0  0  0  0  0  0  0  0  0
  -25.5960  -14.2400   20.4660 C   0  0  0  0  0  0  0  0  0  0  0  0
  -24.4960  -13.4860   20.7790 C   0  0  0  0  0  0  0  0  0  0  0  0
  -24.9270  -12.1240   20.7380 C   0  0  0  0  0  0  0  0  0  0  0  0
  -26.6250  -13.3390   20.2510 N   0  0  0  0  0  0  0  0  0  0  0  0
  -26.2240  -12.0590   20.4710 N   0  0  0  0  0  0  0  0  0  0  0  0
  -24.1630  -10.8770   20.8820 C   0  0  0  0  0  0  0  0  0  0  0  0
  -24.5210   -9.8920   21.8290 C   0  0  0  0  0  3  0  0  0  0  0  0
  -23.7560   -8.7130   21.9580 C   0  0  0  0  0  3  0  0  0  0  0  0
  -22.6210   -8.5090   21.1370 C   0  0  0  0  0  0  0  0  0  0  0  0
  -22.2850   -9.4820   20.1810 C   0  0  0  0  0  3  0  0  0  0  0  0
  -23.0480  -10.6520   20.0500 C   0  0  0  0  0  3  0  0  0  0  0  0
  -21.8390   -7.3790   21.1730 O   0  0  0  0  0  0  0  0  0  0  0  0
  -21.6950   -6.6400   22.3200 C   0  0  0  0  0  0  0  0  0  0  0  0
  -21.1900   -7.2040   23.5100 C   0  0  0  0  0  3  0  0  0  0  0  0
  -20.9900   -6.3950   24.6470 C   0  0  0  0  0  3  0  0  0  0  0  0
  -21.2880   -5.0190   24.5910 C   0  0  0  0  0  0  0  0  0  0  0  0
  -21.7840   -4.4530   23.4040 C   0  0  0  0  0  3  0  0  0  0  0  0
  -21.9850   -5.2610   22.2710 C   0  0  0  0  0  0  0  0  0  0  0  0
  -22.4460   -4.7060   21.1220 F   0  0  0  0  0  0  0  0  0  0  0  0
  -21.0910   -4.2370   25.6790 F   0  0  0  0  0  0  0  0  0  0  0  0
  -23.1050  -13.9960   21.0120 C   0  0  0  0  0  0  0  0  0  0  0  0
  -22.3260  -13.3140   21.8450 N   0  0  0  0  0  0  0  0  0  0  0  0
  -22.7120  -15.0400   20.4920 O   0  0  0  0  0  0  0  0  0  0  0  0
  -22.6480  -12.4680   22.2900 H   0  0  0  0  0  0  0  0  0  0  0  0
  -21.3940  -13.6500   22.0390 H   0  0  0  0  0  0  0  0  0  0  0  0
  -25.8100  -15.6110   20.3330 N   0  0  0  0  0  0  0  0  0  0  0  0
  -25.0780  -16.3060   20.4430 H   0  0  0  0  0  0  0  0  0  0  0  0
  -26.7070  -16.0250   20.1120 H   0  0  0  0  0  0  0  0  0  0  0  0
  -30.1210  -21.6210   22.1280 C   0  0  0  0  0  0  0  0  0  0  0  0
  -30.3240  -23.0740   22.6090 C   0  0  0  0  0  2  0  0  0  0  0  0
  -29.3280  -24.0920   22.0450 C   0  0  0  0  0  2  0  0  0  0  0  0
  -29.1770  -22.5530   20.0400 C   0  0  0  0  0  2  0  0  0  0  0  0
  -29.3800  -24.0860   20.5260 C   0  0  0  0  0  3  0  0  0  0  0  0
  -29.7220  -21.3560   20.8450 N   0  0  0  0  0  0  0  0  0  0  0  0
  -30.3590  -20.7490   22.9680 O   0  0  0  0  0  0  0  0  0  0  0  0
  -28.4120  -25.2320   19.9320 C   0  0  0  0  0  2  0  0  0  0  0  0
  -28.5780  -26.6890   20.2730 O   0  0  0  0  0  0  0  0  0  0  0  0
  -24.7290  -32.0140   23.3730 C   0  0  0  0  0  0  0  0  0  0  0  0
  -27.4510  -27.5430   20.2290 C   0  0  0  0  0  0  0  0  0  0  0  0
  -23.5620  -30.6080   21.7180 C   0  0  0  0  0  3  0  0  0  0  0  0
  -25.0480  -29.1210   20.2580 C   0  0  0  0  0  0  0  0  0  0  0  0
  -26.1000  -30.9830   21.5400 C   0  0  0  0  0  2  0  0  0  0  0  0
  -26.2100  -29.6200   20.8630 C   0  0  0  0  0  0  0  0  0  0  0  0
  -27.4120  -28.8430   20.8370 C   0  0  0  0  0  3  0  0  0  0  0  0
  -26.2610  -27.1180   19.5920 C   0  0  0  0  0  3  0  0  0  0  0  0
  -25.0790  -27.8780   19.6140 C   0  0  0  0  0  3  0  0  0  0  0  0
  -23.7910  -29.9660   20.3250 C   0  0  0  0  0  2  0  0  0  0  0  0
  -24.8150  -31.2190   22.2660 N   0  0  0  0  0  0  0  0  0  0  0  0
  -23.6370  -32.2590   23.9080 O   0  0  0  0  0  0  0  0  0  0  0  0
  -22.9250  -29.5600   22.6610 C   0  0  0  0  0  0  0  0  0  0  0  0
  -21.6140  -29.3140   22.4930 N   0  0  0  0  0  0  0  0  0  0  0  0
  -23.6090  -28.9700   23.5000 O   0  0  0  0  0  0  0  0  0  0  0  0
  -21.1200  -29.8430   21.7880 H   0  0  0  0  0  0  0  0  0  0  0  0
  -18.2850  -27.9560   22.9060 C   0  0  0  0  0  0  0  0  0  0  0  0
  -20.8200  -28.3400   23.2430 C   0  0  0  0  0  3  0  0  0  0  0  0
  -21.0100  -26.9160   22.6730 C   0  0  0  0  0  2  0  0  0  0  0  0
  -19.9490  -26.5370   21.6330 C   0  0  0  0  0  2  0  0  0  0  0  0
  -18.5440  -26.6160   22.2370 C   0  0  0  0  0  2  0  0  0  0  0  0
  -19.3540  -28.7720   23.3630 C   0  0  0  0  0  0  0  0  0  0  0  0
  -19.0580  -30.0230   23.9460 C   0  0  0  0  0  3  0  0  0  0  0  0
  -17.7270  -30.4580   24.0830 C   0  0  0  0  0  3  0  0  0  0  0  0
  -16.6720  -29.6400   23.6430 C   0  0  0  0  0  3  0  0  0  0  0  0
  -16.9510  -28.3900   23.0600 C   0  0  0  0  0  3  0  0  0  0  0  0
  -25.9920  -32.6700   24.0040 C   0  0  0  0  0  3  0  0  0  0  0  0
  -26.4940  -31.9250   25.3020 C   0  0  1  0  0  0  0  0  0  0  0  0
  -25.3680  -31.6240   26.3200 C   0  0  0  0  0  1  0  0  0  0  0  0
  -27.1710  -30.5830   24.9370 C   0  0  0  0  0  1  0  0  0  0  0  0
  -27.5640  -32.7860   26.0130 C   0  0  0  0  0  1  0  0  0  0  0  0
  -25.6630  -34.0720   24.3060 N   0  0  0  0  0  0  0  0  0  0  0  0
  -25.9620  -35.1110   23.5190 C   0  0  0  0  0  0  0  0  0  0  0  0
  -26.6170  -34.9970   22.4790 O   0  0  0  0  0  0  0  0  0  0  0  0
  -25.0790  -34.2320   25.1130 H   0  0  0  0  0  0  0  0  0  0  0  0
  -24.1830  -36.8530   23.1710 C   0  0  0  0  0  1  0  0  0  0  0  0
  -25.4580  -36.5000   23.9520 C   0  0  0  0  0  3  0  0  0  0  0  0
  -27.5920  -37.4600   24.6930 C   0  0  0  0  0  1  0  0  0  0  0  0
  -26.4590  -37.5740   23.7770 N   0  0  0  0  0  0  0  0  0  0  0  0
  -26.0360  -38.4880   23.9150 H   0  0  0  0  0  0  0  0  0  0  0  0
  -27.3250  -19.2410   16.6780 C   0  0  0  0  0  0  0  0  0  0  0  0
  -26.5740  -18.8340   15.4180 C   0  0  0  0  0  1  0  0  0  0  0  0
  -28.2240  -18.3680   17.1700 N   0  0  0  0  0  0  0  0  0  0  0  0
  -27.0780  -20.3340   17.1940 O   0  0  0  0  0  0  0  0  0  0  0  0
  -28.2720  -17.4700   16.7040 H   0  0  0  0  0  0  0  0  0  0  0  0
  1  4  1  0
  3  6  2  0
  4 50  1  0
  4  2  2  0
  5  1  2  0
  5  3  1  0
  6  2  1  0
  6 15  1  0
  7 15  1  0
  8 13  1  0
  9 10  1  0
  9  8  1  0
 11 10  1  0
 11 20  1  0
 11 12  1  0
 13  7  1  0
 13 12  1  0
 14  7  2  0
 15 16  1  0
 17 18  2  0
 18 37  1  0
 19 18  1  0
 19 22  1  0
 20 17  1  0
 20 21  1  0
 21 19  2  0
 22 23  1  0
 23 24  2  0
 25 28  1  0
 25 24  1  0
 26 25  2  0
 27 26  1  0
 27 22  2  0
 28 29  1  0
 29 30  1  0
 30 31  2  0
 32 31  1  0
 32 36  1  0
 33 32  2  0
 34 29  2  0
 34 33  1  0
 35 34  1  0
 37 38  1  0
 38 41  1  0
 38 40  1  0
 39 37  2  0
 42 43  1  0
 42 17  1  0
 44 42  1  0
 45 46  1  0
 45 51  2  0
 47 46  1  0
 48 49  1  0
 48 50  1  0
 49 52  1  0
 49 47  1  0
 50 45  1  0
 52 53  1  0
 54 65  2  0
 55 53  1  0
 55 60  1  0
 56 64  1  0
 56 66  1  0
 57 63  1  0
 57 59  1  0
 58 64  1  0
 59 58  1  0
 60 59  2  0
 61 62  1  0
 61 55  2  0
 62 57  2  0
 63 56  1  0
 64 54  1  0
 66 68  2  0
 67 66  1  0
 69 67  1  0
 70 79  2  0
 70 75  1  0
 71 67  1  0
 71 75  1  0
 72 71  1  0
 73 74  1  0
 73 72  1  0
 74 70  1  0
 75 76  2  0
 76 77  1  0
 78 77  2  0
 79 78  1  0
 80 54  1  0
 80 85  1  0
 80 81  1  0
 81 84  1  1
 81 82  1  0
 83 81  1  0
 85 88  1  0
 86 90  1  0
 86 85  1  0
 87 86  2  0
 90 89  1  0
 92 93  1  0
 92 90  1  0
 92 91  1  0
 94 96  1  0
 94 97  2  0
 95 94  1  0
 96  5  1  0
 98 96  1  0
M  ISO  4   7 100  15 100  52 101  53 101
M  END
>  <TORSDO>  (19) 
F 19

>  <SCORE>  (19) 
-13.595

>  <name>  (19) 
18

>  <ligand_id>  (19) 
18

>  <original_smiles>  (19) 
[H]c1c([H])c([H])c2c(c1[H])C([H])([H])C([H])([H])C([H])([H])C2([H])N([H])C(=O)C1([H])N(C(=O)C([H])(N([H])C(=O)C([H])(N([H])C([H])([H])[H])C([H])([H])[H])C(C([H])([H])[H])(C([H])([H])[H])C([H])([H])[H])C([H])([H])c2c([H])c(OC([H])([H])C3([H])C([H])([H])N(c4c([H])c(N([H])C(=O)N5C([H])([H])C([H])([H])C([H])([H])C([H])(n6nc(-c7c([H])c([H])c(Oc8c([H])c([H])c(F)c([H])c8F)c([H])c7[H])c(C(=O)N([H])[H])c6N([H])[H])C5([H])[H])c([H])c(N([H])C(=O)C([H])([H])[H])c4[H])C(=O)C([H])([H])C3([H])[H])c([H])c([H])c2C1([H])[H]

>  <smiles>  (19) 
[H]c1c([H])c([H])c2c(c1[H])C([H])([H])C([H])([H])C([H])([H])C2([H])N([H])C(=O)C1([H])N(C(=O)C([H])(N([H])C(=O)C([H])(N([H])C([H])([H])[H])C([H])([H])[H])C(C([H])([H])[H])(C([H])([H])[H])C([H])([H])[H])C([H])([H])c2c([H])c(OC([H])([H])C3([H])C([H])([H])N(c4c([H])c(N([H])C(=O)N5C([H])([H])C([H])([H])C([H])([H])C([H])(n6nc(-c7c([H])c([H])c(Oc8c([H])c([H])c(F)c([H])c8F)c([H])c7[H])c(C(=O)N([H])[H])c6N([H])[H])C5([H])[H])c([H])c(N([H])C(=O)C([H])([H])[H])c4[H])C(=O)C([H])([H])C3([H])[H])c([H])c([H])c2C1([H])[H]

$$$$
19:0:0
     RDKit          3D

 95104  0  0  1  0  0  0  0  0999 V2000
  -30.9470  -21.4150   20.4490 C   0  0  0  0  0  0  0  0  0  0  0  0
  -31.3160  -22.8210   20.9460 C   0  0  0  0  0  2  0  0  0  0  0  0
  -30.5150  -23.9720   20.3130 C   0  0  0  0  0  2  0  0  0  0  0  0
  -28.6910  -22.2950   19.9020 C   0  0  0  0  0  2  0  0  0  0  0  0
  -29.0010  -23.7860   20.4840 C   0  0  1  0  0  0  0  0  0  0  0  0
  -28.6130  -23.8440   21.9770 C   0  0  0  0  0  1  0  0  0  0  0  0
  -29.6600  -21.1110   20.1180 N   0  0  0  0  0  0  0  0  0  0  0  0
  -31.8690  -20.5950   20.3840 O   0  0  0  0  0  0  0  0  0  0  0  0
  -28.9600  -18.0960   17.8230 C   0  0  0  0  0  3  0  0  0  0  0  0
  -29.2060  -16.9820   18.6430 C   0  0  0  0  0  3  0  0  0  0  0  0
  -29.6560  -18.5130   20.4820 C   0  0  0  0  0  3  0  0  0  0  0  0
  -29.0890  -19.4250   18.2900 C   0  0  0  0  0  0  0  0  0  0  0  0
  -29.4170  -19.6990   19.6550 C   0  0  0  0  0  0  0  0  0  0  0  0
  -29.5900  -17.1460   19.9880 C   0  0  0  0  0  0  0  0  0  0  0  0
  -28.9520  -20.5100   17.2340 C   0  0  0  0  0  1  0  0  0  0  0  0
  -30.5310  -14.8050   20.5080 C   0  0  0  0  0  0  0  0  0  0  0  0
  -30.3860  -12.5040   19.5860 C   0  0  0  0  0  2  0  0  0  0  0  0
  -29.4990  -12.5680   18.3220 C   0  0  0  0  0  2  0  0  0  0  0  0
  -28.0150  -12.3940   18.6980 C   0  0  0  0  0  2  0  0  0  0  0  0
  -27.5890  -13.2990   19.8860 C   0  0  0  0  0  3  0  0  0  0  0  0
  -28.6050  -13.2420   21.0480 C   0  0  0  0  0  2  0  0  0  0  0  0
  -29.9290  -13.5700   20.5020 N   0  0  0  0  0  0  0  0  0  0  0  0
  -31.7040  -14.9280   20.1470 O   0  0  0  0  0  0  0  0  0  0  0  0
  -29.7520  -15.9130   20.7870 N   0  0  0  0  0  0  0  0  0  0  0  0
  -28.9200  -15.6650   21.3010 H   0  0  0  0  0  0  0  0  0  0  0  0
  -25.1720  -13.8750   20.5370 C   0  0  0  0  0  0  0  0  0  0  0  0
  -24.1010  -13.0960   20.8860 C   0  0  0  0  0  0  0  0  0  0  0  0
  -24.5750  -11.7490   20.8860 C   0  0  0  0  0  0  0  0  0  0  0  0
  -26.2300  -13.0010   20.3370 N   0  0  0  0  0  0  0  0  0  0  0  0
  -25.8760  -11.7200   20.6120 N   0  0  0  0  0  0  0  0  0  0  0  0
  -23.8540  -10.4820   21.0720 C   0  0  0  0  0  0  0  0  0  0  0  0
  -24.2720   -9.5270   22.0250 C   0  0  0  0  0  3  0  0  0  0  0  0
  -23.5540   -8.3250   22.1980 C   0  0  0  0  0  3  0  0  0  0  0  0
  -22.4020   -8.0670   21.4160 C   0  0  0  0  0  0  0  0  0  0  0  0
  -22.0010   -9.0130   20.4560 C   0  0  0  0  0  3  0  0  0  0  0  0
  -22.7210  -10.2070   20.2820 C   0  0  0  0  0  3  0  0  0  0  0  0
  -21.6560   -6.9160   21.4970 O   0  0  0  0  0  0  0  0  0  0  0  0
  -21.5940   -6.1790   22.6520 C   0  0  0  0  0  0  0  0  0  0  0  0
  -21.1370   -6.7360   23.8660 C   0  0  0  0  0  3  0  0  0  0  0  0
  -21.0240   -5.9240   25.0140 C   0  0  0  0  0  3  0  0  0  0  0  0
  -21.3540   -4.5570   24.9470 C   0  0  0  0  0  0  0  0  0  0  0  0
  -21.8030   -4.0000   23.7360 C   0  0  0  0  0  3  0  0  0  0  0  0
  -21.9200   -4.8080   22.5910 C   0  0  0  0  0  0  0  0  0  0  0  0
  -22.3330   -4.2610   21.4230 F   0  0  0  0  0  0  0  0  0  0  0  0
  -21.2370   -3.7770   26.0460 F   0  0  0  0  0  0  0  0  0  0  0  0
  -22.6930  -13.5670   21.1090 C   0  0  0  0  0  0  0  0  0  0  0  0
  -21.9400  -12.8750   21.9560 N   0  0  0  0  0  0  0  0  0  0  0  0
  -22.2640  -14.5830   20.5640 O   0  0  0  0  0  0  0  0  0  0  0  0
  -22.2960  -12.0550   22.4230 H   0  0  0  0  0  0  0  0  0  0  0  0
  -20.9940  -13.1790   22.1470 H   0  0  0  0  0  0  0  0  0  0  0  0
  -25.3340  -15.2450   20.3500 N   0  0  0  0  0  0  0  0  0  0  0  0
  -24.5700  -15.9030   20.4570 H   0  0  0  0  0  0  0  0  0  0  0  0
  -26.1920  -15.6820   20.0400 H   0  0  0  0  0  0  0  0  0  0  0  0
  -28.2120  -25.0260   19.7870 C   0  0  0  0  0  2  0  0  0  0  0  0
  -28.3310  -26.4610   20.2430 O   0  0  0  0  0  0  0  0  0  0  0  0
  -24.6200  -31.9350   23.2810 C   0  0  0  0  0  0  0  0  0  0  0  0
  -27.2220  -27.3480   20.1820 C   0  0  0  0  0  0  0  0  0  0  0  0
  -23.4130  -30.5400   21.6430 C   0  0  0  0  0  3  0  0  0  0  0  0
  -24.8580  -28.9940   20.2030 C   0  0  0  0  0  0  0  0  0  0  0  0
  -25.9550  -30.8440   21.4580 C   0  0  0  0  0  2  0  0  0  0  0  0
  -26.0330  -29.4660   20.8020 C   0  0  0  0  0  0  0  0  0  0  0  0
  -27.2130  -28.6530   20.7870 C   0  0  0  0  0  3  0  0  0  0  0  0
  -26.0250  -26.9640   19.5320 C   0  0  0  0  0  3  0  0  0  0  0  0
  -24.8610  -27.7510   19.5600 C   0  0  0  0  0  3  0  0  0  0  0  0
  -23.6230  -29.8690   20.2620 C   0  0  0  0  0  2  0  0  0  0  0  0
  -24.6820  -31.1270   22.1810 N   0  0  0  0  0  0  0  0  0  0  0  0
  -23.5380  -32.2130   23.8180 O   0  0  0  0  0  0  0  0  0  0  0  0
  -22.7520  -29.5230   22.6060 C   0  0  0  0  0  0  0  0  0  0  0  0
  -21.4290  -29.3310   22.4720 N   0  0  0  0  0  0  0  0  0  0  0  0
  -23.4300  -28.9100   23.4340 O   0  0  0  0  0  0  0  0  0  0  0  0
  -20.9430  -29.8770   21.7730 H   0  0  0  0  0  0  0  0  0  0  0  0
  -18.0620  -28.0900   22.9440 C   0  0  0  0  0  0  0  0  0  0  0  0
  -20.6130  -28.3920   23.2440 C   0  0  0  0  0  3  0  0  0  0  0  0
  -20.7420  -26.9560   22.6880 C   0  0  0  0  0  2  0  0  0  0  0  0
  -19.6600  -26.6050   21.6630 C   0  0  0  0  0  2  0  0  0  0  0  0
  -18.2670  -26.7370   22.2840 C   0  0  0  0  0  2  0  0  0  0  0  0
  -19.1640  -28.8750   23.3790 C   0  0  0  0  0  0  0  0  0  0  0  0
  -18.9160  -30.1400   23.9560 C   0  0  0  0  0  3  0  0  0  0  0  0
  -17.6020  -30.6210   24.1020 C   0  0  0  0  0  3  0  0  0  0  0  0
  -16.5160  -29.8360   23.6830 C   0  0  0  0  0  3  0  0  0  0  0  0
  -16.7450  -28.5730   23.1100 C   0  0  0  0  0  3  0  0  0  0  0  0
  -25.9050  -32.5670   23.8980 C   0  0  0  0  0  3  0  0  0  0  0  0
  -25.6000  -33.9710   24.2170 N   0  0  0  0  0  0  0  0  0  0  0  0
  -25.9300  -35.0170   23.4460 C   0  0  0  0  0  0  0  0  0  0  0  0
  -26.5900  -34.9020   22.4100 O   0  0  0  0  0  0  0  0  0  0  0  0
  -25.0090  -34.1340   25.0170 H   0  0  0  0  0  0  0  0  0  0  0  0
  -24.1990  -36.8080   23.0970 C   0  0  0  0  0  1  0  0  0  0  0  0
  -25.4510  -36.4110   23.8970 C   0  0  0  0  0  3  0  0  0  0  0  0
  -27.5990  -37.3010   24.6870 C   0  0  0  0  0  1  0  0  0  0  0  0
  -26.4830  -37.4620   23.7570 N   0  0  0  0  0  0  0  0  0  0  0  0
  -26.0810  -38.3850   23.9010 H   0  0  0  0  0  0  0  0  0  0  0  0
  -26.4140  -31.8070   25.1840 C   0  0  1  0  0  0  0  0  0  0  0  0
  -25.3140  -31.5930   26.2510 C   0  0  0  0  0  1  0  0  0  0  0  0
  -26.9850  -30.4190   24.8110 C   0  0  0  0  0  1  0  0  0  0  0  0
  -27.5690  -32.6010   25.8370 C   0  0  0  0  0  1  0  0  0  0  0  0
  1  2  1  0
  3  5  1  0
  3  2  1  0
  4  7  1  0
  4  5  1  0
  5  6  1  1
  7  1  1  0
  8  1  2  0
  9 12  2  0
  9 10  1  0
 10 14  2  0
 12 13  1  0
 13  7  1  0
 13 11  2  0
 14 11  1  0
 14 24  1  0
 15 12  1  0
 16 24  1  0
 17 22  1  0
 18 19  1  0
 18 17  1  0
 20 19  1  0
 20 29  1  0
 20 21  1  0
 22 16  1  0
 22 21  1  0
 23 16  2  0
 24 25  1  0
 26 27  2  0
 27 46  1  0
 28 27  1  0
 28 31  1  0
 29 26  1  0
 29 30  1  0
 30 28  2  0
 31 32  1  0
 32 33  2  0
 34 37  1  0
 34 33  1  0
 35 34  2  0
 36 35  1  0
 36 31  2  0
 37 38  1  0
 38 39  1  0
 39 40  2  0
 41 40  1  0
 41 45  1  0
 42 41  2  0
 43 38  2  0
 43 42  1  0
 44 43  1  0
 46 47  1  0
 47 50  1  0
 47 49  1  0
 48 46  2  0
 51 52  1  0
 51 26  1  0
 53 51  1  0
 54 55  1  0
 54  5  1  0
 56 67  2  0
 57 55  1  0
 57 62  1  0
 58 66  1  0
 58 68  1  0
 59 65  1  0
 59 61  1  0
 60 66  1  0
 61 60  1  0
 62 61  2  0
 63 64  1  0
 63 57  2  0
 64 59  2  0
 65 58  1  0
 66 56  1  0
 68 70  2  0
 69 68  1  0
 71 69  1  0
 72 81  2  0
 72 77  1  0
 73 69  1  0
 73 77  1  0
 74 73  1  0
 75 76  1  0
 75 74  1  0
 76 72  1  0
 77 78  2  0
 78 79  1  0
 80 79  2  0
 81 80  1  0
 82 56  1  0
 82 83  1  0
 82 92  1  0
 83 86  1  0
 84 88  1  0
 84 83  1  0
 85 84  2  0
 88 87  1  0
 90 88  1  0
 90 91  1  0
 90 89  1  0
 92 95  1  1
 92 93  1  0
 94 92  1  0
M  ISO  4  16 100  24 100  54 101  55 101
M  END
>  <TORSDO>  (20) 
F 18

>  <SCORE>  (20) 
-14.741

>  <name>  (20) 
19

>  <ligand_id>  (20) 
19

>  <original_smiles>  (20) 
[H]c1c([H])c([H])c2c(c1[H])C([H])([H])C([H])([H])C([H])([H])C2([H])N([H])C(=O)C1([H])N(C(=O)C([H])(N([H])C(=O)C([H])(N([H])C([H])([H])[H])C([H])([H])[H])C(C([H])([H])[H])(C([H])([H])[H])C([H])([H])[H])C([H])([H])c2c([H])c(OC([H])([H])C3(C([H])([H])[H])C([H])([H])N(c4c([H])c(N([H])C(=O)N5C([H])([H])C([H])([H])C([H])([H])C([H])(n6nc(-c7c([H])c([H])c(Oc8c([H])c([H])c(F)c([H])c8F)c([H])c7[H])c(C(=O)N([H])[H])c6N([H])[H])C5([H])[H])c([H])c([H])c4C([H])([H])[H])C(=O)C([H])([H])C3([H])[H])c([H])c([H])c2C1([H])[H]

>  <smiles>  (20) 
[H]c1c([H])c([H])c2c(c1[H])C([H])([H])C([H])([H])C([H])([H])C2([H])N([H])C(=O)C1([H])N(C(=O)C([H])(N([H])C(=O)C([H])(N([H])C([H])([H])[H])C([H])([H])[H])C(C([H])([H])[H])(C([H])([H])[H])C([H])([H])[H])C([H])([H])c2c([H])c(OC([H])([H])C3(C([H])([H])[H])C([H])([H])N(c4c([H])c(N([H])C(=O)N5C([H])([H])C([H])([H])C([H])([H])C([H])(n6nc(-c7c([H])c([H])c(Oc8c([H])c([H])c(F)c([H])c8F)c([H])c7[H])c(C(=O)N([H])[H])c6N([H])[H])C5([H])[H])c([H])c([H])c4C([H])([H])[H])C(=O)C([H])([H])C3([H])[H])c([H])c([H])c2C1([H])[H]

$$$$
20:0:0
     RDKit          3D

 95104  0  0  1  0  0  0  0  0999 V2000
  -28.8630  -23.3520   20.1400 C   0  0  0  0  0  0  0  0  0  0  0  0
  -27.3660  -23.9250   21.8960 C   0  0  0  0  0  2  0  0  0  0  0  0
  -27.4840  -22.4080   21.7310 C   0  0  0  0  0  2  0  0  0  0  0  0
  -27.9950  -24.5220   20.6370 C   0  0  0  0  0  3  0  0  0  0  0  0
  -28.5280  -22.1730   20.7320 N   0  0  0  0  0  0  0  0  0  0  0  0
  -29.7430  -23.5360   19.2930 O   0  0  0  0  0  0  0  0  0  0  0  0
  -29.1560  -18.4420   21.1460 C   0  0  0  0  0  3  0  0  0  0  0  0
  -28.5810  -19.7290   21.2570 C   0  0  0  0  0  3  0  0  0  0  0  0
  -30.1090  -20.5700   19.5870 C   0  0  0  0  0  3  0  0  0  0  0  0
  -30.2480  -18.2100   20.2830 C   0  0  0  0  0  0  0  0  0  0  0  0
  -30.6940  -19.2870   19.4670 C   0  0  0  0  0  0  0  0  0  0  0  0
  -29.0730  -20.8400   20.5160 C   0  0  0  0  0  0  0  0  0  0  0  0
  -31.8270  -19.1120   18.4630 C   0  0  0  0  0  1  0  0  0  0  0  0
  -30.9620  -14.6120   19.6990 C   0  0  0  0  0  0  0  0  0  0  0  0
  -30.4650  -12.4250   18.6670 C   0  0  0  0  0  2  0  0  0  0  0  0
  -29.4260  -12.5910   17.5430 C   0  0  0  0  0  2  0  0  0  0  0  0
  -28.0010  -12.4850   18.1170 C   0  0  0  0  0  2  0  0  0  0  0  0
  -27.7890  -13.3790   19.3700 C   0  0  0  0  0  3  0  0  0  0  0  0
  -28.9470  -13.2320   20.3810 C   0  0  0  0  0  2  0  0  0  0  0  0
  -30.2040  -13.4790   19.6630 N   0  0  0  0  0  0  0  0  0  0  0  0
  -32.0600  -14.6450   19.1360 O   0  0  0  0  0  0  0  0  0  0  0  0
  -31.0330  -16.9170   20.3550 C   0  0  0  0  0  0  0  0  0  0  0  0
  -30.3860  -15.7370   20.1920 N   0  0  0  0  0  0  0  0  0  0  0  0
  -32.2530  -17.0180   20.5350 O   0  0  0  0  0  0  0  0  0  0  0  0
  -29.3900  -15.7290   20.3280 H   0  0  0  0  0  0  0  0  0  0  0  0
  -25.5410  -14.0360   20.4300 C   0  0  0  0  0  0  0  0  0  0  0  0
  -24.4750  -13.2900   20.8540 C   0  0  0  0  0  0  0  0  0  0  0  0
  -24.8390  -11.9250   20.6400 C   0  0  0  0  0  0  0  0  0  0  0  0
  -26.4900  -13.1280   19.9890 N   0  0  0  0  0  0  0  0  0  0  0  0
  -26.0790  -11.8460   20.1730 N   0  0  0  0  0  0  0  0  0  0  0  0
  -24.0560  -10.6920   20.7990 C   0  0  0  0  0  0  0  0  0  0  0  0
  -24.4480   -9.6780   21.7000 C   0  0  0  0  0  3  0  0  0  0  0  0
  -23.6690   -8.5110   21.8490 C   0  0  0  0  0  3  0  0  0  0  0  0
  -22.4810   -8.3500   21.0960 C   0  0  0  0  0  0  0  0  0  0  0  0
  -22.1070   -9.3510   20.1830 C   0  0  0  0  0  3  0  0  0  0  0  0
  -22.8870  -10.5100   20.0320 C   0  0  0  0  0  3  0  0  0  0  0  0
  -21.6750   -7.2390   21.1570 O   0  0  0  0  0  0  0  0  0  0  0  0
  -21.4970   -6.5410   22.3250 C   0  0  0  0  0  0  0  0  0  0  0  0
  -20.9700   -7.1520   23.4840 C   0  0  0  0  0  3  0  0  0  0  0  0
  -20.7390   -6.3810   24.6410 C   0  0  0  0  0  3  0  0  0  0  0  0
  -21.0230   -5.0020   24.6390 C   0  0  0  0  0  0  0  0  0  0  0  0
  -21.5410   -4.3920   23.4830 C   0  0  0  0  0  3  0  0  0  0  0  0
  -21.7740   -5.1590   22.3290 C   0  0  0  0  0  0  0  0  0  0  0  0
  -22.2540   -4.5620   21.2120 F   0  0  0  0  0  0  0  0  0  0  0  0
  -20.7920   -4.2610   25.7480 F   0  0  0  0  0  0  0  0  0  0  0  0
  -23.1560  -13.8140   21.3380 C   0  0  0  0  0  0  0  0  0  0  0  0
  -22.5080  -13.0950   22.2480 N   0  0  0  0  0  0  0  0  0  0  0  0
  -22.7140  -14.8940   20.9470 O   0  0  0  0  0  0  0  0  0  0  0  0
  -22.8790  -12.2190   22.5840 H   0  0  0  0  0  0  0  0  0  0  0  0
  -21.6250  -13.4250   22.6120 H   0  0  0  0  0  0  0  0  0  0  0  0
  -25.7770  -15.4070   20.3600 N   0  0  0  0  0  0  0  0  0  0  0  0
  -25.0710  -16.0880   20.6180 H   0  0  0  0  0  0  0  0  0  0  0  0
  -26.6010  -15.8290   19.9510 H   0  0  0  0  0  0  0  0  0  0  0  0
  -28.7200  -25.8840   20.8950 C   0  0  0  0  0  2  0  0  0  0  0  0
  -28.6020  -26.8710   19.8540 O   0  0  0  0  0  0  0  0  0  0  0  0
  -24.5090  -31.7740   23.0440 C   0  0  0  0  0  0  0  0  0  0  0  0
  -27.4210  -27.5770   19.8700 C   0  0  0  0  0  0  0  0  0  0  0  0
  -23.4000  -30.3620   21.3410 C   0  0  0  0  0  3  0  0  0  0  0  0
  -24.9540  -28.9530   19.8880 C   0  0  0  0  0  0  0  0  0  0  0  0
  -25.9050  -30.8630   21.1910 C   0  0  0  0  0  2  0  0  0  0  0  0
  -26.0740  -29.5170   20.5140 C   0  0  0  0  0  0  0  0  0  0  0  0
  -27.3120  -28.8340   20.5090 C   0  0  0  0  0  3  0  0  0  0  0  0
  -26.2930  -27.0360   19.2220 C   0  0  0  0  0  3  0  0  0  0  0  0
  -25.0580  -27.7100   19.2390 C   0  0  0  0  0  3  0  0  0  0  0  0
  -23.6650  -29.7410   19.9430 C   0  0  0  0  0  2  0  0  0  0  0  0
  -24.6220  -31.0140   21.9180 N   0  0  0  0  0  0  0  0  0  0  0  0
  -23.4080  -31.9690   23.5790 O   0  0  0  0  0  0  0  0  0  0  0  0
  -22.7970  -29.2760   22.2600 C   0  0  0  0  0  0  0  0  0  0  0  0
  -21.4810  -29.0430   22.1260 N   0  0  0  0  0  0  0  0  0  0  0  0
  -23.5090  -28.6470   23.0480 O   0  0  0  0  0  0  0  0  0  0  0  0
  -20.9660  -29.6060   21.4640 H   0  0  0  0  0  0  0  0  0  0  0  0
  -18.1500  -27.7310   22.6220 C   0  0  0  0  0  0  0  0  0  0  0  0
  -20.7060  -28.0410   22.8580 C   0  0  0  0  0  3  0  0  0  0  0  0
  -20.8320  -26.6490   22.1990 C   0  0  0  0  0  2  0  0  0  0  0  0
  -19.7170  -26.3550   21.1890 C   0  0  0  0  0  2  0  0  0  0  0  0
  -18.3470  -26.4270   21.8680 C   0  0  0  0  0  2  0  0  0  0  0  0
  -19.2580  -28.4970   23.0730 C   0  0  0  0  0  0  0  0  0  0  0  0
  -19.0210  -29.7190   23.7390 C   0  0  0  0  0  3  0  0  0  0  0  0
  -17.7090  -30.1770   23.9580 C   0  0  0  0  0  3  0  0  0  0  0  0
  -16.6150  -29.4070   23.5240 C   0  0  0  0  0  3  0  0  0  0  0  0
  -16.8380  -28.1870   22.8610 C   0  0  0  0  0  3  0  0  0  0  0  0
  -25.7520  -32.4530   23.7000 C   0  0  0  0  0  3  0  0  0  0  0  0
  -25.3720  -33.8290   24.0460 N   0  0  0  0  0  0  0  0  0  0  0  0
  -25.6530  -34.9050   23.3000 C   0  0  0  0  0  0  0  0  0  0  0  0
  -26.3320  -34.8490   22.2710 O   0  0  0  0  0  0  0  0  0  0  0  0
  -24.7690  -33.9440   24.8480 H   0  0  0  0  0  0  0  0  0  0  0  0
  -23.8360  -36.6090   22.9590 C   0  0  0  0  0  1  0  0  0  0  0  0
  -25.0920  -36.2610   23.7710 C   0  0  0  0  0  3  0  0  0  0  0  0
  -27.1720  -37.2500   24.6250 C   0  0  0  0  0  1  0  0  0  0  0  0
  -26.0710  -37.3670   23.6740 N   0  0  0  0  0  0  0  0  0  0  0  0
  -25.6150  -38.2640   23.8230 H   0  0  0  0  0  0  0  0  0  0  0  0
  -26.2830  -31.6830   24.9710 C   0  0  1  0  0  0  0  0  0  0  0  0
  -25.1830  -31.3660   26.0100 C   0  0  0  0  0  1  0  0  0  0  0  0
  -26.9440  -30.3460   24.5620 C   0  0  0  0  0  1  0  0  0  0  0  0
  -27.3760  -32.5210   25.6730 C   0  0  0  0  0  1  0  0  0  0  0  0
  1  4  1  0
  1  5  1  0
  3  2  1  0
  4 54  1  0
  4  2  1  0
  5  3  1  0
  6  1  2  0
  7  8  1  0
  9 12  1  0
 10 22  1  0
 10  7  2  0
 11  9  2  0
 11 10  1  0
 12  5  1  0
 12  8  2  0
 13 11  1  0
 14 23  1  0
 15 20  1  0
 16 17  1  0
 16 15  1  0
 18 17  1  0
 18 29  1  0
 18 19  1  0
 20 14  1  0
 20 19  1  0
 21 14  2  0
 22 24  2  0
 23 25  1  0
 23 22  1  0
 26 27  2  0
 27 46  1  0
 28 31  1  0
 28 27  1  0
 29 30  1  0
 29 26  1  0
 30 28  2  0
 31 32  1  0
 32 33  2  0
 34 37  1  0
 34 33  1  0
 35 34  2  0
 36 35  1  0
 36 31  2  0
 37 38  1  0
 38 43  2  0
 38 39  1  0
 39 40  2  0
 41 40  1  0
 41 45  1  0
 42 41  2  0
 43 42  1  0
 44 43  1  0
 46 47  1  0
 47 49  1  0
 47 50  1  0
 48 46  2  0
 51 26  1  0
 51 52  1  0
 53 51  1  0
 55 57  1  0
 55 54  1  0
 56 67  2  0
 57 62  1  0
 58 66  1  0
 58 68  1  0
 59 65  1  0
 59 61  1  0
 60 66  1  0
 61 60  1  0
 62 61  2  0
 63 64  1  0
 63 57  2  0
 64 59  2  0
 65 58  1  0
 66 56  1  0
 68 70  2  0
 69 68  1  0
 71 69  1  0
 72 81  2  0
 72 77  1  0
 73 69  1  0
 73 77  1  0
 74 73  1  0
 75 76  1  0
 75 74  1  0
 76 72  1  0
 77 78  2  0
 78 79  1  0
 80 79  2  0
 81 80  1  0
 82 56  1  0
 82 83  1  0
 82 92  1  0
 83 86  1  0
 84 88  1  0
 84 83  1  0
 85 84  2  0
 88 87  1  0
 90 88  1  0
 90 91  1  0
 90 89  1  0
 92 95  1  1
 92 93  1  0
 94 92  1  0
M  ISO  4  14 100  23 100  54 101  55 101
M  END
>  <TORSDO>  (21) 
F 18

>  <SCORE>  (21) 
-12.720

>  <name>  (21) 
20

>  <ligand_id>  (21) 
20

>  <original_smiles>  (21) 
[H]c1c([H])c([H])c2c(c1[H])C([H])([H])C([H])([H])C([H])([H])C2([H])N([H])C(=O)C1([H])N(C(=O)C([H])(N([H])C(=O)C([H])(N([H])C([H])([H])[H])C([H])([H])[H])C(C([H])([H])[H])(C([H])([H])[H])C([H])([H])[H])C([H])([H])c2c([H])c(OC([H])([H])C3([H])C(=O)N(c4c([H])c([H])c(C(=O)N([H])C(=O)N5C([H])([H])C([H])([H])C([H])([H])C([H])(n6nc(-c7c([H])c([H])c(Oc8c([H])c([H])c(F)c([H])c8F)c([H])c7[H])c(C(=O)N([H])[H])c6N([H])[H])C5([H])[H])c(C([H])([H])[H])c4[H])C([H])([H])C3([H])[H])c([H])c([H])c2C1([H])[H]

>  <smiles>  (21) 
[H]c1c([H])c([H])c2c(c1[H])C([H])([H])C([H])([H])C([H])([H])C2([H])N([H])C(=O)C1([H])N(C(=O)C([H])(N([H])C(=O)C([H])(N([H])C([H])([H])[H])C([H])([H])[H])C(C([H])([H])[H])(C([H])([H])[H])C([H])([H])[H])C([H])([H])c2c([H])c(OC([H])([H])C3([H])C(=O)N(c4c([H])c([H])c(C(=O)N([H])C(=O)N5C([H])([H])C([H])([H])C([H])([H])C([H])(n6nc(-c7c([H])c([H])c(Oc8c([H])c([H])c(F)c([H])c8F)c([H])c7[H])c(C(=O)N([H])[H])c6N([H])[H])C5([H])[H])c(C([H])([H])[H])c4[H])C([H])([H])C3([H])[H])c([H])c([H])c2C1([H])[H]

$$$$
21:0:0
     RDKit          3D

 94103  0  0  1  0  0  0  0  0999 V2000
  -30.5490  -22.3080   19.3760 C   0  0  0  0  0  0  0  0  0  0  0  0
  -30.1990  -23.8020   19.3540 C   0  0  0  0  0  2  0  0  0  0  0  0
  -28.6950  -22.5170   20.6790 C   0  0  0  0  0  2  0  0  0  0  0  0
  -29.1880  -24.0140   20.4950 C   0  0  1  0  0  0  0  0  0  0  0  0
  -29.9020  -24.4570   21.7890 C   0  0  0  0  0  1  0  0  0  0  0  0
  -29.7790  -21.6000   20.2320 N   0  0  0  0  0  0  0  0  0  0  0  0
  -31.4360  -21.8570   18.6460 O   0  0  0  0  0  0  0  0  0  0  0  0
  -28.6510  -19.3530   20.2560 C   0  0  0  0  0  3  0  0  0  0  0  0
  -28.6530  -17.9350   20.3830 C   0  0  0  0  0  3  0  0  0  0  0  0
  -30.9970  -17.9660   20.8990 C   0  0  0  0  0  3  0  0  0  0  0  0
  -30.9980  -19.3960   20.8060 C   0  0  0  0  0  0  0  0  0  0  0  0
  -29.8230  -20.1350   20.4310 C   0  0  0  0  0  0  0  0  0  0  0  0
  -29.8270  -17.1940   20.6830 C   0  0  0  0  0  0  0  0  0  0  0  0
  -32.2960  -20.0970   21.1770 C   0  0  0  0  0  1  0  0  0  0  0  0
  -30.5650  -14.7050   20.4880 C   0  0  0  0  0  0  0  0  0  0  0  0
  -30.3760  -12.4690   19.4140 C   0  0  0  0  0  2  0  0  0  0  0  0
  -29.4310  -12.5970   18.1970 C   0  0  0  0  0  2  0  0  0  0  0  0
  -27.9570  -12.4350   18.6200 C   0  0  0  0  0  2  0  0  0  0  0  0
  -27.5930  -13.2930   19.8600 C   0  0  0  0  0  3  0  0  0  0  0  0
  -28.6490  -13.1290   20.9780 C   0  0  0  0  0  2  0  0  0  0  0  0
  -29.9600  -13.4780   20.4070 N   0  0  0  0  0  0  0  0  0  0  0  0
  -31.7290  -14.8760   20.1130 O   0  0  0  0  0  0  0  0  0  0  0  0
  -29.7330  -15.7420   20.8260 N   0  0  0  0  0  0  0  0  0  0  0  0
  -28.8110  -15.4100   21.0640 H   0  0  0  0  0  0  0  0  0  0  0  0
  -25.1980  -13.8950   20.5740 C   0  0  0  0  0  0  0  0  0  0  0  0
  -24.1280  -13.1210   20.9370 C   0  0  0  0  0  0  0  0  0  0  0  0
  -24.5880  -11.7690   20.8960 C   0  0  0  0  0  0  0  0  0  0  0  0
  -26.2410  -13.0120   20.3370 N   0  0  0  0  0  0  0  0  0  0  0  0
  -25.8780  -11.7290   20.5910 N   0  0  0  0  0  0  0  0  0  0  0  0
  -23.8570  -10.5070   21.0730 C   0  0  0  0  0  0  0  0  0  0  0  0
  -24.2780   -9.5350   22.0080 C   0  0  0  0  0  3  0  0  0  0  0  0
  -23.5490   -8.3380   22.1730 C   0  0  0  0  0  3  0  0  0  0  0  0
  -22.3850   -8.1040   21.4030 C   0  0  0  0  0  0  0  0  0  0  0  0
  -21.9830   -9.0640   20.4570 C   0  0  0  0  0  3  0  0  0  0  0  0
  -22.7140  -10.2530   20.2910 C   0  0  0  0  0  3  0  0  0  0  0  0
  -21.6290   -6.9600   21.4770 O   0  0  0  0  0  0  0  0  0  0  0  0
  -21.5550   -6.2190   22.6300 C   0  0  0  0  0  0  0  0  0  0  0  0
  -21.0460   -6.7600   23.8310 C   0  0  0  0  0  3  0  0  0  0  0  0
  -20.9240   -5.9440   24.9730 C   0  0  0  0  0  3  0  0  0  0  0  0
  -21.2990   -4.5880   24.9150 C   0  0  0  0  0  0  0  0  0  0  0  0
  -21.8010   -4.0460   23.7180 C   0  0  0  0  0  3  0  0  0  0  0  0
  -21.9250   -4.8600   22.5780 C   0  0  0  0  0  0  0  0  0  0  0  0
  -22.3900   -4.3290   21.4220 F   0  0  0  0  0  0  0  0  0  0  0  0
  -21.1740   -3.8020   26.0100 F   0  0  0  0  0  0  0  0  0  0  0  0
  -22.7310  -13.6000   21.2070 C   0  0  0  0  0  0  0  0  0  0  0  0
  -22.0000  -12.9020   22.0700 N   0  0  0  0  0  0  0  0  0  0  0  0
  -22.2960  -14.6270   20.6900 O   0  0  0  0  0  0  0  0  0  0  0  0
  -22.3650  -12.0700   22.5110 H   0  0  0  0  0  0  0  0  0  0  0  0
  -21.0630  -13.2040   22.2940 H   0  0  0  0  0  0  0  0  0  0  0  0
  -25.3650  -15.2650   20.4030 N   0  0  0  0  0  0  0  0  0  0  0  0
  -24.5890  -15.9130   20.4940 H   0  0  0  0  0  0  0  0  0  0  0  0
  -26.1900  -15.6920   20.0040 H   0  0  0  0  0  0  0  0  0  0  0  0
  -28.0560  -25.0830   20.1470 C   0  0  0  0  0  2  0  0  0  0  0  0
  -28.3130  -26.5400   20.2470 O   0  0  0  0  0  0  0  0  0  0  0  0
  -24.5870  -31.9350   23.2670 C   0  0  0  0  0  0  0  0  0  0  0  0
  -27.1960  -27.3910   20.1950 C   0  0  0  0  0  0  0  0  0  0  0  0
  -23.3820  -30.5470   21.6190 C   0  0  0  0  0  3  0  0  0  0  0  0
  -24.8320  -29.0050   20.1890 C   0  0  0  0  0  0  0  0  0  0  0  0
  -25.9230  -30.8630   21.4410 C   0  0  0  0  0  2  0  0  0  0  0  0
  -26.0010  -29.4890   20.7870 C   0  0  0  0  0  0  0  0  0  0  0  0
  -27.1880  -28.6950   20.7790 C   0  0  0  0  0  3  0  0  0  0  0  0
  -25.9990  -26.9610   19.5730 C   0  0  0  0  0  3  0  0  0  0  0  0
  -24.8330  -27.7450   19.5740 C   0  0  0  0  0  3  0  0  0  0  0  0
  -23.5970  -29.8800   20.2370 C   0  0  0  0  0  2  0  0  0  0  0  0
  -24.6490  -31.1310   22.1660 N   0  0  0  0  0  0  0  0  0  0  0  0
  -23.5020  -32.2130   23.8000 O   0  0  0  0  0  0  0  0  0  0  0  0
  -22.7160  -29.5260   22.5730 C   0  0  0  0  0  0  0  0  0  0  0  0
  -21.3910  -29.3480   22.4380 N   0  0  0  0  0  0  0  0  0  0  0  0
  -23.3900  -28.8980   23.3930 O   0  0  0  0  0  0  0  0  0  0  0  0
  -20.9060  -29.9060   21.7480 H   0  0  0  0  0  0  0  0  0  0  0  0
  -18.0060  -28.1740   22.9360 C   0  0  0  0  0  0  0  0  0  0  0  0
  -20.5670  -28.4110   23.2020 C   0  0  0  0  0  3  0  0  0  0  0  0
  -20.6560  -26.9830   22.6140 C   0  0  0  0  0  2  0  0  0  0  0  0
  -19.5490  -26.6780   21.6000 C   0  0  0  0  0  2  0  0  0  0  0  0
  -18.1710  -26.8290   22.2490 C   0  0  0  0  0  2  0  0  0  0  0  0
  -19.1320  -28.9230   23.3700 C   0  0  0  0  0  0  0  0  0  0  0  0
  -18.9250  -30.1830   23.9740 C   0  0  0  0  0  3  0  0  0  0  0  0
  -17.6240  -30.6920   24.1480 C   0  0  0  0  0  3  0  0  0  0  0  0
  -16.5130  -29.9400   23.7300 C   0  0  0  0  0  3  0  0  0  0  0  0
  -16.7050  -28.6830   23.1310 C   0  0  0  0  0  3  0  0  0  0  0  0
  -25.8700  -32.5620   23.8930 C   0  0  0  0  0  3  0  0  0  0  0  0
  -25.5670  -33.9640   24.2150 N   0  0  0  0  0  0  0  0  0  0  0  0
  -25.8750  -35.0070   23.4340 C   0  0  0  0  0  0  0  0  0  0  0  0
  -26.5130  -34.8920   22.3840 O   0  0  0  0  0  0  0  0  0  0  0  0
  -24.9970  -34.1270   25.0320 H   0  0  0  0  0  0  0  0  0  0  0  0
  -24.1250  -36.7880   23.1210 C   0  0  0  0  0  1  0  0  0  0  0  0
  -25.3990  -36.4000   23.8880 C   0  0  0  0  0  3  0  0  0  0  0  0
  -27.5540  -37.3160   24.6290 C   0  0  0  0  0  1  0  0  0  0  0  0
  -26.4210  -37.4570   23.7180 N   0  0  0  0  0  0  0  0  0  0  0  0
  -26.0140  -38.3770   23.8570 H   0  0  0  0  0  0  0  0  0  0  0  0
  -26.3720  -31.7930   25.1770 C   0  0  1  0  0  0  0  0  0  0  0  0
  -25.2680  -31.5630   26.2360 C   0  0  0  0  0  1  0  0  0  0  0  0
  -26.9540  -30.4130   24.7960 C   0  0  0  0  0  1  0  0  0  0  0  0
  -27.5180  -32.5870   25.8470 C   0  0  0  0  0  1  0  0  0  0  0  0
  1  6  1  0
  2  1  1  0
  2  4  1  0
  4  3  1  0
  4  5  1  1
  6 12  1  0
  6  3  1  0
  7  1  2  0
  8  9  2  0
  8 12  1  0
  9 13  1  0
 11 10  1  0
 11 14  1  0
 12 11  2  0
 13 23  1  0
 13 10  2  0
 15 23  1  0
 16 21  1  0
 17 18  1  0
 17 16  1  0
 19 18  1  0
 19 28  1  0
 19 20  1  0
 21 15  1  0
 21 20  1  0
 22 15  2  0
 23 24  1  0
 25 26  2  0
 26 45  1  0
 27 26  1  0
 27 30  1  0
 28 25  1  0
 28 29  1  0
 29 27  2  0
 30 31  1  0
 31 32  2  0
 33 36  1  0
 33 32  1  0
 34 33  2  0
 35 34  1  0
 35 30  2  0
 36 37  1  0
 37 38  1  0
 38 39  2  0
 40 39  1  0
 40 44  1  0
 41 40  2  0
 42 37  2  0
 42 41  1  0
 43 42  1  0
 45 46  1  0
 46 49  1  0
 46 48  1  0
 47 45  2  0
 50 51  1  0
 50 25  1  0
 52 50  1  0
 53 54  1  0
 53  4  1  0
 55 66  2  0
 56 54  1  0
 56 61  1  0
 57 65  1  0
 57 67  1  0
 58 64  1  0
 58 60  1  0
 59 65  1  0
 60 59  1  0
 61 60  2  0
 62 63  1  0
 62 56  2  0
 63 58  2  0
 64 57  1  0
 65 55  1  0
 67 69  2  0
 68 67  1  0
 70 68  1  0
 71 80  2  0
 71 76  1  0
 72 68  1  0
 72 76  1  0
 73 72  1  0
 74 75  1  0
 74 73  1  0
 75 71  1  0
 76 77  2  0
 77 78  1  0
 79 78  2  0
 80 79  1  0
 81 55  1  0
 81 82  1  0
 81 91  1  0
 82 85  1  0
 83 87  1  0
 83 82  1  0
 84 83  2  0
 87 86  1  0
 89 90  1  0
 89 87  1  0
 89 88  1  0
 91 94  1  1
 91 92  1  0
 93 91  1  0
M  ISO  4  15 100  23 100  53 101  54 101
M  END
>  <TORSDO>  (22) 
F 18

>  <SCORE>  (22) 
-15.141

>  <name>  (22) 
21

>  <ligand_id>  (22) 
21

>  <original_smiles>  (22) 
[H]c1c([H])c([H])c2c(c1[H])C([H])([H])C([H])([H])C([H])([H])C2([H])N([H])C(=O)C1([H])N(C(=O)C([H])(N([H])C(=O)C([H])(N([H])C([H])([H])[H])C([H])([H])[H])C(C([H])([H])[H])(C([H])([H])[H])C([H])([H])[H])C([H])([H])c2c([H])c(OC([H])([H])C3(C([H])([H])[H])C([H])([H])C(=O)N(c4c([H])c([H])c(N([H])C(=O)N5C([H])([H])C([H])([H])C([H])([H])C([H])(n6nc(-c7c([H])c([H])c(Oc8c([H])c([H])c(F)c([H])c8F)c([H])c7[H])c(C(=O)N([H])[H])c6N([H])[H])C5([H])[H])c([H])c4C([H])([H])[H])C3([H])[H])c([H])c([H])c2C1([H])[H]

>  <smiles>  (22) 
[H]c1c([H])c([H])c2c(c1[H])C([H])([H])C([H])([H])C([H])([H])C2([H])N([H])C(=O)C1([H])N(C(=O)C([H])(N([H])C(=O)C([H])(N([H])C([H])([H])[H])C([H])([H])[H])C(C([H])([H])[H])(C([H])([H])[H])C([H])([H])[H])C([H])([H])c2c([H])c(OC([H])([H])C3(C([H])([H])[H])C([H])([H])C(=O)N(c4c([H])c([H])c(N([H])C(=O)N5C([H])([H])C([H])([H])C([H])([H])C([H])(n6nc(-c7c([H])c([H])c(Oc8c([H])c([H])c(F)c([H])c8F)c([H])c7[H])c(C(=O)N([H])[H])c6N([H])[H])C5([H])[H])c([H])c4C([H])([H])[H])C3([H])[H])c([H])c([H])c2C1([H])[H]

$$$$
22:0:0
     RDKit          3D

 95104  0  0  1  0  0  0  0  0999 V2000
  -28.1300  -22.1900   21.6120 C   0  0  0  0  0  0  0  0  0  0  0  0
  -27.8650  -23.6020   22.1680 C   0  0  0  0  0  2  0  0  0  0  0  0
  -28.3620  -24.7600   21.2870 C   0  0  0  0  0  2  0  0  0  0  0  0
  -28.6240  -23.1900   19.3860 C   0  0  0  0  0  2  0  0  0  0  0  0
  -27.9600  -24.5260   19.8300 C   0  0  0  0  0  3  0  0  0  0  0  0
  -28.4310  -22.0310   20.2970 N   0  0  0  0  0  0  0  0  0  0  0  0
  -28.0020  -21.2390   22.3860 O   0  0  0  0  0  0  0  0  0  0  0  0
  -28.4720  -20.6840   19.6600 C   0  0  0  0  0  2  0  0  0  0  0  0
  -30.9200  -20.2000   20.3360 C   0  0  0  0  0  3  0  0  0  0  0  0
  -31.7630  -17.8980   20.4910 C   0  0  0  0  0  3  0  0  0  0  0  0
  -29.4450  -18.3170   19.8890 C   0  0  0  0  0  3  0  0  0  0  0  0
  -31.9690  -19.2950   20.6140 C   0  0  0  0  0  0  0  0  0  0  0  0
  -29.6410  -19.7240   19.9790 C   0  0  0  0  0  0  0  0  0  0  0  0
  -30.4940  -17.3900   20.1270 C   0  0  0  0  0  0  0  0  0  0  0  0
  -33.3070  -19.8370   21.0840 C   0  0  0  0  0  1  0  0  0  0  0  0
  -30.9890  -14.9150   19.8020 C   0  0  0  0  0  0  0  0  0  0  0  0
  -30.7390  -12.5900   18.9730 C   0  0  0  0  0  2  0  0  0  0  0  0
  -29.7490  -12.5760   17.7880 C   0  0  0  0  0  2  0  0  0  0  0  0
  -28.2920  -12.4670   18.2880 C   0  0  0  0  0  2  0  0  0  0  0  0
  -27.9700  -13.4750   19.4230 C   0  0  0  0  0  3  0  0  0  0  0  0
  -29.0650  -13.4400   20.5110 C   0  0  0  0  0  2  0  0  0  0  0  0
  -30.3570  -13.7060   19.8530 N   0  0  0  0  0  0  0  0  0  0  0  0
  -32.1200  -15.0500   19.3250 O   0  0  0  0  0  0  0  0  0  0  0  0
  -30.2070  -15.9800   20.1190 N   0  0  0  0  0  0  0  0  0  0  0  0
  -29.2470  -15.7380   20.3000 H   0  0  0  0  0  0  0  0  0  0  0  0
  -25.6650  -14.1770   20.3260 C   0  0  0  0  0  0  0  0  0  0  0  0
  -24.5810  -13.4460   20.7370 C   0  0  0  0  0  0  0  0  0  0  0  0
  -24.9610  -12.0760   20.6140 C   0  0  0  0  0  0  0  0  0  0  0  0
  -26.6380  -13.2520   19.9820 N   0  0  0  0  0  0  0  0  0  0  0  0
  -26.2230  -11.9800   20.2140 N   0  0  0  0  0  0  0  0  0  0  0  0
  -24.1770  -10.8470   20.7970 C   0  0  0  0  0  0  0  0  0  0  0  0
  -24.5630   -9.8580   21.7280 C   0  0  0  0  0  3  0  0  0  0  0  0
  -23.7830   -8.6930   21.9000 C   0  0  0  0  0  3  0  0  0  0  0  0
  -22.6020   -8.5120   21.1400 C   0  0  0  0  0  0  0  0  0  0  0  0
  -22.2360   -9.4910   20.1980 C   0  0  0  0  0  3  0  0  0  0  0  0
  -23.0170  -10.6450   20.0250 C   0  0  0  0  0  3  0  0  0  0  0  0
  -21.7960   -7.4020   21.2210 O   0  0  0  0  0  0  0  0  0  0  0  0
  -21.6320   -6.7180   22.4000 C   0  0  0  0  0  0  0  0  0  0  0  0
  -21.1040   -7.3360   23.5540 C   0  0  0  0  0  3  0  0  0  0  0  0
  -20.8890   -6.5790   24.7220 C   0  0  0  0  0  3  0  0  0  0  0  0
  -21.1900   -5.2030   24.7350 C   0  0  0  0  0  0  0  0  0  0  0  0
  -21.7100   -4.5850   23.5850 C   0  0  0  0  0  3  0  0  0  0  0  0
  -21.9270   -5.3400   22.4190 C   0  0  0  0  0  0  0  0  0  0  0  0
  -22.4100   -4.7350   21.3060 F   0  0  0  0  0  0  0  0  0  0  0  0
  -20.9760   -4.4730   25.8540 F   0  0  0  0  0  0  0  0  0  0  0  0
  -23.2360  -13.9870   21.1290 C   0  0  0  0  0  0  0  0  0  0  0  0
  -22.5360  -13.2990   22.0240 N   0  0  0  0  0  0  0  0  0  0  0  0
  -22.8190  -15.0520   20.6770 O   0  0  0  0  0  0  0  0  0  0  0  0
  -22.8870  -12.4360   22.4120 H   0  0  0  0  0  0  0  0  0  0  0  0
  -21.6330  -13.6380   22.3230 H   0  0  0  0  0  0  0  0  0  0  0  0
  -25.8930  -15.5430   20.1910 N   0  0  0  0  0  0  0  0  0  0  0  0
  -25.1650  -16.2260   20.3620 H   0  0  0  0  0  0  0  0  0  0  0  0
  -26.7280  -15.9480   19.7900 H   0  0  0  0  0  0  0  0  0  0  0  0
  -28.3230  -25.6980   18.8630 C   0  0  0  0  0  2  0  0  0  0  0  0
  -28.2340  -27.0370   19.3760 O   0  0  0  0  0  0  0  0  0  0  0  0
  -24.5620  -31.8160   23.1340 C   0  0  0  0  0  0  0  0  0  0  0  0
  -27.0290  -27.7070   19.4890 C   0  0  0  0  0  0  0  0  0  0  0  0
  -23.2540  -30.5360   21.4680 C   0  0  0  0  0  3  0  0  0  0  0  0
  -24.6150  -29.1660   19.7980 C   0  0  0  0  0  0  0  0  0  0  0  0
  -25.7480  -30.9710   21.1090 C   0  0  0  0  0  2  0  0  0  0  0  0
  -25.8040  -29.6600   20.3470 C   0  0  0  0  0  0  0  0  0  0  0  0
  -27.0070  -28.9330   20.1950 C   0  0  0  0  0  3  0  0  0  0  0  0
  -25.8200  -27.2300   18.9370 C   0  0  0  0  0  3  0  0  0  0  0  0
  -24.6180  -27.9470   19.0930 C   0  0  0  0  0  3  0  0  0  0  0  0
  -23.3630  -29.9870   20.0170 C   0  0  0  0  0  2  0  0  0  0  0  0
  -24.5450  -31.1150   21.9630 N   0  0  0  0  0  0  0  0  0  0  0  0
  -23.5230  -32.0160   23.7760 O   0  0  0  0  0  0  0  0  0  0  0  0
  -22.7000  -29.4160   22.3780 C   0  0  0  0  0  0  0  0  0  0  0  0
  -21.3890  -29.1530   22.2720 N   0  0  0  0  0  0  0  0  0  0  0  0
  -23.4450  -28.7920   23.1380 O   0  0  0  0  0  0  0  0  0  0  0  0
  -20.8350  -29.7330   21.6580 H   0  0  0  0  0  0  0  0  0  0  0  0
  -18.1390  -27.6320   22.6870 C   0  0  0  0  0  0  0  0  0  0  0  0
  -20.6610  -28.1140   22.9980 C   0  0  0  0  0  3  0  0  0  0  0  0
  -20.9020  -26.7210   22.3710 C   0  0  0  0  0  2  0  0  0  0  0  0
  -19.8400  -26.3320   21.3390 C   0  0  0  0  0  2  0  0  0  0  0  0
  -18.4490  -26.3200   21.9840 C   0  0  0  0  0  2  0  0  0  0  0  0
  -19.1790  -28.4800   23.1530 C   0  0  0  0  0  0  0  0  0  0  0  0
  -18.8410  -29.7010   23.7760 C   0  0  0  0  0  3  0  0  0  0  0  0
  -17.4930  -30.0760   23.9410 C   0  0  0  0  0  3  0  0  0  0  0  0
  -16.4680  -29.2240   23.4980 C   0  0  0  0  0  3  0  0  0  0  0  0
  -16.7900  -28.0060   22.8730 C   0  0  0  0  0  3  0  0  0  0  0  0
  -25.8850  -32.4160   23.7040 C   0  0  0  0  0  3  0  0  0  0  0  0
  -26.4820  -31.5840   24.9050 C   0  0  1  0  0  0  0  0  0  0  0  0
  -25.4570  -31.2860   26.0220 C   0  0  0  0  0  1  0  0  0  0  0  0
  -27.0420  -30.2300   24.4080 C   0  0  0  0  0  1  0  0  0  0  0  0
  -27.6690  -32.3490   25.5360 C   0  0  0  0  0  1  0  0  0  0  0  0
  -25.6020  -33.7960   24.1150 N   0  0  0  0  0  0  0  0  0  0  0  0
  -25.8980  -34.8800   23.3870 C   0  0  0  0  0  0  0  0  0  0  0  0
  -26.5130  -34.8230   22.3180 O   0  0  0  0  0  0  0  0  0  0  0  0
  -25.0500  -33.9190   24.9510 H   0  0  0  0  0  0  0  0  0  0  0  0
  -24.1550  -36.6850   23.2120 C   0  0  0  0  0  1  0  0  0  0  0  0
  -25.4400  -36.2460   23.9320 C   0  0  0  0  0  3  0  0  0  0  0  0
  -27.6120  -37.1010   24.6890 C   0  0  0  0  0  1  0  0  0  0  0  0
  -26.4640  -37.3050   23.8090 N   0  0  0  0  0  0  0  0  0  0  0  0
  -26.0660  -38.2160   24.0160 H   0  0  0  0  0  0  0  0  0  0  0  0
  1  2  1  0
  1  7  2  0
  3  2  1  0
  4  5  1  0
  4  6  1  0
  5 54  1  0
  5  3  1  0
  6  1  1  0
  8 13  1  0
  8  6  1  0
  9 12  1  0
 10 12  2  0
 11 13  1  0
 11 14  2  0
 12 15  1  0
 13  9  2  0
 14 10  1  0
 16 22  1  0
 16 24  1  0
 17 22  1  0
 18 19  1  0
 18 17  1  0
 20 19  1  0
 20 29  1  0
 20 21  1  0
 22 21  1  0
 23 16  2  0
 24 14  1  0
 24 25  1  0
 26 27  2  0
 27 46  1  0
 28 27  1  0
 28 31  1  0
 29 30  1  0
 29 26  1  0
 30 28  2  0
 31 32  1  0
 32 33  2  0
 34 37  1  0
 34 33  1  0
 35 34  2  0
 36 35  1  0
 36 31  2  0
 37 38  1  0
 38 43  2  0
 38 39  1  0
 39 40  2  0
 40 41  1  0
 41 45  1  0
 42 41  2  0
 43 42  1  0
 44 43  1  0
 46 47  1  0
 47 50  1  0
 47 49  1  0
 48 46  2  0
 51 26  1  0
 51 52  1  0
 53 51  1  0
 54 55  1  0
 55 57  1  0
 56 67  2  0
 57 62  1  0
 58 66  1  0
 58 68  1  0
 59 65  1  0
 59 61  1  0
 60 66  1  0
 61 60  1  0
 62 61  2  0
 63 64  1  0
 63 57  2  0
 64 59  2  0
 65 58  1  0
 66 56  1  0
 68 70  2  0
 69 68  1  0
 71 69  1  0
 72 81  2  0
 72 77  1  0
 73 69  1  0
 73 77  1  0
 74 73  1  0
 75 76  1  0
 75 74  1  0
 76 72  1  0
 77 78  2  0
 78 79  1  0
 80 79  2  0
 81 80  1  0
 82 56  1  0
 82 87  1  0
 82 83  1  0
 83 86  1  1
 83 84  1  0
 85 83  1  0
 87 90  1  0
 88 92  1  0
 88 87  1  0
 89 88  2  0
 92 91  1  0
 94 92  1  0
 94 95  1  0
 94 93  1  0
M  ISO  4  16 100  24 100  54 101  55 101
M  END
>  <TORSDO>  (23) 
F 19

>  <SCORE>  (23) 
-12.699

>  <name>  (23) 
22

>  <ligand_id>  (23) 
22

>  <original_smiles>  (23) 
[H]c1c([H])c([H])c2c(c1[H])C([H])([H])C([H])([H])C([H])([H])C2([H])N([H])C(=O)C1([H])N(C(=O)C([H])(N([H])C(=O)C([H])(N([H])C([H])([H])[H])C([H])([H])[H])C(C([H])([H])[H])(C([H])([H])[H])C([H])([H])[H])C([H])([H])c2c([H])c(OC([H])([H])C3([H])C([H])([H])N(C([H])([H])c4c([H])c(N([H])C(=O)N5C([H])([H])C([H])([H])C([H])([H])C([H])(n6nc(-c7c([H])c([H])c(Oc8c([H])c([H])c(F)c([H])c8F)c([H])c7[H])c(C(=O)N([H])[H])c6N([H])[H])C5([H])[H])c([H])c(C([H])([H])[H])c4[H])C(=O)C([H])([H])C3([H])[H])c([H])c([H])c2C1([H])[H]

>  <smiles>  (23) 
[H]c1c([H])c([H])c2c(c1[H])C([H])([H])C([H])([H])C([H])([H])C2([H])N([H])C(=O)C1([H])N(C(=O)C([H])(N([H])C(=O)C([H])(N([H])C([H])([H])[H])C([H])([H])[H])C(C([H])([H])[H])(C([H])([H])[H])C([H])([H])[H])C([H])([H])c2c([H])c(OC([H])([H])C3([H])C([H])([H])N(C([H])([H])c4c([H])c(N([H])C(=O)N5C([H])([H])C([H])([H])C([H])([H])C([H])(n6nc(-c7c([H])c([H])c(Oc8c([H])c([H])c(F)c([H])c8F)c([H])c7[H])c(C(=O)N([H])[H])c6N([H])[H])C5([H])[H])c([H])c(C([H])([H])[H])c4[H])C(=O)C([H])([H])C3([H])[H])c([H])c([H])c2C1([H])[H]

$$$$
23:0:0
     RDKit          3D

 93101  0  0  1  0  0  0  0  0999 V2000
  -29.1310  -22.6640   20.0060 C   0  0  0  0  0  0  0  0  0  0  0  0
  -28.7900  -21.3140   19.9200 N   0  0  0  0  0  0  0  0  0  0  0  0
  -30.3170  -22.9850   20.1220 O   0  0  0  0  0  0  0  0  0  0  0  0
  -27.8620  -21.1410   19.5570 H   0  0  0  0  0  0  0  0  0  0  0  0
  -30.3260  -20.2190   21.5680 C   0  0  0  0  0  3  0  0  0  0  0  0
  -30.6990  -17.7890   21.7030 C   0  0  0  0  0  3  0  0  0  0  0  0
  -29.2810  -18.7260   19.9600 C   0  0  0  0  0  3  0  0  0  0  0  0
  -30.8900  -19.0910   22.2130 C   0  0  0  0  0  0  0  0  0  0  0  0
  -29.4940  -20.0940   20.4280 C   0  0  0  0  0  0  0  0  0  0  0  0
  -29.8800  -17.5480   20.5800 C   0  0  0  0  0  0  0  0  0  0  0  0
  -30.3890  -15.0340   20.0430 C   0  0  0  0  0  0  0  0  0  0  0  0
  -30.2390  -12.7830   18.9750 C   0  0  0  0  0  2  0  0  0  0  0  0
  -29.2240  -12.7950   17.8110 C   0  0  0  0  0  2  0  0  0  0  0  0
  -27.7950  -12.5320   18.3320 C   0  0  0  0  0  2  0  0  0  0  0  0
  -27.4410  -13.3860   19.5780 C   0  0  0  0  0  3  0  0  0  0  0  0
  -28.5670  -13.3610   20.6310 C   0  0  0  0  0  2  0  0  0  0  0  0
  -29.8010  -13.7930   19.9610 N   0  0  0  0  0  0  0  0  0  0  0  0
  -31.5630  -15.1770   19.6890 O   0  0  0  0  0  0  0  0  0  0  0  0
  -29.5680  -16.1360   20.2370 N   0  0  0  0  0  0  0  0  0  0  0  0
  -28.5860  -15.9120   20.2470 H   0  0  0  0  0  0  0  0  0  0  0  0
  -25.0800  -13.8390   20.4850 C   0  0  0  0  0  0  0  0  0  0  0  0
  -24.0800  -13.0030   20.8970 C   0  0  0  0  0  0  0  0  0  0  0  0
  -24.6060  -11.6780   20.7950 C   0  0  0  0  0  0  0  0  0  0  0  0
  -26.1490  -13.0220   20.1520 N   0  0  0  0  0  0  0  0  0  0  0  0
  -25.8750  -11.7170   20.4070 N   0  0  0  0  0  0  0  0  0  0  0  0
  -23.9600  -10.3750   20.9970 C   0  0  0  0  0  0  0  0  0  0  0  0
  -24.4090   -9.4730   21.9850 C   0  0  0  0  0  3  0  0  0  0  0  0
  -23.7650   -8.2310   22.1700 C   0  0  0  0  0  3  0  0  0  0  0  0
  -22.6560   -7.8840   21.3640 C   0  0  0  0  0  0  0  0  0  0  0  0
  -22.2260   -8.7750   20.3660 C   0  0  0  0  0  3  0  0  0  0  0  0
  -22.8710  -10.0090   20.1810 C   0  0  0  0  0  3  0  0  0  0  0  0
  -21.9840   -6.6900   21.4550 O   0  0  0  0  0  0  0  0  0  0  0  0
  -21.8330   -6.0370   22.6520 C   0  0  0  0  0  0  0  0  0  0  0  0
  -21.1630   -6.6310   23.7420 C   0  0  0  0  0  3  0  0  0  0  0  0
  -20.9640   -5.8990   24.9310 C   0  0  0  0  0  3  0  0  0  0  0  0
  -21.4240   -4.5730   25.0240 C   0  0  0  0  0  0  0  0  0  0  0  0
  -22.0810   -3.9750   23.9360 C   0  0  0  0  0  3  0  0  0  0  0  0
  -22.2810   -4.7040   22.7500 C   0  0  0  0  0  0  0  0  0  0  0  0
  -22.8980   -4.1180   21.6970 F   0  0  0  0  0  0  0  0  0  0  0  0
  -21.2270   -3.8670   26.1630 F   0  0  0  0  0  0  0  0  0  0  0  0
  -22.6790  -13.3990   21.2650 C   0  0  0  0  0  0  0  0  0  0  0  0
  -22.0440  -12.6490   22.1600 N   0  0  0  0  0  0  0  0  0  0  0  0
  -22.1550  -14.4080   20.7950 O   0  0  0  0  0  0  0  0  0  0  0  0
  -22.4900  -11.8430   22.5720 H   0  0  0  0  0  0  0  0  0  0  0  0
  -21.1030  -12.8890   22.4340 H   0  0  0  0  0  0  0  0  0  0  0  0
  -25.1600  -15.2180   20.3340 N   0  0  0  0  0  0  0  0  0  0  0  0
  -24.3590  -15.8250   20.4840 H   0  0  0  0  0  0  0  0  0  0  0  0
  -25.9510  -15.7170   19.9500 H   0  0  0  0  0  0  0  0  0  0  0  0
  -30.6510  -19.1490   24.7280 C   0  0  0  0  0  1  0  0  0  0  0  0
  -31.6200  -19.2610   23.5370 C   0  0  0  0  0  2  0  0  0  0  0  0
  -28.0550  -23.8640   19.9610 C   0  0  0  0  0  2  0  0  0  0  0  0
  -28.3560  -25.2940   19.2350 C   0  0  0  0  0  2  0  0  0  0  0  0
  -28.2160  -26.6480   19.8830 O   0  0  0  0  0  0  0  0  0  0  0  0
  -24.5100  -31.9450   23.1370 C   0  0  0  0  0  0  0  0  0  0  0  0
  -27.0670  -27.4690   19.8610 C   0  0  0  0  0  0  0  0  0  0  0  0
  -23.2640  -30.5830   21.4960 C   0  0  0  0  0  3  0  0  0  0  0  0
  -24.6770  -29.0770   19.9740 C   0  0  0  0  0  0  0  0  0  0  0  0
  -25.7950  -30.9140   21.2490 C   0  0  0  0  0  2  0  0  0  0  0  0
  -25.8590  -29.5550   20.5540 C   0  0  0  0  0  0  0  0  0  0  0  0
  -27.0450  -28.7580   20.4950 C   0  0  0  0  0  3  0  0  0  0  0  0
  -25.8560  -27.0460   19.2650 C   0  0  0  0  0  3  0  0  0  0  0  0
  -24.6800  -27.8290   19.3260 C   0  0  0  0  0  3  0  0  0  0  0  0
  -23.4340  -29.9370   20.0940 C   0  0  0  0  0  2  0  0  0  0  0  0
  -24.5410  -31.1680   22.0150 N   0  0  0  0  0  0  0  0  0  0  0  0
  -23.4450  -32.2010   23.7160 O   0  0  0  0  0  0  0  0  0  0  0  0
  -22.6380  -29.5410   22.4500 C   0  0  0  0  0  0  0  0  0  0  0  0
  -21.3120  -29.3470   22.3470 N   0  0  0  0  0  0  0  0  0  0  0  0
  -23.3440  -28.9170   23.2480 O   0  0  0  0  0  0  0  0  0  0  0  0
  -20.8010  -29.8940   21.6680 H   0  0  0  0  0  0  0  0  0  0  0  0
  -17.9730  -28.0700   22.8860 C   0  0  0  0  0  0  0  0  0  0  0  0
  -20.5300  -28.3800   23.1160 C   0  0  0  0  0  3  0  0  0  0  0  0
  -20.6550  -26.9650   22.5060 C   0  0  0  0  0  2  0  0  0  0  0  0
  -19.5410  -26.6410   21.5050 C   0  0  0  0  0  2  0  0  0  0  0  0
  -18.1660  -26.7410   22.1740 C   0  0  0  0  0  2  0  0  0  0  0  0
  -19.0830  -28.8460   23.3120 C   0  0  0  0  0  0  0  0  0  0  0  0
  -18.8500  -30.0900   23.9380 C   0  0  0  0  0  3  0  0  0  0  0  0
  -17.5380  -30.5570   24.1470 C   0  0  0  0  0  3  0  0  0  0  0  0
  -16.4420  -29.7770   23.7370 C   0  0  0  0  0  3  0  0  0  0  0  0
  -16.6590  -28.5370   23.1090 C   0  0  0  0  0  3  0  0  0  0  0  0
  -25.8090  -32.5660   23.7370 C   0  0  0  0  0  3  0  0  0  0  0  0
  -26.3590  -31.7740   24.9870 C   0  0  1  0  0  0  0  0  0  0  0  0
  -25.2910  -31.5250   26.0780 C   0  0  0  0  0  1  0  0  0  0  0  0
  -26.9390  -30.4040   24.5670 C   0  0  0  0  0  1  0  0  0  0  0  0
  -27.5230  -32.5620   25.6350 C   0  0  0  0  0  1  0  0  0  0  0  0
  -25.5060  -33.9570   24.1090 N   0  0  0  0  0  0  0  0  0  0  0  0
  -25.8280  -35.0300   23.3740 C   0  0  0  0  0  0  0  0  0  0  0  0
  -26.4810  -34.9550   22.3300 O   0  0  0  0  0  0  0  0  0  0  0  0
  -24.9390  -34.0900   24.9320 H   0  0  0  0  0  0  0  0  0  0  0  0
  -24.1000  -36.8300   23.0880 C   0  0  0  0  0  1  0  0  0  0  0  0
  -25.3480  -36.4040   23.8780 C   0  0  0  0  0  3  0  0  0  0  0  0
  -27.4880  -37.2600   24.7200 C   0  0  0  0  0  1  0  0  0  0  0  0
  -26.3810  -37.4620   23.7870 N   0  0  0  0  0  0  0  0  0  0  0  0
  -25.9760  -38.3770   23.9700 H   0  0  0  0  0  0  0  0  0  0  0  0
  1  3  2  0
  2  1  1  0
  2  9  1  0
  4  2  1  0
  5  8  1  0
  6  8  2  0
  7  9  1  0
  7 10  2  0
  8 50  1  0
  9  5  2  0
 10  6  1  0
 11 19  1  0
 12 17  1  0
 13 14  1  0
 13 12  1  0
 15 14  1  0
 15 24  1  0
 15 16  1  0
 17 11  1  0
 17 16  1  0
 18 11  2  0
 19 20  1  0
 19 10  1  0
 21 22  2  0
 22 41  1  0
 23 22  1  0
 23 26  1  0
 24 25  1  0
 24 21  1  0
 25 23  2  0
 26 27  1  0
 27 28  2  0
 29 32  1  0
 29 28  1  0
 30 29  2  0
 31 30  1  0
 31 26  2  0
 32 33  1  0
 33 38  2  0
 33 34  1  0
 34 35  2  0
 35 36  1  0
 36 40  1  0
 37 36  2  0
 38 37  1  0
 39 38  1  0
 41 42  1  0
 42 45  1  0
 42 44  1  0
 43 41  2  0
 46 47  1  0
 46 21  1  0
 48 46  1  0
 50 49  1  0
 51  1  1  0
 52 53  1  0
 52 51  1  0
 54 65  2  0
 55 53  1  0
 55 60  1  0
 56 64  1  0
 56 66  1  0
 57 63  1  0
 57 59  1  0
 58 64  1  0
 59 58  1  0
 60 59  2  0
 61 62  1  0
 61 55  2  0
 62 57  2  0
 63 56  1  0
 64 54  1  0
 66 68  2  0
 67 66  1  0
 69 67  1  0
 70 79  2  0
 70 75  1  0
 71 67  1  0
 71 75  1  0
 72 71  1  0
 73 74  1  0
 73 72  1  0
 74 70  1  0
 75 76  2  0
 76 77  1  0
 78 77  2  0
 79 78  1  0
 80 54  1  0
 80 85  1  0
 80 81  1  0
 81 84  1  1
 81 82  1  0
 83 81  1  0
 85 88  1  0
 86 90  1  0
 86 85  1  0
 87 86  2  0
 90 89  1  0
 92 90  1  0
 92 93  1  0
 92 91  1  0
M  ISO  4  11 100  19 100  52 101  53 101
M  END
>  <TORSDO>  (24) 
F 20

>  <SCORE>  (24) 
-12.513

>  <name>  (24) 
23

>  <ligand_id>  (24) 
23

>  <original_smiles>  (24) 
[H]c1c([H])c([H])c2c(c1[H])C([H])([H])C([H])([H])C([H])([H])C2([H])N([H])C(=O)C1([H])N(C(=O)C([H])(N([H])C(=O)C([H])(N([H])C([H])([H])[H])C([H])([H])[H])C(C([H])([H])[H])(C([H])([H])[H])C([H])([H])[H])C([H])([H])c2c([H])c(OC([H])([H])C([H])([H])C(=O)N([H])c3c([H])c(N([H])C(=O)N4C([H])([H])C([H])([H])C([H])([H])C([H])(n5nc(-c6c([H])c([H])c(Oc7c([H])c([H])c(F)c([H])c7F)c([H])c6[H])c(C(=O)N([H])[H])c5N([H])[H])C4([H])[H])c([H])c(C([H])([H])C([H])([H])[H])c3[H])c([H])c([H])c2C1([H])[H]

>  <smiles>  (24) 
[H]c1c([H])c([H])c2c(c1[H])C([H])([H])C([H])([H])C([H])([H])C2([H])N([H])C(=O)C1([H])N(C(=O)C([H])(N([H])C(=O)C([H])(N([H])C([H])([H])[H])C([H])([H])[H])C(C([H])([H])[H])(C([H])([H])[H])C([H])([H])[H])C([H])([H])c2c([H])c(OC([H])([H])C([H])([H])C(=O)N([H])c3c([H])c(N([H])C(=O)N4C([H])([H])C([H])([H])C([H])([H])C([H])(n5nc(-c6c([H])c([H])c(Oc7c([H])c([H])c(F)c([H])c7F)c([H])c6[H])c(C(=O)N([H])[H])c5N([H])[H])C4([H])[H])c([H])c(C([H])([H])C([H])([H])[H])c3[H])c([H])c([H])c2C1([H])[H]

$$$$
24:0:0
     RDKit          3D

 94103  0  0  1  0  0  0  0  0999 V2000
  -29.5490  -21.2680   18.6490 C   0  0  0  0  0  0  0  0  0  0  0  0
  -29.8310  -22.6360   17.9730 C   0  0  0  0  0  2  0  0  0  0  0  0
  -29.5620  -23.9320   18.8030 C   0  0  0  0  0  2  0  0  0  0  0  0
  -29.1020  -22.4180   20.7660 C   0  0  0  0  0  2  0  0  0  0  0  0
  -28.5700  -23.7140   19.9450 C   0  0  0  0  0  3  0  0  0  0  0  0
  -29.5170  -21.1500   20.0030 N   0  0  0  0  0  0  0  0  0  0  0  0
  -29.3700  -20.3040   17.8970 O   0  0  0  0  0  0  0  0  0  0  0  0
  -31.7080  -18.7390   22.0940 C   0  0  0  0  0  3  0  0  0  0  0  0
  -31.2830  -17.4610   21.7050 C   0  0  0  0  0  3  0  0  0  0  0  0
  -29.6600  -18.5190   20.2350 C   0  0  0  0  0  3  0  0  0  0  0  0
  -31.1370  -19.9230   21.5700 C   0  0  0  0  0  0  0  0  0  0  0  0
  -30.0610  -19.8780   20.6210 C   0  0  0  0  0  0  0  0  0  0  0  0
  -30.2560  -17.2920   20.7600 C   0  0  0  0  0  0  0  0  0  0  0  0
  -31.8010  -21.2060   22.0490 C   0  0  0  0  0  1  0  0  0  0  0  0
  -30.5700  -14.7390   20.3420 C   0  0  0  0  0  0  0  0  0  0  0  0
  -30.3100  -12.4810   19.3020 C   0  0  0  0  0  2  0  0  0  0  0  0
  -29.3470  -12.5530   18.0990 C   0  0  0  0  0  2  0  0  0  0  0  0
  -27.8840  -12.3750   18.5550 C   0  0  0  0  0  2  0  0  0  0  0  0
  -27.5310  -13.2600   19.7820 C   0  0  0  0  0  3  0  0  0  0  0  0
  -28.6190  -13.1910   20.8750 C   0  0  0  0  0  2  0  0  0  0  0  0
  -29.9000  -13.5420   20.2470 N   0  0  0  0  0  0  0  0  0  0  0  0
  -31.7700  -14.7960   20.0680 O   0  0  0  0  0  0  0  0  0  0  0  0
  -29.8280  -15.9070   20.4460 N   0  0  0  0  0  0  0  0  0  0  0  0
  -28.8350  -15.7760   20.3430 H   0  0  0  0  0  0  0  0  0  0  0  0
  -25.1520  -13.8280   20.5650 C   0  0  0  0  0  0  0  0  0  0  0  0
  -24.0960  -13.0410   20.9540 C   0  0  0  0  0  0  0  0  0  0  0  0
  -24.5730  -11.6970   20.9060 C   0  0  0  0  0  0  0  0  0  0  0  0
  -26.1990  -12.9580   20.3040 N   0  0  0  0  0  0  0  0  0  0  0  0
  -25.8590  -11.6730   20.5770 N   0  0  0  0  0  0  0  0  0  0  0  0
  -23.8580  -10.4250   21.0930 C   0  0  0  0  0  0  0  0  0  0  0  0
  -24.3190   -9.4490   22.0030 C   0  0  0  0  0  3  0  0  0  0  0  0
  -23.6070   -8.2440   22.1840 C   0  0  0  0  0  3  0  0  0  0  0  0
  -22.4170   -8.0060   21.4580 C   0  0  0  0  0  0  0  0  0  0  0  0
  -21.9710   -8.9710   20.5370 C   0  0  0  0  0  3  0  0  0  0  0  0
  -22.6850  -10.1680   20.3540 C   0  0  0  0  0  3  0  0  0  0  0  0
  -21.6750   -6.8520   21.5500 O   0  0  0  0  0  0  0  0  0  0  0  0
  -21.6710   -6.0850   22.6880 C   0  0  0  0  0  0  0  0  0  0  0  0
  -21.2960   -6.6130   23.9430 C   0  0  0  0  0  3  0  0  0  0  0  0
  -21.2400   -5.7730   25.0730 C   0  0  0  0  0  3  0  0  0  0  0  0
  -21.5470   -4.4060   24.9480 C   0  0  0  0  0  0  0  0  0  0  0  0
  -21.9190   -3.8760   23.7010 C   0  0  0  0  0  3  0  0  0  0  0  0
  -21.9770   -4.7130   22.5730 C   0  0  0  0  0  0  0  0  0  0  0  0
  -22.3110   -4.1950   21.3650 F   0  0  0  0  0  0  0  0  0  0  0  0
  -21.4890   -3.5960   26.0300 F   0  0  0  0  0  0  0  0  0  0  0  0
  -22.7000  -13.5050   21.2450 C   0  0  0  0  0  0  0  0  0  0  0  0
  -21.9860  -12.8020   22.1200 N   0  0  0  0  0  0  0  0  0  0  0  0
  -22.2480  -14.5250   20.7310 O   0  0  0  0  0  0  0  0  0  0  0  0
  -22.3660  -11.9860   22.5730 H   0  0  0  0  0  0  0  0  0  0  0  0
  -21.0440  -13.0900   22.3420 H   0  0  0  0  0  0  0  0  0  0  0  0
  -25.2930  -15.1990   20.3850 N   0  0  0  0  0  0  0  0  0  0  0  0
  -24.5010  -15.8290   20.4650 H   0  0  0  0  0  0  0  0  0  0  0  0
  -26.1000  -15.6410   19.9610 H   0  0  0  0  0  0  0  0  0  0  0  0
  -28.2630  -25.0860   20.7610 C   0  0  0  0  0  2  0  0  0  0  0  0
  -28.3240  -26.4510   20.1570 O   0  0  0  0  0  0  0  0  0  0  0  0
  -24.5870  -31.8850   23.2150 C   0  0  0  0  0  0  0  0  0  0  0  0
  -27.1980  -27.2960   20.1860 C   0  0  0  0  0  0  0  0  0  0  0  0
  -23.3780  -30.4790   21.5800 C   0  0  0  0  0  3  0  0  0  0  0  0
  -24.8310  -28.9050   20.1700 C   0  0  0  0  0  0  0  0  0  0  0  0
  -25.9160  -30.7900   21.3930 C   0  0  0  0  0  2  0  0  0  0  0  0
  -26.0000  -29.4020   20.7620 C   0  0  0  0  0  0  0  0  0  0  0  0
  -27.1870  -28.6080   20.7610 C   0  0  0  0  0  3  0  0  0  0  0  0
  -26.0130  -26.8530   19.5670 C   0  0  0  0  0  3  0  0  0  0  0  0
  -24.8410  -27.6390   19.5610 C   0  0  0  0  0  3  0  0  0  0  0  0
  -23.5940  -29.7810   20.2100 C   0  0  0  0  0  2  0  0  0  0  0  0
  -24.6470  -31.0670   22.1220 N   0  0  0  0  0  0  0  0  0  0  0  0
  -23.5070  -32.1620   23.7560 O   0  0  0  0  0  0  0  0  0  0  0  0
  -22.7070  -29.4780   22.5490 C   0  0  0  0  0  0  0  0  0  0  0  0
  -21.3800  -29.3130   22.4320 N   0  0  0  0  0  0  0  0  0  0  0  0
  -23.3860  -28.8490   23.3660 O   0  0  0  0  0  0  0  0  0  0  0  0
  -20.8900  -29.8720   21.7470 H   0  0  0  0  0  0  0  0  0  0  0  0
  -17.9980  -28.1310   22.9500 C   0  0  0  0  0  0  0  0  0  0  0  0
  -20.5580  -28.3810   23.2060 C   0  0  0  0  0  3  0  0  0  0  0  0
  -20.6540  -26.9490   22.6330 C   0  0  0  0  0  2  0  0  0  0  0  0
  -19.5470  -26.6290   21.6230 C   0  0  0  0  0  2  0  0  0  0  0  0
  -18.1680  -26.7810   22.2710 C   0  0  0  0  0  2  0  0  0  0  0  0
  -19.1220  -28.8890   23.3720 C   0  0  0  0  0  0  0  0  0  0  0  0
  -18.9130  -30.1520   23.9670 C   0  0  0  0  0  3  0  0  0  0  0  0
  -17.6130  -30.6630   24.1360 C   0  0  0  0  0  3  0  0  0  0  0  0
  -16.5020  -29.9030   23.7260 C   0  0  0  0  0  3  0  0  0  0  0  0
  -16.6950  -28.6380   23.1420 C   0  0  0  0  0  3  0  0  0  0  0  0
  -25.8710  -32.5210   23.8280 C   0  0  0  0  0  3  0  0  0  0  0  0
  -25.5640  -33.9180   24.1660 N   0  0  0  0  0  0  0  0  0  0  0  0
  -25.9020  -34.9760   23.4160 C   0  0  0  0  0  0  0  0  0  0  0  0
  -26.5700  -34.8740   22.3840 O   0  0  0  0  0  0  0  0  0  0  0  0
  -24.9680  -34.0640   24.9670 H   0  0  0  0  0  0  0  0  0  0  0  0
  -24.1780  -36.7790   23.0670 C   0  0  0  0  0  1  0  0  0  0  0  0
  -25.4190  -36.3660   23.8770 C   0  0  0  0  0  3  0  0  0  0  0  0
  -27.5570  -37.2370   24.7140 C   0  0  0  0  0  1  0  0  0  0  0  0
  -26.4560  -37.4180   23.7710 N   0  0  0  0  0  0  0  0  0  0  0  0
  -26.0570  -38.3400   23.9270 H   0  0  0  0  0  0  0  0  0  0  0  0
  -26.3920  -31.7470   25.1030 C   0  0  1  0  0  0  0  0  0  0  0  0
  -25.3050  -31.5120   26.1770 C   0  0  0  0  0  1  0  0  0  0  0  0
  -26.9670  -30.3670   24.7100 C   0  0  0  0  0  1  0  0  0  0  0  0
  -27.5490  -32.5370   25.7600 C   0  0  0  0  0  1  0  0  0  0  0  0
  1  6  1  0
  2  1  1  0
  2  3  1  0
  3  5  1  0
  5 53  1  0
  5  4  1  0
  6 12  1  0
  6  4  1  0
  7  1  2  0
  9  8  1  0
 10 12  2  0
 10 13  1  0
 11 14  1  0
 11  8  2  0
 12 11  1  0
 13  9  2  0
 15 23  1  0
 16 21  1  0
 17 18  1  0
 17 16  1  0
 19 18  1  0
 19 28  1  0
 19 20  1  0
 21 15  1  0
 21 20  1  0
 22 15  2  0
 23 13  1  0
 24 23  1  0
 25 26  2  0
 26 45  1  0
 27 26  1  0
 27 30  1  0
 28 25  1  0
 28 29  1  0
 29 27  2  0
 30 31  1  0
 31 32  2  0
 33 36  1  0
 33 32  1  0
 34 33  2  0
 35 34  1  0
 35 30  2  0
 36 37  1  0
 37 38  1  0
 38 39  2  0
 40 39  1  0
 40 44  1  0
 41 40  2  0
 42 37  2  0
 42 41  1  0
 43 42  1  0
 45 46  1  0
 46 49  1  0
 46 48  1  0
 47 45  2  0
 50 51  1  0
 50 25  1  0
 52 50  1  0
 54 56  1  0
 54 53  1  0
 55 66  2  0
 56 61  1  0
 57 65  1  0
 57 67  1  0
 58 64  1  0
 58 60  1  0
 59 65  1  0
 60 59  1  0
 61 60  2  0
 62 56  2  0
 63 62  1  0
 63 58  2  0
 64 57  1  0
 65 55  1  0
 67 69  2  0
 68 67  1  0
 70 68  1  0
 71 80  2  0
 71 76  1  0
 72 68  1  0
 72 76  1  0
 73 72  1  0
 74 75  1  0
 74 73  1  0
 75 71  1  0
 76 77  2  0
 77 78  1  0
 79 78  2  0
 80 79  1  0
 81 55  1  0
 81 82  1  0
 81 91  1  0
 82 85  1  0
 83 87  1  0
 83 82  1  0
 84 83  2  0
 87 86  1  0
 89 87  1  0
 89 90  1  0
 89 88  1  0
 91 94  1  1
 91 92  1  0
 93 91  1  0
M  ISO  4  15 100  23 100  53 101  54 101
M  END
>  <TORSDO>  (25) 
F 18

>  <SCORE>  (25) 
-14.865

>  <name>  (25) 
24

>  <ligand_id>  (25) 
24

>  <original_smiles>  (25) 
[H]c1c([H])c([H])c2c(c1[H])C([H])([H])C([H])([H])C([H])([H])C2([H])N([H])C(=O)C1([H])N(C(=O)C([H])(N([H])C(=O)C([H])(N([H])C([H])([H])[H])C([H])([H])[H])C(C([H])([H])[H])(C([H])([H])[H])C([H])([H])[H])C([H])([H])c2c([H])c(OC([H])([H])C3([H])C([H])([H])N(c4c([H])c(N([H])C(=O)N5C([H])([H])C([H])([H])C([H])([H])C([H])(n6nc(-c7c([H])c([H])c(Oc8c([H])c([H])c(F)c([H])c8F)c([H])c7[H])c(C(=O)N([H])[H])c6N([H])[H])C5([H])[H])c([H])c([H])c4C([H])([H])[H])C(=O)C([H])([H])C3([H])[H])c([H])c([H])c2C1([H])[H]

>  <smiles>  (25) 
[H]c1c([H])c([H])c2c(c1[H])C([H])([H])C([H])([H])C([H])([H])C2([H])N([H])C(=O)C1([H])N(C(=O)C([H])(N([H])C(=O)C([H])(N([H])C([H])([H])[H])C([H])([H])[H])C(C([H])([H])[H])(C([H])([H])[H])C([H])([H])[H])C([H])([H])c2c([H])c(OC([H])([H])C3([H])C([H])([H])N(c4c([H])c(N([H])C(=O)N5C([H])([H])C([H])([H])C([H])([H])C([H])(n6nc(-c7c([H])c([H])c(Oc8c([H])c([H])c(F)c([H])c8F)c([H])c7[H])c(C(=O)N([H])[H])c6N([H])[H])C5([H])[H])c([H])c([H])c4C([H])([H])[H])C(=O)C([H])([H])C3([H])[H])c([H])c([H])c2C1([H])[H]

$$$$
25:0:0
     RDKit          3D

 95103  0  0  1  0  0  0  0  0999 V2000
  -28.8930  -21.2320   20.6930 C   0  0  0  0  0  0  0  0  0  0  0  0
  -28.3360  -23.8170   20.5160 C   0  0  0  0  0  0  0  0  0  0  0  0
  -28.9620  -22.5070   20.1090 N   0  0  0  0  0  0  0  0  0  0  0  0
  -28.0660  -21.0660   21.7300 N   0  0  0  0  0  4  0  0  0  0  0  0
  -27.6900  -23.8870   21.5690 O   0  0  0  0  0  0  0  0  0  0  0  0
  -29.5060  -22.4770   19.2620 H   0  0  0  0  0  0  0  0  0  0  0  0
  -27.9280  -20.1420   22.1140 H   0  0  0  0  0  0  0  0  0  0  0  0
  -27.5540  -21.8560   22.0990 H   0  0  0  0  0  0  0  0  0  0  0  0
  -31.8640  -19.2050   19.3630 C   0  0  0  0  0  3  0  0  0  0  0  0
  -30.9930  -20.2540   19.7100 C   0  0  0  0  0  3  0  0  0  0  0  0
  -31.5310  -17.8560   19.5920 C   0  0  0  0  0  3  0  0  0  0  0  0
  -29.7320  -19.9970   20.2910 C   0  0  0  0  0  0  0  0  0  0  0  0
  -30.3080  -17.4750   20.2000 C   0  0  0  0  0  0  0  0  0  0  0  0
  -29.4140  -18.5840   20.5320 C   0  0  0  0  0  0  0  0  0  0  0  0
  -28.2350  -18.2740   21.1270 F   0  0  0  0  0  0  0  0  0  0  0  0
  -30.7250  -14.8680   20.1770 C   0  0  0  0  0  0  0  0  0  0  0  0
  -30.4800  -12.6050   19.1450 C   0  0  0  0  0  2  0  0  0  0  0  0
  -29.5120  -12.6920   17.9440 C   0  0  0  0  0  2  0  0  0  0  0  0
  -28.0560  -12.5080   18.4090 C   0  0  0  0  0  2  0  0  0  0  0  0
  -27.7130  -13.3770   19.6480 C   0  0  0  0  0  3  0  0  0  0  0  0
  -28.8010  -13.2870   20.7420 C   0  0  0  0  0  2  0  0  0  0  0  0
  -30.0780  -13.6510   20.1170 N   0  0  0  0  0  0  0  0  0  0  0  0
  -31.9080  -14.9180   19.8300 O   0  0  0  0  0  0  0  0  0  0  0  0
  -29.9940  -16.0280   20.4400 N   0  0  0  0  0  0  0  0  0  0  0  0
  -29.0610  -15.8600   20.7850 H   0  0  0  0  0  0  0  0  0  0  0  0
  -25.3400  -13.9390   20.4400 C   0  0  0  0  0  0  0  0  0  0  0  0
  -24.2900  -13.1530   20.8290 C   0  0  0  0  0  0  0  0  0  0  0  0
  -24.7640  -11.8060   20.7760 C   0  0  0  0  0  0  0  0  0  0  0  0
  -26.3850  -13.0710   20.1710 N   0  0  0  0  0  0  0  0  0  0  0  0
  -26.0480  -11.7830   20.4380 N   0  0  0  0  0  0  0  0  0  0  0  0
  -24.0530  -10.5360   20.9710 C   0  0  0  0  0  0  0  0  0  0  0  0
  -24.4910   -9.5800   21.9140 C   0  0  0  0  0  3  0  0  0  0  0  0
  -23.7770   -8.3760   22.0980 C   0  0  0  0  0  3  0  0  0  0  0  0
  -22.6110   -8.1180   21.3390 C   0  0  0  0  0  0  0  0  0  0  0  0
  -22.1920   -9.0630   20.3850 C   0  0  0  0  0  3  0  0  0  0  0  0
  -22.9070  -10.2580   20.2000 C   0  0  0  0  0  3  0  0  0  0  0  0
  -21.8690   -6.9660   21.4310 O   0  0  0  0  0  0  0  0  0  0  0  0
  -21.7970   -6.2480   22.5970 C   0  0  0  0  0  0  0  0  0  0  0  0
  -21.3120   -6.8190   23.7940 C   0  0  0  0  0  3  0  0  0  0  0  0
  -21.1890   -6.0260   24.9530 C   0  0  0  0  0  3  0  0  0  0  0  0
  -21.5400   -4.6640   24.9170 C   0  0  0  0  0  0  0  0  0  0  0  0
  -22.0190   -4.0930   23.7240 C   0  0  0  0  0  3  0  0  0  0  0  0
  -22.1440   -4.8820   22.5670 C   0  0  0  0  0  0  0  0  0  0  0  0
  -22.5850   -4.3220   21.4160 F   0  0  0  0  0  0  0  0  0  0  0  0
  -21.4150   -3.9000   26.0270 F   0  0  0  0  0  0  0  0  0  0  0  0
  -22.8960  -13.6160   21.1360 C   0  0  0  0  0  0  0  0  0  0  0  0
  -22.1920  -12.9040   22.0080 N   0  0  0  0  0  0  0  0  0  0  0  0
  -22.4400  -14.6440   20.6360 O   0  0  0  0  0  0  0  0  0  0  0  0
  -22.5750  -12.0710   22.4320 H   0  0  0  0  0  0  0  0  0  0  0  0
  -21.2570  -13.1950   22.2560 H   0  0  0  0  0  0  0  0  0  0  0  0
  -25.4890  -15.3130   20.2700 N   0  0  0  0  0  0  0  0  0  0  0  0
  -24.7200  -15.9590   20.4080 H   0  0  0  0  0  0  0  0  0  0  0  0
  -26.3200  -15.7630   19.9100 H   0  0  0  0  0  0  0  0  0  0  0  0
  -28.4790  -25.1080   19.5720 C   0  0  0  0  0  2  0  0  0  0  0  0
  -28.3680  -26.4880   20.1750 O   0  0  0  0  0  0  0  0  0  0  0  0
  -24.6100  -31.8950   23.1720 C   0  0  0  0  0  0  0  0  0  0  0  0
  -27.2390  -27.3340   20.0850 C   0  0  0  0  0  0  0  0  0  0  0  0
  -23.4130  -30.5040   21.5200 C   0  0  0  0  0  3  0  0  0  0  0  0
  -24.8700  -28.9680   20.0760 C   0  0  0  0  0  0  0  0  0  0  0  0
  -25.9520  -30.8260   21.3410 C   0  0  0  0  0  2  0  0  0  0  0  0
  -26.0370  -29.4490   20.6810 C   0  0  0  0  0  0  0  0  0  0  0  0
  -27.2190  -28.6450   20.6730 C   0  0  0  0  0  3  0  0  0  0  0  0
  -26.0440  -26.9130   19.4580 C   0  0  0  0  0  3  0  0  0  0  0  0
  -24.8790  -27.7090   19.4540 C   0  0  0  0  0  3  0  0  0  0  0  0
  -23.6300  -29.8400   20.1340 C   0  0  0  0  0  2  0  0  0  0  0  0
  -24.6770  -31.0950   22.0660 N   0  0  0  0  0  0  0  0  0  0  0  0
  -23.5250  -32.1630   23.7090 O   0  0  0  0  0  0  0  0  0  0  0  0
  -22.7540  -29.4780   22.4740 C   0  0  0  0  0  0  0  0  0  0  0  0
  -21.4270  -29.3050   22.3570 N   0  0  0  0  0  0  0  0  0  0  0  0
  -23.4380  -28.8410   23.2800 O   0  0  0  0  0  0  0  0  0  0  0  0
  -20.9340  -29.8700   21.6790 H   0  0  0  0  0  0  0  0  0  0  0  0
  -18.0500  -28.1130   22.8790 C   0  0  0  0  0  0  0  0  0  0  0  0
  -20.6120  -28.3570   23.1210 C   0  0  0  0  0  3  0  0  0  0  0  0
  -20.7010  -26.9350   22.5210 C   0  0  0  0  0  2  0  0  0  0  0  0
  -19.5850  -26.6350   21.5150 C   0  0  0  0  0  2  0  0  0  0  0  0
  -18.2120  -26.7750   22.1780 C   0  0  0  0  0  2  0  0  0  0  0  0
  -19.1780  -28.8640   23.3070 C   0  0  0  0  0  0  0  0  0  0  0  0
  -18.9710  -30.1160   23.9240 C   0  0  0  0  0  3  0  0  0  0  0  0
  -17.6710  -30.6200   24.1160 C   0  0  0  0  0  3  0  0  0  0  0  0
  -16.5580  -29.8670   23.7040 C   0  0  0  0  0  3  0  0  0  0  0  0
  -16.7480  -28.6150   23.0900 C   0  0  0  0  0  3  0  0  0  0  0  0
  -25.8870  -32.5320   23.7980 C   0  0  0  0  0  3  0  0  0  0  0  0
  -25.5670  -33.9250   24.1480 N   0  0  0  0  0  0  0  0  0  0  0  0
  -25.8910  -34.9900   23.4050 C   0  0  0  0  0  0  0  0  0  0  0  0
  -26.5600  -34.9070   22.3710 O   0  0  0  0  0  0  0  0  0  0  0  0
  -24.9720  -34.0630   24.9510 H   0  0  0  0  0  0  0  0  0  0  0  0
  -24.1570  -36.7850   23.0720 C   0  0  0  0  0  1  0  0  0  0  0  0
  -25.3950  -36.3690   23.8830 C   0  0  0  0  0  3  0  0  0  0  0  0
  -27.5180  -37.2530   24.7430 C   0  0  0  0  0  1  0  0  0  0  0  0
  -26.4230  -37.4300   23.7930 N   0  0  0  0  0  0  0  0  0  0  0  0
  -26.0120  -38.3450   23.9510 H   0  0  0  0  0  0  0  0  0  0  0  0
  -26.4120  -31.7520   25.0680 C   0  0  1  0  0  0  0  0  0  0  0  0
  -25.3220  -31.4950   26.1340 C   0  0  0  0  0  1  0  0  0  0  0  0
  -27.0070  -30.3830   24.6620 C   0  0  0  0  0  1  0  0  0  0  0  0
  -27.5560  -32.5500   25.7370 C   0  0  0  0  0  1  0  0  0  0  0  0
  1  4  2  0
  2  5  2  0
  3  2  1  0
  3  1  1  0
  4  8  1  0
  4  7  1  0
  6  3  1  0
  9 11  2  0
  9 10  1  0
 10 12  2  0
 11 13  1  0
 12 14  1  0
 12  1  1  0
 13 24  1  0
 13 14  2  0
 14 15  1  0
 16 24  1  0
 17 22  1  0
 18 19  1  0
 18 17  1  0
 20 19  1  0
 20 29  1  0
 20 21  1  0
 22 16  1  0
 22 21  1  0
 23 16  2  0
 24 25  1  0
 26 27  2  0
 27 46  1  0
 28 27  1  0
 28 31  1  0
 29 30  1  0
 29 26  1  0
 30 28  2  0
 31 32  1  0
 32 33  2  0
 34 37  1  0
 34 33  1  0
 35 34  2  0
 36 35  1  0
 36 31  2  0
 37 38  1  0
 38 39  1  0
 39 40  2  0
 41 40  1  0
 41 45  1  0
 42 41  2  0
 43 38  2  0
 43 42  1  0
 44 43  1  0
 46 47  1  0
 47 50  1  0
 47 49  1  0
 48 46  2  0
 51 52  1  0
 51 26  1  0
 53 51  1  0
 54 55  1  0
 54  2  1  0
 56 67  2  0
 57 55  1  0
 57 62  1  0
 58 66  1  0
 58 68  1  0
 59 65  1  0
 59 61  1  0
 60 66  1  0
 61 60  1  0
 62 61  2  0
 63 57  2  0
 64 63  1  0
 64 59  2  0
 65 58  1  0
 66 56  1  0
 68 70  2  0
 69 68  1  0
 71 69  1  0
 72 81  2  0
 72 77  1  0
 73 69  1  0
 73 77  1  0
 74 73  1  0
 75 76  1  0
 75 74  1  0
 76 72  1  0
 77 78  2  0
 78 79  1  0
 80 79  2  0
 81 80  1  0
 82 56  1  0
 82 83  1  0
 82 92  1  0
 83 86  1  0
 84 88  1  0
 84 83  1  0
 85 84  2  0
 88 87  1  0
 90 88  1  0
 90 91  1  0
 90 89  1  0
 92 95  1  1
 92 93  1  0
 94 92  1  0
M  ISO  4  16 100  24 100  54 101  55 101
M  END
>  <TORSDO>  (26) 
F 18

>  <SCORE>  (26) 
-14.610

>  <name>  (26) 
25

>  <ligand_id>  (26) 
25

>  <original_smiles>  (26) 
[H]c1c([H])c(C(N([H])C(=O)C([H])([H])Oc2c([H])c([H])c3c(c2[H])C([H])([H])N(C(=O)C([H])(N([H])C(=O)C([H])(N([H])C([H])([H])[H])C([H])([H])[H])C(C([H])([H])[H])(C([H])([H])[H])C([H])([H])[H])C([H])(C(=O)N([H])C2([H])c4c([H])c([H])c([H])c([H])c4C([H])([H])C([H])([H])C2([H])[H])C3([H])[H])=[N+]([H])[H])c(F)c(N([H])C(=O)N2C([H])([H])C([H])([H])C([H])([H])C([H])(n3nc(-c4c([H])c([H])c(Oc5c([H])c([H])c(F)c([H])c5F)c([H])c4[H])c(C(=O)N([H])[H])c3N([H])[H])C2([H])[H])c1[H]

>  <smiles>  (26) 
[H]c1c([H])c(C(N([H])C(=O)C([H])([H])Oc2c([H])c([H])c3c(c2[H])C([H])([H])N(C(=O)C([H])(N([H])C(=O)C([H])(N([H])C([H])([H])[H])C([H])([H])[H])C(C([H])([H])[H])(C([H])([H])[H])C([H])([H])[H])C([H])(C(=O)N([H])C2([H])c4c([H])c([H])c([H])c([H])c4C([H])([H])C([H])([H])C2([H])[H])C3([H])[H])=[N+]([H])[H])c(F)c(N([H])C(=O)N2C([H])([H])C([H])([H])C([H])([H])C([H])(n3nc(-c4c([H])c([H])c(Oc5c([H])c([H])c(F)c([H])c5F)c([H])c4[H])c(C(=O)N([H])[H])c3N([H])[H])C2([H])[H])c1[H]

$$$$
26:0:0
     RDKit          3D

 96104  0  0  1  0  0  0  0  0999 V2000
  -29.0440  -23.2710   21.0870 C   0  0  0  0  0  0  0  0  0  0  0  0
  -30.0460  -22.4430   20.7660 N   0  0  0  0  0  0  0  0  0  0  0  0
  -28.0770  -22.9360   21.7800 O   0  0  0  0  0  0  0  0  0  0  0  0
  -30.8340  -22.9220   20.3500 H   0  0  0  0  0  0  0  0  0  0  0  0
  -31.2940  -20.3820   20.5440 C   0  0  0  0  0  3  0  0  0  0  0  0
  -31.3570  -19.0070   20.2510 C   0  0  0  0  0  3  0  0  0  0  0  0
  -28.8650  -20.2460   20.6020 C   0  0  0  0  0  3  0  0  0  0  0  0
  -28.9170  -18.8660   20.3060 C   0  0  0  0  0  0  0  0  0  0  0  0
  -30.0470  -21.0230   20.6810 C   0  0  0  0  0  0  0  0  0  0  0  0
  -30.1760  -18.2470   20.0810 C   0  0  0  0  0  0  0  0  0  0  0  0
  -27.6010  -18.1160   20.1840 C   0  0  0  0  0  1  0  0  0  0  0  0
  -29.2710  -16.4480   18.3820 O   0  0  0  0  0  0  0  0  0  0  0  0
  -31.7180  -16.5650   18.7880 O   0  0  0  0  0  0  0  0  0  0  0  0
  -30.3610  -16.5900   19.3630 S   0  0  1  0  0  0  0  0  0  0  0  0
  -30.1180  -15.6440   20.6540 N   0  0  0  0  0  2  0  0  0  0  0  0
  -30.9060  -14.5660   20.8560 C   0  0  0  0  0  0  0  0  0  0  0  0
  -30.6910  -12.3340   19.9290 C   0  0  0  0  0  2  0  0  0  0  0  0
  -29.8730  -12.5520   18.6340 C   0  0  0  0  0  2  0  0  0  0  0  0
  -28.3630  -12.4450   18.9270 C   0  0  0  0  0  2  0  0  0  0  0  0
  -27.9160  -13.3020   20.1410 C   0  0  0  0  0  3  0  0  0  0  0  0
  -28.8850  -13.1350   21.3390 C   0  0  0  0  0  2  0  0  0  0  0  0
  -30.2730  -13.3620   20.8960 N   0  0  0  0  0  0  0  0  0  0  0  0
  -32.1280  -14.5840   20.7230 O   0  0  0  0  0  0  0  0  0  0  0  0
  -25.4650  -13.9060   20.6560 C   0  0  0  0  0  0  0  0  0  0  0  0
  -24.3760  -13.1370   20.9630 C   0  0  0  0  0  0  0  0  0  0  0  0
  -24.8430  -11.7880   20.9910 C   0  0  0  0  0  0  0  0  0  0  0  0
  -26.5300  -13.0270   20.5220 N   0  0  0  0  0  0  0  0  0  0  0  0
  -26.1540  -11.7480   20.7840 N   0  0  0  0  0  0  0  0  0  0  0  0
  -24.1090  -10.5250   21.1490 C   0  0  0  0  0  0  0  0  0  0  0  0
  -24.4820   -9.5690   22.1180 C   0  0  0  0  0  3  0  0  0  0  0  0
  -23.7460   -8.3730   22.2630 C   0  0  0  0  0  3  0  0  0  0  0  0
  -22.6240   -8.1260   21.4370 C   0  0  0  0  0  0  0  0  0  0  0  0
  -22.2720   -9.0710   20.4600 C   0  0  0  0  0  3  0  0  0  0  0  0
  -23.0070  -10.2590   20.3120 C   0  0  0  0  0  3  0  0  0  0  0  0
  -21.8690   -6.9790   21.4900 O   0  0  0  0  0  0  0  0  0  0  0  0
  -21.7590   -6.2420   22.6410 C   0  0  0  0  0  0  0  0  0  0  0  0
  -21.2550   -6.7980   23.8380 C   0  0  0  0  0  3  0  0  0  0  0  0
  -21.0920   -5.9850   24.9780 C   0  0  0  0  0  3  0  0  0  0  0  0
  -21.4240   -4.6190   24.9210 C   0  0  0  0  0  0  0  0  0  0  0  0
  -21.9220   -4.0620   23.7300 C   0  0  0  0  0  3  0  0  0  0  0  0
  -22.0850   -4.8720   22.5920 C   0  0  0  0  0  0  0  0  0  0  0  0
  -22.5440   -4.3270   21.4400 F   0  0  0  0  0  0  0  0  0  0  0  0
  -21.2620   -3.8350   26.0120 F   0  0  0  0  0  0  0  0  0  0  0  0
  -22.9600  -13.6120   21.1160 C   0  0  0  0  0  0  0  0  0  0  0  0
  -22.1740  -12.9320   21.9410 N   0  0  0  0  0  0  0  0  0  0  0  0
  -22.5580  -14.6230   20.5390 O   0  0  0  0  0  0  0  0  0  0  0  0
  -22.5140  -12.1190   22.4330 H   0  0  0  0  0  0  0  0  0  0  0  0
  -21.2190  -13.2260   22.0810 H   0  0  0  0  0  0  0  0  0  0  0  0
  -25.6350  -15.2710   20.4580 N   0  0  0  0  0  0  0  0  0  0  0  0
  -24.8640  -15.9310   20.4720 H   0  0  0  0  0  0  0  0  0  0  0  0
  -26.5200  -15.6860   20.1930 H   0  0  0  0  0  0  0  0  0  0  0  0
  -28.2650  -25.5130   20.6330 C   0  0  0  0  0  3  0  0  0  0  0  0
  -29.2550  -24.6110   20.5400 C   0  0  0  0  0  0  0  0  0  0  0  0
  -30.4070  -24.9280   19.9230 O   0  0  0  0  0  0  0  0  0  0  0  0
  -30.3270  -25.8330   19.6450 H   0  0  0  0  0  0  0  0  0  0  0  0
  -28.3440  -26.7740   20.0960 O   0  0  0  0  0  0  0  0  0  0  0  0
  -24.5480  -31.9040   23.2040 C   0  0  0  0  0  0  0  0  0  0  0  0
  -27.1800  -27.5030   20.0900 C   0  0  0  0  0  0  0  0  0  0  0  0
  -23.3290  -30.5080   21.5640 C   0  0  0  0  0  3  0  0  0  0  0  0
  -24.7790  -28.9830   20.1210 C   0  0  0  0  0  0  0  0  0  0  0  0
  -25.8520  -30.8770   21.3510 C   0  0  0  0  0  2  0  0  0  0  0  0
  -25.9370  -29.5120   20.7020 C   0  0  0  0  0  0  0  0  0  0  0  0
  -27.1440  -28.7820   20.6830 C   0  0  0  0  0  3  0  0  0  0  0  0
  -26.0080  -26.9800   19.4990 C   0  0  0  0  0  3  0  0  0  0  0  0
  -24.8060  -27.7110   19.5200 C   0  0  0  0  0  3  0  0  0  0  0  0
  -23.5300  -29.8330   20.1810 C   0  0  0  0  0  2  0  0  0  0  0  0
  -24.5940  -31.1110   22.0960 N   0  0  0  0  0  0  0  0  0  0  0  0
  -23.4710  -32.1770   23.7510 O   0  0  0  0  0  0  0  0  0  0  0  0
  -22.6870  -29.4820   22.5230 C   0  0  0  0  0  0  0  0  0  0  0  0
  -21.3600  -29.3100   22.4090 N   0  0  0  0  0  0  0  0  0  0  0  0
  -23.3750  -28.8470   23.3260 O   0  0  0  0  0  0  0  0  0  0  0  0
  -20.8660  -29.8730   21.7290 H   0  0  0  0  0  0  0  0  0  0  0  0
  -17.9800  -28.1500   22.9390 C   0  0  0  0  0  0  0  0  0  0  0  0
  -20.5440  -28.3740   23.1800 C   0  0  0  0  0  3  0  0  0  0  0  0
  -20.6220  -26.9490   22.5860 C   0  0  0  0  0  2  0  0  0  0  0  0
  -19.5030  -26.6500   21.5830 C   0  0  0  0  0  2  0  0  0  0  0  0
  -18.1310  -26.8050   22.2470 C   0  0  0  0  0  2  0  0  0  0  0  0
  -19.1130  -28.8930   23.3620 C   0  0  0  0  0  0  0  0  0  0  0  0
  -18.9190  -30.1520   23.9690 C   0  0  0  0  0  3  0  0  0  0  0  0
  -17.6230  -30.6690   24.1570 C   0  0  0  0  0  3  0  0  0  0  0  0
  -16.5040  -29.9220   23.7530 C   0  0  0  0  0  3  0  0  0  0  0  0
  -16.6830  -28.6640   23.1510 C   0  0  0  0  0  3  0  0  0  0  0  0
  -25.8400  -32.5310   23.8160 C   0  0  0  0  0  3  0  0  0  0  0  0
  -25.5340  -33.9280   24.1530 N   0  0  0  0  0  0  0  0  0  0  0  0
  -25.8730  -34.9830   23.3990 C   0  0  0  0  0  0  0  0  0  0  0  0
  -26.5470  -34.8820   22.3700 O   0  0  0  0  0  0  0  0  0  0  0  0
  -24.9340  -34.0790   24.9490 H   0  0  0  0  0  0  0  0  0  0  0  0
  -24.1630  -36.7880   23.0330 C   0  0  0  0  0  1  0  0  0  0  0  0
  -25.3870  -36.3690   23.8620 C   0  0  0  0  0  3  0  0  0  0  0  0
  -27.5120  -37.2300   24.7390 C   0  0  0  0  0  1  0  0  0  0  0  0
  -26.4280  -37.4150   23.7780 N   0  0  0  0  0  0  0  0  0  0  0  0
  -26.0260  -38.3360   23.9290 H   0  0  0  0  0  0  0  0  0  0  0  0
  -26.3680  -31.7540   25.0840 C   0  0  1  0  0  0  0  0  0  0  0  0
  -25.2800  -31.5180   26.1580 C   0  0  0  0  0  1  0  0  0  0  0  0
  -26.9460  -30.3760   24.6830 C   0  0  0  0  0  1  0  0  0  0  0  0
  -27.5240  -32.5440   25.7410 C   0  0  0  0  0  1  0  0  0  0  0  0
  1  3  2  0
  2  1  1  0
  4  2  1  0
  5  9  1  0
  6  5  2  0
  7  9  2  0
  8  7  1  0
  9  2  1  0
 10  6  1  0
 10  8  2  0
 11  8  1  0
 12 14  2  0
 13 14  2  0
 14 10  1  0
 14 15  1  1
 15 16  1  0
 16 22  1  0
 17 22  1  0
 18 19  1  0
 18 17  1  0
 20 19  1  0
 20 27  1  0
 20 21  1  0
 22 21  1  0
 23 16  2  0
 24 25  2  0
 25 26  1  0
 25 44  1  0
 26 29  1  0
 27 24  1  0
 27 28  1  0
 28 26  2  0
 29 30  1  0
 30 31  2  0
 32 35  1  0
 32 31  1  0
 33 32  2  0
 34 33  1  0
 34 29  2  0
 35 36  1  0
 36 37  1  0
 37 38  2  0
 39 38  1  0
 39 43  1  0
 40 39  2  0
 41 36  2  0
 41 40  1  0
 42 41  1  0
 44 45  1  0
 45 48  1  0
 45 47  1  0
 46 44  2  0
 49 50  1  0
 49 24  1  0
 51 49  1  0
 53 52  2  0
 53  1  1  0
 54 53  1  0
 55 54  1  0
 56 52  1  0
 57 68  2  0
 58 56  1  0
 58 63  1  0
 59 67  1  0
 59 69  1  0
 60 66  1  0
 60 62  1  0
 61 67  1  0
 62 61  1  0
 63 62  2  0
 64 65  1  0
 64 58  2  0
 65 60  2  0
 66 59  1  0
 67 57  1  0
 69 71  2  0
 70 69  1  0
 72 70  1  0
 73 82  2  0
 73 78  1  0
 74 70  1  0
 74 78  1  0
 75 74  1  0
 76 77  1  0
 76 75  1  0
 77 73  1  0
 78 79  2  0
 79 80  1  0
 81 80  2  0
 82 81  1  0
 83 57  1  0
 83 84  1  0
 83 93  1  0
 84 87  1  0
 85 89  1  0
 85 84  1  0
 86 85  2  0
 89 88  1  0
 91 89  1  0
 91 92  1  0
 91 90  1  0
 93 96  1  1
 93 94  1  0
 95 93  1  0
M  ISO  4  15 100  16 100  52 101  56 101
M  END
>  <TORSDO>  (27) 
F 21

>  <SCORE>  (27) 
-13.711

>  <name>  (27) 
26

>  <ligand_id>  (27) 
26

>  <original_smiles>  (27) 
[H]OC(C(=O)N([H])c1c([H])c([H])c(S(=O)(=O)[N-]C(=O)N2C([H])([H])C([H])([H])C([H])([H])C([H])(n3nc(-c4c([H])c([H])c(Oc5c([H])c([H])c(F)c([H])c5F)c([H])c4[H])c(C(=O)N([H])[H])c3N([H])[H])C2([H])[H])c(C([H])([H])[H])c1[H])=C([H])Oc1c([H])c([H])c2c(c1[H])C([H])([H])N(C(=O)C([H])(N([H])C(=O)C([H])(N([H])C([H])([H])[H])C([H])([H])[H])C(C([H])([H])[H])(C([H])([H])[H])C([H])([H])[H])C([H])(C(=O)N([H])C1([H])c3c([H])c([H])c([H])c([H])c3C([H])([H])C([H])([H])C1([H])[H])C2([H])[H]

>  <smiles>  (27) 
[H]OC(C(=O)N([H])c1c([H])c([H])c(S(=O)(=O)[N-]C(=O)N2C([H])([H])C([H])([H])C([H])([H])C([H])(n3nc(-c4c([H])c([H])c(Oc5c([H])c([H])c(F)c([H])c5F)c([H])c4[H])c(C(=O)N([H])[H])c3N([H])[H])C2([H])[H])c(C([H])([H])[H])c1[H])=C([H])Oc1c([H])c([H])c2c(c1[H])C([H])([H])N(C(=O)C([H])(N([H])C(=O)C([H])(N([H])C([H])([H])[H])C([H])([H])[H])C(C([H])([H])[H])(C([H])([H])[H])C([H])([H])[H])C([H])(C(=O)N([H])C1([H])c3c([H])c([H])c([H])c([H])c3C([H])([H])C([H])([H])C1([H])[H])C2([H])[H]

$$$$
27:0:0
     RDKit          3D

 94103  0  0  1  0  0  0  0  0999 V2000
  -28.8620  -23.4560   20.2350 C   0  0  0  0  0  0  0  0  0  0  0  0
  -29.2500  -23.8610   17.4800 C   0  0  0  0  0  2  0  0  0  0  0  0
  -28.5140  -25.0370   18.1260 C   0  0  0  0  0  2  0  0  0  0  0  0
  -28.7390  -22.5090   18.0050 C   0  0  0  0  0  2  0  0  0  0  0  0
  -28.1650  -24.8270   19.6160 C   0  0  0  0  0  3  0  0  0  0  0  0
  -29.0010  -22.2790   19.4440 N   0  0  0  0  0  0  0  0  0  0  0  0
  -29.2220  -23.4740   21.4170 O   0  0  0  0  0  0  0  0  0  0  0  0
  -29.0640  -18.3200   19.1900 C   0  0  0  0  0  3  0  0  0  0  0  0
  -28.7910  -19.7240   18.9910 C   0  0  0  0  0  3  0  0  0  0  0  0
  -30.1810  -20.2900   20.8020 C   0  0  0  0  0  3  0  0  0  0  0  0
  -29.9010  -17.7920   20.2180 C   0  0  0  0  0  0  0  0  0  0  0  0
  -30.4540  -18.8700   21.0160 C   0  0  0  0  0  0  0  0  0  0  0  0
  -29.3220  -20.8090   19.7770 C   0  0  0  0  0  0  0  0  0  0  0  0
  -31.3430  -18.5120   22.1960 C   0  0  0  0  0  1  0  0  0  0  0  0
  -29.8580  -16.2410   20.6360 C   0  0  0  0  0  0  0  0  0  0  0  0
  -29.0810  -16.0500   21.6170 N   0  0  0  0  0  0  0  0  0  0  0  0
  -28.6640  -16.9250   21.9110 H   0  0  0  0  0  0  0  0  0  0  0  0
  -30.6670  -14.9490   19.9890 C   0  0  0  0  0  0  0  0  0  0  0  0
  -30.5000  -12.6580   18.9230 C   0  0  0  0  0  2  0  0  0  0  0  0
  -29.4780  -12.7090   17.7590 C   0  0  0  0  0  2  0  0  0  0  0  0
  -28.0350  -12.4960   18.2640 C   0  0  0  0  0  2  0  0  0  0  0  0
  -27.7290  -13.3330   19.5320 C   0  0  0  0  0  3  0  0  0  0  0  0
  -28.8570  -13.1750   20.5720 C   0  0  0  0  0  2  0  0  0  0  0  0
  -30.0990  -13.6680   19.9460 N   0  0  0  0  0  0  0  0  0  0  0  0
  -31.7870  -15.0950   19.4830 O   0  0  0  0  0  0  0  0  0  0  0  0
  -25.3870  -13.9030   20.4050 C   0  0  0  0  0  0  0  0  0  0  0  0
  -24.3430  -13.1200   20.8160 C   0  0  0  0  0  0  0  0  0  0  0  0
  -24.8040  -11.7710   20.7300 C   0  0  0  0  0  0  0  0  0  0  0  0
  -26.4160  -13.0300   20.0910 N   0  0  0  0  0  0  0  0  0  0  0  0
  -26.0750  -11.7400   20.3440 N   0  0  0  0  0  0  0  0  0  0  0  0
  -24.0910  -10.5050   20.9360 C   0  0  0  0  0  0  0  0  0  0  0  0
  -24.5460   -9.5430   21.8660 C   0  0  0  0  0  3  0  0  0  0  0  0
  -23.8310   -8.3420   22.0610 C   0  0  0  0  0  3  0  0  0  0  0  0
  -22.6470   -8.0930   21.3260 C   0  0  0  0  0  0  0  0  0  0  0  0
  -22.2110   -9.0430   20.3860 C   0  0  0  0  0  3  0  0  0  0  0  0
  -22.9260  -10.2360   20.1900 C   0  0  0  0  0  3  0  0  0  0  0  0
  -21.9030   -6.9430   21.4290 O   0  0  0  0  0  0  0  0  0  0  0  0
  -21.8300   -6.2340   22.6020 C   0  0  0  0  0  0  0  0  0  0  0  0
  -21.3630   -6.8210   23.7980 C   0  0  0  0  0  3  0  0  0  0  0  0
  -21.2400   -6.0380   24.9630 C   0  0  0  0  0  3  0  0  0  0  0  0
  -21.5730   -4.6710   24.9340 C   0  0  0  0  0  0  0  0  0  0  0  0
  -22.0340   -4.0850   23.7420 C   0  0  0  0  0  3  0  0  0  0  0  0
  -22.1590   -4.8640   22.5780 C   0  0  0  0  0  0  0  0  0  0  0  0
  -22.5830   -4.2890   21.4270 F   0  0  0  0  0  0  0  0  0  0  0  0
  -21.4480   -3.9170   26.0510 F   0  0  0  0  0  0  0  0  0  0  0  0
  -22.9650  -13.5910   21.1810 C   0  0  0  0  0  0  0  0  0  0  0  0
  -22.2920  -12.8780   22.0770 N   0  0  0  0  0  0  0  0  0  0  0  0
  -22.4960  -14.6250   20.7070 O   0  0  0  0  0  0  0  0  0  0  0  0
  -22.6850  -12.0410   22.4810 H   0  0  0  0  0  0  0  0  0  0  0  0
  -21.3690  -13.1730   22.3630 H   0  0  0  0  0  0  0  0  0  0  0  0
  -25.5430  -15.2780   20.2540 N   0  0  0  0  0  0  0  0  0  0  0  0
  -24.8050  -15.9390   20.4710 H   0  0  0  0  0  0  0  0  0  0  0  0
  -26.4220  -15.7240   20.0220 H   0  0  0  0  0  0  0  0  0  0  0  0
  -28.2470  -26.2270   20.2660 O   0  0  0  0  0  0  0  0  0  0  0  0
  -24.6350  -31.8850   23.2430 C   0  0  0  0  0  0  0  0  0  0  0  0
  -27.1820  -27.1930   20.1750 C   0  0  0  0  0  0  0  0  0  0  0  0
  -23.4130  -30.4890   21.6200 C   0  0  0  0  0  3  0  0  0  0  0  0
  -24.8440  -28.9210   20.1780 C   0  0  0  0  0  0  0  0  0  0  0  0
  -25.9640  -30.7570   21.4270 C   0  0  0  0  0  2  0  0  0  0  0  0
  -26.0290  -29.3680   20.7770 C   0  0  0  0  0  0  0  0  0  0  0  0
  -27.1930  -28.5150   20.7690 C   0  0  0  0  0  3  0  0  0  0  0  0
  -25.9710  -26.8550   19.5230 C   0  0  0  0  0  3  0  0  0  0  0  0
  -24.8270  -27.6750   19.5390 C   0  0  0  0  0  3  0  0  0  0  0  0
  -23.6170  -29.8140   20.2390 C   0  0  0  0  0  2  0  0  0  0  0  0
  -24.6920  -31.0640   22.1520 N   0  0  0  0  0  0  0  0  0  0  0  0
  -23.5560  -32.1720   23.7840 O   0  0  0  0  0  0  0  0  0  0  0  0
  -22.7470  -29.4810   22.5890 C   0  0  0  0  0  0  0  0  0  0  0  0
  -21.4200  -29.3020   22.4680 N   0  0  0  0  0  0  0  0  0  0  0  0
  -23.4260  -28.8640   23.4130 O   0  0  0  0  0  0  0  0  0  0  0  0
  -20.9280  -29.8530   21.7780 H   0  0  0  0  0  0  0  0  0  0  0  0
  -18.0510  -28.0730   22.9740 C   0  0  0  0  0  0  0  0  0  0  0  0
  -20.6060  -28.3680   23.2490 C   0  0  0  0  0  3  0  0  0  0  0  0
  -20.7250  -26.9280   22.6960 C   0  0  0  0  0  2  0  0  0  0  0  0
  -19.6310  -26.5780   21.6820 C   0  0  0  0  0  2  0  0  0  0  0  0
  -18.2450  -26.7170   22.3170 C   0  0  0  0  0  2  0  0  0  0  0  0
  -19.1580  -28.8550   23.3970 C   0  0  0  0  0  0  0  0  0  0  0  0
  -18.9220  -30.1230   23.9720 C   0  0  0  0  0  3  0  0  0  0  0  0
  -17.6110  -30.6100   24.1280 C   0  0  0  0  0  3  0  0  0  0  0  0
  -16.5170  -29.8260   23.7200 C   0  0  0  0  0  3  0  0  0  0  0  0
  -16.7380  -28.5600   23.1480 C   0  0  0  0  0  3  0  0  0  0  0  0
  -25.9220  -32.5180   23.8530 C   0  0  0  0  0  3  0  0  0  0  0  0
  -25.6130  -33.9150   24.1960 N   0  0  0  0  0  0  0  0  0  0  0  0
  -25.9240  -34.9740   23.4360 C   0  0  0  0  0  0  0  0  0  0  0  0
  -26.5680  -34.8780   22.3880 O   0  0  0  0  0  0  0  0  0  0  0  0
  -25.0390  -34.0630   25.0120 H   0  0  0  0  0  0  0  0  0  0  0  0
  -24.1820  -36.7680   23.1390 C   0  0  0  0  0  1  0  0  0  0  0  0
  -25.4460  -36.3600   23.9140 C   0  0  0  0  0  3  0  0  0  0  0  0
  -27.5990  -37.2510   24.6920 C   0  0  0  0  0  1  0  0  0  0  0  0
  -26.4730  -37.4170   23.7770 N   0  0  0  0  0  0  0  0  0  0  0  0
  -26.0670  -38.3360   23.9370 H   0  0  0  0  0  0  0  0  0  0  0  0
  -26.4510  -31.7440   25.1240 C   0  0  1  0  0  0  0  0  0  0  0  0
  -25.3700  -31.5030   26.2020 C   0  0  0  0  0  1  0  0  0  0  0  0
  -27.0320  -30.3680   24.7270 C   0  0  0  0  0  1  0  0  0  0  0  0
  -27.6080  -32.5380   25.7750 C   0  0  0  0  0  1  0  0  0  0  0  0
  1  7  2  0
  2  4  1  0
  2  3  1  0
  3  5  1  0
  4  6  1  0
  5  1  1  0
  5 54  1  0
  6 13  1  0
  6  1  1  0
  8 11  1  0
  9  8  2  0
  9 13  1  0
 10 12  1  0
 11 15  1  0
 11 12  2  0
 12 14  1  0
 13 10  2  0
 15 16  2  0
 16 17  1  0
 18 15  1  0
 19 24  1  0
 20 21  1  0
 20 19  1  0
 22 21  1  0
 22 29  1  0
 22 23  1  0
 24 18  1  0
 24 23  1  0
 25 18  2  0
 26 27  2  0
 27 46  1  0
 28 27  1  0
 28 31  1  0
 29 30  1  0
 29 26  1  0
 30 28  2  0
 31 32  1  0
 32 33  2  0
 34 37  1  0
 34 33  1  0
 35 34  2  0
 36 35  1  0
 36 31  2  0
 37 38  1  0
 38 39  1  0
 39 40  2  0
 41 40  1  0
 41 45  1  0
 42 41  2  0
 43 38  2  0
 43 42  1  0
 44 43  1  0
 46 47  1  0
 47 50  1  0
 47 49  1  0
 48 46  2  0
 51 26  1  0
 51 52  1  0
 53 51  1  0
 55 66  2  0
 56 54  1  0
 56 61  1  0
 57 65  1  0
 57 67  1  0
 58 64  1  0
 58 60  1  0
 59 65  1  0
 60 59  1  0
 61 60  2  0
 62 63  1  0
 62 56  2  0
 63 58  2  0
 64 57  1  0
 65 55  1  0
 67 69  2  0
 68 67  1  0
 70 68  1  0
 71 80  2  0
 71 76  1  0
 72 68  1  0
 72 76  1  0
 73 72  1  0
 74 75  1  0
 74 73  1  0
 75 71  1  0
 76 77  2  0
 77 78  1  0
 79 78  2  0
 80 79  1  0
 81 55  1  0
 81 82  1  0
 81 91  1  0
 82 85  1  0
 83 87  1  0
 83 82  1  0
 84 83  2  0
 87 86  1  0
 89 87  1  0
 89 90  1  0
 89 88  1  0
 91 94  1  1
 91 92  1  0
 93 91  1  0
M  ISO  4   5 101  15 100  18 100  54 101
M  END
>  <TORSDO>  (28) 
F 18

>  <SCORE>  (28) 
-14.574

>  <name>  (28) 
27

>  <ligand_id>  (28) 
27

>  <original_smiles>  (28) 
[H]N=C(C(=O)N1C([H])([H])C([H])([H])C([H])([H])C([H])(n2nc(-c3c([H])c([H])c(Oc4c([H])c([H])c(F)c([H])c4F)c([H])c3[H])c(C(=O)N([H])[H])c2N([H])[H])C1([H])[H])c1c([H])c([H])c(N2C(=O)C([H])(Oc3c([H])c([H])c4c(c3[H])C([H])([H])N(C(=O)C([H])(N([H])C(=O)C([H])(N([H])C([H])([H])[H])C([H])([H])[H])C(C([H])([H])[H])(C([H])([H])[H])C([H])([H])[H])C([H])(C(=O)N([H])C3([H])c5c([H])c([H])c([H])c([H])c5C([H])([H])C([H])([H])C3([H])[H])C4([H])[H])C([H])([H])C([H])([H])C2([H])[H])c([H])c1C([H])([H])[H]

>  <smiles>  (28) 
[H]N=C(C(=O)N1C([H])([H])C([H])([H])C([H])([H])C([H])(n2nc(-c3c([H])c([H])c(Oc4c([H])c([H])c(F)c([H])c4F)c([H])c3[H])c(C(=O)N([H])[H])c2N([H])[H])C1([H])[H])c1c([H])c([H])c(N2C(=O)C([H])(Oc3c([H])c([H])c4c(c3[H])C([H])([H])N(C(=O)C([H])(N([H])C(=O)C([H])(N([H])C([H])([H])[H])C([H])([H])[H])C(C([H])([H])[H])(C([H])([H])[H])C([H])([H])[H])C([H])(C(=O)N([H])C3([H])c5c([H])c([H])c([H])c([H])c5C([H])([H])C([H])([H])C3([H])[H])C4([H])[H])C([H])([H])C([H])([H])C2([H])[H])c([H])c1C([H])([H])[H]

$$$$
28:0:0
     RDKit          3D

 96105  0  0  1  0  0  0  0  0999 V2000
  -30.0310  -21.5770   18.9070 C   0  0  0  0  0  0  0  0  0  0  0  0
  -29.7170  -22.4370   20.9760 C   0  0  0  0  0  2  0  0  0  0  0  0
  -29.7120  -23.0900   18.7020 C   0  0  0  0  0  3  0  0  0  0  0  0
  -29.7750  -23.7530   20.0960 C   0  0  0  0  0  3  0  0  0  0  0  0
  -30.0610  -21.1840   20.2020 N   0  0  0  0  0  0  0  0  0  0  0  0
  -30.2210  -20.8420   17.9340 O   0  0  0  0  0  0  0  0  0  0  0  0
  -30.9340  -18.3140   22.6580 C   0  0  0  0  0  3  0  0  0  0  0  0
  -31.1710  -17.2010   21.8440 C   0  0  0  0  0  3  0  0  0  0  0  0
  -30.5720  -18.5860   19.9340 C   0  0  0  0  0  3  0  0  0  0  0  0
  -30.5120  -19.5640   22.1570 C   0  0  0  0  0  0  0  0  0  0  0  0
  -30.3800  -19.8000   20.7440 C   0  0  0  0  0  0  0  0  0  0  0  0
  -30.9620  -17.2790   20.4610 C   0  0  0  0  0  0  0  0  0  0  0  0
  -30.1940  -20.5700   23.2540 C   0  0  0  0  0  1  0  0  0  0  0  0
  -31.6320  -14.8040   19.9320 C   0  0  0  0  0  0  0  0  0  0  0  0
  -31.2200  -12.5400   18.9490 C   0  0  0  0  0  2  0  0  0  0  0  0
  -30.2440  -12.6590   17.7580 C   0  0  0  0  0  2  0  0  0  0  0  0
  -28.7830  -12.6150   18.2520 C   0  0  0  0  0  2  0  0  0  0  0  0
  -28.5220  -13.5680   19.4500 C   0  0  0  0  0  3  0  0  0  0  0  0
  -29.6070  -13.4160   20.5320 C   0  0  0  0  0  2  0  0  0  0  0  0
  -30.9000  -13.6430   19.8750 N   0  0  0  0  0  0  0  0  0  0  0  0
  -32.8500  -14.7860   19.7410 O   0  0  0  0  0  0  0  0  0  0  0  0
  -30.9330  -15.9870   19.7460 N   0  0  0  0  0  0  0  0  0  0  0  0
  -30.0560  -15.8230   19.2790 H   0  0  0  0  0  0  0  0  0  0  0  0
  -26.2470  -14.3910   20.3060 C   0  0  0  0  0  0  0  0  0  0  0  0
  -25.1150  -13.7260   20.6890 C   0  0  0  0  0  0  0  0  0  0  0  0
  -25.4260  -12.3330   20.5960 C   0  0  0  0  0  0  0  0  0  0  0  0
  -27.1780  -13.4140   19.9940 N   0  0  0  0  0  0  0  0  0  0  0  0
  -26.6930  -12.1670   20.2330 N   0  0  0  0  0  0  0  0  0  0  0  0
  -24.5730  -11.1520   20.7650 C   0  0  0  0  0  0  0  0  0  0  0  0
  -24.9120  -10.1200   21.6680 C   0  0  0  0  0  3  0  0  0  0  0  0
  -24.0660   -9.0020   21.8280 C   0  0  0  0  0  3  0  0  0  0  0  0
  -22.8650   -8.9090   21.0850 C   0  0  0  0  0  0  0  0  0  0  0  0
  -22.5450   -9.9280   20.1690 C   0  0  0  0  0  3  0  0  0  0  0  0
  -23.3910  -11.0360   20.0080 C   0  0  0  0  0  3  0  0  0  0  0  0
  -21.9950   -7.8480   21.1540 O   0  0  0  0  0  0  0  0  0  0  0  0
  -21.8480   -7.1140   22.3030 C   0  0  0  0  0  0  0  0  0  0  0  0
  -21.4680   -7.7090   23.5260 C   0  0  0  0  0  3  0  0  0  0  0  0
  -21.2630   -6.9080   24.6650 C   0  0  0  0  0  3  0  0  0  0  0  0
  -21.4240   -5.5110   24.5840 C   0  0  0  0  0  0  0  0  0  0  0  0
  -21.7980   -4.9160   23.3660 C   0  0  0  0  0  3  0  0  0  0  0  0
  -22.0060   -5.7150   22.2290 C   0  0  0  0  0  0  0  0  0  0  0  0
  -22.3450   -5.1330   21.0530 F   0  0  0  0  0  0  0  0  0  0  0  0
  -21.2180   -4.7400   25.6770 F   0  0  0  0  0  0  0  0  0  0  0  0
  -23.7890  -14.3420   21.0320 C   0  0  0  0  0  0  0  0  0  0  0  0
  -23.0300  -13.7130   21.9200 N   0  0  0  0  0  0  0  0  0  0  0  0
  -23.4400  -15.4180   20.5450 O   0  0  0  0  0  0  0  0  0  0  0  0
  -23.3240  -12.8410   22.3350 H   0  0  0  0  0  0  0  0  0  0  0  0
  -22.1430  -14.1110   22.1920 H   0  0  0  0  0  0  0  0  0  0  0  0
  -26.5550  -15.7420   20.1750 N   0  0  0  0  0  0  0  0  0  0  0  0
  -25.8700  -16.4660   20.3590 H   0  0  0  0  0  0  0  0  0  0  0  0
  -27.4470  -16.1080   19.8750 H   0  0  0  0  0  0  0  0  0  0  0  0
  -30.0910  -25.1770   17.2300 C   0  0  0  0  0  1  0  0  0  0  0  0
  -32.0930  -23.7500   17.8190 C   0  0  0  0  0  1  0  0  0  0  0  0
  -30.5670  -23.7600   17.5820 C   0  0  0  0  0  3  0  0  0  0  0  0
  -28.6780  -24.8950   20.4500 C   0  0  0  0  0  2  0  0  0  0  0  0
  -28.8590  -26.3860   20.3300 O   0  0  0  0  0  0  0  0  0  0  0  0
  -24.6100  -31.6080   23.0990 C   0  0  0  0  0  0  0  0  0  0  0  0
  -27.6980  -27.1960   20.2300 C   0  0  0  0  0  0  0  0  0  0  0  0
  -23.5900  -30.1110   21.4210 C   0  0  0  0  0  3  0  0  0  0  0  0
  -25.2240  -28.6640   20.0810 C   0  0  0  0  0  0  0  0  0  0  0  0
  -26.1110  -30.6080   21.3610 C   0  0  0  0  0  2  0  0  0  0  0  0
  -26.3280  -29.2310   20.7320 C   0  0  0  0  0  0  0  0  0  0  0  0
  -27.5650  -28.5090   20.8020 C   0  0  0  0  0  3  0  0  0  0  0  0
  -26.5620  -26.7020   19.5480 C   0  0  0  0  0  3  0  0  0  0  0  0
  -25.3480  -27.4060   19.4810 C   0  0  0  0  0  3  0  0  0  0  0  0
  -23.9220  -29.4400   20.0610 C   0  0  0  0  0  2  0  0  0  0  0  0
  -24.7830  -30.7960   22.0150 N   0  0  0  0  0  0  0  0  0  0  0  0
  -23.4850  -31.8060   23.5840 O   0  0  0  0  0  0  0  0  0  0  0  0
  -22.9630  -29.0550   22.3630 C   0  0  0  0  0  0  0  0  0  0  0  0
  -21.6690  -28.7520   22.1610 N   0  0  0  0  0  0  0  0  0  0  0  0
  -23.6430  -28.5070   23.2350 O   0  0  0  0  0  0  0  0  0  0  0  0
  -21.1740  -29.2430   21.4310 H   0  0  0  0  0  0  0  0  0  0  0  0
  -18.4040  -27.2240   22.4550 C   0  0  0  0  0  0  0  0  0  0  0  0
  -20.8930  -27.7600   22.9070 C   0  0  0  0  0  3  0  0  0  0  0  0
  -21.1890  -26.3290   22.4010 C   0  0  0  0  0  2  0  0  0  0  0  0
  -20.2110  -25.8600   21.3210 C   0  0  0  0  0  2  0  0  0  0  0  0
  -18.7730  -25.8790   21.8500 C   0  0  0  0  0  2  0  0  0  0  0  0
  -19.4010  -28.1140   22.9370 C   0  0  0  0  0  0  0  0  0  0  0  0
  -19.0060  -29.3650   23.4590 C   0  0  0  0  0  3  0  0  0  0  0  0
  -17.6480  -29.7300   23.5070 C   0  0  0  0  0  3  0  0  0  0  0  0
  -16.6640  -28.8390   23.0440 C   0  0  0  0  0  3  0  0  0  0  0  0
  -17.0420  -27.5890   22.5210 C   0  0  0  0  0  3  0  0  0  0  0  0
  -25.8130  -32.3410   23.7660 C   0  0  0  0  0  3  0  0  0  0  0  0
  -26.3420  -31.6160   25.0630 C   0  0  1  0  0  0  0  0  0  0  0  0
  -25.2290  -31.2900   26.0850 C   0  0  0  0  0  1  0  0  0  0  0  0
  -27.0570  -30.2900   24.7060 C   0  0  0  0  0  1  0  0  0  0  0  0
  -27.3920  -32.5040   25.7690 C   0  0  0  0  0  1  0  0  0  0  0  0
  -25.3780  -33.7100   24.0780 N   0  0  0  0  0  0  0  0  0  0  0  0
  -25.6880  -34.7940   23.3540 C   0  0  0  0  0  0  0  0  0  0  0  0
  -26.4360  -34.7540   22.3730 O   0  0  0  0  0  0  0  0  0  0  0  0
  -24.7200  -33.8110   24.8360 H   0  0  0  0  0  0  0  0  0  0  0  0
  -23.8670  -36.4650   22.8890 C   0  0  0  0  0  1  0  0  0  0  0  0
  -25.0680  -36.1350   23.7880 C   0  0  0  0  0  3  0  0  0  0  0  0
  -27.0610  -37.1580   24.7920 C   0  0  0  0  0  1  0  0  0  0  0  0
  -26.0250  -37.2620   23.7680 N   0  0  0  0  0  0  0  0  0  0  0  0
  -25.5380  -38.1440   23.8990 H   0  0  0  0  0  0  0  0  0  0  0  0
  1  5  1  0
  3 54  1  0
  3  1  1  0
  3  4  1  0
  4 55  1  0
  4  2  1  0
  5 11  1  0
  5  2  1  0
  6  1  2  0
  8  7  2  0
  9 12  2  0
  9 11  1  0
 10  7  1  0
 10 13  1  0
 11 10  2  0
 12  8  1  0
 15 20  1  0
 16 17  1  0
 16 15  1  0
 18 17  1  0
 18 27  1  0
 18 19  1  0
 20 14  1  0
 20 19  1  0
 21 14  2  0
 22 14  1  0
 22 12  1  0
 23 22  1  0
 24 25  2  0
 25 44  1  0
 26 25  1  0
 26 29  1  0
 27 28  1  0
 27 24  1  0
 28 26  2  0
 29 30  1  0
 30 31  2  0
 32 35  1  0
 32 31  1  0
 33 32  2  0
 34 33  1  0
 34 29  2  0
 35 36  1  0
 36 37  1  0
 37 38  2  0
 39 38  1  0
 39 43  1  0
 40 39  2  0
 41 36  2  0
 41 40  1  0
 42 41  1  0
 44 45  1  0
 45 48  1  0
 45 47  1  0
 46 44  2  0
 49 24  1  0
 49 50  1  0
 51 49  1  0
 52 54  1  0
 54 53  1  0
 56 55  1  0
 57 68  2  0
 58 56  1  0
 58 63  1  0
 59 67  1  0
 59 69  1  0
 60 62  1  0
 61 67  1  0
 62 63  2  0
 62 61  1  0
 64 58  2  0
 65 64  1  0
 65 60  2  0
 66 60  1  0
 66 59  1  0
 67 57  1  0
 69 71  2  0
 70 69  1  0
 72 70  1  0
 73 82  2  0
 73 78  1  0
 74 70  1  0
 74 78  1  0
 75 74  1  0
 76 77  1  0
 76 75  1  0
 77 73  1  0
 78 79  2  0
 79 80  1  0
 81 80  2  0
 82 81  1  0
 83 57  1  0
 83 88  1  0
 83 84  1  0
 84 87  1  1
 84 85  1  0
 86 84  1  0
 88 91  1  0
 89 93  1  0
 89 88  1  0
 90 89  2  0
 93 92  1  0
 95 93  1  0
 95 96  1  0
 95 94  1  0
M  ISO  4  14 100  22 100  55 101  56 101
M  END
>  <TORSDO>  (29) 
F 19

>  <SCORE>  (29) 
-11.980

>  <name>  (29) 
28

>  <ligand_id>  (29) 
28

>  <original_smiles>  (29) 
[H]c1c([H])c([H])c2c(c1[H])C([H])([H])C([H])([H])C([H])([H])C2([H])N([H])C(=O)C1([H])N(C(=O)C([H])(N([H])C(=O)C([H])(N([H])C([H])([H])[H])C([H])([H])[H])C(C([H])([H])[H])(C([H])([H])[H])C([H])([H])[H])C([H])([H])c2c([H])c(OC([H])([H])C3([H])C([H])([H])N(c4c([H])c(N([H])C(=O)N5C([H])([H])C([H])([H])C([H])([H])C([H])(n6nc(-c7c([H])c([H])c(Oc8c([H])c([H])c(F)c([H])c8F)c([H])c7[H])c(C(=O)N([H])[H])c6N([H])[H])C5([H])[H])c([H])c([H])c4C([H])([H])[H])C(=O)C3([H])C([H])(C([H])([H])[H])C([H])([H])[H])c([H])c([H])c2C1([H])[H]

>  <smiles>  (29) 
[H]c1c([H])c([H])c2c(c1[H])C([H])([H])C([H])([H])C([H])([H])C2([H])N([H])C(=O)C1([H])N(C(=O)C([H])(N([H])C(=O)C([H])(N([H])C([H])([H])[H])C([H])([H])[H])C(C([H])([H])[H])(C([H])([H])[H])C([H])([H])[H])C([H])([H])c2c([H])c(OC([H])([H])C3([H])C([H])([H])N(c4c([H])c(N([H])C(=O)N5C([H])([H])C([H])([H])C([H])([H])C([H])(n6nc(-c7c([H])c([H])c(Oc8c([H])c([H])c(F)c([H])c8F)c([H])c7[H])c(C(=O)N([H])[H])c6N([H])[H])C5([H])[H])c([H])c([H])c4C([H])([H])[H])C(=O)C3([H])C([H])(C([H])([H])[H])C([H])([H])[H])c([H])c([H])c2C1([H])[H]

$$$$
29:0:0
     RDKit          3D

100109  0  0  1  0  0  0  0  0999 V2000
  -29.7260  -23.4000   21.4940 C   0  0  0  0  0  0  0  0  0  0  0  0
  -30.2630  -22.0260   21.5800 C   0  0  0  0  0  0  0  0  0  0  0  0
  -30.3470  -24.3820   22.1870 C   0  0  0  0  0  3  0  0  0  0  0  0
  -28.8070  -22.1210   19.8060 C   0  0  0  0  0  2  0  0  0  0  0  0
  -28.5540  -23.5290   20.5140 C   0  0  1  0  0  0  0  0  0  0  0  0
  -29.9850  -25.8520   22.2320 C   0  0  0  0  0  1  0  0  0  0  0  0
  -27.2270  -23.4740   21.2960 C   0  0  0  0  0  1  0  0  0  0  0  0
  -29.6660  -21.2260   20.6690 N   0  0  0  0  0  0  0  0  0  0  0  0
  -31.1220  -21.6300   22.3790 O   0  0  0  0  0  0  0  0  0  0  0  0
  -31.9420  -19.0350   18.6670 C   0  0  0  0  0  3  0  0  0  0  0  0
  -31.2910  -20.1290   19.2410 C   0  0  0  0  0  3  0  0  0  0  0  0
  -31.6260  -17.6810   18.9650 C   0  0  0  0  0  0  0  0  0  0  0  0
  -30.3040  -19.9570   20.2150 C   0  0  0  0  0  0  0  0  0  0  0  0
  -30.7850  -17.4080   20.1180 C   0  0  0  0  0  0  0  0  0  0  0  0
  -30.1050  -18.5840   20.6830 C   0  0  0  0  0  0  0  0  0  0  0  0
  -29.2030  -18.3770   21.6720 F   0  0  0  0  0  0  0  0  0  0  0  0
  -31.2030  -14.8310   20.6590 C   0  0  0  0  0  0  0  0  0  0  0  0
  -30.9760  -12.5490   19.6590 C   0  0  0  0  0  2  0  0  0  0  0  0
  -30.1050  -12.6070   18.3840 C   0  0  0  0  0  2  0  0  0  0  0  0
  -28.6000  -12.5620   18.7190 C   0  0  0  0  0  2  0  0  0  0  0  0
  -28.1950  -13.4390   19.9380 C   0  0  0  0  0  3  0  0  0  0  0  0
  -29.1980  -13.3120   21.1020 C   0  0  0  0  0  2  0  0  0  0  0  0
  -30.5270  -13.6300   20.5650 N   0  0  0  0  0  0  0  0  0  0  0  0
  -32.4340  -14.8340   20.5900 O   0  0  0  0  0  0  0  0  0  0  0  0
  -30.4680  -16.0170   20.6060 N   0  0  0  0  0  0  0  0  0  0  0  0
  -29.5020  -15.8940   20.8650 H   0  0  0  0  0  0  0  0  0  0  0  0
  -25.7840  -14.0970   20.5170 C   0  0  0  0  0  0  0  0  0  0  0  0
  -24.6790  -13.3560   20.8340 C   0  0  0  0  0  0  0  0  0  0  0  0
  -25.1100  -11.9940   20.8560 C   0  0  0  0  0  0  0  0  0  0  0  0
  -26.8190  -13.1900   20.3600 N   0  0  0  0  0  0  0  0  0  0  0  0
  -26.4170  -11.9220   20.6310 N   0  0  0  0  0  0  0  0  0  0  0  0
  -24.3450  -10.7530   21.0200 C   0  0  0  0  0  0  0  0  0  0  0  0
  -24.7270   -9.7700   21.9600 C   0  0  0  0  0  3  0  0  0  0  0  0
  -23.9650   -8.5910   22.1110 C   0  0  0  0  0  3  0  0  0  0  0  0
  -22.8060   -8.3880   21.3270 C   0  0  0  0  0  0  0  0  0  0  0  0
  -22.4420   -9.3580   20.3750 C   0  0  0  0  0  3  0  0  0  0  0  0
  -23.2060  -10.5280   20.2210 C   0  0  0  0  0  3  0  0  0  0  0  0
  -22.0190   -7.2630   21.3900 O   0  0  0  0  0  0  0  0  0  0  0  0
  -21.8730   -6.5500   22.5530 C   0  0  0  0  0  0  0  0  0  0  0  0
  -21.3580   -7.1400   23.7290 C   0  0  0  0  0  3  0  0  0  0  0  0
  -21.1600   -6.3540   24.8820 C   0  0  0  0  0  3  0  0  0  0  0  0
  -21.4620   -4.9800   24.8590 C   0  0  0  0  0  0  0  0  0  0  0  0
  -21.9670   -4.3890   23.6880 C   0  0  0  0  0  3  0  0  0  0  0  0
  -22.1680   -5.1720   22.5380 C   0  0  0  0  0  0  0  0  0  0  0  0
  -22.6370   -4.5940   21.4050 F   0  0  0  0  0  0  0  0  0  0  0  0
  -21.2640   -4.2240   25.9640 F   0  0  0  0  0  0  0  0  0  0  0  0
  -23.2790  -13.8680   21.0060 C   0  0  0  0  0  0  0  0  0  0  0  0
  -22.4930  -13.2340   21.8690 N   0  0  0  0  0  0  0  0  0  0  0  0
  -22.8890  -14.8690   20.4070 O   0  0  0  0  0  0  0  0  0  0  0  0
  -22.8190  -12.4250   22.3780 H   0  0  0  0  0  0  0  0  0  0  0  0
  -21.5510  -13.5630   22.0250 H   0  0  0  0  0  0  0  0  0  0  0  0
  -25.9880  -15.4600   20.3250 N   0  0  0  0  0  0  0  0  0  0  0  0
  -25.2210  -16.1250   20.3640 H   0  0  0  0  0  0  0  0  0  0  0  0
  -26.8560  -15.8810   20.0220 H   0  0  0  0  0  0  0  0  0  0  0  0
  -33.3870  -15.9090   18.2240 C   0  0  0  0  0  1  0  0  0  0  0  0
  -32.3650  -17.2850   16.4870 C   0  0  0  0  0  1  0  0  0  0  0  0
  -30.9180  -15.6810   17.5780 C   0  0  0  0  0  1  0  0  0  0  0  0
  -32.0780  -16.6480   17.8770 C   0  0  2  0  0  0  0  0  0  0  0  0
  -28.4780  -24.8330   19.5230 C   0  0  0  0  0  2  0  0  0  0  0  0
  -28.3750  -26.2750   19.9510 O   0  0  0  0  0  0  0  0  0  0  0  0
  -24.5220  -31.6120   22.9810 C   0  0  0  0  0  0  0  0  0  0  0  0
  -27.2270  -27.1020   19.8660 C   0  0  0  0  0  0  0  0  0  0  0  0
  -23.3580  -30.2400   21.2900 C   0  0  0  0  0  3  0  0  0  0  0  0
  -24.8460  -28.7260   19.8490 C   0  0  0  0  0  0  0  0  0  0  0  0
  -25.8980  -30.5720   21.1550 C   0  0  0  0  0  2  0  0  0  0  0  0
  -25.9990  -29.2020   20.4810 C   0  0  0  0  0  0  0  0  0  0  0  0
  -27.1850  -28.4010   20.4810 C   0  0  0  0  0  3  0  0  0  0  0  0
  -26.0450  -26.6890   19.2100 C   0  0  0  0  0  3  0  0  0  0  0  0
  -24.8750  -27.4780   19.2020 C   0  0  0  0  0  3  0  0  0  0  0  0
  -23.6020  -29.5950   19.8980 C   0  0  0  0  0  2  0  0  0  0  0  0
  -24.6110  -30.8270   21.8670 N   0  0  0  0  0  0  0  0  0  0  0  0
  -23.4280  -31.8690   23.5040 O   0  0  0  0  0  0  0  0  0  0  0  0
  -22.6880  -29.2000   22.2190 C   0  0  0  0  0  0  0  0  0  0  0  0
  -21.3530  -29.0730   22.1240 N   0  0  0  0  0  0  0  0  0  0  0  0
  -23.3670  -28.5130   22.9870 O   0  0  0  0  0  0  0  0  0  0  0  0
  -20.8650  -29.6810   21.4810 H   0  0  0  0  0  0  0  0  0  0  0  0
  -17.9480  -27.9870   22.6980 C   0  0  0  0  0  0  0  0  0  0  0  0
  -20.5240  -28.1220   22.8690 C   0  0  0  0  0  3  0  0  0  0  0  0
  -20.5370  -26.7280   22.2000 C   0  0  0  0  0  2  0  0  0  0  0  0
  -19.3820  -26.5180   21.2170 C   0  0  0  0  0  2  0  0  0  0  0  0
  -18.0360  -26.6780   21.9310 C   0  0  0  0  0  2  0  0  0  0  0  0
  -19.1170  -28.6720   23.1260 C   0  0  0  0  0  0  0  0  0  0  0  0
  -18.9790  -29.9000   23.8080 C   0  0  0  0  0  3  0  0  0  0  0  0
  -17.7050  -30.4420   24.0650 C   0  0  0  0  0  3  0  0  0  0  0  0
  -16.5530  -29.7530   23.6520 C   0  0  0  0  0  3  0  0  0  0  0  0
  -16.6740  -28.5260   22.9770 C   0  0  0  0  0  3  0  0  0  0  0  0
  -25.7880  -32.2440   23.6400 C   0  0  0  0  0  3  0  0  0  0  0  0
  -26.3090  -31.4320   24.8890 C   0  0  1  0  0  0  0  0  0  0  0  0
  -25.2190  -31.1540   25.9520 C   0  0  0  0  0  1  0  0  0  0  0  0
  -26.8950  -30.0710   24.4490 C   0  0  0  0  0  1  0  0  0  0  0  0
  -27.4620  -32.2050   25.5750 C   0  0  0  0  0  1  0  0  0  0  0  0
  -25.4520  -33.6230   24.0270 N   0  0  0  0  0  0  0  0  0  0  0  0
  -25.7810  -34.7140   23.3220 C   0  0  0  0  0  0  0  0  0  0  0  0
  -26.4690  -34.6660   22.3000 O   0  0  0  0  0  0  0  0  0  0  0  0
  -24.8450  -33.7320   24.8270 H   0  0  0  0  0  0  0  0  0  0  0  0
  -24.0210  -36.4880   23.0300 C   0  0  0  0  0  1  0  0  0  0  0  0
  -25.2660  -36.0740   23.8310 C   0  0  0  0  0  3  0  0  0  0  0  0
  -27.3750  -36.9730   24.7160 C   0  0  0  0  0  1  0  0  0  0  0  0
  -26.2790  -37.1510   23.7650 N   0  0  0  0  0  0  0  0  0  0  0  0
  -25.8550  -38.0580   23.9380 H   0  0  0  0  0  0  0  0  0  0  0  0
  1  2  1  0
  1  3  2  0
  2  9  2  0
  3  6  1  0
  4  5  1  0
  4  8  1  0
  5  7  1  1
  5  1  1  0
  8  2  1  0
 10 12  2  0
 10 11  1  0
 11 13  2  0
 12 14  1  0
 13  8  1  0
 13 15  1  0
 14 25  1  0
 14 15  2  0
 15 16  1  0
 18 23  1  0
 19 20  1  0
 19 18  1  0
 21 20  1  0
 21 30  1  0
 21 22  1  0
 23 17  1  0
 23 22  1  0
 24 17  2  0
 25 17  1  0
 25 26  1  0
 27 28  2  0
 28 29  1  0
 28 47  1  0
 29 32  1  0
 30 27  1  0
 30 31  1  0
 31 29  2  0
 32 33  1  0
 33 34  2  0
 35 38  1  0
 35 34  1  0
 36 35  2  0
 37 36  1  0
 37 32  2  0
 38 39  1  0
 39 40  1  0
 40 41  2  0
 42 41  1  0
 42 46  1  0
 43 42  2  0
 44 39  2  0
 44 43  1  0
 45 44  1  0
 47 48  1  0
 48 51  1  0
 48 50  1  0
 49 47  2  0
 52 53  1  0
 52 27  1  0
 54 52  1  0
 58 56  1  6
 57 58  1  0
 58 55  1  0
 58 12  1  0
 59 60  1  0
 59  5  1  0
 61 72  2  0
 62 60  1  0
 62 67  1  0
 63 71  1  0
 63 73  1  0
 64 70  1  0
 64 66  1  0
 65 71  1  0
 66 67  2  0
 66 65  1  0
 68 62  2  0
 69 68  1  0
 69 64  2  0
 70 63  1  0
 71 61  1  0
 73 75  2  0
 74 73  1  0
 76 74  1  0
 77 86  2  0
 77 82  1  0
 78 74  1  0
 78 82  1  0
 79 78  1  0
 80 81  1  0
 80 79  1  0
 81 77  1  0
 82 83  2  0
 83 84  1  0
 85 84  2  0
 86 85  1  0
 87 61  1  0
 87 92  1  0
 87 88  1  0
 88 91  1  1
 88 89  1  0
 90 88  1  0
 92 95  1  0
 93 97  1  0
 93 92  1  0
 94 93  2  0
 97 96  1  0
 99 97  1  0
 99100  1  0
 99 98  1  0
M  ISO  4  17 100  25 100  59 101  60 101
M  END
>  <TORSDO>  (30) 
F 19

>  <SCORE>  (30) 
-13.229

>  <name>  (30) 
29

>  <ligand_id>  (30) 
29

>  <original_smiles>  (30) 
[H]C(=C1C(=O)N(c2c([H])c([H])c(C(C([H])([H])[H])(C([H])([H])[H])C([H])([H])[H])c(N([H])C(=O)N3C([H])([H])C([H])([H])C([H])([H])C([H])(n4nc(-c5c([H])c([H])c(Oc6c([H])c([H])c(F)c([H])c6F)c([H])c5[H])c(C(=O)N([H])[H])c4N([H])[H])C3([H])[H])c2F)C([H])([H])C1(C([H])([H])[H])C([H])([H])Oc1c([H])c([H])c2c(c1[H])C([H])([H])N(C(=O)C([H])(N([H])C(=O)C([H])(N([H])C([H])([H])[H])C([H])([H])[H])C(C([H])([H])[H])(C([H])([H])[H])C([H])([H])[H])C([H])(C(=O)N([H])C1([H])c3c([H])c([H])c([H])c([H])c3C([H])([H])C([H])([H])C1([H])[H])C2([H])[H])C([H])([H])[H]

>  <smiles>  (30) 
[H]C(=C1C(=O)N(c2c([H])c([H])c(C(C([H])([H])[H])(C([H])([H])[H])C([H])([H])[H])c(N([H])C(=O)N3C([H])([H])C([H])([H])C([H])([H])C([H])(n4nc(-c5c([H])c([H])c(Oc6c([H])c([H])c(F)c([H])c6F)c([H])c5[H])c(C(=O)N([H])[H])c4N([H])[H])C3([H])[H])c2F)C([H])([H])C1(C([H])([H])[H])C([H])([H])Oc1c([H])c([H])c2c(c1[H])C([H])([H])N(C(=O)C([H])(N([H])C(=O)C([H])(N([H])C([H])([H])[H])C([H])([H])[H])C(C([H])([H])[H])(C([H])([H])[H])C([H])([H])[H])C([H])(C(=O)N([H])C1([H])c3c([H])c([H])c([H])c([H])c3C([H])([H])C([H])([H])C1([H])[H])C2([H])[H])C([H])([H])[H]

$$$$
30:0:0
     RDKit          3D

 95103  0  0  1  0  0  0  0  0999 V2000
  -30.9520  -18.1900   21.6240 C   0  0  0  0  0  3  0  0  0  0  0  0
  -31.1210  -19.4590   22.2330 C   0  0  0  0  0  3  0  0  0  0  0  0
  -29.5410  -19.3160   20.0210 C   0  0  0  0  0  3  0  0  0  0  0  0
  -30.1340  -17.9840   20.4960 C   0  0  0  0  0  0  0  0  0  0  0  0
  -30.5340  -20.6750   21.7800 C   0  0  0  0  0  0  0  0  0  0  0  0
  -29.7210  -20.7210   20.6100 C   0  0  0  0  0  0  0  0  0  0  0  0
  -30.6730  -15.1970   20.0420 C   0  0  0  0  0  0  0  0  0  0  0  0
  -30.5310  -12.8280   19.0130 C   0  0  0  0  0  2  0  0  0  0  0  0
  -29.5420  -12.7140   17.8270 C   0  0  0  0  0  2  0  0  0  0  0  0
  -28.1070  -12.4710   18.3270 C   0  0  0  0  0  2  0  0  0  0  0  0
  -27.7360  -13.3980   19.5120 C   0  0  0  0  0  3  0  0  0  0  0  0
  -28.8410  -13.4470   20.5860 C   0  0  0  0  0  2  0  0  0  0  0  0
  -30.0540  -13.9310   19.9130 N   0  0  0  0  0  0  0  0  0  0  0  0
  -31.8960  -15.1770   19.8460 O   0  0  0  0  0  0  0  0  0  0  0  0
  -29.9210  -16.4610   20.0630 N   0  0  0  0  0  0  0  0  0  0  0  0
  -28.9610  -16.2760   19.8160 H   0  0  0  0  0  0  0  0  0  0  0  0
  -25.3950  -13.9870   20.3420 C   0  0  0  0  0  0  0  0  0  0  0  0
  -24.3360  -13.2190   20.7400 C   0  0  0  0  0  0  0  0  0  0  0  0
  -24.7890  -11.8650   20.6940 C   0  0  0  0  0  0  0  0  0  0  0  0
  -26.4220  -13.1010   20.0660 N   0  0  0  0  0  0  0  0  0  0  0  0
  -26.0700  -11.8180   20.3460 N   0  0  0  0  0  0  0  0  0  0  0  0
  -24.0570  -10.6080   20.9010 C   0  0  0  0  0  0  0  0  0  0  0  0
  -24.4860   -9.6490   21.8460 C   0  0  0  0  0  3  0  0  0  0  0  0
  -23.7510   -8.4600   22.0420 C   0  0  0  0  0  3  0  0  0  0  0  0
  -22.5740   -8.2220   21.2930 C   0  0  0  0  0  0  0  0  0  0  0  0
  -22.1650   -9.1680   20.3380 C   0  0  0  0  0  3  0  0  0  0  0  0
  -22.8990  -10.3490   20.1400 C   0  0  0  0  0  3  0  0  0  0  0  0
  -21.8110   -7.0840   21.4000 O   0  0  0  0  0  0  0  0  0  0  0  0
  -21.7550   -6.3600   22.5650 C   0  0  0  0  0  0  0  0  0  0  0  0
  -21.3070   -6.9330   23.7760 C   0  0  0  0  0  3  0  0  0  0  0  0
  -21.1970   -6.1340   24.9340 C   0  0  0  0  0  3  0  0  0  0  0  0
  -21.5260   -4.7670   24.8800 C   0  0  0  0  0  0  0  0  0  0  0  0
  -21.9680   -4.1950   23.6740 C   0  0  0  0  0  3  0  0  0  0  0  0
  -22.0790   -4.9900   22.5190 C   0  0  0  0  0  0  0  0  0  0  0  0
  -22.4830   -4.4280   21.3540 F   0  0  0  0  0  0  0  0  0  0  0  0
  -21.4150   -3.9990   25.9890 F   0  0  0  0  0  0  0  0  0  0  0  0
  -22.9520  -13.7080   21.0490 C   0  0  0  0  0  0  0  0  0  0  0  0
  -22.2430  -13.0210   21.9370 N   0  0  0  0  0  0  0  0  0  0  0  0
  -22.5080  -14.7360   20.5360 O   0  0  0  0  0  0  0  0  0  0  0  0
  -22.6170  -12.1900   22.3720 H   0  0  0  0  0  0  0  0  0  0  0  0
  -21.3140  -13.3280   22.1870 H   0  0  0  0  0  0  0  0  0  0  0  0
  -25.5610  -15.3570   20.1630 N   0  0  0  0  0  0  0  0  0  0  0  0
  -24.7960  -16.0090   20.2960 H   0  0  0  0  0  0  0  0  0  0  0  0
  -26.3990  -15.7980   19.8090 H   0  0  0  0  0  0  0  0  0  0  0  0
  -28.1130  -22.3020   18.9030 O   0  0  0  0  0  0  0  0  0  0  0  0
  -30.4670  -23.0430   19.1990 O   0  0  0  0  0  0  0  0  0  0  0  0
  -29.2110  -22.6010   19.8400 S   0  0  2  0  0  0  0  0  0  0  0  0
  -28.5420  -24.3850   20.8490 C   0  0  0  0  0  2  0  0  0  0  0  0
  -28.6770  -25.9760   20.5010 O   0  0  0  0  0  0  0  0  0  0  0  0
  -24.7090  -31.7530   23.2540 C   0  0  0  0  0  0  0  0  0  0  0  0
  -27.5980  -26.9810   20.4500 C   0  0  0  0  0  0  0  0  0  0  0  0
  -23.6500  -30.2890   21.5820 C   0  0  0  0  0  3  0  0  0  0  0  0
  -25.2240  -28.7250   20.2610 C   0  0  0  0  0  0  0  0  0  0  0  0
  -26.2070  -30.6140   21.5460 C   0  0  0  0  0  2  0  0  0  0  0  0
  -26.3620  -29.2020   20.9230 C   0  0  0  0  0  0  0  0  0  0  0  0
  -27.5500  -28.3530   20.9860 C   0  0  0  0  0  3  0  0  0  0  0  0
  -26.4240  -26.6340   19.7490 C   0  0  0  0  0  3  0  0  0  0  0  0
  -25.2770  -27.4610   19.6550 C   0  0  0  0  0  3  0  0  0  0  0  0
  -23.9680  -29.5950   20.2300 C   0  0  0  0  0  2  0  0  0  0  0  0
  -24.8730  -30.9140   22.1820 N   0  0  0  0  0  0  0  0  0  0  0  0
  -23.5870  -32.0040   23.7190 O   0  0  0  0  0  0  0  0  0  0  0  0
  -22.9530  -29.2780   22.5290 C   0  0  0  0  0  0  0  0  0  0  0  0
  -21.6360  -29.0650   22.3480 N   0  0  0  0  0  0  0  0  0  0  0  0
  -23.6040  -28.6850   23.3920 O   0  0  0  0  0  0  0  0  0  0  0  0
  -21.1620  -29.5950   21.6300 H   0  0  0  0  0  0  0  0  0  0  0  0
  -18.2740  -27.7590   22.7300 C   0  0  0  0  0  0  0  0  0  0  0  0
  -20.8120  -28.1060   23.0920 C   0  0  0  0  0  3  0  0  0  0  0  0
  -20.9800  -26.6750   22.5320 C   0  0  0  0  0  2  0  0  0  0  0  0
  -19.9290  -26.3100   21.4790 C   0  0  0  0  0  2  0  0  0  0  0  0
  -18.5210  -26.4130   22.0680 C   0  0  0  0  0  2  0  0  0  0  0  0
  -19.3500  -28.5610   23.1950 C   0  0  0  0  0  0  0  0  0  0  0  0
  -19.0650  -29.8160   23.7750 C   0  0  0  0  0  3  0  0  0  0  0  0
  -17.7390  -30.2730   23.8930 C   0  0  0  0  0  3  0  0  0  0  0  0
  -16.6770  -29.4690   23.4410 C   0  0  0  0  0  3  0  0  0  0  0  0
  -16.9450  -28.2140   22.8670 C   0  0  0  0  0  3  0  0  0  0  0  0
  -25.9240  -32.4530   23.9380 C   0  0  0  0  0  3  0  0  0  0  0  0
  -26.3800  -31.7380   25.2690 C   0  0  1  0  0  0  0  0  0  0  0  0
  -25.2270  -31.4960   26.2730 C   0  0  0  0  0  1  0  0  0  0  0  0
  -27.0350  -30.3710   24.9670 C   0  0  0  0  0  1  0  0  0  0  0  0
  -27.4570  -32.5950   25.9790 C   0  0  0  0  0  1  0  0  0  0  0  0
  -25.5440  -33.8490   24.2140 N   0  0  0  0  0  0  0  0  0  0  0  0
  -25.8720  -34.9000   23.4500 C   0  0  0  0  0  0  0  0  0  0  0  0
  -26.5890  -34.7990   22.4530 O   0  0  0  0  0  0  0  0  0  0  0  0
  -24.9130  -34.0000   24.9880 H   0  0  0  0  0  0  0  0  0  0  0  0
  -24.0890  -36.6200   23.0020 C   0  0  0  0  0  1  0  0  0  0  0  0
  -25.3200  -36.2820   23.8580 C   0  0  0  0  0  3  0  0  0  0  0  0
  -27.3910  -37.2760   24.7310 C   0  0  0  0  0  1  0  0  0  0  0  0
  -26.3160  -37.3710   23.7480 N   0  0  0  0  0  0  0  0  0  0  0  0
  -25.8690  -38.2790   23.8510 H   0  0  0  0  0  0  0  0  0  0  0  0
  -30.8040  -21.8120   22.5490 N   0  0  0  0  0  0  0  0  0  0  0  0
  -30.8910  -22.6860   22.0520 H   0  0  0  0  0  0  0  0  0  0  0  0
  -32.1690  -21.8520   24.9810 C   0  0  0  0  0  1  0  0  0  0  0  0
  -30.0180  -23.3720   24.4060 O   0  0  0  0  0  0  0  0  0  0  0  0
  -29.6910  -20.8520   24.6490 O   0  0  0  0  0  0  0  0  0  0  0  0
  -30.5170  -22.0000   24.2400 S   0  0  1  0  0  0  0  0  0  0  0  0
  1  2  1  0
  3  4  1  0
  3  6  2  0
  4  1  2  0
  5  2  2  0
  5 90  1  0
  6  5  1  0
  7 15  1  0
  8 13  1  0
  9 10  1  0
  9  8  1  0
 11 10  1  0
 11 20  1  0
 11 12  1  0
 13  7  1  0
 13 12  1  0
 14  7  2  0
 15  4  1  0
 16 15  1  0
 17 18  2  0
 18 37  1  0
 19 18  1  0
 19 22  1  0
 20 17  1  0
 20 21  1  0
 21 19  2  0
 22 23  1  0
 23 24  2  0
 25 28  1  0
 25 24  1  0
 26 25  2  0
 27 26  1  0
 27 22  2  0
 28 29  1  0
 29 30  1  0
 30 31  2  0
 32 31  1  0
 32 36  1  0
 33 32  2  0
 34 29  2  0
 34 33  1  0
 35 34  1  0
 37 38  1  0
 38 41  1  0
 38 40  1  0
 39 37  2  0
 42 43  1  0
 42 17  1  0
 44 42  1  0
 45 47  2  0
 46 47  2  0
 47  6  1  0
 47 48  1  1
 49 48  1  0
 50 61  2  0
 51 49  1  0
 51 56  1  0
 52 60  1  0
 52 62  1  0
 53 55  1  0
 54 60  1  0
 55 56  2  0
 55 54  1  0
 57 51  2  0
 58 57  1  0
 58 53  2  0
 59 53  1  0
 59 52  1  0
 60 50  1  0
 62 64  2  0
 63 62  1  0
 65 63  1  0
 66 75  2  0
 66 71  1  0
 67 63  1  0
 67 71  1  0
 68 67  1  0
 69 70  1  0
 69 68  1  0
 70 66  1  0
 71 72  2  0
 72 73  1  0
 74 73  2  0
 75 74  1  0
 76 50  1  0
 76 81  1  0
 76 77  1  0
 77 80  1  1
 77 78  1  0
 79 77  1  0
 81 84  1  0
 82 86  1  0
 82 81  1  0
 83 82  2  0
 86 85  1  0
 88 89  1  0
 88 86  1  0
 88 87  1  0
 90 95  1  0
 91 90  1  0
 95 93  2  0
 95 94  2  0
 95 92  1  1
M  ISO  4   7 100  15 100  48 101  49 101
M  END
>  <TORSDO>  (31) 
F 20

>  <SCORE>  (31) 
-14.342

>  <name>  (31) 
30

>  <ligand_id>  (31) 
30

>  <original_smiles>  (31) 
[H]c1c([H])c([H])c2c(c1[H])C([H])([H])C([H])([H])C([H])([H])C2([H])N([H])C(=O)C1([H])N(C(=O)C([H])(N([H])C(=O)C([H])(N([H])C([H])([H])[H])C([H])([H])[H])C(C([H])([H])[H])(C([H])([H])[H])C([H])([H])[H])C([H])([H])c2c([H])c(OC([H])([H])S(=O)(=O)c3c([H])c(N([H])C(=O)N4C([H])([H])C([H])([H])C([H])([H])C([H])(n5nc(-c6c([H])c([H])c(Oc7c([H])c([H])c(F)c([H])c7F)c([H])c6[H])c(C(=O)N([H])[H])c5N([H])[H])C4([H])[H])c([H])c([H])c3N([H])S(=O)(=O)C([H])([H])[H])c([H])c([H])c2C1([H])[H]

>  <smiles>  (31) 
[H]c1c([H])c([H])c2c(c1[H])C([H])([H])C([H])([H])C([H])([H])C2([H])N([H])C(=O)C1([H])N(C(=O)C([H])(N([H])C(=O)C([H])(N([H])C([H])([H])[H])C([H])([H])[H])C(C([H])([H])[H])(C([H])([H])[H])C([H])([H])[H])C([H])([H])c2c([H])c(OC([H])([H])S(=O)(=O)c3c([H])c(N([H])C(=O)N4C([H])([H])C([H])([H])C([H])([H])C([H])(n5nc(-c6c([H])c([H])c(Oc7c([H])c([H])c(F)c([H])c7F)c([H])c6[H])c(C(=O)N([H])[H])c5N([H])[H])C4([H])[H])c([H])c([H])c3N([H])S(=O)(=O)C([H])([H])[H])c([H])c([H])c2C1([H])[H]

$$$$
31:0:0
     RDKit          3D

 95101  0  0  1  0  0  0  0  0999 V2000
  -24.1780  -25.3260   19.7110 C   0  0  0  0  0  2  0  0  0  0  0  0
  -25.6220  -24.7590   19.3770 N   0  0  0  0  0  0  0  0  0  0  0  0
  -23.4460  -24.3980   20.0570 O   0  0  0  0  0  1  0  0  0  0  0  0
  -26.1850  -25.5340   19.0540 H   0  0  0  0  0  0  0  0  0  0  0  0
  -26.5130  -20.7780   19.3980 C   0  0  0  0  0  3  0  0  0  0  0  0
  -25.9040  -22.0780   19.3770 C   0  0  0  0  0  3  0  0  0  0  0  0
  -28.1680  -22.8460   19.3820 C   0  0  0  0  0  3  0  0  0  0  0  0
  -27.9120  -20.4420   19.4430 C   0  0  0  0  0  0  0  0  0  0  0  0
  -28.9480  -21.4150   19.3990 C   0  0  0  0  0  0  0  0  0  0  0  0
  -26.6090  -23.3110   19.3790 C   0  0  0  0  0  0  0  0  0  0  0  0
  -27.6510  -17.9840   18.9920 C   0  0  0  0  0  2  0  0  0  0  0  0
  -28.3020  -19.0250   19.5360 C   0  0  0  0  0  3  0  0  0  0  0  0
  -30.7240  -20.7500   19.4210 C   0  0  0  0  0  2  0  0  0  0  0  0
  -32.9310  -18.3650   19.3510 C   0  0  0  0  0  0  0  0  0  0  0  0
  -35.1660  -17.2050   18.4490 C   0  0  0  0  0  2  0  0  0  0  0  0
  -35.8710  -18.0750   17.3700 C   0  0  0  0  0  2  0  0  0  0  0  0
  -35.1890  -17.9000   16.0000 C   0  0  0  0  0  2  0  0  0  0  0  0
  -33.6500  -17.8650   16.1470 C   0  0  0  0  0  3  0  0  0  0  0  0
  -33.1710  -16.9010   17.2300 C   0  0  0  0  0  2  0  0  0  0  0  0
  -33.6670  -17.5080   18.4490 N   0  0  0  0  0  0  0  0  0  0  0  0
  -33.5330  -18.3040   20.4540 O   0  0  0  0  0  0  0  0  0  0  0  0
  -31.7230  -19.3120   18.9840 N   0  0  0  0  0  0  0  0  0  0  0  0
  -31.4540  -19.0550   18.0450 H   0  0  0  0  0  0  0  0  0  0  0  0
  -31.8250  -18.3000   14.4680 C   0  0  0  0  0  0  0  0  0  0  0  0
  -31.5650  -17.7780   13.2350 C   0  0  0  0  0  0  0  0  0  0  0  0
  -32.5580  -16.7730   13.0170 C   0  0  0  0  0  0  0  0  0  0  0  0
  -32.9420  -17.6310   14.9200 N   0  0  0  0  0  0  0  0  0  0  0  0
  -33.3390  -16.6480   14.0800 N   0  0  0  0  0  0  0  0  0  0  0  0
  -32.8580  -15.9750   11.8270 C   0  0  0  0  0  0  0  0  0  0  0  0
  -32.9260  -14.5660   11.8790 C   0  0  0  0  0  3  0  0  0  0  0  0
  -33.1990  -13.8220   10.7110 C   0  0  0  0  0  3  0  0  0  0  0  0
  -33.4020  -14.4870    9.4790 C   0  0  0  0  0  0  0  0  0  0  0  0
  -33.3610  -15.8910    9.4400 C   0  0  0  0  0  3  0  0  0  0  0  0
  -33.0950  -16.6310   10.6030 C   0  0  0  0  0  3  0  0  0  0  0  0
  -33.6940  -13.8490    8.2990 O   0  0  0  0  0  0  0  0  0  0  0  0
  -33.2830  -12.5640    8.0580 C   0  0  0  0  0  0  0  0  0  0  0  0
  -31.9210  -12.1950    8.1080 C   0  0  0  0  0  3  0  0  0  0  0  0
  -31.5360  -10.8790    7.7850 C   0  0  0  0  0  3  0  0  0  0  0  0
  -32.5080   -9.9340    7.4040 C   0  0  0  0  0  0  0  0  0  0  0  0
  -33.8640  -10.3010    7.3490 C   0  0  0  0  0  3  0  0  0  0  0  0
  -34.2500  -11.6130    7.6730 C   0  0  0  0  0  0  0  0  0  0  0  0
  -35.5560  -11.9670    7.5990 F   0  0  0  0  0  0  0  0  0  0  0  0
  -32.1380   -8.6710    7.0850 F   0  0  0  0  0  0  0  0  0  0  0  0
  -30.5300  -18.2690   12.2700 C   0  0  0  0  0  0  0  0  0  0  0  0
  -29.9990  -17.3790   11.4430 N   0  0  0  0  0  0  0  0  0  0  0  0
  -30.1550  -19.4410   12.2810 O   0  0  0  0  0  0  0  0  0  0  0  0
  -30.2940  -16.4140   11.4520 H   0  0  0  0  0  0  0  0  0  0  0  0
  -29.2830  -17.6640   10.7900 H   0  0  0  0  0  0  0  0  0  0  0  0
  -31.2380  -19.3110   15.2230 N   0  0  0  0  0  0  0  0  0  0  0  0
  -30.4680  -19.8600   14.8570 H   0  0  0  0  0  0  0  0  0  0  0  0
  -31.6910  -19.7570   16.0070 H   0  0  0  0  0  0  0  0  0  0  0  0
  -23.1060  -26.9790   19.7030 C   0  0  0  0  0 15  0  0  0  0  0  0
  -22.7730  -28.6620   20.9800 C   0  0  0  0  0  1  0  0  0  0  0  0
  -25.0690  -28.8130   22.9940 C   0  0  0  0  0  3  0  0  0  0  0  0
  -26.6020  -29.0920   22.4170 O   0  0  0  0  0  0  0  0  0  0  0  0
  -23.6420  -28.3670   26.3950 C   0  0  0  0  0  0  0  0  0  0  0  0
  -26.9930  -30.3800   22.0850 C   0  0  0  0  0  3  0  0  0  0  0  0
  -23.0810  -28.2770   23.9630 C   0  0  0  0  0  2  0  0  0  0  0  0
  -24.6400  -30.3530   21.8850 C   0  0  0  0  0  3  0  0  0  0  0  0
  -24.4720  -30.6000   24.9210 C   0  0  0  0  0  2  0  0  0  0  0  0
  -25.0740  -31.1180   23.2710 C   0  0  0  0  0  3  0  0  0  0  0  0
  -26.4890  -31.0920   23.1830 C   0  0  0  0  0  2  0  0  0  0  0  0
  -26.3880  -30.8130   20.8630 C   0  0  0  0  0  2  0  0  0  0  0  0
  -25.0410  -31.0450   20.8200 C   0  0  0  0  0  2  0  0  0  0  0  0
  -23.6020  -28.6050   22.0770 C   0  0  0  0  0  2  0  0  0  0  0  0
  -23.6160  -29.1790   25.2300 N   0  0  0  0  0  0  0  0  0  0  0  0
  -22.5940  -27.8350   26.7960 O   0  0  0  0  0  0  0  0  0  0  0  0
  -21.7740  -27.6160   23.9160 C   0  0  0  0  0  0  0  0  0  0  0  0
  -20.5670  -28.1540   23.7140 N   0  0  0  0  0  0  0  0  0  0  0  0
  -21.9750  -26.4270   23.8210 O   0  0  0  0  0  0  0  0  0  0  0  0
  -20.4140  -29.1530   23.7370 H   0  0  0  0  0  0  0  0  0  0  0  0
  -17.1980  -27.5370   22.3370 C   0  0  0  0  0  0  0  0  0  0  0  0
  -19.6310  -27.2720   23.0020 C   0  0  0  0  0  3  0  0  0  0  0  0
  -19.9630  -27.1940   21.4980 C   0  0  0  0  0  2  0  0  0  0  0  0
  -19.0200  -28.0250   20.6430 C   0  0  0  0  0  2  0  0  0  0  0  0
  -17.5830  -27.5510   20.8630 C   0  0  0  0  0  2  0  0  0  0  0  0
  -18.1800  -27.4580   23.3510 C   0  0  0  0  0  0  0  0  0  0  0  0
  -17.8020  -27.4460   24.7090 C   0  0  0  0  0  3  0  0  0  0  0  0
  -16.4450  -27.5280   25.0610 C   0  0  0  0  0  3  0  0  0  0  0  0
  -15.4650  -27.6090   24.0560 C   0  0  0  0  0  3  0  0  0  0  0  0
  -15.8380  -27.6090   22.6990 C   0  0  0  0  0  3  0  0  0  0  0  0
  -24.9370  -27.8790   27.1960 C   0  0  0  0  0  3  0  0  0  0  0  0
  -24.5790  -27.7550   28.6330 N   0  0  0  0  0  0  0  0  0  0  0  0
  -25.0590  -28.4930   29.6440 C   0  0  0  0  0  0  0  0  0  0  0  0
  -25.8900  -29.3840   29.4620 O   0  0  0  0  0  0  0  0  0  0  0  0
  -23.8440  -27.0970   28.8460 H   0  0  0  0  0  0  0  0  0  0  0  0
  -23.4190  -29.2300   31.4140 C   0  0  0  0  0  1  0  0  0  0  0  0
  -24.5300  -28.2210   31.0740 C   0  0  0  0  0  3  0  0  0  0  0  0
  -26.5160  -27.1600   32.0620 C   0  0  0  0  0  1  0  0  0  0  0  0
  -25.5760  -28.2760   32.1230 N   0  0  0  0  0  0  0  0  0  0  0  0
  -25.1560  -28.2830   33.0490 H   0  0  0  0  0  0  0  0  0  0  0  0
  -25.5450  -26.4440   26.7800 C   0  0  1  0  0  0  0  0  0  0  0  0
  -24.4780  -25.3260   26.6590 C   0  0  0  0  0  1  0  0  0  0  0  0
  -26.3040  -26.4640   25.4450 C   0  0  0  0  0  1  0  0  0  0  0  0
  -26.6090  -25.9580   27.8080 C   0  0  0  0  0  1  0  0  0  0  0  0
  1  3  1  0
  2 10  1  0
  2  1  1  0
  4  2  1  0
  5  8  1  0
  6 10  1  0
  6  5  2  0
  7  9  1  0
  8 12  1  0
  9 13  1  0
  9  8  2  0
 10  7  2  0
 11 12  2  0
 14 21  2  0
 16 15  1  0
 17 18  1  0
 17 16  1  0
 18 27  1  0
 18 19  1  0
 19 20  1  0
 20 15  1  0
 20 14  1  0
 22 14  1  0
 22 13  1  0
 23 22  1  0
 24 27  1  0
 24 49  1  0
 25 24  2  0
 26 25  1  0
 26 28  2  0
 28 27  1  0
 29 30  1  0
 29 26  1  0
 31 30  2  0
 32 31  1  0
 33 32  2  0
 33 34  1  0
 34 29  2  0
 35 32  1  0
 36 37  1  0
 36 35  1  0
 38 37  2  0
 39 38  1  0
 40 39  2  0
 40 41  1  0
 41 36  2  0
 42 41  1  0
 43 39  1  0
 44 46  2  0
 44 25  1  0
 45 47  1  0
 45 44  1  0
 48 45  1  0
 49 51  1  0
 50 49  1  0
 53 65  1  0
 54 65  1  0
 55 54  1  0
 56 67  2  0
 57 63  1  0
 57 55  1  0
 57 62  1  0
 58 66  1  0
 59 64  1  0
 59 54  1  0
 59 61  1  0
 60 66  1  0
 61 60  1  0
 62 61  1  0
 64 63  1  0
 66 56  1  0
 68 58  1  0
 69 71  1  0
 69 68  1  0
 70 68  2  0
 72 81  2  0
 72 77  1  0
 73 77  1  0
 73 69  1  0
 74 73  1  0
 75 76  1  0
 75 74  1  0
 76 72  1  0
 77 78  2  0
 78 79  1  0
 80 79  2  0
 81 80  1  0
 82 56  1  0
 82 83  1  0
 83 86  1  0
 83 84  1  0
 84 88  1  0
 85 84  2  0
 88 87  1  0
 88 90  1  0
 89 90  1  0
 90 91  1  0
 92 82  1  0
 92 95  1  1
 93 92  1  0
 94 92  1  0
M  ISO  4  14 100  22 100  54 101  55 101
M  END
>  <TORSDO>  (32) 
F 22

>  <SCORE>  (32) 
-0.750

>  <name>  (32) 
31

>  <ligand_id>  (32) 
31

>  <original_smiles>  (32) 
[H]C([H])=C([H])c1c([H])c([H])c(N([H])C(=O)C([H])([H])C([H])([H])C([H])([H])Oc2c([H])c([H])c3c(c2[H])C([H])([H])N(C(=O)C([H])(N([H])C(=O)C([H])(N([H])C([H])([H])[H])C([H])([H])[H])C(C([H])([H])[H])(C([H])([H])[H])C([H])([H])[H])C([H])(C(=O)N([H])C2([H])c4c([H])c([H])c([H])c([H])c4C([H])([H])C([H])([H])C2([H])[H])C3([H])[H])c([H])c1C([H])([H])N([H])C(=O)N1C([H])([H])C([H])([H])C([H])([H])C([H])(n2nc(-c3c([H])c([H])c(Oc4c([H])c([H])c(F)c([H])c4F)c([H])c3[H])c(C(=O)N([H])[H])c2N([H])[H])C1([H])[H]

>  <smiles>  (32) 
[H]C([H])=C([H])c1c([H])c([H])c(N([H])C(=O)C([H])([H])C([H])([H])C([H])([H])Oc2c([H])c([H])c3c(c2[H])C([H])([H])N(C(=O)C([H])(N([H])C(=O)C([H])(N([H])C([H])([H])[H])C([H])([H])[H])C(C([H])([H])[H])(C([H])([H])[H])C([H])([H])[H])C([H])(C(=O)N([H])C2([H])c4c([H])c([H])c([H])c([H])c4C([H])([H])C([H])([H])C2([H])[H])C3([H])[H])c([H])c1C([H])([H])N([H])C(=O)N1C([H])([H])C([H])([H])C([H])([H])C([H])(n2nc(-c3c([H])c([H])c(Oc4c([H])c([H])c(F)c([H])c4F)c([H])c3[H])c(C(=O)N([H])[H])c2N([H])[H])C1([H])[H]

$$$$
32:0:0
     RDKit          3D

 93102  0  0  1  0  0  0  0  0999 V2000
  -30.8530  -22.3600   19.2200 C   0  0  0  0  0  0  0  0  0  0  0  0
  -30.4530  -23.8410   19.2110 C   0  0  0  0  0  2  0  0  0  0  0  0
  -28.7360  -22.4150   20.0870 C   0  0  0  0  0  2  0  0  0  0  0  0
  -29.1970  -23.9270   20.0740 C   0  0  0  0  0  3  0  0  0  0  0  0
  -29.8860  -21.5430   19.7090 N   0  0  0  0  0  0  0  0  0  0  0  0
  -31.9670  -22.0250   18.8100 O   0  0  0  0  0  0  0  0  0  0  0  0
  -30.9780  -19.2480   19.3010 C   0  0  0  0  0  3  0  0  0  0  0  0
  -31.0090  -17.8280   19.4320 C   0  0  0  0  0  3  0  0  0  0  0  0
  -28.9050  -19.3340   20.4970 C   0  0  0  0  0  3  0  0  0  0  0  0
  -28.9290  -17.9100   20.6360 C   0  0  0  0  0  0  0  0  0  0  0  0
  -29.9290  -20.0630   19.8320 C   0  0  0  0  0  0  0  0  0  0  0  0
  -29.9790  -17.1130   20.0960 C   0  0  0  0  0  0  0  0  0  0  0  0
  -27.7900  -17.2410   21.3880 C   0  0  0  0  0  1  0  0  0  0  0  0
  -30.6090  -14.6230   19.6370 C   0  0  0  0  0  0  0  0  0  0  0  0
  -30.2230  -12.4480   18.4970 C   0  0  0  0  0  2  0  0  0  0  0  0
  -29.1310  -12.6500   17.4220 C   0  0  0  0  0  2  0  0  0  0  0  0
  -27.7240  -12.4840   18.0290 C   0  0  0  0  0  2  0  0  0  0  0  0
  -27.5410  -13.2820   19.3490 C   0  0  0  0  0  3  0  0  0  0  0  0
  -28.7340  -13.0560   20.3070 C   0  0  0  0  0  2  0  0  0  0  0  0
  -29.9650  -13.4120   19.5840 N   0  0  0  0  0  0  0  0  0  0  0  0
  -31.7040  -14.7910   19.0940 O   0  0  0  0  0  0  0  0  0  0  0  0
  -29.8990  -15.6510   20.1960 N   0  0  0  0  0  0  0  0  0  0  0  0
  -29.0800  -15.3210   20.6820 H   0  0  0  0  0  0  0  0  0  0  0  0
  -25.2640  -13.8560   20.3940 C   0  0  0  0  0  0  0  0  0  0  0  0
  -24.2390  -13.0720   20.8540 C   0  0  0  0  0  0  0  0  0  0  0  0
  -24.6720  -11.7220   20.6840 C   0  0  0  0  0  0  0  0  0  0  0  0
  -26.2580  -12.9830   19.9830 N   0  0  0  0  0  0  0  0  0  0  0  0
  -25.9140  -11.6900   20.2150 N   0  0  0  0  0  0  0  0  0  0  0  0
  -23.9530  -10.4570   20.8890 C   0  0  0  0  0  0  0  0  0  0  0  0
  -24.4160   -9.4830   21.8020 C   0  0  0  0  0  3  0  0  0  0  0  0
  -23.6970   -8.2840   21.9940 C   0  0  0  0  0  3  0  0  0  0  0  0
  -22.5010   -8.0490   21.2750 C   0  0  0  0  0  0  0  0  0  0  0  0
  -22.0570   -9.0120   20.3500 C   0  0  0  0  0  3  0  0  0  0  0  0
  -22.7760  -10.2030   20.1560 C   0  0  0  0  0  3  0  0  0  0  0  0
  -21.7520   -6.9030   21.3780 O   0  0  0  0  0  0  0  0  0  0  0  0
  -21.6440   -6.2160   22.5610 C   0  0  0  0  0  0  0  0  0  0  0  0
  -21.1430   -6.8240   23.7320 C   0  0  0  0  0  3  0  0  0  0  0  0
  -20.9860   -6.0630   24.9080 C   0  0  0  0  0  3  0  0  0  0  0  0
  -21.3220   -4.6970   24.9130 C   0  0  0  0  0  0  0  0  0  0  0  0
  -21.8170   -4.0890   23.7460 C   0  0  0  0  0  3  0  0  0  0  0  0
  -21.9760   -4.8460   22.5730 C   0  0  0  0  0  0  0  0  0  0  0  0
  -22.4340   -4.2510   21.4460 F   0  0  0  0  0  0  0  0  0  0  0  0
  -21.1640   -3.9630   26.0400 F   0  0  0  0  0  0  0  0  0  0  0  0
  -22.8950  -13.5460   21.3280 C   0  0  0  0  0  0  0  0  0  0  0  0
  -22.2820  -12.8190   22.2560 N   0  0  0  0  0  0  0  0  0  0  0  0
  -22.4020  -14.5930   20.9100 O   0  0  0  0  0  0  0  0  0  0  0  0
  -22.6960  -11.9700   22.6130 H   0  0  0  0  0  0  0  0  0  0  0  0
  -21.3880  -13.1170   22.6170 H   0  0  0  0  0  0  0  0  0  0  0  0
  -25.4220  -15.2330   20.2670 N   0  0  0  0  0  0  0  0  0  0  0  0
  -24.6710  -15.8790   20.4840 H   0  0  0  0  0  0  0  0  0  0  0  0
  -26.1970  -15.6740   19.7910 H   0  0  0  0  0  0  0  0  0  0  0  0
  -28.1370  -25.0120   19.6040 C   0  0  0  0  0  2  0  0  0  0  0  0
  -28.3470  -26.4570   19.8430 O   0  0  0  0  0  0  0  0  0  0  0  0
  -24.4950  -31.6340   23.0640 C   0  0  0  0  0  0  0  0  0  0  0  0
  -27.2050  -27.2770   19.8220 C   0  0  0  0  0  0  0  0  0  0  0  0
  -23.3180  -30.2760   21.3710 C   0  0  0  0  0  3  0  0  0  0  0  0
  -24.8000  -28.8240   19.8820 C   0  0  0  0  0  0  0  0  0  0  0  0
  -25.8480  -30.6630   21.2000 C   0  0  0  0  0  2  0  0  0  0  0  0
  -25.9580  -29.3160   20.4950 C   0  0  0  0  0  0  0  0  0  0  0  0
  -27.1630  -28.5540   20.4590 C   0  0  0  0  0  3  0  0  0  0  0  0
  -26.0200  -26.8410   19.1830 C   0  0  0  0  0  3  0  0  0  0  0  0
  -24.8320  -27.5890   19.2190 C   0  0  0  0  0  3  0  0  0  0  0  0
  -23.5450  -29.6650   19.9640 C   0  0  0  0  0  2  0  0  0  0  0  0
  -24.5720  -30.8730   21.9360 N   0  0  0  0  0  0  0  0  0  0  0  0
  -23.4090  -31.8660   23.6130 O   0  0  0  0  0  0  0  0  0  0  0  0
  -22.6830  -29.2070   22.2920 C   0  0  0  0  0  0  0  0  0  0  0  0
  -21.3610  -29.0010   22.1580 N   0  0  0  0  0  0  0  0  0  0  0  0
  -23.3770  -28.5680   23.0860 O   0  0  0  0  0  0  0  0  0  0  0  0
  -20.8570  -29.5730   21.4950 H   0  0  0  0  0  0  0  0  0  0  0  0
  -18.0090  -27.7320   22.6420 C   0  0  0  0  0  0  0  0  0  0  0  0
  -20.5660  -28.0170   22.8960 C   0  0  0  0  0  3  0  0  0  0  0  0
  -20.6830  -26.6140   22.2550 C   0  0  0  0  0  2  0  0  0  0  0  0
  -19.5740  -26.3200   21.2400 C   0  0  0  0  0  2  0  0  0  0  0  0
  -18.1970  -26.4150   21.9050 C   0  0  0  0  0  2  0  0  0  0  0  0
  -19.1210  -28.4890   23.0950 C   0  0  0  0  0  0  0  0  0  0  0  0
  -18.8910  -29.7200   23.7470 C   0  0  0  0  0  3  0  0  0  0  0  0
  -17.5810  -30.1930   23.9500 C   0  0  0  0  0  3  0  0  0  0  0  0
  -16.4830  -29.4310   23.5150 C   0  0  0  0  0  3  0  0  0  0  0  0
  -16.6980  -28.2030   22.8660 C   0  0  0  0  0  3  0  0  0  0  0  0
  -25.7700  -32.2690   23.7050 C   0  0  0  0  0  3  0  0  0  0  0  0
  -25.4410  -33.6550   24.0680 N   0  0  0  0  0  0  0  0  0  0  0  0
  -25.7290  -34.7270   23.3190 C   0  0  0  0  0  0  0  0  0  0  0  0
  -26.3720  -34.6570   22.2680 O   0  0  0  0  0  0  0  0  0  0  0  0
  -24.8730  -33.7830   24.8940 H   0  0  0  0  0  0  0  0  0  0  0  0
  -23.9420  -36.4760   23.0600 C   0  0  0  0  0  1  0  0  0  0  0  0
  -25.2250  -36.0960   23.8150 C   0  0  0  0  0  3  0  0  0  0  0  0
  -27.3650  -37.0310   24.5730 C   0  0  0  0  0  1  0  0  0  0  0  0
  -26.2240  -37.1780   23.6730 N   0  0  0  0  0  0  0  0  0  0  0  0
  -25.7990  -38.0850   23.8460 H   0  0  0  0  0  0  0  0  0  0  0  0
  -26.2950  -31.4740   24.9640 C   0  0  1  0  0  0  0  0  0  0  0  0
  -25.2030  -31.1940   26.0220 C   0  0  0  0  0  1  0  0  0  0  0  0
  -26.9030  -30.1160   24.5400 C   0  0  0  0  0  1  0  0  0  0  0  0
  -27.4300  -32.2710   25.6490 C   0  0  0  0  0  1  0  0  0  0  0  0
  1  5  1  0
  2  1  1  0
  2  4  1  0
  4 52  1  0
  4  3  1  0
  5 11  1  0
  5  3  1  0
  6  1  2  0
  7  8  2  0
  7 11  1  0
  8 12  1  0
  9 10  1  0
 10 13  1  0
 11  9  2  0
 12 22  1  0
 12 10  2  0
 14 22  1  0
 15 20  1  0
 16 17  1  0
 16 15  1  0
 18 17  1  0
 18 27  1  0
 18 19  1  0
 20 14  1  0
 20 19  1  0
 21 14  2  0
 22 23  1  0
 24 25  2  0
 25 44  1  0
 26 25  1  0
 26 29  1  0
 27 28  1  0
 27 24  1  0
 28 26  2  0
 29 30  1  0
 30 31  2  0
 32 35  1  0
 32 31  1  0
 33 32  2  0
 34 33  1  0
 34 29  2  0
 35 36  1  0
 36 41  2  0
 36 37  1  0
 37 38  2  0
 38 39  1  0
 39 43  1  0
 40 39  2  0
 41 40  1  0
 42 41  1  0
 44 45  1  0
 45 47  1  0
 45 48  1  0
 46 44  2  0
 49 24  1  0
 49 50  1  0
 51 49  1  0
 52 53  1  0
 54 65  2  0
 55 53  1  0
 55 60  1  0
 56 64  1  0
 56 66  1  0
 57 63  1  0
 57 59  1  0
 58 64  1  0
 59 58  1  0
 60 59  2  0
 61 62  1  0
 61 55  2  0
 62 57  2  0
 63 56  1  0
 64 54  1  0
 66 68  2  0
 67 66  1  0
 69 67  1  0
 70 79  2  0
 70 75  1  0
 71 67  1  0
 71 75  1  0
 72 71  1  0
 73 74  1  0
 73 72  1  0
 74 70  1  0
 75 76  2  0
 76 77  1  0
 78 77  2  0
 79 78  1  0
 80 54  1  0
 80 81  1  0
 80 90  1  0
 81 84  1  0
 82 86  1  0
 82 81  1  0
 83 82  2  0
 86 85  1  0
 88 86  1  0
 88 89  1  0
 88 87  1  0
 90 93  1  1
 90 91  1  0
 92 90  1  0
M  ISO  4  14 100  22 100  52 101  53 101
M  END
>  <TORSDO>  (33) 
F 18

>  <SCORE>  (33) 
-11.958

>  <name>  (33) 
32

>  <ligand_id>  (33) 
32

>  <original_smiles>  (33) 
[H]c1c([H])c([H])c2c(c1[H])C([H])([H])C([H])([H])C([H])([H])C2([H])N([H])C(=O)C1([H])N(C(=O)C([H])(N([H])C(=O)C([H])(N([H])C([H])([H])[H])C([H])([H])[H])C(C([H])([H])[H])(C([H])([H])[H])C([H])([H])[H])C([H])([H])c2c([H])c(OC([H])([H])C3([H])C([H])([H])C(=O)N(c4c([H])c([H])c(N([H])C(=O)N5C([H])([H])C([H])([H])C([H])([H])C([H])(n6nc(-c7c([H])c([H])c(Oc8c([H])c([H])c(F)c([H])c8F)c([H])c7[H])c(C(=O)N([H])[H])c6N([H])[H])C5([H])[H])c(C([H])([H])[H])c4[H])C3([H])[H])c([H])c([H])c2C1([H])[H]

>  <smiles>  (33) 
[H]c1c([H])c([H])c2c(c1[H])C([H])([H])C([H])([H])C([H])([H])C2([H])N([H])C(=O)C1([H])N(C(=O)C([H])(N([H])C(=O)C([H])(N([H])C([H])([H])[H])C([H])([H])[H])C(C([H])([H])[H])(C([H])([H])[H])C([H])([H])[H])C([H])([H])c2c([H])c(OC([H])([H])C3([H])C([H])([H])C(=O)N(c4c([H])c([H])c(N([H])C(=O)N5C([H])([H])C([H])([H])C([H])([H])C([H])(n6nc(-c7c([H])c([H])c(Oc8c([H])c([H])c(F)c([H])c8F)c([H])c7[H])c(C(=O)N([H])[H])c6N([H])[H])C5([H])[H])c(C([H])([H])[H])c4[H])C3([H])[H])c([H])c([H])c2C1([H])[H]

$$$$
33:0:0
     RDKit          3D

 92100  0  0  1  0  0  0  0  0999 V2000
  -28.9370  -23.4560   20.2830 C   0  0  0  0  0  0  0  0  0  0  0  0
  -28.5110  -22.1220   20.5210 N   0  0  0  0  0  0  0  0  0  0  0  0
  -30.0300  -23.6770   19.7550 O   0  0  0  0  0  0  0  0  0  0  0  0
  -27.5470  -22.1500   20.8280 H   0  0  0  0  0  0  0  0  0  0  0  0
  -28.3380  -18.2370   19.9310 C   0  0  0  0  0  3  0  0  0  0  0  0
  -28.0870  -19.6620   19.9360 C   0  0  0  0  0  3  0  0  0  0  0  0
  -30.4910  -18.5980   20.8110 C   0  0  0  0  0  3  0  0  0  0  0  0
  -30.2340  -20.0480   20.8380 C   0  0  0  0  0  0  0  0  0  0  0  0
  -29.5420  -17.6020   20.3780 C   0  0  0  0  0  0  0  0  0  0  0  0
  -29.0030  -20.6680   20.3870 C   0  0  0  0  0  0  0  0  0  0  0  0
  -31.2990  -20.9220   21.4710 C   0  0  0  0  0  1  0  0  0  0  0  0
  -30.4810  -14.9760   20.3580 C   0  0  0  0  0  0  0  0  0  0  0  0
  -30.4030  -12.6270   19.4030 C   0  0  0  0  0  2  0  0  0  0  0  0
  -29.4610  -12.6000   18.1760 C   0  0  0  0  0  2  0  0  0  0  0  0
  -27.9970  -12.3940   18.6080 C   0  0  0  0  0  2  0  0  0  0  0  0
  -27.5930  -13.3050   19.7960 C   0  0  0  0  0  3  0  0  0  0  0  0
  -28.6510  -13.2830   20.9190 C   0  0  0  0  0  2  0  0  0  0  0  0
  -29.9260  -13.6990   20.3180 N   0  0  0  0  0  0  0  0  0  0  0  0
  -31.6810  -15.1000   20.0990 O   0  0  0  0  0  0  0  0  0  0  0  0
  -29.5860  -16.0700   20.4620 N   0  0  0  0  0  0  0  0  0  0  0  0
  -28.6570  -15.6860   20.5220 H   0  0  0  0  0  0  0  0  0  0  0  0
  -25.2070  -13.8890   20.5270 C   0  0  0  0  0  0  0  0  0  0  0  0
  -24.1400  -13.1140   20.8870 C   0  0  0  0  0  0  0  0  0  0  0  0
  -24.6050  -11.7640   20.8550 C   0  0  0  0  0  0  0  0  0  0  0  0
  -26.2520  -13.0120   20.2890 N   0  0  0  0  0  0  0  0  0  0  0  0
  -25.8970  -11.7280   20.5520 N   0  0  0  0  0  0  0  0  0  0  0  0
  -23.8770  -10.5020   21.0400 C   0  0  0  0  0  0  0  0  0  0  0  0
  -24.2980   -9.5360   21.9810 C   0  0  0  0  0  3  0  0  0  0  0  0
  -23.5700   -8.3390   22.1540 C   0  0  0  0  0  3  0  0  0  0  0  0
  -22.4080   -8.1000   21.3830 C   0  0  0  0  0  0  0  0  0  0  0  0
  -22.0070   -9.0530   20.4300 C   0  0  0  0  0  3  0  0  0  0  0  0
  -22.7370  -10.2400   20.2570 C   0  0  0  0  0  3  0  0  0  0  0  0
  -21.6530   -6.9540   21.4650 O   0  0  0  0  0  0  0  0  0  0  0  0
  -21.5770   -6.2220   22.6220 C   0  0  0  0  0  0  0  0  0  0  0  0
  -21.1040   -6.7810   23.8280 C   0  0  0  0  0  3  0  0  0  0  0  0
  -20.9780   -5.9750   24.9780 C   0  0  0  0  0  3  0  0  0  0  0  0
  -21.3150   -4.6090   24.9200 C   0  0  0  0  0  0  0  0  0  0  0  0
  -21.7810   -4.0490   23.7160 C   0  0  0  0  0  3  0  0  0  0  0  0
  -21.9080   -4.8530   22.5690 C   0  0  0  0  0  0  0  0  0  0  0  0
  -22.3380   -4.3030   21.4080 F   0  0  0  0  0  0  0  0  0  0  0  0
  -21.1870   -3.8320   26.0200 F   0  0  0  0  0  0  0  0  0  0  0  0
  -22.7420  -13.5900   21.1510 C   0  0  0  0  0  0  0  0  0  0  0  0
  -22.0090  -12.8920   22.0100 N   0  0  0  0  0  0  0  0  0  0  0  0
  -22.3070  -14.6170   20.6320 O   0  0  0  0  0  0  0  0  0  0  0  0
  -22.3740  -12.0620   22.4530 H   0  0  0  0  0  0  0  0  0  0  0  0
  -21.0700  -13.1950   22.2320 H   0  0  0  0  0  0  0  0  0  0  0  0
  -25.3690  -15.2620   20.3620 N   0  0  0  0  0  0  0  0  0  0  0  0
  -24.6030  -15.9120   20.4980 H   0  0  0  0  0  0  0  0  0  0  0  0
  -26.2180  -15.7150   20.0580 H   0  0  0  0  0  0  0  0  0  0  0  0
  -28.1030  -24.8970   22.2380 C   0  0  0  0  0  1  0  0  0  0  0  0
  -28.0090  -24.7670   20.7090 C   0  0  0  0  0  3  0  0  0  0  0  0
  -28.2740  -26.2200   20.2150 O   0  0  0  0  0  0  0  0  0  0  0  0
  -24.6130  -31.8840   23.2160 C   0  0  0  0  0  0  0  0  0  0  0  0
  -27.2100  -27.1890   20.1920 C   0  0  0  0  0  0  0  0  0  0  0  0
  -23.4120  -30.4800   21.5830 C   0  0  0  0  0  3  0  0  0  0  0  0
  -24.8650  -28.9070   20.1610 C   0  0  0  0  0  0  0  0  0  0  0  0
  -25.9610  -30.7630   21.4070 C   0  0  0  0  0  2  0  0  0  0  0  0
  -26.0440  -29.3680   20.7600 C   0  0  0  0  0  0  0  0  0  0  0  0
  -27.2180  -28.5260   20.7570 C   0  0  0  0  0  3  0  0  0  0  0  0
  -26.0060  -26.8270   19.5500 C   0  0  0  0  0  3  0  0  0  0  0  0
  -24.8570  -27.6490   19.5410 C   0  0  0  0  0  3  0  0  0  0  0  0
  -23.6310  -29.7950   20.2080 C   0  0  0  0  0  2  0  0  0  0  0  0
  -24.6810  -31.0650   22.1230 N   0  0  0  0  0  0  0  0  0  0  0  0
  -23.5280  -32.1660   23.7480 O   0  0  0  0  0  0  0  0  0  0  0  0
  -22.7410  -29.4730   22.5510 C   0  0  0  0  0  0  0  0  0  0  0  0
  -21.4140  -29.2900   22.4260 N   0  0  0  0  0  0  0  0  0  0  0  0
  -23.4150  -28.8600   23.3830 O   0  0  0  0  0  0  0  0  0  0  0  0
  -20.9270  -29.8350   21.7280 H   0  0  0  0  0  0  0  0  0  0  0  0
  -18.0440  -28.0610   22.9310 C   0  0  0  0  0  0  0  0  0  0  0  0
  -20.5990  -28.3510   23.2010 C   0  0  0  0  0  3  0  0  0  0  0  0
  -20.7160  -26.9160   22.6390 C   0  0  0  0  0  2  0  0  0  0  0  0
  -19.6210  -26.5750   21.6240 C   0  0  0  0  0  2  0  0  0  0  0  0
  -18.2340  -26.7110   22.2620 C   0  0  0  0  0  2  0  0  0  0  0  0
  -19.1540  -28.8390   23.3570 C   0  0  0  0  0  0  0  0  0  0  0  0
  -18.9200  -30.1010   23.9440 C   0  0  0  0  0  3  0  0  0  0  0  0
  -17.6090  -30.5870   24.1060 C   0  0  0  0  0  3  0  0  0  0  0  0
  -16.5140  -29.8080   23.6930 C   0  0  0  0  0  3  0  0  0  0  0  0
  -16.7330  -28.5450   23.1150 C   0  0  0  0  0  3  0  0  0  0  0  0
  -25.8920  -32.5250   23.8370 C   0  0  0  0  0  3  0  0  0  0  0  0
  -25.5800  -33.9260   24.1630 N   0  0  0  0  0  0  0  0  0  0  0  0
  -25.9080  -34.9790   23.4010 C   0  0  0  0  0  0  0  0  0  0  0  0
  -26.5730  -34.8730   22.3670 O   0  0  0  0  0  0  0  0  0  0  0  0
  -24.9920  -34.0830   24.9700 H   0  0  0  0  0  0  0  0  0  0  0  0
  -24.1820  -36.7760   23.0470 C   0  0  0  0  0  1  0  0  0  0  0  0
  -25.4230  -36.3700   23.8590 C   0  0  0  0  0  3  0  0  0  0  0  0
  -27.5570  -37.2530   24.6930 C   0  0  0  0  0  1  0  0  0  0  0  0
  -26.4570  -37.4210   23.7470 N   0  0  0  0  0  0  0  0  0  0  0  0
  -26.0520  -38.3420   23.8930 H   0  0  0  0  0  0  0  0  0  0  0  0
  -26.4070  -31.7640   25.1210 C   0  0  1  0  0  0  0  0  0  0  0  0
  -25.3150  -31.5420   26.1940 C   0  0  0  0  0  1  0  0  0  0  0  0
  -26.9850  -30.3780   24.7480 C   0  0  0  0  0  1  0  0  0  0  0  0
  -27.5620  -32.5590   25.7710 C   0  0  0  0  0  1  0  0  0  0  0  0
  1  2  1  0
  1 51  1  0
  2  4  1  0
  3  1  2  0
  5  6  2  0
  5  9  1  0
  6 10  1  0
  7  8  1  0
  8 11  1  0
  9 20  1  0
  9  7  2  0
 10  2  1  0
 10  8  2  0
 12 20  1  0
 13 18  1  0
 14 15  1  0
 14 13  1  0
 16 15  1  0
 16 25  1  0
 16 17  1  0
 18 12  1  0
 18 17  1  0
 19 12  2  0
 20 21  1  0
 22 23  2  0
 23 42  1  0
 24 23  1  0
 24 27  1  0
 25 22  1  0
 25 26  1  0
 26 24  2  0
 27 28  1  0
 28 29  2  0
 30 33  1  0
 30 29  1  0
 31 30  2  0
 32 31  1  0
 32 27  2  0
 33 34  1  0
 34 35  1  0
 35 36  2  0
 37 36  1  0
 37 41  1  0
 38 37  2  0
 39 34  2  0
 39 38  1  0
 40 39  1  0
 42 43  1  0
 43 46  1  0
 43 45  1  0
 44 42  2  0
 47 48  1  0
 47 22  1  0
 49 47  1  0
 51 50  1  0
 52 51  1  0
 53 64  2  0
 54 52  1  0
 54 59  1  0
 55 63  1  0
 55 65  1  0
 56 62  1  0
 56 58  1  0
 57 63  1  0
 58 57  1  0
 59 58  2  0
 60 54  2  0
 61 60  1  0
 61 56  2  0
 62 55  1  0
 63 53  1  0
 65 67  2  0
 66 65  1  0
 68 66  1  0
 69 78  2  0
 69 74  1  0
 70 66  1  0
 70 74  1  0
 71 70  1  0
 72 73  1  0
 72 71  1  0
 73 69  1  0
 74 75  2  0
 75 76  1  0
 77 76  2  0
 78 77  1  0
 79 53  1  0
 79 80  1  0
 79 89  1  0
 80 83  1  0
 81 85  1  0
 81 80  1  0
 82 81  2  0
 85 84  1  0
 87 85  1  0
 87 88  1  0
 87 86  1  0
 89 92  1  1
 89 90  1  0
 91 89  1  0
M  ISO  4  12 100  20 100  51 101  52 101
M  END
>  <TORSDO>  (34) 
F 18

>  <SCORE>  (34) 
-14.887

>  <name>  (34) 
33

>  <ligand_id>  (34) 
33

>  <original_smiles>  (34) 
[H]c1c([H])c([H])c2c(c1[H])C([H])([H])C([H])([H])C([H])([H])C2([H])N([H])C(=O)C1([H])N(C(=O)C([H])(N([H])C(=O)C([H])(N([H])C([H])([H])[H])C([H])([H])[H])C(C([H])([H])[H])(C([H])([H])[H])C([H])([H])[H])C([H])([H])c2c([H])c(OC([H])(C(=O)N([H])c3c([H])c([H])c(N([H])C(=O)N4C([H])([H])C([H])([H])C([H])([H])C([H])(n5nc(-c6c([H])c([H])c(Oc7c([H])c([H])c(F)c([H])c7F)c([H])c6[H])c(C(=O)N([H])[H])c5N([H])[H])C4([H])[H])c([H])c3C([H])([H])[H])C([H])([H])[H])c([H])c([H])c2C1([H])[H]

>  <smiles>  (34) 
[H]c1c([H])c([H])c2c(c1[H])C([H])([H])C([H])([H])C([H])([H])C2([H])N([H])C(=O)C1([H])N(C(=O)C([H])(N([H])C(=O)C([H])(N([H])C([H])([H])[H])C([H])([H])[H])C(C([H])([H])[H])(C([H])([H])[H])C([H])([H])[H])C([H])([H])c2c([H])c(OC([H])(C(=O)N([H])c3c([H])c([H])c(N([H])C(=O)N4C([H])([H])C([H])([H])C([H])([H])C([H])(n5nc(-c6c([H])c([H])c(Oc7c([H])c([H])c(F)c([H])c7F)c([H])c6[H])c(C(=O)N([H])[H])c5N([H])[H])C4([H])[H])c([H])c3C([H])([H])[H])C([H])([H])[H])c([H])c([H])c2C1([H])[H]

$$$$
34:0:0
     RDKit          3D

 97105  0  0  1  0  0  0  0  0999 V2000
  -29.5180  -21.5650   21.0720 C   0  0  0  0  0  0  0  0  0  0  0  0
  -29.5580  -21.8930   22.3670 N   0  0  0  0  0  4  0  0  0  0  0  0
  -29.3280  -22.6130   20.2020 N   0  0  0  0  0  0  0  0  0  0  0  0
  -29.7020  -21.1720   23.0580 H   0  0  0  0  0  0  0  0  0  0  0  0
  -29.3970  -22.8320   22.6830 H   0  0  0  0  0  0  0  0  0  0  0  0
  -29.3410  -22.3550   19.2230 H   0  0  0  0  0  0  0  0  0  0  0  0
  -28.7590  -19.1710   21.3920 C   0  0  0  0  0  3  0  0  0  0  0  0
  -28.8970  -17.7600   21.2770 C   0  0  0  0  0  3  0  0  0  0  0  0
  -30.8460  -18.0510   19.9020 C   0  0  0  0  0  3  0  0  0  0  0  0
  -29.6510  -20.0790   20.7630 C   0  0  0  0  0  0  0  0  0  0  0  0
  -29.9490  -17.1510   20.5480 C   0  0  0  0  0  0  0  0  0  0  0  0
  -30.6990  -19.4790   20.0010 C   0  0  0  0  0  0  0  0  0  0  0  0
  -31.6150  -20.2710   19.3910 F   0  0  0  0  0  0  0  0  0  0  0  0
  -30.7300  -14.7270   19.8970 C   0  0  0  0  0  0  0  0  0  0  0  0
  -30.4630  -12.5340   18.7380 C   0  0  0  0  0  2  0  0  0  0  0  0
  -29.4170  -12.7070   17.6130 C   0  0  0  0  0  2  0  0  0  0  0  0
  -27.9790  -12.5390   18.1510 C   0  0  0  0  0  2  0  0  0  0  0  0
  -27.7300  -13.3430   19.4550 C   0  0  0  0  0  3  0  0  0  0  0  0
  -28.8720  -13.1120   20.4690 C   0  0  0  0  0  2  0  0  0  0  0  0
  -30.1340  -13.4940   19.8110 N   0  0  0  0  0  0  0  0  0  0  0  0
  -31.8260  -14.9560   19.3730 O   0  0  0  0  0  0  0  0  0  0  0  0
  -29.9610  -15.6860   20.4980 N   0  0  0  0  0  0  0  0  0  0  0  0
  -29.1650  -15.2640   20.9480 H   0  0  0  0  0  0  0  0  0  0  0  0
  -25.4100  -13.9280   20.3910 C   0  0  0  0  0  0  0  0  0  0  0  0
  -24.3690  -13.1460   20.8130 C   0  0  0  0  0  0  0  0  0  0  0  0
  -24.8130  -11.7940   20.6860 C   0  0  0  0  0  0  0  0  0  0  0  0
  -26.4220  -13.0510   20.0320 N   0  0  0  0  0  0  0  0  0  0  0  0
  -26.0720  -11.7610   20.2650 N   0  0  0  0  0  0  0  0  0  0  0  0
  -24.0930  -10.5300   20.8820 C   0  0  0  0  0  0  0  0  0  0  0  0
  -24.5280   -9.5700   21.8220 C   0  0  0  0  0  3  0  0  0  0  0  0
  -23.8090   -8.3710   22.0070 C   0  0  0  0  0  3  0  0  0  0  0  0
  -22.6380   -8.1210   21.2520 C   0  0  0  0  0  0  0  0  0  0  0  0
  -22.2200   -9.0700   20.3030 C   0  0  0  0  0  3  0  0  0  0  0  0
  -22.9400  -10.2630   20.1160 C   0  0  0  0  0  3  0  0  0  0  0  0
  -21.8910   -6.9720   21.3450 O   0  0  0  0  0  0  0  0  0  0  0  0
  -21.7510   -6.3000   22.5330 C   0  0  0  0  0  0  0  0  0  0  0  0
  -21.1870   -6.9120   23.6750 C   0  0  0  0  0  3  0  0  0  0  0  0
  -20.9970   -6.1640   24.8520 C   0  0  0  0  0  3  0  0  0  0  0  0
  -21.3580   -4.8040   24.8900 C   0  0  0  0  0  0  0  0  0  0  0  0
  -21.9130   -4.1910   23.7530 C   0  0  0  0  0  3  0  0  0  0  0  0
  -22.1060   -4.9360   22.5770 C   0  0  0  0  0  0  0  0  0  0  0  0
  -22.6210   -4.3360   21.4790 F   0  0  0  0  0  0  0  0  0  0  0  0
  -21.1660   -4.0830   26.0190 F   0  0  0  0  0  0  0  0  0  0  0  0
  -23.0030  -13.6210   21.2180 C   0  0  0  0  0  0  0  0  0  0  0  0
  -22.3460  -12.9020   22.1190 N   0  0  0  0  0  0  0  0  0  0  0  0
  -22.5310  -14.6670   20.7680 O   0  0  0  0  0  0  0  0  0  0  0  0
  -22.7390  -12.0540   22.5000 H   0  0  0  0  0  0  0  0  0  0  0  0
  -21.4330  -13.2000   22.4330 H   0  0  0  0  0  0  0  0  0  0  0  0
  -25.5700  -15.3030   20.2590 N   0  0  0  0  0  0  0  0  0  0  0  0
  -24.8080  -15.9450   20.4440 H   0  0  0  0  0  0  0  0  0  0  0  0
  -26.3650  -15.7490   19.8170 H   0  0  0  0  0  0  0  0  0  0  0  0
  -29.4560  -24.1160   20.4850 C   0  0  0  0  0  3  0  0  0  0  0  0
  -30.8600  -24.5550   20.0320 C   0  0  0  0  0  0  0  0  0  0  0  0
  -31.4370  -25.8280   20.6350 C   0  0  0  0  0  1  0  0  0  0  0  0
  -31.5240  -23.9210   19.2080 O   0  0  0  0  0  0  0  0  0  0  0  0
  -28.3650  -25.0920   19.8500 C   0  0  0  0  0  2  0  0  0  0  0  0
  -28.4640  -26.5460   20.1420 O   0  0  0  0  0  0  0  0  0  0  0  0
  -24.5220  -31.7260   23.2140 C   0  0  0  0  0  0  0  0  0  0  0  0
  -27.3170  -27.3520   20.0690 C   0  0  0  0  0  0  0  0  0  0  0  0
  -23.3850  -30.3420   21.5160 C   0  0  0  0  0  3  0  0  0  0  0  0
  -24.9030  -28.8850   20.0610 C   0  0  0  0  0  0  0  0  0  0  0  0
  -25.9130  -30.7520   21.3710 C   0  0  0  0  0  2  0  0  0  0  0  0
  -26.0460  -29.3960   20.6890 C   0  0  0  0  0  0  0  0  0  0  0  0
  -27.2570  -28.6410   20.6820 C   0  0  0  0  0  3  0  0  0  0  0  0
  -26.1560  -26.8970   19.4090 C   0  0  0  0  0  3  0  0  0  0  0  0
  -24.9610  -27.6430   19.4090 C   0  0  0  0  0  3  0  0  0  0  0  0
  -23.6350  -29.7170   20.1180 C   0  0  0  0  0  2  0  0  0  0  0  0
  -24.6250  -30.9560   22.0910 N   0  0  0  0  0  0  0  0  0  0  0  0
  -23.4250  -31.9490   23.7420 O   0  0  0  0  0  0  0  0  0  0  0  0
  -22.7450  -29.2730   22.4350 C   0  0  0  0  0  0  0  0  0  0  0  0
  -21.4310  -29.0430   22.2720 N   0  0  0  0  0  0  0  0  0  0  0  0
  -23.4300  -28.6540   23.2530 O   0  0  0  0  0  0  0  0  0  0  0  0
  -20.9340  -29.5940   21.5860 H   0  0  0  0  0  0  0  0  0  0  0  0
  -18.0890  -27.7210   22.6790 C   0  0  0  0  0  0  0  0  0  0  0  0
  -20.6340  -28.0570   23.0020 C   0  0  0  0  0  3  0  0  0  0  0  0
  -20.7920  -26.6470   22.3860 C   0  0  0  0  0  2  0  0  0  0  0  0
  -19.7170  -26.3210   21.3430 C   0  0  0  0  0  2  0  0  0  0  0  0
  -18.3210  -26.3990   21.9660 C   0  0  0  0  0  2  0  0  0  0  0  0
  -19.1740  -28.5070   23.1500 C   0  0  0  0  0  0  0  0  0  0  0  0
  -18.9000  -29.7450   23.7730 C   0  0  0  0  0  3  0  0  0  0  0  0
  -17.5750  -30.1940   23.9300 C   0  0  0  0  0  3  0  0  0  0  0  0
  -16.5050  -29.4040   23.4730 C   0  0  0  0  0  3  0  0  0  0  0  0
  -16.7640  -28.1690   22.8530 C   0  0  0  0  0  3  0  0  0  0  0  0
  -25.7760  -32.3770   23.8730 C   0  0  0  0  0  3  0  0  0  0  0  0
  -26.2510  -31.6270   25.1780 C   0  0  1  0  0  0  0  0  0  0  0  0
  -25.1200  -31.3840   26.2060 C   0  0  0  0  0  1  0  0  0  0  0  0
  -26.8680  -30.2550   24.8200 C   0  0  0  0  0  1  0  0  0  0  0  0
  -27.3670  -32.4430   25.8730 C   0  0  0  0  0  1  0  0  0  0  0  0
  -25.4430  -33.7760   24.1740 N   0  0  0  0  0  0  0  0  0  0  0  0
  -25.7700  -34.8200   23.3990 C   0  0  0  0  0  0  0  0  0  0  0  0
  -26.4550  -34.7060   22.3790 O   0  0  0  0  0  0  0  0  0  0  0  0
  -24.8380  -33.9380   24.9650 H   0  0  0  0  0  0  0  0  0  0  0  0
  -24.0050  -36.5680   23.0030 C   0  0  0  0  0  1  0  0  0  0  0  0
  -25.2550  -36.2090   23.8240 C   0  0  0  0  0  3  0  0  0  0  0  0
  -27.3710  -37.1560   24.6310 C   0  0  0  0  0  1  0  0  0  0  0  0
  -26.2660  -37.2820   23.6850 N   0  0  0  0  0  0  0  0  0  0  0  0
  -25.8390  -38.1950   23.8170 H   0  0  0  0  0  0  0  0  0  0  0  0
  1  2  2  0
  2  5  1  0
  2  4  1  0
  3 52  1  0
  3  1  1  0
  6  3  1  0
  8  7  1  0
  9 12  2  0
  9 11  1  0
 10  1  1  0
 10  7  2  0
 11  8  2  0
 12 10  1  0
 13 12  1  0
 14 22  1  0
 15 20  1  0
 16 17  1  0
 16 15  1  0
 18 17  1  0
 18 27  1  0
 18 19  1  0
 20 14  1  0
 20 19  1  0
 21 14  2  0
 22 11  1  0
 22 23  1  0
 24 25  2  0
 25 44  1  0
 26 25  1  0
 26 29  1  0
 27 28  1  0
 27 24  1  0
 28 26  2  0
 29 30  1  0
 30 31  2  0
 32 35  1  0
 32 31  1  0
 33 32  2  0
 34 33  1  0
 34 29  2  0
 35 36  1  0
 36 41  2  0
 36 37  1  0
 37 38  2  0
 38 39  1  0
 39 43  1  0
 40 39  2  0
 41 40  1  0
 42 41  1  0
 44 45  1  0
 45 48  1  0
 45 47  1  0
 46 44  2  0
 49 24  1  0
 49 50  1  0
 51 49  1  0
 52 56  1  0
 53 52  1  0
 53 54  1  0
 55 53  2  0
 56 57  1  0
 58 69  2  0
 59 57  1  0
 59 64  1  0
 60 68  1  0
 60 70  1  0
 61 67  1  0
 61 63  1  0
 62 68  1  0
 63 62  1  0
 64 63  2  0
 65 66  1  0
 65 59  2  0
 66 61  2  0
 67 60  1  0
 68 58  1  0
 70 72  2  0
 71 70  1  0
 73 71  1  0
 74 83  2  0
 74 79  1  0
 75 71  1  0
 75 79  1  0
 76 75  1  0
 77 78  1  0
 77 76  1  0
 78 74  1  0
 79 80  2  0
 80 81  1  0
 82 81  2  0
 83 82  1  0
 84 58  1  0
 84 89  1  0
 84 85  1  0
 85 88  1  1
 85 86  1  0
 87 85  1  0
 89 92  1  0
 90 94  1  0
 90 89  1  0
 91 90  2  0
 94 93  1  0
 96 97  1  0
 96 94  1  0
 96 95  1  0
M  ISO  4  14 100  22 100  56 101  57 101
M  END
>  <TORSDO>  (35) 
F 20

>  <SCORE>  (35) 
-12.395

>  <name>  (35) 
34

>  <ligand_id>  (35) 
34

>  <original_smiles>  (35) 
[H]c1c([H])c([H])c2c(c1[H])C([H])([H])C([H])([H])C([H])([H])C2([H])N([H])C(=O)C1([H])N(C(=O)C([H])(N([H])C(=O)C([H])(N([H])C([H])([H])[H])C([H])([H])[H])C(C([H])([H])[H])(C([H])([H])[H])C([H])([H])[H])C([H])([H])c2c([H])c(OC([H])([H])C([H])(C(=O)C([H])([H])[H])[N+]([H])=C(c3c([H])c([H])c(N([H])C(=O)N4C([H])([H])C([H])([H])C([H])([H])C([H])(n5nc(-c6c([H])c([H])c(Oc7c([H])c([H])c(F)c([H])c7F)c([H])c6[H])c(C(=O)N([H])[H])c5N([H])[H])C4([H])[H])c([H])c3F)N([H])[H])c([H])c([H])c2C1([H])[H]

>  <smiles>  (35) 
[H]c1c([H])c([H])c2c(c1[H])C([H])([H])C([H])([H])C([H])([H])C2([H])N([H])C(=O)C1([H])N(C(=O)C([H])(N([H])C(=O)C([H])(N([H])C([H])([H])[H])C([H])([H])[H])C(C([H])([H])[H])(C([H])([H])[H])C([H])([H])[H])C([H])([H])c2c([H])c(OC([H])([H])C([H])(C(=O)C([H])([H])[H])[N+]([H])=C(c3c([H])c([H])c(N([H])C(=O)N4C([H])([H])C([H])([H])C([H])([H])C([H])(n5nc(-c6c([H])c([H])c(Oc7c([H])c([H])c(F)c([H])c7F)c([H])c6[H])c(C(=O)N([H])[H])c5N([H])[H])C4([H])[H])c([H])c3F)N([H])[H])c([H])c([H])c2C1([H])[H]

$$$$
35:0:0
     RDKit          3D

100109  0  0  1  0  0  0  0  0999 V2000
  -28.3380  -20.0160   19.7860 C   0  0  0  0  0  3  0  0  0  0  0  0
  -28.5710  -17.6030   19.9250 C   0  0  0  0  0  3  0  0  0  0  0  0
  -30.2390  -19.0330   20.9590 C   0  0  0  0  0  3  0  0  0  0  0  0
  -27.8220  -18.7360   19.5240 C   0  0  0  0  0  0  0  0  0  0  0  0
  -29.5220  -20.2370   20.5250 C   0  0  0  0  0  0  0  0  0  0  0  0
  -29.7800  -17.6700   20.6640 C   0  0  0  0  0  0  0  0  0  0  0  0
  -31.0030  -15.2910   20.8260 C   0  0  0  0  0  0  0  0  0  0  0  0
  -30.9170  -12.9820   19.8430 C   0  0  0  0  0  2  0  0  0  0  0  0
  -30.0560  -13.0240   18.5590 C   0  0  0  0  0  2  0  0  0  0  0  0
  -28.5660  -12.8190   18.9000 C   0  0  0  0  0  2  0  0  0  0  0  0
  -28.1100  -13.7070   20.0820 C   0  0  0  0  0  3  0  0  0  0  0  0
  -29.0950  -13.6620   21.2700 C   0  0  0  0  0  2  0  0  0  0  0  0
  -30.4220  -14.0380   20.7650 N   0  0  0  0  0  0  0  0  0  0  0  0
  -32.1700  -15.4310   20.4530 O   0  0  0  0  0  0  0  0  0  0  0  0
  -30.2350  -16.3710   21.2780 N   0  0  0  0  0  0  0  0  0  0  0  0
  -29.4970  -15.9720   21.8360 H   0  0  0  0  0  0  0  0  0  0  0  0
  -25.7100  -14.3530   20.7120 C   0  0  0  0  0  0  0  0  0  0  0  0
  -24.6030  -13.6010   20.9860 C   0  0  0  0  0  0  0  0  0  0  0  0
  -25.0420  -12.2430   20.9560 C   0  0  0  0  0  0  0  0  0  0  0  0
  -26.7400  -13.4510   20.5000 N   0  0  0  0  0  0  0  0  0  0  0  0
  -26.3440  -12.1750   20.7130 N   0  0  0  0  0  0  0  0  0  0  0  0
  -24.2900  -10.9950   21.0840 C   0  0  0  0  0  0  0  0  0  0  0  0
  -24.6630  -10.0000   22.0140 C   0  0  0  0  0  3  0  0  0  0  0  0
  -23.9080   -8.8140   22.1250 C   0  0  0  0  0  3  0  0  0  0  0  0
  -22.7720   -8.6180   21.3040 C   0  0  0  0  0  0  0  0  0  0  0  0
  -22.4240   -9.6010   20.3620 C   0  0  0  0  0  3  0  0  0  0  0  0
  -23.1790  -10.7770   20.2490 C   0  0  0  0  0  3  0  0  0  0  0  0
  -21.9940   -7.4870   21.3250 O   0  0  0  0  0  0  0  0  0  0  0  0
  -21.8720   -6.7190   22.4550 C   0  0  0  0  0  0  0  0  0  0  0  0
  -21.4150   -7.2600   23.6760 C   0  0  0  0  0  3  0  0  0  0  0  0
  -21.2380   -6.4220   24.7940 C   0  0  0  0  0  3  0  0  0  0  0  0
  -21.5100   -5.0440   24.6890 C   0  0  0  0  0  0  0  0  0  0  0  0
  -21.9590   -4.5020   23.4730 C   0  0  0  0  0  3  0  0  0  0  0  0
  -22.1370   -5.3390   22.3570 C   0  0  0  0  0  0  0  0  0  0  0  0
  -22.5530   -4.8120   21.1790 F   0  0  0  0  0  0  0  0  0  0  0  0
  -21.3320   -4.2360   25.7610 F   0  0  0  0  0  0  0  0  0  0  0  0
  -23.2070  -14.1100   21.1970 C   0  0  0  0  0  0  0  0  0  0  0  0
  -22.4300  -13.4370   22.0370 N   0  0  0  0  0  0  0  0  0  0  0  0
  -22.8140  -15.1420   20.6540 O   0  0  0  0  0  0  0  0  0  0  0  0
  -22.7530  -12.5970   22.4930 H   0  0  0  0  0  0  0  0  0  0  0  0
  -21.4900  -13.7580   22.2220 H   0  0  0  0  0  0  0  0  0  0  0  0
  -25.9410  -15.7220   20.6230 N   0  0  0  0  0  0  0  0  0  0  0  0
  -25.1090  -16.2100   20.9520 H   0  0  0  0  0  0  0  0  0  0  0  0
  -26.6870  -15.9190   21.2790 H   0  0  0  0  0  0  0  0  0  0  0  0
  -29.0050  -22.7520   20.9370 C   0  0  0  0  0  0  0  0  0  0  0  0
  -31.0470  -23.7710   20.3870 C   0  0  0  0  0  2  0  0  0  0  0  0
  -31.2080  -22.2330   20.6300 C   0  0  0  0  0  2  0  0  0  0  0  0
  -29.6820  -24.1720   20.9730 C   0  0  0  0  0  3  0  0  0  0  0  0
  -29.8620  -21.6790   20.7560 N   0  0  0  0  0  0  0  0  0  0  0  0
  -27.7830  -22.6480   21.0980 O   0  0  0  0  0  0  0  0  0  0  0  0
  -28.8660  -25.4250   20.3250 C   0  0  0  0  0  2  0  0  0  0  0  0
  -29.0060  -26.8750   20.7230 O   0  0  0  0  0  0  0  0  0  0  0  0
  -24.9730  -32.0640   23.8140 C   0  0  0  0  0  0  0  0  0  0  0  0
  -27.8850  -27.7440   20.6280 C   0  0  0  0  0  0  0  0  0  0  0  0
  -23.9070  -30.7440   22.0210 C   0  0  0  0  0  3  0  0  0  0  0  0
  -25.4810  -29.3290   20.5800 C   0  0  0  0  0  0  0  0  0  0  0  0
  -26.4450  -31.1290   22.0080 C   0  0  0  0  0  2  0  0  0  0  0  0
  -26.6020  -29.7940   21.2790 C   0  0  0  0  0  0  0  0  0  0  0  0
  -27.8040  -29.0140   21.2970 C   0  0  0  0  0  3  0  0  0  0  0  0
  -26.7440  -27.3630   19.8820 C   0  0  0  0  0  3  0  0  0  0  0  0
  -25.5570  -28.1210   19.8710 C   0  0  0  0  0  3  0  0  0  0  0  0
  -24.2160  -30.1670   20.6150 C   0  0  0  0  0  2  0  0  0  0  0  0
  -25.1240  -31.3280   22.6720 N   0  0  0  0  0  0  0  0  0  0  0  0
  -23.8520  -32.2780   24.3010 O   0  0  0  0  0  0  0  0  0  0  0  0
  -23.2190  -29.6520   22.8760 C   0  0  0  0  0  0  0  0  0  0  0  0
  -21.9120  -29.4360   22.6470 N   0  0  0  0  0  0  0  0  0  0  0  0
  -23.8650  -29.0010   23.7020 O   0  0  0  0  0  0  0  0  0  0  0  0
  -21.4510  -30.0200   21.9650 H   0  0  0  0  0  0  0  0  0  0  0  0
  -18.5500  -28.1150   22.8720 C   0  0  0  0  0  0  0  0  0  0  0  0
  -21.0800  -28.4280   23.3060 C   0  0  0  0  0  3  0  0  0  0  0  0
  -21.2600  -27.0420   22.6460 C   0  0  0  0  0  2  0  0  0  0  0  0
  -20.2270  -26.7570   21.5490 C   0  0  0  0  0  2  0  0  0  0  0  0
  -18.8080  -26.8200   22.1210 C   0  0  0  0  0  2  0  0  0  0  0  0
  -19.6190  -28.8780   23.4140 C   0  0  0  0  0  0  0  0  0  0  0  0
  -19.3280  -30.0900   24.0770 C   0  0  0  0  0  3  0  0  0  0  0  0
  -18.0020  -30.5430   24.2010 C   0  0  0  0  0  3  0  0  0  0  0  0
  -16.9460  -29.7750   23.6770 C   0  0  0  0  0  3  0  0  0  0  0  0
  -17.2210  -28.5630   23.0180 C   0  0  0  0  0  3  0  0  0  0  0  0
  -26.1980  -32.6900   24.5490 C   0  0  0  0  0  3  0  0  0  0  0  0
  -25.8580  -34.0830   24.8740 N   0  0  0  0  0  0  0  0  0  0  0  0
  -26.2410  -35.1480   24.1570 C   0  0  0  0  0  0  0  0  0  0  0  0
  -26.9850  -35.0590   23.1760 O   0  0  0  0  0  0  0  0  0  0  0  0
  -25.2040  -34.2250   25.6290 H   0  0  0  0  0  0  0  0  0  0  0  0
  -24.5360  -36.9410   23.7060 C   0  0  0  0  0  1  0  0  0  0  0  0
  -25.7190  -36.5300   24.5960 C   0  0  0  0  0  3  0  0  0  0  0  0
  -27.7850  -37.4130   25.5850 C   0  0  0  0  0  1  0  0  0  0  0  0
  -26.7520  -37.5870   24.5670 N   0  0  0  0  0  0  0  0  0  0  0  0
  -26.3340  -38.5050   24.6950 H   0  0  0  0  0  0  0  0  0  0  0  0
  -26.6050  -31.9020   25.8560 C   0  0  1  0  0  0  0  0  0  0  0  0
  -25.4200  -31.6170   26.8100 C   0  0  0  0  0  1  0  0  0  0  0  0
  -27.2580  -30.5470   25.4980 C   0  0  0  0  0  1  0  0  0  0  0  0
  -27.6680  -32.7070   26.6410 C   0  0  0  0  0  1  0  0  0  0  0  0
  -26.4560  -18.6250   18.9050 C   0  0  0  0  0  0  0  0  0  0  0  0
  -25.7070  -17.6260   19.2610 N   0  0  0  0  0  4  0  0  0  0  0  0
  -25.7150  -17.3020   20.2430 H   0  0  0  0  0  0  0  0  0  0  0  0
  -24.8290  -17.4120   18.8020 H   0  0  0  0  0  0  0  0  0  0  0  0
  -24.8820  -19.5140   17.3760 C   0  0  0  0  0  3  0  0  0  0  0  0
  -25.9640  -19.5870   18.0570 N   0  0  0  0  0  0  0  0  0  0  0  0
  -23.4390  -20.5360   15.6520 C   0  0  0  0  0  2  0  0  0  0  0  0
  -24.3690  -20.6580   16.6130 C   0  0  0  0  0  3  0  0  0  0  0  0
  1  5  1  0
  2  6  2  0
  4  1  2  0
  4  2  1  0
  5 49  1  0
  5  3  2  0
  6  3  1  0
  6 15  1  0
  7 15  1  0
  8 13  1  0
  9 10  1  0
  9  8  1  0
 11 10  1  0
 11 20  1  0
 11 12  1  0
 13  7  1  0
 13 12  1  0
 14  7  2  0
 15 16  1  0
 17 18  2  0
 18 37  1  0
 19 18  1  0
 19 22  1  0
 20 17  1  0
 20 21  1  0
 21 19  2  0
 22 23  1  0
 23 24  2  0
 25 28  1  0
 25 24  1  0
 26 25  2  0
 27 26  1  0
 27 22  2  0
 28 29  1  0
 29 30  1  0
 30 31  2  0
 32 31  1  0
 32 36  1  0
 33 32  2  0
 34 29  2  0
 34 33  1  0
 35 34  1  0
 37 38  1  0
 38 41  1  0
 38 40  1  0
 39 37  2  0
 42 17  1  0
 42 43  1  0
 42 44  1  0
 45 48  1  0
 45 50  2  0
 46 47  1  0
 46 48  1  0
 47 49  1  0
 48 51  1  0
 49 45  1  0
 51 52  1  0
 53 64  2  0
 54 52  1  0
 54 59  1  0
 55 63  1  0
 55 65  1  0
 56 62  1  0
 56 58  1  0
 57 63  1  0
 58 59  2  0
 58 57  1  0
 60 54  2  0
 61 60  1  0
 61 56  2  0
 62 55  1  0
 63 53  1  0
 65 67  2  0
 66 65  1  0
 68 66  1  0
 69 78  2  0
 69 74  1  0
 70 66  1  0
 70 74  1  0
 71 70  1  0
 72 73  1  0
 72 71  1  0
 73 69  1  0
 74 75  2  0
 75 76  1  0
 77 76  2  0
 78 77  1  0
 79 53  1  0
 79 80  1  0
 79 89  1  0
 80 83  1  0
 81 85  1  0
 81 80  1  0
 82 81  2  0
 85 84  1  0
 87 85  1  0
 87 88  1  0
 87 86  1  0
 89 92  1  1
 89 90  1  0
 91 89  1  0
 93 94  2  0
 93  4  1  0
 94 95  1  0
 96 94  1  0
 97 98  2  0
 98 93  1  0
 99100  2  0
100 97  1  0
M  ISO  4   7 100  15 100  51 101  52 101
M  END
>  <TORSDO>  (36) 
F 21

>  <SCORE>  (36) 
-10.366

>  <name>  (36) 
35

>  <ligand_id>  (36) 
35

>  <original_smiles>  (36) 
[H]C(=NC(c1c([H])c(N([H])C(=O)N2C([H])([H])C([H])([H])C([H])([H])C([H])(n3nc(-c4c([H])c([H])c(Oc5c([H])c([H])c(F)c([H])c5F)c([H])c4[H])c(C(=O)N([H])[H])c3N([H])[H])C2([H])[H])c([H])c(N2C(=O)C([H])(C([H])([H])Oc3c([H])c([H])c4c(c3[H])C([H])([H])N(C(=O)C([H])(N([H])C(=O)C([H])(N([H])C([H])([H])[H])C([H])([H])[H])C(C([H])([H])[H])(C([H])([H])[H])C([H])([H])[H])C([H])(C(=O)N([H])C3([H])c5c([H])c([H])c([H])c([H])c5C([H])([H])C([H])([H])C3([H])[H])C4([H])[H])C([H])([H])C2([H])[H])c1[H])=[N+]([H])[H])C([H])=C([H])[H]

>  <smiles>  (36) 
[H]C(=NC(c1c([H])c(N([H])C(=O)N2C([H])([H])C([H])([H])C([H])([H])C([H])(n3nc(-c4c([H])c([H])c(Oc5c([H])c([H])c(F)c([H])c5F)c([H])c4[H])c(C(=O)N([H])[H])c3N([H])[H])C2([H])[H])c([H])c(N2C(=O)C([H])(C([H])([H])Oc3c([H])c([H])c4c(c3[H])C([H])([H])N(C(=O)C([H])(N([H])C(=O)C([H])(N([H])C([H])([H])[H])C([H])([H])[H])C(C([H])([H])[H])(C([H])([H])[H])C([H])([H])[H])C([H])(C(=O)N([H])C3([H])c5c([H])c([H])c([H])c([H])c5C([H])([H])C([H])([H])C3([H])[H])C4([H])[H])C([H])([H])C2([H])[H])c1[H])=[N+]([H])[H])C([H])=C([H])[H]

$$$$
36:0:0
     RDKit          3D

 94103  0  0  1  0  0  0  0  0999 V2000
  -30.8230  -23.3870   21.9570 C   0  0  0  0  0  3  0  0  0  0  0  0
  -30.1840  -24.3000   21.2080 C   0  0  0  0  0  3  0  0  0  0  0  0
  -30.9240  -21.9680   21.6180 C   0  0  0  0  0  0  0  0  0  0  0  0
  -29.1470  -22.4110   19.9190 C   0  0  0  0  0  2  0  0  0  0  0  0
  -29.4720  -23.9720   19.9270 C   0  0  0  0  0  3  0  0  0  0  0  0
  -30.1380  -21.4970   20.5990 N   0  0  0  0  0  0  0  0  0  0  0  0
  -31.7040  -21.2390   22.2410 O   0  0  0  0  0  0  0  0  0  0  0  0
  -31.2790  -19.2570   20.2280 C   0  0  0  0  0  3  0  0  0  0  0  0
  -31.2590  -17.8290   20.2280 C   0  0  0  0  0  3  0  0  0  0  0  0
  -28.8950  -19.3060   20.5260 C   0  0  0  0  0  3  0  0  0  0  0  0
  -28.8670  -17.8790   20.5510 C   0  0  0  0  0  0  0  0  0  0  0  0
  -30.1010  -20.0390   20.4010 C   0  0  0  0  0  0  0  0  0  0  0  0
  -30.0550  -17.0940   20.4100 C   0  0  0  0  0  0  0  0  0  0  0  0
  -27.5070  -17.2340   20.7720 C   0  0  0  0  0  1  0  0  0  0  0  0
  -30.7020  -14.6060   19.9320 C   0  0  0  0  0  0  0  0  0  0  0  0
  -30.3680  -12.4130   18.8040 C   0  0  0  0  0  2  0  0  0  0  0  0
  -29.3390  -12.6040   17.6680 C   0  0  0  0  0  2  0  0  0  0  0  0
  -27.8970  -12.4640   18.1980 C   0  0  0  0  0  2  0  0  0  0  0  0
  -27.6510  -13.2880   19.4900 C   0  0  0  0  0  3  0  0  0  0  0  0
  -28.7840  -13.0590   20.5150 C   0  0  0  0  0  2  0  0  0  0  0  0
  -30.0590  -13.3970   19.8590 N   0  0  0  0  0  0  0  0  0  0  0  0
  -31.8230  -14.7650   19.4380 O   0  0  0  0  0  0  0  0  0  0  0  0
  -29.9620  -15.6320   20.4530 N   0  0  0  0  0  0  0  0  0  0  0  0
  -29.1090  -15.2950   20.8690 H   0  0  0  0  0  0  0  0  0  0  0  0
  -25.3280  -13.9150   20.3960 C   0  0  0  0  0  0  0  0  0  0  0  0
  -24.2740  -13.1530   20.8220 C   0  0  0  0  0  0  0  0  0  0  0  0
  -24.6990  -11.7950   20.7110 C   0  0  0  0  0  0  0  0  0  0  0  0
  -26.3320  -13.0210   20.0590 N   0  0  0  0  0  0  0  0  0  0  0  0
  -25.9620  -11.7380   20.3070 N   0  0  0  0  0  0  0  0  0  0  0  0
  -23.9560  -10.5440   20.9100 C   0  0  0  0  0  0  0  0  0  0  0  0
  -24.3890   -9.5660   21.8340 C   0  0  0  0  0  3  0  0  0  0  0  0
  -23.6480   -8.3790   22.0200 C   0  0  0  0  0  3  0  0  0  0  0  0
  -22.4600   -8.1610   21.2840 C   0  0  0  0  0  0  0  0  0  0  0  0
  -22.0450   -9.1270   20.3500 C   0  0  0  0  0  3  0  0  0  0  0  0
  -22.7860  -10.3050   20.1610 C   0  0  0  0  0  3  0  0  0  0  0  0
  -21.6900   -7.0270   21.3820 O   0  0  0  0  0  0  0  0  0  0  0  0
  -21.5860   -6.3280   22.5570 C   0  0  0  0  0  0  0  0  0  0  0  0
  -21.1360   -6.9360   23.7490 C   0  0  0  0  0  3  0  0  0  0  0  0
  -20.9770   -6.1630   24.9170 C   0  0  0  0  0  3  0  0  0  0  0  0
  -21.2580   -4.7840   24.8940 C   0  0  0  0  0  0  0  0  0  0  0  0
  -21.7020   -4.1750   23.7050 C   0  0  0  0  0  3  0  0  0  0  0  0
  -21.8620   -4.9460   22.5400 C   0  0  0  0  0  0  0  0  0  0  0  0
  -22.2690   -4.3500   21.3930 F   0  0  0  0  0  0  0  0  0  0  0  0
  -21.0980   -4.0400   26.0130 F   0  0  0  0  0  0  0  0  0  0  0  0
  -22.9130  -13.6520   21.2140 C   0  0  0  0  0  0  0  0  0  0  0  0
  -22.2380  -12.9520   22.1190 N   0  0  0  0  0  0  0  0  0  0  0  0
  -22.4580  -14.6990   20.7520 O   0  0  0  0  0  0  0  0  0  0  0  0
  -22.6200  -12.1050   22.5150 H   0  0  0  0  0  0  0  0  0  0  0  0
  -21.3280  -13.2680   22.4210 H   0  0  0  0  0  0  0  0  0  0  0  0
  -25.5080  -15.2850   20.2430 N   0  0  0  0  0  0  0  0  0  0  0  0
  -24.7560  -15.9450   20.4120 H   0  0  0  0  0  0  0  0  0  0  0  0
  -26.3130  -15.7080   19.8010 H   0  0  0  0  0  0  0  0  0  0  0  0
  -28.2740  -24.9730   19.6410 C   0  0  0  0  0  2  0  0  0  0  0  0
  -28.4700  -26.4340   19.7960 O   0  0  0  0  0  0  0  0  0  0  0  0
  -24.6040  -31.5890   23.0610 C   0  0  0  0  0  0  0  0  0  0  0  0
  -27.3240  -27.2440   19.7990 C   0  0  0  0  0  0  0  0  0  0  0  0
  -23.4310  -30.2320   21.3670 C   0  0  0  0  0  3  0  0  0  0  0  0
  -24.9150  -28.7870   19.8720 C   0  0  0  0  0  0  0  0  0  0  0  0
  -25.9610  -30.6260   21.1900 C   0  0  0  0  0  2  0  0  0  0  0  0
  -26.0740  -29.2820   20.4840 C   0  0  0  0  0  0  0  0  0  0  0  0
  -27.2820  -28.5240   20.4360 C   0  0  0  0  0  3  0  0  0  0  0  0
  -26.1330  -26.8020   19.1750 C   0  0  0  0  0  3  0  0  0  0  0  0
  -24.9450  -27.5520   19.2120 C   0  0  0  0  0  3  0  0  0  0  0  0
  -23.6570  -29.6250   19.9580 C   0  0  0  0  0  2  0  0  0  0  0  0
  -24.6840  -30.8300   21.9300 N   0  0  0  0  0  0  0  0  0  0  0  0
  -23.5160  -31.8160   23.6090 O   0  0  0  0  0  0  0  0  0  0  0  0
  -22.8010  -29.1540   22.2820 C   0  0  0  0  0  0  0  0  0  0  0  0
  -21.4770  -28.9580   22.1610 N   0  0  0  0  0  0  0  0  0  0  0  0
  -23.5010  -28.5030   23.0630 O   0  0  0  0  0  0  0  0  0  0  0  0
  -20.9710  -29.5380   21.5070 H   0  0  0  0  0  0  0  0  0  0  0  0
  -18.1230  -27.7030   22.6670 C   0  0  0  0  0  0  0  0  0  0  0  0
  -20.6840  -27.9700   22.8950 C   0  0  0  0  0  3  0  0  0  0  0  0
  -20.7850  -26.5750   22.2390 C   0  0  0  0  0  2  0  0  0  0  0  0
  -19.6640  -26.2980   21.2320 C   0  0  0  0  0  2  0  0  0  0  0  0
  -18.2960  -26.3940   21.9140 C   0  0  0  0  0  2  0  0  0  0  0  0
  -19.2450  -28.4490   23.1150 C   0  0  0  0  0  0  0  0  0  0  0  0
  -19.0290  -29.6750   23.7810 C   0  0  0  0  0  3  0  0  0  0  0  0
  -17.7240  -30.1540   24.0040 C   0  0  0  0  0  3  0  0  0  0  0  0
  -16.6170  -29.4030   23.5710 C   0  0  0  0  0  3  0  0  0  0  0  0
  -16.8180  -28.1780   22.9090 C   0  0  0  0  0  3  0  0  0  0  0  0
  -25.8720  -32.2290   23.7050 C   0  0  0  0  0  3  0  0  0  0  0  0
  -25.5370  -33.6150   24.0620 N   0  0  0  0  0  0  0  0  0  0  0  0
  -25.8330  -34.6860   23.3130 C   0  0  0  0  0  0  0  0  0  0  0  0
  -26.4860  -34.6120   22.2690 O   0  0  0  0  0  0  0  0  0  0  0  0
  -24.9530  -33.7430   24.8760 H   0  0  0  0  0  0  0  0  0  0  0  0
  -24.0490  -36.4360   23.0290 C   0  0  0  0  0  1  0  0  0  0  0  0
  -25.3230  -36.0560   23.7990 C   0  0  0  0  0  3  0  0  0  0  0  0
  -27.4560  -36.9910   24.5790 C   0  0  0  0  0  1  0  0  0  0  0  0
  -26.3240  -37.1370   23.6670 N   0  0  0  0  0  0  0  0  0  0  0  0
  -25.8980  -38.0450   23.8320 H   0  0  0  0  0  0  0  0  0  0  0  0
  -26.3910  -31.4390   24.9700 C   0  0  1  0  0  0  0  0  0  0  0  0
  -25.2930  -31.1640   26.0240 C   0  0  0  0  0  1  0  0  0  0  0  0
  -26.9990  -30.0800   24.5550 C   0  0  0  0  0  1  0  0  0  0  0  0
  -27.5240  -32.2380   25.6560 C   0  0  0  0  0  1  0  0  0  0  0  0
  2  1  2  0
  3  1  1  0
  3  7  2  0
  4  5  1  0
  4  6  1  0
  5 53  1  0
  5  2  1  0
  6  3  1  0
  8  9  2  0
  8 12  1  0
  9 13  1  0
 10 11  1  0
 11 14  1  0
 12 10  2  0
 12  6  1  0
 13 23  1  0
 13 11  2  0
 15 23  1  0
 16 21  1  0
 17 18  1  0
 17 16  1  0
 19 18  1  0
 19 28  1  0
 19 20  1  0
 21 15  1  0
 21 20  1  0
 22 15  2  0
 23 24  1  0
 25 26  2  0
 26 45  1  0
 27 26  1  0
 27 30  1  0
 28 29  1  0
 28 25  1  0
 29 27  2  0
 30 31  1  0
 31 32  2  0
 33 36  1  0
 33 32  1  0
 34 33  2  0
 35 34  1  0
 35 30  2  0
 36 37  1  0
 37 38  1  0
 38 39  2  0
 40 39  1  0
 40 44  1  0
 41 40  2  0
 42 37  2  0
 42 41  1  0
 43 42  1  0
 45 46  1  0
 46 49  1  0
 46 48  1  0
 47 45  2  0
 50 25  1  0
 50 51  1  0
 52 50  1  0
 53 54  1  0
 54 56  1  0
 55 66  2  0
 56 61  1  0
 57 65  1  0
 57 67  1  0
 58 64  1  0
 58 60  1  0
 59 65  1  0
 60 59  1  0
 61 60  2  0
 62 63  1  0
 62 56  2  0
 63 58  2  0
 64 57  1  0
 65 55  1  0
 67 69  2  0
 68 67  1  0
 70 68  1  0
 71 80  2  0
 71 76  1  0
 72 68  1  0
 72 76  1  0
 73 72  1  0
 74 75  1  0
 74 73  1  0
 75 71  1  0
 76 77  2  0
 77 78  1  0
 79 78  2  0
 80 79  1  0
 81 55  1  0
 81 82  1  0
 81 91  1  0
 82 85  1  0
 83 87  1  0
 83 82  1  0
 84 83  2  0
 87 86  1  0
 89 87  1  0
 89 90  1  0
 89 88  1  0
 91 94  1  1
 91 92  1  0
 93 91  1  0
M  ISO  4  15 100  23 100  53 101  54 101
M  END
>  <TORSDO>  (37) 
F 18

>  <SCORE>  (37) 
-13.624

>  <name>  (37) 
36

>  <ligand_id>  (37) 
36

>  <original_smiles>  (37) 
[H]C1=C([H])C([H])(C([H])([H])Oc2c([H])c([H])c3c(c2[H])C([H])([H])N(C(=O)C([H])(N([H])C(=O)C([H])(N([H])C([H])([H])[H])C([H])([H])[H])C(C([H])([H])[H])(C([H])([H])[H])C([H])([H])[H])C([H])(C(=O)N([H])C2([H])c4c([H])c([H])c([H])c([H])c4C([H])([H])C([H])([H])C2([H])[H])C3([H])[H])C([H])([H])N(c2c([H])c([H])c(N([H])C(=O)N3C([H])([H])C([H])([H])C([H])([H])C([H])(n4nc(-c5c([H])c([H])c(Oc6c([H])c([H])c(F)c([H])c6F)c([H])c5[H])c(C(=O)N([H])[H])c4N([H])[H])C3([H])[H])c(C([H])([H])[H])c2[H])C1=O

>  <smiles>  (37) 
[H]C1=C([H])C([H])(C([H])([H])Oc2c([H])c([H])c3c(c2[H])C([H])([H])N(C(=O)C([H])(N([H])C(=O)C([H])(N([H])C([H])([H])[H])C([H])([H])[H])C(C([H])([H])[H])(C([H])([H])[H])C([H])([H])[H])C([H])(C(=O)N([H])C2([H])c4c([H])c([H])c([H])c([H])c4C([H])([H])C([H])([H])C2([H])[H])C3([H])[H])C([H])([H])N(c2c([H])c([H])c(N([H])C(=O)N3C([H])([H])C([H])([H])C([H])([H])C([H])(n4nc(-c5c([H])c([H])c(Oc6c([H])c([H])c(F)c([H])c6F)c([H])c5[H])c(C(=O)N([H])[H])c4N([H])[H])C3([H])[H])c(C([H])([H])[H])c2[H])C1=O

$$$$
37:0:0
     RDKit          3D

 94102  0  0  1  0  0  0  0  0999 V2000
  -30.4860  -19.2640   22.5100 C   0  0  0  0  0  3  0  0  0  0  0  0
  -30.4590  -18.0060   21.8680 C   0  0  0  0  0  3  0  0  0  0  0  0
  -29.5130  -20.5010   20.5900 C   0  0  0  0  0  0  0  0  0  0  0  0
  -30.0260  -20.4690   21.9190 C   0  0  0  0  0  0  0  0  0  0  0  0
  -29.9300  -17.8400   20.5750 C   0  0  0  0  0  0  0  0  0  0  0  0
  -29.4720  -19.1310   19.9590 C   0  0  0  0  0  0  0  0  0  0  0  0
  -28.9670  -19.0420   18.7040 F   0  0  0  0  0  0  0  0  0  0  0  0
  -30.5670  -15.1790   20.1040 C   0  0  0  0  0  0  0  0  0  0  0  0
  -30.4250  -12.8440   19.0790 C   0  0  0  0  0  2  0  0  0  0  0  0
  -29.4330  -12.7890   17.8950 C   0  0  0  0  0  2  0  0  0  0  0  0
  -27.9930  -12.5580   18.3960 C   0  0  0  0  0  2  0  0  0  0  0  0
  -27.6330  -13.4650   19.6000 C   0  0  0  0  0  3  0  0  0  0  0  0
  -28.7390  -13.4740   20.6720 C   0  0  0  0  0  2  0  0  0  0  0  0
  -29.9640  -13.9230   19.9990 N   0  0  0  0  0  0  0  0  0  0  0  0
  -31.7870  -15.2210   19.9000 O   0  0  0  0  0  0  0  0  0  0  0  0
  -29.7760  -16.3780   20.0850 N   0  0  0  0  0  0  0  0  0  0  0  0
  -28.8360  -16.1830   19.7780 H   0  0  0  0  0  0  0  0  0  0  0  0
  -25.2870  -14.0290   20.4480 C   0  0  0  0  0  0  0  0  0  0  0  0
  -24.2400  -13.2480   20.8490 C   0  0  0  0  0  0  0  0  0  0  0  0
  -24.7070  -11.8990   20.7900 C   0  0  0  0  0  0  0  0  0  0  0  0
  -26.3210  -13.1570   20.1580 N   0  0  0  0  0  0  0  0  0  0  0  0
  -25.9850  -11.8690   20.4300 N   0  0  0  0  0  0  0  0  0  0  0  0
  -23.9900  -10.6330   20.9930 C   0  0  0  0  0  0  0  0  0  0  0  0
  -24.4400   -9.6700   21.9220 C   0  0  0  0  0  3  0  0  0  0  0  0
  -23.7220   -8.4700   22.1140 C   0  0  0  0  0  3  0  0  0  0  0  0
  -22.5410   -8.2250   21.3760 C   0  0  0  0  0  0  0  0  0  0  0  0
  -22.1100   -9.1760   20.4350 C   0  0  0  0  0  3  0  0  0  0  0  0
  -22.8290  -10.3680   20.2410 C   0  0  0  0  0  3  0  0  0  0  0  0
  -21.7920   -7.0770   21.4770 O   0  0  0  0  0  0  0  0  0  0  0  0
  -21.7430   -6.3500   22.6400 C   0  0  0  0  0  0  0  0  0  0  0  0
  -21.2850   -6.9120   23.8510 C   0  0  0  0  0  3  0  0  0  0  0  0
  -21.1860   -6.1100   25.0060 C   0  0  0  0  0  3  0  0  0  0  0  0
  -21.5340   -4.7480   24.9490 C   0  0  0  0  0  0  0  0  0  0  0  0
  -21.9870   -4.1860   23.7430 C   0  0  0  0  0  3  0  0  0  0  0  0
  -22.0880   -4.9850   22.5910 C   0  0  0  0  0  0  0  0  0  0  0  0
  -22.5030   -4.4320   21.4260 F   0  0  0  0  0  0  0  0  0  0  0  0
  -21.4320   -3.9760   26.0570 F   0  0  0  0  0  0  0  0  0  0  0  0
  -22.8520  -13.7190   21.1720 C   0  0  0  0  0  0  0  0  0  0  0  0
  -22.1540  -13.0120   22.0530 N   0  0  0  0  0  0  0  0  0  0  0  0
  -22.3970  -14.7500   20.6790 O   0  0  0  0  0  0  0  0  0  0  0  0
  -22.5350  -12.1760   22.4720 H   0  0  0  0  0  0  0  0  0  0  0  0
  -21.2230  -13.3080   22.3120 H   0  0  0  0  0  0  0  0  0  0  0  0
  -25.4380  -15.4030   20.2770 N   0  0  0  0  0  0  0  0  0  0  0  0
  -24.6700  -16.0500   20.4210 H   0  0  0  0  0  0  0  0  0  0  0  0
  -26.2680  -15.8520   19.9130 H   0  0  0  0  0  0  0  0  0  0  0  0
  -30.1610  -21.6160   22.7100 N   0  0  0  0  0  0  0  0  0  0  0  0
  -30.3610  -21.4920   23.6980 H   0  0  0  0  0  0  0  0  0  0  0  0
  -29.5670  -22.4200   22.5430 H   0  0  0  0  0  0  0  0  0  0  0  0
  -29.2770  -21.9660   19.8760 C   0  0  0  0  0  0  0  0  0  0  0  0
  -29.8740  -22.1440   18.8080 O   0  0  0  0  0  0  0  0  0  0  0  0
  -27.1920  -22.8000   21.2380 C   0  0  0  0  0  1  0  0  0  0  0  0
  -28.3110  -23.2840   20.2980 C   0  0  0  0  0  3  0  0  0  0  0  0
  -28.7430  -24.8880   20.7270 C   0  0  0  0  0  2  0  0  0  0  0  0
  -28.5300  -26.3500   20.1730 O   0  0  0  0  0  0  0  0  0  0  0  0
  -24.7230  -31.9530   23.2740 C   0  0  0  0  0  0  0  0  0  0  0  0
  -27.4060  -27.2540   20.2810 C   0  0  0  0  0  0  0  0  0  0  0  0
  -23.5580  -30.5300   21.6310 C   0  0  0  0  0  3  0  0  0  0  0  0
  -25.0420  -28.9640   20.2290 C   0  0  0  0  0  0  0  0  0  0  0  0
  -26.1080  -30.8390   21.4740 C   0  0  0  0  0  2  0  0  0  0  0  0
  -26.2120  -29.4380   20.8370 C   0  0  0  0  0  0  0  0  0  0  0  0
  -27.3950  -28.6040   20.8330 C   0  0  0  0  0  3  0  0  0  0  0  0
  -26.2030  -26.8760   19.6520 C   0  0  0  0  0  3  0  0  0  0  0  0
  -25.0500  -27.6970   19.6220 C   0  0  0  0  0  3  0  0  0  0  0  0
  -23.8000  -29.8460   20.2590 C   0  0  0  0  0  2  0  0  0  0  0  0
  -24.8170  -31.1320   22.1820 N   0  0  0  0  0  0  0  0  0  0  0  0
  -23.6290  -32.2150   23.7970 O   0  0  0  0  0  0  0  0  0  0  0  0
  -22.8920  -29.5160   22.5950 C   0  0  0  0  0  0  0  0  0  0  0  0
  -21.5680  -29.3190   22.4610 N   0  0  0  0  0  0  0  0  0  0  0  0
  -23.5700  -28.9060   23.4240 O   0  0  0  0  0  0  0  0  0  0  0  0
  -21.0750  -29.8640   21.7680 H   0  0  0  0  0  0  0  0  0  0  0  0
  -18.2090  -28.0510   22.9510 C   0  0  0  0  0  0  0  0  0  0  0  0
  -20.7610  -28.3650   23.2280 C   0  0  0  0  0  3  0  0  0  0  0  0
  -20.8940  -26.9350   22.6550 C   0  0  0  0  0  2  0  0  0  0  0  0
  -19.8040  -26.5900   21.6360 C   0  0  0  0  0  2  0  0  0  0  0  0
  -18.4170  -26.7070   22.2740 C   0  0  0  0  0  2  0  0  0  0  0  0
  -19.3110  -28.8370   23.3850 C   0  0  0  0  0  0  0  0  0  0  0  0
  -19.0620  -30.0930   23.9790 C   0  0  0  0  0  3  0  0  0  0  0  0
  -17.7470  -30.5650   24.1430 C   0  0  0  0  0  3  0  0  0  0  0  0
  -16.6600  -29.7780   23.7240 C   0  0  0  0  0  3  0  0  0  0  0  0
  -16.8930  -28.5220   23.1340 C   0  0  0  0  0  3  0  0  0  0  0  0
  -25.9850  -32.6150   23.9070 C   0  0  0  0  0  3  0  0  0  0  0  0
  -26.4870  -31.8730   25.2070 C   0  0  1  0  0  0  0  0  0  0  0  0
  -25.3770  -31.6350   26.2570 C   0  0  0  0  0  1  0  0  0  0  0  0
  -27.1030  -30.5000   24.8520 C   0  0  0  0  0  1  0  0  0  0  0  0
  -27.6110  -32.6980   25.8790 C   0  0  0  0  0  1  0  0  0  0  0  0
  -25.6510  -34.0150   24.2150 N   0  0  0  0  0  0  0  0  0  0  0  0
  -25.9750  -35.0660   23.4500 C   0  0  0  0  0  0  0  0  0  0  0  0
  -26.6540  -34.9590   22.4250 O   0  0  0  0  0  0  0  0  0  0  0  0
  -25.0520  -34.1710   25.0120 H   0  0  0  0  0  0  0  0  0  0  0  0
  -24.2310  -36.8390   23.0690 C   0  0  0  0  0  1  0  0  0  0  0  0
  -25.4700  -36.4540   23.8910 C   0  0  0  0  0  3  0  0  0  0  0  0
  -27.5860  -37.3780   24.7320 C   0  0  0  0  0  1  0  0  0  0  0  0
  -26.4920  -37.5180   23.7750 N   0  0  0  0  0  0  0  0  0  0  0  0
  -26.0730  -38.4350   23.9040 H   0  0  0  0  0  0  0  0  0  0  0  0
  2  1  2  0
  3  4  2  0
  4  1  1  0
  4 46  1  0
  5  2  1  0
  6  5  2  0
  6  3  1  0
  7  6  1  0
  9 14  1  0
 10 11  1  0
 10  9  1  0
 12 11  1  0
 12 21  1  0
 12 13  1  0
 14  8  1  0
 14 13  1  0
 15  8  2  0
 16  8  1  0
 16  5  1  0
 17 16  1  0
 18 19  2  0
 19 38  1  0
 20 19  1  0
 20 23  1  0
 21 22  1  0
 21 18  1  0
 22 20  2  0
 23 24  1  0
 24 25  2  0
 26 29  1  0
 26 25  1  0
 27 26  2  0
 28 27  1  0
 28 23  2  0
 29 30  1  0
 30 31  1  0
 31 32  2  0
 33 32  1  0
 33 37  1  0
 34 33  2  0
 35 30  2  0
 35 34  1  0
 36 35  1  0
 38 39  1  0
 39 42  1  0
 39 41  1  0
 40 38  2  0
 43 44  1  0
 43 18  1  0
 45 43  1  0
 46 47  1  0
 48 46  1  0
 49 52  1  0
 49  3  1  0
 50 49  2  0
 52 53  1  0
 52 51  1  0
 54 56  1  0
 54 53  1  0
 55 66  2  0
 56 61  1  0
 57 65  1  0
 57 67  1  0
 58 64  1  0
 58 60  1  0
 59 65  1  0
 60 59  1  0
 61 60  2  0
 62 56  2  0
 63 62  1  0
 63 58  2  0
 64 57  1  0
 65 55  1  0
 67 69  2  0
 68 67  1  0
 70 68  1  0
 71 80  2  0
 71 76  1  0
 72 68  1  0
 72 76  1  0
 73 72  1  0
 74 75  1  0
 74 73  1  0
 75 71  1  0
 76 77  2  0
 77 78  1  0
 79 78  2  0
 80 79  1  0
 81 55  1  0
 81 86  1  0
 81 82  1  0
 82 85  1  1
 82 83  1  0
 84 82  1  0
 86 89  1  0
 87 91  1  0
 87 86  1  0
 88 87  2  0
 91 90  1  0
 93 91  1  0
 93 94  1  0
 93 92  1  0
M  ISO  4   8 100  16 100  53 101  54 101
M  END
>  <TORSDO>  (38) 
F 20

>  <SCORE>  (38) 
-14.327

>  <name>  (38) 
37

>  <ligand_id>  (38) 
37

>  <original_smiles>  (38) 
[H]c1c([H])c([H])c2c(c1[H])C([H])([H])C([H])([H])C([H])([H])C2([H])N([H])C(=O)C1([H])N(C(=O)C([H])(N([H])C(=O)C([H])(N([H])C([H])([H])[H])C([H])([H])[H])C(C([H])([H])[H])(C([H])([H])[H])C([H])([H])[H])C([H])([H])c2c([H])c(OC([H])([H])C([H])(C(=O)c3c(F)c(N([H])C(=O)N4C([H])([H])C([H])([H])C([H])([H])C([H])(n5nc(-c6c([H])c([H])c(Oc7c([H])c([H])c(F)c([H])c7F)c([H])c6[H])c(C(=O)N([H])[H])c5N([H])[H])C4([H])[H])c([H])c([H])c3N([H])[H])C([H])([H])[H])c([H])c([H])c2C1([H])[H]

>  <smiles>  (38) 
[H]c1c([H])c([H])c2c(c1[H])C([H])([H])C([H])([H])C([H])([H])C2([H])N([H])C(=O)C1([H])N(C(=O)C([H])(N([H])C(=O)C([H])(N([H])C([H])([H])[H])C([H])([H])[H])C(C([H])([H])[H])(C([H])([H])[H])C([H])([H])[H])C([H])([H])c2c([H])c(OC([H])([H])C([H])(C(=O)c3c(F)c(N([H])C(=O)N4C([H])([H])C([H])([H])C([H])([H])C([H])(n5nc(-c6c([H])c([H])c(Oc7c([H])c([H])c(F)c([H])c7F)c([H])c6[H])c(C(=O)N([H])[H])c5N([H])[H])C4([H])[H])c([H])c([H])c3N([H])[H])C([H])([H])[H])c([H])c([H])c2C1([H])[H]

$$$$
38:0:0
     RDKit          3D

 97106  0  0  1  0  0  0  0  0999 V2000
  -31.0050  -21.7790   20.0670 C   0  0  0  0  0  0  0  0  0  0  0  0
  -28.8800  -21.9360   20.8820 C   0  0  0  0  0  2  0  0  0  0  0  0
  -30.6920  -23.3120   20.0660 C   0  0  0  0  0  3  0  0  0  0  0  0
  -29.3460  -23.4720   20.8480 C   0  0  0  0  0  3  0  0  0  0  0  0
  -30.0280  -21.0130   20.5820 N   0  0  0  0  0  0  0  0  0  0  0  0
  -32.0530  -21.3170   19.6050 O   0  0  0  0  0  0  0  0  0  0  0  0
  -30.9270  -18.1720   22.9740 C   0  0  0  0  0  3  0  0  0  0  0  0
  -30.9560  -17.0290   22.1590 C   0  0  0  0  0  3  0  0  0  0  0  0
  -30.6120  -19.4510   22.4630 C   0  0  0  0  0  0  0  0  0  0  0  0
  -30.2830  -19.6290   21.0870 C   0  0  0  0  0  0  0  0  0  0  0  0
  -30.6700  -17.1040   20.7840 C   0  0  0  0  0  0  0  0  0  0  0  0
  -30.3170  -18.4210   20.2620 C   0  0  0  0  0  0  0  0  0  0  0  0
  -30.7060  -20.6180   23.4340 C   0  0  0  0  0  1  0  0  0  0  0  0
  -29.9670  -18.5250   18.9580 F   0  0  0  0  0  0  0  0  0  0  0  0
  -31.3130  -14.6730   20.0270 C   0  0  0  0  0  0  0  0  0  0  0  0
  -30.9660  -12.4210   18.9760 C   0  0  0  0  0  2  0  0  0  0  0  0
  -29.9840  -12.5510   17.7880 C   0  0  0  0  0  2  0  0  0  0  0  0
  -28.5210  -12.4760   18.2730 C   0  0  0  0  0  2  0  0  0  0  0  0
  -28.2510  -13.3950   19.4940 C   0  0  0  0  0  3  0  0  0  0  0  0
  -29.3330  -13.2070   20.5780 C   0  0  0  0  0  2  0  0  0  0  0  0
  -30.6290  -13.4840   19.9450 N   0  0  0  0  0  0  0  0  0  0  0  0
  -32.5110  -14.7340   19.7230 O   0  0  0  0  0  0  0  0  0  0  0  0
  -30.5220  -15.8050   20.0980 N   0  0  0  0  0  0  0  0  0  0  0  0
  -29.5550  -15.5370   20.0080 H   0  0  0  0  0  0  0  0  0  0  0  0
  -25.9490  -14.1730   20.3190 C   0  0  0  0  0  0  0  0  0  0  0  0
  -24.8400  -13.4860   20.7220 C   0  0  0  0  0  0  0  0  0  0  0  0
  -25.1890  -12.1000   20.6580 C   0  0  0  0  0  0  0  0  0  0  0  0
  -26.9080  -13.2140   20.0330 N   0  0  0  0  0  0  0  0  0  0  0  0
  -26.4600  -11.9610   20.2990 N   0  0  0  0  0  0  0  0  0  0  0  0
  -24.3710  -10.8980   20.8600 C   0  0  0  0  0  0  0  0  0  0  0  0
  -24.7160   -9.9240   21.8230 C   0  0  0  0  0  3  0  0  0  0  0  0
  -23.9030   -8.7840   22.0090 C   0  0  0  0  0  3  0  0  0  0  0  0
  -22.7320   -8.6120   21.2330 C   0  0  0  0  0  0  0  0  0  0  0  0
  -22.4080   -9.5750   20.2600 C   0  0  0  0  0  3  0  0  0  0  0  0
  -23.2200  -10.7040   20.0720 C   0  0  0  0  0  3  0  0  0  0  0  0
  -21.8960   -7.5260   21.3260 O   0  0  0  0  0  0  0  0  0  0  0  0
  -21.7090   -6.8640   22.5150 C   0  0  0  0  0  0  0  0  0  0  0  0
  -21.2290   -7.5230   23.6670 C   0  0  0  0  0  3  0  0  0  0  0  0
  -20.9850   -6.7890   24.8470 C   0  0  0  0  0  3  0  0  0  0  0  0
  -21.2120   -5.4000   24.8720 C   0  0  0  0  0  0  0  0  0  0  0  0
  -21.6880   -4.7440   23.7220 C   0  0  0  0  0  3  0  0  0  0  0  0
  -21.9320   -5.4740   22.5470 C   0  0  0  0  0  0  0  0  0  0  0  0
  -22.3700   -4.8330   21.4360 F   0  0  0  0  0  0  0  0  0  0  0  0
  -20.9730   -4.6920   26.0010 F   0  0  0  0  0  0  0  0  0  0  0  0
  -23.4950  -14.0690   21.0500 C   0  0  0  0  0  0  0  0  0  0  0  0
  -22.7510  -13.4290   21.9450 N   0  0  0  0  0  0  0  0  0  0  0  0
  -23.1180  -15.1260   20.5450 O   0  0  0  0  0  0  0  0  0  0  0  0
  -23.0710  -12.5720   22.3720 H   0  0  0  0  0  0  0  0  0  0  0  0
  -21.8480  -13.7990   22.2040 H   0  0  0  0  0  0  0  0  0  0  0  0
  -26.2210  -15.5270   20.1440 N   0  0  0  0  0  0  0  0  0  0  0  0
  -25.5040  -16.2330   20.2610 H   0  0  0  0  0  0  0  0  0  0  0  0
  -27.0730  -15.8940   19.7420 H   0  0  0  0  0  0  0  0  0  0  0  0
  -33.1570  -24.1590   19.7910 C   0  0  0  0  0  1  0  0  0  0  0  0
  -31.4680  -25.6290   20.9230 C   0  0  0  0  0  1  0  0  0  0  0  0
  -31.8690  -24.1690   20.6510 C   0  0  0  0  0  3  0  0  0  0  0  0
  -28.2530  -24.6300   20.4060 C   0  0  0  0  0  2  0  0  0  0  0  0
  -28.4500  -26.1430   20.3880 O   0  0  0  0  0  0  0  0  0  0  0  0
  -24.7180  -31.8080   23.0010 C   0  0  0  0  0  0  0  0  0  0  0  0
  -27.3500  -27.0360   20.2230 C   0  0  0  0  0  0  0  0  0  0  0  0
  -23.5200  -30.3150   21.4430 C   0  0  0  0  0  3  0  0  0  0  0  0
  -24.9850  -28.6930   20.0910 C   0  0  0  0  0  0  0  0  0  0  0  0
  -26.0640  -30.6190   21.2440 C   0  0  0  0  0  2  0  0  0  0  0  0
  -26.1530  -29.2060   20.6640 C   0  0  0  0  0  0  0  0  0  0  0  0
  -27.3320  -28.3880   20.7180 C   0  0  0  0  0  3  0  0  0  0  0  0
  -26.1600  -26.6030   19.5940 C   0  0  0  0  0  3  0  0  0  0  0  0
  -24.9970  -27.4040   19.5400 C   0  0  0  0  0  3  0  0  0  0  0  0
  -23.7390  -29.5640   20.1030 C   0  0  0  0  0  2  0  0  0  0  0  0
  -24.7860  -30.9380   21.9470 N   0  0  0  0  0  0  0  0  0  0  0  0
  -23.6330  -32.1030   23.5240 O   0  0  0  0  0  0  0  0  0  0  0  0
  -22.8600  -29.3520   22.4600 C   0  0  0  0  0  0  0  0  0  0  0  0
  -21.5310  -29.1750   22.3670 N   0  0  0  0  0  0  0  0  0  0  0  0
  -23.5500  -28.7600   23.2950 O   0  0  0  0  0  0  0  0  0  0  0  0
  -21.0310  -29.7000   21.6630 H   0  0  0  0  0  0  0  0  0  0  0  0
  -18.1590  -28.0070   22.9640 C   0  0  0  0  0  0  0  0  0  0  0  0
  -20.7200  -28.2780   23.1940 C   0  0  0  0  0  3  0  0  0  0  0  0
  -20.8170  -26.8160   22.6910 C   0  0  0  0  0  2  0  0  0  0  0  0
  -19.7030  -26.4450   21.7080 C   0  0  0  0  0  2  0  0  0  0  0  0
  -18.3270  -26.6250   22.3550 C   0  0  0  0  0  2  0  0  0  0  0  0
  -19.2820  -28.7880   23.3430 C   0  0  0  0  0  0  0  0  0  0  0  0
  -19.0700  -30.0790   23.8720 C   0  0  0  0  0  3  0  0  0  0  0  0
  -17.7690  -30.5890   24.0290 C   0  0  0  0  0  3  0  0  0  0  0  0
  -16.6580  -29.8030   23.6730 C   0  0  0  0  0  3  0  0  0  0  0  0
  -16.8550  -28.5140   23.1430 C   0  0  0  0  0  3  0  0  0  0  0  0
  -25.9960  -32.4890   23.5830 C   0  0  0  0  0  3  0  0  0  0  0  0
  -26.6190  -31.6990   24.8000 C   0  0  1  0  0  0  0  0  0  0  0  0
  -25.5970  -31.3590   25.9100 C   0  0  0  0  0  1  0  0  0  0  0  0
  -27.2650  -30.3770   24.3260 C   0  0  0  0  0  1  0  0  0  0  0  0
  -27.7500  -32.5380   25.4400 C   0  0  0  0  0  1  0  0  0  0  0  0
  -25.6310  -33.8530   23.9910 N   0  0  0  0  0  0  0  0  0  0  0  0
  -25.9400  -34.9640   23.3080 C   0  0  0  0  0  0  0  0  0  0  0  0
  -26.6290  -34.9470   22.2850 O   0  0  0  0  0  0  0  0  0  0  0  0
  -25.0260  -33.9360   24.7940 H   0  0  0  0  0  0  0  0  0  0  0  0
  -24.1710  -36.7320   23.0210 C   0  0  0  0  0  1  0  0  0  0  0  0
  -25.3990  -36.3040   23.8430 C   0  0  0  0  0  3  0  0  0  0  0  0
  -27.4780  -37.1860   24.8030 C   0  0  0  0  0  1  0  0  0  0  0  0
  -26.4030  -37.3910   23.8360 N   0  0  0  0  0  0  0  0  0  0  0  0
  -25.9670  -38.2870   24.0370 H   0  0  0  0  0  0  0  0  0  0  0  0
  1  5  1  0
  3  1  1  0
  3 55  1  0
  3  4  1  0
  4 56  1  0
  4  2  1  0
  5  2  1  0
  5 10  1  0
  6  1  2  0
  8  7  2  0
  9  7  1  0
  9 13  1  0
 10  9  2  0
 11  8  1  0
 12 11  2  0
 12 10  1  0
 14 12  1  0
 15 23  1  0
 16 21  1  0
 17 18  1  0
 17 16  1  0
 19 18  1  0
 19 28  1  0
 19 20  1  0
 21 15  1  0
 21 20  1  0
 22 15  2  0
 23 11  1  0
 24 23  1  0
 25 26  2  0
 26 45  1  0
 27 26  1  0
 27 30  1  0
 28 29  1  0
 28 25  1  0
 29 27  2  0
 30 31  1  0
 31 32  2  0
 33 36  1  0
 33 32  1  0
 34 33  2  0
 35 34  1  0
 35 30  2  0
 36 37  1  0
 37 42  2  0
 37 38  1  0
 38 39  2  0
 39 40  1  0
 40 44  1  0
 41 40  2  0
 42 41  1  0
 43 42  1  0
 45 46  1  0
 46 49  1  0
 46 48  1  0
 47 45  2  0
 50 51  1  0
 50 25  1  0
 52 50  1  0
 53 55  1  0
 55 54  1  0
 57 56  1  0
 58 69  2  0
 59 57  1  0
 59 64  1  0
 60 68  1  0
 60 70  1  0
 61 67  1  0
 61 63  1  0
 62 68  1  0
 63 64  2  0
 63 62  1  0
 65 59  2  0
 66 65  1  0
 66 61  2  0
 67 60  1  0
 68 58  1  0
 70 72  2  0
 71 70  1  0
 73 71  1  0
 74 83  2  0
 74 79  1  0
 75 71  1  0
 75 79  1  0
 76 75  1  0
 77 78  1  0
 77 76  1  0
 78 74  1  0
 79 80  2  0
 80 81  1  0
 82 81  2  0
 83 82  1  0
 84 58  1  0
 84 89  1  0
 84 85  1  0
 85 88  1  1
 85 86  1  0
 87 85  1  0
 89 92  1  0
 90 94  1  0
 90 89  1  0
 91 90  2  0
 94 93  1  0
 96 94  1  0
 96 97  1  0
 96 95  1  0
M  ISO  4  15 100  23 100  56 101  57 101
M  END
>  <TORSDO>  (39) 
F 19

>  <SCORE>  (39) 
-13.110

>  <name>  (39) 
38

>  <ligand_id>  (39) 
38

>  <original_smiles>  (39) 
[H]c1c([H])c([H])c2c(c1[H])C([H])([H])C([H])([H])C([H])([H])C2([H])N([H])C(=O)C1([H])N(C(=O)C([H])(N([H])C(=O)C([H])(N([H])C([H])([H])[H])C([H])([H])[H])C(C([H])([H])[H])(C([H])([H])[H])C([H])([H])[H])C([H])([H])c2c([H])c(OC([H])([H])C3([H])C([H])([H])N(c4c(F)c(N([H])C(=O)N5C([H])([H])C([H])([H])C([H])([H])C([H])(n6nc(-c7c([H])c([H])c(Oc8c([H])c([H])c(F)c([H])c8F)c([H])c7[H])c(C(=O)N([H])[H])c6N([H])[H])C5([H])[H])c([H])c([H])c4C([H])([H])[H])C(=O)C3([H])C([H])(C([H])([H])[H])C([H])([H])[H])c([H])c([H])c2C1([H])[H]

>  <smiles>  (39) 
[H]c1c([H])c([H])c2c(c1[H])C([H])([H])C([H])([H])C([H])([H])C2([H])N([H])C(=O)C1([H])N(C(=O)C([H])(N([H])C(=O)C([H])(N([H])C([H])([H])[H])C([H])([H])[H])C(C([H])([H])[H])(C([H])([H])[H])C([H])([H])[H])C([H])([H])c2c([H])c(OC([H])([H])C3([H])C([H])([H])N(c4c(F)c(N([H])C(=O)N5C([H])([H])C([H])([H])C([H])([H])C([H])(n6nc(-c7c([H])c([H])c(Oc8c([H])c([H])c(F)c([H])c8F)c([H])c7[H])c(C(=O)N([H])[H])c6N([H])[H])C5([H])[H])c([H])c([H])c4C([H])([H])[H])C(=O)C3([H])C([H])(C([H])([H])[H])C([H])([H])[H])c([H])c([H])c2C1([H])[H]

$$$$
39:0:0
     RDKit          3D

101110  0  0  1  0  0  0  0  0999 V2000
  -30.8450  -22.0960   19.1710 C   0  0  0  0  0  0  0  0  0  0  0  0
  -28.7980  -22.7120   20.4850 C   0  0  0  0  0  2  0  0  0  0  0  0
  -28.8100  -24.1300   19.7710 C   0  0  0  0  0  3  0  0  0  0  0  0
  -30.2590  -24.5310   19.4070 C   0  0  0  0  0  3  0  0  0  0  0  0
  -31.4360  -23.6850   17.3960 C   0  0  0  0  0  1  0  0  0  0  0  0
  -29.7970  -21.6980   19.9620 N   0  0  0  0  0  0  0  0  0  0  0  0
  -30.8220  -23.3730   18.6940 N   0  0  0  0  0  0  0  0  0  0  0  0
  -31.6980  -21.3020   18.7610 O   0  0  0  0  0  0  0  0  0  0  0  0
  -30.6890  -19.5780   21.0110 C   0  0  0  0  0  3  0  0  0  0  0  0
  -30.7200  -18.1620   21.1990 C   0  0  0  0  0  3  0  0  0  0  0  0
  -28.6690  -17.9850   19.9680 C   0  0  0  0  0  3  0  0  0  0  0  0
  -28.6480  -19.4010   19.7260 C   0  0  0  0  0  0  0  0  0  0  0  0
  -29.6790  -20.2470   20.2540 C   0  0  0  0  0  0  0  0  0  0  0  0
  -29.7090  -17.3190   20.6720 C   0  0  0  0  0  0  0  0  0  0  0  0
  -30.4800  -14.8300   20.6910 C   0  0  0  0  0  0  0  0  0  0  0  0
  -30.4150  -12.5030   19.7880 C   0  0  0  0  0  2  0  0  0  0  0  0
  -29.5380  -12.5010   18.5160 C   0  0  0  0  0  2  0  0  0  0  0  0
  -28.0470  -12.3170   18.8670 C   0  0  0  0  0  2  0  0  0  0  0  0
  -27.5900  -13.2370   20.0310 C   0  0  0  0  0  3  0  0  0  0  0  0
  -28.5940  -13.2140   21.2050 C   0  0  0  0  0  2  0  0  0  0  0  0
  -29.9160  -13.5770   20.6720 N   0  0  0  0  0  0  0  0  0  0  0  0
  -31.6540  -15.0070   20.3480 O   0  0  0  0  0  0  0  0  0  0  0  0
  -29.6170  -15.8750   20.9280 N   0  0  0  0  0  0  0  0  0  0  0  0
  -28.6840  -15.5480   21.1290 H   0  0  0  0  0  0  0  0  0  0  0  0
  -25.1670  -13.8030   20.6700 C   0  0  0  0  0  0  0  0  0  0  0  0
  -24.0950  -13.0190   20.9930 C   0  0  0  0  0  0  0  0  0  0  0  0
  -24.5700  -11.6700   20.9590 C   0  0  0  0  0  0  0  0  0  0  0  0
  -26.2290  -12.9360   20.4630 N   0  0  0  0  0  0  0  0  0  0  0  0
  -25.8690  -11.6450   20.6960 N   0  0  0  0  0  0  0  0  0  0  0  0
  -23.8450  -10.4010   21.1070 C   0  0  0  0  0  0  0  0  0  0  0  0
  -24.2240   -9.4430   22.0740 C   0  0  0  0  0  3  0  0  0  0  0  0
  -23.4990   -8.2390   22.2120 C   0  0  0  0  0  3  0  0  0  0  0  0
  -22.3810   -7.9840   21.3830 C   0  0  0  0  0  0  0  0  0  0  0  0
  -22.0220   -8.9310   20.4090 C   0  0  0  0  0  3  0  0  0  0  0  0
  -22.7460  -10.1270   20.2690 C   0  0  0  0  0  3  0  0  0  0  0  0
  -21.6350   -6.8300   21.4270 O   0  0  0  0  0  0  0  0  0  0  0  0
  -21.4790   -6.1180   22.5880 C   0  0  0  0  0  0  0  0  0  0  0  0
  -20.8450   -6.6720   23.7220 C   0  0  0  0  0  3  0  0  0  0  0  0
  -20.6440   -5.8830   24.8720 C   0  0  0  0  0  3  0  0  0  0  0  0
  -21.0650   -4.5400   24.8880 C   0  0  0  0  0  0  0  0  0  0  0  0
  -21.6890   -3.9850   23.7580 C   0  0  0  0  0  3  0  0  0  0  0  0
  -21.8940   -4.7720   22.6110 C   0  0  0  0  0  0  0  0  0  0  0  0
  -22.4770   -4.2270   21.5170 F   0  0  0  0  0  0  0  0  0  0  0  0
  -20.8630   -3.7790   25.9890 F   0  0  0  0  0  0  0  0  0  0  0  0
  -22.6850  -13.4830   21.2210 C   0  0  0  0  0  0  0  0  0  0  0  0
  -21.9370  -12.7810   22.0630 N   0  0  0  0  0  0  0  0  0  0  0  0
  -22.2540  -14.5060   20.6860 O   0  0  0  0  0  0  0  0  0  0  0  0
  -22.2960  -11.9510   22.5160 H   0  0  0  0  0  0  0  0  0  0  0  0
  -20.9910  -13.0730   22.2560 H   0  0  0  0  0  0  0  0  0  0  0  0
  -25.3270  -15.1770   20.5120 N   0  0  0  0  0  0  0  0  0  0  0  0
  -24.5480  -15.8200   20.5900 H   0  0  0  0  0  0  0  0  0  0  0  0
  -26.1750  -15.6190   20.1860 H   0  0  0  0  0  0  0  0  0  0  0  0
  -27.5630  -19.9560   18.8730 C   0  0  0  0  0  3  0  0  0  0  0  0
  -26.4350  -19.4150   18.6750 N   0  0  0  0  0  0  0  0  0  0  0  0
  -26.3400  -18.5440   19.1840 H   0  0  0  0  0  0  0  0  0  0  0  0
  -30.6370  -26.3200   21.2190 C   0  0  0  0  0  1  0  0  0  0  0  0
  -32.4830  -25.7500   19.6700 C   0  0  0  0  0  1  0  0  0  0  0  0
  -31.8730  -24.1660   21.4660 C   0  0  0  0  0  1  0  0  0  0  0  0
  -31.2780  -25.1560   20.4440 C   0  0  2  0  0  0  0  0  0  0  0  0
  -27.8230  -25.2820   20.2560 C   0  0  0  0  0  2  0  0  0  0  0  0
  -27.8510  -26.5620   19.5280 O   0  0  0  0  0  0  0  0  0  0  0  0
  -24.3980  -31.7880   23.0670 C   0  0  0  0  0  0  0  0  0  0  0  0
  -26.7300  -27.3880   19.6300 C   0  0  0  0  0  0  0  0  0  0  0  0
  -23.0680  -30.5060   21.4310 C   0  0  0  0  0  3  0  0  0  0  0  0
  -24.3920  -29.0100   19.8410 C   0  0  0  0  0  0  0  0  0  0  0  0
  -25.5920  -30.7940   21.1030 C   0  0  0  0  0  2  0  0  0  0  0  0
  -25.6010  -29.4540   20.3890 C   0  0  0  0  0  0  0  0  0  0  0  0
  -26.7740  -28.6580   20.2690 C   0  0  0  0  0  3  0  0  0  0  0  0
  -25.5010  -26.9830   19.0630 C   0  0  0  0  0  3  0  0  0  0  0  0
  -24.3410  -27.7770   19.1670 C   0  0  0  0  0  3  0  0  0  0  0  0
  -23.1750  -29.8970   20.0090 C   0  0  0  0  0  2  0  0  0  0  0  0
  -24.3770  -31.0410   21.9250 N   0  0  0  0  0  0  0  0  0  0  0  0
  -23.3540  -32.0590   23.6780 O   0  0  0  0  0  0  0  0  0  0  0  0
  -22.4390  -29.4540   22.3730 C   0  0  0  0  0  0  0  0  0  0  0  0
  -21.1110  -29.2830   22.2770 N   0  0  0  0  0  0  0  0  0  0  0  0
  -23.1400  -28.7960   23.1460 O   0  0  0  0  0  0  0  0  0  0  0  0
  -20.6050  -29.8590   21.6190 H   0  0  0  0  0  0  0  0  0  0  0  0
  -17.7450  -28.0820   22.8310 C   0  0  0  0  0  0  0  0  0  0  0  0
  -20.3120  -28.3190   23.0340 C   0  0  0  0  0  3  0  0  0  0  0  0
  -20.3900  -26.9140   22.3940 C   0  0  0  0  0  2  0  0  0  0  0  0
  -19.2540  -26.6360   21.4040 C   0  0  0  0  0  2  0  0  0  0  0  0
  -17.8940  -26.7620   22.0940 C   0  0  0  0  0  2  0  0  0  0  0  0
  -18.8810  -28.8220   23.2560 C   0  0  0  0  0  0  0  0  0  0  0  0
  -18.6870  -30.0610   23.9060 C   0  0  0  0  0  3  0  0  0  0  0  0
  -17.3910  -30.5590   24.1350 C   0  0  0  0  0  3  0  0  0  0  0  0
  -16.2700  -29.8150   23.7270 C   0  0  0  0  0  3  0  0  0  0  0  0
  -16.4480  -28.5780   23.0810 C   0  0  0  0  0  3  0  0  0  0  0  0
  -25.7290  -32.3570   23.6490 C   0  0  0  0  0  3  0  0  0  0  0  0
  -26.2840  -31.5120   24.8600 C   0  0  1  0  0  0  0  0  0  0  0  0
  -25.2390  -31.2460   25.9690 C   0  0  0  0  0  1  0  0  0  0  0  0
  -26.8050  -30.1420   24.3660 C   0  0  0  0  0  1  0  0  0  0  0  0
  -27.4890  -32.2430   25.4980 C   0  0  0  0  0  1  0  0  0  0  0  0
  -25.4740  -33.7440   24.0610 N   0  0  0  0  0  0  0  0  0  0  0  0
  -25.8290  -34.8260   23.3560 C   0  0  0  0  0  0  0  0  0  0  0  0
  -26.4770  -34.7570   22.3080 O   0  0  0  0  0  0  0  0  0  0  0  0
  -24.8940  -33.8710   24.8760 H   0  0  0  0  0  0  0  0  0  0  0  0
  -24.1860  -36.7160   23.1040 C   0  0  0  0  0  1  0  0  0  0  0  0
  -25.3990  -36.2050   23.8980 C   0  0  0  0  0  3  0  0  0  0  0  0
  -27.5560  -36.9410   24.8130 C   0  0  0  0  0  1  0  0  0  0  0  0
  -26.4810  -37.2140   23.8620 N   0  0  0  0  0  0  0  0  0  0  0  0
  -26.1160  -38.1420   24.0550 H   0  0  0  0  0  0  0  0  0  0  0  0
  1  6  1  0
  3 60  1  0
  3  2  1  0
  4  3  1  0
  4 59  1  0
  5  7  1  0
  6 13  1  0
  6  2  1  0
  7  1  1  0
  7  4  1  0
  8  1  2  0
  9 10  1  0
 11 14  1  0
 12 11  2  0
 12 13  1  0
 13  9  2  0
 14 23  1  0
 14 10  2  0
 15 23  1  0
 16 21  1  0
 17 18  1  0
 17 16  1  0
 19 18  1  0
 19 28  1  0
 19 20  1  0
 21 15  1  0
 21 20  1  0
 22 15  2  0
 23 24  1  0
 25 26  2  0
 26 45  1  0
 27 26  1  0
 27 30  1  0
 28 25  1  0
 28 29  1  0
 29 27  2  0
 30 31  1  0
 31 32  2  0
 33 36  1  0
 33 32  1  0
 34 33  2  0
 35 34  1  0
 35 30  2  0
 36 37  1  0
 37 42  2  0
 37 38  1  0
 38 39  2  0
 39 40  1  0
 40 44  1  0
 41 40  2  0
 42 41  1  0
 43 42  1  0
 45 46  1  0
 46 49  1  0
 46 48  1  0
 47 45  2  0
 50 51  1  0
 50 25  1  0
 52 50  1  0
 53 12  1  0
 54 53  2  0
 54 55  1  0
 59 57  1  6
 59 56  1  0
 59 58  1  0
 61 63  1  0
 61 60  1  0
 62 73  2  0
 63 68  1  0
 64 72  1  0
 64 74  1  0
 65 71  1  0
 65 67  1  0
 66 72  1  0
 67 66  1  0
 68 67  2  0
 69 70  1  0
 69 63  2  0
 70 65  2  0
 71 64  1  0
 72 62  1  0
 74 76  2  0
 75 74  1  0
 77 75  1  0
 78 87  2  0
 78 83  1  0
 79 75  1  0
 79 83  1  0
 80 79  1  0
 81 82  1  0
 81 80  1  0
 82 78  1  0
 83 84  2  0
 84 85  1  0
 86 85  2  0
 87 86  1  0
 88 62  1  0
 88 93  1  0
 88 89  1  0
 89 92  1  1
 89 90  1  0
 91 89  1  0
 93 96  1  0
 94 98  1  0
 94 93  1  0
 95 94  2  0
 98 97  1  0
100 98  1  0
100101  1  0
100 99  1  0
M  ISO  4  15 100  23 100  60 101  61 101
M  END
>  <TORSDO>  (40) 
F 20

>  <SCORE>  (40) 
-12.816

>  <name>  (40) 
39

>  <ligand_id>  (40) 
39

>  <original_smiles>  (40) 
[H]N=C([H])c1c([H])c(N([H])C(=O)N2C([H])([H])C([H])([H])C([H])([H])C([H])(n3nc(-c4c([H])c([H])c(Oc5c([H])c([H])c(F)c([H])c5F)c([H])c4[H])c(C(=O)N([H])[H])c3N([H])[H])C2([H])[H])c([H])c([H])c1N1C(=O)N(C([H])([H])[H])C([H])(C(C([H])([H])[H])(C([H])([H])[H])C([H])([H])[H])C([H])(C([H])([H])Oc2c([H])c([H])c3c(c2[H])C([H])([H])N(C(=O)C([H])(N([H])C(=O)C([H])(N([H])C([H])([H])[H])C([H])([H])[H])C(C([H])([H])[H])(C([H])([H])[H])C([H])([H])[H])C([H])(C(=O)N([H])C2([H])c4c([H])c([H])c([H])c([H])c4C([H])([H])C([H])([H])C2([H])[H])C3([H])[H])C1([H])[H]

>  <smiles>  (40) 
[H]N=C([H])c1c([H])c(N([H])C(=O)N2C([H])([H])C([H])([H])C([H])([H])C([H])(n3nc(-c4c([H])c([H])c(Oc5c([H])c([H])c(F)c([H])c5F)c([H])c4[H])c(C(=O)N([H])[H])c3N([H])[H])C2([H])[H])c([H])c([H])c1N1C(=O)N(C([H])([H])[H])C([H])(C(C([H])([H])[H])(C([H])([H])[H])C([H])([H])[H])C([H])(C([H])([H])Oc2c([H])c([H])c3c(c2[H])C([H])([H])N(C(=O)C([H])(N([H])C(=O)C([H])(N([H])C([H])([H])[H])C([H])([H])[H])C(C([H])([H])[H])(C([H])([H])[H])C([H])([H])[H])C([H])(C(=O)N([H])C2([H])c4c([H])c([H])c([H])c([H])c4C([H])([H])C([H])([H])C2([H])[H])C3([H])[H])C1([H])[H]

$$$$
40:0:0
     RDKit          3D

 98105  0  0  1  0  0  0  0  0999 V2000
  -28.2660  -16.6210   20.5800 C   0  0  0  0  0  3  0  0  0  0  0  0
  -30.0590  -18.2680   20.5840 C   0  0  0  0  0  3  0  0  0  0  0  0
  -27.3510  -17.6130   20.1880 C   0  0  0  0  0  0  0  0  0  0  0  0
  -29.1320  -19.3450   20.1710 C   0  0  0  0  0  0  0  0  0  0  0  0
  -29.6370  -16.8740   20.7850 C   0  0  0  0  0  0  0  0  0  0  0  0
  -27.7840  -18.9330   19.9600 C   0  0  0  0  0  0  0  0  0  0  0  0
  -26.8460  -19.8060   19.5230 F   0  0  0  0  0  0  0  0  0  0  0  0
  -31.0170  -14.5570   20.9490 C   0  0  0  0  0  0  0  0  0  0  0  0
  -30.9880  -12.0820   20.4980 C   0  0  0  0  0  2  0  0  0  0  0  0
  -30.2210  -11.8200   19.1800 C   0  0  0  0  0  2  0  0  0  0  0  0
  -28.7030  -11.7210   19.4300 C   0  0  0  0  0  2  0  0  0  0  0  0
  -28.1790  -12.8710   20.3270 C   0  0  0  0  0  3  0  0  0  0  0  0
  -29.0650  -13.0520   21.5810 C   0  0  0  0  0  2  0  0  0  0  0  0
  -30.4430  -13.3120   21.1250 N   0  0  0  0  0  0  0  0  0  0  0  0
  -32.1710  -14.6500   20.5170 O   0  0  0  0  0  0  0  0  0  0  0  0
  -30.2840  -15.6560   21.3640 N   0  0  0  0  0  0  0  0  0  0  0  0
  -29.6660  -15.2740   22.0630 H   0  0  0  0  0  0  0  0  0  0  0  0
  -25.7980  -13.6570   20.8770 C   0  0  0  0  0  3  0  0  0  0  0  0
  -24.6360  -12.9760   21.1150 C   0  0  0  0  0  0  0  0  0  0  0  0
  -24.9690  -11.5880   21.0290 C   0  0  0  0  0  0  0  0  0  0  0  0
  -26.7720  -12.6920   20.6740 N   0  0  0  0  0  0  0  0  0  0  0  0
  -26.2720  -11.4380   20.8210 N   0  0  0  0  0  0  0  0  0  0  0  0
  -24.1100  -10.3980   21.0700 C   0  0  0  0  0  0  0  0  0  0  0  0
  -24.4230   -9.2900   21.8900 C   0  0  0  0  0  3  0  0  0  0  0  0
  -23.5710   -8.1650   21.9270 C   0  0  0  0  0  3  0  0  0  0  0  0
  -22.3920   -8.1410   21.1450 C   0  0  0  0  0  0  0  0  0  0  0  0
  -22.0970   -9.2360   20.3140 C   0  0  0  0  0  3  0  0  0  0  0  0
  -22.9490  -10.3520   20.2730 C   0  0  0  0  0  3  0  0  0  0  0  0
  -21.5210   -7.0780   21.0980 O   0  0  0  0  0  0  0  0  0  0  0  0
  -21.3720   -6.2220   22.1580 C   0  0  0  0  0  0  0  0  0  0  0  0
  -20.9990   -6.6820   23.4410 C   0  0  0  0  0  3  0  0  0  0  0  0
  -20.7880   -5.7600   24.4860 C   0  0  0  0  0  3  0  0  0  0  0  0
  -20.9410   -4.3810   24.2500 C   0  0  0  0  0  0  0  0  0  0  0  0
  -21.3060   -3.9200   22.9730 C   0  0  0  0  0  3  0  0  0  0  0  0
  -21.5170   -4.8390   21.9300 C   0  0  0  0  0  0  0  0  0  0  0  0
  -21.8490   -4.3890   20.6950 F   0  0  0  0  0  0  0  0  0  0  0  0
  -20.7310   -3.4940   25.2510 F   0  0  0  0  0  0  0  0  0  0  0  0
  -23.2730  -13.5770   21.3070 C   0  0  0  0  0  0  0  0  0  0  0  0
  -22.4220  -12.9270   22.0940 N   0  0  0  0  0  0  0  0  0  0  0  0
  -22.9700  -14.6540   20.7950 O   0  0  0  0  0  0  0  0  0  0  0  0
  -22.6780  -12.0560   22.5320 H   0  0  0  0  0  0  0  0  0  0  0  0
  -21.5040  -13.3110   22.2620 H   0  0  0  0  0  0  0  0  0  0  0  0
  -26.1040  -15.0090   20.7840 N   0  0  0  0  0  1  0  0  0  0  0  0
  -25.3830  -15.7180   20.8590 H   0  0  0  0  0  0  0  0  0  0  0  0
  -26.9780  -15.3610   20.4210 H   0  0  0  0  0  0  0  0  0  0  0  0
  -30.4950  -21.4050   19.4160 C   0  0  0  0  0  0  0  0  0  0  0  0
  -28.4400  -21.9650   20.1850 C   0  0  0  0  0  2  0  0  0  0  0  0
  -30.3500  -22.9490   19.2270 C   0  0  0  0  0  3  0  0  0  0  0  0
  -29.1290  -23.3910   20.0680 C   0  0  0  0  0  3  0  0  0  0  0  0
  -31.6350  -23.7200   19.5770 C   0  0  0  0  0  1  0  0  0  0  0  0
  -29.4110  -20.8210   19.9670 N   0  0  0  0  0  0  0  0  0  0  0  0
  -31.5200  -20.8080   19.0700 O   0  0  0  0  0  0  0  0  0  0  0  0
  -28.2100  -24.6370   19.5420 C   0  0  0  0  0  2  0  0  0  0  0  0
  -28.4550  -26.1180   19.7470 O   0  0  0  0  0  0  0  0  0  0  0  0
  -24.6220  -31.3900   23.0050 C   0  0  0  0  0  0  0  0  0  0  0  0
  -27.3360  -26.9960   19.7320 C   0  0  0  0  0  0  0  0  0  0  0  0
  -23.4430  -30.0140   21.3320 C   0  0  0  0  0  3  0  0  0  0  0  0
  -24.9240  -28.5740   19.8190 C   0  0  0  0  0  0  0  0  0  0  0  0
  -25.9730  -30.4150   21.1260 C   0  0  0  0  0  2  0  0  0  0  0  0
  -26.0910  -29.0630   20.4200 C   0  0  0  0  0  0  0  0  0  0  0  0
  -27.2980  -28.2880   20.3650 C   0  0  0  0  0  3  0  0  0  0  0  0
  -26.1390  -26.5890   19.0970 C   0  0  0  0  0  3  0  0  0  0  0  0
  -24.9540  -27.3450   19.1470 C   0  0  0  0  0  3  0  0  0  0  0  0
  -23.6600  -29.4060   19.9220 C   0  0  0  0  0  2  0  0  0  0  0  0
  -24.6990  -30.6240   21.8770 N   0  0  0  0  0  0  0  0  0  0  0  0
  -23.5380  -31.6080   23.5650 O   0  0  0  0  0  0  0  0  0  0  0  0
  -22.8310  -28.9370   22.2610 C   0  0  0  0  0  0  0  0  0  0  0  0
  -21.5110  -28.7080   22.1420 N   0  0  0  0  0  0  0  0  0  0  0  0
  -23.5420  -28.3140   23.0520 O   0  0  0  0  0  0  0  0  0  0  0  0
  -20.9920  -29.2680   21.4800 H   0  0  0  0  0  0  0  0  0  0  0  0
  -18.2020  -27.3160   22.5980 C   0  0  0  0  0  0  0  0  0  0  0  0
  -20.7400  -27.7120   22.8880 C   0  0  0  0  0  3  0  0  0  0  0  0
  -20.9240  -26.2990   22.2850 C   0  0  0  0  0  2  0  0  0  0  0  0
  -19.8470  -25.9370   21.2570 C   0  0  0  0  0  2  0  0  0  0  0  0
  -18.4560  -25.9930   21.8950 C   0  0  0  0  0  2  0  0  0  0  0  0
  -19.2740  -28.1300   23.0500 C   0  0  0  0  0  0  0  0  0  0  0  0
  -18.9820  -29.3650   23.6680 C   0  0  0  0  0  3  0  0  0  0  0  0
  -17.6500  -29.7890   23.8380 C   0  0  0  0  0  3  0  0  0  0  0  0
  -16.5920  -28.9720   23.4010 C   0  0  0  0  0  3  0  0  0  0  0  0
  -16.8680  -27.7370   22.7870 C   0  0  0  0  0  3  0  0  0  0  0  0
  -25.8900  -32.0470   23.6310 C   0  0  0  0  0  3  0  0  0  0  0  0
  -26.4530  -31.2520   24.8720 C   0  0  1  0  0  0  0  0  0  0  0  0
  -25.3890  -30.9470   25.9530 C   0  0  0  0  0  1  0  0  0  0  0  0
  -27.0670  -29.9040   24.4280 C   0  0  0  0  0  1  0  0  0  0  0  0
  -27.5930  -32.0580   25.5380 C   0  0  0  0  0  1  0  0  0  0  0  0
  -25.5330  -33.4200   24.0180 N   0  0  0  0  0  0  0  0  0  0  0  0
  -25.8610  -34.5180   23.3240 C   0  0  0  0  0  0  0  0  0  0  0  0
  -26.5630  -34.4830   22.3100 O   0  0  0  0  0  0  0  0  0  0  0  0
  -24.9120  -33.5200   24.8070 H   0  0  0  0  0  0  0  0  0  0  0  0
  -24.1070  -36.2940   23.0010 C   0  0  0  0  0  1  0  0  0  0  0  0
  -25.3260  -35.8710   23.8360 C   0  0  0  0  0  3  0  0  0  0  0  0
  -27.4080  -36.7550   24.7910 C   0  0  0  0  0  1  0  0  0  0  0  0
  -26.3390  -36.9490   23.8160 N   0  0  0  0  0  0  0  0  0  0  0  0
  -25.9060  -37.8520   23.9940 H   0  0  0  0  0  0  0  0  0  0  0  0
  -25.8710  -17.2690   20.0240 C   0  0  0  0  0  3  0  0  0  0  0  0
  -25.5880  -16.0450   20.4710 F   0  0  0  0  0  0  0  0  0  0  0  0
  -25.1110  -18.1220   20.7120 F   0  0  0  0  0  0  0  0  0  0  0  0
  -25.5290  -17.3360   18.7370 F   0  0  0  0  0  0  0  0  0  0  0  0
  1  5  1  0
  2  5  2  0
  3  1  2  0
  4  2  1  0
  5 16  1  0
  6  4  2  0
  6  3  1  0
  7  6  1  0
  8 14  1  0
  8 16  1  0
  9 14  1  0
 10 11  1  0
 10  9  1  0
 12 11  1  0
 12 21  1  0
 12 13  1  0
 14 13  1  0
 15  8  2  0
 16 17  1  0
 18 19  2  0
 19 38  1  0
 20 23  1  0
 20 19  1  0
 21 22  1  0
 21 18  1  0
 22 20  2  0
 23 24  1  0
 24 25  2  0
 26 25  1  0
 27 26  2  0
 28 27  1  0
 28 23  2  0
 29 26  1  0
 29 30  1  0
 30 31  1  0
 31 32  2  0
 33 32  1  0
 33 37  1  0
 34 33  2  0
 35 30  2  0
 35 34  1  0
 36 35  1  0
 38 39  1  0
 39 42  1  0
 39 41  1  0
 40 38  2  0
 45 43  1  0
 46 51  1  0
 48 46  1  0
 48 50  1  0
 48 49  1  0
 49 53  1  0
 49 47  1  0
 51  4  1  0
 51 47  1  0
 52 46  2  0
 53 54  1  0
 55 66  2  0
 56 54  1  0
 56 61  1  0
 57 65  1  0
 57 67  1  0
 58 64  1  0
 58 60  1  0
 59 65  1  0
 60 59  1  0
 61 60  2  0
 62 63  1  0
 62 56  2  0
 63 58  2  0
 64 57  1  0
 65 55  1  0
 67 69  2  0
 68 67  1  0
 70 68  1  0
 71 80  2  0
 71 76  1  0
 72 68  1  0
 72 76  1  0
 73 72  1  0
 74 75  1  0
 74 73  1  0
 75 71  1  0
 76 77  2  0
 77 78  1  0
 79 78  2  0
 80 79  1  0
 81 55  1  0
 81 86  1  0
 81 82  1  0
 82 85  1  1
 82 83  1  0
 84 82  1  0
 86 89  1  0
 87 91  1  0
 87 86  1  0
 88 87  2  0
 91 90  1  0
 93 91  1  0
 93 94  1  0
 93 92  1  0
 95  3  1  0
 95 97  1  0
 96 44  1  0
 98 95  1  0
M  ISO  4   8 100  16 100  53 101  54 101
M  END
>  <TORSDO>  (41) 
F 19

>  <SCORE>  (41) 
-11.241

>  <name>  (41) 
40

>  <ligand_id>  (41) 
40

>  <original_smiles>  (41) 
[H]c1c([H])c([H])c2c(c1[H])C([H])([H])C([H])([H])C([H])([H])C2([H])N([H])C(=O)C1([H])N(C(=O)C([H])(N([H])C(=O)C([H])(N([H])C([H])([H])[H])C([H])([H])[H])C(C([H])([H])[H])(C([H])([H])[H])C([H])([H])[H])C([H])([H])c2c([H])c(OC([H])([H])C3([H])C([H])([H])N(c4c([H])c(N([H])C(=O)N5C([H])([H])C([H])([H])C([H])([H])C([H])(n6nc(-c7c([H])c([H])c(Oc8c([H])c([H])c(F)c([H])c8F)c([H])c7[H])c(C(=O)N([H])[H])c6N([H])[H])C5([H])[H])c([H])c(C(F)(F)F)c4F)C(=O)C3([H])C([H])([H])[H])c([H])c([H])c2C1([H])[H]

>  <smiles>  (41) 
[H]c1c([H])c([H])c2c(c1[H])C([H])([H])C([H])([H])C([H])([H])C2([H])N([H])C(=O)C1([H])N(C(=O)C([H])(N([H])C(=O)C([H])(N([H])C([H])([H])[H])C([H])([H])[H])C(C([H])([H])[H])(C([H])([H])[H])C([H])([H])[H])C([H])([H])c2c([H])c(OC([H])([H])C3([H])C([H])([H])N(c4c([H])c(N([H])C(=O)N5C([H])([H])C([H])([H])C([H])([H])C([H])(n6nc(-c7c([H])c([H])c(Oc8c([H])c([H])c(F)c([H])c8F)c([H])c7[H])c(C(=O)N([H])[H])c6N([H])[H])C5([H])[H])c([H])c(C(F)(F)F)c4F)C(=O)C3([H])C([H])([H])[H])c([H])c([H])c2C1([H])[H]

$$$$
41:0:0
     RDKit          3D

 93102  0  0  1  0  0  0  0  0999 V2000
  -28.8780  -23.9780   20.0520 C   0  0  0  0  0  0  0  0  0  0  0  0
  -30.3760  -22.4450   18.9260 C   0  0  0  0  0  0  0  0  0  0  0  0
  -28.1940  -25.1000   20.4670 C   0  0  0  0  0  3  0  0  0  0  0  0
  -30.0100  -23.9260   19.0750 C   0  0  0  0  0  2  0  0  0  0  0  0
  -28.6570  -22.4900   20.4590 C   0  0  0  0  0  2  0  0  0  0  0  0
  -29.6410  -21.6240   19.7250 N   0  0  0  0  0  0  0  0  0  0  0  0
  -31.2540  -22.1110   18.1250 O   0  0  0  0  0  0  0  0  0  0  0  0
  -30.8140  -19.3690   19.2540 C   0  0  0  0  0  3  0  0  0  0  0  0
  -30.9110  -17.9470   19.3540 C   0  0  0  0  0  3  0  0  0  0  0  0
  -28.8180  -19.3550   20.5640 C   0  0  0  0  0  3  0  0  0  0  0  0
  -28.9040  -17.9260   20.6720 C   0  0  0  0  0  0  0  0  0  0  0  0
  -29.7610  -20.1400   19.8430 C   0  0  0  0  0  0  0  0  0  0  0  0
  -29.9560  -17.1720   20.0620 C   0  0  0  0  0  0  0  0  0  0  0  0
  -27.8330  -17.2120   21.4800 C   0  0  0  0  0  1  0  0  0  0  0  0
  -30.6920  -14.7070   19.5340 C   0  0  0  0  0  0  0  0  0  0  0  0
  -30.3580  -12.5370   18.3500 C   0  0  0  0  0  2  0  0  0  0  0  0
  -29.2610  -12.7380   17.2790 C   0  0  0  0  0  2  0  0  0  0  0  0
  -27.8560  -12.5440   17.8840 C   0  0  0  0  0  2  0  0  0  0  0  0
  -27.6680  -13.3140   19.2170 C   0  0  0  0  0  3  0  0  0  0  0  0
  -28.8610  -13.0770   20.1700 C   0  0  0  0  0  2  0  0  0  0  0  0
  -30.0850  -13.4770   19.4570 N   0  0  0  0  0  0  0  0  0  0  0  0
  -31.7770  -14.9100   18.9780 O   0  0  0  0  0  0  0  0  0  0  0  0
  -29.9660  -15.7010   20.1490 N   0  0  0  0  0  0  0  0  0  0  0  0
  -29.1860  -15.3250   20.6660 H   0  0  0  0  0  0  0  0  0  0  0  0
  -25.3950  -13.8600   20.2840 C   0  0  0  0  0  0  0  0  0  0  0  0
  -24.3800  -13.0650   20.7410 C   0  0  0  0  0  0  0  0  0  0  0  0
  -24.8210  -11.7190   20.5540 C   0  0  0  0  0  0  0  0  0  0  0  0
  -26.3910  -12.9990   19.8530 N   0  0  0  0  0  0  0  0  0  0  0  0
  -26.0590  -11.7010   20.0740 N   0  0  0  0  0  0  0  0  0  0  0  0
  -24.1150  -10.4470   20.7510 C   0  0  0  0  0  0  0  0  0  0  0  0
  -24.6300   -9.4380   21.5960 C   0  0  0  0  0  3  0  0  0  0  0  0
  -23.9220   -8.2320   21.7830 C   0  0  0  0  0  3  0  0  0  0  0  0
  -22.6860   -8.0240   21.1260 C   0  0  0  0  0  0  0  0  0  0  0  0
  -22.1890   -9.0220   20.2680 C   0  0  0  0  0  3  0  0  0  0  0  0
  -22.8980  -10.2190   20.0780 C   0  0  0  0  0  3  0  0  0  0  0  0
  -21.9420   -6.8730   21.2280 O   0  0  0  0  0  0  0  0  0  0  0  0
  -21.9650   -6.0990   22.3610 C   0  0  0  0  0  0  0  0  0  0  0  0
  -21.6170   -6.6200   23.6260 C   0  0  0  0  0  3  0  0  0  0  0  0
  -21.5860   -5.7740   24.7520 C   0  0  0  0  0  3  0  0  0  0  0  0
  -21.8910   -4.4070   24.6150 C   0  0  0  0  0  0  0  0  0  0  0  0
  -22.2310   -3.8840   23.3540 C   0  0  0  0  0  3  0  0  0  0  0  0
  -22.2650   -4.7280   22.2290 C   0  0  0  0  0  0  0  0  0  0  0  0
  -22.5730   -4.2160   21.0140 F   0  0  0  0  0  0  0  0  0  0  0  0
  -21.8530   -3.5910   25.6950 F   0  0  0  0  0  0  0  0  0  0  0  0
  -23.0360  -13.5230   21.2300 C   0  0  0  0  0  0  0  0  0  0  0  0
  -22.4290  -12.7780   22.1470 N   0  0  0  0  0  0  0  0  0  0  0  0
  -22.5370  -14.5740   20.8310 O   0  0  0  0  0  0  0  0  0  0  0  0
  -22.8490  -11.9260   22.4890 H   0  0  0  0  0  0  0  0  0  0  0  0
  -21.5330  -13.0640   22.5130 H   0  0  0  0  0  0  0  0  0  0  0  0
  -25.5440  -15.2400   20.1760 N   0  0  0  0  0  0  0  0  0  0  0  0
  -24.7950  -15.8780   20.4180 H   0  0  0  0  0  0  0  0  0  0  0  0
  -26.3170  -15.7000   19.7120 H   0  0  0  0  0  0  0  0  0  0  0  0
  -28.4170  -26.4500   20.1170 O   0  0  0  0  0  0  0  0  0  0  0  0
  -24.6100  -31.8270   23.1190 C   0  0  0  0  0  0  0  0  0  0  0  0
  -27.3100  -27.3100   20.0860 C   0  0  0  0  0  0  0  0  0  0  0  0
  -23.4450  -30.4240   21.4530 C   0  0  0  0  0  3  0  0  0  0  0  0
  -24.9330  -28.8950   20.0420 C   0  0  0  0  0  0  0  0  0  0  0  0
  -25.9830  -30.7710   21.3090 C   0  0  0  0  0  2  0  0  0  0  0  0
  -26.0880  -29.3950   20.6600 C   0  0  0  0  0  0  0  0  0  0  0  0
  -27.2820  -28.6130   20.6750 C   0  0  0  0  0  3  0  0  0  0  0  0
  -26.1380  -26.8640   19.4420 C   0  0  0  0  0  3  0  0  0  0  0  0
  -24.9590  -27.6350   19.4240 C   0  0  0  0  0  3  0  0  0  0  0  0
  -23.6870  -29.7580   20.0730 C   0  0  0  0  0  2  0  0  0  0  0  0
  -24.6970  -31.0250   22.0170 N   0  0  0  0  0  0  0  0  0  0  0  0
  -23.5160  -32.0900   23.6390 O   0  0  0  0  0  0  0  0  0  0  0  0
  -22.7780  -29.3960   22.3990 C   0  0  0  0  0  0  0  0  0  0  0  0
  -21.4530  -29.2180   22.2590 N   0  0  0  0  0  0  0  0  0  0  0  0
  -23.4510  -28.7630   23.2160 O   0  0  0  0  0  0  0  0  0  0  0  0
  -20.9710  -29.7800   21.5730 H   0  0  0  0  0  0  0  0  0  0  0  0
  -18.0750  -28.0060   22.7150 C   0  0  0  0  0  0  0  0  0  0  0  0
  -20.6290  -28.2730   23.0160 C   0  0  0  0  0  3  0  0  0  0  0  0
  -20.7430  -26.8450   22.4310 C   0  0  0  0  0  2  0  0  0  0  0  0
  -19.6530  -26.5260   21.4030 C   0  0  0  0  0  2  0  0  0  0  0  0
  -18.2640  -26.6610   22.0320 C   0  0  0  0  0  2  0  0  0  0  0  0
  -19.1860  -28.7700   23.1630 C   0  0  0  0  0  0  0  0  0  0  0  0
  -18.9560  -30.0280   23.7620 C   0  0  0  0  0  3  0  0  0  0  0  0
  -17.6460  -30.5220   23.9150 C   0  0  0  0  0  3  0  0  0  0  0  0
  -16.5500  -29.7560   23.4820 C   0  0  0  0  0  3  0  0  0  0  0  0
  -16.7650  -28.4990   22.8890 C   0  0  0  0  0  3  0  0  0  0  0  0
  -25.8770  -32.4670   23.7640 C   0  0  0  0  0  3  0  0  0  0  0  0
  -25.5460  -33.8580   24.1060 N   0  0  0  0  0  0  0  0  0  0  0  0
  -25.8800  -34.9230   23.3680 C   0  0  0  0  0  0  0  0  0  0  0  0
  -26.5680  -34.8410   22.3460 O   0  0  0  0  0  0  0  0  0  0  0  0
  -24.9310  -33.9940   24.8960 H   0  0  0  0  0  0  0  0  0  0  0  0
  -24.1420  -36.7050   23.0050 C   0  0  0  0  0  1  0  0  0  0  0  0
  -25.3700  -36.3010   23.8340 C   0  0  0  0  0  3  0  0  0  0  0  0
  -27.4780  -37.1940   24.7190 C   0  0  0  0  0  1  0  0  0  0  0  0
  -26.3950  -37.3640   23.7560 N   0  0  0  0  0  0  0  0  0  0  0  0
  -25.9780  -38.2790   23.9060 H   0  0  0  0  0  0  0  0  0  0  0  0
  -26.3860  -31.6880   25.0380 C   0  0  1  0  0  0  0  0  0  0  0  0
  -25.2830  -31.4220   26.0880 C   0  0  0  0  0  1  0  0  0  0  0  0
  -26.9910  -30.3230   24.6360 C   0  0  0  0  0  1  0  0  0  0  0  0
  -27.5200  -32.4860   25.7220 C   0  0  0  0  0  1  0  0  0  0  0  0
  1  5  1  0
  1  3  2  0
  2  4  1  0
  2  6  1  0
  4  1  1  0
  6 12  1  0
  6  5  1  0
  7  2  2  0
  8  9  2  0
  8 12  1  0
  9 13  1  0
 10 11  1  0
 11 14  1  0
 12 10  2  0
 13 23  1  0
 13 11  2  0
 15 23  1  0
 16 21  1  0
 17 18  1  0
 17 16  1  0
 19 18  1  0
 19 28  1  0
 19 20  1  0
 21 15  1  0
 21 20  1  0
 22 15  2  0
 23 24  1  0
 25 26  2  0
 26 45  1  0
 27 26  1  0
 27 30  1  0
 28 29  1  0
 28 25  1  0
 29 27  2  0
 30 31  1  0
 31 32  2  0
 33 36  1  0
 33 32  1  0
 34 33  2  0
 35 34  1  0
 35 30  2  0
 36 37  1  0
 37 38  1  0
 38 39  2  0
 40 39  1  0
 40 44  1  0
 41 40  2  0
 42 37  2  0
 42 41  1  0
 43 42  1  0
 45 46  1  0
 46 48  1  0
 46 49  1  0
 47 45  2  0
 50 25  1  0
 50 51  1  0
 52 50  1  0
 53  3  1  0
 54 65  2  0
 55 53  1  0
 55 60  1  0
 56 64  1  0
 56 66  1  0
 57 63  1  0
 57 59  1  0
 58 64  1  0
 59 60  2  0
 59 58  1  0
 61 55  2  0
 62 61  1  0
 62 57  2  0
 63 56  1  0
 64 54  1  0
 66 68  2  0
 67 66  1  0
 69 67  1  0
 70 79  2  0
 70 75  1  0
 71 67  1  0
 71 75  1  0
 72 71  1  0
 73 74  1  0
 73 72  1  0
 74 70  1  0
 75 76  2  0
 76 77  1  0
 78 77  2  0
 79 78  1  0
 80 54  1  0
 80 81  1  0
 80 90  1  0
 81 84  1  0
 82 86  1  0
 82 81  1  0
 83 82  2  0
 86 85  1  0
 88 86  1  0
 88 89  1  0
 88 87  1  0
 90 93  1  1
 90 91  1  0
 92 90  1  0
M  ISO  4   3 101  15 100  23 100  53 101
M  END
>  <TORSDO>  (42) 
F 17

>  <SCORE>  (42) 
-11.643

>  <name>  (42) 
41

>  <ligand_id>  (42) 
41

>  <original_smiles>  (42) 
[H]C(Oc1c([H])c([H])c2c(c1[H])C([H])([H])N(C(=O)C([H])(N([H])C(=O)C([H])(N([H])C([H])([H])[H])C([H])([H])[H])C(C([H])([H])[H])(C([H])([H])[H])C([H])([H])[H])C([H])(C(=O)N([H])C1([H])c3c([H])c([H])c([H])c([H])c3C([H])([H])C([H])([H])C1([H])[H])C2([H])[H])=C1C([H])([H])C(=O)N(c2c([H])c([H])c(N([H])C(=O)N3C([H])([H])C([H])([H])C([H])([H])C([H])(n4nc(-c5c([H])c([H])c(Oc6c([H])c([H])c(F)c([H])c6F)c([H])c5[H])c(C(=O)N([H])[H])c4N([H])[H])C3([H])[H])c(C([H])([H])[H])c2[H])C1([H])[H]

>  <smiles>  (42) 
[H]C(Oc1c([H])c([H])c2c(c1[H])C([H])([H])N(C(=O)C([H])(N([H])C(=O)C([H])(N([H])C([H])([H])[H])C([H])([H])[H])C(C([H])([H])[H])(C([H])([H])[H])C([H])([H])[H])C([H])(C(=O)N([H])C1([H])c3c([H])c([H])c([H])c([H])c3C([H])([H])C([H])([H])C1([H])[H])C2([H])[H])=C1C([H])([H])C(=O)N(c2c([H])c([H])c(N([H])C(=O)N3C([H])([H])C([H])([H])C([H])([H])C([H])(n4nc(-c5c([H])c([H])c(Oc6c([H])c([H])c(F)c([H])c6F)c([H])c5[H])c(C(=O)N([H])[H])c4N([H])[H])C3([H])[H])c(C([H])([H])[H])c2[H])C1([H])[H]

$$$$
42:0:0
     RDKit          3D

 98106  0  0  1  0  0  0  0  0999 V2000
  -29.2860  -22.2400   20.2550 C   0  0  0  0  0  0  0  0  0  0  0  0
  -29.2800  -23.4780   20.7890 N   0  0  0  0  0  0  0  0  0  0  0  0
  -28.4370  -21.8390   19.4530 O   0  0  0  0  0  0  0  0  0  0  0  0
  -30.0420  -23.7000   21.4130 H   0  0  0  0  0  0  0  0  0  0  0  0
  -30.5050  -21.3700   20.7260 C   0  0  0  0  0  0  0  0  0  0  0  0
  -31.5500  -21.9470   21.0540 O   0  0  0  0  0  0  0  0  0  0  0  0
  -29.1800  -19.1670   20.8140 C   0  0  0  0  0  3  0  0  0  0  0  0
  -31.6020  -19.0980   20.7240 C   0  0  0  0  0  3  0  0  0  0  0  0
  -29.1480  -17.7530   20.8640 C   0  0  0  0  0  3  0  0  0  0  0  0
  -31.5710  -17.6860   20.7640 C   0  0  0  0  0  3  0  0  0  0  0  0
  -30.4110  -19.8630   20.7410 C   0  0  0  0  0  0  0  0  0  0  0  0
  -30.3390  -16.9910   20.8220 C   0  0  0  0  0  0  0  0  0  0  0  0
  -30.8930  -14.6240   20.1710 C   0  0  0  0  0  0  0  0  0  0  0  0
  -30.5630  -12.4940   18.9660 C   0  0  0  0  0  2  0  0  0  0  0  0
  -29.5600  -12.7270   17.8180 C   0  0  0  0  0  2  0  0  0  0  0  0
  -28.1090  -12.5600   18.3120 C   0  0  0  0  0  2  0  0  0  0  0  0
  -27.8300  -13.3570   19.6140 C   0  0  0  0  0  3  0  0  0  0  0  0
  -28.9380  -13.1030   20.6610 C   0  0  0  0  0  2  0  0  0  0  0  0
  -30.2360  -13.4390   20.0460 N   0  0  0  0  0  0  0  0  0  0  0  0
  -31.9720  -14.8460   19.6130 O   0  0  0  0  0  0  0  0  0  0  0  0
  -30.2240  -15.5660   20.8710 N   0  0  0  0  0  0  0  0  0  0  0  0
  -29.3760  -15.2150   21.2870 H   0  0  0  0  0  0  0  0  0  0  0  0
  -25.4720  -13.9300   20.4730 C   0  0  0  0  0  0  0  0  0  0  0  0
  -24.4260  -13.1410   20.8670 C   0  0  0  0  0  0  0  0  0  0  0  0
  -24.8850  -11.7920   20.7550 C   0  0  0  0  0  0  0  0  0  0  0  0
  -26.5040  -13.0620   20.1510 N   0  0  0  0  0  0  0  0  0  0  0  0
  -26.1560  -11.7690   20.3750 N   0  0  0  0  0  0  0  0  0  0  0  0
  -24.1720  -10.5210   20.9320 C   0  0  0  0  0  0  0  0  0  0  0  0
  -24.5860   -9.5670   21.8870 C   0  0  0  0  0  3  0  0  0  0  0  0
  -23.8720   -8.3610   22.0500 C   0  0  0  0  0  3  0  0  0  0  0  0
  -22.7290   -8.1000   21.2590 C   0  0  0  0  0  0  0  0  0  0  0  0
  -22.3340   -9.0430   20.2930 C   0  0  0  0  0  3  0  0  0  0  0  0
  -23.0490  -10.2410   20.1280 C   0  0  0  0  0  3  0  0  0  0  0  0
  -21.9880   -6.9460   21.3300 O   0  0  0  0  0  0  0  0  0  0  0  0
  -21.8220   -6.2700   22.5120 C   0  0  0  0  0  0  0  0  0  0  0  0
  -21.1910   -6.8620   23.6270 C   0  0  0  0  0  3  0  0  0  0  0  0
  -20.9800   -6.1080   24.7990 C   0  0  0  0  0  3  0  0  0  0  0  0
  -21.3870   -4.7610   24.8540 C   0  0  0  0  0  0  0  0  0  0  0  0
  -22.0080   -4.1680   23.7410 C   0  0  0  0  0  3  0  0  0  0  0  0
  -22.2220   -4.9190   22.5730 C   0  0  0  0  0  0  0  0  0  0  0  0
  -22.8030   -4.3360   21.4960 F   0  0  0  0  0  0  0  0  0  0  0  0
  -21.1760   -4.0350   25.9750 F   0  0  0  0  0  0  0  0  0  0  0  0
  -23.0450  -13.6030   21.2350 C   0  0  0  0  0  0  0  0  0  0  0  0
  -22.3630  -12.8620   22.1010 N   0  0  0  0  0  0  0  0  0  0  0  0
  -22.5820  -14.6550   20.7940 O   0  0  0  0  0  0  0  0  0  0  0  0
  -22.7500  -12.0100   22.4770 H   0  0  0  0  0  0  0  0  0  0  0  0
  -21.4390  -13.1500   22.3910 H   0  0  0  0  0  0  0  0  0  0  0  0
  -25.6310  -15.3070   20.3450 N   0  0  0  0  0  0  0  0  0  0  0  0
  -24.8750  -15.9600   20.5220 H   0  0  0  0  0  0  0  0  0  0  0  0
  -26.4640  -15.7570   19.9860 H   0  0  0  0  0  0  0  0  0  0  0  0
  -28.2350  -24.5040   20.6020 C   0  0  0  0  0  3  0  0  0  0  0  0
  -27.0610  -24.2290   21.5800 C   0  0  1  0  0  0  0  0  0  0  0  0
  -26.5530  -23.0080   21.4050 F   0  0  0  0  0  0  0  0  0  0  0  0
  -27.4870  -24.3210   22.8410 F   0  0  0  0  0  0  0  0  0  0  0  0
  -26.0720  -25.1010   21.4000 F   0  0  0  0  0  0  0  0  0  0  0  0
  -30.3030  -26.0890   20.9550 C   0  0  0  0  0  1  0  0  0  0  0  0
  -28.7810  -25.9710   20.7550 C   0  0  0  0  0  3  0  0  0  0  0  0
  -28.4720  -26.8000   19.6210 O   0  0  0  0  0  0  0  0  0  0  0  0
  -24.5730  -31.6860   23.0660 C   0  0  0  0  0  0  0  0  0  0  0  0
  -27.3000  -27.5160   19.7050 C   0  0  0  0  0  0  0  0  0  0  0  0
  -23.3890  -30.3650   21.3390 C   0  0  0  0  0  3  0  0  0  0  0  0
  -24.8720  -28.9550   19.8140 C   0  0  0  0  0  0  0  0  0  0  0  0
  -25.9030  -30.7960   21.1580 C   0  0  0  0  0  2  0  0  0  0  0  0
  -26.0180  -29.4690   20.4360 C   0  0  0  0  0  0  0  0  0  0  0  0
  -27.2360  -28.7530   20.3840 C   0  0  0  0  0  3  0  0  0  0  0  0
  -26.1450  -27.0220   19.0660 C   0  0  0  0  0  3  0  0  0  0  0  0
  -24.9290  -27.7300   19.1280 C   0  0  0  0  0  3  0  0  0  0  0  0
  -23.6070  -29.7780   19.9190 C   0  0  0  0  0  2  0  0  0  0  0  0
  -24.6400  -30.9610   21.9140 N   0  0  0  0  0  0  0  0  0  0  0  0
  -23.4900  -31.8990   23.6270 O   0  0  0  0  0  0  0  0  0  0  0  0
  -22.7660  -29.2720   22.2360 C   0  0  0  0  0  0  0  0  0  0  0  0
  -21.4370  -29.0980   22.1310 N   0  0  0  0  0  0  0  0  0  0  0  0
  -23.4720  -28.5860   22.9800 O   0  0  0  0  0  0  0  0  0  0  0  0
  -20.9280  -29.7060   21.5060 H   0  0  0  0  0  0  0  0  0  0  0  0
  -18.0720  -27.9070   22.6820 C   0  0  0  0  0  0  0  0  0  0  0  0
  -20.6430  -28.1000   22.8470 C   0  0  0  0  0  3  0  0  0  0  0  0
  -20.6910  -26.7300   22.1310 C   0  0  0  0  0  2  0  0  0  0  0  0
  -19.5350  -26.5240   21.1480 C   0  0  0  0  0  2  0  0  0  0  0  0
  -18.1880  -26.6270   21.8720 C   0  0  0  0  0  2  0  0  0  0  0  0
  -19.2240  -28.6060   23.1270 C   0  0  0  0  0  0  0  0  0  0  0  0
  -19.0590  -29.8100   23.8470 C   0  0  0  0  0  3  0  0  0  0  0  0
  -17.7740  -30.3110   24.1250 C   0  0  0  0  0  3  0  0  0  0  0  0
  -16.6360  -29.6060   23.6960 C   0  0  0  0  0  3  0  0  0  0  0  0
  -16.7860  -28.4040   22.9810 C   0  0  0  0  0  3  0  0  0  0  0  0
  -25.8490  -32.3040   23.7200 C   0  0  0  0  0  3  0  0  0  0  0  0
  -25.5210  -33.6790   24.1180 N   0  0  0  0  0  0  0  0  0  0  0  0
  -25.8490  -34.7720   23.4180 C   0  0  0  0  0  0  0  0  0  0  0  0
  -26.5330  -34.7290   22.3910 O   0  0  0  0  0  0  0  0  0  0  0  0
  -24.9160  -33.7850   24.9200 H   0  0  0  0  0  0  0  0  0  0  0  0
  -24.1200  -36.5720   23.1140 C   0  0  0  0  0  1  0  0  0  0  0  0
  -25.3390  -36.1280   23.9380 C   0  0  0  0  0  3  0  0  0  0  0  0
  -27.4330  -36.9830   24.8950 C   0  0  0  0  0  1  0  0  0  0  0  0
  -26.3680  -37.1910   23.9180 N   0  0  0  0  0  0  0  0  0  0  0  0
  -25.9510  -38.1020   24.0950 H   0  0  0  0  0  0  0  0  0  0  0  0
  -26.3800  -31.4750   24.9540 C   0  0  1  0  0  0  0  0  0  0  0  0
  -25.2920  -31.1660   26.0080 C   0  0  0  0  0  1  0  0  0  0  0  0
  -26.9820  -30.1290   24.4890 C   0  0  0  0  0  1  0  0  0  0  0  0
  -27.5190  -32.2520   25.6560 C   0  0  0  0  0  1  0  0  0  0  0  0
  1  5  1  0
  1  2  1  0
  2  4  1  0
  3  1  2  0
  5 11  1  0
  5  6  2  0
  7  9  1  0
  8 11  1  0
  8 10  2  0
 10 12  1  0
 11  7  2  0
 12  9  2  0
 12 21  1  0
 13 21  1  0
 14 19  1  0
 15 16  1  0
 15 14  1  0
 17 16  1  0
 17 26  1  0
 17 18  1  0
 19 13  1  0
 19 18  1  0
 20 13  2  0
 21 22  1  0
 23 24  2  0
 24 43  1  0
 25 24  1  0
 25 28  1  0
 26 27  1  0
 26 23  1  0
 27 25  2  0
 28 29  1  0
 29 30  2  0
 31 34  1  0
 31 30  1  0
 32 31  2  0
 33 32  1  0
 33 28  2  0
 34 35  1  0
 35 40  2  0
 35 36  1  0
 36 37  2  0
 37 38  1  0
 38 42  1  0
 39 38  2  0
 40 39  1  0
 41 40  1  0
 43 44  1  0
 44 47  1  0
 44 46  1  0
 45 43  2  0
 48 23  1  0
 48 49  1  0
 50 48  1  0
 51 57  1  0
 51  2  1  0
 51 52  1  0
 52 54  1  1
 53 52  1  0
 55 52  1  0
 57 56  1  0
 58 60  1  0
 58 57  1  0
 59 70  2  0
 60 65  1  0
 61 69  1  0
 61 71  1  0
 62 68  1  0
 62 64  1  0
 63 69  1  0
 64 63  1  0
 65 64  2  0
 66 67  1  0
 66 60  2  0
 67 62  2  0
 68 61  1  0
 69 59  1  0
 71 73  2  0
 72 71  1  0
 74 72  1  0
 75 84  2  0
 75 80  1  0
 76 72  1  0
 76 80  1  0
 77 76  1  0
 78 79  1  0
 78 77  1  0
 79 75  1  0
 80 81  2  0
 81 82  1  0
 83 82  2  0
 84 83  1  0
 85 59  1  0
 85 86  1  0
 85 95  1  0
 86 89  1  0
 87 91  1  0
 87 86  1  0
 88 87  2  0
 91 90  1  0
 93 91  1  0
 93 94  1  0
 93 92  1  0
 95 98  1  1
 95 96  1  0
 97 95  1  0
M  ISO  4  13 100  21 100  57 101  58 101
M  END
>  <TORSDO>  (43) 
F 21

>  <SCORE>  (43) 
-13.114

>  <name>  (43) 
42

>  <ligand_id>  (43) 
42

>  <original_smiles>  (43) 
[H]c1c([H])c([H])c2c(c1[H])C([H])([H])C([H])([H])C([H])([H])C2([H])N([H])C(=O)C1([H])N(C(=O)C([H])(N([H])C(=O)C([H])(N([H])C([H])([H])[H])C([H])([H])[H])C(C([H])([H])[H])(C([H])([H])[H])C([H])([H])[H])C([H])([H])c2c([H])c(OC([H])(C([H])([H])[H])C([H])(N([H])C(=O)C(=O)c3c([H])c([H])c(N([H])C(=O)N4C([H])([H])C([H])([H])C([H])([H])C([H])(n5nc(-c6c([H])c([H])c(Oc7c([H])c([H])c(F)c([H])c7F)c([H])c6[H])c(C(=O)N([H])[H])c5N([H])[H])C4([H])[H])c([H])c3[H])C(F)(F)F)c([H])c([H])c2C1([H])[H]

>  <smiles>  (43) 
[H]c1c([H])c([H])c2c(c1[H])C([H])([H])C([H])([H])C([H])([H])C2([H])N([H])C(=O)C1([H])N(C(=O)C([H])(N([H])C(=O)C([H])(N([H])C([H])([H])[H])C([H])([H])[H])C(C([H])([H])[H])(C([H])([H])[H])C([H])([H])[H])C([H])([H])c2c([H])c(OC([H])(C([H])([H])[H])C([H])(N([H])C(=O)C(=O)c3c([H])c([H])c(N([H])C(=O)N4C([H])([H])C([H])([H])C([H])([H])C([H])(n5nc(-c6c([H])c([H])c(Oc7c([H])c([H])c(F)c([H])c7F)c([H])c6[H])c(C(=O)N([H])[H])c5N([H])[H])C4([H])[H])c([H])c3[H])C(F)(F)F)c([H])c([H])c2C1([H])[H]

$$$$
43:0:0
     RDKit          3D

 97105  0  0  1  0  0  0  0  0999 V2000
  -29.3140  -22.3370   20.1590 C   0  0  0  0  0  0  0  0  0  0  0  0
  -28.9610  -21.0160   20.4530 N   0  0  0  0  0  0  0  0  0  0  0  0
  -30.4880  -22.6330   19.9390 O   0  0  0  0  0  0  0  0  0  0  0  0
  -27.9620  -20.8680   20.4450 H   0  0  0  0  0  0  0  0  0  0  0  0
  -31.7200  -18.6690   21.7590 C   0  0  0  0  0  3  0  0  0  0  0  0
  -31.3340  -17.4000   21.2880 C   0  0  0  0  0  3  0  0  0  0  0  0
  -29.3690  -18.4380   20.3180 C   0  0  0  0  0  3  0  0  0  0  0  0
  -30.9560  -19.8380   21.5450 C   0  0  0  0  0  0  0  0  0  0  0  0
  -30.1310  -17.2140   20.5820 C   0  0  0  0  0  0  0  0  0  0  0  0
  -29.7740  -19.7850   20.7380 C   0  0  0  0  0  0  0  0  0  0  0  0
  -30.4510  -14.6570   20.0210 C   0  0  0  0  0  0  0  0  0  0  0  0
  -30.1520  -12.4230   18.9200 C   0  0  0  0  0  2  0  0  0  0  0  0
  -29.1280  -12.5170   17.7670 C   0  0  0  0  0  2  0  0  0  0  0  0
  -27.6940  -12.3290   18.2970 C   0  0  0  0  0  2  0  0  0  0  0  0
  -27.4030  -13.1870   19.5570 C   0  0  0  0  0  3  0  0  0  0  0  0
  -28.5390  -13.0810   20.5990 C   0  0  0  0  0  2  0  0  0  0  0  0
  -29.7870  -13.4530   19.9210 N   0  0  0  0  0  0  0  0  0  0  0  0
  -31.6290  -14.7260   19.6570 O   0  0  0  0  0  0  0  0  0  0  0  0
  -29.7100  -15.8160   20.2610 N   0  0  0  0  0  0  0  0  0  0  0  0
  -28.7140  -15.6600   20.2730 H   0  0  0  0  0  0  0  0  0  0  0  0
  -25.0770  -13.7580   20.4710 C   0  0  0  0  0  0  0  0  0  0  0  0
  -24.0360  -12.9730   20.8860 C   0  0  0  0  0  0  0  0  0  0  0  0
  -24.4890  -11.6230   20.7770 C   0  0  0  0  0  0  0  0  0  0  0  0
  -26.0980  -12.8850   20.1330 N   0  0  0  0  0  0  0  0  0  0  0  0
  -25.7550  -11.5940   20.3810 N   0  0  0  0  0  0  0  0  0  0  0  0
  -23.7700  -10.3570   20.9700 C   0  0  0  0  0  0  0  0  0  0  0  0
  -24.2110   -9.3900   21.8990 C   0  0  0  0  0  3  0  0  0  0  0  0
  -23.4900   -8.1890   22.0780 C   0  0  0  0  0  3  0  0  0  0  0  0
  -22.3140   -7.9480   21.3270 C   0  0  0  0  0  0  0  0  0  0  0  0
  -21.8940   -8.9050   20.3860 C   0  0  0  0  0  3  0  0  0  0  0  0
  -22.6150  -10.0960   20.2050 C   0  0  0  0  0  3  0  0  0  0  0  0
  -21.5640   -6.8010   21.4180 O   0  0  0  0  0  0  0  0  0  0  0  0
  -21.4910   -6.0780   22.5820 C   0  0  0  0  0  0  0  0  0  0  0  0
  -20.9940   -6.6400   23.7790 C   0  0  0  0  0  3  0  0  0  0  0  0
  -20.8700   -5.8420   24.9340 C   0  0  0  0  0  3  0  0  0  0  0  0
  -21.2340   -4.4830   24.8930 C   0  0  0  0  0  0  0  0  0  0  0  0
  -21.7220   -3.9190   23.7010 C   0  0  0  0  0  3  0  0  0  0  0  0
  -21.8480   -4.7150   22.5490 C   0  0  0  0  0  0  0  0  0  0  0  0
  -22.3010   -4.1610   21.3980 F   0  0  0  0  0  0  0  0  0  0  0  0
  -21.1080   -3.7140   25.9990 F   0  0  0  0  0  0  0  0  0  0  0  0
  -22.6610  -13.4450   21.2660 C   0  0  0  0  0  0  0  0  0  0  0  0
  -21.9870  -12.7210   22.1520 N   0  0  0  0  0  0  0  0  0  0  0  0
  -22.1970  -14.4910   20.8140 O   0  0  0  0  0  0  0  0  0  0  0  0
  -22.3770  -11.8730   22.5390 H   0  0  0  0  0  0  0  0  0  0  0  0
  -21.0690  -13.0180   22.4510 H   0  0  0  0  0  0  0  0  0  0  0  0
  -25.2310  -15.1340   20.3280 N   0  0  0  0  0  0  0  0  0  0  0  0
  -24.4630  -15.7760   20.4940 H   0  0  0  0  0  0  0  0  0  0  0  0
  -26.0400  -15.5860   19.9240 H   0  0  0  0  0  0  0  0  0  0  0  0
  -30.6920  -21.5920   23.2460 C   0  0  0  0  0  2  0  0  0  0  0  0
  -31.4310  -21.0400   22.2660 C   0  0  0  0  0  0  0  0  0  0  0  0
  -33.9630  -21.1540   22.6580 C   0  0  0  0  0  1  0  0  0  0  0  0
  -32.7610  -21.6460   21.8420 C   0  0  0  0  0  2  0  0  0  0  0  0
  -26.8330  -22.9730   20.2030 C   0  0  0  0  0  1  0  0  0  0  0  0
  -28.3340  -23.8980   18.4280 C   0  0  0  0  0  1  0  0  0  0  0  0
  -28.2450  -23.5350   19.9290 C   0  0  2  0  0  0  0  0  0  0  0  0
  -28.4310  -24.9270   20.7720 C   0  0  0  0  0  2  0  0  0  0  0  0
  -28.4510  -26.3230   20.2020 O   0  0  0  0  0  0  0  0  0  0  0  0
  -24.4950  -31.7270   23.0960 C   0  0  0  0  0  0  0  0  0  0  0  0
  -27.3050  -27.1460   20.2010 C   0  0  0  0  0  0  0  0  0  0  0  0
  -23.3760  -30.2720   21.4450 C   0  0  0  0  0  3  0  0  0  0  0  0
  -24.9070  -28.7230   20.0940 C   0  0  0  0  0  0  0  0  0  0  0  0
  -25.9150  -30.6380   21.3370 C   0  0  0  0  0  2  0  0  0  0  0  0
  -26.0500  -29.2480   20.7140 C   0  0  0  0  0  0  0  0  0  0  0  0
  -27.2550  -28.4740   20.7470 C   0  0  0  0  0  3  0  0  0  0  0  0
  -26.1380  -26.6780   19.5660 C   0  0  0  0  0  3  0  0  0  0  0  0
  -24.9550  -27.4430   19.5100 C   0  0  0  0  0  3  0  0  0  0  0  0
  -23.6520  -29.5780   20.0850 C   0  0  0  0  0  2  0  0  0  0  0  0
  -24.6130  -30.9010   22.0150 N   0  0  0  0  0  0  0  0  0  0  0  0
  -23.3870  -31.9870   23.5910 O   0  0  0  0  0  0  0  0  0  0  0  0
  -22.7040  -29.2580   22.4010 C   0  0  0  0  0  0  0  0  0  0  0  0
  -21.3810  -29.0720   22.2550 N   0  0  0  0  0  0  0  0  0  0  0  0
  -23.3710  -28.6430   23.2380 O   0  0  0  0  0  0  0  0  0  0  0  0
  -20.8970  -29.6250   21.5590 H   0  0  0  0  0  0  0  0  0  0  0  0
  -17.9980  -27.8670   22.7320 C   0  0  0  0  0  0  0  0  0  0  0  0
  -20.5550  -28.1300   23.0150 C   0  0  0  0  0  3  0  0  0  0  0  0
  -20.6630  -26.7000   22.4350 C   0  0  0  0  0  2  0  0  0  0  0  0
  -19.5670  -26.3810   21.4140 C   0  0  0  0  0  2  0  0  0  0  0  0
  -18.1800  -26.5210   22.0490 C   0  0  0  0  0  2  0  0  0  0  0  0
  -19.1130  -28.6290   23.1700 C   0  0  0  0  0  0  0  0  0  0  0  0
  -18.8920  -29.8900   23.7670 C   0  0  0  0  0  3  0  0  0  0  0  0
  -17.5860  -30.3900   23.9280 C   0  0  0  0  0  3  0  0  0  0  0  0
  -16.4840  -29.6240   23.5070 C   0  0  0  0  0  3  0  0  0  0  0  0
  -16.6900  -28.3650   22.9150 C   0  0  0  0  0  3  0  0  0  0  0  0
  -25.7410  -32.4000   23.7510 C   0  0  0  0  0  3  0  0  0  0  0  0
  -25.3730  -33.7820   24.0880 N   0  0  0  0  0  0  0  0  0  0  0  0
  -25.6680  -34.8540   23.3390 C   0  0  0  0  0  0  0  0  0  0  0  0
  -26.3460  -34.7850   22.3100 O   0  0  0  0  0  0  0  0  0  0  0  0
  -24.7670  -33.9060   24.8850 H   0  0  0  0  0  0  0  0  0  0  0  0
  -23.8710  -36.5820   22.9980 C   0  0  0  0  0  1  0  0  0  0  0  0
  -25.1260  -36.2200   23.8070 C   0  0  0  0  0  3  0  0  0  0  0  0
  -27.2180  -37.1850   24.6540 C   0  0  0  0  0  1  0  0  0  0  0  0
  -26.1170  -37.3120   23.7030 N   0  0  0  0  0  0  0  0  0  0  0  0
  -25.6740  -38.2140   23.8540 H   0  0  0  0  0  0  0  0  0  0  0  0
  -26.2590  -31.6370   25.0320 C   0  0  1  0  0  0  0  0  0  0  0  0
  -25.1520  -31.3480   26.0740 C   0  0  0  0  0  1  0  0  0  0  0  0
  -26.9050  -30.2870   24.6430 C   0  0  0  0  0  1  0  0  0  0  0  0
  -27.3630  -32.4720   25.7230 C   0  0  0  0  0  1  0  0  0  0  0  0
  1  2  1  0
  2 10  1  0
  3  1  2  0
  4  2  1  0
  6  5  2  0
  7  9  2  0
  7 10  1  0
  8  5  1  0
  8 50  1  0
  9  6  1  0
 10  8  2  0
 11 19  1  0
 12 17  1  0
 13 14  1  0
 13 12  1  0
 15 14  1  0
 15 24  1  0
 15 16  1  0
 17 11  1  0
 17 16  1  0
 18 11  2  0
 19 20  1  0
 19  9  1  0
 21 22  2  0
 22 41  1  0
 23 22  1  0
 23 26  1  0
 24 25  1  0
 24 21  1  0
 25 23  2  0
 26 27  1  0
 27 28  2  0
 29 32  1  0
 29 28  1  0
 30 29  2  0
 31 30  1  0
 31 26  2  0
 32 33  1  0
 33 34  1  0
 34 35  2  0
 36 35  1  0
 36 40  1  0
 37 36  2  0
 38 33  2  0
 38 37  1  0
 39 38  1  0
 41 42  1  0
 42 45  1  0
 42 44  1  0
 43 41  2  0
 46 21  1  0
 46 47  1  0
 48 46  1  0
 50 49  2  0
 52 50  1  0
 52 51  1  0
 55 54  1  6
 55  1  1  0
 55 53  1  0
 55 56  1  0
 57 56  1  0
 58 69  2  0
 59 57  1  0
 59 64  1  0
 60 68  1  0
 60 70  1  0
 61 63  1  0
 62 68  1  0
 63 64  2  0
 63 62  1  0
 65 59  2  0
 66 65  1  0
 66 61  2  0
 67 61  1  0
 67 60  1  0
 68 58  1  0
 70 72  2  0
 71 70  1  0
 73 71  1  0
 74 83  2  0
 74 79  1  0
 75 71  1  0
 75 79  1  0
 76 75  1  0
 77 78  1  0
 77 76  1  0
 78 74  1  0
 79 80  2  0
 80 81  1  0
 82 81  2  0
 83 82  1  0
 84 58  1  0
 84 85  1  0
 84 94  1  0
 85 88  1  0
 86 90  1  0
 86 85  1  0
 87 86  2  0
 90 89  1  0
 92 90  1  0
 92 93  1  0
 92 91  1  0
 94 97  1  1
 94 95  1  0
 96 94  1  0
M  ISO  4  11 100  19 100  56 101  57 101
M  END
>  <TORSDO>  (44) 
F 21

>  <SCORE>  (44) 
-13.231

>  <name>  (44) 
43

>  <ligand_id>  (44) 
43

>  <original_smiles>  (44) 
[H]C([H])=C(c1c([H])c([H])c(N([H])C(=O)N2C([H])([H])C([H])([H])C([H])([H])C([H])(n3nc(-c4c([H])c([H])c(Oc5c([H])c([H])c(F)c([H])c5F)c([H])c4[H])c(C(=O)N([H])[H])c3N([H])[H])C2([H])[H])c([H])c1N([H])C(=O)C(C([H])([H])[H])(C([H])([H])[H])C([H])([H])Oc1c([H])c([H])c2c(c1[H])C([H])([H])N(C(=O)C([H])(N([H])C(=O)C([H])(N([H])C([H])([H])[H])C([H])([H])[H])C(C([H])([H])[H])(C([H])([H])[H])C([H])([H])[H])C([H])(C(=O)N([H])C1([H])c3c([H])c([H])c([H])c([H])c3C([H])([H])C([H])([H])C1([H])[H])C2([H])[H])C([H])([H])C([H])([H])[H]

>  <smiles>  (44) 
[H]C([H])=C(c1c([H])c([H])c(N([H])C(=O)N2C([H])([H])C([H])([H])C([H])([H])C([H])(n3nc(-c4c([H])c([H])c(Oc5c([H])c([H])c(F)c([H])c5F)c([H])c4[H])c(C(=O)N([H])[H])c3N([H])[H])C2([H])[H])c([H])c1N([H])C(=O)C(C([H])([H])[H])(C([H])([H])[H])C([H])([H])Oc1c([H])c([H])c2c(c1[H])C([H])([H])N(C(=O)C([H])(N([H])C(=O)C([H])(N([H])C([H])([H])[H])C([H])([H])[H])C(C([H])([H])[H])(C([H])([H])[H])C([H])([H])[H])C([H])(C(=O)N([H])C1([H])c3c([H])c([H])c([H])c([H])c3C([H])([H])C([H])([H])C1([H])[H])C2([H])[H])C([H])([H])C([H])([H])[H]

$$$$
44:0:0
     RDKit          3D

 97106  0  0  1  0  0  0  0  0999 V2000
  -30.5720  -22.3770   21.1740 C   0  0  0  0  0  0  0  0  0  0  0  0
  -28.7880  -22.4410   19.7460 C   0  0  0  0  0  2  0  0  0  0  0  0
  -29.2290  -23.9480   19.9070 C   0  0  0  0  0  3  0  0  0  0  0  0
  -30.1480  -23.8690   21.1470 C   0  0  1  0  0  0  0  0  0  0  0  0
  -29.4090  -24.2040   22.4600 C   0  0  0  0  0  1  0  0  0  0  0  0
  -31.3780  -24.7900   20.9890 C   0  0  0  0  0  1  0  0  0  0  0  0
  -29.8500  -21.5940   20.3420 N   0  0  0  0  0  0  0  0  0  0  0  0
  -31.4940  -21.9800   21.8950 O   0  0  0  0  0  0  0  0  0  0  0  0
  -28.7940  -19.3650   20.7440 C   0  0  0  0  0  3  0  0  0  0  0  0
  -28.8120  -17.9450   20.8200 C   0  0  0  0  0  3  0  0  0  0  0  0
  -31.0500  -17.9130   19.9570 C   0  0  0  0  0  3  0  0  0  0  0  0
  -31.0610  -19.3500   19.8870 C   0  0  0  0  0  0  0  0  0  0  0  0
  -29.9120  -20.1190   20.3000 C   0  0  0  0  0  0  0  0  0  0  0  0
  -29.9370  -17.1730   20.4350 C   0  0  0  0  0  0  0  0  0  0  0  0
  -30.6040  -14.6860   20.0280 C   0  0  0  0  0  0  0  0  0  0  0  0
  -30.3120  -12.4840   18.9070 C   0  0  0  0  0  2  0  0  0  0  0  0
  -29.2890  -12.6510   17.7610 C   0  0  0  0  0  2  0  0  0  0  0  0
  -27.8480  -12.4810   18.2810 C   0  0  0  0  0  2  0  0  0  0  0  0
  -27.5750  -13.3080   19.5650 C   0  0  0  0  0  3  0  0  0  0  0  0
  -28.7030  -13.1110   20.6030 C   0  0  0  0  0  2  0  0  0  0  0  0
  -29.9760  -13.4670   19.9550 N   0  0  0  0  0  0  0  0  0  0  0  0
  -31.7250  -14.8560   19.5400 O   0  0  0  0  0  0  0  0  0  0  0  0
  -29.8540  -15.7130   20.5370 N   0  0  0  0  0  0  0  0  0  0  0  0
  -29.0050  -15.3780   20.9650 H   0  0  0  0  0  0  0  0  0  0  0  0
  -25.2320  -13.8930   20.4470 C   0  0  0  0  0  0  0  0  0  0  0  0
  -24.1870  -13.1120   20.8620 C   0  0  0  0  0  0  0  0  0  0  0  0
  -24.6400  -11.7610   20.7630 C   0  0  0  0  0  0  0  0  0  0  0  0
  -26.2570  -13.0170   20.1240 N   0  0  0  0  0  0  0  0  0  0  0  0
  -25.9100  -11.7290   20.3730 N   0  0  0  0  0  0  0  0  0  0  0  0
  -23.9220  -10.4950   20.9640 C   0  0  0  0  0  0  0  0  0  0  0  0
  -24.3800   -9.5250   21.8820 C   0  0  0  0  0  3  0  0  0  0  0  0
  -23.6630   -8.3220   22.0710 C   0  0  0  0  0  3  0  0  0  0  0  0
  -22.4740   -8.0830   21.3410 C   0  0  0  0  0  0  0  0  0  0  0  0
  -22.0360   -9.0430   20.4120 C   0  0  0  0  0  3  0  0  0  0  0  0
  -22.7530  -10.2350   20.2200 C   0  0  0  0  0  3  0  0  0  0  0  0
  -21.7260   -6.9340   21.4400 O   0  0  0  0  0  0  0  0  0  0  0  0
  -21.6610   -6.2160   22.6070 C   0  0  0  0  0  0  0  0  0  0  0  0
  -21.1800   -6.7860   23.8060 C   0  0  0  0  0  3  0  0  0  0  0  0
  -21.0640   -5.9940   24.9660 C   0  0  0  0  0  3  0  0  0  0  0  0
  -21.4190   -4.6320   24.9260 C   0  0  0  0  0  0  0  0  0  0  0  0
  -21.8940   -4.0620   23.7330 C   0  0  0  0  0  3  0  0  0  0  0  0
  -22.0120   -4.8520   22.5760 C   0  0  0  0  0  0  0  0  0  0  0  0
  -22.4490   -4.2920   21.4230 F   0  0  0  0  0  0  0  0  0  0  0  0
  -21.3000   -3.8680   26.0380 F   0  0  0  0  0  0  0  0  0  0  0  0
  -22.8110  -13.5840   21.2330 C   0  0  0  0  0  0  0  0  0  0  0  0
  -22.1390  -12.8700   22.1290 N   0  0  0  0  0  0  0  0  0  0  0  0
  -22.3420  -14.6200   20.7640 O   0  0  0  0  0  0  0  0  0  0  0  0
  -22.5330  -12.0300   22.5290 H   0  0  0  0  0  0  0  0  0  0  0  0
  -21.2190  -13.1670   22.4200 H   0  0  0  0  0  0  0  0  0  0  0  0
  -25.3900  -15.2670   20.2950 N   0  0  0  0  0  0  0  0  0  0  0  0
  -24.6300  -15.9190   20.4600 H   0  0  0  0  0  0  0  0  0  0  0  0
  -26.2070  -15.7080   19.8940 H   0  0  0  0  0  0  0  0  0  0  0  0
  -32.2780  -19.9990   19.2990 C   0  0  0  0  0  0  0  0  0  0  0  0
  -33.6150  -19.2800   19.4670 C   0  0  0  0  0  1  0  0  0  0  0  0
  -32.2620  -21.0720   18.6910 O   0  0  0  0  0  0  0  0  0  0  0  0
  -28.0740  -25.0470   19.8420 C   0  0  0  0  0  2  0  0  0  0  0  0
  -28.3310  -26.5070   19.9470 O   0  0  0  0  0  0  0  0  0  0  0  0
  -24.6280  -31.8540   23.1300 C   0  0  0  0  0  0  0  0  0  0  0  0
  -27.2080  -27.3600   19.9440 C   0  0  0  0  0  0  0  0  0  0  0  0
  -23.4080  -30.4900   21.4770 C   0  0  0  0  0  3  0  0  0  0  0  0
  -24.8420  -28.9740   20.0070 C   0  0  0  0  0  0  0  0  0  0  0  0
  -25.9490  -30.8110   21.2750 C   0  0  0  0  0  2  0  0  0  0  0  0
  -26.0220  -29.4480   20.5960 C   0  0  0  0  0  0  0  0  0  0  0  0
  -27.2090  -28.6560   20.5510 C   0  0  0  0  0  3  0  0  0  0  0  0
  -25.9970  -26.9440   19.3400 C   0  0  0  0  0  3  0  0  0  0  0  0
  -24.8330  -27.7270   19.3720 C   0  0  0  0  0  3  0  0  0  0  0  0
  -23.6080  -29.8470   20.0820 C   0  0  0  0  0  2  0  0  0  0  0  0
  -24.6810  -31.0680   22.0160 N   0  0  0  0  0  0  0  0  0  0  0  0
  -23.5500  -32.1200   23.6810 O   0  0  0  0  0  0  0  0  0  0  0  0
  -22.7570  -29.4500   22.4220 C   0  0  0  0  0  0  0  0  0  0  0  0
  -21.4280  -29.2800   22.3140 N   0  0  0  0  0  0  0  0  0  0  0  0
  -23.4450  -28.8010   23.2150 O   0  0  0  0  0  0  0  0  0  0  0  0
  -20.9320  -29.8530   21.6460 H   0  0  0  0  0  0  0  0  0  0  0  0
  -18.0470  -28.1260   22.8780 C   0  0  0  0  0  0  0  0  0  0  0  0
  -20.6160  -28.3330   23.0790 C   0  0  0  0  0  3  0  0  0  0  0  0
  -20.6730  -26.9190   22.4580 C   0  0  0  0  0  2  0  0  0  0  0  0
  -19.5400  -26.6510   21.4640 C   0  0  0  0  0  2  0  0  0  0  0  0
  -18.1790  -26.7990   22.1480 C   0  0  0  0  0  2  0  0  0  0  0  0
  -19.1910  -28.8550   23.2980 C   0  0  0  0  0  0  0  0  0  0  0  0
  -19.0120  -30.0980   23.9400 C   0  0  0  0  0  3  0  0  0  0  0  0
  -17.7210  -30.6160   24.1600 C   0  0  0  0  0  3  0  0  0  0  0  0
  -16.5920  -29.8840   23.7540 C   0  0  0  0  0  3  0  0  0  0  0  0
  -16.7560  -28.6400   23.1200 C   0  0  0  0  0  3  0  0  0  0  0  0
  -25.9180  -32.4760   23.7490 C   0  0  0  0  0  3  0  0  0  0  0  0
  -26.4540  -31.6740   24.9980 C   0  0  1  0  0  0  0  0  0  0  0  0
  -25.3750  -31.4080   26.0730 C   0  0  0  0  0  1  0  0  0  0  0  0
  -27.0360  -30.3080   24.5670 C   0  0  0  0  0  1  0  0  0  0  0  0
  -27.6100  -32.4580   25.6620 C   0  0  0  0  0  1  0  0  0  0  0  0
  -25.6080  -33.8640   24.1190 N   0  0  0  0  0  0  0  0  0  0  0  0
  -25.9070  -34.9360   23.3760 C   0  0  0  0  0  0  0  0  0  0  0  0
  -26.5490  -34.8600   22.3240 O   0  0  0  0  0  0  0  0  0  0  0  0
  -25.0330  -33.9930   24.9390 H   0  0  0  0  0  0  0  0  0  0  0  0
  -24.1570  -36.7210   23.1070 C   0  0  0  0  0  1  0  0  0  0  0  0
  -25.4220  -36.3090   23.8780 C   0  0  0  0  0  3  0  0  0  0  0  0
  -27.5670  -37.1910   24.6820 C   0  0  0  0  0  1  0  0  0  0  0  0
  -26.4430  -37.3740   23.7680 N   0  0  0  0  0  0  0  0  0  0  0  0
  -26.0320  -38.2860   23.9490 H   0  0  0  0  0  0  0  0  0  0  0  0
  1  8  2  0
  2  3  1  0
  2  7  1  0
  3 56  1  0
  3  4  1  0
  4  1  1  0
  4  5  1  1
  6  4  1  0
  7  1  1  0
  9 10  1  0
 11 14  1  0
 12 11  2  0
 12 13  1  0
 13  7  1  0
 13  9  2  0
 14 23  1  0
 14 10  2  0
 15 23  1  0
 16 21  1  0
 17 18  1  0
 17 16  1  0
 19 18  1  0
 19 28  1  0
 19 20  1  0
 21 15  1  0
 21 20  1  0
 22 15  2  0
 23 24  1  0
 25 26  2  0
 26 45  1  0
 27 26  1  0
 27 30  1  0
 28 29  1  0
 28 25  1  0
 29 27  2  0
 30 31  1  0
 31 32  2  0
 33 36  1  0
 33 32  1  0
 34 33  2  0
 35 34  1  0
 35 30  2  0
 36 37  1  0
 37 38  1  0
 38 39  2  0
 40 39  1  0
 40 44  1  0
 41 40  2  0
 42 37  2  0
 42 41  1  0
 43 42  1  0
 45 46  1  0
 46 49  1  0
 46 48  1  0
 47 45  2  0
 50 25  1  0
 50 51  1  0
 52 50  1  0
 53 54  1  0
 53 12  1  0
 55 53  2  0
 56 57  1  0
 58 69  2  0
 59 57  1  0
 59 64  1  0
 60 68  1  0
 60 70  1  0
 61 67  1  0
 61 63  1  0
 62 68  1  0
 63 62  1  0
 64 63  2  0
 65 66  1  0
 65 59  2  0
 66 61  2  0
 67 60  1  0
 68 58  1  0
 70 72  2  0
 71 70  1  0
 73 71  1  0
 74 83  2  0
 74 79  1  0
 75 71  1  0
 75 79  1  0
 76 75  1  0
 77 78  1  0
 77 76  1  0
 78 74  1  0
 79 80  2  0
 80 81  1  0
 82 81  2  0
 83 82  1  0
 84 58  1  0
 84 89  1  0
 84 85  1  0
 85 88  1  1
 85 86  1  0
 87 85  1  0
 89 92  1  0
 90 94  1  0
 90 89  1  0
 91 90  2  0
 94 93  1  0
 96 94  1  0
 96 97  1  0
 96 95  1  0
M  ISO  4  15 100  23 100  56 101  57 101
M  END
>  <TORSDO>  (45) 
F 19

>  <SCORE>  (45) 
-14.303

>  <name>  (45) 
44

>  <ligand_id>  (45) 
44

>  <original_smiles>  (45) 
[H]c1c([H])c([H])c2c(c1[H])C([H])([H])C([H])([H])C([H])([H])C2([H])N([H])C(=O)C1([H])N(C(=O)C([H])(N([H])C(=O)C([H])(N([H])C([H])([H])[H])C([H])([H])[H])C(C([H])([H])[H])(C([H])([H])[H])C([H])([H])[H])C([H])([H])c2c([H])c(OC([H])([H])C3([H])C([H])([H])N(c4c([H])c([H])c(N([H])C(=O)N5C([H])([H])C([H])([H])C([H])([H])C([H])(n6nc(-c7c([H])c([H])c(Oc8c([H])c([H])c(F)c([H])c8F)c([H])c7[H])c(C(=O)N([H])[H])c6N([H])[H])C5([H])[H])c([H])c4C(=O)C([H])([H])[H])C(=O)C3(C([H])([H])[H])C([H])([H])[H])c([H])c([H])c2C1([H])[H]

>  <smiles>  (45) 
[H]c1c([H])c([H])c2c(c1[H])C([H])([H])C([H])([H])C([H])([H])C2([H])N([H])C(=O)C1([H])N(C(=O)C([H])(N([H])C(=O)C([H])(N([H])C([H])([H])[H])C([H])([H])[H])C(C([H])([H])[H])(C([H])([H])[H])C([H])([H])[H])C([H])([H])c2c([H])c(OC([H])([H])C3([H])C([H])([H])N(c4c([H])c([H])c(N([H])C(=O)N5C([H])([H])C([H])([H])C([H])([H])C([H])(n6nc(-c7c([H])c([H])c(Oc8c([H])c([H])c(F)c([H])c8F)c([H])c7[H])c(C(=O)N([H])[H])c6N([H])[H])C5([H])[H])c([H])c4C(=O)C([H])([H])[H])C(=O)C3(C([H])([H])[H])C([H])([H])[H])c([H])c([H])c2C1([H])[H]

$$$$
45:0:0
     RDKit          3D

 93101  0  0  1  0  0  0  0  0999 V2000
  -29.1340  -23.0330   20.6340 C   0  0  0  0  0  0  0  0  0  0  0  0
  -28.7100  -21.7470   20.7000 N   0  0  0  0  0  0  0  0  0  0  0  0
  -30.3170  -23.3310   20.8030 O   0  0  0  0  0  0  0  0  0  0  0  0
  -27.7240  -21.5840   20.5470 H   0  0  0  0  0  0  0  0  0  0  0  0
  -29.4940  -20.5770   21.1840 C   0  0  0  0  0  2  0  0  0  0  0  0
  -28.9330  -18.1000   18.2700 C   0  0  0  0  0  3  0  0  0  0  0  0
  -28.9700  -19.2810   19.0380 C   0  0  0  0  0  3  0  0  0  0  0  0
  -29.3230  -16.8700   18.8280 C   0  0  0  0  0  3  0  0  0  0  0  0
  -29.4020  -19.2540   20.3830 C   0  0  0  0  0  0  0  0  0  0  0  0
  -29.7500  -16.7910   20.1740 C   0  0  0  0  0  0  0  0  0  0  0  0
  -29.7850  -17.9910   20.9500 C   0  0  0  0  0  0  0  0  0  0  0  0
  -30.3110  -17.9040   22.5960 Cl  0  0  0  0  0  0  0  0  0  0  0  0
  -30.7050  -14.4990   20.1270 C   0  0  0  0  0  0  0  0  0  0  0  0
  -30.3690  -12.3400   18.9800 C   0  0  0  0  0  2  0  0  0  0  0  0
  -29.3740  -12.5720   17.8240 C   0  0  0  0  0  2  0  0  0  0  0  0
  -27.9230  -12.4260   18.3220 C   0  0  0  0  0  2  0  0  0  0  0  0
  -27.6500  -13.2330   19.6190 C   0  0  0  0  0  3  0  0  0  0  0  0
  -28.7580  -12.9930   20.6710 C   0  0  0  0  0  2  0  0  0  0  0  0
  -30.0550  -13.3040   20.0490 N   0  0  0  0  0  0  0  0  0  0  0  0
  -31.7900  -14.7020   19.5750 O   0  0  0  0  0  0  0  0  0  0  0  0
  -30.0360  -15.5000   20.7440 N   0  0  0  0  0  0  0  0  0  0  0  0
  -29.3700  -15.1920   21.4350 H   0  0  0  0  0  0  0  0  0  0  0  0
  -25.2970  -13.8240   20.4770 C   0  0  0  0  0  0  0  0  0  0  0  0
  -24.2470  -13.0420   20.8760 C   0  0  0  0  0  0  0  0  0  0  0  0
  -24.7000  -11.6900   20.7770 C   0  0  0  0  0  0  0  0  0  0  0  0
  -26.3230  -12.9480   20.1590 N   0  0  0  0  0  0  0  0  0  0  0  0
  -25.9700  -11.6580   20.3940 N   0  0  0  0  0  0  0  0  0  0  0  0
  -23.9810  -10.4250   20.9680 C   0  0  0  0  0  0  0  0  0  0  0  0
  -24.4150   -9.4590   21.9020 C   0  0  0  0  0  3  0  0  0  0  0  0
  -23.6950   -8.2580   22.0800 C   0  0  0  0  0  3  0  0  0  0  0  0
  -22.5250   -8.0140   21.3230 C   0  0  0  0  0  0  0  0  0  0  0  0
  -22.1090   -8.9680   20.3780 C   0  0  0  0  0  3  0  0  0  0  0  0
  -22.8300  -10.1610   20.1990 C   0  0  0  0  0  3  0  0  0  0  0  0
  -21.7770   -6.8630   21.4090 O   0  0  0  0  0  0  0  0  0  0  0  0
  -21.6700   -6.1600   22.5810 C   0  0  0  0  0  0  0  0  0  0  0  0
  -21.1640   -6.7500   23.7600 C   0  0  0  0  0  3  0  0  0  0  0  0
  -21.0080   -5.9720   24.9250 C   0  0  0  0  0  3  0  0  0  0  0  0
  -21.3470   -4.6060   24.9110 C   0  0  0  0  0  0  0  0  0  0  0  0
  -21.8460   -4.0160   23.7370 C   0  0  0  0  0  3  0  0  0  0  0  0
  -22.0040   -4.7920   22.5750 C   0  0  0  0  0  0  0  0  0  0  0  0
  -22.4650   -4.2130   21.4390 F   0  0  0  0  0  0  0  0  0  0  0  0
  -21.1910   -3.8550   26.0270 F   0  0  0  0  0  0  0  0  0  0  0  0
  -22.8700  -13.5140   21.2410 C   0  0  0  0  0  0  0  0  0  0  0  0
  -22.1890  -12.7940   22.1240 N   0  0  0  0  0  0  0  0  0  0  0  0
  -22.4080  -14.5560   20.7790 O   0  0  0  0  0  0  0  0  0  0  0  0
  -22.5740  -11.9490   22.5230 H   0  0  0  0  0  0  0  0  0  0  0  0
  -21.2660  -13.0930   22.4070 H   0  0  0  0  0  0  0  0  0  0  0  0
  -25.4570  -15.2000   20.3360 N   0  0  0  0  0  0  0  0  0  0  0  0
  -24.7050  -15.8550   20.5100 H   0  0  0  0  0  0  0  0  0  0  0  0
  -26.2960  -15.6500   19.9920 H   0  0  0  0  0  0  0  0  0  0  0  0
  -28.0790  -24.1560   20.4030 C   0  0  0  0  0  2  0  0  0  0  0  0
  -28.5210  -25.4030   19.5580 C   0  0  0  0  0  2  0  0  0  0  0  0
  -28.3990  -26.6960   20.2050 O   0  0  0  0  0  0  0  0  0  0  0  0
  -24.5770  -31.9070   23.2410 C   0  0  0  0  0  0  0  0  0  0  0  0
  -27.2100  -27.4150   20.1800 C   0  0  0  0  0  0  0  0  0  0  0  0
  -23.3660  -30.4950   21.6140 C   0  0  0  0  0  3  0  0  0  0  0  0
  -24.8140  -28.9480   20.1910 C   0  0  0  0  0  0  0  0  0  0  0  0
  -25.8950  -30.8450   21.4080 C   0  0  0  0  0  2  0  0  0  0  0  0
  -25.9760  -29.4690   20.7710 C   0  0  0  0  0  0  0  0  0  0  0  0
  -27.1710  -28.7090   20.7630 C   0  0  0  0  0  3  0  0  0  0  0  0
  -26.0210  -26.9160   19.6010 C   0  0  0  0  0  3  0  0  0  0  0  0
  -24.8310  -27.6700   19.6090 C   0  0  0  0  0  3  0  0  0  0  0  0
  -23.5710  -29.8130   20.2360 C   0  0  0  0  0  2  0  0  0  0  0  0
  -24.6310  -31.1000   22.1430 N   0  0  0  0  0  0  0  0  0  0  0  0
  -23.4980  -32.1810   23.7830 O   0  0  0  0  0  0  0  0  0  0  0  0
  -22.7160  -29.4790   22.5810 C   0  0  0  0  0  0  0  0  0  0  0  0
  -21.3940  -29.2870   22.4510 N   0  0  0  0  0  0  0  0  0  0  0  0
  -23.3990  -28.8670   23.4060 O   0  0  0  0  0  0  0  0  0  0  0  0
  -20.9000  -29.8300   21.7570 H   0  0  0  0  0  0  0  0  0  0  0  0
  -18.0270  -28.0620   22.9190 C   0  0  0  0  0  0  0  0  0  0  0  0
  -20.5780  -28.3520   23.2250 C   0  0  0  0  0  3  0  0  0  0  0  0
  -20.7090  -26.9140   22.6720 C   0  0  0  0  0  2  0  0  0  0  0  0
  -19.6250  -26.5640   21.6480 C   0  0  0  0  0  2  0  0  0  0  0  0
  -18.2310  -26.7030   22.2690 C   0  0  0  0  0  2  0  0  0  0  0  0
  -19.1310  -28.8420   23.3530 C   0  0  0  0  0  0  0  0  0  0  0  0
  -18.8900  -30.1150   23.9170 C   0  0  0  0  0  3  0  0  0  0  0  0
  -17.5780  -30.6040   24.0560 C   0  0  0  0  0  3  0  0  0  0  0  0
  -16.4880  -29.8200   23.6430 C   0  0  0  0  0  3  0  0  0  0  0  0
  -16.7130  -28.5510   23.0780 C   0  0  0  0  0  3  0  0  0  0  0  0
  -25.8650  -32.5420   23.8520 C   0  0  0  0  0  3  0  0  0  0  0  0
  -26.3910  -31.7730   25.1260 C   0  0  1  0  0  0  0  0  0  0  0  0
  -25.3060  -31.5330   26.2010 C   0  0  0  0  0  1  0  0  0  0  0  0
  -26.9730  -30.3950   24.7300 C   0  0  0  0  0  1  0  0  0  0  0  0
  -27.5420  -32.5720   25.7830 C   0  0  0  0  0  1  0  0  0  0  0  0
  -25.5590  -33.9410   24.1790 N   0  0  0  0  0  0  0  0  0  0  0  0
  -25.8990  -34.9920   23.4210 C   0  0  0  0  0  0  0  0  0  0  0  0
  -26.5720  -34.8880   22.3920 O   0  0  0  0  0  0  0  0  0  0  0  0
  -24.9610  -34.0970   24.9770 H   0  0  0  0  0  0  0  0  0  0  0  0
  -24.1740  -36.7860   23.0660 C   0  0  0  0  0  1  0  0  0  0  0  0
  -25.4120  -36.3800   23.8810 C   0  0  0  0  0  3  0  0  0  0  0  0
  -27.5420  -37.2570   24.7240 C   0  0  0  0  0  1  0  0  0  0  0  0
  -26.4460  -37.4320   23.7760 N   0  0  0  0  0  0  0  0  0  0  0  0
  -26.0400  -38.3510   23.9310 H   0  0  0  0  0  0  0  0  0  0  0  0
  1  2  1  0
  1  3  2  0
  2  5  1  0
  4  2  1  0
  6  8  2  0
  6  7  1  0
  7  9  2  0
  8 10  1  0
  9 11  1  0
  9  5  1  0
 10 21  1  0
 10 11  2  0
 11 12  1  0
 13 21  1  0
 14 19  1  0
 15 16  1  0
 15 14  1  0
 17 16  1  0
 17 26  1  0
 17 18  1  0
 19 13  1  0
 19 18  1  0
 20 13  2  0
 21 22  1  0
 23 24  2  0
 24 43  1  0
 25 24  1  0
 25 28  1  0
 26 27  1  0
 26 23  1  0
 27 25  2  0
 28 29  1  0
 29 30  2  0
 31 34  1  0
 31 30  1  0
 32 31  2  0
 33 32  1  0
 33 28  2  0
 34 35  1  0
 35 36  1  0
 36 37  2  0
 38 37  1  0
 38 42  1  0
 39 38  2  0
 40 35  2  0
 40 39  1  0
 41 40  1  0
 43 44  1  0
 44 47  1  0
 44 46  1  0
 45 43  2  0
 48 23  1  0
 48 49  1  0
 50 48  1  0
 51  1  1  0
 52 53  1  0
 52 51  1  0
 54 65  2  0
 55 53  1  0
 55 60  1  0
 56 64  1  0
 56 66  1  0
 57 63  1  0
 57 59  1  0
 58 64  1  0
 59 58  1  0
 60 59  2  0
 61 62  1  0
 61 55  2  0
 62 57  2  0
 63 56  1  0
 64 54  1  0
 66 68  2  0
 67 66  1  0
 69 67  1  0
 70 79  2  0
 70 75  1  0
 71 67  1  0
 71 75  1  0
 72 71  1  0
 73 74  1  0
 73 72  1  0
 74 70  1  0
 75 76  2  0
 76 77  1  0
 78 77  2  0
 79 78  1  0
 80 54  1  0
 80 85  1  0
 80 81  1  0
 81 84  1  1
 81 82  1  0
 83 81  1  0
 85 88  1  0
 86 90  1  0
 86 85  1  0
 87 86  2  0
 90 89  1  0
 92 90  1  0
 92 93  1  0
 92 91  1  0
M  ISO  4  13 100  21 100  52 101  53 101
M  END
>  <TORSDO>  (46) 
F 20

>  <SCORE>  (46) 
-13.621

>  <name>  (46) 
45

>  <ligand_id>  (46) 
45

>  <original_smiles>  (46) 
[H]c1c([H])c(N([H])C(=O)N2C([H])([H])C([H])([H])C([H])([H])C([H])(n3nc(-c4c([H])c([H])c(Oc5c([H])c([H])c(F)c([H])c5F)c([H])c4[H])c(C(=O)N([H])[H])c3N([H])[H])C2([H])[H])c(Cl)c(C([H])([H])N([H])C(=O)C([H])([H])C([H])([H])Oc2c([H])c([H])c3c(c2[H])C([H])([H])N(C(=O)C([H])(N([H])C(=O)C([H])(N([H])C([H])([H])[H])C([H])([H])[H])C(C([H])([H])[H])(C([H])([H])[H])C([H])([H])[H])C([H])(C(=O)N([H])C2([H])c4c([H])c([H])c([H])c([H])c4C([H])([H])C([H])([H])C2([H])[H])C3([H])[H])c1[H]

>  <smiles>  (46) 
[H]c1c([H])c(N([H])C(=O)N2C([H])([H])C([H])([H])C([H])([H])C([H])(n3nc(-c4c([H])c([H])c(Oc5c([H])c([H])c(F)c([H])c5F)c([H])c4[H])c(C(=O)N([H])[H])c3N([H])[H])C2([H])[H])c(Cl)c(C([H])([H])N([H])C(=O)C([H])([H])C([H])([H])Oc2c([H])c([H])c3c(c2[H])C([H])([H])N(C(=O)C([H])(N([H])C(=O)C([H])(N([H])C([H])([H])[H])C([H])([H])[H])C(C([H])([H])[H])(C([H])([H])[H])C([H])([H])[H])C([H])(C(=O)N([H])C2([H])c4c([H])c([H])c([H])c([H])c4C([H])([H])C([H])([H])C2([H])[H])C3([H])[H])c1[H]

$$$$
46:0:0
     RDKit          3D

 96105  0  0  1  0  0  0  0  0999 V2000
  -28.1470  -23.2930   21.0810 C   0  0  0  0  0  0  0  0  0  0  0  0
  -28.4490  -21.7830   21.0560 C   0  0  0  0  0  3  0  0  0  0  0  0
  -29.7250  -22.8270   19.4360 C   0  0  0  0  0  2  0  0  0  0  0  0
  -29.2060  -24.0820   20.2970 C   0  0  2  0  0  0  0  0  0  0  0  0
  -30.3350  -24.5100   21.2660 C   0  0  0  0  0  1  0  0  0  0  0  0
  -29.3850  -21.5010   20.1190 N   0  0  0  0  0  0  0  0  0  0  0  0
  -27.8440  -20.9270   21.8850 N   0  0  0  0  0  0  0  0  0  0  0  0
  -27.1890  -23.7780   21.6920 O   0  0  0  0  0  0  0  0  0  0  0  0
  -27.2250  -21.2810   22.5910 H   0  0  0  0  0  0  0  0  0  0  0  0
  -27.9820  -19.9390   21.8390 H   0  0  0  0  0  0  0  0  0  0  0  0
  -32.4670  -19.3200   19.6590 C   0  0  0  0  0  3  0  0  0  0  0  0
  -31.6000  -20.4180   19.7800 C   0  0  0  0  0  3  0  0  0  0  0  0
  -32.0000  -17.9970   19.7520 C   0  0  0  0  0  3  0  0  0  0  0  0
  -29.7560  -18.8460   20.1050 C   0  0  0  0  0  3  0  0  0  0  0  0
  -30.2190  -20.2310   19.9990 C   0  0  0  0  0  0  0  0  0  0  0  0
  -30.6390  -17.6820   20.0010 C   0  0  0  0  0  0  0  0  0  0  0  0
  -30.9100  -15.0510   19.9650 C   0  0  0  0  0  0  0  0  0  0  0  0
  -30.6050  -12.7740   18.9960 C   0  0  0  0  0  2  0  0  0  0  0  0
  -29.6150  -12.8390   17.8140 C   0  0  0  0  0  2  0  0  0  0  0  0
  -28.1710  -12.6610   18.3180 C   0  0  0  0  0  2  0  0  0  0  0  0
  -27.8510  -13.5610   19.5400 C   0  0  0  0  0  3  0  0  0  0  0  0
  -28.9650  -13.5240   20.6100 C   0  0  0  0  0  2  0  0  0  0  0  0
  -30.2260  -13.8540   19.9380 N   0  0  0  0  0  0  0  0  0  0  0  0
  -32.0950  -15.0470   19.6340 O   0  0  0  0  0  0  0  0  0  0  0  0
  -30.2070  -16.2480   20.1350 N   0  0  0  0  0  0  0  0  0  0  0  0
  -29.2280  -16.1120   20.3280 H   0  0  0  0  0  0  0  0  0  0  0  0
  -25.5180  -14.1430   20.4350 C   0  0  0  0  0  0  0  0  0  0  0  0
  -24.4630  -13.3620   20.8270 C   0  0  0  0  0  0  0  0  0  0  0  0
  -24.9060  -12.0100   20.7120 C   0  0  0  0  0  0  0  0  0  0  0  0
  -26.5340  -13.2630   20.1000 N   0  0  0  0  0  0  0  0  0  0  0  0
  -26.1770  -11.9720   20.3320 N   0  0  0  0  0  0  0  0  0  0  0  0
  -24.1750  -10.7470   20.8830 C   0  0  0  0  0  0  0  0  0  0  0  0
  -24.5870   -9.7780   21.8230 C   0  0  0  0  0  3  0  0  0  0  0  0
  -23.8570   -8.5800   21.9840 C   0  0  0  0  0  3  0  0  0  0  0  0
  -22.7000   -8.3440   21.2030 C   0  0  0  0  0  0  0  0  0  0  0  0
  -22.3090   -9.3030   20.2500 C   0  0  0  0  0  3  0  0  0  0  0  0
  -23.0410  -10.4910   20.0890 C   0  0  0  0  0  3  0  0  0  0  0  0
  -21.9430   -7.1980   21.2720 O   0  0  0  0  0  0  0  0  0  0  0  0
  -21.7900   -6.5060   22.4480 C   0  0  0  0  0  0  0  0  0  0  0  0
  -21.2040   -7.0940   23.5900 C   0  0  0  0  0  3  0  0  0  0  0  0
  -21.0070   -6.3260   24.7560 C   0  0  0  0  0  3  0  0  0  0  0  0
  -21.3800   -4.9680   24.7770 C   0  0  0  0  0  0  0  0  0  0  0  0
  -21.9570   -4.3800   23.6370 C   0  0  0  0  0  3  0  0  0  0  0  0
  -22.1580   -5.1460   22.4770 C   0  0  0  0  0  0  0  0  0  0  0  0
  -22.6950   -4.5670   21.3760 F   0  0  0  0  0  0  0  0  0  0  0  0
  -21.1810   -4.2280   25.8930 F   0  0  0  0  0  0  0  0  0  0  0  0
  -23.0890  -13.8420   21.1930 C   0  0  0  0  0  0  0  0  0  0  0  0
  -22.4030  -13.1170   22.0720 N   0  0  0  0  0  0  0  0  0  0  0  0
  -22.6370  -14.8910   20.7420 O   0  0  0  0  0  0  0  0  0  0  0  0
  -22.7880  -12.2700   22.4610 H   0  0  0  0  0  0  0  0  0  0  0  0
  -21.4830  -13.4140   22.3590 H   0  0  0  0  0  0  0  0  0  0  0  0
  -25.6900  -15.5190   20.3110 N   0  0  0  0  0  0  0  0  0  0  0  0
  -24.9360  -16.1720   20.4970 H   0  0  0  0  0  0  0  0  0  0  0  0
  -26.5210  -15.9700   19.9460 H   0  0  0  0  0  0  0  0  0  0  0  0
  -28.7170  -25.4000   19.4900 C   0  0  0  0  0  2  0  0  0  0  0  0
  -28.5650  -26.7490   20.1320 O   0  0  0  0  0  0  0  0  0  0  0  0
  -24.6620  -31.9800   23.2280 C   0  0  0  0  0  0  0  0  0  0  0  0
  -27.4010  -27.5470   20.0680 C   0  0  0  0  0  0  0  0  0  0  0  0
  -23.5000  -30.5810   21.5630 C   0  0  0  0  0  3  0  0  0  0  0  0
  -24.9880  -29.1040   20.1030 C   0  0  0  0  0  0  0  0  0  0  0  0
  -26.0250  -30.9770   21.3760 C   0  0  0  0  0  2  0  0  0  0  0  0
  -26.1440  -29.6110   20.7040 C   0  0  0  0  0  0  0  0  0  0  0  0
  -27.3480  -28.8460   20.6730 C   0  0  0  0  0  3  0  0  0  0  0  0
  -26.2100  -27.0980   19.4490 C   0  0  0  0  0  3  0  0  0  0  0  0
  -25.0230  -27.8560   19.4660 C   0  0  0  0  0  3  0  0  0  0  0  0
  -23.7300  -29.9410   20.1680 C   0  0  0  0  0  2  0  0  0  0  0  0
  -24.7490  -31.1960   22.1140 N   0  0  0  0  0  0  0  0  0  0  0  0
  -23.5720  -32.2080   23.7720 O   0  0  0  0  0  0  0  0  0  0  0  0
  -22.8670  -29.5250   22.5020 C   0  0  0  0  0  0  0  0  0  0  0  0
  -21.5440  -29.3170   22.3770 N   0  0  0  0  0  0  0  0  0  0  0  0
  -23.5620  -28.8970   23.3050 O   0  0  0  0  0  0  0  0  0  0  0  0
  -21.0400  -29.8670   21.6960 H   0  0  0  0  0  0  0  0  0  0  0  0
  -18.1940  -28.0430   22.8730 C   0  0  0  0  0  0  0  0  0  0  0  0
  -20.7510  -28.3460   23.1300 C   0  0  0  0  0  3  0  0  0  0  0  0
  -20.8800  -26.9370   22.5100 C   0  0  0  0  0  2  0  0  0  0  0  0
  -19.7760  -26.6200   21.4960 C   0  0  0  0  0  2  0  0  0  0  0  0
  -18.3960  -26.7180   22.1560 C   0  0  0  0  0  2  0  0  0  0  0  0
  -19.3020  -28.8160   23.3150 C   0  0  0  0  0  0  0  0  0  0  0  0
  -19.0620  -30.0550   23.9480 C   0  0  0  0  0  3  0  0  0  0  0  0
  -17.7490  -30.5230   24.1430 C   0  0  0  0  0  3  0  0  0  0  0  0
  -16.6570  -29.7470   23.7210 C   0  0  0  0  0  3  0  0  0  0  0  0
  -16.8810  -28.5090   23.0910 C   0  0  0  0  0  3  0  0  0  0  0  0
  -25.9260  -32.6400   23.8600 C   0  0  0  0  0  3  0  0  0  0  0  0
  -25.5910  -34.0360   24.1790 N   0  0  0  0  0  0  0  0  0  0  0  0
  -25.9110  -35.0890   23.4170 C   0  0  0  0  0  0  0  0  0  0  0  0
  -26.5870  -34.9930   22.3900 O   0  0  0  0  0  0  0  0  0  0  0  0
  -24.9930  -34.1820   24.9790 H   0  0  0  0  0  0  0  0  0  0  0  0
  -24.1570  -36.8560   23.0420 C   0  0  0  0  0  1  0  0  0  0  0  0
  -25.3970  -36.4710   23.8660 C   0  0  0  0  0  3  0  0  0  0  0  0
  -27.5010  -37.4050   24.7280 C   0  0  0  0  0  1  0  0  0  0  0  0
  -26.4120  -37.5430   23.7620 N   0  0  0  0  0  0  0  0  0  0  0  0
  -25.9860  -38.4560   23.8980 H   0  0  0  0  0  0  0  0  0  0  0  0
  -26.4390  -31.8830   25.1450 C   0  0  1  0  0  0  0  0  0  0  0  0
  -25.3350  -31.6150   26.1960 C   0  0  0  0  0  1  0  0  0  0  0  0
  -27.0560  -30.5200   24.7590 C   0  0  0  0  0  1  0  0  0  0  0  0
  -27.5570  -32.7050   25.8280 C   0  0  0  0  0  1  0  0  0  0  0  0
  1  8  2  0
  2  1  1  0
  2  7  1  0
  3  6  1  0
  3  4  1  0
  4  1  1  0
  4  5  1  1
  6  2  1  0
  7  9  1  0
 10  7  1  0
 11 13  2  0
 11 12  1  0
 12 15  2  0
 13 16  1  0
 15 14  1  0
 15  6  1  0
 16 14  2  0
 16 25  1  0
 17 25  1  0
 18 23  1  0
 19 20  1  0
 19 18  1  0
 21 20  1  0
 21 30  1  0
 21 22  1  0
 23 17  1  0
 23 22  1  0
 24 17  2  0
 25 26  1  0
 27 28  2  0
 28 47  1  0
 29 28  1  0
 29 32  1  0
 30 31  1  0
 30 27  1  0
 31 29  2  0
 32 33  1  0
 33 34  2  0
 35 38  1  0
 35 34  1  0
 36 35  2  0
 37 36  1  0
 37 32  2  0
 38 39  1  0
 39 44  2  0
 39 40  1  0
 40 41  2  0
 41 42  1  0
 42 46  1  0
 43 42  2  0
 44 43  1  0
 45 44  1  0
 47 48  1  0
 48 51  1  0
 48 50  1  0
 49 47  2  0
 52 27  1  0
 52 53  1  0
 54 52  1  0
 55 56  1  0
 55  4  1  0
 57 68  2  0
 58 56  1  0
 58 63  1  0
 59 67  1  0
 59 69  1  0
 60 66  1  0
 60 62  1  0
 61 67  1  0
 62 61  1  0
 63 62  2  0
 64 65  1  0
 64 58  2  0
 65 60  2  0
 66 59  1  0
 67 57  1  0
 69 71  2  0
 70 69  1  0
 72 70  1  0
 73 82  2  0
 73 78  1  0
 74 70  1  0
 74 78  1  0
 75 74  1  0
 76 77  1  0
 76 75  1  0
 77 73  1  0
 78 79  2  0
 79 80  1  0
 81 80  2  0
 82 81  1  0
 83 57  1  0
 83 84  1  0
 83 93  1  0
 84 87  1  0
 85 89  1  0
 85 84  1  0
 86 85  2  0
 89 88  1  0
 91 89  1  0
 91 92  1  0
 91 90  1  0
 93 96  1  1
 93 94  1  0
 95 93  1  0
M  ISO  4  17 100  25 100  55 101  56 101
M  END
>  <TORSDO>  (47) 
F 18

>  <SCORE>  (47) 
-14.073

>  <name>  (47) 
46

>  <ligand_id>  (47) 
46

>  <original_smiles>  (47) 
[H]c1c([H])c(N([H])C(=O)N2C([H])([H])C([H])([H])C([H])([H])C([H])(n3nc(-c4c([H])c([H])c(Oc5c([H])c([H])c(F)c([H])c5F)c([H])c4[H])c(C(=O)N([H])[H])c3N([H])[H])C2([H])[H])c([H])c(N2C(=[N+]([H])[H])C(=O)C(C([H])([H])[H])(C([H])([H])Oc3c([H])c([H])c4c(c3[H])C([H])([H])N(C(=O)C([H])(N([H])C(=O)C([H])(N([H])C([H])([H])[H])C([H])([H])[H])C(C([H])([H])[H])(C([H])([H])[H])C([H])([H])[H])C([H])(C(=O)N([H])C3([H])c5c([H])c([H])c([H])c([H])c5C([H])([H])C([H])([H])C3([H])[H])C4([H])[H])C2([H])[H])c1[H]

>  <smiles>  (47) 
[H]c1c([H])c(N([H])C(=O)N2C([H])([H])C([H])([H])C([H])([H])C([H])(n3nc(-c4c([H])c([H])c(Oc5c([H])c([H])c(F)c([H])c5F)c([H])c4[H])c(C(=O)N([H])[H])c3N([H])[H])C2([H])[H])c([H])c(N2C(=[N+]([H])[H])C(=O)C(C([H])([H])[H])(C([H])([H])Oc3c([H])c([H])c4c(c3[H])C([H])([H])N(C(=O)C([H])(N([H])C(=O)C([H])(N([H])C([H])([H])[H])C([H])([H])[H])C(C([H])([H])[H])(C([H])([H])[H])C([H])([H])[H])C([H])(C(=O)N([H])C3([H])c5c([H])c([H])c([H])c([H])c5C([H])([H])C([H])([H])C3([H])[H])C4([H])[H])C2([H])[H])c1[H]

$$$$
47:0:0
     RDKit          3D

 98107  0  0  1  0  0  0  0  0999 V2000
  -30.2890  -23.8060   20.9150 C   0  0  0  0  0  3  0  0  0  0  0  0
  -29.3790  -23.8240   19.8170 C   0  0  0  0  0  0  0  0  0  0  0  0
  -30.6240  -22.5000   21.1970 C   0  0  0  0  0  0  0  0  0  0  0  0
  -29.2670  -22.4760   19.4690 C   0  0  0  0  0  0  0  0  0  0  0  0
  -29.9780  -21.6130   20.3370 N   0  0  0  0  0  0  0  0  0  0  0  0
  -31.2540  -19.4490   20.6310 C   0  0  0  0  0  3  0  0  0  0  0  0
  -31.3500  -18.0220   20.7100 C   0  0  0  0  0  3  0  0  0  0  0  0
  -28.9960  -17.8730   20.2770 C   0  0  0  0  0  3  0  0  0  0  0  0
  -28.8830  -19.2980   20.1970 C   0  0  0  0  0  0  0  0  0  0  0  0
  -30.0300  -20.1390   20.3730 C   0  0  0  0  0  0  0  0  0  0  0  0
  -30.2130  -17.1900   20.5300 C   0  0  0  0  0  0  0  0  0  0  0  0
  -30.9250  -14.7060   20.0860 C   0  0  0  0  0  0  0  0  0  0  0  0
  -30.6320  -12.5050   18.9520 C   0  0  0  0  0  2  0  0  0  0  0  0
  -29.6430  -12.7050   17.7820 C   0  0  0  0  0  2  0  0  0  0  0  0
  -28.1830  -12.5590   18.2600 C   0  0  0  0  0  2  0  0  0  0  0  0
  -27.8950  -13.3720   19.5510 C   0  0  0  0  0  3  0  0  0  0  0  0
  -28.9950  -13.1490   20.6140 C   0  0  0  0  0  2  0  0  0  0  0  0
  -30.2910  -13.4910   19.9990 N   0  0  0  0  0  0  0  0  0  0  0  0
  -32.0520  -14.8780   19.6140 O   0  0  0  0  0  0  0  0  0  0  0  0
  -30.1680  -15.7260   20.6070 N   0  0  0  0  0  0  0  0  0  0  0  0
  -29.3130  -15.3680   21.0040 H   0  0  0  0  0  0  0  0  0  0  0  0
  -25.5370  -13.9880   20.3680 C   0  0  0  0  0  0  0  0  0  0  0  0
  -24.4760  -13.2230   20.7720 C   0  0  0  0  0  0  0  0  0  0  0  0
  -24.9170  -11.8670   20.7020 C   0  0  0  0  0  0  0  0  0  0  0  0
  -26.5600  -13.0980   20.0800 N   0  0  0  0  0  0  0  0  0  0  0  0
  -26.1940  -11.8160   20.3390 N   0  0  0  0  0  0  0  0  0  0  0  0
  -24.1830  -10.6120   20.9060 C   0  0  0  0  0  0  0  0  0  0  0  0
  -24.6200   -9.6400   21.8340 C   0  0  0  0  0  3  0  0  0  0  0  0
  -23.8860   -8.4500   22.0250 C   0  0  0  0  0  3  0  0  0  0  0  0
  -22.7000   -8.2220   21.2890 C   0  0  0  0  0  0  0  0  0  0  0  0
  -22.2800   -9.1820   20.3520 C   0  0  0  0  0  3  0  0  0  0  0  0
  -23.0150  -10.3640   20.1580 C   0  0  0  0  0  3  0  0  0  0  0  0
  -21.9380   -7.0830   21.3890 O   0  0  0  0  0  0  0  0  0  0  0  0
  -21.8550   -6.3730   22.5600 C   0  0  0  0  0  0  0  0  0  0  0  0
  -21.4300   -6.9700   23.7670 C   0  0  0  0  0  3  0  0  0  0  0  0
  -21.2920   -6.1870   24.9290 C   0  0  0  0  0  3  0  0  0  0  0  0
  -21.5680   -4.8080   24.8870 C   0  0  0  0  0  0  0  0  0  0  0  0
  -21.9850   -4.2100   23.6870 C   0  0  0  0  0  3  0  0  0  0  0  0
  -22.1260   -4.9890   22.5250 C   0  0  0  0  0  0  0  0  0  0  0  0
  -22.5070   -4.4030   21.3660 F   0  0  0  0  0  0  0  0  0  0  0  0
  -21.4280   -4.0550   26.0040 F   0  0  0  0  0  0  0  0  0  0  0  0
  -23.0960  -13.7160   21.1050 C   0  0  0  0  0  0  0  0  0  0  0  0
  -22.4000  -13.0340   22.0080 N   0  0  0  0  0  0  0  0  0  0  0  0
  -22.6440  -14.7420   20.5990 O   0  0  0  0  0  0  0  0  0  0  0  0
  -22.7760  -12.2050   22.4430 H   0  0  0  0  0  0  0  0  0  0  0  0
  -21.4760  -13.3490   22.2700 H   0  0  0  0  0  0  0  0  0  0  0  0
  -25.7100  -15.3580   20.1980 N   0  0  0  0  0  0  0  0  0  0  0  0
  -24.9400  -16.0090   20.3100 H   0  0  0  0  0  0  0  0  0  0  0  0
  -26.5210  -15.7750   19.7600 H   0  0  0  0  0  0  0  0  0  0  0  0
  -27.5150  -19.8620   20.0240 C   0  0  0  0  0  0  0  0  0  0  0  0
  -26.5850  -19.1430   19.0520 C   0  0  0  0  0  1  0  0  0  0  0  0
  -27.0970  -20.8590   20.6200 O   0  0  0  0  0  0  0  0  0  0  0  0
  -31.4390  -22.0400   22.1850 O   0  0  0  0  0  0  0  0  0  0  0  0
  -31.6970  -22.7890   22.7150 H   0  0  0  0  0  0  0  0  0  0  0  0
  -28.5590  -21.9280   18.4410 O   0  0  0  0  0  0  0  0  0  0  0  0
  -28.4310  -22.5930   17.7730 H   0  0  0  0  0  0  0  0  0  0  0  0
  -28.6330  -25.0430   19.1640 C   0  0  0  0  0  2  0  0  0  0  0  0
  -28.7980  -26.4530   19.6180 O   0  0  0  0  0  0  0  0  0  0  0  0
  -24.6910  -31.4490   22.8870 C   0  0  0  0  0  0  0  0  0  0  0  0
  -27.6460  -27.2720   19.5800 C   0  0  0  0  0  0  0  0  0  0  0  0
  -23.6090  -30.0800   21.1460 C   0  0  0  0  0  3  0  0  0  0  0  0
  -25.1810  -28.7440   19.6420 C   0  0  0  0  0  0  0  0  0  0  0  0
  -26.1280  -30.5750   21.0350 C   0  0  0  0  0  2  0  0  0  0  0  0
  -26.3090  -29.2530   20.2960 C   0  0  0  0  0  0  0  0  0  0  0  0
  -27.5410  -28.5260   20.2650 C   0  0  0  0  0  3  0  0  0  0  0  0
  -26.4890  -26.8440   18.8800 C   0  0  0  0  0  3  0  0  0  0  0  0
  -25.2740  -27.5450   18.9260 C   0  0  0  0  0  3  0  0  0  0  0  0
  -23.8900  -29.5310   19.7260 C   0  0  0  0  0  2  0  0  0  0  0  0
  -24.8260  -30.7170   21.7460 N   0  0  0  0  0  0  0  0  0  0  0  0
  -23.5830  -31.6160   23.4200 O   0  0  0  0  0  0  0  0  0  0  0  0
  -23.0110  -28.9530   22.0230 C   0  0  0  0  0  0  0  0  0  0  0  0
  -21.6940  -28.7200   21.8960 N   0  0  0  0  0  0  0  0  0  0  0  0
  -23.7310  -28.2980   22.7820 O   0  0  0  0  0  0  0  0  0  0  0  0
  -21.1680  -29.3050   21.2630 H   0  0  0  0  0  0  0  0  0  0  0  0
  -18.3780  -27.3470   22.3600 C   0  0  0  0  0  0  0  0  0  0  0  0
  -20.9310  -27.6860   22.6000 C   0  0  0  0  0  3  0  0  0  0  0  0
  -21.0750  -26.3140   21.9010 C   0  0  0  0  0  2  0  0  0  0  0  0
  -19.9630  -26.0360   20.8840 C   0  0  0  0  0  2  0  0  0  0  0  0
  -18.5920  -26.0680   21.5680 C   0  0  0  0  0  2  0  0  0  0  0  0
  -19.4770  -28.1150   22.8310 C   0  0  0  0  0  0  0  0  0  0  0  0
  -19.2220  -29.3120   23.5340 C   0  0  0  0  0  3  0  0  0  0  0  0
  -17.9030  -29.7440   23.7710 C   0  0  0  0  0  3  0  0  0  0  0  0
  -16.8200  -28.9720   23.3160 C   0  0  0  0  0  3  0  0  0  0  0  0
  -17.0590  -27.7760   22.6150 C   0  0  0  0  0  3  0  0  0  0  0  0
  -25.9170  -32.1310   23.5670 C   0  0  0  0  0  3  0  0  0  0  0  0
  -25.5020  -33.4800   23.9770 N   0  0  0  0  0  0  0  0  0  0  0  0
  -25.7920  -34.6040   23.3080 C   0  0  0  0  0  0  0  0  0  0  0  0
  -26.5060  -34.6180   22.3020 O   0  0  0  0  0  0  0  0  0  0  0  0
  -24.8640  -33.5380   24.7580 H   0  0  0  0  0  0  0  0  0  0  0  0
  -23.9580  -36.3000   23.0130 C   0  0  0  0  0  1  0  0  0  0  0  0
  -25.1960  -35.9210   23.8410 C   0  0  0  0  0  3  0  0  0  0  0  0
  -27.2400  -36.8790   24.8080 C   0  0  0  0  0  1  0  0  0  0  0  0
  -26.1560  -37.0460   23.8440 N   0  0  0  0  0  0  0  0  0  0  0  0
  -25.6810  -37.9210   24.0510 H   0  0  0  0  0  0  0  0  0  0  0  0
  -26.4700  -31.3210   24.8030 C   0  0  1  0  0  0  0  0  0  0  0  0
  -25.3840  -30.9530   25.8420 C   0  0  0  0  0  1  0  0  0  0  0  0
  -27.1430  -30.0070   24.3430 C   0  0  0  0  0  1  0  0  0  0  0  0
  -27.5600  -32.1460   25.5270 C   0  0  0  0  0  1  0  0  0  0  0  0
  1  3  2  0
  2  1  1  0
  3 53  1  0
  4  2  2  0
  4  5  1  0
  5 10  1  0
  5  3  1  0
  6  7  1  0
  8 11  1  0
  9  8  2  0
  9 10  1  0
 10  6  2  0
 11 20  1  0
 11  7  2  0
 12 20  1  0
 13 18  1  0
 14 15  1  0
 14 13  1  0
 16 15  1  0
 16 25  1  0
 16 17  1  0
 18 12  1  0
 18 17  1  0
 19 12  2  0
 20 21  1  0
 22 23  2  0
 23 42  1  0
 24 23  1  0
 24 27  1  0
 25 26  1  0
 25 22  1  0
 26 24  2  0
 27 28  1  0
 28 29  2  0
 30 33  1  0
 30 29  1  0
 31 30  2  0
 32 31  1  0
 32 27  2  0
 33 34  1  0
 34 35  1  0
 35 36  2  0
 37 36  1  0
 37 41  1  0
 38 37  2  0
 39 34  2  0
 39 38  1  0
 40 39  1  0
 42 43  1  0
 43 46  1  0
 43 45  1  0
 44 42  2  0
 47 48  1  0
 47 22  1  0
 49 47  1  0
 50  9  1  0
 50 52  2  0
 51 50  1  0
 53 54  1  0
 55  4  1  0
 56 55  1  0
 57 58  1  0
 57  2  1  0
 59 70  2  0
 60 58  1  0
 60 65  1  0
 61 69  1  0
 61 71  1  0
 62 68  1  0
 62 64  1  0
 63 69  1  0
 64 63  1  0
 65 64  2  0
 66 67  1  0
 66 60  2  0
 67 62  2  0
 68 61  1  0
 69 59  1  0
 71 73  2  0
 72 71  1  0
 74 72  1  0
 75 84  2  0
 75 80  1  0
 76 72  1  0
 76 80  1  0
 77 76  1  0
 78 79  1  0
 78 77  1  0
 79 75  1  0
 80 81  2  0
 81 82  1  0
 83 82  2  0
 84 83  1  0
 85 59  1  0
 85 86  1  0
 85 95  1  0
 86 89  1  0
 87 91  1  0
 87 86  1  0
 88 87  2  0
 91 90  1  0
 91 93  1  0
 93 94  1  0
 93 92  1  0
 95 98  1  1
 95 96  1  0
 97 95  1  0
M  ISO  4  12 100  20 100  57 101  58 101
M  END
>  <TORSDO>  (48) 
F 21

>  <SCORE>  (48) 
-12.220

>  <name>  (48) 
47

>  <ligand_id>  (48) 
47

>  <original_smiles>  (48) 
[H]Oc1c([H])c(C([H])([H])Oc2c([H])c([H])c3c(c2[H])C([H])([H])N(C(=O)C([H])(N([H])C(=O)C([H])(N([H])C([H])([H])[H])C([H])([H])[H])C(C([H])([H])[H])(C([H])([H])[H])C([H])([H])[H])C([H])(C(=O)N([H])C2([H])c4c([H])c([H])c([H])c([H])c4C([H])([H])C([H])([H])C2([H])[H])C3([H])[H])c(O[H])n1-c1c([H])c([H])c(N([H])C(=O)N2C([H])([H])C([H])([H])C([H])([H])C([H])(n3nc(-c4c([H])c([H])c(Oc5c([H])c([H])c(F)c([H])c5F)c([H])c4[H])c(C(=O)N([H])[H])c3N([H])[H])C2([H])[H])c([H])c1C(=O)C([H])([H])[H]

>  <smiles>  (48) 
[H]Oc1c([H])c(C([H])([H])Oc2c([H])c([H])c3c(c2[H])C([H])([H])N(C(=O)C([H])(N([H])C(=O)C([H])(N([H])C([H])([H])[H])C([H])([H])[H])C(C([H])([H])[H])(C([H])([H])[H])C([H])([H])[H])C([H])(C(=O)N([H])C2([H])c4c([H])c([H])c([H])c([H])c4C([H])([H])C([H])([H])C2([H])[H])C3([H])[H])c(O[H])n1-c1c([H])c([H])c(N([H])C(=O)N2C([H])([H])C([H])([H])C([H])([H])C([H])(n3nc(-c4c([H])c([H])c(Oc5c([H])c([H])c(F)c([H])c5F)c([H])c4[H])c(C(=O)N([H])[H])c3N([H])[H])C2([H])[H])c([H])c1C(=O)C([H])([H])[H]

$$$$
48:0:0
     RDKit          3D

 95104  0  0  1  0  0  0  0  0999 V2000
  -28.9620  -24.2360   20.2960 C   0  0  0  0  0  0  0  0  0  0  0  0
  -29.9540  -22.6100   18.8550 C   0  0  0  0  0  0  0  0  0  0  0  0
  -28.3090  -25.3510   20.7130 C   0  0  0  0  0  3  0  0  0  0  0  0
  -28.5430  -22.8240   20.6790 C   0  0  0  0  0  2  0  0  0  0  0  0
  -30.0710  -24.0840   19.2780 C   0  0  1  0  0  0  0  0  0  0  0  0
  -29.9350  -25.0440   18.0770 C   0  0  0  0  0  1  0  0  0  0  0  0
  -31.4430  -24.2680   19.9580 C   0  0  0  0  0  1  0  0  0  0  0  0
  -29.2060  -21.9030   19.7330 N   0  0  0  0  0  0  0  0  0  0  0  0
  -30.4950  -22.1740   17.8340 O   0  0  0  0  0  0  0  0  0  0  0  0
  -27.1720  -18.8000   19.2550 C   0  0  0  0  0  3  0  0  0  0  0  0
  -28.0940  -17.7700   19.4820 C   0  0  0  0  0  3  0  0  0  0  0  0
  -27.5740  -20.1390   19.3400 C   0  0  0  0  0  3  0  0  0  0  0  0
  -29.4440  -18.0450   19.8020 C   0  0  0  0  0  0  0  0  0  0  0  0
  -29.8410  -19.4240   19.9430 C   0  0  0  0  0  0  0  0  0  0  0  0
  -28.9020  -20.4850   19.6740 C   0  0  0  0  0  0  0  0  0  0  0  0
  -31.2580  -19.7520   20.4130 C   0  0  0  0  0  1  0  0  0  0  0  0
  -30.3750  -16.8620   19.9140 C   0  0  0  0  0  3  0  0  0  0  0  0
  -30.0330  -15.6860   20.3260 N   0  0  0  0  0  0  0  0  0  0  0  0
  -30.9220  -14.6140   20.1580 C   0  0  0  0  0  0  0  0  0  0  0  0
  -30.8300  -12.2160   19.5540 C   0  0  0  0  0  2  0  0  0  0  0  0
  -29.9600  -12.0930   18.2850 C   0  0  0  0  0  2  0  0  0  0  0  0
  -28.4690  -11.9510   18.6560 C   0  0  0  0  0  2  0  0  0  0  0  0
  -28.0070  -13.0150   19.6870 C   0  0  0  0  0  3  0  0  0  0  0  0
  -29.0030  -13.1240   20.8600 C   0  0  0  0  0  2  0  0  0  0  0  0
  -30.3420  -13.3870   20.3050 N   0  0  0  0  0  0  0  0  0  0  0  0
  -32.0820  -14.7130   19.7450 O   0  0  0  0  0  0  0  0  0  0  0  0
  -25.6140  -13.6670   20.3760 C   0  0  0  0  0  0  0  0  0  0  0  0
  -24.5310  -12.9170   20.7500 C   0  0  0  0  0  0  0  0  0  0  0  0
  -24.9660  -11.5570   20.7240 C   0  0  0  0  0  0  0  0  0  0  0  0
  -26.6450  -12.7640   20.1560 N   0  0  0  0  0  0  0  0  0  0  0  0
  -26.2560  -11.4900   20.4200 N   0  0  0  0  0  0  0  0  0  0  0  0
  -24.2130  -10.3100   20.9120 C   0  0  0  0  0  0  0  0  0  0  0  0
  -24.5390   -9.3960   21.9390 C   0  0  0  0  0  3  0  0  0  0  0  0
  -23.7890   -8.2130   22.1110 C   0  0  0  0  0  3  0  0  0  0  0  0
  -22.6970   -7.9340   21.2560 C   0  0  0  0  0  0  0  0  0  0  0  0
  -22.3900   -8.8350   20.2200 C   0  0  0  0  0  3  0  0  0  0  0  0
  -23.1420  -10.0080   20.0470 C   0  0  0  0  0  3  0  0  0  0  0  0
  -21.9280   -6.7980   21.3320 O   0  0  0  0  0  0  0  0  0  0  0  0
  -21.6400   -6.2040   22.5340 C   0  0  0  0  0  0  0  0  0  0  0  0
  -20.9650   -6.8950   23.5650 C   0  0  0  0  0  3  0  0  0  0  0  0
  -20.6290   -6.2240   24.7570 C   0  0  0  0  0  3  0  0  0  0  0  0
  -20.9520   -4.8630   24.9160 C   0  0  0  0  0  0  0  0  0  0  0  0
  -21.6180   -4.1730   23.8890 C   0  0  0  0  0  3  0  0  0  0  0  0
  -21.9590   -4.8410   22.7000 C   0  0  0  0  0  0  0  0  0  0  0  0
  -22.5830   -4.1660   21.7050 F   0  0  0  0  0  0  0  0  0  0  0  0
  -20.6220   -4.2150   26.0590 F   0  0  0  0  0  0  0  0  0  0  0  0
  -23.1430  -13.4220   21.0190 C   0  0  0  0  0  0  0  0  0  0  0  0
  -22.4010  -12.7420   21.8880 N   0  0  0  0  0  0  0  0  0  0  0  0
  -22.7240  -14.4530   20.4950 O   0  0  0  0  0  0  0  0  0  0  0  0
  -22.7530  -11.9080   22.3320 H   0  0  0  0  0  0  0  0  0  0  0  0
  -21.4690  -13.0590   22.1120 H   0  0  0  0  0  0  0  0  0  0  0  0
  -25.8030  -15.0300   20.1770 N   0  0  0  0  0  0  0  0  0  0  0  0
  -25.0270  -15.6830   20.1740 H   0  0  0  0  0  0  0  0  0  0  0  0
  -26.6420  -15.4090   19.7570 H   0  0  0  0  0  0  0  0  0  0  0  0
  -28.5480  -26.6590   20.3360 O   0  0  0  0  0  0  0  0  0  0  0  0
  -24.6840  -31.8280   23.4090 C   0  0  0  0  0  0  0  0  0  0  0  0
  -27.4230  -27.4630   20.2880 C   0  0  0  0  0  0  0  0  0  0  0  0
  -23.5370  -30.4950   21.6680 C   0  0  0  0  0  3  0  0  0  0  0  0
  -25.0410  -28.9960   20.2510 C   0  0  0  0  0  0  0  0  0  0  0  0
  -26.0720  -30.8410   21.5820 C   0  0  0  0  0  2  0  0  0  0  0  0
  -26.1800  -29.4890   20.9040 C   0  0  0  0  0  0  0  0  0  0  0  0
  -27.3780  -28.7290   20.9200 C   0  0  0  0  0  3  0  0  0  0  0  0
  -26.2710  -26.9930   19.6230 C   0  0  0  0  0  3  0  0  0  0  0  0
  -25.0850  -27.7480   19.6050 C   0  0  0  0  0  3  0  0  0  0  0  0
  -23.7990  -29.8570   20.2780 C   0  0  0  0  0  2  0  0  0  0  0  0
  -24.7810  -31.0690   22.2800 N   0  0  0  0  0  0  0  0  0  0  0  0
  -23.5820  -32.0900   23.9120 O   0  0  0  0  0  0  0  0  0  0  0  0
  -22.8370  -29.4490   22.5660 C   0  0  0  0  0  0  0  0  0  0  0  0
  -21.5170  -29.2900   22.3810 N   0  0  0  0  0  0  0  0  0  0  0  0
  -23.4830  -28.7860   23.3810 O   0  0  0  0  0  0  0  0  0  0  0  0
  -21.0630  -29.8830   21.7010 H   0  0  0  0  0  0  0  0  0  0  0  0
  -18.1020  -28.1580   22.7290 C   0  0  0  0  0  0  0  0  0  0  0  0
  -20.6570  -28.3330   23.0780 C   0  0  0  0  0  3  0  0  0  0  0  0
  -20.7390  -26.9340   22.4260 C   0  0  0  0  0  2  0  0  0  0  0  0
  -19.6560  -26.6930   21.3700 C   0  0  0  0  0  2  0  0  0  0  0  0
  -18.2610  -26.8440   21.9830 C   0  0  0  0  0  2  0  0  0  0  0  0
  -19.2280  -28.8650   23.2280 C   0  0  0  0  0  0  0  0  0  0  0  0
  -19.0250  -30.1020   23.8790 C   0  0  0  0  0  3  0  0  0  0  0  0
  -17.7300  -30.6290   24.0390 C   0  0  0  0  0  3  0  0  0  0  0  0
  -16.6170  -29.9140   23.5610 C   0  0  0  0  0  3  0  0  0  0  0  0
  -16.8060  -28.6810   22.9120 C   0  0  0  0  0  3  0  0  0  0  0  0
  -25.9470  -32.4230   24.1100 C   0  0  0  0  0  3  0  0  0  0  0  0
  -25.6690  -33.8350   24.4030 N   0  0  0  0  0  0  0  0  0  0  0  0
  -26.0600  -34.8620   23.6360 C   0  0  0  0  0  0  0  0  0  0  0  0
  -26.7660  -34.7180   22.6320 O   0  0  0  0  0  0  0  0  0  0  0  0
  -25.0630  -34.0240   25.1870 H   0  0  0  0  0  0  0  0  0  0  0  0
  -24.3920  -36.6850   23.1810 C   0  0  0  0  0  1  0  0  0  0  0  0
  -25.5920  -36.2700   24.0470 C   0  0  0  0  0  3  0  0  0  0  0  0
  -27.7240  -37.1130   24.9260 C   0  0  0  0  0  1  0  0  0  0  0  0
  -26.6500  -37.2980   23.9540 N   0  0  0  0  0  0  0  0  0  0  0  0
  -26.2590  -38.2260   24.0890 H   0  0  0  0  0  0  0  0  0  0  0  0
  -26.3510  -31.6500   25.4250 C   0  0  1  0  0  0  0  0  0  0  0  0
  -25.1820  -31.4550   26.4180 C   0  0  0  0  0  1  0  0  0  0  0  0
  -26.9150  -30.2520   25.0790 C   0  0  0  0  0  1  0  0  0  0  0  0
  -27.4800  -32.4140   26.1560 C   0  0  0  0  0  1  0  0  0  0  0  0
  1  4  1  0
  1  3  2  0
  2  5  1  0
  2  8  1  0
  5  7  1  1
  5  1  1  0
  6  5  1  0
  8  4  1  0
  9  2  2  0
 10 12  2  0
 10 11  1  0
 11 13  2  0
 12 15  1  0
 13 17  1  0
 13 14  1  0
 14 16  1  0
 15  8  1  0
 15 14  2  0
 17 18  2  0
 19 25  1  0
 19 18  1  0
 20 25  1  0
 21 22  1  0
 21 20  1  0
 23 22  1  0
 23 30  1  0
 23 24  1  0
 25 24  1  0
 26 19  2  0
 27 28  2  0
 28 47  1  0
 29 28  1  0
 29 32  1  0
 30 27  1  0
 30 31  1  0
 31 29  2  0
 32 33  1  0
 33 34  2  0
 35 38  1  0
 35 34  1  0
 36 35  2  0
 37 36  1  0
 37 32  2  0
 38 39  1  0
 39 44  2  0
 39 40  1  0
 40 41  2  0
 41 42  1  0
 42 46  1  0
 43 42  2  0
 44 43  1  0
 45 44  1  0
 47 48  1  0
 48 51  1  0
 48 50  1  0
 49 47  2  0
 52 27  1  0
 53 52  1  0
 54 52  1  0
 55  3  1  0
 56 67  2  0
 57 55  1  0
 57 62  1  0
 58 66  1  0
 58 68  1  0
 59 65  1  0
 59 61  1  0
 60 66  1  0
 61 62  2  0
 61 60  1  0
 63 57  2  0
 64 63  1  0
 64 59  2  0
 65 58  1  0
 66 56  1  0
 68 70  2  0
 69 68  1  0
 71 69  1  0
 72 81  2  0
 72 77  1  0
 73 69  1  0
 73 77  1  0
 74 73  1  0
 75 76  1  0
 75 74  1  0
 76 72  1  0
 77 78  2  0
 78 79  1  0
 80 79  2  0
 81 80  1  0
 82 56  1  0
 82 83  1  0
 82 92  1  0
 83 86  1  0
 84 88  1  0
 84 83  1  0
 85 84  2  0
 88 87  1  0
 90 88  1  0
 90 91  1  0
 90 89  1  0
 92 95  1  1
 92 93  1  0
 94 92  1  0
M  ISO  4   3 101  18 100  19 100  55 101
M  END
>  <TORSDO>  (49) 
F 18

>  <SCORE>  (49) 
-13.950

>  <name>  (49) 
48

>  <ligand_id>  (49) 
48

>  <original_smiles>  (49) 
[H]C(=NC(=O)N1C([H])([H])C([H])([H])C([H])([H])C([H])(n2nc(-c3c([H])c([H])c(Oc4c([H])c([H])c(F)c([H])c4F)c([H])c3[H])c(C(=O)N([H])[H])c2N([H])[H])C1([H])[H])c1c([H])c([H])c([H])c(N2C(=O)C(C([H])([H])[H])(C([H])([H])[H])C(=C([H])Oc3c([H])c([H])c4c(c3[H])C([H])([H])N(C(=O)C([H])(N([H])C(=O)C([H])(N([H])C([H])([H])[H])C([H])([H])[H])C(C([H])([H])[H])(C([H])([H])[H])C([H])([H])[H])C([H])(C(=O)N([H])C3([H])c5c([H])c([H])c([H])c([H])c5C([H])([H])C([H])([H])C3([H])[H])C4([H])[H])C2([H])[H])c1C([H])([H])[H]

>  <smiles>  (49) 
[H]C(=NC(=O)N1C([H])([H])C([H])([H])C([H])([H])C([H])(n2nc(-c3c([H])c([H])c(Oc4c([H])c([H])c(F)c([H])c4F)c([H])c3[H])c(C(=O)N([H])[H])c2N([H])[H])C1([H])[H])c1c([H])c([H])c([H])c(N2C(=O)C(C([H])([H])[H])(C([H])([H])[H])C(=C([H])Oc3c([H])c([H])c4c(c3[H])C([H])([H])N(C(=O)C([H])(N([H])C(=O)C([H])(N([H])C([H])([H])[H])C([H])([H])[H])C(C([H])([H])[H])(C([H])([H])[H])C([H])([H])[H])C([H])(C(=O)N([H])C3([H])c5c([H])c([H])c([H])c([H])c5C([H])([H])C([H])([H])C3([H])[H])C4([H])[H])C2([H])[H])c1C([H])([H])[H]

$$$$
49:0:0
     RDKit          3D

100109  0  0  1  0  0  0  0  0999 V2000
  -27.7270  -21.3940   19.7370 C   0  0  0  0  0  0  0  0  0  0  0  0
  -27.1810  -22.8380   19.7830 C   0  0  0  0  0  2  0  0  0  0  0  0
  -29.4640  -22.7340   20.3420 C   0  0  0  0  0  2  0  0  0  0  0  0
  -28.4050  -23.7980   19.7770 C   0  0  1  0  0  0  0  0  0  0  0  0
  -29.0360  -21.3130   20.0470 N   0  0  0  0  0  0  0  0  0  0  0  0
  -26.9960  -20.4480   19.4320 O   0  0  0  0  0  0  0  0  0  0  0  0
  -31.2840  -20.2950   20.2720 C   0  0  0  0  0  3  0  0  0  0  0  0
  -31.7670  -17.8950   20.3480 C   0  0  0  0  0  3  0  0  0  0  0  0
  -29.4780  -18.6770   20.1250 C   0  0  0  0  0  3  0  0  0  0  0  0
  -32.2070  -19.2330   20.3720 C   0  0  0  0  0  0  0  0  0  0  0  0
  -29.8920  -20.0830   20.1430 C   0  0  0  0  0  0  0  0  0  0  0  0
  -30.4040  -17.5490   20.2160 C   0  0  0  0  0  0  0  0  0  0  0  0
  -30.7920  -14.9540   20.0940 C   0  0  0  0  0  0  0  0  0  0  0  0
  -30.5930  -12.6220   19.2160 C   0  0  0  0  0  2  0  0  0  0  0  0
  -29.6390  -12.6130   18.0040 C   0  0  0  0  0  2  0  0  0  0  0  0
  -28.1800  -12.4430   18.4670 C   0  0  0  0  0  2  0  0  0  0  0  0
  -27.8100  -13.3930   19.6400 C   0  0  0  0  0  3  0  0  0  0  0  0
  -28.8880  -13.3970   20.7450 C   0  0  0  0  0  2  0  0  0  0  0  0
  -30.1650  -13.7290   20.1040 N   0  0  0  0  0  0  0  0  0  0  0  0
  -31.9740  -15.0140   19.7470 O   0  0  0  0  0  0  0  0  0  0  0  0
  -30.0210  -16.1060   20.2320 N   0  0  0  0  0  0  0  0  0  0  0  0
  -29.0350  -15.9240   20.3450 H   0  0  0  0  0  0  0  0  0  0  0  0
  -25.4550  -13.9930   20.4580 C   0  0  0  0  0  0  0  0  0  0  0  0
  -24.3940  -13.2230   20.8460 C   0  0  0  0  0  0  0  0  0  0  0  0
  -24.8420  -11.8680   20.7750 C   0  0  0  0  0  0  0  0  0  0  0  0
  -26.4810  -13.1090   20.1700 N   0  0  0  0  0  0  0  0  0  0  0  0
  -26.1220  -11.8240   20.4250 N   0  0  0  0  0  0  0  0  0  0  0  0
  -24.1080  -10.6090   20.9620 C   0  0  0  0  0  0  0  0  0  0  0  0
  -24.5280   -9.6410   21.9010 C   0  0  0  0  0  3  0  0  0  0  0  0
  -23.7940   -8.4480   22.0770 C   0  0  0  0  0  3  0  0  0  0  0  0
  -22.6260   -8.2150   21.3140 C   0  0  0  0  0  0  0  0  0  0  0  0
  -22.2250   -9.1720   20.3640 C   0  0  0  0  0  3  0  0  0  0  0  0
  -22.9590  -10.3550   20.1870 C   0  0  0  0  0  3  0  0  0  0  0  0
  -21.8640   -7.0750   21.3980 O   0  0  0  0  0  0  0  0  0  0  0  0
  -21.7490   -6.3720   22.5700 C   0  0  0  0  0  0  0  0  0  0  0  0
  -21.2360   -6.9610   23.7460 C   0  0  0  0  0  3  0  0  0  0  0  0
  -21.0710   -6.1830   24.9090 C   0  0  0  0  0  3  0  0  0  0  0  0
  -21.4070   -4.8170   24.8980 C   0  0  0  0  0  0  0  0  0  0  0  0
  -21.9130   -4.2260   23.7260 C   0  0  0  0  0  3  0  0  0  0  0  0
  -22.0800   -5.0020   22.5650 C   0  0  0  0  0  0  0  0  0  0  0  0
  -22.5480   -4.4230   21.4330 F   0  0  0  0  0  0  0  0  0  0  0  0
  -21.2410   -4.0670   26.0120 F   0  0  0  0  0  0  0  0  0  0  0  0
  -23.0110  -13.7090   21.1700 C   0  0  0  0  0  0  0  0  0  0  0  0
  -22.3070  -13.0080   22.0530 N   0  0  0  0  0  0  0  0  0  0  0  0
  -22.5670  -14.7430   20.6760 O   0  0  0  0  0  0  0  0  0  0  0  0
  -22.6810  -12.1710   22.4710 H   0  0  0  0  0  0  0  0  0  0  0  0
  -21.3810  -13.3170   22.3130 H   0  0  0  0  0  0  0  0  0  0  0  0
  -25.6260  -15.3650   20.3000 N   0  0  0  0  0  0  0  0  0  0  0  0
  -24.8620  -16.0190   20.4370 H   0  0  0  0  0  0  0  0  0  0  0  0
  -26.4540  -15.8040   19.9200 H   0  0  0  0  0  0  0  0  0  0  0  0
  -33.6990  -19.5120   20.4960 C   0  0  1  0  0  0  0  0  0  0  0  0
  -33.9570  -20.8070   20.6820 F   0  0  0  0  0  0  0  0  0  0  0  0
  -34.2060  -18.8360   21.5290 F   0  0  0  0  0  0  0  0  0  0  0  0
  -34.3160  -19.1150   19.3840 F   0  0  0  0  0  0  0  0  0  0  0  0
  -28.7100  -24.1760   18.3100 C   0  0  0  0  0  0  0  0  0  0  0  0
  -29.7410  -23.8130   17.7340 O   0  0  0  0  0  0  0  0  0  0  0  0
  -27.8680  -25.3100   16.3850 C   0  0  0  0  0  1  0  0  0  0  0  0
  -27.7290  -24.8880   17.7320 O   0  0  0  0  0  0  0  0  0  0  0  0
  -28.1610  -25.1730   20.6330 C   0  0  0  0  0  2  0  0  0  0  0  0
  -28.3150  -26.5840   20.1340 O   0  0  0  0  0  0  0  0  0  0  0  0
  -24.6050  -31.9750   23.2960 C   0  0  0  0  0  0  0  0  0  0  0  0
  -27.2010  -27.4480   20.1560 C   0  0  0  0  0  0  0  0  0  0  0  0
  -23.3900  -30.5900   21.6530 C   0  0  0  0  0  3  0  0  0  0  0  0
  -24.8330  -29.0630   20.1890 C   0  0  0  0  0  0  0  0  0  0  0  0
  -25.9260  -30.9210   21.4430 C   0  0  0  0  0  2  0  0  0  0  0  0
  -26.0080  -29.5490   20.7770 C   0  0  0  0  0  0  0  0  0  0  0  0
  -27.1990  -28.7560   20.7440 C   0  0  0  0  0  3  0  0  0  0  0  0
  -26.0020  -27.0160   19.5510 C   0  0  0  0  0  3  0  0  0  0  0  0
  -24.8340  -27.8040   19.5630 C   0  0  0  0  0  3  0  0  0  0  0  0
  -23.5930  -29.9320   20.2620 C   0  0  0  0  0  2  0  0  0  0  0  0
  -24.6600  -31.1800   22.1880 N   0  0  0  0  0  0  0  0  0  0  0  0
  -23.5270  -32.2390   23.8490 O   0  0  0  0  0  0  0  0  0  0  0  0
  -22.7440  -29.5590   22.6100 C   0  0  0  0  0  0  0  0  0  0  0  0
  -21.4240  -29.3480   22.4710 N   0  0  0  0  0  0  0  0  0  0  0  0
  -23.4310  -28.9520   23.4350 O   0  0  0  0  0  0  0  0  0  0  0  0
  -20.9270  -29.8910   21.7790 H   0  0  0  0  0  0  0  0  0  0  0  0
  -18.0820  -28.0310   22.9130 C   0  0  0  0  0  0  0  0  0  0  0  0
  -20.6230  -28.3900   23.2350 C   0  0  0  0  0  3  0  0  0  0  0  0
  -20.7910  -26.9570   22.6800 C   0  0  0  0  0  2  0  0  0  0  0  0
  -19.7250  -26.5820   21.6470 C   0  0  0  0  0  2  0  0  0  0  0  0
  -18.3240  -26.6810   22.2570 C   0  0  0  0  0  2  0  0  0  0  0  0
  -19.1620  -28.8400   23.3580 C   0  0  0  0  0  0  0  0  0  0  0  0
  -18.8830  -30.1000   23.9290 C   0  0  0  0  0  3  0  0  0  0  0  0
  -17.5570  -30.5540   24.0620 C   0  0  0  0  0  3  0  0  0  0  0  0
  -16.4900  -29.7420   23.6330 C   0  0  0  0  0  3  0  0  0  0  0  0
  -16.7540  -28.4840   23.0650 C   0  0  0  0  0  3  0  0  0  0  0  0
  -25.8910  -32.6080   23.9130 C   0  0  0  0  0  3  0  0  0  0  0  0
  -25.5890  -34.0110   24.2310 N   0  0  0  0  0  0  0  0  0  0  0  0
  -25.9180  -35.0550   23.4590 C   0  0  0  0  0  0  0  0  0  0  0  0
  -26.5780  -34.9390   22.4230 O   0  0  0  0  0  0  0  0  0  0  0  0
  -25.0040  -34.1750   25.0380 H   0  0  0  0  0  0  0  0  0  0  0  0
  -24.1920  -36.8500   23.1050 C   0  0  0  0  0  1  0  0  0  0  0  0
  -25.4400  -36.4510   23.9070 C   0  0  0  0  0  3  0  0  0  0  0  0
  -27.5830  -37.3390   24.7100 C   0  0  0  0  0  1  0  0  0  0  0  0
  -26.4750  -37.5000   23.7720 N   0  0  0  0  0  0  0  0  0  0  0  0
  -26.0720  -38.4220   23.9150 H   0  0  0  0  0  0  0  0  0  0  0  0
  -26.4040  -31.8490   25.1970 C   0  0  1  0  0  0  0  0  0  0  0  0
  -25.3080  -31.6180   26.2640 C   0  0  0  0  0  1  0  0  0  0  0  0
  -26.9900  -30.4670   24.8210 C   0  0  0  0  0  1  0  0  0  0  0  0
  -27.5540  -32.6480   25.8550 C   0  0  0  0  0  1  0  0  0  0  0  0
  1  2  1  0
  1  5  1  0
  4  2  1  0
  4  3  1  0
  4 59  1  1
  5 11  1  0
  5  3  1  0
  6  1  2  0
  7 10  1  0
  8 10  2  0
  9 11  1  0
  9 12  2  0
 10 51  1  0
 11  7  2  0
 12 21  1  0
 12  8  1  0
 13 19  1  0
 13 21  1  0
 14 19  1  0
 15 16  1  0
 15 14  1  0
 17 16  1  0
 17 26  1  0
 17 18  1  0
 19 18  1  0
 20 13  2  0
 21 22  1  0
 23 24  2  0
 24 43  1  0
 25 24  1  0
 25 28  1  0
 26 27  1  0
 26 23  1  0
 27 25  2  0
 28 29  1  0
 29 30  2  0
 31 34  1  0
 31 30  1  0
 32 31  2  0
 33 32  1  0
 33 28  2  0
 34 35  1  0
 35 36  1  0
 36 37  2  0
 38 37  1  0
 38 42  1  0
 39 38  2  0
 40 35  2  0
 40 39  1  0
 41 40  1  0
 43 44  1  0
 44 47  1  0
 44 46  1  0
 45 43  2  0
 48 49  1  0
 48 23  1  0
 50 48  1  0
 51 52  1  1
 51 53  1  0
 54 51  1  0
 55  4  1  0
 56 55  2  0
 57 58  1  0
 58 55  1  0
 60 62  1  0
 60 59  1  0
 61 72  2  0
 62 67  1  0
 63 71  1  0
 63 73  1  0
 64 70  1  0
 64 66  1  0
 65 71  1  0
 66 65  1  0
 67 66  2  0
 68 69  1  0
 68 62  2  0
 69 64  2  0
 70 63  1  0
 71 61  1  0
 73 75  2  0
 74 73  1  0
 76 74  1  0
 77 86  2  0
 77 82  1  0
 78 74  1  0
 78 82  1  0
 79 78  1  0
 80 81  1  0
 80 79  1  0
 81 77  1  0
 82 83  2  0
 83 84  1  0
 85 84  2  0
 86 85  1  0
 87 61  1  0
 87 88  1  0
 87 97  1  0
 88 91  1  0
 89 93  1  0
 89 88  1  0
 90 89  2  0
 93 92  1  0
 95 93  1  0
 95 96  1  0
 95 94  1  0
 97100  1  1
 97 98  1  0
 99 97  1  0
M  ISO  4  13 100  21 100  59 101  60 101
M  END
>  <TORSDO>  (50) 
F 21

>  <SCORE>  (50) 
-13.604

>  <name>  (50) 
49

>  <ligand_id>  (50) 
49

>  <original_smiles>  (50) 
[H]c1c([H])c([H])c2c(c1[H])C([H])([H])C([H])([H])C([H])([H])C2([H])N([H])C(=O)C1([H])N(C(=O)C([H])(N([H])C(=O)C([H])(N([H])C([H])([H])[H])C([H])([H])[H])C(C([H])([H])[H])(C([H])([H])[H])C([H])([H])[H])C([H])([H])c2c([H])c(OC([H])([H])C3(C(=O)OC([H])([H])[H])C([H])([H])C(=O)N(c4c([H])c(N([H])C(=O)N5C([H])([H])C([H])([H])C([H])([H])C([H])(n6nc(-c7c([H])c([H])c(Oc8c([H])c([H])c(F)c([H])c8F)c([H])c7[H])c(C(=O)N([H])[H])c6N([H])[H])C5([H])[H])c([H])c(C(F)(F)F)c4[H])C3([H])[H])c([H])c([H])c2C1([H])[H]

>  <smiles>  (50) 
[H]c1c([H])c([H])c2c(c1[H])C([H])([H])C([H])([H])C([H])([H])C2([H])N([H])C(=O)C1([H])N(C(=O)C([H])(N([H])C(=O)C([H])(N([H])C([H])([H])[H])C([H])([H])[H])C(C([H])([H])[H])(C([H])([H])[H])C([H])([H])[H])C([H])([H])c2c([H])c(OC([H])([H])C3(C(=O)OC([H])([H])[H])C([H])([H])C(=O)N(c4c([H])c(N([H])C(=O)N5C([H])([H])C([H])([H])C([H])([H])C([H])(n6nc(-c7c([H])c([H])c(Oc8c([H])c([H])c(F)c([H])c8F)c([H])c7[H])c(C(=O)N([H])[H])c6N([H])[H])C5([H])[H])c([H])c(C(F)(F)F)c4[H])C3([H])[H])c([H])c([H])c2C1([H])[H]

$$$$
50:0:0
     RDKit          3D

 97105  0  0  1  0  0  0  0  0999 V2000
  -29.7080  -22.2230   19.6360 C   0  0  0  0  0  0  0  0  0  0  0  0
  -29.2040  -21.1820   20.3350 N   0  0  0  0  0  0  0  0  0  0  0  0
  -28.9220  -23.3300   19.6510 N   0  0  0  0  0  0  0  0  0  0  0  0
  -30.7660  -22.1630   19.0040 O   0  0  0  0  0  0  0  0  0  0  0  0
  -28.3110  -21.3700   20.7580 H   0  0  0  0  0  0  0  0  0  0  0  0
  -28.0860  -23.2710   20.2120 H   0  0  0  0  0  0  0  0  0  0  0  0
  -31.0310  -17.8390   20.6100 C   0  0  0  0  0  3  0  0  0  0  0  0
  -30.8120  -19.2440   20.5140 C   0  0  0  0  0  3  0  0  0  0  0  0
  -28.6940  -17.4590   20.1330 C   0  0  0  0  0  3  0  0  0  0  0  0
  -28.4660  -18.8500   20.0280 C   0  0  0  0  0  0  0  0  0  0  0  0
  -29.9590  -16.9260   20.4490 C   0  0  0  0  0  0  0  0  0  0  0  0
  -29.5210  -19.7740   20.2540 C   0  0  0  0  0  0  0  0  0  0  0  0
  -27.0600  -19.3030   19.6750 C   0  0  0  0  0  1  0  0  0  0  0  0
  -30.7640  -14.5330   20.0960 C   0  0  0  0  0  0  0  0  0  0  0  0
  -30.4370  -12.3780   18.9270 C   0  0  0  0  0  2  0  0  0  0  0  0
  -29.4250  -12.6180   17.7830 C   0  0  0  0  0  2  0  0  0  0  0  0
  -27.9730  -12.4760   18.2960 C   0  0  0  0  0  2  0  0  0  0  0  0
  -27.7130  -13.2750   19.6000 C   0  0  0  0  0  3  0  0  0  0  0  0
  -28.8320  -12.9990   20.6330 C   0  0  0  0  0  2  0  0  0  0  0  0
  -30.1250  -13.3300   20.0030 N   0  0  0  0  0  0  0  0  0  0  0  0
  -31.8700  -14.7420   19.5880 O   0  0  0  0  0  0  0  0  0  0  0  0
  -30.0180  -15.5030   20.6690 N   0  0  0  0  0  0  0  0  0  0  0  0
  -29.1730  -15.1160   21.0590 H   0  0  0  0  0  0  0  0  0  0  0  0
  -25.3660  -13.8910   20.4640 C   0  0  0  0  0  0  0  0  0  0  0  0
  -24.3120  -13.1240   20.8800 C   0  0  0  0  0  0  0  0  0  0  0  0
  -24.7540  -11.7690   20.7860 C   0  0  0  0  0  0  0  0  0  0  0  0
  -26.3840  -13.0040   20.1470 N   0  0  0  0  0  0  0  0  0  0  0  0
  -26.0220  -11.7220   20.3990 N   0  0  0  0  0  0  0  0  0  0  0  0
  -24.0240  -10.5120   20.9860 C   0  0  0  0  0  0  0  0  0  0  0  0
  -24.4710   -9.5350   21.9020 C   0  0  0  0  0  3  0  0  0  0  0  0
  -23.7420   -8.3410   22.0890 C   0  0  0  0  0  3  0  0  0  0  0  0
  -22.5490   -8.1160   21.3570 C   0  0  0  0  0  0  0  0  0  0  0  0
  -22.1230   -9.0810   20.4300 C   0  0  0  0  0  3  0  0  0  0  0  0
  -22.8520  -10.2660   20.2400 C   0  0  0  0  0  3  0  0  0  0  0  0
  -21.7930   -6.9740   21.4530 O   0  0  0  0  0  0  0  0  0  0  0  0
  -21.7380   -6.2420   22.6120 C   0  0  0  0  0  0  0  0  0  0  0  0
  -21.2740   -6.8010   23.8230 C   0  0  0  0  0  3  0  0  0  0  0  0
  -21.1640   -5.9930   24.9730 C   0  0  0  0  0  3  0  0  0  0  0  0
  -21.5070   -4.6300   24.9140 C   0  0  0  0  0  0  0  0  0  0  0  0
  -21.9680   -4.0720   23.7070 C   0  0  0  0  0  3  0  0  0  0  0  0
  -22.0760   -4.8760   22.5590 C   0  0  0  0  0  0  0  0  0  0  0  0
  -22.5000   -4.3280   21.3930 F   0  0  0  0  0  0  0  0  0  0  0  0
  -21.3940   -3.8530   26.0160 F   0  0  0  0  0  0  0  0  0  0  0  0
  -22.9390  -13.6140   21.2410 C   0  0  0  0  0  0  0  0  0  0  0  0
  -22.2470  -12.9070   22.1250 N   0  0  0  0  0  0  0  0  0  0  0  0
  -22.4880  -14.6590   20.7730 O   0  0  0  0  0  0  0  0  0  0  0  0
  -22.6240  -12.0640   22.5330 H   0  0  0  0  0  0  0  0  0  0  0  0
  -21.3280  -13.2200   22.4050 H   0  0  0  0  0  0  0  0  0  0  0  0
  -25.5320  -15.2630   20.3120 N   0  0  0  0  0  0  0  0  0  0  0  0
  -24.7740  -15.9120   20.4840 H   0  0  0  0  0  0  0  0  0  0  0  0
  -26.3130  -15.6820   19.8270 H   0  0  0  0  0  0  0  0  0  0  0  0
  -28.7920  -24.2770   18.5060 C   0  0  0  0  0  3  0  0  0  0  0  0
  -27.6750  -23.7790   17.5310 C   0  0  0  0  0  2  0  0  0  0  0  0
  -27.2310  -22.4460   17.7630 O   0  0  0  0  0  0  0  0  0  0  0  0
  -26.5770  -22.2310   17.1000 H   0  0  0  0  0  0  0  0  0  0  0  0
  -28.7410  -25.8580   18.7470 C   0  0  0  0  0  2  0  0  0  0  0  0
  -28.4010  -26.5260   20.0050 O   0  0  0  0  0  0  0  0  0  0  0  0
  -24.6160  -31.8320   23.1800 C   0  0  0  0  0  0  0  0  0  0  0  0
  -27.2660  -27.3380   20.0430 C   0  0  0  0  0  0  0  0  0  0  0  0
  -23.4230  -30.4350   21.5320 C   0  0  0  0  0  3  0  0  0  0  0  0
  -24.8810  -28.8930   20.1080 C   0  0  0  0  0  0  0  0  0  0  0  0
  -25.9640  -30.7630   21.3610 C   0  0  0  0  0  2  0  0  0  0  0  0
  -26.0470  -29.3890   20.7080 C   0  0  0  0  0  0  0  0  0  0  0  0
  -27.2400  -28.6110   20.6840 C   0  0  0  0  0  3  0  0  0  0  0  0
  -26.0690  -26.8730   19.4620 C   0  0  0  0  0  3  0  0  0  0  0  0
  -24.8890  -27.6350   19.4870 C   0  0  0  0  0  3  0  0  0  0  0  0
  -23.6420  -29.7590   20.1520 C   0  0  0  0  0  2  0  0  0  0  0  0
  -24.6870  -31.0260   22.0810 N   0  0  0  0  0  0  0  0  0  0  0  0
  -23.5270  -32.1070   23.7080 O   0  0  0  0  0  0  0  0  0  0  0  0
  -22.7580  -29.4160   22.4860 C   0  0  0  0  0  0  0  0  0  0  0  0
  -21.4290  -29.2550   22.3660 N   0  0  0  0  0  0  0  0  0  0  0  0
  -23.4340  -28.7710   23.2910 O   0  0  0  0  0  0  0  0  0  0  0  0
  -20.9430  -29.8320   21.6920 H   0  0  0  0  0  0  0  0  0  0  0  0
  -18.0350  -28.1190   22.8990 C   0  0  0  0  0  0  0  0  0  0  0  0
  -20.6030  -28.3190   23.1310 C   0  0  0  0  0  3  0  0  0  0  0  0
  -20.6630  -26.8970   22.5260 C   0  0  0  0  0  2  0  0  0  0  0  0
  -19.5380  -26.6190   21.5230 C   0  0  0  0  0  2  0  0  0  0  0  0
  -18.1700  -26.7800   22.1940 C   0  0  0  0  0  2  0  0  0  0  0  0
  -19.1770  -28.8480   23.3260 C   0  0  0  0  0  0  0  0  0  0  0  0
  -18.9980  -30.1020   23.9480 C   0  0  0  0  0  3  0  0  0  0  0  0
  -17.7070  -30.6280   24.1470 C   0  0  0  0  0  3  0  0  0  0  0  0
  -16.5790  -29.8970   23.7330 C   0  0  0  0  0  3  0  0  0  0  0  0
  -16.7440  -28.6440   23.1170 C   0  0  0  0  0  3  0  0  0  0  0  0
  -25.8920  -32.4660   23.8150 C   0  0  0  0  0  3  0  0  0  0  0  0
  -25.5730  -33.8620   24.1490 N   0  0  0  0  0  0  0  0  0  0  0  0
  -25.9050  -34.9190   23.3960 C   0  0  0  0  0  0  0  0  0  0  0  0
  -26.5810  -34.8220   22.3680 O   0  0  0  0  0  0  0  0  0  0  0  0
  -24.9650  -34.0080   24.9410 H   0  0  0  0  0  0  0  0  0  0  0  0
  -24.1740  -36.7130   23.0440 C   0  0  0  0  0  1  0  0  0  0  0  0
  -25.4120  -36.3050   23.8580 C   0  0  0  0  0  3  0  0  0  0  0  0
  -27.5360  -37.1980   24.7060 C   0  0  0  0  0  1  0  0  0  0  0  0
  -26.4430  -37.3590   23.7520 N   0  0  0  0  0  0  0  0  0  0  0  0
  -26.0340  -38.2800   23.8920 H   0  0  0  0  0  0  0  0  0  0  0  0
  -26.4010  -31.6910   25.0930 C   0  0  1  0  0  0  0  0  0  0  0  0
  -25.3030  -31.4500   26.1560 C   0  0  0  0  0  1  0  0  0  0  0  0
  -26.9890  -30.3150   24.7000 C   0  0  0  0  0  1  0  0  0  0  0  0
  -27.5470  -32.4850   25.7630 C   0  0  0  0  0  1  0  0  0  0  0  0
  1  3  1  0
  1  2  1  0
  2  5  1  0
  3  6  1  0
  4  1  2  0
  8  7  1  0
  9 11  1  0
 10  9  2  0
 10 12  1  0
 11  7  2  0
 11 22  1  0
 12  2  1  0
 12  8  2  0
 13 10  1  0
 14 22  1  0
 15 20  1  0
 16 17  1  0
 16 15  1  0
 18 17  1  0
 18 27  1  0
 18 19  1  0
 20 14  1  0
 20 19  1  0
 21 14  2  0
 22 23  1  0
 24 25  2  0
 25 44  1  0
 26 25  1  0
 26 29  1  0
 27 28  1  0
 27 24  1  0
 28 26  2  0
 29 30  1  0
 30 31  2  0
 32 35  1  0
 32 31  1  0
 33 32  2  0
 34 33  1  0
 34 29  2  0
 35 36  1  0
 36 37  1  0
 37 38  2  0
 39 38  1  0
 39 43  1  0
 40 39  2  0
 41 36  2  0
 41 40  1  0
 42 41  1  0
 44 45  1  0
 45 48  1  0
 45 47  1  0
 46 44  2  0
 49 24  1  0
 49 50  1  0
 51 49  1  0
 52 53  1  0
 52 56  1  0
 52  3  1  0
 53 54  1  0
 55 54  1  0
 56 57  1  0
 57 59  1  0
 58 69  2  0
 59 64  1  0
 60 68  1  0
 60 70  1  0
 61 67  1  0
 61 63  1  0
 62 68  1  0
 63 62  1  0
 64 63  2  0
 65 66  1  0
 65 59  2  0
 66 61  2  0
 67 60  1  0
 68 58  1  0
 70 72  2  0
 71 70  1  0
 73 71  1  0
 74 83  2  0
 74 79  1  0
 75 71  1  0
 75 79  1  0
 76 75  1  0
 77 78  1  0
 77 76  1  0
 78 74  1  0
 79 80  2  0
 80 81  1  0
 82 81  2  0
 83 82  1  0
 84 58  1  0
 84 85  1  0
 84 94  1  0
 85 88  1  0
 86 90  1  0
 86 85  1  0
 87 86  2  0
 90 89  1  0
 92 90  1  0
 92 93  1  0
 92 91  1  0
 94 97  1  1
 94 95  1  0
 96 94  1  0
M  ISO  4  14 100  22 100  56 101  57 101
M  END
>  <TORSDO>  (51) 
F 21

>  <SCORE>  (51) 
-13.680

>  <name>  (51) 
50

>  <ligand_id>  (51) 
50

>  <original_smiles>  (51) 
[H]OC([H])([H])C([H])(N([H])C(=O)N([H])c1c([H])c([H])c(N([H])C(=O)N2C([H])([H])C([H])([H])C([H])([H])C([H])(n3nc(-c4c([H])c([H])c(Oc5c([H])c([H])c(F)c([H])c5F)c([H])c4[H])c(C(=O)N([H])[H])c3N([H])[H])C2([H])[H])c([H])c1C([H])([H])[H])C([H])([H])Oc1c([H])c([H])c2c(c1[H])C([H])([H])N(C(=O)C([H])(N([H])C(=O)C([H])(N([H])C([H])([H])[H])C([H])([H])[H])C(C([H])([H])[H])(C([H])([H])[H])C([H])([H])[H])C([H])(C(=O)N([H])C1([H])c3c([H])c([H])c([H])c([H])c3C([H])([H])C([H])([H])C1([H])[H])C2([H])[H]

>  <smiles>  (51) 
[H]OC([H])([H])C([H])(N([H])C(=O)N([H])c1c([H])c([H])c(N([H])C(=O)N2C([H])([H])C([H])([H])C([H])([H])C([H])(n3nc(-c4c([H])c([H])c(Oc5c([H])c([H])c(F)c([H])c5F)c([H])c4[H])c(C(=O)N([H])[H])c3N([H])[H])C2([H])[H])c([H])c1C([H])([H])[H])C([H])([H])Oc1c([H])c([H])c2c(c1[H])C([H])([H])N(C(=O)C([H])(N([H])C(=O)C([H])(N([H])C([H])([H])[H])C([H])([H])[H])C(C([H])([H])[H])(C([H])([H])[H])C([H])([H])[H])C([H])(C(=O)N([H])C1([H])c3c([H])c([H])c([H])c([H])c3C([H])([H])C([H])([H])C1([H])[H])C2([H])[H]

$$$$
51:0:0
     RDKit          3D

 95104  0  0  1  0  0  0  0  0999 V2000
  -30.6010  -20.6890   17.9190 C   0  0  0  0  0  3  0  0  0  0  0  0
  -30.2650  -21.9370   18.4610 C   0  0  0  0  0  3  0  0  0  0  0  0
  -29.4560  -20.8320   20.4840 C   0  0  0  0  0  3  0  0  0  0  0  0
  -29.6610  -18.3030   20.6520 C   0  0  0  0  0  3  0  0  0  0  0  0
  -30.7140  -18.2770   18.0540 C   0  0  0  0  0  3  0  0  0  0  0  0
  -30.3770  -19.5050   18.6470 C   0  0  0  0  0  0  0  0  0  0  0  0
  -29.8190  -19.5470   19.9500 C   0  0  0  0  0  0  0  0  0  0  0  0
  -29.6660  -22.0370   19.7330 C   0  0  0  0  0  0  0  0  0  0  0  0
  -30.0410  -17.0450   20.0690 C   0  0  0  0  0  0  0  0  0  0  0  0
  -30.5300  -17.0650   18.7350 C   0  0  0  0  0  0  0  0  0  0  0  0
  -30.7970  -15.9190   18.0640 F   0  0  0  0  0  0  0  0  0  0  0  0
  -30.6470  -14.6660   20.6240 C   0  0  0  0  0  0  0  0  0  0  0  0
  -30.4570  -12.4160   19.6390 C   0  0  0  0  0  2  0  0  0  0  0  0
  -29.5810  -12.5400   18.3740 C   0  0  0  0  0  2  0  0  0  0  0  0
  -28.0900  -12.3900   18.7310 C   0  0  0  0  0  2  0  0  0  0  0  0
  -27.6670  -13.2720   19.9380 C   0  0  0  0  0  3  0  0  0  0  0  0
  -28.6730  -13.1600   21.1060 C   0  0  0  0  0  2  0  0  0  0  0  0
  -30.0110  -13.4590   20.5810 N   0  0  0  0  0  0  0  0  0  0  0  0
  -31.8500  -14.7710   20.3710 O   0  0  0  0  0  0  0  0  0  0  0  0
  -29.8640  -15.7740   20.7590 N   0  0  0  0  0  0  0  0  0  0  0  0
  -28.9570  -15.6210   21.1730 H   0  0  0  0  0  0  0  0  0  0  0  0
  -25.2370  -13.8570   20.5350 C   0  0  0  0  0  0  0  0  0  0  0  0
  -24.1610  -13.0810   20.8680 C   0  0  0  0  0  0  0  0  0  0  0  0
  -24.6360  -11.7340   20.8830 C   0  0  0  0  0  0  0  0  0  0  0  0
  -26.3000  -12.9840   20.3650 N   0  0  0  0  0  0  0  0  0  0  0  0
  -25.9400  -11.7020   20.6360 N   0  0  0  0  0  0  0  0  0  0  0  0
  -23.9140  -10.4680   21.0620 C   0  0  0  0  0  0  0  0  0  0  0  0
  -24.3110   -9.5200   22.0320 C   0  0  0  0  0  3  0  0  0  0  0  0
  -23.5890   -8.3200   22.1980 C   0  0  0  0  0  3  0  0  0  0  0  0
  -22.4530   -8.0570   21.3950 C   0  0  0  0  0  0  0  0  0  0  0  0
  -22.0770   -8.9920   20.4140 C   0  0  0  0  0  3  0  0  0  0  0  0
  -22.8000  -10.1840   20.2470 C   0  0  0  0  0  3  0  0  0  0  0  0
  -21.7080   -6.9050   21.4670 O   0  0  0  0  0  0  0  0  0  0  0  0
  -21.6070   -6.1840   22.6290 C   0  0  0  0  0  0  0  0  0  0  0  0
  -21.0850   -6.7490   23.8130 C   0  0  0  0  0  3  0  0  0  0  0  0
  -20.9340   -5.9540   24.9660 C   0  0  0  0  0  3  0  0  0  0  0  0
  -21.2940   -4.5940   24.9360 C   0  0  0  0  0  0  0  0  0  0  0  0
  -21.8090   -4.0270   23.7570 C   0  0  0  0  0  3  0  0  0  0  0  0
  -21.9630   -4.8210   22.6060 C   0  0  0  0  0  0  0  0  0  0  0  0
  -22.4390   -4.2640   21.4660 F   0  0  0  0  0  0  0  0  0  0  0  0
  -21.1440   -3.8270   26.0410 F   0  0  0  0  0  0  0  0  0  0  0  0
  -22.7480  -13.5490   21.0640 C   0  0  0  0  0  0  0  0  0  0  0  0
  -21.9860  -12.8590   21.9040 N   0  0  0  0  0  0  0  0  0  0  0  0
  -22.3270  -14.5630   20.5080 O   0  0  0  0  0  0  0  0  0  0  0  0
  -22.3370  -12.0390   22.3770 H   0  0  0  0  0  0  0  0  0  0  0  0
  -21.0350  -13.1540   22.0760 H   0  0  0  0  0  0  0  0  0  0  0  0
  -25.3970  -15.2260   20.3370 N   0  0  0  0  0  0  0  0  0  0  0  0
  -24.6200  -15.8750   20.3880 H   0  0  0  0  0  0  0  0  0  0  0  0
  -26.2510  -15.6600   20.0100 H   0  0  0  0  0  0  0  0  0  0  0  0
  -28.3830  -24.1540   19.8580 C   0  0  0  0  0  0  0  0  0  0  0  0
  -29.4390  -23.3790   20.2090 N   0  0  0  0  0  0  0  0  0  0  0  0
  -27.2220  -23.7490   19.9610 O   0  0  0  0  0  0  0  0  0  0  0  0
  -30.2860  -23.9290   20.2590 H   0  0  0  0  0  0  0  0  0  0  0  0
  -28.6590  -25.5850   19.2810 C   0  0  0  0  0  2  0  0  0  0  0  0
  -28.4120  -26.7040   20.1730 O   0  0  0  0  0  0  0  0  0  0  0  0
  -24.6120  -31.9040   23.2450 C   0  0  0  0  0  0  0  0  0  0  0  0
  -27.2400  -27.4490   20.1130 C   0  0  0  0  0  0  0  0  0  0  0  0
  -23.3960  -30.5150   21.5990 C   0  0  0  0  0  3  0  0  0  0  0  0
  -24.8420  -28.9830   20.1490 C   0  0  0  0  0  0  0  0  0  0  0  0
  -25.9230  -30.8630   21.3910 C   0  0  0  0  0  2  0  0  0  0  0  0
  -26.0030  -29.4930   20.7400 C   0  0  0  0  0  0  0  0  0  0  0  0
  -27.1990  -28.7300   20.7250 C   0  0  0  0  0  3  0  0  0  0  0  0
  -26.0570  -26.9660   19.5070 C   0  0  0  0  0  3  0  0  0  0  0  0
  -24.8680  -27.7210   19.5290 C   0  0  0  0  0  3  0  0  0  0  0  0
  -23.5960  -29.8410   20.2140 C   0  0  0  0  0  2  0  0  0  0  0  0
  -24.6620  -31.1090   22.1370 N   0  0  0  0  0  0  0  0  0  0  0  0
  -23.5330  -32.1710   23.7950 O   0  0  0  0  0  0  0  0  0  0  0  0
  -22.7470  -29.4900   22.5590 C   0  0  0  0  0  0  0  0  0  0  0  0
  -21.4230  -29.3020   22.4320 N   0  0  0  0  0  0  0  0  0  0  0  0
  -23.4320  -28.8660   23.3730 O   0  0  0  0  0  0  0  0  0  0  0  0
  -20.9290  -29.8570   21.7480 H   0  0  0  0  0  0  0  0  0  0  0  0
  -18.0560  -28.0820   22.9290 C   0  0  0  0  0  0  0  0  0  0  0  0
  -20.6130  -28.3550   23.1990 C   0  0  0  0  0  3  0  0  0  0  0  0
  -20.7250  -26.9280   22.6160 C   0  0  0  0  0  2  0  0  0  0  0  0
  -19.6240  -26.6040   21.6010 C   0  0  0  0  0  2  0  0  0  0  0  0
  -18.2410  -26.7370   22.2470 C   0  0  0  0  0  2  0  0  0  0  0  0
  -19.1710  -28.8490   23.3630 C   0  0  0  0  0  0  0  0  0  0  0  0
  -18.9450  -30.1080   23.9600 C   0  0  0  0  0  3  0  0  0  0  0  0
  -17.6370  -30.6010   24.1280 C   0  0  0  0  0  3  0  0  0  0  0  0
  -16.5370  -29.8310   23.7100 C   0  0  0  0  0  3  0  0  0  0  0  0
  -16.7470  -28.5730   23.1180 C   0  0  0  0  0  3  0  0  0  0  0  0
  -25.9010  -32.5310   23.8630 C   0  0  0  0  0  3  0  0  0  0  0  0
  -25.6020  -33.9340   24.1800 N   0  0  0  0  0  0  0  0  0  0  0  0
  -25.9490  -34.9790   23.4160 C   0  0  0  0  0  0  0  0  0  0  0  0
  -26.6280  -34.8630   22.3920 O   0  0  0  0  0  0  0  0  0  0  0  0
  -24.9990  -34.0990   24.9730 H   0  0  0  0  0  0  0  0  0  0  0  0
  -24.2510  -36.7920   23.0220 C   0  0  0  0  0  1  0  0  0  0  0  0
  -25.4700  -36.3740   23.8600 C   0  0  0  0  0  3  0  0  0  0  0  0
  -27.6040  -37.2310   24.7250 C   0  0  0  0  0  1  0  0  0  0  0  0
  -26.5150  -37.4190   23.7700 N   0  0  0  0  0  0  0  0  0  0  0  0
  -26.1140  -38.3390   23.9260 H   0  0  0  0  0  0  0  0  0  0  0  0
  -26.4110  -31.7670   25.1470 C   0  0  1  0  0  0  0  0  0  0  0  0
  -25.3150  -31.5460   26.2150 C   0  0  0  0  0  1  0  0  0  0  0  0
  -26.9840  -30.3820   24.7660 C   0  0  0  0  0  1  0  0  0  0  0  0
  -27.5680  -32.5570   25.8030 C   0  0  0  0  0  1  0  0  0  0  0  0
  1  2  2  0
  1  6  1  0
  2  8  1  0
  5  6  2  0
  5 10  1  0
  6  7  1  0
  7  3  1  0
  7  4  2  0
  8 51  1  0
  8  3  2  0
  9  4  1  0
  9 20  1  0
 10  9  2  0
 11 10  1  0
 12 20  1  0
 13 18  1  0
 14 15  1  0
 14 13  1  0
 16 15  1  0
 16 25  1  0
 16 17  1  0
 18 12  1  0
 18 17  1  0
 19 12  2  0
 20 21  1  0
 22 23  2  0
 23 24  1  0
 23 42  1  0
 24 27  1  0
 25 22  1  0
 25 26  1  0
 26 24  2  0
 27 28  1  0
 28 29  2  0
 30 33  1  0
 30 29  1  0
 31 30  2  0
 32 31  1  0
 32 27  2  0
 33 34  1  0
 34 35  1  0
 35 36  2  0
 37 36  1  0
 37 41  1  0
 38 37  2  0
 39 34  2  0
 39 38  1  0
 40 39  1  0
 42 43  1  0
 43 46  1  0
 43 45  1  0
 44 42  2  0
 47 48  1  0
 47 22  1  0
 49 47  1  0
 50 52  2  0
 50 51  1  0
 51 53  1  0
 54 50  1  0
 54 55  1  0
 56 67  2  0
 57 55  1  0
 57 62  1  0
 58 66  1  0
 58 68  1  0
 59 65  1  0
 59 61  1  0
 60 66  1  0
 61 60  1  0
 62 61  2  0
 63 64  1  0
 63 57  2  0
 64 59  2  0
 65 58  1  0
 66 56  1  0
 68 70  2  0
 69 68  1  0
 71 69  1  0
 72 81  2  0
 72 77  1  0
 73 69  1  0
 73 77  1  0
 74 73  1  0
 75 76  1  0
 75 74  1  0
 76 72  1  0
 77 78  2  0
 78 79  1  0
 80 79  2  0
 81 80  1  0
 82 56  1  0
 82 83  1  0
 82 92  1  0
 83 86  1  0
 84 88  1  0
 84 83  1  0
 85 84  2  0
 88 87  1  0
 90 88  1  0
 90 91  1  0
 90 89  1  0
 92 95  1  1
 92 93  1  0
 94 92  1  0
M  ISO  4  12 100  20 100  54 101  55 101
M  END
>  <TORSDO>  (52) 
F 18

>  <SCORE>  (52) 
-14.548

>  <name>  (52) 
51

>  <ligand_id>  (52) 
51

>  <original_smiles>  (52) 
[H]c1c([H])c([H])c2c(c1[H])C([H])([H])C([H])([H])C([H])([H])C2([H])N([H])C(=O)C1([H])N(C(=O)C([H])(N([H])C(=O)C([H])(N([H])C([H])([H])[H])C([H])([H])[H])C(C([H])([H])[H])(C([H])([H])[H])C([H])([H])[H])C([H])([H])c2c([H])c(OC([H])([H])C(=O)N([H])c3c([H])c([H])c4c([H])c(F)c(N([H])C(=O)N5C([H])([H])C([H])([H])C([H])([H])C([H])(n6nc(-c7c([H])c([H])c(Oc8c([H])c([H])c(F)c([H])c8F)c([H])c7[H])c(C(=O)N([H])[H])c6N([H])[H])C5([H])[H])c([H])c4c3[H])c([H])c([H])c2C1([H])[H]

>  <smiles>  (52) 
[H]c1c([H])c([H])c2c(c1[H])C([H])([H])C([H])([H])C([H])([H])C2([H])N([H])C(=O)C1([H])N(C(=O)C([H])(N([H])C(=O)C([H])(N([H])C([H])([H])[H])C([H])([H])[H])C(C([H])([H])[H])(C([H])([H])[H])C([H])([H])[H])C([H])([H])c2c([H])c(OC([H])([H])C(=O)N([H])c3c([H])c([H])c4c([H])c(F)c(N([H])C(=O)N5C([H])([H])C([H])([H])C([H])([H])C([H])(n6nc(-c7c([H])c([H])c(Oc8c([H])c([H])c(F)c([H])c8F)c([H])c7[H])c(C(=O)N([H])[H])c6N([H])[H])C5([H])[H])c([H])c4c3[H])c([H])c([H])c2C1([H])[H]

$$$$
52:0:0
     RDKit          3D

101104  0  0  1  0  0  0  0  0999 V2000
  -24.3370  -14.5730   20.6930 C   0  0  0  0  0 15  0  0  0  0  0  0
  -28.4080  -14.6640   21.0120 C   0  0  0  0  0  1  0  0  0  0  0  0
  -25.4780  -16.1850   20.0350 C   0  0  0  0  0  1  0  0  0  0  0  0
  -27.4980  -13.0500   21.7560 C   0  0  0  0  0  1  0  0  0  0  0  0
  -25.3320  -12.9350   21.6130 C   0  0  0  0  0  1  0  0  0  0  0  0
  -27.5170  -16.2500   20.2660 C   0  0  0  0  0  2  0  0  0  0  0  0
  -24.6540  -17.3890   19.6360 C   0  0  0  0  0  1  0  0  0  0  0  0
  -23.0160  -12.0140   21.8500 C   0  0  0  0  0  0  0  0  0  0  0  0
  -23.4820   -9.6720   21.5610 C   0  0  0  0  0  2  0  0  0  0  0  0
  -24.7170  -10.5270   21.6210 C   0  0  0  0  0  2  0  0  0  0  0  0
  -22.4060  -10.7040   21.2480 C   0  0  1  0  0  0  0  0  0  0  0  0
  -21.0800  -10.2100   21.8690 C   0  0  0  0  0  1  0  0  0  0  0  0
  -22.2640  -10.8090   19.7080 C   0  0  0  0  0  1  0  0  0  0  0  0
  -24.3610  -11.9200   21.9490 N   0  0  0  0  0  0  0  0  0  0  0  0
  -22.3250  -12.9660   22.2290 O   0  0  0  0  0  0  0  0  0  0  0  0
  -29.9600  -18.4490   20.1940 C   0  0  0  0  0  0  0  0  0  0  0  0
  -28.5010  -17.7590   20.1670 N   0  0  0  0  0  0  0  0  0  0  0  0
  -30.8460  -17.6030   20.3400 O   0  0  0  0  0  0  0  0  0  0  0  0
  -27.8580  -18.5400   20.0840 H   0  0  0  0  0  0  0  0  0  0  0  0
  -30.5480  -20.1110   20.0990 C   0  0  0  0  0  0  0  0  0  0  0  0
  -31.4390  -21.3490   19.5850 C   0  0  0  0  0  0  0  0  0  0  0  0
  -32.5870  -22.1810   18.6910 O   0  0  0  0  0  0  0  0  0  0  0  0
  -34.2850  -29.6210   18.3410 C   0  0  0  0  0  0  0  0  0  0  0  0
  -32.4450  -23.5760   18.0030 C   0  0  0  0  0  0  0  0  0  0  0  0
  -32.0460  -28.7060   18.7180 C   0  0  0  0  0  3  0  0  0  0  0  0
  -31.5070  -26.3710   17.7550 C   0  0  0  0  0  0  0  0  0  0  0  0
  -33.6210  -27.4680   17.0990 C   0  0  0  0  0  2  0  0  0  0  0  0
  -32.8420  -26.1370   17.4190 C   0  0  0  0  0  0  0  0  0  0  0  0
  -33.3210  -24.7280   17.5330 C   0  0  0  0  0  3  0  0  0  0  0  0
  -31.1080  -23.9450   17.9040 C   0  0  0  0  0  3  0  0  0  0  0  0
  -30.6540  -25.2770   17.8890 C   0  0  0  0  0  3  0  0  0  0  0  0
  -31.0150  -27.7930   17.9970 C   0  0  0  0  0  2  0  0  0  0  0  0
  -33.3780  -28.6340   18.0380 N   0  0  0  0  0  0  0  0  0  0  0  0
  -34.0350  -30.5120   19.1740 O   0  0  0  0  0  0  0  0  0  0  0  0
  -32.1400  -28.3600   20.2320 C   0  0  0  0  0  0  0  0  0  0  0  0
  -31.1700  -28.8180   21.0450 N   0  0  0  0  0  0  0  0  0  0  0  0
  -33.0850  -27.6830   20.6530 O   0  0  0  0  0  0  0  0  0  0  0  0
  -30.4370  -29.3790   20.6410 H   0  0  0  0  0  0  0  0  0  0  0  0
  -29.2490  -29.5310   24.0400 C   0  0  0  0  0  0  0  0  0  0  0  0
  -31.0760  -28.5580   22.4870 C   0  0  0  0  0  3  0  0  0  0  0  0
  -30.4270  -27.1820   22.7610 C   0  0  0  0  0  2  0  0  0  0  0  0
  -28.9110  -27.2630   22.9690 C   0  0  0  0  0  2  0  0  0  0  0  0
  -28.5780  -28.1720   24.1560 C   0  0  0  0  0  2  0  0  0  0  0  0
  -30.4130  -29.7150   23.2450 C   0  0  0  0  0  0  0  0  0  0  0  0
  -30.9790  -31.0060   23.1520 C   0  0  0  0  0  3  0  0  0  0  0  0
  -30.4050  -32.0980   23.8310 C   0  0  0  0  0  3  0  0  0  0  0  0
  -29.2620  -31.9060   24.6260 C   0  0  0  0  0  3  0  0  0  0  0  0
  -28.6900  -30.6260   24.7340 C   0  0  0  0  0  3  0  0  0  0  0  0
  -35.6720  -29.6970   17.6440 C   0  0  0  0  0  3  0  0  0  0  0  0
  -36.8230  -28.9840   18.4640 C   0  0  1  0  0  0  0  0  0  0  0  0
  -36.8160  -29.3230   19.9740 C   0  0  0  0  0  1  0  0  0  0  0  0
  -36.7430  -27.4470   18.3410 C   0  0  0  0  0  1  0  0  0  0  0  0
  -38.2040  -29.3890   17.8910 C   0  0  0  0  0  1  0  0  0  0  0  0
  -36.0170  -31.1230   17.4630 N   0  0  0  0  0  0  0  0  0  0  0  0
  -35.8350  -31.8320   16.3400 C   0  0  0  0  0  0  0  0  0  0  0  0
  -35.4020  -31.3270   15.3020 O   0  0  0  0  0  0  0  0  0  0  0  0
  -36.3280  -31.6140   18.2880 H   0  0  0  0  0  0  0  0  0  0  0  0
  -34.9100  -34.1720   16.4880 C   0  0  0  0  0  1  0  0  0  0  0  0
  -36.1930  -33.3350   16.3680 C   0  0  0  0  0  3  0  0  0  0  0  0
  -38.3390  -33.2740   15.1690 C   0  0  0  0  0  1  0  0  0  0  0  0
  -36.9680  -33.7830   15.1880 N   0  0  0  0  0  0  0  0  0  0  0  0
  -37.0070  -34.7980   15.1470 H   0  0  0  0  0  0  0  0  0  0  0  0
  -28.7340  -12.0990   22.4130 C   0  0  0  0  0  2  0  0  0  0  0  0
  -31.6800  -11.5220   22.5810 C   0  0  0  0  0  0  0  0  0  0  0  0
  -32.6230   -9.1600   22.8840 C   0  0  0  0  0  2  0  0  0  0  0  0
  -32.4440   -8.3160   21.5680 C   0  0  0  0  0  2  0  0  0  0  0  0
  -30.9670   -8.0420   21.1530 C   0  0  0  0  0  2  0  0  0  0  0  0
  -30.1790   -9.3020   21.4200 C   0  0  0  0  0  3  0  0  0  0  0  0
  -30.3360   -9.5920   22.9080 C   0  0  0  0  0  2  0  0  0  0  0  0
  -31.5960  -10.2290   22.9730 N   0  0  0  0  0  0  0  0  0  0  0  0
  -32.8710  -11.9270   22.4460 O   0  0  0  0  0  0  0  0  0  0  0  0
  -30.3910  -12.1750   22.2250 N   0  0  0  0  0  0  0  0  0  0  0  0
  -30.6180  -13.0780   21.8260 H   0  0  0  0  0  0  0  0  0  0  0  0
  -28.3750   -9.8730   19.8620 C   0  0  0  0  0  3  0  0  0  0  0  0
  -27.0620   -9.9610   19.9660 C   0  0  0  0  0  3  0  0  0  0  0  0
  -26.7210   -9.0300   21.1200 C   0  0  0  0  0  3  0  0  0  0  0  0
  -28.8330   -9.3000   20.9950 N   0  0  0  0  0  0  0  0  0  0  0  0
  -27.8680   -8.7450   21.7420 N   0  0  0  0  0  2  0  0  0  0  0  0
  -25.6200   -8.1960   21.7610 C   0  0  0  0  0  0  0  0  0  0  0  0
  -25.1520   -8.3750   23.1020 C   0  0  0  0  0  3  0  0  0  0  0  0
  -24.2110   -7.4970   23.7010 C   0  0  0  0  0  3  0  0  0  0  0  0
  -23.7180   -6.3690   23.0040 C   0  0  0  0  0  0  0  0  0  0  0  0
  -24.2270   -6.1340   21.7100 C   0  0  0  0  0  3  0  0  0  0  0  0
  -25.1460   -7.0310   21.1120 C   0  0  0  0  0  3  0  0  0  0  0  0
  -22.8300   -5.4470   23.5270 O   0  0  0  0  0  0  0  0  0  0  0  0
  -21.6100   -5.8150   24.0690 C   0  0  0  0  0  0  0  0  0  0  0  0
  -20.8830   -6.9180   23.5860 C   0  0  0  0  0  3  0  0  0  0  0  0
  -19.6100   -7.2230   24.1140 C   0  0  0  0  0  3  0  0  0  0  0  0
  -19.0450   -6.4120   25.1190 C   0  0  0  0  0  0  0  0  0  0  0  0
  -19.7570   -5.2980   25.5970 C   0  0  0  0  0  3  0  0  0  0  0  0
  -21.0330   -5.0010   25.0690 C   0  0  0  0  0  0  0  0  0  0  0  0
  -21.7010   -3.9170   25.5200 F   0  0  0  0  0  0  0  0  0  0  0  0
  -17.8100   -6.6830   25.6220 F   0  0  0  0  0  0  0  0  0  0  0  0
  -26.5560  -11.2090   19.0740 C   0  0  0  0  0  2  0  0  0  0  0  0
  -27.6840  -12.8260   18.3070 N   0  0  0  0  0  2  0  0  0  0  0  0
  -25.3120  -11.1080   19.2400 O   0  0  0  0  0  1  0  0  0  0  0  0
  -28.6940  -12.7700   18.2710 H   0  0  0  0  0  0  0  0  0  0  0  0
  -27.1840  -13.6400   17.9960 H   0  0  0  0  0  0  0  0  0  0  0  0
  -29.2170  -10.4130   18.9040 N   0  0  0  0  0  0  0  0  0  0  0  0
  -28.8750  -10.8110   18.0420 H   0  0  0  0  0  0  0  0  0  0  0  0
  -30.2270  -10.3120   18.8950 H   0  0  0  0  0  0  0  0  0  0  0  0
  4 63  1  0
  5 14  1  0
  6  2  1  0
  7  3  1  0
  8 14  1  0
  8 15  2  0
  9 10  1  0
 10 14  1  0
 11  9  1  0
 11  8  1  0
 11 12  1  1
 13 11  1  0
 16 18  2  0
 17 16  1  0
 17  6  1  0
 19 17  1  0
 20 16  1  0
 21 20  3  0
 22 21  1  0
 23 34  2  0
 24 22  1  0
 25 35  1  0
 26 31  1  0
 26 32  1  0
 27 28  1  0
 27 33  1  0
 28 29  1  0
 28 26  2  0
 29 24  2  0
 30 24  1  0
 31 30  2  0
 32 25  1  0
 33 23  1  0
 33 25  1  0
 35 37  2  0
 35 36  1  0
 38 36  1  0
 39 43  1  0
 39 48  1  0
 40 36  1  0
 40 41  1  0
 40 44  1  0
 41 42  1  0
 42 43  1  0
 44 39  2  0
 45 44  1  0
 45 46  2  0
 46 47  1  0
 47 48  2  0
 49 23  1  0
 49 50  1  0
 50 51  1  1
 52 50  1  0
 53 50  1  0
 54 49  1  0
 54 57  1  0
 55 59  1  0
 55 54  1  0
 56 55  2  0
 59 58  1  0
 60 61  1  0
 61 59  1  0
 62 61  1  0
 64 70  1  0
 65 70  1  0
 66 65  1  0
 67 66  1  0
 68 67  1  0
 68 69  1  0
 69 70  1  0
 71 64  2  0
 72 63  1  0
 72 64  1  0
 73 72  1  0
 74 99  1  0
 74 75  1  0
 74 77  1  0
 75 94  1  0
 75 76  1  0
 76 78  1  0
 76 79  1  0
 77 68  1  0
 77 78  1  0
 79 80  1  0
 80 81  2  0
 82 85  1  0
 82 81  1  0
 83 82  2  0
 84 83  1  0
 84 79  2  0
 85 86  1  0
 86 91  1  0
 87 86  2  0
 87 88  1  0
 88 89  2  0
 89 90  1  0
 89 93  1  0
 91 92  1  0
 91 90  2  0
 94 96  1  0
 97 95  1  0
 98 95  1  0
100 99  1  0
101 99  1  0
M  ISO  4  21 101  22 101  64 100  72 100
M  END
>  <TORSDO>  (53) 
F 20

>  <SCORE>  (53) 
1.748

>  <name>  (53) 
52

>  <ligand_id>  (53) 
52

>  <original_smiles>  (53) 
[H]C(Oc1c([H])c([H])c2c(c1[H])C([H])([H])N(C(=O)C([H])(N([H])C(=O)C([H])(N([H])C([H])([H])[H])C([H])([H])[H])C(C([H])([H])[H])(C([H])([H])[H])C([H])([H])[H])C([H])(C(=O)N([H])C1([H])c3c([H])c([H])c([H])c([H])c3C([H])([H])C([H])([H])C1([H])[H])C2([H])[H])=C([H])C(=O)N([H])c1c([H])c(C([H])([H])N([H])C(=O)N2C([H])([H])C([H])([H])C([H])([H])C([H])(n3nc(-c4c([H])c([H])c(Oc5c([H])c([H])c(F)c([H])c5F)c([H])c4[H])c(C(=O)N([H])[H])c3N([H])[H])C2([H])[H])c(N2C(=O)C(C([H])([H])[H])(C([H])([H])[H])C([H])([H])C2([H])[H])c([H])c1C([H])([H])[H]

>  <smiles>  (53) 
[H]C(Oc1c([H])c([H])c2c(c1[H])C([H])([H])N(C(=O)C([H])(N([H])C(=O)C([H])(N([H])C([H])([H])[H])C([H])([H])[H])C(C([H])([H])[H])(C([H])([H])[H])C([H])([H])[H])C([H])(C(=O)N([H])C1([H])c3c([H])c([H])c([H])c([H])c3C([H])([H])C([H])([H])C1([H])[H])C2([H])[H])=C([H])C(=O)N([H])c1c([H])c(C([H])([H])N([H])C(=O)N2C([H])([H])C([H])([H])C([H])([H])C([H])(n3nc(-c4c([H])c([H])c(Oc5c([H])c([H])c(F)c([H])c5F)c([H])c4[H])c(C(=O)N([H])[H])c3N([H])[H])C2([H])[H])c(N2C(=O)C(C([H])([H])[H])(C([H])([H])[H])C([H])([H])C2([H])[H])c([H])c1C([H])([H])[H]

$$$$
53:0:0
     RDKit          3D

 97106  0  0  1  0  0  0  0  0999 V2000
  -29.4420  -23.4200   21.6030 C   0  0  0  0  0  0  0  0  0  0  0  0
  -29.8200  -21.8960   21.6410 C   0  0  0  0  0  0  0  0  0  0  0  0
  -28.8680  -22.4030   19.5950 C   0  0  0  0  0  2  0  0  0  0  0  0
  -28.5360  -23.7320   20.4150 C   0  0  0  0  0  3  0  0  0  0  0  0
  -29.4590  -21.3150   20.4740 N   0  0  0  0  0  0  0  0  0  0  0  0
  -29.8030  -24.2600   22.4370 O   0  0  0  0  0  0  0  0  0  0  0  0
  -30.3680  -21.3440   22.6050 O   0  0  0  0  0  0  0  0  0  0  0  0
  -29.8160  -19.7060   18.6260 C   0  0  0  0  0  3  0  0  0  0  0  0
  -30.0250  -18.7190   20.8340 C   0  0  0  0  0  3  0  0  0  0  0  0
  -30.0980  -18.4470   18.0460 C   0  0  0  0  0  0  0  0  0  0  0  0
  -29.7690  -19.9140   20.0240 C   0  0  0  0  0  0  0  0  0  0  0  0
  -30.3400  -17.4040   20.2710 C   0  0  0  0  0  0  0  0  0  0  0  0
  -30.3720  -17.3210   18.8590 C   0  0  0  0  0  0  0  0  0  0  0  0
  -30.5850  -16.1180   18.2750 F   0  0  0  0  0  0  0  0  0  0  0  0
  -31.1940  -14.9840   20.7120 C   0  0  0  0  0  0  0  0  0  0  0  0
  -31.0190  -12.6870   19.7420 C   0  0  0  0  0  2  0  0  0  0  0  0
  -30.1820  -12.7610   18.4450 C   0  0  0  0  0  2  0  0  0  0  0  0
  -28.6760  -12.6600   18.7570 C   0  0  0  0  0  2  0  0  0  0  0  0
  -28.2410  -13.5740   19.9360 C   0  0  0  0  0  3  0  0  0  0  0  0
  -29.2040  -13.4540   21.1370 C   0  0  0  0  0  2  0  0  0  0  0  0
  -30.5550  -13.7620   20.6520 N   0  0  0  0  0  0  0  0  0  0  0  0
  -32.3870  -15.0640   20.4010 O   0  0  0  0  0  0  0  0  0  0  0  0
  -30.4560  -16.1210   21.0190 N   0  0  0  0  0  0  0  0  0  0  0  0
  -29.6180  -15.9000   21.5350 H   0  0  0  0  0  0  0  0  0  0  0  0
  -25.8260  -14.2530   20.4780 C   0  0  0  0  0  0  0  0  0  0  0  0
  -24.7080  -13.5210   20.7710 C   0  0  0  0  0  0  0  0  0  0  0  0
  -25.1240  -12.1530   20.7820 C   0  0  0  0  0  0  0  0  0  0  0  0
  -26.8530  -13.3360   20.3240 N   0  0  0  0  0  0  0  0  0  0  0  0
  -26.4320  -12.0690   20.5710 N   0  0  0  0  0  0  0  0  0  0  0  0
  -24.3410  -10.9190   20.9260 C   0  0  0  0  0  0  0  0  0  0  0  0
  -24.6790   -9.9360   21.8830 C   0  0  0  0  0  3  0  0  0  0  0  0
  -23.8990   -8.7660   22.0150 C   0  0  0  0  0  3  0  0  0  0  0  0
  -22.7680   -8.5710   21.1880 C   0  0  0  0  0  0  0  0  0  0  0  0
  -22.4510   -9.5410   20.2200 C   0  0  0  0  0  3  0  0  0  0  0  0
  -23.2300  -10.7020   20.0870 C   0  0  0  0  0  3  0  0  0  0  0  0
  -21.9680   -7.4540   21.2260 O   0  0  0  0  0  0  0  0  0  0  0  0
  -21.8200   -6.7150   22.3720 C   0  0  0  0  0  0  0  0  0  0  0  0
  -21.3470   -7.2890   23.5730 C   0  0  0  0  0  3  0  0  0  0  0  0
  -21.1400   -6.4790   24.7070 C   0  0  0  0  0  3  0  0  0  0  0  0
  -21.3980   -5.0960   24.6430 C   0  0  0  0  0  0  0  0  0  0  0  0
  -21.8650   -4.5220   23.4460 C   0  0  0  0  0  3  0  0  0  0  0  0
  -22.0710   -5.3300   22.3140 C   0  0  0  0  0  0  0  0  0  0  0  0
  -22.4990   -4.7680   21.1580 F   0  0  0  0  0  0  0  0  0  0  0  0
  -21.1940   -4.3160   25.7290 F   0  0  0  0  0  0  0  0  0  0  0  0
  -23.3130  -14.0470   20.9340 C   0  0  0  0  0  0  0  0  0  0  0  0
  -22.5010  -13.3920   21.7570 N   0  0  0  0  0  0  0  0  0  0  0  0
  -22.9470  -15.0770   20.3660 O   0  0  0  0  0  0  0  0  0  0  0  0
  -22.8080  -12.5590   22.2370 H   0  0  0  0  0  0  0  0  0  0  0  0
  -21.5610  -13.7280   21.9100 H   0  0  0  0  0  0  0  0  0  0  0  0
  -26.0540  -15.6150   20.3070 N   0  0  0  0  0  0  0  0  0  0  0  0
  -25.3080  -16.3010   20.3560 H   0  0  0  0  0  0  0  0  0  0  0  0
  -26.9420  -16.0150   20.0350 H   0  0  0  0  0  0  0  0  0  0  0  0
  -30.1210  -18.3190   16.5610 C   0  0  0  0  0  0  0  0  0  0  0  0
  -29.0290  -19.0540   15.7900 C   0  0  0  0  0  1  0  0  0  0  0  0
  -30.9450  -17.6510   15.9310 O   0  0  0  0  0  0  0  0  0  0  0  0
  -28.6640  -25.1840   19.6780 C   0  0  0  0  0  2  0  0  0  0  0  0
  -28.4980  -26.5410   20.3120 O   0  0  0  0  0  0  0  0  0  0  0  0
  -24.6540  -31.9380   23.2340 C   0  0  0  0  0  0  0  0  0  0  0  0
  -27.3560  -27.3720   20.2090 C   0  0  0  0  0  0  0  0  0  0  0  0
  -23.4840  -30.5140   21.5900 C   0  0  0  0  0  3  0  0  0  0  0  0
  -24.9690  -28.9760   20.1740 C   0  0  0  0  0  0  0  0  0  0  0  0
  -26.0210  -30.8630   21.4240 C   0  0  0  0  0  2  0  0  0  0  0  0
  -26.1260  -29.4800   20.7790 C   0  0  0  0  0  0  0  0  0  0  0  0
  -27.3180  -28.6880   20.7860 C   0  0  0  0  0  3  0  0  0  0  0  0
  -26.1710  -26.9290   19.5820 C   0  0  0  0  0  3  0  0  0  0  0  0
  -24.9960  -27.7110   19.5650 C   0  0  0  0  0  3  0  0  0  0  0  0
  -23.7180  -29.8350   20.2130 C   0  0  0  0  0  2  0  0  0  0  0  0
  -24.7390  -31.1240   22.1390 N   0  0  0  0  0  0  0  0  0  0  0  0
  -23.5630  -32.2000   23.7610 O   0  0  0  0  0  0  0  0  0  0  0  0
  -22.8300  -29.4930   22.5520 C   0  0  0  0  0  0  0  0  0  0  0  0
  -21.5060  -29.3030   22.4270 N   0  0  0  0  0  0  0  0  0  0  0  0
  -23.5140  -28.8740   23.3710 O   0  0  0  0  0  0  0  0  0  0  0  0
  -21.0120  -29.8580   21.7400 H   0  0  0  0  0  0  0  0  0  0  0  0
  -18.1390  -28.0790   22.9390 C   0  0  0  0  0  0  0  0  0  0  0  0
  -20.6970  -28.3570   23.1970 C   0  0  0  0  0  3  0  0  0  0  0  0
  -20.8060  -26.9280   22.6150 C   0  0  0  0  0  2  0  0  0  0  0  0
  -19.7020  -26.6020   21.6040 C   0  0  0  0  0  2  0  0  0  0  0  0
  -18.3220  -26.7340   22.2550 C   0  0  0  0  0  2  0  0  0  0  0  0
  -19.2540  -28.8470   23.3660 C   0  0  0  0  0  0  0  0  0  0  0  0
  -19.0290  -30.1050   23.9670 C   0  0  0  0  0  3  0  0  0  0  0  0
  -17.7210  -30.5950   24.1420 C   0  0  0  0  0  3  0  0  0  0  0  0
  -16.6200  -29.8240   23.7300 C   0  0  0  0  0  3  0  0  0  0  0  0
  -16.8310  -28.5670   23.1350 C   0  0  0  0  0  3  0  0  0  0  0  0
  -25.9220  -32.5940   23.8620 C   0  0  0  0  0  3  0  0  0  0  0  0
  -26.4430  -31.8370   25.1470 C   0  0  1  0  0  0  0  0  0  0  0  0
  -25.3430  -31.5800   26.2040 C   0  0  0  0  0  1  0  0  0  0  0  0
  -27.0600  -30.4720   24.7660 C   0  0  0  0  0  1  0  0  0  0  0  0
  -27.5670  -32.6600   25.8190 C   0  0  0  0  0  1  0  0  0  0  0  0
  -25.5870  -33.9890   24.1870 N   0  0  0  0  0  0  0  0  0  0  0  0
  -25.9230  -35.0480   23.4390 C   0  0  0  0  0  0  0  0  0  0  0  0
  -26.6160  -34.9550   22.4210 O   0  0  0  0  0  0  0  0  0  0  0  0
  -24.9740  -34.1340   24.9750 H   0  0  0  0  0  0  0  0  0  0  0  0
  -24.1830  -36.8240   23.0500 C   0  0  0  0  0  1  0  0  0  0  0  0
  -25.4100  -36.4300   23.8880 C   0  0  0  0  0  3  0  0  0  0  0  0
  -27.5150  -37.3380   24.7690 C   0  0  0  0  0  1  0  0  0  0  0  0
  -26.4330  -37.4960   23.8020 N   0  0  0  0  0  0  0  0  0  0  0  0
  -26.0110  -38.4100   23.9430 H   0  0  0  0  0  0  0  0  0  0  0  0
  1  2  1  0
  1  6  2  0
  2  7  2  0
  3  4  1  0
  3  5  1  0
  4 56  1  0
  4  1  1  0
  5  2  1  0
  8 11  1  0
 10  8  2  0
 10 13  1  0
 11  5  1  0
 11  9  2  0
 12  9  1  0
 12 23  1  0
 13 12  2  0
 14 13  1  0
 15 23  1  0
 16 21  1  0
 17 18  1  0
 17 16  1  0
 19 18  1  0
 19 28  1  0
 19 20  1  0
 21 15  1  0
 21 20  1  0
 22 15  2  0
 23 24  1  0
 25 26  2  0
 26 27  1  0
 26 45  1  0
 27 30  1  0
 28 25  1  0
 28 29  1  0
 29 27  2  0
 30 31  1  0
 31 32  2  0
 33 36  1  0
 33 32  1  0
 34 33  2  0
 35 34  1  0
 35 30  2  0
 36 37  1  0
 37 38  1  0
 38 39  2  0
 40 39  1  0
 40 44  1  0
 41 40  2  0
 42 37  2  0
 42 41  1  0
 43 42  1  0
 45 46  1  0
 46 49  1  0
 46 48  1  0
 47 45  2  0
 50 51  1  0
 50 25  1  0
 52 50  1  0
 53 10  1  0
 54 53  1  0
 55 53  2  0
 56 57  1  0
 58 69  2  0
 59 57  1  0
 59 64  1  0
 60 68  1  0
 60 70  1  0
 61 67  1  0
 61 63  1  0
 62 68  1  0
 63 64  2  0
 63 62  1  0
 65 59  2  0
 66 65  1  0
 66 61  2  0
 67 60  1  0
 68 58  1  0
 70 72  2  0
 71 70  1  0
 73 71  1  0
 74 83  2  0
 74 79  1  0
 75 71  1  0
 75 79  1  0
 76 75  1  0
 77 78  1  0
 77 76  1  0
 78 74  1  0
 79 80  2  0
 80 81  1  0
 82 81  2  0
 83 82  1  0
 84 58  1  0
 84 89  1  0
 84 85  1  0
 85 88  1  1
 85 86  1  0
 87 85  1  0
 89 92  1  0
 90 94  1  0
 90 89  1  0
 91 90  2  0
 94 93  1  0
 96 94  1  0
 96 97  1  0
 96 95  1  0
M  ISO  4  15 100  23 100  56 101  57 101
M  END
>  <TORSDO>  (54) 
F 19

>  <SCORE>  (54) 
-14.030

>  <name>  (54) 
53

>  <ligand_id>  (54) 
53

>  <original_smiles>  (54) 
[H]c1c([H])c([H])c2c(c1[H])C([H])([H])C([H])([H])C([H])([H])C2([H])N([H])C(=O)C1([H])N(C(=O)C([H])(N([H])C(=O)C([H])(N([H])C([H])([H])[H])C([H])([H])[H])C(C([H])([H])[H])(C([H])([H])[H])C([H])([H])[H])C([H])([H])c2c([H])c(OC([H])([H])C3([H])C(=O)C(=O)N(c4c([H])c(C(=O)C([H])([H])[H])c(F)c(N([H])C(=O)N5C([H])([H])C([H])([H])C([H])([H])C([H])(n6nc(-c7c([H])c([H])c(Oc8c([H])c([H])c(F)c([H])c8F)c([H])c7[H])c(C(=O)N([H])[H])c6N([H])[H])C5([H])[H])c4[H])C3([H])[H])c([H])c([H])c2C1([H])[H]

>  <smiles>  (54) 
[H]c1c([H])c([H])c2c(c1[H])C([H])([H])C([H])([H])C([H])([H])C2([H])N([H])C(=O)C1([H])N(C(=O)C([H])(N([H])C(=O)C([H])(N([H])C([H])([H])[H])C([H])([H])[H])C(C([H])([H])[H])(C([H])([H])[H])C([H])([H])[H])C([H])([H])c2c([H])c(OC([H])([H])C3([H])C(=O)C(=O)N(c4c([H])c(C(=O)C([H])([H])[H])c(F)c(N([H])C(=O)N5C([H])([H])C([H])([H])C([H])([H])C([H])(n6nc(-c7c([H])c([H])c(Oc8c([H])c([H])c(F)c([H])c8F)c([H])c7[H])c(C(=O)N([H])[H])c6N([H])[H])C5([H])[H])c4[H])C3([H])[H])c([H])c([H])c2C1([H])[H]

$$$$
54:0:0
     RDKit          3D

 99108  0  0  1  0  0  0  0  0999 V2000
  -31.9950  -20.2420   21.4150 C   0  0  0  0  0  0  0  0  0  0  0  0
  -32.6550  -21.4330   22.1240 C   0  0  0  0  0  2  0  0  0  0  0  0
  -31.9850  -22.7780   21.8320 C   0  0  0  0  0  2  0  0  0  0  0  0
  -29.9510  -21.6010   21.0000 C   0  0  0  0  0  2  0  0  0  0  0  0
  -30.4730  -22.6450   22.0240 C   0  0  0  0  0  3  0  0  0  0  0  0
  -30.6770  -20.3060   21.0650 N   0  0  0  0  0  0  0  0  0  0  0  0
  -32.7020  -19.2480   21.2160 O   0  0  0  0  0  0  0  0  0  0  0  0
  -29.4020  -19.2510   19.2470 C   0  0  0  0  0  3  0  0  0  0  0  0
  -30.0950  -17.8860   21.1530 C   0  0  0  0  0  3  0  0  0  0  0  0
  -28.8600  -18.1070   18.6290 C   0  0  0  0  0  0  0  0  0  0  0  0
  -30.0450  -19.1480   20.5010 C   0  0  0  0  0  0  0  0  0  0  0  0
  -29.5650  -16.7310   20.5320 C   0  0  0  0  0  0  0  0  0  0  0  0
  -28.9360  -16.8560   19.2700 C   0  0  0  0  0  0  0  0  0  0  0  0
  -28.2170  -18.2100   17.2590 C   0  0  0  0  0  1  0  0  0  0  0  0
  -28.4060  -15.7710   18.6590 F   0  0  0  0  0  0  0  0  0  0  0  0
  -30.4180  -14.4690   20.6850 C   0  0  0  0  0  0  0  0  0  0  0  0
  -30.2320  -12.2880   19.5720 C   0  0  0  0  0  2  0  0  0  0  0  0
  -29.2770  -12.4530   18.3710 C   0  0  0  0  0  2  0  0  0  0  0  0
  -27.8090  -12.2690   18.8070 C   0  0  0  0  0  2  0  0  0  0  0  0
  -27.4440  -13.0860   20.0770 C   0  0  0  0  0  3  0  0  0  0  0  0
  -28.5120  -12.8940   21.1780 C   0  0  0  0  0  2  0  0  0  0  0  0
  -29.8210  -13.2500   20.6060 N   0  0  0  0  0  0  0  0  0  0  0  0
  -31.5420  -14.7020   20.2300 O   0  0  0  0  0  0  0  0  0  0  0  0
  -29.6450  -15.4570   21.1670 N   0  0  0  0  0  0  0  0  0  0  0  0
  -28.7920  -15.1410   21.6020 H   0  0  0  0  0  0  0  0  0  0  0  0
  -25.0370  -13.6140   20.8130 C   0  0  0  0  0  0  0  0  0  0  0  0
  -23.9900  -12.8030   21.1610 C   0  0  0  0  0  0  0  0  0  0  0  0
  -24.4860  -11.4660   21.0790 C   0  0  0  0  0  0  0  0  0  0  0  0
  -26.1020  -12.7660   20.5510 N   0  0  0  0  0  0  0  0  0  0  0  0
  -25.7740  -11.4680   20.7650 N   0  0  0  0  0  0  0  0  0  0  0  0
  -23.7940  -10.1790   21.2300 C   0  0  0  0  0  0  0  0  0  0  0  0
  -24.2680   -9.1890   22.1180 C   0  0  0  0  0  3  0  0  0  0  0  0
  -23.5790   -7.9650   22.2600 C   0  0  0  0  0  3  0  0  0  0  0  0
  -22.4020   -7.7240   21.5120 C   0  0  0  0  0  0  0  0  0  0  0  0
  -21.9470   -8.7030   20.6100 C   0  0  0  0  0  3  0  0  0  0  0  0
  -22.6380   -9.9180   20.4680 C   0  0  0  0  0  3  0  0  0  0  0  0
  -21.6830   -6.5550   21.5660 O   0  0  0  0  0  0  0  0  0  0  0  0
  -21.6840   -5.7590   22.6840 C   0  0  0  0  0  0  0  0  0  0  0  0
  -21.2200   -6.2270   23.9320 C   0  0  0  0  0  3  0  0  0  0  0  0
  -21.1710   -5.3540   25.0370 C   0  0  0  0  0  3  0  0  0  0  0  0
  -21.5770   -4.0140   24.8950 C   0  0  0  0  0  0  0  0  0  0  0  0
  -22.0330   -3.5440   23.6510 C   0  0  0  0  0  3  0  0  0  0  0  0
  -22.0830   -4.4140   22.5480 C   0  0  0  0  0  0  0  0  0  0  0  0
  -22.5030   -3.9510   21.3450 F   0  0  0  0  0  0  0  0  0  0  0  0
  -21.5240   -3.1720   25.9540 F   0  0  0  0  0  0  0  0  0  0  0  0
  -22.5840  -13.2340   21.4630 C   0  0  0  0  0  0  0  0  0  0  0  0
  -21.8800  -12.4820   22.3000 N   0  0  0  0  0  0  0  0  0  0  0  0
  -22.1180  -14.2710   20.9940 O   0  0  0  0  0  0  0  0  0  0  0  0
  -22.2710  -11.6420   22.7020 H   0  0  0  0  0  0  0  0  0  0  0  0
  -20.9360  -12.7490   22.5430 H   0  0  0  0  0  0  0  0  0  0  0  0
  -25.1680  -14.9940   20.6810 N   0  0  0  0  0  0  0  0  0  0  0  0
  -24.3890  -15.6320   20.7980 H   0  0  0  0  0  0  0  0  0  0  0  0
  -26.0080  -15.4550   20.3550 H   0  0  0  0  0  0  0  0  0  0  0  0
  -29.5130  -24.7840   21.0180 C   0  0  0  0  0  0  0  0  0  0  0  0
  -29.7140  -24.4890   23.4560 C   0  0  0  0  0  1  0  0  0  0  0  0
  -29.8330  -23.9870   22.0770 N   0  0  0  0  0  0  0  0  0  0  0  0
  -29.7060  -24.4420   19.8460 O   0  0  0  0  0  0  0  0  0  0  0  0
  -28.8850  -26.1760   21.2920 C   0  0  0  0  0  2  0  0  0  0  0  0
  -28.4720  -26.7980   20.0730 O   0  0  0  0  0  0  0  0  0  0  0  0
  -24.6230  -31.9130   23.2750 C   0  0  0  0  0  0  0  0  0  0  0  0
  -27.3130  -27.5310   20.1540 C   0  0  0  0  0  0  0  0  0  0  0  0
  -23.4300  -30.5090   21.6240 C   0  0  0  0  0  3  0  0  0  0  0  0
  -24.9000  -28.9940   20.1900 C   0  0  0  0  0  0  0  0  0  0  0  0
  -25.9510  -30.8940   21.4310 C   0  0  0  0  0  2  0  0  0  0  0  0
  -26.0500  -29.5270   20.7870 C   0  0  0  0  0  0  0  0  0  0  0  0
  -27.2620  -28.7980   20.7760 C   0  0  0  0  0  3  0  0  0  0  0  0
  -26.1520  -27.0080   19.5540 C   0  0  0  0  0  3  0  0  0  0  0  0
  -24.9420  -27.7290   19.5760 C   0  0  0  0  0  3  0  0  0  0  0  0
  -23.6460  -29.8380   20.2410 C   0  0  0  0  0  2  0  0  0  0  0  0
  -24.6850  -31.1190   22.1680 N   0  0  0  0  0  0  0  0  0  0  0  0
  -23.5400  -32.1710   23.8170 O   0  0  0  0  0  0  0  0  0  0  0  0
  -22.7890  -29.4750   22.5780 C   0  0  0  0  0  0  0  0  0  0  0  0
  -21.4670  -29.2810   22.4500 N   0  0  0  0  0  0  0  0  0  0  0  0
  -23.4800  -28.8520   23.3900 O   0  0  0  0  0  0  0  0  0  0  0  0
  -20.9710  -29.8370   21.7660 H   0  0  0  0  0  0  0  0  0  0  0  0
  -18.1010  -28.0640   22.9470 C   0  0  0  0  0  0  0  0  0  0  0  0
  -20.6580  -28.3310   23.2140 C   0  0  0  0  0  3  0  0  0  0  0  0
  -20.7670  -26.9070   22.6200 C   0  0  0  0  0  2  0  0  0  0  0  0
  -19.6640  -26.5880   21.6080 C   0  0  0  0  0  2  0  0  0  0  0  0
  -18.2840  -26.7210   22.2580 C   0  0  0  0  0  2  0  0  0  0  0  0
  -19.2180  -28.8260   23.3810 C   0  0  0  0  0  0  0  0  0  0  0  0
  -18.9950  -30.0830   23.9830 C   0  0  0  0  0  3  0  0  0  0  0  0
  -17.6880  -30.5770   24.1600 C   0  0  0  0  0  3  0  0  0  0  0  0
  -16.5870  -29.8100   23.7430 C   0  0  0  0  0  3  0  0  0  0  0  0
  -16.7940  -28.5550   23.1420 C   0  0  0  0  0  3  0  0  0  0  0  0
  -25.9050  -32.5510   23.8960 C   0  0  0  0  0  3  0  0  0  0  0  0
  -26.4150  -31.7940   25.1850 C   0  0  1  0  0  0  0  0  0  0  0  0
  -25.3130  -31.5650   26.2450 C   0  0  0  0  0  1  0  0  0  0  0  0
  -27.0040  -30.4140   24.8110 C   0  0  0  0  0  1  0  0  0  0  0  0
  -27.5570  -32.5980   25.8480 C   0  0  0  0  0  1  0  0  0  0  0  0
  -25.5950  -33.9520   24.2040 N   0  0  0  0  0  0  0  0  0  0  0  0
  -25.9250  -34.9920   23.4250 C   0  0  0  0  0  0  0  0  0  0  0  0
  -26.5930  -34.8720   22.3940 O   0  0  0  0  0  0  0  0  0  0  0  0
  -25.0010  -34.1190   25.0030 H   0  0  0  0  0  0  0  0  0  0  0  0
  -24.1950  -36.7770   23.0370 C   0  0  0  0  0  1  0  0  0  0  0  0
  -25.4350  -36.3870   23.8590 C   0  0  0  0  0  3  0  0  0  0  0  0
  -27.5620  -37.2930   24.6870 C   0  0  0  0  0  1  0  0  0  0  0  0
  -26.4670  -37.4390   23.7310 N   0  0  0  0  0  0  0  0  0  0  0  0
  -26.0590  -38.3620   23.8560 H   0  0  0  0  0  0  0  0  0  0  0  0
  1  2  1  0
  3  5  1  0
  3  2  1  0
  4  6  1  0
  4  5  1  0
  5 56  1  0
  6  1  1  0
  7  1  2  0
  8 11  1  0
 10  8  2  0
 10 13  1  0
 11  6  1  0
 11  9  2  0
 12  9  1  0
 12 24  1  0
 13 12  2  0
 14 10  1  0
 15 13  1  0
 16 24  1  0
 17 22  1  0
 18 19  1  0
 18 17  1  0
 20 19  1  0
 20 29  1  0
 20 21  1  0
 22 16  1  0
 22 21  1  0
 23 16  2  0
 24 25  1  0
 26 27  2  0
 27 46  1  0
 28 27  1  0
 28 31  1  0
 29 30  1  0
 29 26  1  0
 30 28  2  0
 31 32  1  0
 32 33  2  0
 34 37  1  0
 34 33  1  0
 35 34  2  0
 36 35  1  0
 36 31  2  0
 37 38  1  0
 38 39  1  0
 39 40  2  0
 41 40  1  0
 41 45  1  0
 42 41  2  0
 43 38  2  0
 43 42  1  0
 44 43  1  0
 46 47  1  0
 47 50  1  0
 47 49  1  0
 48 46  2  0
 51 52  1  0
 51 26  1  0
 53 51  1  0
 54 58  1  0
 54 56  1  0
 56 55  1  0
 57 54  2  0
 59 61  1  0
 59 58  1  0
 60 71  2  0
 61 66  1  0
 62 70  1  0
 62 72  1  0
 63 69  1  0
 63 65  1  0
 64 70  1  0
 65 64  1  0
 66 65  2  0
 67 68  1  0
 67 61  2  0
 68 63  2  0
 69 62  1  0
 70 60  1  0
 72 74  2  0
 73 72  1  0
 75 73  1  0
 76 85  2  0
 76 81  1  0
 77 73  1  0
 77 81  1  0
 78 77  1  0
 79 80  1  0
 79 78  1  0
 80 76  1  0
 81 82  2  0
 82 83  1  0
 84 83  2  0
 85 84  1  0
 86 60  1  0
 86 91  1  0
 86 87  1  0
 87 90  1  1
 87 88  1  0
 89 87  1  0
 91 94  1  0
 92 96  1  0
 92 91  1  0
 93 92  2  0
 96 95  1  0
 98 99  1  0
 98 96  1  0
 98 97  1  0
M  ISO  4  16 100  24 100  58 101  59 101
M  END
>  <TORSDO>  (55) 
F 19

>  <SCORE>  (55) 
-13.243

>  <name>  (55) 
54

>  <ligand_id>  (55) 
54

>  <original_smiles>  (55) 
[H]c1c([H])c([H])c2c(c1[H])C([H])([H])C([H])([H])C([H])([H])C2([H])N([H])C(=O)C1([H])N(C(=O)C([H])(N([H])C(=O)C([H])(N([H])C([H])([H])[H])C([H])([H])[H])C(C([H])([H])[H])(C([H])([H])[H])C([H])([H])[H])C([H])([H])c2c([H])c(OC([H])([H])C(=O)N(C([H])([H])[H])C3([H])C([H])([H])N(c4c([H])c(N([H])C(=O)N5C([H])([H])C([H])([H])C([H])([H])C([H])(n6nc(-c7c([H])c([H])c(Oc8c([H])c([H])c(F)c([H])c8F)c([H])c7[H])c(C(=O)N([H])[H])c6N([H])[H])C5([H])[H])c(F)c(C([H])([H])[H])c4[H])C(=O)C([H])([H])C3([H])[H])c([H])c([H])c2C1([H])[H]

>  <smiles>  (55) 
[H]c1c([H])c([H])c2c(c1[H])C([H])([H])C([H])([H])C([H])([H])C2([H])N([H])C(=O)C1([H])N(C(=O)C([H])(N([H])C(=O)C([H])(N([H])C([H])([H])[H])C([H])([H])[H])C(C([H])([H])[H])(C([H])([H])[H])C([H])([H])[H])C([H])([H])c2c([H])c(OC([H])([H])C(=O)N(C([H])([H])[H])C3([H])C([H])([H])N(c4c([H])c(N([H])C(=O)N5C([H])([H])C([H])([H])C([H])([H])C([H])(n6nc(-c7c([H])c([H])c(Oc8c([H])c([H])c(F)c([H])c8F)c([H])c7[H])c(C(=O)N([H])[H])c6N([H])[H])C5([H])[H])c(F)c(C([H])([H])[H])c4[H])C(=O)C([H])([H])C3([H])[H])c([H])c([H])c2C1([H])[H]

$$$$
55:0:0
     RDKit          3D

 96105  0  0  1  0  0  0  0  0999 V2000
  -29.6750  -21.8540   21.4290 C   0  0  0  0  0  0  0  0  0  0  0  0
  -28.8070  -22.4090   19.3970 C   0  0  0  0  0  2  0  0  0  0  0  0
  -29.4070  -23.3870   21.4830 C   0  0  0  0  0  3  0  0  0  0  0  0
  -28.4990  -23.7090   20.2750 C   0  0  0  0  0  3  0  0  0  0  0  0
  -28.8150  -23.8400   22.8330 C   0  0  0  0  0  1  0  0  0  0  0  0
  -29.3450  -21.2850   20.2470 N   0  0  0  0  0  0  0  0  0  0  0  0
  -30.1420  -21.2500   22.3990 O   0  0  0  0  0  0  0  0  0  0  0  0
  -29.7030  -19.6740   18.3870 C   0  0  0  0  0  3  0  0  0  0  0  0
  -30.2450  -17.2950   18.6480 C   0  0  0  0  0  3  0  0  0  0  0  0
  -29.8990  -18.6930   20.6050 C   0  0  0  0  0  3  0  0  0  0  0  0
  -29.9950  -18.4100   17.8170 C   0  0  0  0  0  0  0  0  0  0  0  0
  -29.6510  -19.8860   19.7870 C   0  0  0  0  0  0  0  0  0  0  0  0
  -30.2090  -17.3750   20.0560 C   0  0  0  0  0  0  0  0  0  0  0  0
  -31.0740  -14.9560   20.5060 C   0  0  0  0  0  0  0  0  0  0  0  0
  -30.8850  -12.6630   19.5420 C   0  0  0  0  0  2  0  0  0  0  0  0
  -30.0060  -12.7540   18.2760 C   0  0  0  0  0  2  0  0  0  0  0  0
  -28.5150  -12.6220   18.6400 C   0  0  0  0  0  2  0  0  0  0  0  0
  -28.1140  -13.5250   19.8360 C   0  0  0  0  0  3  0  0  0  0  0  0
  -29.1160  -13.4130   21.0050 C   0  0  0  0  0  2  0  0  0  0  0  0
  -30.4470  -13.7300   20.4730 N   0  0  0  0  0  0  0  0  0  0  0  0
  -32.2560  -15.0430   20.1590 O   0  0  0  0  0  0  0  0  0  0  0  0
  -30.3290  -16.0910   20.8040 N   0  0  0  0  0  0  0  0  0  0  0  0
  -29.5130  -15.8790   21.3580 H   0  0  0  0  0  0  0  0  0  0  0  0
  -25.7190  -14.1930   20.4540 C   0  0  0  0  0  0  0  0  0  0  0  0
  -24.6130  -13.4560   20.7830 C   0  0  0  0  0  0  0  0  0  0  0  0
  -25.0380  -12.0920   20.7900 C   0  0  0  0  0  0  0  0  0  0  0  0
  -26.7420  -13.2800   20.2680 N   0  0  0  0  0  0  0  0  0  0  0  0
  -26.3380  -12.0120   20.5350 N   0  0  0  0  0  0  0  0  0  0  0  0
  -24.2690  -10.8510   20.9610 C   0  0  0  0  0  0  0  0  0  0  0  0
  -24.6300   -9.8880   21.9290 C   0  0  0  0  0  3  0  0  0  0  0  0
  -23.8640   -8.7140   22.0910 C   0  0  0  0  0  3  0  0  0  0  0  0
  -22.7230   -8.4940   21.2840 C   0  0  0  0  0  0  0  0  0  0  0  0
  -22.3780   -9.4460   20.3080 C   0  0  0  0  0  3  0  0  0  0  0  0
  -23.1440  -10.6120   20.1460 C   0  0  0  0  0  3  0  0  0  0  0  0
  -21.9370   -7.3680   21.3520 O   0  0  0  0  0  0  0  0  0  0  0  0
  -21.8080   -6.6490   22.5130 C   0  0  0  0  0  0  0  0  0  0  0  0
  -21.3410   -7.2380   23.7080 C   0  0  0  0  0  3  0  0  0  0  0  0
  -21.1540   -6.4470   24.8590 C   0  0  0  0  0  3  0  0  0  0  0  0
  -21.4260   -5.0670   24.8160 C   0  0  0  0  0  0  0  0  0  0  0  0
  -21.8860   -4.4760   23.6250 C   0  0  0  0  0  3  0  0  0  0  0  0
  -22.0730   -5.2640   22.4760 C   0  0  0  0  0  0  0  0  0  0  0  0
  -22.4950   -4.6870   21.3250 F   0  0  0  0  0  0  0  0  0  0  0  0
  -21.2400   -4.3060   25.9190 F   0  0  0  0  0  0  0  0  0  0  0  0
  -23.2220  -13.9760   20.9880 C   0  0  0  0  0  0  0  0  0  0  0  0
  -22.4430  -13.3250   21.8450 N   0  0  0  0  0  0  0  0  0  0  0  0
  -22.8300  -14.9960   20.4230 O   0  0  0  0  0  0  0  0  0  0  0  0
  -22.7660  -12.4950   22.3200 H   0  0  0  0  0  0  0  0  0  0  0  0
  -21.5090  -13.6630   22.0250 H   0  0  0  0  0  0  0  0  0  0  0  0
  -25.9370  -15.5560   20.2720 N   0  0  0  0  0  0  0  0  0  0  0  0
  -25.2010  -16.2490   20.3430 H   0  0  0  0  0  0  0  0  0  0  0  0
  -26.8210  -15.9510   19.9740 H   0  0  0  0  0  0  0  0  0  0  0  0
  -29.9630  -18.1900   16.3580 C   0  0  0  0  0  3  0  0  0  0  0  0
  -29.4570  -19.0260   15.4330 C   0  0  0  0  0  3  0  0  0  0  0  0
  -29.4390  -18.7410   13.9440 C   0  0  0  0  0  1  0  0  0  0  0  0
  -28.6360  -25.1860   19.5920 C   0  0  0  0  0  2  0  0  0  0  0  0
  -28.4830  -26.5130   20.2950 O   0  0  0  0  0  0  0  0  0  0  0  0
  -24.6690  -31.9410   23.2400 C   0  0  0  0  0  0  0  0  0  0  0  0
  -27.3490  -27.3570   20.2100 C   0  0  0  0  0  0  0  0  0  0  0  0
  -23.4890  -30.5190   21.6020 C   0  0  0  0  0  3  0  0  0  0  0  0
  -24.9670  -28.9760   20.1850 C   0  0  0  0  0  0  0  0  0  0  0  0
  -26.0310  -30.8510   21.4390 C   0  0  0  0  0  2  0  0  0  0  0  0
  -26.1270  -29.4700   20.7930 C   0  0  0  0  0  0  0  0  0  0  0  0
  -27.3160  -28.6710   20.7940 C   0  0  0  0  0  3  0  0  0  0  0  0
  -26.1600  -26.9250   19.5840 C   0  0  0  0  0  3  0  0  0  0  0  0
  -24.9900  -27.7140   19.5690 C   0  0  0  0  0  3  0  0  0  0  0  0
  -23.7160  -29.8330   20.2290 C   0  0  0  0  0  2  0  0  0  0  0  0
  -24.7470  -31.1240   22.1470 N   0  0  0  0  0  0  0  0  0  0  0  0
  -23.5790  -32.2120   23.7680 O   0  0  0  0  0  0  0  0  0  0  0  0
  -22.8320  -29.5040   22.5690 C   0  0  0  0  0  0  0  0  0  0  0  0
  -21.5100  -29.3030   22.4360 N   0  0  0  0  0  0  0  0  0  0  0  0
  -23.5140  -28.8960   23.3980 O   0  0  0  0  0  0  0  0  0  0  0  0
  -21.0180  -29.8390   21.7330 H   0  0  0  0  0  0  0  0  0  0  0  0
  -18.1500  -28.0550   22.9280 C   0  0  0  0  0  0  0  0  0  0  0  0
  -20.7010  -28.3590   23.2090 C   0  0  0  0  0  3  0  0  0  0  0  0
  -20.8320  -26.9240   22.6460 C   0  0  0  0  0  2  0  0  0  0  0  0
  -19.7420  -26.5760   21.6300 C   0  0  0  0  0  2  0  0  0  0  0  0
  -18.3520  -26.7040   22.2610 C   0  0  0  0  0  2  0  0  0  0  0  0
  -19.2520  -28.8400   23.3580 C   0  0  0  0  0  0  0  0  0  0  0  0
  -19.0070  -30.1040   23.9380 C   0  0  0  0  0  3  0  0  0  0  0  0
  -17.6920  -30.5840   24.0890 C   0  0  0  0  0  3  0  0  0  0  0  0
  -16.6040  -29.7950   23.6780 C   0  0  0  0  0  3  0  0  0  0  0  0
  -16.8330  -28.5310   23.1040 C   0  0  0  0  0  3  0  0  0  0  0  0
  -25.9410  -32.5950   23.8620 C   0  0  0  0  0  3  0  0  0  0  0  0
  -26.4690  -31.8370   25.1430 C   0  0  1  0  0  0  0  0  0  0  0  0
  -25.3710  -31.5660   26.1990 C   0  0  0  0  0  1  0  0  0  0  0  0
  -27.0980  -30.4770   24.7620 C   0  0  0  0  0  1  0  0  0  0  0  0
  -27.5910  -32.6630   25.8150 C   0  0  0  0  0  1  0  0  0  0  0  0
  -25.6100  -33.9910   24.1920 N   0  0  0  0  0  0  0  0  0  0  0  0
  -25.9310  -35.0490   23.4380 C   0  0  0  0  0  0  0  0  0  0  0  0
  -26.6100  -34.9560   22.4110 O   0  0  0  0  0  0  0  0  0  0  0  0
  -25.0160  -34.1390   24.9950 H   0  0  0  0  0  0  0  0  0  0  0  0
  -24.1840  -36.8200   23.0730 C   0  0  0  0  0  1  0  0  0  0  0  0
  -25.4230  -36.4290   23.8940 C   0  0  0  0  0  3  0  0  0  0  0  0
  -27.5370  -37.3400   24.7490 C   0  0  0  0  0  1  0  0  0  0  0  0
  -26.4430  -37.4950   23.7940 N   0  0  0  0  0  0  0  0  0  0  0  0
  -26.0220  -38.4100   23.9390 H   0  0  0  0  0  0  0  0  0  0  0  0
  1  3  1  0
  1  7  2  0
  2  6  1  0
  2  4  1  0
  3  5  1  0
  4 55  1  0
  4  3  1  0
  6  1  1  0
  8 12  1  0
  9 13  2  0
 11  8  2  0
 11  9  1  0
 12  6  1  0
 12 10  2  0
 13 10  1  0
 13 22  1  0
 14 22  1  0
 15 20  1  0
 16 17  1  0
 16 15  1  0
 18 17  1  0
 18 27  1  0
 18 19  1  0
 20 14  1  0
 20 19  1  0
 21 14  2  0
 22 23  1  0
 24 25  2  0
 25 26  1  0
 25 44  1  0
 26 29  1  0
 27 24  1  0
 27 28  1  0
 28 26  2  0
 29 30  1  0
 30 31  2  0
 32 35  1  0
 32 31  1  0
 33 32  2  0
 34 33  1  0
 34 29  2  0
 35 36  1  0
 36 37  1  0
 37 38  2  0
 39 38  1  0
 39 43  1  0
 40 39  2  0
 41 36  2  0
 41 40  1  0
 42 41  1  0
 44 45  1  0
 45 48  1  0
 45 47  1  0
 46 44  2  0
 49 50  1  0
 49 24  1  0
 51 49  1  0
 52 11  1  0
 53 52  2  0
 54 53  1  0
 55 56  1  0
 57 68  2  0
 58 56  1  0
 58 63  1  0
 59 67  1  0
 59 69  1  0
 60 66  1  0
 60 62  1  0
 61 67  1  0
 62 63  2  0
 62 61  1  0
 64 58  2  0
 65 64  1  0
 65 60  2  0
 66 59  1  0
 67 57  1  0
 69 71  2  0
 70 69  1  0
 72 70  1  0
 73 82  2  0
 73 78  1  0
 74 70  1  0
 74 78  1  0
 75 74  1  0
 76 77  1  0
 76 75  1  0
 77 73  1  0
 78 79  2  0
 79 80  1  0
 81 80  2  0
 82 81  1  0
 83 57  1  0
 83 88  1  0
 83 84  1  0
 84 87  1  1
 84 85  1  0
 86 84  1  0
 88 91  1  0
 89 93  1  0
 89 88  1  0
 90 89  2  0
 93 92  1  0
 95 93  1  0
 95 96  1  0
 95 94  1  0
M  ISO  4  14 100  22 100  55 101  56 101
M  END
>  <TORSDO>  (56) 
F 19

>  <SCORE>  (56) 
-13.802

>  <name>  (56) 
55

>  <ligand_id>  (56) 
55

>  <original_smiles>  (56) 
[H]C(=C([H])C([H])([H])[H])c1c([H])c(N([H])C(=O)N2C([H])([H])C([H])([H])C([H])([H])C([H])(n3nc(-c4c([H])c([H])c(Oc5c([H])c([H])c(F)c([H])c5F)c([H])c4[H])c(C(=O)N([H])[H])c3N([H])[H])C2([H])[H])c([H])c(N2C(=O)C([H])(C([H])([H])[H])C([H])(C([H])([H])Oc3c([H])c([H])c4c(c3[H])C([H])([H])N(C(=O)C([H])(N([H])C(=O)C([H])(N([H])C([H])([H])[H])C([H])([H])[H])C(C([H])([H])[H])(C([H])([H])[H])C([H])([H])[H])C([H])(C(=O)N([H])C3([H])c5c([H])c([H])c([H])c([H])c5C([H])([H])C([H])([H])C3([H])[H])C4([H])[H])C2([H])[H])c1[H]

>  <smiles>  (56) 
[H]C(=C([H])C([H])([H])[H])c1c([H])c(N([H])C(=O)N2C([H])([H])C([H])([H])C([H])([H])C([H])(n3nc(-c4c([H])c([H])c(Oc5c([H])c([H])c(F)c([H])c5F)c([H])c4[H])c(C(=O)N([H])[H])c3N([H])[H])C2([H])[H])c([H])c(N2C(=O)C([H])(C([H])([H])[H])C([H])(C([H])([H])Oc3c([H])c([H])c4c(c3[H])C([H])([H])N(C(=O)C([H])(N([H])C(=O)C([H])(N([H])C([H])([H])[H])C([H])([H])[H])C(C([H])([H])[H])(C([H])([H])[H])C([H])([H])[H])C([H])(C(=O)N([H])C3([H])c5c([H])c([H])c([H])c([H])c5C([H])([H])C([H])([H])C3([H])[H])C4([H])[H])C2([H])[H])c1[H]

$$$$
56:0:0
     RDKit          3D

 95104  0  0  1  0  0  0  0  0999 V2000
  -29.7600  -22.8080   21.0720 C   0  0  0  0  0  0  0  0  0  0  0  0
  -28.3070  -22.1550   19.7450 C   0  0  0  0  0  2  0  0  0  0  0  0
  -28.9210  -23.6150   19.9850 C   0  0  2  0  0  0  0  0  0  0  0  0
  -29.8450  -24.1320   18.8780 C   0  0  0  0  0  1  0  0  0  0  0  0
  -29.4130  -21.5480   20.5090 N   0  0  0  0  0  0  0  0  0  0  0  0
  -30.4810  -23.0880   22.0070 O   0  0  0  0  0  0  0  0  0  0  0  0
  -32.1760  -19.0390   20.9590 C   0  0  0  0  0  3  0  0  0  0  0  0
  -31.3610  -20.1650   20.7880 C   0  0  0  0  0  3  0  0  0  0  0  0
  -31.6610  -17.7440   20.8620 C   0  0  0  0  0  3  0  0  0  0  0  0
  -29.4730  -18.7280   20.3660 C   0  0  0  0  0  0  0  0  0  0  0  0
  -29.9690  -20.1300   20.5190 C   0  0  0  0  0  0  0  0  0  0  0  0
  -30.3080  -17.5060   20.5440 C   0  0  0  0  0  0  0  0  0  0  0  0
  -30.5990  -14.8690   20.2100 C   0  0  0  0  0  0  0  0  0  0  0  0
  -30.3440  -12.6030   19.1620 C   0  0  0  0  0  2  0  0  0  0  0  0
  -29.3660  -12.6760   17.9690 C   0  0  0  0  0  2  0  0  0  0  0  0
  -27.9170  -12.4800   18.4510 C   0  0  0  0  0  2  0  0  0  0  0  0
  -27.5780  -13.3460   19.6930 C   0  0  0  0  0  3  0  0  0  0  0  0
  -28.6780  -13.2760   20.7740 C   0  0  0  0  0  2  0  0  0  0  0  0
  -29.9430  -13.6550   20.1320 N   0  0  0  0  0  0  0  0  0  0  0  0
  -31.7770  -14.9080   19.8430 O   0  0  0  0  0  0  0  0  0  0  0  0
  -29.8810  -16.0510   20.4640 N   0  0  0  0  0  0  0  0  0  0  0  0
  -28.8950  -15.8930   20.6130 H   0  0  0  0  0  0  0  0  0  0  0  0
  -25.2170  -13.8920   20.5250 C   0  0  0  0  0  0  0  0  0  0  0  0
  -24.1690  -13.1000   20.9090 C   0  0  0  0  0  0  0  0  0  0  0  0
  -24.6410  -11.7550   20.8280 C   0  0  0  0  0  0  0  0  0  0  0  0
  -26.2580  -13.0300   20.2300 N   0  0  0  0  0  0  0  0  0  0  0  0
  -25.9230  -11.7360   20.4760 N   0  0  0  0  0  0  0  0  0  0  0  0
  -23.9290  -10.4820   21.0100 C   0  0  0  0  0  0  0  0  0  0  0  0
  -24.3790   -9.5060   21.9250 C   0  0  0  0  0  3  0  0  0  0  0  0
  -23.6630   -8.3010   22.0970 C   0  0  0  0  0  3  0  0  0  0  0  0
  -22.4840   -8.0640   21.3520 C   0  0  0  0  0  0  0  0  0  0  0  0
  -22.0520   -9.0290   20.4270 C   0  0  0  0  0  3  0  0  0  0  0  0
  -22.7670  -10.2260   20.2530 C   0  0  0  0  0  3  0  0  0  0  0  0
  -21.7390   -6.9120   21.4340 O   0  0  0  0  0  0  0  0  0  0  0  0
  -21.7000   -6.1600   22.5800 C   0  0  0  0  0  0  0  0  0  0  0  0
  -21.2470   -6.6940   23.8070 C   0  0  0  0  0  3  0  0  0  0  0  0
  -21.1570   -5.8660   24.9430 C   0  0  0  0  0  3  0  0  0  0  0  0
  -21.5110   -4.5060   24.8560 C   0  0  0  0  0  0  0  0  0  0  0  0
  -21.9560   -3.9720   23.6340 C   0  0  0  0  0  3  0  0  0  0  0  0
  -22.0470   -4.7970   22.4990 C   0  0  0  0  0  0  0  0  0  0  0  0
  -22.4570   -4.2710   21.3190 F   0  0  0  0  0  0  0  0  0  0  0  0
  -21.4170   -3.7090   25.9460 F   0  0  0  0  0  0  0  0  0  0  0  0
  -22.7810  -13.5610   21.2410 C   0  0  0  0  0  0  0  0  0  0  0  0
  -22.0910  -12.8430   22.1190 N   0  0  0  0  0  0  0  0  0  0  0  0
  -22.3180  -14.5940   20.7590 O   0  0  0  0  0  0  0  0  0  0  0  0
  -22.4800  -12.0090   22.5330 H   0  0  0  0  0  0  0  0  0  0  0  0
  -21.1600  -13.1330   22.3850 H   0  0  0  0  0  0  0  0  0  0  0  0
  -25.3570  -15.2680   20.3870 N   0  0  0  0  0  0  0  0  0  0  0  0
  -24.5870  -15.8990   20.5810 H   0  0  0  0  0  0  0  0  0  0  0  0
  -26.2190  -15.7650   20.1920 H   0  0  0  0  0  0  0  0  0  0  0  0
  -28.0320  -18.4900   20.0810 C   0  0  0  0  0  0  0  0  0  0  0  0
  -27.4260  -19.1730   18.8630 C   0  0  0  0  0  1  0  0  0  0  0  0
  -27.3390  -17.6860   20.7130 O   0  0  0  0  0  0  0  0  0  0  0  0
  -28.0350  -24.8940   20.5060 C   0  0  0  0  0  2  0  0  0  0  0  0
  -28.3070  -26.3640   20.1880 O   0  0  0  0  0  0  0  0  0  0  0  0
  -24.6220  -31.8890   23.2420 C   0  0  0  0  0  0  0  0  0  0  0  0
  -27.2240  -27.2880   20.1590 C   0  0  0  0  0  0  0  0  0  0  0  0
  -23.4250  -30.5030   21.5910 C   0  0  0  0  0  3  0  0  0  0  0  0
  -24.8770  -28.9620   20.1500 C   0  0  0  0  0  0  0  0  0  0  0  0
  -25.9700  -30.8050   21.4200 C   0  0  0  0  0  2  0  0  0  0  0  0
  -26.0510  -29.4260   20.7590 C   0  0  0  0  0  0  0  0  0  0  0  0
  -27.2270  -28.6020   20.7500 C   0  0  0  0  0  3  0  0  0  0  0  0
  -26.0330  -26.9120   19.5000 C   0  0  0  0  0  3  0  0  0  0  0  0
  -24.8760  -27.7160   19.5050 C   0  0  0  0  0  3  0  0  0  0  0  0
  -23.6420  -29.8420   20.2050 C   0  0  0  0  0  2  0  0  0  0  0  0
  -24.6930  -31.0840   22.1410 N   0  0  0  0  0  0  0  0  0  0  0  0
  -23.5370  -32.1620   23.7750 O   0  0  0  0  0  0  0  0  0  0  0  0
  -22.7570  -29.4800   22.5430 C   0  0  0  0  0  0  0  0  0  0  0  0
  -21.4310  -29.3000   22.4110 N   0  0  0  0  0  0  0  0  0  0  0  0
  -23.4340  -28.8530   23.3620 O   0  0  0  0  0  0  0  0  0  0  0  0
  -20.9440  -29.8590   21.7250 H   0  0  0  0  0  0  0  0  0  0  0  0
  -18.0550  -28.0900   22.9040 C   0  0  0  0  0  0  0  0  0  0  0  0
  -20.6140  -28.3540   23.1730 C   0  0  0  0  0  3  0  0  0  0  0  0
  -20.7170  -26.9280   22.5840 C   0  0  0  0  0  2  0  0  0  0  0  0
  -19.6140  -26.6120   21.5690 C   0  0  0  0  0  2  0  0  0  0  0  0
  -18.2330  -26.7480   22.2160 C   0  0  0  0  0  2  0  0  0  0  0  0
  -19.1720  -28.8510   23.3400 C   0  0  0  0  0  0  0  0  0  0  0  0
  -18.9520  -30.1060   23.9480 C   0  0  0  0  0  3  0  0  0  0  0  0
  -17.6460  -30.6020   24.1210 C   0  0  0  0  0  3  0  0  0  0  0  0
  -16.5430  -29.8380   23.7010 C   0  0  0  0  0  3  0  0  0  0  0  0
  -16.7480  -28.5840   23.0990 C   0  0  0  0  0  3  0  0  0  0  0  0
  -25.9000  -32.5230   23.8720 C   0  0  0  0  0  3  0  0  0  0  0  0
  -26.4040  -31.7550   25.1570 C   0  0  1  0  0  0  0  0  0  0  0  0
  -25.3010  -31.5260   26.2150 C   0  0  0  0  0  1  0  0  0  0  0  0
  -26.9860  -30.3740   24.7800 C   0  0  0  0  0  1  0  0  0  0  0  0
  -27.5510  -32.5500   25.8250 C   0  0  0  0  0  1  0  0  0  0  0  0
  -25.5910  -33.9230   24.1970 N   0  0  0  0  0  0  0  0  0  0  0  0
  -25.9350  -34.9740   23.4400 C   0  0  0  0  0  0  0  0  0  0  0  0
  -26.6160  -34.8660   22.4160 O   0  0  0  0  0  0  0  0  0  0  0  0
  -24.9890  -34.0820   24.9910 H   0  0  0  0  0  0  0  0  0  0  0  0
  -24.2290  -36.7840   23.0610 C   0  0  0  0  0  1  0  0  0  0  0  0
  -25.4530  -36.3660   23.8930 C   0  0  0  0  0  3  0  0  0  0  0  0
  -27.5760  -37.2350   24.7680 C   0  0  0  0  0  1  0  0  0  0  0  0
  -26.4970  -37.4100   23.8000 N   0  0  0  0  0  0  0  0  0  0  0  0
  -26.0940  -38.3340   23.9400 H   0  0  0  0  0  0  0  0  0  0  0  0
  1  6  2  0
  2  3  1  0
  2  5  1  0
  3  4  1  6
  3 54  1  0
  3  1  1  0
  5 11  1  0
  5  1  1  0
  8  7  2  0
  9  7  1  0
 10 11  2  0
 10 12  1  0
 11  8  1  0
 12  9  2  0
 13 21  1  0
 14 19  1  0
 15 16  1  0
 15 14  1  0
 17 16  1  0
 17 26  1  0
 17 18  1  0
 19 13  1  0
 19 18  1  0
 20 13  2  0
 21 12  1  0
 21 22  1  0
 23 24  2  0
 24 43  1  0
 25 24  1  0
 25 28  1  0
 26 27  1  0
 26 23  1  0
 27 25  2  0
 28 29  1  0
 29 30  2  0
 31 34  1  0
 31 30  1  0
 32 31  2  0
 33 32  1  0
 33 28  2  0
 34 35  1  0
 35 36  1  0
 36 37  2  0
 38 37  1  0
 38 42  1  0
 39 38  2  0
 40 35  2  0
 40 39  1  0
 41 40  1  0
 43 44  1  0
 44 47  1  0
 44 46  1  0
 45 43  2  0
 48 23  1  0
 48 49  1  0
 50 48  1  0
 51 10  1  0
 51 53  2  0
 52 51  1  0
 55 54  1  0
 56 67  2  0
 57 55  1  0
 57 62  1  0
 58 66  1  0
 58 68  1  0
 59 65  1  0
 59 61  1  0
 60 66  1  0
 61 60  1  0
 62 61  2  0
 63 64  1  0
 63 57  2  0
 64 59  2  0
 65 58  1  0
 66 56  1  0
 68 70  2  0
 69 68  1  0
 71 69  1  0
 72 81  2  0
 72 77  1  0
 73 69  1  0
 73 77  1  0
 74 73  1  0
 75 76  1  0
 75 74  1  0
 76 72  1  0
 77 78  2  0
 78 79  1  0
 80 79  2  0
 81 80  1  0
 82 56  1  0
 82 87  1  0
 82 83  1  0
 83 86  1  1
 83 84  1  0
 85 83  1  0
 87 90  1  0
 88 92  1  0
 88 87  1  0
 89 88  2  0
 92 91  1  0
 94 92  1  0
 94 95  1  0
 94 93  1  0
M  ISO  4  13 100  21 100  54 101  55 101
M  END
>  <TORSDO>  (57) 
F 19

>  <SCORE>  (57) 
-14.976

>  <name>  (57) 
56

>  <ligand_id>  (57) 
56

>  <original_smiles>  (57) 
[H]c1c([H])c(N([H])C(=O)N2C([H])([H])C([H])([H])C([H])([H])C([H])(n3nc(-c4c([H])c([H])c(Oc5c([H])c([H])c(F)c([H])c5F)c([H])c4[H])c(C(=O)N([H])[H])c3N([H])[H])C2([H])[H])c(C(=O)C([H])([H])[H])c(N2C(=O)C(C([H])([H])[H])(C([H])([H])Oc3c([H])c([H])c4c(c3[H])C([H])([H])N(C(=O)C([H])(N([H])C(=O)C([H])(N([H])C([H])([H])[H])C([H])([H])[H])C(C([H])([H])[H])(C([H])([H])[H])C([H])([H])[H])C([H])(C(=O)N([H])C3([H])c5c([H])c([H])c([H])c([H])c5C([H])([H])C([H])([H])C3([H])[H])C4([H])[H])C2([H])[H])c1[H]

>  <smiles>  (57) 
[H]c1c([H])c(N([H])C(=O)N2C([H])([H])C([H])([H])C([H])([H])C([H])(n3nc(-c4c([H])c([H])c(Oc5c([H])c([H])c(F)c([H])c5F)c([H])c4[H])c(C(=O)N([H])[H])c3N([H])[H])C2([H])[H])c(C(=O)C([H])([H])[H])c(N2C(=O)C(C([H])([H])[H])(C([H])([H])Oc3c([H])c([H])c4c(c3[H])C([H])([H])N(C(=O)C([H])(N([H])C(=O)C([H])(N([H])C([H])([H])[H])C([H])([H])[H])C(C([H])([H])[H])(C([H])([H])[H])C([H])([H])[H])C([H])(C(=O)N([H])C3([H])c5c([H])c([H])c([H])c([H])c5C([H])([H])C([H])([H])C3([H])[H])C4([H])[H])C2([H])[H])c1[H]

$$$$
57:0:0
     RDKit          3D

 97106  0  0  1  0  0  0  0  0999 V2000
  -28.5500  -23.0030   18.7550 C   0  0  0  0  0  0  0  0  0  0  0  0
  -28.7190  -23.8820   20.8610 C   0  0  0  0  0  2  0  0  0  0  0  0
  -27.8250  -24.9270   20.0730 C   0  0  0  0  0  3  0  0  0  0  0  0
  -27.5680  -24.1780   18.7050 C   0  0  1  0  0  0  0  0  0  0  0  0
  -27.8720  -25.0280   17.4620 C   0  0  0  0  0  1  0  0  0  0  0  0
  -28.8530  -22.6670   20.0120 N   0  0  0  0  0  0  0  0  0  0  0  0
  -28.9690  -22.4290   17.7390 O   0  0  0  0  0  0  0  0  0  0  0  0
  -29.0670  -18.8400   20.0460 C   0  0  0  0  0  3  0  0  0  0  0  0
  -28.5970  -20.1680   19.8280 C   0  0  0  0  0  3  0  0  0  0  0  0
  -30.2670  -21.0430   21.3180 C   0  0  0  0  0  3  0  0  0  0  0  0
  -30.1810  -18.5690   20.8790 C   0  0  0  0  0  0  0  0  0  0  0  0
  -30.7400  -19.7160   21.5630 C   0  0  0  0  0  0  0  0  0  0  0  0
  -29.2310  -21.3070   20.4020 C   0  0  0  0  0  0  0  0  0  0  0  0
  -31.9010  -19.6460   22.5400 C   0  0  0  0  0  1  0  0  0  0  0  0
  -30.8310  -14.7660   20.4240 C   0  0  0  0  0  0  0  0  0  0  0  0
  -30.4590  -12.5380   19.3790 C   0  0  0  0  0  2  0  0  0  0  0  0
  -29.5470  -12.6780   18.1490 C   0  0  0  0  0  2  0  0  0  0  0  0
  -28.0720  -12.5360   18.5640 C   0  0  0  0  0  2  0  0  0  0  0  0
  -27.7050  -13.4000   19.8010 C   0  0  0  0  0  3  0  0  0  0  0  0
  -28.7700  -13.3180   20.9220 C   0  0  0  0  0  2  0  0  0  0  0  0
  -30.0780  -13.6150   20.3270 N   0  0  0  0  0  0  0  0  0  0  0  0
  -31.9970  -14.7160   20.0390 O   0  0  0  0  0  0  0  0  0  0  0  0
  -30.9020  -17.2020   20.8050 C   0  0  0  0  0  0  0  0  0  0  0  0
  -30.2460  -15.9790   20.7520 N   0  0  0  0  0  0  0  0  0  0  0  0
  -32.1340  -17.2940   20.7690 O   0  0  0  0  0  0  0  0  0  0  0  0
  -29.2580  -15.9870   20.9380 H   0  0  0  0  0  0  0  0  0  0  0  0
  -25.3140  -13.9660   20.5370 C   0  0  0  0  0  0  0  0  0  0  0  0
  -24.2500  -13.1870   20.8990 C   0  0  0  0  0  0  0  0  0  0  0  0
  -24.7140  -11.8360   20.8560 C   0  0  0  0  0  0  0  0  0  0  0  0
  -26.3620  -13.0930   20.2950 N   0  0  0  0  0  0  0  0  0  0  0  0
  -26.0070  -11.8050   20.5470 N   0  0  0  0  0  0  0  0  0  0  0  0
  -23.9840  -10.5730   21.0370 C   0  0  0  0  0  0  0  0  0  0  0  0
  -24.4010   -9.6050   21.9770 C   0  0  0  0  0  3  0  0  0  0  0  0
  -23.6700   -8.4090   22.1460 C   0  0  0  0  0  3  0  0  0  0  0  0
  -22.5090   -8.1720   21.3730 C   0  0  0  0  0  0  0  0  0  0  0  0
  -22.1120   -9.1280   20.4200 C   0  0  0  0  0  3  0  0  0  0  0  0
  -22.8440  -10.3140   20.2480 C   0  0  0  0  0  3  0  0  0  0  0  0
  -21.7520   -7.0270   21.4470 O   0  0  0  0  0  0  0  0  0  0  0  0
  -21.6550   -6.3020   22.6080 C   0  0  0  0  0  0  0  0  0  0  0  0
  -21.1510   -6.8660   23.8000 C   0  0  0  0  0  3  0  0  0  0  0  0
  -21.0030   -6.0650   24.9510 C   0  0  0  0  0  3  0  0  0  0  0  0
  -21.3520   -4.7020   24.9100 C   0  0  0  0  0  0  0  0  0  0  0  0
  -21.8490   -4.1370   23.7230 C   0  0  0  0  0  3  0  0  0  0  0  0
  -21.9980   -4.9340   22.5740 C   0  0  0  0  0  0  0  0  0  0  0  0
  -22.4570   -4.3800   21.4270 F   0  0  0  0  0  0  0  0  0  0  0  0
  -21.2030   -3.9300   26.0140 F   0  0  0  0  0  0  0  0  0  0  0  0
  -22.8530  -13.6640   21.1760 C   0  0  0  0  0  0  0  0  0  0  0  0
  -22.1240  -12.9600   22.0320 N   0  0  0  0  0  0  0  0  0  0  0  0
  -22.4180  -14.6940   20.6640 O   0  0  0  0  0  0  0  0  0  0  0  0
  -22.4900  -12.1280   22.4710 H   0  0  0  0  0  0  0  0  0  0  0  0
  -21.1840  -13.2580   22.2470 H   0  0  0  0  0  0  0  0  0  0  0  0
  -25.4790  -15.3380   20.3660 N   0  0  0  0  0  0  0  0  0  0  0  0
  -24.7130  -15.9960   20.4680 H   0  0  0  0  0  0  0  0  0  0  0  0
  -26.3320  -15.7810   20.0470 H   0  0  0  0  0  0  0  0  0  0  0  0
  -25.6840  -22.6530   17.7960 C   0  0  0  0  0  2  0  0  0  0  0  0
  -26.1390  -23.5940   18.6480 C   0  0  0  0  0  3  0  0  0  0  0  0
  -28.1940  -26.3960   20.0690 O   0  0  0  0  0  0  0  0  0  0  0  0
  -24.6510  -31.9290   23.2300 C   0  0  0  0  0  0  0  0  0  0  0  0
  -27.1400  -27.3370   20.0700 C   0  0  0  0  0  0  0  0  0  0  0  0
  -23.4150  -30.5430   21.6140 C   0  0  0  0  0  3  0  0  0  0  0  0
  -24.8160  -29.0140   20.1440 C   0  0  0  0  0  0  0  0  0  0  0  0
  -25.9600  -30.8380   21.3860 C   0  0  0  0  0  2  0  0  0  0  0  0
  -26.0140  -29.4680   20.7130 C   0  0  0  0  0  0  0  0  0  0  0  0
  -27.1870  -28.6450   20.6620 C   0  0  0  0  0  3  0  0  0  0  0  0
  -25.9120  -26.9680   19.4830 C   0  0  0  0  0  3  0  0  0  0  0  0
  -24.7690  -27.7670   19.5250 C   0  0  0  0  0  3  0  0  0  0  0  0
  -23.5930  -29.8970   20.2220 C   0  0  0  0  0  2  0  0  0  0  0  0
  -24.6960  -31.1250   22.1280 N   0  0  0  0  0  0  0  0  0  0  0  0
  -23.5770  -32.2040   23.7840 O   0  0  0  0  0  0  0  0  0  0  0  0
  -22.7780  -29.5100   22.5760 C   0  0  0  0  0  0  0  0  0  0  0  0
  -21.4550  -29.3020   22.4470 N   0  0  0  0  0  0  0  0  0  0  0  0
  -23.4680  -28.9050   23.4000 O   0  0  0  0  0  0  0  0  0  0  0  0
  -20.9570  -29.8420   21.7540 H   0  0  0  0  0  0  0  0  0  0  0  0
  -18.1020  -28.0550   22.9720 C   0  0  0  0  0  0  0  0  0  0  0  0
  -20.6560  -28.3590   23.2310 C   0  0  0  0  0  3  0  0  0  0  0  0
  -20.7800  -26.9250   22.6640 C   0  0  0  0  0  2  0  0  0  0  0  0
  -19.6780  -26.5740   21.6590 C   0  0  0  0  0  2  0  0  0  0  0  0
  -18.2960  -26.7040   22.3030 C   0  0  0  0  0  2  0  0  0  0  0  0
  -19.2080  -28.8380   23.3910 C   0  0  0  0  0  0  0  0  0  0  0  0
  -18.9680  -30.1030   23.9720 C   0  0  0  0  0  3  0  0  0  0  0  0
  -17.6540  -30.5800   24.1430 C   0  0  0  0  0  3  0  0  0  0  0  0
  -16.5620  -29.7940   23.7370 C   0  0  0  0  0  3  0  0  0  0  0  0
  -16.7870  -28.5330   23.1550 C   0  0  0  0  0  3  0  0  0  0  0  0
  -25.9440  -32.5590   23.8330 C   0  0  0  0  0  3  0  0  0  0  0  0
  -25.6400  -33.9550   24.1820 N   0  0  0  0  0  0  0  0  0  0  0  0
  -25.9340  -35.0130   23.4170 C   0  0  0  0  0  0  0  0  0  0  0  0
  -26.5690  -34.9210   22.3620 O   0  0  0  0  0  0  0  0  0  0  0  0
  -25.0880  -34.1070   25.0120 H   0  0  0  0  0  0  0  0  0  0  0  0
  -24.1860  -36.7940   23.1140 C   0  0  0  0  0  1  0  0  0  0  0  0
  -25.4470  -36.3940   23.8970 C   0  0  0  0  0  3  0  0  0  0  0  0
  -27.5870  -37.2830   24.7040 C   0  0  0  0  0  1  0  0  0  0  0  0
  -26.4720  -37.4510   23.7750 N   0  0  0  0  0  0  0  0  0  0  0  0
  -26.0660  -38.3720   23.9250 H   0  0  0  0  0  0  0  0  0  0  0  0
  -26.4850  -31.7790   25.0920 C   0  0  1  0  0  0  0  0  0  0  0  0
  -25.4100  -31.5290   26.1720 C   0  0  0  0  0  1  0  0  0  0  0  0
  -27.0670  -30.4060   24.6810 C   0  0  0  0  0  1  0  0  0  0  0  0
  -27.6460  -32.5720   25.7380 C   0  0  0  0  0  1  0  0  0  0  0  0
  1  6  1  0
  3 57  1  0
  3  2  1  0
  4  5  1  6
  4  1  1  0
  4  3  1  0
  6 13  1  0
  6  2  1  0
  7  1  2  0
  8 11  1  0
  9  8  2  0
  9 13  1  0
 10 12  1  0
 11 12  2  0
 12 14  1  0
 13 10  2  0
 15 24  1  0
 16 21  1  0
 17 18  1  0
 17 16  1  0
 19 18  1  0
 19 30  1  0
 19 20  1  0
 21 15  1  0
 21 20  1  0
 22 15  2  0
 23 11  1  0
 24 23  1  0
 24 26  1  0
 25 23  2  0
 27 28  2  0
 28 47  1  0
 29 28  1  0
 29 32  1  0
 30 27  1  0
 30 31  1  0
 31 29  2  0
 32 33  1  0
 33 34  2  0
 35 38  1  0
 35 34  1  0
 36 35  2  0
 37 36  1  0
 37 32  2  0
 38 39  1  0
 39 40  1  0
 40 41  2  0
 42 41  1  0
 42 46  1  0
 43 42  2  0
 44 39  2  0
 44 43  1  0
 45 44  1  0
 47 48  1  0
 48 51  1  0
 48 50  1  0
 49 47  2  0
 52 53  1  0
 52 27  1  0
 54 52  1  0
 55 56  2  0
 56  4  1  0
 57 59  1  0
 58 69  2  0
 59 64  1  0
 60 68  1  0
 60 70  1  0
 61 67  1  0
 61 63  1  0
 62 68  1  0
 63 62  1  0
 64 63  2  0
 65 66  1  0
 65 59  2  0
 66 61  2  0
 67 60  1  0
 68 58  1  0
 70 72  2  0
 71 70  1  0
 73 71  1  0
 74 83  2  0
 74 79  1  0
 75 71  1  0
 75 79  1  0
 76 75  1  0
 77 78  1  0
 77 76  1  0
 78 74  1  0
 79 80  2  0
 80 81  1  0
 82 81  2  0
 83 82  1  0
 84 58  1  0
 84 85  1  0
 84 94  1  0
 85 88  1  0
 86 90  1  0
 86 85  1  0
 87 86  2  0
 90 89  1  0
 92 90  1  0
 92 93  1  0
 92 91  1  0
 94 97  1  1
 94 95  1  0
 96 94  1  0
M  ISO  4   3 101  15 100  24 100  57 101
M  END
>  <TORSDO>  (58) 
F 18

>  <SCORE>  (58) 
-15.233

>  <name>  (58) 
57

>  <ligand_id>  (58) 
57

>  <original_smiles>  (58) 
[H]C([H])=C([H])C1(C([H])([H])[H])C(=O)N(c2c([H])c([H])c(C(=O)N([H])C(=O)N3C([H])([H])C([H])([H])C([H])([H])C([H])(n4nc(-c5c([H])c([H])c(Oc6c([H])c([H])c(F)c([H])c6F)c([H])c5[H])c(C(=O)N([H])[H])c4N([H])[H])C3([H])[H])c(C([H])([H])[H])c2[H])C([H])([H])C1([H])Oc1c([H])c([H])c2c(c1[H])C([H])([H])N(C(=O)C([H])(N([H])C(=O)C([H])(N([H])C([H])([H])[H])C([H])([H])[H])C(C([H])([H])[H])(C([H])([H])[H])C([H])([H])[H])C([H])(C(=O)N([H])C1([H])c3c([H])c([H])c([H])c([H])c3C([H])([H])C([H])([H])C1([H])[H])C2([H])[H]

>  <smiles>  (58) 
[H]C([H])=C([H])C1(C([H])([H])[H])C(=O)N(c2c([H])c([H])c(C(=O)N([H])C(=O)N3C([H])([H])C([H])([H])C([H])([H])C([H])(n4nc(-c5c([H])c([H])c(Oc6c([H])c([H])c(F)c([H])c6F)c([H])c5[H])c(C(=O)N([H])[H])c4N([H])[H])C3([H])[H])c(C([H])([H])[H])c2[H])C([H])([H])C1([H])Oc1c([H])c([H])c2c(c1[H])C([H])([H])N(C(=O)C([H])(N([H])C(=O)C([H])(N([H])C([H])([H])[H])C([H])([H])[H])C(C([H])([H])[H])(C([H])([H])[H])C([H])([H])[H])C([H])(C(=O)N([H])C1([H])c3c([H])c([H])c([H])c([H])c3C([H])([H])C([H])([H])C1([H])[H])C2([H])[H]

$$$$
58:0:0
     RDKit          3D

 93101  0  0  1  0  0  0  0  0999 V2000
  -28.7570  -22.5950   20.2960 C   0  0  0  0  0  0  0  0  0  0  0  0
  -29.1180  -21.3810   19.7140 N   0  0  0  0  0  0  0  0  0  0  0  0
  -28.5110  -22.6460   21.5030 O   0  0  0  0  0  0  0  0  0  0  0  0
  -29.0950  -21.3710   18.7030 H   0  0  0  0  0  0  0  0  0  0  0  0
  -30.3960  -20.2450   21.5350 C   0  0  0  0  0  3  0  0  0  0  0  0
  -30.8600  -17.8360   21.6010 C   0  0  0  0  0  3  0  0  0  0  0  0
  -29.5150  -18.7860   19.8060 C   0  0  0  0  0  3  0  0  0  0  0  0
  -30.9950  -19.1280   22.1640 C   0  0  0  0  0  0  0  0  0  0  0  0
  -29.6400  -20.1350   20.3450 C   0  0  0  0  0  0  0  0  0  0  0  0
  -30.1250  -17.6090   20.4160 C   0  0  0  0  0  0  0  0  0  0  0  0
  -30.7530  -15.1090   19.8670 C   0  0  0  0  0  0  0  0  0  0  0  0
  -30.5970  -12.8010   18.8940 C   0  0  0  0  0  2  0  0  0  0  0  0
  -29.5610  -12.7750   17.7480 C   0  0  0  0  0  2  0  0  0  0  0  0
  -28.1400  -12.5400   18.2980 C   0  0  0  0  0  2  0  0  0  0  0  0
  -27.8120  -13.4540   19.5080 C   0  0  0  0  0  3  0  0  0  0  0  0
  -28.9540  -13.4560   20.5460 C   0  0  0  0  0  2  0  0  0  0  0  0
  -30.1780  -13.8580   19.8400 N   0  0  0  0  0  0  0  0  0  0  0  0
  -31.9230  -15.2560   19.5040 O   0  0  0  0  0  0  0  0  0  0  0  0
  -29.9010  -16.2010   19.9930 N   0  0  0  0  0  0  0  0  0  0  0  0
  -28.9290  -15.9470   19.9150 H   0  0  0  0  0  0  0  0  0  0  0  0
  -25.5110  -13.9860   20.5100 C   0  0  0  0  0  0  0  0  0  0  0  0
  -24.4860  -13.1830   20.9350 C   0  0  0  0  0  0  0  0  0  0  0  0
  -24.9420  -11.8410   20.7670 C   0  0  0  0  0  0  0  0  0  0  0  0
  -26.5230  -13.1280   20.1110 N   0  0  0  0  0  0  0  0  0  0  0  0
  -26.1940  -11.8280   20.3270 N   0  0  0  0  0  0  0  0  0  0  0  0
  -24.2350  -10.5640   20.9420 C   0  0  0  0  0  0  0  0  0  0  0  0
  -24.6210   -9.6350   21.9330 C   0  0  0  0  0  3  0  0  0  0  0  0
  -23.9130   -8.4250   22.0940 C   0  0  0  0  0  3  0  0  0  0  0  0
  -22.8050   -8.1340   21.2610 C   0  0  0  0  0  0  0  0  0  0  0  0
  -22.4380   -9.0540   20.2630 C   0  0  0  0  0  3  0  0  0  0  0  0
  -23.1490  -10.2550   20.1010 C   0  0  0  0  0  3  0  0  0  0  0  0
  -22.0750   -6.9720   21.3280 O   0  0  0  0  0  0  0  0  0  0  0  0
  -21.8090   -6.3560   22.5240 C   0  0  0  0  0  0  0  0  0  0  0  0
  -21.0490   -6.9870   23.5340 C   0  0  0  0  0  3  0  0  0  0  0  0
  -20.7420   -6.2910   24.7210 C   0  0  0  0  0  3  0  0  0  0  0  0
  -21.1810   -4.9650   24.8950 C   0  0  0  0  0  0  0  0  0  0  0  0
  -21.9350   -4.3340   23.8890 C   0  0  0  0  0  3  0  0  0  0  0  0
  -22.2430   -5.0270   22.7050 C   0  0  0  0  0  0  0  0  0  0  0  0
  -22.9500   -4.4080   21.7300 F   0  0  0  0  0  0  0  0  0  0  0  0
  -20.8790   -4.2940   26.0320 F   0  0  0  0  0  0  0  0  0  0  0  0
  -23.1230  -13.6370   21.3740 C   0  0  0  0  0  0  0  0  0  0  0  0
  -22.4700  -12.8690   22.2410 N   0  0  0  0  0  0  0  0  0  0  0  0
  -22.6500  -14.7040   20.9880 O   0  0  0  0  0  0  0  0  0  0  0  0
  -22.8680  -12.0070   22.5790 H   0  0  0  0  0  0  0  0  0  0  0  0
  -21.5600  -13.1540   22.5730 H   0  0  0  0  0  0  0  0  0  0  0  0
  -25.6540  -15.3660   20.4040 N   0  0  0  0  0  0  0  0  0  0  0  0
  -24.8920  -15.9970   20.6230 H   0  0  0  0  0  0  0  0  0  0  0  0
  -26.4440  -15.8320   19.9770 H   0  0  0  0  0  0  0  0  0  0  0  0
  -31.6800  -20.3530   24.2530 C   0  0  0  0  0  2  0  0  0  0  0  0
  -31.7220  -19.2810   23.4400 C   0  0  0  0  0  3  0  0  0  0  0  0
  -28.6090  -23.9660   19.4780 C   0  0  0  0  0  3  0  0  0  0  0  0
  -27.8670  -25.2350   20.1660 C   0  0  0  0  0  3  0  0  0  0  0  0
  -28.0150  -26.6550   19.6890 O   0  0  0  0  0  0  0  0  0  0  0  0
  -24.4760  -31.9790   23.1450 C   0  0  0  0  0  0  0  0  0  0  0  0
  -26.9060  -27.5260   19.7770 C   0  0  0  0  0  0  0  0  0  0  0  0
  -23.1790  -30.6460   21.5190 C   0  0  0  0  0  3  0  0  0  0  0  0
  -24.5460  -29.1490   19.9560 C   0  0  0  0  0  0  0  0  0  0  0  0
  -25.7040  -30.9710   21.2030 C   0  0  0  0  0  2  0  0  0  0  0  0
  -25.7500  -29.6160   20.5000 C   0  0  0  0  0  0  0  0  0  0  0  0
  -26.9350  -28.8210   20.3910 C   0  0  0  0  0  3  0  0  0  0  0  0
  -25.6810  -27.1220   19.2090 C   0  0  0  0  0  3  0  0  0  0  0  0
  -24.5150  -27.9080   19.3000 C   0  0  0  0  0  3  0  0  0  0  0  0
  -23.3140  -30.0210   20.1050 C   0  0  0  0  0  2  0  0  0  0  0  0
  -24.4760  -31.2170   22.0130 N   0  0  0  0  0  0  0  0  0  0  0  0
  -23.4260  -32.2360   23.7520 O   0  0  0  0  0  0  0  0  0  0  0  0
  -22.5680  -29.5960   22.4780 C   0  0  0  0  0  0  0  0  0  0  0  0
  -21.2430  -29.3900   22.3880 N   0  0  0  0  0  0  0  0  0  0  0  0
  -23.2850  -28.9660   23.2610 O   0  0  0  0  0  0  0  0  0  0  0  0
  -20.7220  -29.9510   21.7280 H   0  0  0  0  0  0  0  0  0  0  0  0
  -17.9170  -28.0730   22.9320 C   0  0  0  0  0  0  0  0  0  0  0  0
  -20.4700  -28.4160   23.1630 C   0  0  0  0  0  3  0  0  0  0  0  0
  -20.6090  -26.9960   22.5670 C   0  0  0  0  0  2  0  0  0  0  0  0
  -19.5010  -26.6480   21.5690 C   0  0  0  0  0  2  0  0  0  0  0  0
  -18.1260  -26.7380   22.2370 C   0  0  0  0  0  2  0  0  0  0  0  0
  -19.0170  -28.8680   23.3530 C   0  0  0  0  0  0  0  0  0  0  0  0
  -18.7630  -30.1160   23.9630 C   0  0  0  0  0  3  0  0  0  0  0  0
  -17.4450  -30.5670   24.1600 C   0  0  0  0  0  3  0  0  0  0  0  0
  -16.3610  -29.7680   23.7550 C   0  0  0  0  0  3  0  0  0  0  0  0
  -16.5980  -28.5240   23.1450 C   0  0  0  0  0  3  0  0  0  0  0  0
  -25.7930  -32.5880   23.7180 C   0  0  0  0  0  3  0  0  0  0  0  0
  -26.3790  -31.7670   24.9340 C   0  0  1  0  0  0  0  0  0  0  0  0
  -25.3440  -31.4800   26.0450 C   0  0  0  0  0  1  0  0  0  0  0  0
  -26.9480  -30.4110   24.4560 C   0  0  0  0  0  1  0  0  0  0  0  0
  -27.5590  -32.5430   25.5680 C   0  0  0  0  0  1  0  0  0  0  0  0
  -25.5080  -33.9720   24.1210 N   0  0  0  0  0  0  0  0  0  0  0  0
  -25.8060  -35.0550   23.3910 C   0  0  0  0  0  0  0  0  0  0  0  0
  -26.4230  -34.9930   22.3230 O   0  0  0  0  0  0  0  0  0  0  0  0
  -24.9570  -34.0930   24.9580 H   0  0  0  0  0  0  0  0  0  0  0  0
  -24.0830  -36.8760   23.1830 C   0  0  0  0  0  1  0  0  0  0  0  0
  -25.3490  -36.4240   23.9280 C   0  0  0  0  0  3  0  0  0  0  0  0
  -27.5110  -37.2640   24.7350 C   0  0  0  0  0  1  0  0  0  0  0  0
  -26.3870  -37.4730   23.8270 N   0  0  0  0  0  0  0  0  0  0  0  0
  -25.9910  -38.3880   24.0210 H   0  0  0  0  0  0  0  0  0  0  0  0
  1  3  2  0
  2  1  1  0
  2  9  1  0
  4  2  1  0
  5  8  1  0
  6  8  2  0
  7  9  1  0
  7 10  2  0
  8 50  1  0
  9  5  2  0
 10  6  1  0
 11 19  1  0
 12 17  1  0
 13 14  1  0
 13 12  1  0
 15 14  1  0
 15 24  1  0
 15 16  1  0
 17 11  1  0
 17 16  1  0
 18 11  2  0
 19 10  1  0
 20 19  1  0
 21 22  2  0
 22 41  1  0
 23 22  1  0
 23 26  1  0
 24 25  1  0
 24 21  1  0
 25 23  2  0
 26 27  1  0
 27 28  2  0
 29 32  1  0
 29 28  1  0
 30 29  2  0
 31 30  1  0
 31 26  2  0
 32 33  1  0
 33 38  2  0
 33 34  1  0
 34 35  2  0
 35 36  1  0
 36 40  1  0
 37 36  2  0
 38 37  1  0
 39 38  1  0
 41 42  1  0
 42 45  1  0
 42 44  1  0
 43 41  2  0
 46 21  1  0
 46 47  1  0
 48 46  1  0
 50 49  2  0
 51 52  2  0
 51  1  1  0
 53 55  1  0
 53 52  1  0
 54 65  2  0
 55 60  1  0
 56 64  1  0
 56 66  1  0
 57 63  1  0
 57 59  1  0
 58 64  1  0
 59 58  1  0
 60 59  2  0
 61 62  1  0
 61 55  2  0
 62 57  2  0
 63 56  1  0
 64 54  1  0
 66 68  2  0
 67 66  1  0
 69 67  1  0
 70 79  2  0
 70 75  1  0
 71 67  1  0
 71 75  1  0
 72 71  1  0
 73 74  1  0
 73 72  1  0
 74 70  1  0
 75 76  2  0
 76 77  1  0
 78 77  2  0
 79 78  1  0
 80 54  1  0
 80 85  1  0
 80 81  1  0
 81 84  1  1
 81 82  1  0
 83 81  1  0
 85 88  1  0
 86 90  1  0
 86 85  1  0
 87 86  2  0
 90 89  1  0
 92 90  1  0
 92 93  1  0
 92 91  1  0
M  ISO  4  11 100  19 100  52 101  53 101
M  END
>  <TORSDO>  (59) 
F 20

>  <SCORE>  (59) 
-12.778

>  <name>  (59) 
58

>  <ligand_id>  (59) 
58

>  <original_smiles>  (59) 
[H]C([H])=C([H])c1c([H])c(N([H])C(=O)N2C([H])([H])C([H])([H])C([H])([H])C([H])(n3nc(-c4c([H])c([H])c(Oc5c([H])c([H])c(F)c([H])c5F)c([H])c4[H])c(C(=O)N([H])[H])c3N([H])[H])C2([H])[H])c([H])c(N([H])C(=O)C([H])([H])C([H])([H])Oc2c([H])c([H])c3c(c2[H])C([H])([H])N(C(=O)C([H])(N([H])C(=O)C([H])(N([H])C([H])([H])[H])C([H])([H])[H])C(C([H])([H])[H])(C([H])([H])[H])C([H])([H])[H])C([H])(C(=O)N([H])C2([H])c4c([H])c([H])c([H])c([H])c4C([H])([H])C([H])([H])C2([H])[H])C3([H])[H])c1[H]

>  <smiles>  (59) 
[H]C([H])=C([H])c1c([H])c(N([H])C(=O)N2C([H])([H])C([H])([H])C([H])([H])C([H])(n3nc(-c4c([H])c([H])c(Oc5c([H])c([H])c(F)c([H])c5F)c([H])c4[H])c(C(=O)N([H])[H])c3N([H])[H])C2([H])[H])c([H])c(N([H])C(=O)C([H])([H])C([H])([H])Oc2c([H])c([H])c3c(c2[H])C([H])([H])N(C(=O)C([H])(N([H])C(=O)C([H])(N([H])C([H])([H])[H])C([H])([H])[H])C(C([H])([H])[H])(C([H])([H])[H])C([H])([H])[H])C([H])(C(=O)N([H])C2([H])c4c([H])c([H])c([H])c([H])c4C([H])([H])C([H])([H])C2([H])[H])C3([H])[H])c1[H]

$$$$
59:0:0
     RDKit          3D

 99107  0  0  1  0  0  0  0  0999 V2000
  -28.1890  -21.3520   20.2260 C   0  0  0  0  0  0  0  0  0  0  0  0
  -27.9680  -23.9370   20.2620 C   0  0  0  0  0  0  0  0  0  0  0  0
  -28.6790  -22.6310   20.4550 N   0  0  0  0  0  0  0  0  0  0  0  0
  -26.8890  -21.2540   19.9010 N   0  0  0  0  0  4  0  0  0  0  0  0
  -26.8880  -23.9580   19.6660 O   0  0  0  0  0  0  0  0  0  0  0  0
  -29.5910  -22.5910   20.8890 H   0  0  0  0  0  0  0  0  0  0  0  0
  -26.4320  -20.3560   19.8500 H   0  0  0  0  0  0  0  0  0  0  0  0
  -26.3710  -22.0980   19.6990 H   0  0  0  0  0  0  0  0  0  0  0  0
  -28.4070  -18.9370   19.5010 C   0  0  0  0  0  3  0  0  0  0  0  0
  -30.4280  -18.2350   21.2670 C   0  0  0  0  0  3  0  0  0  0  0  0
  -28.9200  -19.9960   20.3090 C   0  0  0  0  0  0  0  0  0  0  0  0
  -30.0050  -19.6160   21.1710 C   0  0  0  0  0  0  0  0  0  0  0  0
  -29.8060  -17.1770   20.5340 C   0  0  0  0  0  0  0  0  0  0  0  0
  -28.8050  -17.5830   19.6240 C   0  0  0  0  0  0  0  0  0  0  0  0
  -28.1530  -16.6460   18.8950 F   0  0  0  0  0  0  0  0  0  0  0  0
  -30.7030  -14.7550   20.2860 C   0  0  0  0  0  0  0  0  0  0  0  0
  -30.4910  -12.5200   19.1950 C   0  0  0  0  0  2  0  0  0  0  0  0
  -29.5190  -12.6480   18.0000 C   0  0  0  0  0  2  0  0  0  0  0  0
  -28.0570  -12.4730   18.4570 C   0  0  0  0  0  2  0  0  0  0  0  0
  -27.7210  -13.3250   19.7080 C   0  0  0  0  0  3  0  0  0  0  0  0
  -28.8020  -13.1650   20.8020 C   0  0  0  0  0  2  0  0  0  0  0  0
  -30.1010  -13.5230   20.2070 N   0  0  0  0  0  0  0  0  0  0  0  0
  -31.8290  -14.9530   19.8210 O   0  0  0  0  0  0  0  0  0  0  0  0
  -29.9460  -15.7500   20.8450 N   0  0  0  0  0  0  0  0  0  0  0  0
  -29.0910  -15.3550   21.2020 H   0  0  0  0  0  0  0  0  0  0  0  0
  -25.3460  -13.9240   20.4860 C   0  0  0  0  0  0  0  0  0  0  0  0
  -24.2880  -13.1470   20.8750 C   0  0  0  0  0  0  0  0  0  0  0  0
  -24.7480  -11.7950   20.8160 C   0  0  0  0  0  0  0  0  0  0  0  0
  -26.3830  -13.0410   20.2170 N   0  0  0  0  0  0  0  0  0  0  0  0
  -26.0300  -11.7580   20.4780 N   0  0  0  0  0  0  0  0  0  0  0  0
  -24.0240  -10.5310   21.0080 C   0  0  0  0  0  0  0  0  0  0  0  0
  -24.4660   -9.5630   21.9380 C   0  0  0  0  0  3  0  0  0  0  0  0
  -23.7460   -8.3630   22.1150 C   0  0  0  0  0  3  0  0  0  0  0  0
  -22.5680   -8.1230   21.3670 C   0  0  0  0  0  0  0  0  0  0  0  0
  -22.1480   -9.0800   20.4260 C   0  0  0  0  0  3  0  0  0  0  0  0
  -22.8690  -10.2720   20.2450 C   0  0  0  0  0  3  0  0  0  0  0  0
  -21.8150   -6.9790   21.4570 O   0  0  0  0  0  0  0  0  0  0  0  0
  -21.7560   -6.2470   22.6150 C   0  0  0  0  0  0  0  0  0  0  0  0
  -21.2870   -6.8030   23.8260 C   0  0  0  0  0  3  0  0  0  0  0  0
  -21.1750   -5.9960   24.9750 C   0  0  0  0  0  3  0  0  0  0  0  0
  -21.5230   -4.6330   24.9160 C   0  0  0  0  0  0  0  0  0  0  0  0
  -21.9850   -4.0760   23.7110 C   0  0  0  0  0  3  0  0  0  0  0  0
  -22.0980   -4.8810   22.5630 C   0  0  0  0  0  0  0  0  0  0  0  0
  -22.5240   -4.3340   21.3990 F   0  0  0  0  0  0  0  0  0  0  0  0
  -21.4080   -3.8550   26.0180 F   0  0  0  0  0  0  0  0  0  0  0  0
  -22.8970  -13.6210   21.1840 C   0  0  0  0  0  0  0  0  0  0  0  0
  -22.1860  -12.9100   22.0530 N   0  0  0  0  0  0  0  0  0  0  0  0
  -22.4490  -14.6560   20.6890 O   0  0  0  0  0  0  0  0  0  0  0  0
  -22.5590  -12.0710   22.4740 H   0  0  0  0  0  0  0  0  0  0  0  0
  -21.2540  -13.2090   22.3020 H   0  0  0  0  0  0  0  0  0  0  0  0
  -25.5120  -15.2950   20.3140 N   0  0  0  0  0  0  0  0  0  0  0  0
  -24.7390  -15.9440   20.4140 H   0  0  0  0  0  0  0  0  0  0  0  0
  -26.3230  -15.7090   19.8710 H   0  0  0  0  0  0  0  0  0  0  0  0
  -32.0910  -20.5830   21.9330 C   0  0  0  0  0  1  0  0  0  0  0  0
  -30.6300  -20.5940   21.9660 N   0  0  0  0  0  0  0  0  0  0  0  0
  -30.2730  -20.6180   22.9230 H   0  0  0  0  0  0  0  0  0  0  0  0
  -28.0770  -25.4240   22.3620 C   0  0  0  0  0  1  0  0  0  0  0  0
  -28.5470  -25.2710   20.9060 C   0  0  0  0  0  3  0  0  0  0  0  0
  -28.4010  -26.5640   20.1640 O   0  0  0  0  0  0  0  0  0  0  0  0
  -24.6020  -31.9190   23.2460 C   0  0  0  0  0  0  0  0  0  0  0  0
  -27.2580  -27.3760   20.2160 C   0  0  0  0  0  0  0  0  0  0  0  0
  -23.4190  -30.5230   21.5890 C   0  0  0  0  0  3  0  0  0  0  0  0
  -24.8890  -28.9790   20.1800 C   0  0  0  0  0  0  0  0  0  0  0  0
  -25.9570  -30.8540   21.4300 C   0  0  0  0  0  2  0  0  0  0  0  0
  -26.0490  -29.4720   20.7920 C   0  0  0  0  0  0  0  0  0  0  0  0
  -27.2360  -28.6800   20.8030 C   0  0  0  0  0  3  0  0  0  0  0  0
  -26.0870  -26.9490   19.5620 C   0  0  0  0  0  3  0  0  0  0  0  0
  -24.9100  -27.7220   19.5590 C   0  0  0  0  0  3  0  0  0  0  0  0
  -23.6510  -29.8520   20.2100 C   0  0  0  0  0  2  0  0  0  0  0  0
  -24.6770  -31.1180   22.1440 N   0  0  0  0  0  0  0  0  0  0  0  0
  -23.5120  -32.1900   23.7720 O   0  0  0  0  0  0  0  0  0  0  0  0
  -22.7560  -29.4960   22.5400 C   0  0  0  0  0  0  0  0  0  0  0  0
  -21.4290  -29.3190   22.4120 N   0  0  0  0  0  0  0  0  0  0  0  0
  -23.4360  -28.8600   23.3500 O   0  0  0  0  0  0  0  0  0  0  0  0
  -20.9380  -29.8910   21.7390 H   0  0  0  0  0  0  0  0  0  0  0  0
  -18.0490  -28.1380   22.9160 C   0  0  0  0  0  0  0  0  0  0  0  0
  -20.6110  -28.3710   23.1720 C   0  0  0  0  0  3  0  0  0  0  0  0
  -20.6940  -26.9470   22.5730 C   0  0  0  0  0  2  0  0  0  0  0  0
  -19.5840  -26.6520   21.5610 C   0  0  0  0  0  2  0  0  0  0  0  0
  -18.2080  -26.7970   22.2190 C   0  0  0  0  0  2  0  0  0  0  0  0
  -19.1760  -28.8830   23.3510 C   0  0  0  0  0  0  0  0  0  0  0  0
  -18.9730  -30.1360   23.9640 C   0  0  0  0  0  3  0  0  0  0  0  0
  -17.6740  -30.6460   24.1490 C   0  0  0  0  0  3  0  0  0  0  0  0
  -16.5600  -29.8960   23.7330 C   0  0  0  0  0  3  0  0  0  0  0  0
  -16.7480  -28.6440   23.1200 C   0  0  0  0  0  3  0  0  0  0  0  0
  -25.8760  -32.5560   23.8820 C   0  0  0  0  0  3  0  0  0  0  0  0
  -26.3730  -31.7920   25.1700 C   0  0  1  0  0  0  0  0  0  0  0  0
  -25.2650  -31.5660   26.2240 C   0  0  0  0  0  1  0  0  0  0  0  0
  -26.9620  -30.4100   24.7930 C   0  0  0  0  0  1  0  0  0  0  0  0
  -27.5120  -32.5930   25.8440 C   0  0  0  0  0  1  0  0  0  0  0  0
  -25.5640  -33.9570   24.1980 N   0  0  0  0  0  0  0  0  0  0  0  0
  -25.9030  -35.0040   23.4350 C   0  0  0  0  0  0  0  0  0  0  0  0
  -26.5820  -34.8940   22.4110 O   0  0  0  0  0  0  0  0  0  0  0  0
  -24.9660  -34.1190   24.9940 H   0  0  0  0  0  0  0  0  0  0  0  0
  -24.1880  -36.7980   23.0430 C   0  0  0  0  0  1  0  0  0  0  0  0
  -25.4120  -36.3950   23.8790 C   0  0  0  0  0  3  0  0  0  0  0  0
  -27.5320  -37.2840   24.7410 C   0  0  0  0  0  1  0  0  0  0  0  0
  -26.4490  -37.4440   23.7750 N   0  0  0  0  0  0  0  0  0  0  0  0
  -26.0440  -38.3680   23.9010 H   0  0  0  0  0  0  0  0  0  0  0  0
  1 11  1  0
  1  3  1  0
  2  3  1  0
  2 58  1  0
  3  6  1  0
  4  1  2  0
  5  2  2  0
  7  4  1  0
  8  4  1  0
  9 14  2  0
  9 11  1  0
 11 12  2  0
 12 10  1  0
 12 55  1  0
 13 24  1  0
 13 10  2  0
 14 13  1  0
 15 14  1  0
 16 24  1  0
 17 22  1  0
 18 19  1  0
 18 17  1  0
 20 19  1  0
 20 29  1  0
 20 21  1  0
 22 16  1  0
 22 21  1  0
 23 16  2  0
 24 25  1  0
 26 27  2  0
 27 46  1  0
 28 27  1  0
 28 31  1  0
 29 30  1  0
 29 26  1  0
 30 28  2  0
 31 32  1  0
 32 33  2  0
 34 37  1  0
 34 33  1  0
 35 34  2  0
 36 35  1  0
 36 31  2  0
 37 38  1  0
 38 39  1  0
 39 40  2  0
 41 40  1  0
 41 45  1  0
 42 41  2  0
 43 38  2  0
 43 42  1  0
 44 43  1  0
 46 47  1  0
 47 50  1  0
 47 49  1  0
 48 46  2  0
 51 52  1  0
 51 26  1  0
 53 51  1  0
 54 55  1  0
 55 56  1  0
 58 57  1  0
 59 61  1  0
 59 58  1  0
 60 71  2  0
 61 66  1  0
 62 70  1  0
 62 72  1  0
 63 69  1  0
 63 65  1  0
 64 70  1  0
 65 66  2  0
 65 64  1  0
 67 61  2  0
 68 67  1  0
 68 63  2  0
 69 62  1  0
 70 60  1  0
 72 74  2  0
 73 72  1  0
 75 73  1  0
 76 85  2  0
 76 81  1  0
 77 73  1  0
 77 81  1  0
 78 77  1  0
 79 80  1  0
 79 78  1  0
 80 76  1  0
 81 82  2  0
 82 83  1  0
 84 83  2  0
 85 84  1  0
 86 60  1  0
 86 91  1  0
 86 87  1  0
 87 90  1  1
 87 88  1  0
 89 87  1  0
 91 94  1  0
 92 96  1  0
 92 91  1  0
 93 92  2  0
 96 95  1  0
 98 96  1  0
 98 99  1  0
 98 97  1  0
M  ISO  4  16 100  24 100  58 101  59 101
M  END
>  <TORSDO>  (60) 
F 19

>  <SCORE>  (60) 
-14.890

>  <name>  (60) 
59

>  <ligand_id>  (60) 
59

>  <original_smiles>  (60) 
[H]c1c([H])c([H])c2c(c1[H])C([H])([H])C([H])([H])C([H])([H])C2([H])N([H])C(=O)C1([H])N(C(=O)C([H])(N([H])C(=O)C([H])(N([H])C([H])([H])[H])C([H])([H])[H])C(C([H])([H])[H])(C([H])([H])[H])C([H])([H])[H])C([H])([H])c2c([H])c(OC([H])(C(=O)N([H])C(c3c([H])c(F)c(N([H])C(=O)N4C([H])([H])C([H])([H])C([H])([H])C([H])(n5nc(-c6c([H])c([H])c(Oc7c([H])c([H])c(F)c([H])c7F)c([H])c6[H])c(C(=O)N([H])[H])c5N([H])[H])C4([H])[H])c([H])c3N([H])C([H])([H])[H])=[N+]([H])[H])C([H])([H])[H])c([H])c([H])c2C1([H])[H]

>  <smiles>  (60) 
[H]c1c([H])c([H])c2c(c1[H])C([H])([H])C([H])([H])C([H])([H])C2([H])N([H])C(=O)C1([H])N(C(=O)C([H])(N([H])C(=O)C([H])(N([H])C([H])([H])[H])C([H])([H])[H])C(C([H])([H])[H])(C([H])([H])[H])C([H])([H])[H])C([H])([H])c2c([H])c(OC([H])(C(=O)N([H])C(c3c([H])c(F)c(N([H])C(=O)N4C([H])([H])C([H])([H])C([H])([H])C([H])(n5nc(-c6c([H])c([H])c(Oc7c([H])c([H])c(F)c([H])c7F)c([H])c6[H])c(C(=O)N([H])[H])c5N([H])[H])C4([H])[H])c([H])c3N([H])C([H])([H])[H])=[N+]([H])[H])C([H])([H])[H])c([H])c([H])c2C1([H])[H]

$$$$
60:0:0
     RDKit          3D

 95104  0  0  1  0  0  0  0  0999 V2000
  -29.3870  -23.3710   21.8780 C   0  0  0  0  0  0  0  0  0  0  0  0
  -29.6270  -22.0140   19.3630 C   0  0  0  0  0  0  0  0  0  0  0  0
  -29.9040  -23.7830   23.0480 C   0  0  0  0  0  2  0  0  0  0  0  0
  -28.8970  -21.9360   21.6770 C   0  0  0  0  0  2  0  0  0  0  0  0
  -29.0950  -23.4740   19.3560 C   0  0  0  0  0  2  0  0  0  0  0  0
  -29.3100  -24.2970   20.6620 C   0  0  0  0  0  3  0  0  0  0  0  0
  -29.5030  -21.2820   20.5040 N   0  0  0  0  0  0  0  0  0  0  0  0
  -30.1200  -21.5640   18.3230 O   0  0  0  0  0  0  0  0  0  0  0  0
  -28.5560  -19.0130   20.6420 C   0  0  0  0  0  3  0  0  0  0  0  0
  -28.6750  -17.6070   20.7110 C   0  0  0  0  0  3  0  0  0  0  0  0
  -31.0850  -17.7950   20.6040 C   0  0  0  0  0  3  0  0  0  0  0  0
  -30.9730  -19.2150   20.5510 C   0  0  0  0  0  0  0  0  0  0  0  0
  -29.6950  -19.8460   20.5480 C   0  0  0  0  0  0  0  0  0  0  0  0
  -29.9360  -16.9670   20.6800 C   0  0  0  0  0  0  0  0  0  0  0  0
  -32.2470  -20.0430   20.5370 C   0  0  0  0  0  1  0  0  0  0  0  0
  -30.6980  -14.5810   20.1800 C   0  0  0  0  0  0  0  0  0  0  0  0
  -30.4210  -12.4290   18.9850 C   0  0  0  0  0  2  0  0  0  0  0  0
  -29.4150  -12.6420   17.8320 C   0  0  0  0  0  2  0  0  0  0  0  0
  -27.9620  -12.4770   18.3210 C   0  0  0  0  0  2  0  0  0  0  0  0
  -27.6750  -13.2750   19.6210 C   0  0  0  0  0  3  0  0  0  0  0  0
  -28.7790  -13.0150   20.6690 C   0  0  0  0  0  2  0  0  0  0  0  0
  -30.0750  -13.3720   20.0620 N   0  0  0  0  0  0  0  0  0  0  0  0
  -31.8030  -14.8100   19.6770 O   0  0  0  0  0  0  0  0  0  0  0  0
  -29.9480  -15.5310   20.7910 N   0  0  0  0  0  0  0  0  0  0  0  0
  -29.1050  -15.1410   21.1810 H   0  0  0  0  0  0  0  0  0  0  0  0
  -25.3080  -13.8640   20.4420 C   0  0  0  0  0  0  0  0  0  0  0  0
  -24.2570  -13.0840   20.8440 C   0  0  0  0  0  0  0  0  0  0  0  0
  -24.7180  -11.7340   20.7670 C   0  0  0  0  0  0  0  0  0  0  0  0
  -26.3430  -12.9900   20.1500 N   0  0  0  0  0  0  0  0  0  0  0  0
  -25.9930  -11.7030   20.4020 N   0  0  0  0  0  0  0  0  0  0  0  0
  -24.0030  -10.4660   20.9660 C   0  0  0  0  0  0  0  0  0  0  0  0
  -24.4500   -9.5060   21.8990 C   0  0  0  0  0  3  0  0  0  0  0  0
  -23.7370   -8.3010   22.0840 C   0  0  0  0  0  3  0  0  0  0  0  0
  -22.5620   -8.0500   21.3360 C   0  0  0  0  0  0  0  0  0  0  0  0
  -22.1340   -9.0010   20.3930 C   0  0  0  0  0  3  0  0  0  0  0  0
  -22.8470  -10.1960   20.2060 C   0  0  0  0  0  3  0  0  0  0  0  0
  -21.8210   -6.8980   21.4310 O   0  0  0  0  0  0  0  0  0  0  0  0
  -21.7440   -6.1840   22.6000 C   0  0  0  0  0  0  0  0  0  0  0  0
  -21.2660   -6.7620   23.7960 C   0  0  0  0  0  3  0  0  0  0  0  0
  -21.1390   -5.9760   24.9570 C   0  0  0  0  0  3  0  0  0  0  0  0
  -21.4800   -4.6090   24.9240 C   0  0  0  0  0  0  0  0  0  0  0  0
  -21.9500   -4.0310   23.7320 C   0  0  0  0  0  3  0  0  0  0  0  0
  -22.0790   -4.8160   22.5730 C   0  0  0  0  0  0  0  0  0  0  0  0
  -22.5150   -4.2480   21.4220 F   0  0  0  0  0  0  0  0  0  0  0  0
  -21.3500   -3.8500   26.0350 F   0  0  0  0  0  0  0  0  0  0  0  0
  -22.8710  -13.5530   21.1840 C   0  0  0  0  0  0  0  0  0  0  0  0
  -22.1800  -12.8390   22.0660 N   0  0  0  0  0  0  0  0  0  0  0  0
  -22.4110  -14.5880   20.7030 O   0  0  0  0  0  0  0  0  0  0  0  0
  -22.5660  -12.0010   22.4780 H   0  0  0  0  0  0  0  0  0  0  0  0
  -21.2530  -13.1360   22.3330 H   0  0  0  0  0  0  0  0  0  0  0  0
  -25.4620  -15.2370   20.2790 N   0  0  0  0  0  0  0  0  0  0  0  0
  -24.6920  -15.8830   20.4130 H   0  0  0  0  0  0  0  0  0  0  0  0
  -26.2730  -15.6700   19.8570 H   0  0  0  0  0  0  0  0  0  0  0  0
  -28.2390  -25.4200   20.8830 C   0  0  0  0  0  2  0  0  0  0  0  0
  -28.3820  -26.6330   20.1070 O   0  0  0  0  0  0  0  0  0  0  0  0
  -24.5790  -31.8510   23.1980 C   0  0  0  0  0  0  0  0  0  0  0  0
  -27.2430  -27.4200   20.0970 C   0  0  0  0  0  0  0  0  0  0  0  0
  -23.3850  -30.4610   21.5410 C   0  0  0  0  0  3  0  0  0  0  0  0
  -24.8500  -28.9400   20.1060 C   0  0  0  0  0  0  0  0  0  0  0  0
  -25.9140  -30.8230   21.3580 C   0  0  0  0  0  2  0  0  0  0  0  0
  -26.0080  -29.4560   20.7030 C   0  0  0  0  0  0  0  0  0  0  0  0
  -27.2100  -28.7070   20.6910 C   0  0  0  0  0  3  0  0  0  0  0  0
  -26.0710  -26.9280   19.4850 C   0  0  0  0  0  3  0  0  0  0  0  0
  -24.8790  -27.6750   19.4920 C   0  0  0  0  0  3  0  0  0  0  0  0
  -23.6020  -29.7940   20.1560 C   0  0  0  0  0  2  0  0  0  0  0  0
  -24.6440  -31.0590   22.0910 N   0  0  0  0  0  0  0  0  0  0  0  0
  -23.4940  -32.1170   23.7360 O   0  0  0  0  0  0  0  0  0  0  0  0
  -22.7300  -29.4300   22.4890 C   0  0  0  0  0  0  0  0  0  0  0  0
  -21.4030  -29.2620   22.3680 N   0  0  0  0  0  0  0  0  0  0  0  0
  -23.4130  -28.7870   23.2910 O   0  0  0  0  0  0  0  0  0  0  0  0
  -20.9130  -29.8320   21.6940 H   0  0  0  0  0  0  0  0  0  0  0  0
  -18.0160  -28.1090   22.8900 C   0  0  0  0  0  0  0  0  0  0  0  0
  -20.5820  -28.3190   23.1290 C   0  0  0  0  0  3  0  0  0  0  0  0
  -20.6520  -26.9000   22.5180 C   0  0  0  0  0  2  0  0  0  0  0  0
  -19.5300  -26.6210   21.5120 C   0  0  0  0  0  2  0  0  0  0  0  0
  -18.1600  -26.7740   22.1790 C   0  0  0  0  0  2  0  0  0  0  0  0
  -19.1540  -28.8410   23.3220 C   0  0  0  0  0  0  0  0  0  0  0  0
  -18.9660  -30.0940   23.9450 C   0  0  0  0  0  3  0  0  0  0  0  0
  -17.6720  -30.6120   24.1430 C   0  0  0  0  0  3  0  0  0  0  0  0
  -16.5490  -29.8750   23.7300 C   0  0  0  0  0  3  0  0  0  0  0  0
  -16.7220  -28.6250   23.1080 C   0  0  0  0  0  3  0  0  0  0  0  0
  -25.8600  -32.4810   23.8300 C   0  0  0  0  0  3  0  0  0  0  0  0
  -25.5500  -33.8780   24.1620 N   0  0  0  0  0  0  0  0  0  0  0  0
  -25.8920  -34.9320   23.4100 C   0  0  0  0  0  0  0  0  0  0  0  0
  -26.5730  -34.8320   22.3850 O   0  0  0  0  0  0  0  0  0  0  0  0
  -24.9470  -34.0300   24.9560 H   0  0  0  0  0  0  0  0  0  0  0  0
  -24.1740  -36.7310   23.0400 C   0  0  0  0  0  1  0  0  0  0  0  0
  -25.4020  -36.3190   23.8680 C   0  0  0  0  0  3  0  0  0  0  0  0
  -27.5270  -37.1910   24.7330 C   0  0  0  0  0  1  0  0  0  0  0  0
  -26.4380  -37.3710   23.7760 N   0  0  0  0  0  0  0  0  0  0  0  0
  -26.0320  -38.2900   23.9270 H   0  0  0  0  0  0  0  0  0  0  0  0
  -26.3710  -31.7040   25.1050 C   0  0  1  0  0  0  0  0  0  0  0  0
  -25.2710  -31.4630   26.1660 C   0  0  0  0  0  1  0  0  0  0  0  0
  -26.9560  -30.3280   24.7100 C   0  0  0  0  0  1  0  0  0  0  0  0
  -27.5180  -32.4960   25.7760 C   0  0  0  0  0  1  0  0  0  0  0  0
  1  3  2  0
  2  7  1  0
  4  1  1  0
  5  2  1  0
  5  6  1  0
  6 54  1  0
  6  1  1  0
  7 13  1  0
  7  4  1  0
  8  2  2  0
  9 10  1  0
 11 14  1  0
 12 11  2  0
 13 12  1  0
 13  9  2  0
 14 10  2  0
 14 24  1  0
 15 12  1  0
 16 24  1  0
 17 22  1  0
 18 19  1  0
 18 17  1  0
 20 19  1  0
 20 29  1  0
 20 21  1  0
 22 16  1  0
 22 21  1  0
 23 16  2  0
 24 25  1  0
 26 27  2  0
 27 46  1  0
 28 27  1  0
 28 31  1  0
 29 30  1  0
 29 26  1  0
 30 28  2  0
 31 32  1  0
 32 33  2  0
 34 37  1  0
 34 33  1  0
 35 34  2  0
 36 35  1  0
 36 31  2  0
 37 38  1  0
 38 39  1  0
 39 40  2  0
 41 40  1  0
 41 45  1  0
 42 41  2  0
 43 38  2  0
 43 42  1  0
 44 43  1  0
 46 47  1  0
 47 50  1  0
 47 49  1  0
 48 46  2  0
 51 52  1  0
 51 26  1  0
 53 51  1  0
 55 54  1  0
 56 67  2  0
 57 55  1  0
 57 62  1  0
 58 66  1  0
 58 68  1  0
 59 65  1  0
 59 61  1  0
 60 66  1  0
 61 60  1  0
 62 61  2  0
 63 64  1  0
 63 57  2  0
 64 59  2  0
 65 58  1  0
 66 56  1  0
 68 70  2  0
 69 68  1  0
 71 69  1  0
 72 81  2  0
 72 77  1  0
 73 69  1  0
 73 77  1  0
 74 73  1  0
 75 76  1  0
 75 74  1  0
 76 72  1  0
 77 78  2  0
 78 79  1  0
 80 79  2  0
 81 80  1  0
 82 56  1  0
 82 83  1  0
 82 92  1  0
 83 86  1  0
 84 88  1  0
 84 83  1  0
 85 84  2  0
 88 87  1  0
 90 88  1  0
 90 91  1  0
 90 89  1  0
 92 95  1  1
 92 93  1  0
 94 92  1  0
M  ISO  4  16 100  24 100  54 101  55 101
M  END
>  <TORSDO>  (61) 
F 18

>  <SCORE>  (61) 
-14.907

>  <name>  (61) 
60

>  <ligand_id>  (61) 
60

>  <original_smiles>  (61) 
[H]C([H])=C1C([H])([H])N(c2c([H])c([H])c(N([H])C(=O)N3C([H])([H])C([H])([H])C([H])([H])C([H])(n4nc(-c5c([H])c([H])c(Oc6c([H])c([H])c(F)c([H])c6F)c([H])c5[H])c(C(=O)N([H])[H])c4N([H])[H])C3([H])[H])c([H])c2C([H])([H])[H])C(=O)C([H])([H])C1([H])C([H])([H])Oc1c([H])c([H])c2c(c1[H])C([H])([H])N(C(=O)C([H])(N([H])C(=O)C([H])(N([H])C([H])([H])[H])C([H])([H])[H])C(C([H])([H])[H])(C([H])([H])[H])C([H])([H])[H])C([H])(C(=O)N([H])C1([H])c3c([H])c([H])c([H])c([H])c3C([H])([H])C([H])([H])C1([H])[H])C2([H])[H]

>  <smiles>  (61) 
[H]C([H])=C1C([H])([H])N(c2c([H])c([H])c(N([H])C(=O)N3C([H])([H])C([H])([H])C([H])([H])C([H])(n4nc(-c5c([H])c([H])c(Oc6c([H])c([H])c(F)c([H])c6F)c([H])c5[H])c(C(=O)N([H])[H])c4N([H])[H])C3([H])[H])c([H])c2C([H])([H])[H])C(=O)C([H])([H])C1([H])C([H])([H])Oc1c([H])c([H])c2c(c1[H])C([H])([H])N(C(=O)C([H])(N([H])C(=O)C([H])(N([H])C([H])([H])[H])C([H])([H])[H])C(C([H])([H])[H])(C([H])([H])[H])C([H])([H])[H])C([H])(C(=O)N([H])C1([H])c3c([H])c([H])c([H])c([H])c3C([H])([H])C([H])([H])C1([H])[H])C2([H])[H]

$$$$
61:0:0
     RDKit          3D

 96105  0  0  1  0  0  0  0  0999 V2000
  -30.8160  -22.8300   18.6140 C   0  0  0  0  0  3  0  0  0  0  0  0
  -29.9180  -23.7770   18.9490 C   0  0  0  0  0  3  0  0  0  0  0  0
  -30.7800  -21.4260   19.0290 C   0  0  0  0  0  0  0  0  0  0  0  0
  -28.8470  -22.0830   20.4880 C   0  0  0  0  0  2  0  0  0  0  0  0
  -28.6950  -23.5330   19.7870 C   0  0  0  0  0  3  0  0  0  0  0  0
  -29.8510  -21.0440   19.9560 N   0  0  0  0  0  0  0  0  0  0  0  0
  -31.5950  -20.6280   18.5520 O   0  0  0  0  0  0  0  0  0  0  0  0
  -31.0680  -18.4300   22.4890 C   0  0  0  0  0  3  0  0  0  0  0  0
  -30.6950  -19.6620   21.9050 C   0  0  0  0  0  0  0  0  0  0  0  0
  -30.0940  -19.7070   20.6080 C   0  0  0  0  0  0  0  0  0  0  0  0
  -30.3430  -17.1390   20.5470 C   0  0  0  0  0  0  0  0  0  0  0  0
  -30.9020  -17.2000   21.8360 C   0  0  0  0  0  0  0  0  0  0  0  0
  -29.9160  -18.4040   19.9560 C   0  0  0  0  0  0  0  0  0  0  0  0
  -31.0280  -20.9050   22.7160 C   0  0  0  0  0  1  0  0  0  0  0  0
  -31.2470  -16.0600   22.4860 F   0  0  0  0  0  0  0  0  0  0  0  0
  -29.3220  -18.3620   18.7370 F   0  0  0  0  0  0  0  0  0  0  0  0
  -30.9200  -14.6660   19.9770 C   0  0  0  0  0  0  0  0  0  0  0  0
  -30.6520  -12.4050   18.9460 C   0  0  0  0  0  2  0  0  0  0  0  0
  -29.6440  -12.5030   17.7790 C   0  0  0  0  0  2  0  0  0  0  0  0
  -28.1930  -12.3690   18.2880 C   0  0  0  0  0  2  0  0  0  0  0  0
  -27.9050  -13.2540   19.5290 C   0  0  0  0  0  3  0  0  0  0  0  0
  -29.0210  -13.1210   20.5890 C   0  0  0  0  0  2  0  0  0  0  0  0
  -30.2820  -13.4510   19.9200 N   0  0  0  0  0  0  0  0  0  0  0  0
  -32.1160  -14.7580   19.6880 O   0  0  0  0  0  0  0  0  0  0  0  0
  -30.1090  -15.7870   20.0010 N   0  0  0  0  0  0  0  0  0  0  0  0
  -29.1360  -15.5750   19.8600 H   0  0  0  0  0  0  0  0  0  0  0  0
  -25.5830  -13.9140   20.4000 C   0  0  0  0  0  0  0  0  0  0  0  0
  -24.5120  -13.1670   20.8080 C   0  0  0  0  0  0  0  0  0  0  0  0
  -24.9260  -11.8030   20.7240 C   0  0  0  0  0  0  0  0  0  0  0  0
  -26.5820  -13.0040   20.0870 N   0  0  0  0  0  0  0  0  0  0  0  0
  -26.1960  -11.7290   20.3460 N   0  0  0  0  0  0  0  0  0  0  0  0
  -24.1660  -10.5620   20.9250 C   0  0  0  0  0  0  0  0  0  0  0  0
  -24.5850   -9.5800   21.8500 C   0  0  0  0  0  3  0  0  0  0  0  0
  -23.8280   -8.4050   22.0390 C   0  0  0  0  0  3  0  0  0  0  0  0
  -22.6370   -8.2030   21.3020 C   0  0  0  0  0  0  0  0  0  0  0  0
  -22.2350   -9.1710   20.3640 C   0  0  0  0  0  3  0  0  0  0  0  0
  -22.9940  -10.3390   20.1740 C   0  0  0  0  0  3  0  0  0  0  0  0
  -21.8510   -7.0800   21.4010 O   0  0  0  0  0  0  0  0  0  0  0  0
  -21.7600   -6.3650   22.5680 C   0  0  0  0  0  0  0  0  0  0  0  0
  -21.3020   -6.9520   23.7680 C   0  0  0  0  0  3  0  0  0  0  0  0
  -21.1600   -6.1630   24.9270 C   0  0  0  0  0  3  0  0  0  0  0  0
  -21.4660   -4.7900   24.8870 C   0  0  0  0  0  0  0  0  0  0  0  0
  -21.9180   -4.2030   23.6910 C   0  0  0  0  0  3  0  0  0  0  0  0
  -22.0620   -4.9890   22.5350 C   0  0  0  0  0  0  0  0  0  0  0  0
  -22.4780   -4.4150   21.3790 F   0  0  0  0  0  0  0  0  0  0  0  0
  -21.3220   -4.0300   25.9970 F   0  0  0  0  0  0  0  0  0  0  0  0
  -23.1470  -13.6860   21.1610 C   0  0  0  0  0  0  0  0  0  0  0  0
  -22.4480  -13.0040   22.0600 N   0  0  0  0  0  0  0  0  0  0  0  0
  -22.7140  -14.7300   20.6740 O   0  0  0  0  0  0  0  0  0  0  0  0
  -22.8120  -12.1580   22.4740 H   0  0  0  0  0  0  0  0  0  0  0  0
  -21.5330  -13.3310   22.3400 H   0  0  0  0  0  0  0  0  0  0  0  0
  -25.7800  -15.2840   20.2510 N   0  0  0  0  0  0  0  0  0  0  0  0
  -25.0380  -15.9470   20.4410 H   0  0  0  0  0  0  0  0  0  0  0  0
  -26.6160  -15.7230   19.8910 H   0  0  0  0  0  0  0  0  0  0  0  0
  -28.2570  -24.8110   20.6950 C   0  0  0  0  0  2  0  0  0  0  0  0
  -28.4380  -26.2520   20.3080 O   0  0  0  0  0  0  0  0  0  0  0  0
  -24.5500  -31.7360   23.1140 C   0  0  0  0  0  0  0  0  0  0  0  0
  -27.3200  -27.1090   20.2650 C   0  0  0  0  0  0  0  0  0  0  0  0
  -23.4300  -30.3010   21.4490 C   0  0  0  0  0  3  0  0  0  0  0  0
  -24.9530  -28.7220   20.1240 C   0  0  0  0  0  0  0  0  0  0  0  0
  -25.9780  -30.6210   21.3760 C   0  0  0  0  0  2  0  0  0  0  0  0
  -26.0950  -29.2270   20.7580 C   0  0  0  0  0  0  0  0  0  0  0  0
  -27.2860  -28.4360   20.8110 C   0  0  0  0  0  3  0  0  0  0  0  0
  -26.1530  -26.6560   19.6180 C   0  0  0  0  0  3  0  0  0  0  0  0
  -24.9860  -27.4420   19.5430 C   0  0  0  0  0  3  0  0  0  0  0  0
  -23.7130  -29.5950   20.0970 C   0  0  0  0  0  2  0  0  0  0  0  0
  -24.6710  -30.9050   22.0370 N   0  0  0  0  0  0  0  0  0  0  0  0
  -23.4420  -32.0180   23.5920 O   0  0  0  0  0  0  0  0  0  0  0  0
  -22.7280  -29.3010   22.4000 C   0  0  0  0  0  0  0  0  0  0  0  0
  -21.3970  -29.1680   22.2650 N   0  0  0  0  0  0  0  0  0  0  0  0
  -23.3800  -28.6460   23.2170 O   0  0  0  0  0  0  0  0  0  0  0  0
  -20.9300  -29.7480   21.5840 H   0  0  0  0  0  0  0  0  0  0  0  0
  -17.9740  -28.1270   22.8010 C   0  0  0  0  0  0  0  0  0  0  0  0
  -20.5480  -28.2490   23.0230 C   0  0  0  0  0  3  0  0  0  0  0  0
  -20.5640  -26.8330   22.4030 C   0  0  0  0  0  2  0  0  0  0  0  0
  -19.4280  -26.5960   21.4030 C   0  0  0  0  0  2  0  0  0  0  0  0
  -18.0680  -26.7920   22.0800 C   0  0  0  0  0  2  0  0  0  0  0  0
  -19.1380  -28.8180   23.2300 C   0  0  0  0  0  0  0  0  0  0  0  0
  -18.9970  -30.0720   23.8650 C   0  0  0  0  0  3  0  0  0  0  0  0
  -17.7240  -30.6340   24.0740 C   0  0  0  0  0  3  0  0  0  0  0  0
  -16.5740  -29.9390   23.6600 C   0  0  0  0  0  3  0  0  0  0  0  0
  -16.6990  -28.6870   23.0300 C   0  0  0  0  0  3  0  0  0  0  0  0
  -25.7990  -32.3910   23.7830 C   0  0  0  0  0  3  0  0  0  0  0  0
  -25.4450  -33.7760   24.1290 N   0  0  0  0  0  0  0  0  0  0  0  0
  -25.7550  -34.8510   23.3900 C   0  0  0  0  0  0  0  0  0  0  0  0
  -26.4380  -34.7820   22.3640 O   0  0  0  0  0  0  0  0  0  0  0  0
  -24.8450  -33.9050   24.9300 H   0  0  0  0  0  0  0  0  0  0  0  0
  -23.9710  -36.5930   23.0600 C   0  0  0  0  0  1  0  0  0  0  0  0
  -25.2250  -36.2170   23.8660 C   0  0  0  0  0  3  0  0  0  0  0  0
  -27.3260  -37.1640   24.7150 C   0  0  0  0  0  1  0  0  0  0  0  0
  -26.2240  -37.3030   23.7670 N   0  0  0  0  0  0  0  0  0  0  0  0
  -25.7870  -38.2090   23.9150 H   0  0  0  0  0  0  0  0  0  0  0  0
  -26.2980  -31.6130   25.0630 C   0  0  1  0  0  0  0  0  0  0  0  0
  -25.1780  -31.3230   26.0890 C   0  0  0  0  0  1  0  0  0  0  0  0
  -26.9380  -30.2620   24.6680 C   0  0  0  0  0  1  0  0  0  0  0  0
  -27.4000  -32.4310   25.7760 C   0  0  0  0  0  1  0  0  0  0  0  0
  1  2  2  0
  1  3  1  0
  2  5  1  0
  3  6  1  0
  5  4  1  0
  5 55  1  0
  6  4  1  0
  6 10  1  0
  7  3  2  0
  9  8  1  0
  9 14  1  0
 10  9  2  0
 11 12  1  0
 12 15  1  0
 12  8  2  0
 13 11  2  0
 13 10  1  0
 16 13  1  0
 17 25  1  0
 18 23  1  0
 19 20  1  0
 19 18  1  0
 21 20  1  0
 21 30  1  0
 21 22  1  0
 23 17  1  0
 23 22  1  0
 24 17  2  0
 25 11  1  0
 26 25  1  0
 27 28  2  0
 28 47  1  0
 29 28  1  0
 29 32  1  0
 30 31  1  0
 30 27  1  0
 31 29  2  0
 32 33  1  0
 33 34  2  0
 35 38  1  0
 35 34  1  0
 36 35  2  0
 37 36  1  0
 37 32  2  0
 38 39  1  0
 39 40  1  0
 40 41  2  0
 42 41  1  0
 42 46  1  0
 43 42  2  0
 44 39  2  0
 44 43  1  0
 45 44  1  0
 47 48  1  0
 48 51  1  0
 48 50  1  0
 49 47  2  0
 52 27  1  0
 52 53  1  0
 54 52  1  0
 56 55  1  0
 57 68  2  0
 58 56  1  0
 58 63  1  0
 59 67  1  0
 59 69  1  0
 60 62  1  0
 61 67  1  0
 62 63  2  0
 62 61  1  0
 64 58  2  0
 65 64  1  0
 65 60  2  0
 66 60  1  0
 66 59  1  0
 67 57  1  0
 69 71  2  0
 70 69  1  0
 72 70  1  0
 73 82  2  0
 73 78  1  0
 74 70  1  0
 74 78  1  0
 75 74  1  0
 76 77  1  0
 76 75  1  0
 77 73  1  0
 78 79  2  0
 79 80  1  0
 81 80  2  0
 82 81  1  0
 83 57  1  0
 83 84  1  0
 83 93  1  0
 84 87  1  0
 85 89  1  0
 85 84  1  0
 86 85  2  0
 89 88  1  0
 91 89  1  0
 91 92  1  0
 91 90  1  0
 93 96  1  1
 93 94  1  0
 95 93  1  0
M  ISO  4  17 100  25 100  55 101  56 101
M  END
>  <TORSDO>  (62) 
F 18

>  <SCORE>  (62) 
-14.770

>  <name>  (62) 
61

>  <ligand_id>  (62) 
61

>  <original_smiles>  (62) 
[H]C1=C([H])C([H])(C([H])([H])Oc2c([H])c([H])c3c(c2[H])C([H])([H])N(C(=O)C([H])(N([H])C(=O)C([H])(N([H])C([H])([H])[H])C([H])([H])[H])C(C([H])([H])[H])(C([H])([H])[H])C([H])([H])[H])C([H])(C(=O)N([H])C2([H])c4c([H])c([H])c([H])c([H])c4C([H])([H])C([H])([H])C2([H])[H])C3([H])[H])C([H])([H])N(c2c(F)c(N([H])C(=O)N3C([H])([H])C([H])([H])C([H])([H])C([H])(n4nc(-c5c([H])c([H])c(Oc6c([H])c([H])c(F)c([H])c6F)c([H])c5[H])c(C(=O)N([H])[H])c4N([H])[H])C3([H])[H])c(F)c([H])c2C([H])([H])[H])C1=O

>  <smiles>  (62) 
[H]C1=C([H])C([H])(C([H])([H])Oc2c([H])c([H])c3c(c2[H])C([H])([H])N(C(=O)C([H])(N([H])C(=O)C([H])(N([H])C([H])([H])[H])C([H])([H])[H])C(C([H])([H])[H])(C([H])([H])[H])C([H])([H])[H])C([H])(C(=O)N([H])C2([H])c4c([H])c([H])c([H])c([H])c4C([H])([H])C([H])([H])C2([H])[H])C3([H])[H])C([H])([H])N(c2c(F)c(N([H])C(=O)N3C([H])([H])C([H])([H])C([H])([H])C([H])(n4nc(-c5c([H])c([H])c(Oc6c([H])c([H])c(F)c([H])c6F)c([H])c5[H])c(C(=O)N([H])[H])c4N([H])[H])C3([H])[H])c(F)c([H])c2C([H])([H])[H])C1=O

$$$$
62:0:0
     RDKit          3D

 97106  0  0  1  0  0  0  0  0999 V2000
  -29.3590  -18.7130   20.4920 C   0  0  0  0  0  3  0  0  0  0  0  0
  -31.1530  -20.3350   20.1600 C   0  0  0  0  0  3  0  0  0  0  0  0
  -31.6490  -17.9300   20.2890 C   0  0  0  0  0  3  0  0  0  0  0  0
  -29.7740  -20.1170   20.3690 C   0  0  0  0  0  0  0  0  0  0  0  0
  -30.2860  -17.5760   20.4230 C   0  0  0  0  0  0  0  0  0  0  0  0
  -32.0660  -19.2650   20.1380 C   0  0  0  0  0  0  0  0  0  0  0  0
  -30.6780  -14.9550   20.3190 C   0  0  0  0  0  0  0  0  0  0  0  0
  -30.4860  -12.6420   19.3820 C   0  0  0  0  0  2  0  0  0  0  0  0
  -29.5620  -12.6670   18.1450 C   0  0  0  0  0  2  0  0  0  0  0  0
  -28.0910  -12.4970   18.5680 C   0  0  0  0  0  2  0  0  0  0  0  0
  -27.7010  -13.4200   19.7550 C   0  0  0  0  0  3  0  0  0  0  0  0
  -28.7500  -13.3890   20.8870 C   0  0  0  0  0  2  0  0  0  0  0  0
  -30.0440  -13.7300   20.2890 N   0  0  0  0  0  0  0  0  0  0  0  0
  -31.8640  -15.0000   19.9850 O   0  0  0  0  0  0  0  0  0  0  0  0
  -29.9210  -16.1190   20.5160 N   0  0  0  0  0  0  0  0  0  0  0  0
  -28.9450  -15.9360   20.6930 H   0  0  0  0  0  0  0  0  0  0  0  0
  -25.3220  -14.0190   20.4950 C   0  0  0  0  0  0  0  0  0  0  0  0
  -24.2530  -13.2490   20.8610 C   0  0  0  0  0  0  0  0  0  0  0  0
  -24.7060  -11.8940   20.8170 C   0  0  0  0  0  0  0  0  0  0  0  0
  -26.3580  -13.1340   20.2470 N   0  0  0  0  0  0  0  0  0  0  0  0
  -25.9960  -11.8500   20.5040 N   0  0  0  0  0  0  0  0  0  0  0  0
  -23.9710  -10.6360   20.9980 C   0  0  0  0  0  0  0  0  0  0  0  0
  -24.3940   -9.6580   21.9250 C   0  0  0  0  0  3  0  0  0  0  0  0
  -23.6570   -8.4670   22.0940 C   0  0  0  0  0  3  0  0  0  0  0  0
  -22.4830   -8.2440   21.3350 C   0  0  0  0  0  0  0  0  0  0  0  0
  -22.0800   -9.2090   20.3970 C   0  0  0  0  0  3  0  0  0  0  0  0
  -22.8170  -10.3930   20.2260 C   0  0  0  0  0  3  0  0  0  0  0  0
  -21.7200   -7.1040   21.4130 O   0  0  0  0  0  0  0  0  0  0  0  0
  -21.6530   -6.3590   22.5640 C   0  0  0  0  0  0  0  0  0  0  0  0
  -21.2020   -6.9100   23.7830 C   0  0  0  0  0  3  0  0  0  0  0  0
  -21.0840   -6.0910   24.9250 C   0  0  0  0  0  3  0  0  0  0  0  0
  -21.4060   -4.7240   24.8470 C   0  0  0  0  0  0  0  0  0  0  0  0
  -21.8500   -4.1720   23.6320 C   0  0  0  0  0  3  0  0  0  0  0  0
  -21.9700   -4.9870   22.4930 C   0  0  0  0  0  0  0  0  0  0  0  0
  -22.3770   -4.4460   21.3200 F   0  0  0  0  0  0  0  0  0  0  0  0
  -21.2850   -3.9350   25.9410 F   0  0  0  0  0  0  0  0  0  0  0  0
  -22.8600  -13.7340   21.1400 C   0  0  0  0  0  0  0  0  0  0  0  0
  -22.1310  -13.0410   22.0060 N   0  0  0  0  0  0  0  0  0  0  0  0
  -22.4280  -14.7640   20.6220 O   0  0  0  0  0  0  0  0  0  0  0  0
  -22.4930  -12.2070   22.4430 H   0  0  0  0  0  0  0  0  0  0  0  0
  -21.1960  -13.3490   22.2360 H   0  0  0  0  0  0  0  0  0  0  0  0
  -25.4930  -15.3910   20.3270 N   0  0  0  0  0  0  0  0  0  0  0  0
  -24.7220  -16.0410   20.4390 H   0  0  0  0  0  0  0  0  0  0  0  0
  -26.3290  -15.8290   19.9630 H   0  0  0  0  0  0  0  0  0  0  0  0
  -28.9610  -22.0480   21.7000 C   0  0  0  0  0  0  0  0  0  0  0  0
  -28.7040  -23.5670   21.5490 C   0  0  0  0  0  2  0  0  0  0  0  0
  -28.7000  -22.4100   19.4810 C   0  0  0  0  0  2  0  0  0  0  0  0
  -28.1310  -23.7540   20.1420 C   0  0  0  0  0  3  0  0  0  0  0  0
  -28.9570  -21.3600   20.5350 N   0  0  0  0  0  0  0  0  0  0  0  0
  -29.1420  -21.5420   22.8120 O   0  0  0  0  0  0  0  0  0  0  0  0
  -28.3400  -25.1720   19.3630 C   0  0  0  0  0  2  0  0  0  0  0  0
  -28.2240  -26.5620   19.9150 O   0  0  0  0  0  0  0  0  0  0  0  0
  -24.5020  -31.8790   23.0760 C   0  0  0  0  0  0  0  0  0  0  0  0
  -27.0890  -27.3990   19.8440 C   0  0  0  0  0  0  0  0  0  0  0  0
  -23.2770  -30.5050   21.4290 C   0  0  0  0  0  3  0  0  0  0  0  0
  -24.7100  -29.0060   19.9170 C   0  0  0  0  0  0  0  0  0  0  0  0
  -25.8040  -30.8560   21.1890 C   0  0  0  0  0  2  0  0  0  0  0  0
  -25.8840  -29.4890   20.5060 C   0  0  0  0  0  0  0  0  0  0  0  0
  -27.0700  -28.6930   20.4640 C   0  0  0  0  0  3  0  0  0  0  0  0
  -25.8950  -26.9770   19.2240 C   0  0  0  0  0  3  0  0  0  0  0  0
  -24.7200  -27.7610   19.2640 C   0  0  0  0  0  3  0  0  0  0  0  0
  -23.4640  -29.8660   20.0250 C   0  0  0  0  0  2  0  0  0  0  0  0
  -24.5490  -31.0990   21.9550 N   0  0  0  0  0  0  0  0  0  0  0  0
  -23.4290  -32.1290   23.6440 O   0  0  0  0  0  0  0  0  0  0  0  0
  -22.6510  -29.4590   22.3800 C   0  0  0  0  0  0  0  0  0  0  0  0
  -21.3250  -29.2630   22.2760 N   0  0  0  0  0  0  0  0  0  0  0  0
  -23.3570  -28.8250   23.1690 O   0  0  0  0  0  0  0  0  0  0  0  0
  -20.8160  -29.8340   21.6170 H   0  0  0  0  0  0  0  0  0  0  0  0
  -17.9820  -27.9790   22.7940 C   0  0  0  0  0  0  0  0  0  0  0  0
  -20.5360  -28.2920   23.0370 C   0  0  0  0  0  3  0  0  0  0  0  0
  -20.6620  -26.8740   22.4310 C   0  0  0  0  0  2  0  0  0  0  0  0
  -19.5550  -26.5470   21.4240 C   0  0  0  0  0  2  0  0  0  0  0  0
  -18.1800  -26.6470   22.0890 C   0  0  0  0  0  2  0  0  0  0  0  0
  -19.0890  -28.7590   23.2250 C   0  0  0  0  0  0  0  0  0  0  0  0
  -18.8500  -30.0040   23.8460 C   0  0  0  0  0  3  0  0  0  0  0  0
  -17.5370  -30.4710   24.0380 C   0  0  0  0  0  3  0  0  0  0  0  0
  -16.4450  -29.6910   23.6240 C   0  0  0  0  0  3  0  0  0  0  0  0
  -16.6680  -28.4450   23.0080 C   0  0  0  0  0  3  0  0  0  0  0  0
  -25.7900  -32.5120   23.6880 C   0  0  0  0  0  3  0  0  0  0  0  0
  -26.3460  -31.7120   24.9300 C   0  0  1  0  0  0  0  0  0  0  0  0
  -25.2820  -31.4370   26.0190 C   0  0  0  0  0  1  0  0  0  0  0  0
  -26.9310  -30.3510   24.4850 C   0  0  0  0  0  1  0  0  0  0  0  0
  -27.5060  -32.5000   25.5830 C   0  0  0  0  0  1  0  0  0  0  0  0
  -25.4680  -33.8950   24.0680 N   0  0  0  0  0  0  0  0  0  0  0  0
  -25.7790  -34.9780   23.3430 C   0  0  0  0  0  0  0  0  0  0  0  0
  -26.4360  -34.9180   22.3010 O   0  0  0  0  0  0  0  0  0  0  0  0
  -24.8770  -34.0140   24.8780 H   0  0  0  0  0  0  0  0  0  0  0  0
  -24.0370  -36.7720   23.0670 C   0  0  0  0  0  1  0  0  0  0  0  0
  -25.2850  -36.3450   23.8560 C   0  0  0  0  0  3  0  0  0  0  0  0
  -27.4160  -37.2160   24.7100 C   0  0  0  0  0  1  0  0  0  0  0  0
  -26.3100  -37.4090   23.7760 N   0  0  0  0  0  0  0  0  0  0  0  0
  -25.8990  -38.3210   23.9560 H   0  0  0  0  0  0  0  0  0  0  0  0
  -34.3600  -19.8450   21.7420 C   0  0  0  0  0  1  0  0  0  0  0  0
  -34.1060  -20.9430   19.3000 N   0  0  0  0  0  2  0  0  0  0  0  0
  -34.5000  -18.3610   19.5300 O   0  0  0  0  0  1  0  0  0  0  0  0
  -33.8310  -19.5780   20.0180 S   0  0  2  0  0  0  0  0  0  0  0  0
  -33.5390  -21.7020   19.6980 H   0  0  0  0  0  0  0  0  0  0  0  0
  2  4  1  0
  3  5  2  0
  4  1  2  0
  4 49  1  0
  5  1  1  0
  5 15  1  0
  6  2  2  0
  6  3  1  0
  7 15  1  0
  8 13  1  0
  9 10  1  0
  9  8  1  0
 11 10  1  0
 11 20  1  0
 11 12  1  0
 13  7  1  0
 13 12  1  0
 14  7  2  0
 15 16  1  0
 17 18  2  0
 18 37  1  0
 19 18  1  0
 19 22  1  0
 20 17  1  0
 20 21  1  0
 21 19  2  0
 22 23  1  0
 23 24  2  0
 25 28  1  0
 25 24  1  0
 26 25  2  0
 27 26  1  0
 27 22  2  0
 28 29  1  0
 29 30  1  0
 30 31  2  0
 32 31  1  0
 32 36  1  0
 33 32  2  0
 34 29  2  0
 34 33  1  0
 35 34  1  0
 37 38  1  0
 38 41  1  0
 38 40  1  0
 39 37  2  0
 42 43  1  0
 42 17  1  0
 44 42  1  0
 45 50  2  0
 46 45  1  0
 47 48  1  0
 47 49  1  0
 48 51  1  0
 48 46  1  0
 49 45  1  0
 51 52  1  0
 53 64  2  0
 54 52  1  0
 54 59  1  0
 55 63  1  0
 55 65  1  0
 56 62  1  0
 56 58  1  0
 57 63  1  0
 58 57  1  0
 59 58  2  0
 60 61  1  0
 60 54  2  0
 61 56  2  0
 62 55  1  0
 63 53  1  0
 65 67  2  0
 66 65  1  0
 68 66  1  0
 69 78  2  0
 69 74  1  0
 70 66  1  0
 70 74  1  0
 71 70  1  0
 72 73  1  0
 72 71  1  0
 73 69  1  0
 74 75  2  0
 75 76  1  0
 77 76  2  0
 78 77  1  0
 79 53  1  0
 79 84  1  0
 79 80  1  0
 80 83  1  1
 80 81  1  0
 82 80  1  0
 84 87  1  0
 85 89  1  0
 85 84  1  0
 86 85  2  0
 89 88  1  0
 91 89  1  0
 91 92  1  0
 91 90  1  0
 94 97  1  0
 94 96  1  0
 95 96  1  0
 96  6  1  0
 96 93  1  1
M  ISO  4   7 100  15 100  51 101  52 101
M  END
>  <TORSDO>  (63) 
F 19

>  <SCORE>  (63) 
-14.590

>  <name>  (63) 
62

>  <ligand_id>  (63) 
62

>  <original_smiles>  (63) 
[H]N=S(=O)(c1c([H])c(N([H])C(=O)N2C([H])([H])C([H])([H])C([H])([H])C([H])(n3nc(-c4c([H])c([H])c(Oc5c([H])c([H])c(F)c([H])c5F)c([H])c4[H])c(C(=O)N([H])[H])c3N([H])[H])C2([H])[H])c([H])c(N2C(=O)C([H])([H])C([H])(C([H])([H])Oc3c([H])c([H])c4c(c3[H])C([H])([H])N(C(=O)C([H])(N([H])C(=O)C([H])(N([H])C([H])([H])[H])C([H])([H])[H])C(C([H])([H])[H])(C([H])([H])[H])C([H])([H])[H])C([H])(C(=O)N([H])C3([H])c5c([H])c([H])c([H])c([H])c5C([H])([H])C([H])([H])C3([H])[H])C4([H])[H])C2([H])[H])c1[H])C([H])([H])[H]

>  <smiles>  (63) 
[H]N=S(=O)(c1c([H])c(N([H])C(=O)N2C([H])([H])C([H])([H])C([H])([H])C([H])(n3nc(-c4c([H])c([H])c(Oc5c([H])c([H])c(F)c([H])c5F)c([H])c4[H])c(C(=O)N([H])[H])c3N([H])[H])C2([H])[H])c([H])c(N2C(=O)C([H])([H])C([H])(C([H])([H])Oc3c([H])c([H])c4c(c3[H])C([H])([H])N(C(=O)C([H])(N([H])C(=O)C([H])(N([H])C([H])([H])[H])C([H])([H])[H])C(C([H])([H])[H])(C([H])([H])[H])C([H])([H])[H])C([H])(C(=O)N([H])C3([H])c5c([H])c([H])c([H])c([H])c5C([H])([H])C([H])([H])C3([H])[H])C4([H])[H])C2([H])[H])c1[H])C([H])([H])[H]

$$$$
63:0:0
     RDKit          3D

 98107  0  0  1  0  0  0  0  0999 V2000
  -27.7390  -24.7630   21.8400 C   0  0  0  0  0  3  0  0  0  0  0  0
  -28.2610  -25.1670   20.5810 C   0  0  0  0  0  0  0  0  0  0  0  0
  -27.9250  -23.4110   21.9860 C   0  0  0  0  0  0  0  0  0  0  0  0
  -28.7210  -23.9810   20.0100 C   0  0  0  0  0  0  0  0  0  0  0  0
  -28.5340  -22.8460   20.8540 N   0  0  0  0  0  0  0  0  0  0  0  0
  -30.4350  -19.6670   19.7670 C   0  0  0  0  0  3  0  0  0  0  0  0
  -30.0090  -21.0250   19.8570 C   0  0  0  0  0  3  0  0  0  0  0  0
  -28.2780  -20.3380   21.3510 C   0  0  0  0  0  3  0  0  0  0  0  0
  -28.7390  -18.9740   21.3220 C   0  0  0  0  0  0  0  0  0  0  0  0
  -29.8430  -18.6000   20.4990 C   0  0  0  0  0  0  0  0  0  0  0  0
  -28.9190  -21.4230   20.6720 C   0  0  0  0  0  0  0  0  0  0  0  0
  -28.0810  -17.9570   22.1620 C   0  0  0  0  0  3  0  0  0  0  0  0
  -26.8210  -18.0040   22.6290 C   0  0  0  0  0  3  0  0  0  0  0  0
  -26.2160  -16.9450   23.5250 C   0  0  0  0  0  1  0  0  0  0  0  0
  -30.5620  -17.1860   20.4160 C   0  0  0  0  0  2  0  0  0  0  0  0
  -30.6630  -14.6570   20.4700 C   0  0  0  0  0  0  0  0  0  0  0  0
  -30.4180  -12.4000   19.4680 C   0  0  0  0  0  2  0  0  0  0  0  0
  -29.5030  -12.4910   18.2300 C   0  0  0  0  0  2  0  0  0  0  0  0
  -28.0250  -12.3440   18.6370 C   0  0  0  0  0  2  0  0  0  0  0  0
  -27.6430  -13.2320   19.8520 C   0  0  0  0  0  3  0  0  0  0  0  0
  -28.6860  -13.1450   20.9870 C   0  0  0  0  0  2  0  0  0  0  0  0
  -29.9940  -13.4620   20.4050 N   0  0  0  0  0  0  0  0  0  0  0  0
  -31.8550  -14.7190   20.1570 O   0  0  0  0  0  0  0  0  0  0  0  0
  -29.9530  -15.8220   20.6470 N   0  0  0  0  0  0  0  0  0  0  0  0
  -28.9620  -15.7590   20.8240 H   0  0  0  0  0  0  0  0  0  0  0  0
  -25.2510  -13.8200   20.5680 C   0  0  0  0  0  0  0  0  0  0  0  0
  -24.1810  -13.0450   20.9210 C   0  0  0  0  0  0  0  0  0  0  0  0
  -24.6400  -11.6930   20.8760 C   0  0  0  0  0  0  0  0  0  0  0  0
  -26.2940  -12.9420   20.3290 N   0  0  0  0  0  0  0  0  0  0  0  0
  -25.9330  -11.6560   20.5760 N   0  0  0  0  0  0  0  0  0  0  0  0
  -23.9090  -10.4300   21.0410 C   0  0  0  0  0  0  0  0  0  0  0  0
  -24.3630   -9.4210   21.9190 C   0  0  0  0  0  3  0  0  0  0  0  0
  -23.6300   -8.2250   22.0760 C   0  0  0  0  0  3  0  0  0  0  0  0
  -22.4280   -8.0290   21.3540 C   0  0  0  0  0  0  0  0  0  0  0  0
  -21.9920   -9.0270   20.4650 C   0  0  0  0  0  3  0  0  0  0  0  0
  -22.7260  -10.2140   20.3060 C   0  0  0  0  0  3  0  0  0  0  0  0
  -21.6640   -6.8890   21.4240 O   0  0  0  0  0  0  0  0  0  0  0  0
  -21.6860   -6.0740   22.5280 C   0  0  0  0  0  0  0  0  0  0  0  0
  -21.4020   -6.5640   23.8210 C   0  0  0  0  0  3  0  0  0  0  0  0
  -21.3650   -5.6790   24.9170 C   0  0  0  0  0  3  0  0  0  0  0  0
  -21.6040   -4.3060   24.7220 C   0  0  0  0  0  0  0  0  0  0  0  0
  -21.8820   -3.8150   23.4340 C   0  0  0  0  0  3  0  0  0  0  0  0
  -21.9200   -4.6970   22.3400 C   0  0  0  0  0  0  0  0  0  0  0  0
  -22.1660   -4.2160   21.0980 F   0  0  0  0  0  0  0  0  0  0  0  0
  -21.5620   -3.4540   25.7730 F   0  0  0  0  0  0  0  0  0  0  0  0
  -22.7830  -13.5230   21.1860 C   0  0  0  0  0  0  0  0  0  0  0  0
  -22.0480  -12.8210   22.0410 N   0  0  0  0  0  0  0  0  0  0  0  0
  -22.3500  -14.5530   20.6710 O   0  0  0  0  0  0  0  0  0  0  0  0
  -22.4110  -11.9880   22.4800 H   0  0  0  0  0  0  0  0  0  0  0  0
  -21.1080  -13.1200   22.2600 H   0  0  0  0  0  0  0  0  0  0  0  0
  -25.4190  -15.1920   20.4060 N   0  0  0  0  0  0  0  0  0  0  0  0
  -24.6590  -15.8470   20.5520 H   0  0  0  0  0  0  0  0  0  0  0  0
  -26.2690  -15.6380   20.0880 H   0  0  0  0  0  0  0  0  0  0  0  0
  -27.6140  -22.6690   23.0860 O   0  0  0  0  0  0  0  0  0  0  0  0
  -27.2330  -23.2530   23.7340 H   0  0  0  0  0  0  0  0  0  0  0  0
  -29.3110  -23.8580   18.7890 O   0  0  0  0  0  0  0  0  0  0  0  0
  -29.3870  -24.7380   18.4320 H   0  0  0  0  0  0  0  0  0  0  0  0
  -28.3420  -26.4900   20.0970 O   0  0  0  0  0  0  0  0  0  0  0  0
  -24.6250  -31.8600   23.2040 C   0  0  0  0  0  0  0  0  0  0  0  0
  -27.2230  -27.3270   20.1260 C   0  0  0  0  0  0  0  0  0  0  0  0
  -23.4190  -30.4820   21.5450 C   0  0  0  0  0  3  0  0  0  0  0  0
  -24.8660  -28.9320   20.1160 C   0  0  0  0  0  0  0  0  0  0  0  0
  -25.9570  -30.7930   21.3730 C   0  0  0  0  0  2  0  0  0  0  0  0
  -26.0320  -29.4170   20.7230 C   0  0  0  0  0  0  0  0  0  0  0  0
  -27.2160  -28.6230   20.7230 C   0  0  0  0  0  3  0  0  0  0  0  0
  -26.0390  -26.8850   19.5020 C   0  0  0  0  0  3  0  0  0  0  0  0
  -24.8690  -27.6690   19.5000 C   0  0  0  0  0  3  0  0  0  0  0  0
  -23.6330  -29.8110   20.1620 C   0  0  0  0  0  2  0  0  0  0  0  0
  -24.6850  -31.0620   22.0980 N   0  0  0  0  0  0  0  0  0  0  0  0
  -23.5410  -32.1420   23.7370 O   0  0  0  0  0  0  0  0  0  0  0  0
  -22.7480  -29.4640   22.4950 C   0  0  0  0  0  0  0  0  0  0  0  0
  -21.4190  -29.3050   22.3690 N   0  0  0  0  0  0  0  0  0  0  0  0
  -23.4210  -28.8190   23.3040 O   0  0  0  0  0  0  0  0  0  0  0  0
  -20.9410  -29.8740   21.6850 H   0  0  0  0  0  0  0  0  0  0  0  0
  -18.0280  -28.1400   22.8490 C   0  0  0  0  0  0  0  0  0  0  0  0
  -20.5880  -28.3710   23.1290 C   0  0  0  0  0  3  0  0  0  0  0  0
  -20.6780  -26.9440   22.5420 C   0  0  0  0  0  2  0  0  0  0  0  0
  -19.5760  -26.6410   21.5220 C   0  0  0  0  0  2  0  0  0  0  0  0
  -18.1920  -26.7940   22.1620 C   0  0  0  0  0  2  0  0  0  0  0  0
  -19.1530  -28.8870   23.2880 C   0  0  0  0  0  0  0  0  0  0  0  0
  -18.9450  -30.1470   23.8910 C   0  0  0  0  0  3  0  0  0  0  0  0
  -17.6450  -30.6600   24.0570 C   0  0  0  0  0  3  0  0  0  0  0  0
  -16.5340  -29.9100   23.6330 C   0  0  0  0  0  3  0  0  0  0  0  0
  -16.7270  -28.6520   23.0350 C   0  0  0  0  0  3  0  0  0  0  0  0
  -25.9110  -32.4780   23.8360 C   0  0  0  0  0  3  0  0  0  0  0  0
  -25.5940  -33.8580   24.2290 N   0  0  0  0  0  0  0  0  0  0  0  0
  -25.9050  -34.9450   23.5100 C   0  0  0  0  0  0  0  0  0  0  0  0
  -26.5620  -34.8930   22.4670 O   0  0  0  0  0  0  0  0  0  0  0  0
  -25.0090  -33.9730   25.0430 H   0  0  0  0  0  0  0  0  0  0  0  0
  -24.1480  -36.7290   23.2630 C   0  0  0  0  0  1  0  0  0  0  0  0
  -25.4110  -36.3090   24.0320 C   0  0  0  0  0  3  0  0  0  0  0  0
  -27.5590  -37.1790   24.8460 C   0  0  0  0  0  1  0  0  0  0  0  0
  -26.4290  -37.3780   23.9410 N   0  0  0  0  0  0  0  0  0  0  0  0
  -26.0180  -38.2850   24.1440 H   0  0  0  0  0  0  0  0  0  0  0  0
  -26.4520  -31.6570   25.0720 C   0  0  1  0  0  0  0  0  0  0  0  0
  -25.3750  -31.3720   26.1450 C   0  0  0  0  0  1  0  0  0  0  0  0
  -27.0330  -30.2970   24.6160 C   0  0  0  0  0  1  0  0  0  0  0  0
  -27.6090  -32.4300   25.7490 C   0  0  0  0  0  1  0  0  0  0  0  0
  1  3  2  0
  2  1  1  0
  3 54  1  0
  4  2  2  0
  4  5  1  0
  5  3  1  0
  6  7  2  0
  6 10  1  0
  7 11  1  0
  9  8  1  0
  9 12  1  0
 10  9  2  0
 11  5  1  0
 11  8  2  0
 12 13  2  0
 13 14  1  0
 15 10  1  0
 15 24  1  0
 16 24  1  0
 17 22  1  0
 18 19  1  0
 18 17  1  0
 20 19  1  0
 20 29  1  0
 20 21  1  0
 22 16  1  0
 22 21  1  0
 23 16  2  0
 24 25  1  0
 26 27  2  0
 27 46  1  0
 28 27  1  0
 28 31  1  0
 29 26  1  0
 29 30  1  0
 30 28  2  0
 31 32  1  0
 32 33  2  0
 34 37  1  0
 34 33  1  0
 35 34  2  0
 36 35  1  0
 36 31  2  0
 37 38  1  0
 38 39  1  0
 39 40  2  0
 41 40  1  0
 41 45  1  0
 42 41  2  0
 43 38  2  0
 43 42  1  0
 44 43  1  0
 46 47  1  0
 47 50  1  0
 47 49  1  0
 48 46  2  0
 51 52  1  0
 51 26  1  0
 53 51  1  0
 54 55  1  0
 56  4  1  0
 57 56  1  0
 58 60  1  0
 58  2  1  0
 59 70  2  0
 60 65  1  0
 61 69  1  0
 61 71  1  0
 62 68  1  0
 62 64  1  0
 63 69  1  0
 64 65  2  0
 64 63  1  0
 66 60  2  0
 67 66  1  0
 67 62  2  0
 68 61  1  0
 69 59  1  0
 71 73  2  0
 72 71  1  0
 74 72  1  0
 75 84  2  0
 75 80  1  0
 76 72  1  0
 76 80  1  0
 77 76  1  0
 78 79  1  0
 78 77  1  0
 79 75  1  0
 80 81  2  0
 81 82  1  0
 83 82  2  0
 84 83  1  0
 85 59  1  0
 85 86  1  0
 85 95  1  0
 86 89  1  0
 87 91  1  0
 87 86  1  0
 88 87  2  0
 91 90  1  0
 93 91  1  0
 93 94  1  0
 93 92  1  0
 95 98  1  1
 95 96  1  0
 97 95  1  0
M  ISO  4   2 101  16 100  24 100  58 101
M  END
>  <TORSDO>  (64) 
F 21

>  <SCORE>  (64) 
10.607

>  <name>  (64) 
63

>  <ligand_id>  (64) 
63

>  <original_smiles>  (64) 
[H]Oc1c([H])c(Oc2c([H])c([H])c3c(c2[H])C([H])([H])N(C(=O)C([H])(N([H])C(=O)C([H])(N([H])C([H])([H])[H])C([H])([H])[H])C(C([H])([H])[H])(C([H])([H])[H])C([H])([H])[H])C([H])(C(=O)N([H])C2([H])c4c([H])c([H])c([H])c([H])c4C([H])([H])C([H])([H])C2([H])[H])C3([H])[H])c(O[H])n1-c1c([H])c([H])c(C([H])([H])N([H])C(=O)N2C([H])([H])C([H])([H])C([H])([H])C([H])(n3nc(-c4c([H])c([H])c(Oc5c([H])c([H])c(F)c([H])c5F)c([H])c4[H])c(C(=O)N([H])[H])c3N([H])[H])C2([H])[H])c(C([H])=C([H])C([H])([H])[H])c1[H]

>  <smiles>  (64) 
[H]Oc1c([H])c(Oc2c([H])c([H])c3c(c2[H])C([H])([H])N(C(=O)C([H])(N([H])C(=O)C([H])(N([H])C([H])([H])[H])C([H])([H])[H])C(C([H])([H])[H])(C([H])([H])[H])C([H])([H])[H])C([H])(C(=O)N([H])C2([H])c4c([H])c([H])c([H])c([H])c4C([H])([H])C([H])([H])C2([H])[H])C3([H])[H])c(O[H])n1-c1c([H])c([H])c(C([H])([H])N([H])C(=O)N2C([H])([H])C([H])([H])C([H])([H])C([H])(n3nc(-c4c([H])c([H])c(Oc5c([H])c([H])c(F)c([H])c5F)c([H])c4[H])c(C(=O)N([H])[H])c3N([H])[H])C2([H])[H])c(C([H])=C([H])C([H])([H])[H])c1[H]

$$$$
64:0:0
     RDKit          3D

 94103  0  0  1  0  0  0  0  0999 V2000
  -31.7740  -14.5560   19.9310 C   0  0  0  0  0  0  0  0  0  0  0  0
  -31.4390  -12.1060   19.4590 C   0  0  0  0  0  2  0  0  0  0  0  0
  -30.5410  -11.9010   18.2160 C   0  0  0  0  0  2  0  0  0  0  0  0
  -29.0480  -11.9430   18.5970 C   0  0  0  0  0  2  0  0  0  0  0  0
  -28.7110  -13.1490   19.5050 C   0  0  0  0  0  3  0  0  0  0  0  0
  -29.7030  -13.2510   20.6790 C   0  0  0  0  0  2  0  0  0  0  0  0
  -31.0640  -13.3800   20.1190 N   0  0  0  0  0  0  0  0  0  0  0  0
  -32.8540  -14.5520   19.3300 O   0  0  0  0  0  0  0  0  0  0  0  0
  -30.3220  -19.2060   21.5030 C   0  0  0  0  0  3  0  0  0  0  0  0
  -30.3760  -20.0570   20.3930 C   0  0  0  0  0  3  0  0  0  0  0  0
  -31.2150  -18.2160   19.0500 C   0  0  0  0  0  3  0  0  0  0  0  0
  -31.1370  -15.7200   21.8990 C   0  0  0  0  0  3  0  0  0  0  0  0
  -30.6880  -17.8500   21.4430 C   0  0  0  0  0  0  0  0  0  0  0  0
  -31.1300  -17.2890   20.1910 C   0  0  0  0  0  0  0  0  0  0  0  0
  -30.8490  -19.6410   19.1310 C   0  0  0  0  0  0  0  0  0  0  0  0
  -30.7000  -16.8650   22.4710 C   0  0  0  0  0  0  0  0  0  0  0  0
  -31.3320  -15.8680   20.5240 N   0  0  0  0  0  0  0  0  0  0  0  0
  -26.4430  -14.1720   20.1530 C   0  0  0  0  0  0  0  0  0  0  0  0
  -25.2570  -13.6080   20.5390 C   0  0  0  0  0  0  0  0  0  0  0  0
  -25.4840  -12.1960   20.5720 C   0  0  0  0  0  0  0  0  0  0  0  0
  -27.3250  -13.1180   19.9700 N   0  0  0  0  0  0  0  0  0  0  0  0
  -26.7530  -11.9280   20.2830 N   0  0  0  0  0  0  0  0  0  0  0  0
  -24.5550  -11.0840   20.8040 C   0  0  0  0  0  0  0  0  0  0  0  0
  -24.9170   -9.9660   21.5880 C   0  0  0  0  0  3  0  0  0  0  0  0
  -23.9960   -8.9180   21.8090 C   0  0  0  0  0  3  0  0  0  0  0  0
  -22.7000   -8.9810   21.2450 C   0  0  0  0  0  0  0  0  0  0  0  0
  -22.3530  -10.0860   20.4480 C   0  0  0  0  0  3  0  0  0  0  0  0
  -23.2710  -11.1250   20.2240 C   0  0  0  0  0  3  0  0  0  0  0  0
  -21.7520   -7.9980   21.3850 O   0  0  0  0  0  0  0  0  0  0  0  0
  -21.9020   -6.9720   22.2840 C   0  0  0  0  0  0  0  0  0  0  0  0
  -21.9330   -7.2030   23.6770 C   0  0  0  0  0  3  0  0  0  0  0  0
  -22.0190   -6.1160   24.5680 C   0  0  0  0  0  3  0  0  0  0  0  0
  -22.0650   -4.7990   24.0730 C   0  0  0  0  0  0  0  0  0  0  0  0
  -22.0320   -4.5660   22.6870 C   0  0  0  0  0  3  0  0  0  0  0  0
  -21.9460   -5.6500   21.7950 C   0  0  0  0  0  0  0  0  0  0  0  0
  -21.8910   -5.4210   20.4610 F   0  0  0  0  0  0  0  0  0  0  0  0
  -22.1420   -3.7540   24.9300 F   0  0  0  0  0  0  0  0  0  0  0  0
  -23.9560  -14.3220   20.7670 C   0  0  0  0  0  0  0  0  0  0  0  0
  -23.1200  -13.8040   21.6580 N   0  0  0  0  0  0  0  0  0  0  0  0
  -23.6950  -15.3750   20.1860 O   0  0  0  0  0  0  0  0  0  0  0  0
  -23.3440  -12.9530   22.1530 H   0  0  0  0  0  0  0  0  0  0  0  0
  -22.2420  -14.2650   21.8530 H   0  0  0  0  0  0  0  0  0  0  0  0
  -26.8440  -15.4870   19.9220 N   0  0  0  0  0  0  0  0  0  0  0  0
  -26.2080  -16.2740   19.9830 H   0  0  0  0  0  0  0  0  0  0  0  0
  -27.7630  -15.7450   19.5840 H   0  0  0  0  0  0  0  0  0  0  0  0
  -31.2860  -22.0100   18.0250 C   0  0  0  0  0  0  0  0  0  0  0  0
  -30.8850  -20.6630   18.0250 N   0  0  0  0  0  0  0  0  0  0  0  0
  -31.8490  -22.4970   19.0070 O   0  0  0  0  0  0  0  0  0  0  0  0
  -30.5500  -20.3310   17.1310 H   0  0  0  0  0  0  0  0  0  0  0  0
  -31.1450  -23.0220   16.7810 C   0  0  0  0  0  3  0  0  0  0  0  0
  -31.4990  -24.6030   16.9990 C   0  0  0  0  0  3  0  0  0  0  0  0
  -31.7600  -25.6030   15.8990 O   0  0  0  0  0  0  0  0  0  0  0  0
  -35.6540  -31.5490   17.5200 C   0  0  0  0  0  0  0  0  0  0  0  0
  -31.8190  -26.9750   16.2310 C   0  0  0  0  0  0  0  0  0  0  0  0
  -33.2660  -31.5620   18.1260 C   0  0  0  0  0  3  0  0  0  0  0  0
  -31.8270  -29.7190   17.0810 C   0  0  0  0  0  0  0  0  0  0  0  0
  -34.0760  -30.1850   16.1160 C   0  0  0  0  0  2  0  0  0  0  0  0
  -32.9200  -29.2160   16.3630 C   0  0  0  0  0  0  0  0  0  0  0  0
  -32.9110  -27.8520   15.9180 C   0  0  0  0  0  3  0  0  0  0  0  0
  -30.7240  -27.5490   16.9120 C   0  0  0  0  0  3  0  0  0  0  0  0
  -30.7230  -28.8900   17.3420 C   0  0  0  0  0  3  0  0  0  0  0  0
  -31.8850  -31.1610   17.5460 C   0  0  0  0  0  2  0  0  0  0  0  0
  -34.3950  -31.0880   17.2620 N   0  0  0  0  0  0  0  0  0  0  0  0
  -35.8710  -32.3630   18.4300 O   0  0  0  0  0  0  0  0  0  0  0  0
  -33.3610  -31.0680   19.5910 C   0  0  0  0  0  0  0  0  0  0  0  0
  -32.3780  -31.4480   20.4250 N   0  0  0  0  0  0  0  0  0  0  0  0
  -34.2900  -30.3390   19.9480 O   0  0  0  0  0  0  0  0  0  0  0  0
  -31.6580  -32.0550   20.0600 H   0  0  0  0  0  0  0  0  0  0  0  0
  -30.0040  -30.9720   23.1160 C   0  0  0  0  0  0  0  0  0  0  0  0
  -32.2460  -31.0610   21.8310 C   0  0  0  0  0  3  0  0  0  0  0  0
  -32.2810  -29.5250   21.9910 C   0  0  0  0  0  2  0  0  0  0  0  0
  -30.8890  -28.8850   21.9910 C   0  0  0  0  0  2  0  0  0  0  0  0
  -30.0360  -29.4530   23.1290 C   0  0  0  0  0  2  0  0  0  0  0  0
  -31.0330  -31.7260   22.4920 C   0  0  0  0  0  0  0  0  0  0  0  0
  -30.9370  -33.1350   22.4810 C   0  0  0  0  0  3  0  0  0  0  0  0
  -29.8410  -33.7870   23.0780 C   0  0  0  0  0  3  0  0  0  0  0  0
  -28.8320  -33.0360   23.7060 C   0  0  0  0  0  3  0  0  0  0  0  0
  -28.9170  -31.6320   23.7270 C   0  0  0  0  0  3  0  0  0  0  0  0
  -36.8790  -31.0920   16.6720 C   0  0  0  0  0  3  0  0  0  0  0  0
  -37.6190  -29.8350   17.2770 C   0  0  1  0  0  0  0  0  0  0  0  0
  -38.0010  -29.9920   18.7670 C   0  0  0  0  0  1  0  0  0  0  0  0
  -36.7390  -28.5700   17.1480 C   0  0  0  0  0  1  0  0  0  0  0  0
  -38.9110  -29.5530   16.4720 C   0  0  0  0  0  1  0  0  0  0  0  0
  -37.8000  -32.2330   16.5660 N   0  0  0  0  0  0  0  0  0  0  0  0
  -37.8710  -33.0620   15.5150 C   0  0  0  0  0  0  0  0  0  0  0  0
  -37.2010  -32.9000   14.4930 O   0  0  0  0  0  0  0  0  0  0  0  0
  -38.3390  -32.4580   17.3900 H   0  0  0  0  0  0  0  0  0  0  0  0
  -38.0520  -35.5230   15.9960 C   0  0  0  0  0  1  0  0  0  0  0  0
  -38.8380  -34.2590   15.6150 C   0  0  0  0  0  3  0  0  0  0  0  0
  -40.5780  -33.4570   14.0800 C   0  0  0  0  0  1  0  0  0  0  0  0
  -39.6010  -34.5030   14.3710 N   0  0  0  0  0  0  0  0  0  0  0  0
  -40.0930  -35.3930   14.4160 H   0  0  0  0  0  0  0  0  0  0  0  0
  -30.3600  -17.0070   23.7910 O   0  0  0  0  0  0  0  0  0  0  0  0
  -30.0440  -17.8950   23.9250 H   0  0  0  0  0  0  0  0  0  0  0  0
  1  7  1  0
  1 17  1  0
  2  7  1  0
  3  4  1  0
  3  2  1  0
  5  4  1  0
  5 21  1  0
  5  6  1  0
  7  6  1  0
  8  1  2  0
 10  9  2  0
 11 15  2  0
 11 14  1  0
 12 16  2  0
 13  9  1  0
 13 16  1  0
 14 17  1  0
 14 13  2  0
 15 10  1  0
 16 93  1  0
 17 12  1  0
 18 19  2  0
 19 20  1  0
 19 38  1  0
 20 23  1  0
 21 18  1  0
 21 22  1  0
 22 20  2  0
 23 24  1  0
 24 25  2  0
 26 29  1  0
 26 25  1  0
 27 26  2  0
 28 27  1  0
 28 23  2  0
 29 30  1  0
 30 31  1  0
 31 32  2  0
 33 32  1  0
 33 37  1  0
 34 33  2  0
 35 30  2  0
 35 34  1  0
 36 35  1  0
 38 39  1  0
 39 42  1  0
 39 41  1  0
 40 38  2  0
 43 44  1  0
 43 18  1  0
 45 43  1  0
 46 47  1  0
 46 48  2  0
 47 15  1  0
 49 47  1  0
 50 51  2  0
 50 46  1  0
 52 54  1  0
 52 51  1  0
 53 64  2  0
 54 60  1  0
 55 65  1  0
 56 61  1  0
 56 62  1  0
 57 58  1  0
 57 63  1  0
 58 56  2  0
 59 54  2  0
 59 58  1  0
 60 61  2  0
 62 55  1  0
 63 53  1  0
 63 55  1  0
 65 67  2  0
 65 66  1  0
 68 66  1  0
 69 73  1  0
 69 78  1  0
 70 66  1  0
 70 71  1  0
 70 74  1  0
 72 71  1  0
 72 73  1  0
 74 69  2  0
 75 74  1  0
 75 76  2  0
 76 77  1  0
 77 78  2  0
 79 80  1  0
 79 53  1  0
 80 81  1  1
 82 80  1  0
 83 80  1  0
 84 79  1  0
 84 87  1  0
 85 89  1  0
 85 84  1  0
 86 85  2  0
 89 88  1  0
 90 91  1  0
 91 92  1  0
 91 89  1  0
 93 94  1  0
M  ISO  4   1 100  17 100  51 101  52 101
M  END
>  <TORSDO>  (65) 
F 19

>  <SCORE>  (65) 
-5.331

>  <name>  (65) 
64

>  <ligand_id>  (65) 
64

>  <original_smiles>  (65) 
[H]Oc1c([H])n(C(=O)N2C([H])([H])C([H])([H])C([H])([H])C([H])(n3nc(-c4c([H])c([H])c(Oc5c([H])c([H])c(F)c([H])c5F)c([H])c4[H])c(C(=O)N([H])[H])c3N([H])[H])C2([H])[H])c2c([H])c(N([H])C(=O)C([H])([H])C([H])([H])Oc3c([H])c([H])c4c(c3[H])C([H])([H])N(C(=O)C([H])(N([H])C(=O)C([H])(N([H])C([H])([H])[H])C([H])([H])[H])C(C([H])([H])[H])(C([H])([H])[H])C([H])([H])[H])C([H])(C(=O)N([H])C3([H])c5c([H])c([H])c([H])c([H])c5C([H])([H])C([H])([H])C3([H])[H])C4([H])[H])c([H])c([H])c12

>  <smiles>  (65) 
[H]Oc1c([H])n(C(=O)N2C([H])([H])C([H])([H])C([H])([H])C([H])(n3nc(-c4c([H])c([H])c(Oc5c([H])c([H])c(F)c([H])c5F)c([H])c4[H])c(C(=O)N([H])[H])c3N([H])[H])C2([H])[H])c2c([H])c(N([H])C(=O)C([H])([H])C([H])([H])Oc3c([H])c([H])c4c(c3[H])C([H])([H])N(C(=O)C([H])(N([H])C(=O)C([H])(N([H])C([H])([H])[H])C([H])([H])[H])C(C([H])([H])[H])(C([H])([H])[H])C([H])([H])[H])C([H])(C(=O)N([H])C3([H])c5c([H])c([H])c([H])c([H])c5C([H])([H])C([H])([H])C3([H])[H])C4([H])[H])c([H])c([H])c12

$$$$
66:0:0
     RDKit          3D

 98107  0  0  1  0  0  0  0  0999 V2000
  -31.7370  -17.8240   20.7690 C   0  0  0  0  0  3  0  0  0  0  0  0
  -29.5180  -18.6920   20.3100 C   0  0  0  0  0  3  0  0  0  0  0  0
  -32.2260  -19.1440   20.8210 C   0  0  0  0  0  0  0  0  0  0  0  0
  -29.9740  -20.0890   20.3690 C   0  0  0  0  0  0  0  0  0  0  0  0
  -30.3840  -17.5270   20.4970 C   0  0  0  0  0  0  0  0  0  0  0  0
  -31.3630  -20.2460   20.6330 C   0  0  0  0  0  0  0  0  0  0  0  0
  -31.9180  -21.4770   20.7110 F   0  0  0  0  0  0  0  0  0  0  0  0
  -30.6840  -14.9260   20.2360 C   0  0  0  0  0  0  0  0  0  0  0  0
  -30.4380  -12.6530   19.2270 C   0  0  0  0  0  2  0  0  0  0  0  0
  -29.4840  -12.7280   18.0170 C   0  0  0  0  0  2  0  0  0  0  0  0
  -28.0240  -12.5520   18.4730 C   0  0  0  0  0  2  0  0  0  0  0  0
  -27.6680  -13.4360   19.6990 C   0  0  0  0  0  3  0  0  0  0  0  0
  -28.7480  -13.3640   20.8010 C   0  0  0  0  0  2  0  0  0  0  0  0
  -30.0290  -13.7150   20.1780 N   0  0  0  0  0  0  0  0  0  0  0  0
  -31.8630  -14.9730   19.8790 O   0  0  0  0  0  0  0  0  0  0  0  0
  -29.9530  -16.0940   20.4640 N   0  0  0  0  0  0  0  0  0  0  0  0
  -28.9670  -15.9360   20.6010 H   0  0  0  0  0  0  0  0  0  0  0  0
  -25.2970  -14.0110   20.4830 C   0  0  0  0  0  0  0  0  0  0  0  0
  -24.2400  -13.2290   20.8620 C   0  0  0  0  0  0  0  0  0  0  0  0
  -24.7050  -11.8790   20.8030 C   0  0  0  0  0  0  0  0  0  0  0  0
  -26.3370  -13.1370   20.2130 N   0  0  0  0  0  0  0  0  0  0  0  0
  -25.9890  -11.8490   20.4700 N   0  0  0  0  0  0  0  0  0  0  0  0
  -23.9830  -10.6130   20.9860 C   0  0  0  0  0  0  0  0  0  0  0  0
  -24.4250   -9.6360   21.9040 C   0  0  0  0  0  3  0  0  0  0  0  0
  -23.7020   -8.4360   22.0780 C   0  0  0  0  0  3  0  0  0  0  0  0
  -22.5220   -8.2040   21.3330 C   0  0  0  0  0  0  0  0  0  0  0  0
  -22.0980   -9.1710   20.4030 C   0  0  0  0  0  3  0  0  0  0  0  0
  -22.8210  -10.3630   20.2280 C   0  0  0  0  0  3  0  0  0  0  0  0
  -21.7690   -7.0580   21.4150 O   0  0  0  0  0  0  0  0  0  0  0  0
  -21.7240   -6.3100   22.5640 C   0  0  0  0  0  0  0  0  0  0  0  0
  -21.2680   -6.8480   23.7870 C   0  0  0  0  0  3  0  0  0  0  0  0
  -21.1710   -6.0250   24.9260 C   0  0  0  0  0  3  0  0  0  0  0  0
  -21.5200   -4.6640   24.8440 C   0  0  0  0  0  0  0  0  0  0  0  0
  -21.9670   -4.1240   23.6250 C   0  0  0  0  0  3  0  0  0  0  0  0
  -22.0660   -4.9440   22.4880 C   0  0  0  0  0  0  0  0  0  0  0  0
  -22.4780   -4.4140   21.3120 F   0  0  0  0  0  0  0  0  0  0  0  0
  -21.4190   -3.8700   25.9360 F   0  0  0  0  0  0  0  0  0  0  0  0
  -22.8480  -13.7010   21.1650 C   0  0  0  0  0  0  0  0  0  0  0  0
  -22.1390  -12.9970   22.0410 N   0  0  0  0  0  0  0  0  0  0  0  0
  -22.3980  -14.7290   20.6600 O   0  0  0  0  0  0  0  0  0  0  0  0
  -22.5170  -12.1670   22.4700 H   0  0  0  0  0  0  0  0  0  0  0  0
  -21.2060  -13.2970   22.2870 H   0  0  0  0  0  0  0  0  0  0  0  0
  -25.4530  -15.3840   20.3200 N   0  0  0  0  0  0  0  0  0  0  0  0
  -24.6800  -16.0280   20.4450 H   0  0  0  0  0  0  0  0  0  0  0  0
  -26.2780  -15.8300   19.9410 H   0  0  0  0  0  0  0  0  0  0  0  0
  -27.8720  -21.4180   19.7300 C   0  0  0  0  0  0  0  0  0  0  0  0
  -27.3080  -22.8580   19.7460 C   0  0  0  0  0  2  0  0  0  0  0  0
  -29.5240  -22.7680   20.5190 C   0  0  0  0  0  2  0  0  0  0  0  0
  -28.5030  -23.8310   19.9060 C   0  0  1  0  0  0  0  0  0  0  0  0
  -29.0110  -24.2730   18.5170 C   0  0  0  0  0  1  0  0  0  0  0  0
  -29.1400  -21.3370   20.1810 N   0  0  0  0  0  0  0  0  0  0  0  0
  -27.1820  -20.4750   19.3350 O   0  0  0  0  0  0  0  0  0  0  0  0
  -28.1580  -25.1770   20.7590 C   0  0  0  0  0  2  0  0  0  0  0  0
  -28.3110  -26.5810   20.2530 O   0  0  0  0  0  0  0  0  0  0  0  0
  -24.5230  -31.9720   23.3120 C   0  0  0  0  0  0  0  0  0  0  0  0
  -27.1940  -27.4370   20.2540 C   0  0  0  0  0  0  0  0  0  0  0  0
  -23.3450  -30.5740   21.6520 C   0  0  0  0  0  3  0  0  0  0  0  0
  -24.8190  -29.0400   20.2270 C   0  0  0  0  0  0  0  0  0  0  0  0
  -25.8820  -30.9150   21.4850 C   0  0  0  0  0  2  0  0  0  0  0  0
  -25.9810  -29.5370   20.8330 C   0  0  0  0  0  0  0  0  0  0  0  0
  -27.1750  -28.7500   20.8280 C   0  0  0  0  0  3  0  0  0  0  0  0
  -26.0100  -26.9940   19.6310 C   0  0  0  0  0  3  0  0  0  0  0  0
  -24.8380  -27.7750   19.6140 C   0  0  0  0  0  3  0  0  0  0  0  0
  -23.5750  -29.9060   20.2700 C   0  0  0  0  0  2  0  0  0  0  0  0
  -24.6020  -31.1720   22.2070 N   0  0  0  0  0  0  0  0  0  0  0  0
  -23.4330  -32.2340   23.8420 O   0  0  0  0  0  0  0  0  0  0  0  0
  -22.6830  -29.5460   22.6020 C   0  0  0  0  0  0  0  0  0  0  0  0
  -21.3590  -29.3610   22.4680 N   0  0  0  0  0  0  0  0  0  0  0  0
  -23.3620  -28.9170   23.4170 O   0  0  0  0  0  0  0  0  0  0  0  0
  -20.8700  -29.9230   21.7840 H   0  0  0  0  0  0  0  0  0  0  0  0
  -17.9860  -28.1420   22.9460 C   0  0  0  0  0  0  0  0  0  0  0  0
  -20.5420  -28.4110   23.2250 C   0  0  0  0  0  3  0  0  0  0  0  0
  -20.6520  -26.9860   22.6320 C   0  0  0  0  0  2  0  0  0  0  0  0
  -19.5530  -26.6700   21.6110 C   0  0  0  0  0  2  0  0  0  0  0  0
  -18.1700  -26.8010   22.2540 C   0  0  0  0  0  2  0  0  0  0  0  0
  -19.0990  -28.9040   23.3880 C   0  0  0  0  0  0  0  0  0  0  0  0
  -18.8720  -30.1590   23.9950 C   0  0  0  0  0  3  0  0  0  0  0  0
  -17.5650  -30.6510   24.1640 C   0  0  0  0  0  3  0  0  0  0  0  0
  -16.4650  -29.8850   23.7400 C   0  0  0  0  0  3  0  0  0  0  0  0
  -16.6760  -28.6330   23.1360 C   0  0  0  0  0  3  0  0  0  0  0  0
  -25.7930  -32.6130   23.9490 C   0  0  0  0  0  3  0  0  0  0  0  0
  -26.2680  -31.8760   25.2620 C   0  0  1  0  0  0  0  0  0  0  0  0
  -25.1430  -31.6730   26.3040 C   0  0  0  0  0  1  0  0  0  0  0  0
  -26.8560  -30.4870   24.9240 C   0  0  0  0  0  1  0  0  0  0  0  0
  -27.4040  -32.6840   25.9340 C   0  0  0  0  0  1  0  0  0  0  0  0
  -25.4860  -34.0230   24.2310 N   0  0  0  0  0  0  0  0  0  0  0  0
  -25.8530  -35.0530   23.4580 C   0  0  0  0  0  0  0  0  0  0  0  0
  -26.5540  -34.9170   22.4510 O   0  0  0  0  0  0  0  0  0  0  0  0
  -24.8700  -34.2010   25.0110 H   0  0  0  0  0  0  0  0  0  0  0  0
  -24.1660  -36.8610   22.9950 C   0  0  0  0  0  1  0  0  0  0  0  0
  -25.3670  -36.4570   23.8640 C   0  0  0  0  0  3  0  0  0  0  0  0
  -27.4760  -37.3380   24.7650 C   0  0  0  0  0  1  0  0  0  0  0  0
  -26.4190  -37.4940   23.7710 N   0  0  0  0  0  0  0  0  0  0  0  0
  -26.0190  -38.4230   23.8780 H   0  0  0  0  0  0  0  0  0  0  0  0
  -33.7120  -19.3920   21.0720 C   0  0  1  0  0  0  0  0  0  0  0  0
  -34.3940  -18.2570   21.2390 F   0  0  0  0  0  0  0  0  0  0  0  0
  -34.2390  -20.0340   20.0300 F   0  0  0  0  0  0  0  0  0  0  0  0
  -33.8890  -20.1310   22.1680 F   0  0  0  0  0  0  0  0  0  0  0  0
  1  3  1  0
  2  4  2  0
  2  5  1  0
  3 95  1  0
  4  6  1  0
  5  1  2  0
  6  7  1  0
  6  3  2  0
  8 16  1  0
  9 14  1  0
 10 11  1  0
 10  9  1  0
 12 11  1  0
 12 21  1  0
 12 13  1  0
 14  8  1  0
 14 13  1  0
 15  8  2  0
 16  5  1  0
 16 17  1  0
 18 19  2  0
 19 38  1  0
 20 19  1  0
 20 23  1  0
 21 22  1  0
 21 18  1  0
 22 20  2  0
 23 24  1  0
 24 25  2  0
 26 29  1  0
 26 25  1  0
 27 26  2  0
 28 27  1  0
 28 23  2  0
 29 30  1  0
 30 31  1  0
 31 32  2  0
 33 32  1  0
 33 37  1  0
 34 33  2  0
 35 30  2  0
 35 34  1  0
 36 35  1  0
 38 39  1  0
 39 42  1  0
 39 41  1  0
 40 38  2  0
 43 44  1  0
 43 18  1  0
 45 43  1  0
 46 47  1  0
 46 51  1  0
 47 49  1  0
 49 50  1  6
 49 48  1  0
 49 53  1  0
 51  4  1  0
 51 48  1  0
 52 46  2  0
 54 56  1  0
 54 53  1  0
 55 66  2  0
 56 61  1  0
 57 65  1  0
 57 67  1  0
 58 64  1  0
 58 60  1  0
 59 65  1  0
 60 59  1  0
 61 60  2  0
 62 56  2  0
 63 62  1  0
 63 58  2  0
 64 57  1  0
 65 55  1  0
 67 69  2  0
 68 67  1  0
 70 68  1  0
 71 80  2  0
 71 76  1  0
 72 68  1  0
 72 76  1  0
 73 72  1  0
 74 75  1  0
 74 73  1  0
 75 71  1  0
 76 77  2  0
 77 78  1  0
 79 78  2  0
 80 79  1  0
 81 55  1  0
 81 86  1  0
 81 82  1  0
 82 85  1  1
 82 83  1  0
 84 82  1  0
 86 89  1  0
 87 91  1  0
 87 86  1  0
 88 87  2  0
 91 90  1  0
 93 91  1  0
 93 94  1  0
 93 92  1  0
 95 96  1  1
 95 98  1  0
 97 95  1  0
M  ISO  4   8 100  16 100  53 101  54 101
M  END
>  <TORSDO>  (66) 
F 19

>  <SCORE>  (66) 
-14.393

>  <name>  (66) 
66

>  <ligand_id>  (66) 
66

>  <original_smiles>  (66) 
[H]c1c([H])c([H])c2c(c1[H])C([H])([H])C([H])([H])C([H])([H])C2([H])N([H])C(=O)C1([H])N(C(=O)C([H])(N([H])C(=O)C([H])(N([H])C([H])([H])[H])C([H])([H])[H])C(C([H])([H])[H])(C([H])([H])[H])C([H])([H])[H])C([H])([H])c2c([H])c(OC([H])([H])C3(C([H])([H])[H])C([H])([H])C(=O)N(c4c([H])c(N([H])C(=O)N5C([H])([H])C([H])([H])C([H])([H])C([H])(n6nc(-c7c([H])c([H])c(Oc8c([H])c([H])c(F)c([H])c8F)c([H])c7[H])c(C(=O)N([H])[H])c6N([H])[H])C5([H])[H])c([H])c(C(F)(F)F)c4F)C3([H])[H])c([H])c([H])c2C1([H])[H]

>  <smiles>  (66) 
[H]c1c([H])c([H])c2c(c1[H])C([H])([H])C([H])([H])C([H])([H])C2([H])N([H])C(=O)C1([H])N(C(=O)C([H])(N([H])C(=O)C([H])(N([H])C([H])([H])[H])C([H])([H])[H])C(C([H])([H])[H])(C([H])([H])[H])C([H])([H])[H])C([H])([H])c2c([H])c(OC([H])([H])C3(C([H])([H])[H])C([H])([H])C(=O)N(c4c([H])c(N([H])C(=O)N5C([H])([H])C([H])([H])C([H])([H])C([H])(n6nc(-c7c([H])c([H])c(Oc8c([H])c([H])c(F)c([H])c8F)c([H])c7[H])c(C(=O)N([H])[H])c6N([H])[H])C5([H])[H])c([H])c(C(F)(F)F)c4F)C3([H])[H])c([H])c([H])c2C1([H])[H]

$$$$
67:0:0
     RDKit          3D

 95104  0  0  1  0  0  0  0  0999 V2000
  -28.4750  -22.1860   20.4200 C   0  0  0  0  0  0  0  0  0  0  0  0
  -30.7260  -22.0080   20.1220 C   0  0  0  0  0  2  0  0  0  0  0  0
  -28.9750  -23.6920   20.5610 C   0  0  0  0  0  3  0  0  0  0  0  0
  -30.3620  -23.5150   19.9220 C   0  0  0  0  0  3  0  0  0  0  0  0
  -29.4770  -21.2490   20.2490 N   0  0  0  0  0  0  0  0  0  0  0  0
  -27.2770  -21.9050   20.4990 O   0  0  0  0  0  0  0  0  0  0  0  0
  -29.2350  -18.2970   17.8610 C   0  0  0  0  0  3  0  0  0  0  0  0
  -29.5040  -17.1630   18.6490 C   0  0  0  0  0  3  0  0  0  0  0  0
  -29.6670  -18.6220   20.5900 C   0  0  0  0  0  3  0  0  0  0  0  0
  -29.1910  -19.6000   18.4000 C   0  0  0  0  0  0  0  0  0  0  0  0
  -29.4070  -19.8240   19.7890 C   0  0  0  0  0  0  0  0  0  0  0  0
  -29.7300  -17.2640   20.0370 C   0  0  0  0  0  0  0  0  0  0  0  0
  -28.9200  -20.7460   17.4320 C   0  0  0  0  0  1  0  0  0  0  0  0
  -30.5970  -14.8370   20.4360 C   0  0  0  0  0  0  0  0  0  0  0  0
  -30.4270  -12.5430   19.4680 C   0  0  0  0  0  2  0  0  0  0  0  0
  -29.5200  -12.6180   18.2180 C   0  0  0  0  0  2  0  0  0  0  0  0
  -28.0400  -12.4450   18.6070 C   0  0  0  0  0  2  0  0  0  0  0  0
  -27.6370  -13.3230   19.8220 C   0  0  0  0  0  3  0  0  0  0  0  0
  -28.6730  -13.2430   20.9680 C   0  0  0  0  0  2  0  0  0  0  0  0
  -29.9830  -13.6000   20.4110 N   0  0  0  0  0  0  0  0  0  0  0  0
  -31.7680  -14.9390   20.0540 O   0  0  0  0  0  0  0  0  0  0  0  0
  -29.8640  -15.9730   20.7750 N   0  0  0  0  0  0  0  0  0  0  0  0
  -29.0720  -15.7610   21.3620 H   0  0  0  0  0  0  0  0  0  0  0  0
  -25.2280  -13.9030   20.4880 C   0  0  0  0  0  0  0  0  0  0  0  0
  -24.1570  -13.1300   20.8430 C   0  0  0  0  0  0  0  0  0  0  0  0
  -24.6280  -11.7800   20.8390 C   0  0  0  0  0  0  0  0  0  0  0  0
  -26.2830  -13.0270   20.2840 N   0  0  0  0  0  0  0  0  0  0  0  0
  -25.9260  -11.7460   20.5570 N   0  0  0  0  0  0  0  0  0  0  0  0
  -23.9000  -10.5180   21.0310 C   0  0  0  0  0  0  0  0  0  0  0  0
  -24.3220   -9.5580   21.9760 C   0  0  0  0  0  3  0  0  0  0  0  0
  -23.5940   -8.3620   22.1550 C   0  0  0  0  0  3  0  0  0  0  0  0
  -22.4300   -8.1180   21.3880 C   0  0  0  0  0  0  0  0  0  0  0  0
  -22.0270   -9.0670   20.4330 C   0  0  0  0  0  3  0  0  0  0  0  0
  -22.7560  -10.2540   20.2530 C   0  0  0  0  0  3  0  0  0  0  0  0
  -21.6770   -6.9710   21.4750 O   0  0  0  0  0  0  0  0  0  0  0  0
  -21.6180   -6.2300   22.6280 C   0  0  0  0  0  0  0  0  0  0  0  0
  -21.1830   -6.7880   23.8500 C   0  0  0  0  0  3  0  0  0  0  0  0
  -21.0700   -5.9760   24.9950 C   0  0  0  0  0  3  0  0  0  0  0  0
  -21.3860   -4.6050   24.9210 C   0  0  0  0  0  0  0  0  0  0  0  0
  -21.8170   -4.0460   23.7040 C   0  0  0  0  0  3  0  0  0  0  0  0
  -21.9290   -4.8570   22.5600 C   0  0  0  0  0  0  0  0  0  0  0  0
  -22.3220   -4.3090   21.3850 F   0  0  0  0  0  0  0  0  0  0  0  0
  -21.2720   -3.8220   26.0180 F   0  0  0  0  0  0  0  0  0  0  0  0
  -22.7530  -13.6080   21.0800 C   0  0  0  0  0  0  0  0  0  0  0  0
  -22.0080  -12.9210   21.9380 N   0  0  0  0  0  0  0  0  0  0  0  0
  -22.3230  -14.6250   20.5390 O   0  0  0  0  0  0  0  0  0  0  0  0
  -22.3620  -12.0950   22.3990 H   0  0  0  0  0  0  0  0  0  0  0  0
  -21.0700  -13.2300   22.1440 H   0  0  0  0  0  0  0  0  0  0  0  0
  -25.3920  -15.2740   20.3020 N   0  0  0  0  0  0  0  0  0  0  0  0
  -24.6270  -15.9330   20.3900 H   0  0  0  0  0  0  0  0  0  0  0  0
  -26.2560  -15.7110   20.0040 H   0  0  0  0  0  0  0  0  0  0  0  0
  -32.7020  -24.5130   19.5970 C   0  0  0  0  0  1  0  0  0  0  0  0
  -31.4330  -24.4860   20.4600 C   0  0  0  0  0  2  0  0  0  0  0  0
  -28.0510  -24.9200   20.0050 C   0  0  0  0  0  2  0  0  0  0  0  0
  -28.2820  -26.3950   20.2670 O   0  0  0  0  0  0  0  0  0  0  0  0
  -24.6090  -31.9120   23.2690 C   0  0  0  0  0  0  0  0  0  0  0  0
  -27.1920  -27.3050   20.1940 C   0  0  0  0  0  0  0  0  0  0  0  0
  -23.3960  -30.5190   21.6340 C   0  0  0  0  0  3  0  0  0  0  0  0
  -24.8360  -28.9700   20.1900 C   0  0  0  0  0  0  0  0  0  0  0  0
  -25.9400  -30.8200   21.4430 C   0  0  0  0  0  2  0  0  0  0  0  0
  -26.0140  -29.4400   20.7860 C   0  0  0  0  0  0  0  0  0  0  0  0
  -27.1930  -28.6220   20.7750 C   0  0  0  0  0  3  0  0  0  0  0  0
  -25.9890  -26.9150   19.5560 C   0  0  0  0  0  3  0  0  0  0  0  0
  -24.8300  -27.7150   19.5660 C   0  0  0  0  0  3  0  0  0  0  0  0
  -23.6020  -29.8520   20.2500 C   0  0  0  0  0  2  0  0  0  0  0  0
  -24.6680  -31.1020   22.1710 N   0  0  0  0  0  0  0  0  0  0  0  0
  -23.5280  -32.1940   23.8070 O   0  0  0  0  0  0  0  0  0  0  0  0
  -22.7340  -29.5020   22.5960 C   0  0  0  0  0  0  0  0  0  0  0  0
  -21.4080  -29.3190   22.4690 N   0  0  0  0  0  0  0  0  0  0  0  0
  -23.4120  -28.8820   23.4180 O   0  0  0  0  0  0  0  0  0  0  0  0
  -20.9180  -29.8720   21.7790 H   0  0  0  0  0  0  0  0  0  0  0  0
  -18.0370  -28.0960   22.9630 C   0  0  0  0  0  0  0  0  0  0  0  0
  -20.5930  -28.3820   23.2430 C   0  0  0  0  0  3  0  0  0  0  0  0
  -20.7100  -26.9470   22.6810 C   0  0  0  0  0  2  0  0  0  0  0  0
  -19.6160  -26.6060   21.6630 C   0  0  0  0  0  2  0  0  0  0  0  0
  -18.2290  -26.7440   22.2980 C   0  0  0  0  0  2  0  0  0  0  0  0
  -19.1470  -28.8730   23.3930 C   0  0  0  0  0  0  0  0  0  0  0  0
  -18.9140  -30.1350   23.9780 C   0  0  0  0  0  3  0  0  0  0  0  0
  -17.6030  -30.6240   24.1370 C   0  0  0  0  0  3  0  0  0  0  0  0
  -16.5090  -29.8470   23.7210 C   0  0  0  0  0  3  0  0  0  0  0  0
  -16.7260  -28.5840   23.1410 C   0  0  0  0  0  3  0  0  0  0  0  0
  -25.8950  -32.5440   23.8860 C   0  0  0  0  0  3  0  0  0  0  0  0
  -26.4070  -31.7790   25.1670 C   0  0  1  0  0  0  0  0  0  0  0  0
  -25.3130  -31.5600   26.2380 C   0  0  0  0  0  1  0  0  0  0  0  0
  -26.9840  -30.3950   24.7910 C   0  0  0  0  0  1  0  0  0  0  0  0
  -27.5650  -32.5730   25.8190 C   0  0  0  0  0  1  0  0  0  0  0  0
  -25.5900  -33.9440   24.2090 N   0  0  0  0  0  0  0  0  0  0  0  0
  -25.9230  -34.9940   23.4460 C   0  0  0  0  0  0  0  0  0  0  0  0
  -26.5890  -34.8850   22.4120 O   0  0  0  0  0  0  0  0  0  0  0  0
  -25.0000  -34.1040   25.0130 H   0  0  0  0  0  0  0  0  0  0  0  0
  -24.1990  -36.7940   23.0950 C   0  0  0  0  0  1  0  0  0  0  0  0
  -25.4450  -36.3880   23.9000 C   0  0  0  0  0  3  0  0  0  0  0  0
  -27.5870  -37.2660   24.7160 C   0  0  0  0  0  1  0  0  0  0  0  0
  -26.4820  -37.4350   23.7780 N   0  0  0  0  0  0  0  0  0  0  0  0
  -26.0800  -38.3580   23.9260 H   0  0  0  0  0  0  0  0  0  0  0  0
  1  6  2  0
  1  3  1  0
  2  5  1  0
  3 54  1  0
  4  2  1  0
  4 53  1  0
  4  3  1  0
  5  1  1  0
  7 10  2  0
  7  8  1  0
  8 12  2  0
 10 11  1  0
 11  5  1  0
 11  9  2  0
 12  9  1  0
 12 22  1  0
 13 10  1  0
 14 22  1  0
 15 20  1  0
 16 17  1  0
 16 15  1  0
 18 17  1  0
 18 27  1  0
 18 19  1  0
 20 14  1  0
 20 19  1  0
 21 14  2  0
 22 23  1  0
 24 25  2  0
 25 44  1  0
 26 25  1  0
 26 29  1  0
 27 24  1  0
 27 28  1  0
 28 26  2  0
 29 30  1  0
 30 31  2  0
 32 35  1  0
 32 31  1  0
 33 32  2  0
 34 33  1  0
 34 29  2  0
 35 36  1  0
 36 37  1  0
 37 38  2  0
 39 38  1  0
 39 43  1  0
 40 39  2  0
 41 36  2  0
 41 40  1  0
 42 41  1  0
 44 45  1  0
 45 48  1  0
 45 47  1  0
 46 44  2  0
 49 50  1  0
 49 24  1  0
 51 49  1  0
 52 53  1  0
 54 55  1  0
 56 67  2  0
 57 55  1  0
 57 62  1  0
 58 66  1  0
 58 68  1  0
 59 65  1  0
 59 61  1  0
 60 66  1  0
 61 60  1  0
 62 61  2  0
 63 64  1  0
 63 57  2  0
 64 59  2  0
 65 58  1  0
 66 56  1  0
 68 70  2  0
 69 68  1  0
 71 69  1  0
 72 81  2  0
 72 77  1  0
 73 69  1  0
 73 77  1  0
 74 73  1  0
 75 76  1  0
 75 74  1  0
 76 72  1  0
 77 78  2  0
 78 79  1  0
 80 79  2  0
 81 80  1  0
 82 56  1  0
 82 87  1  0
 82 83  1  0
 83 86  1  1
 83 84  1  0
 85 83  1  0
 87 90  1  0
 88 92  1  0
 88 87  1  0
 89 88  2  0
 92 91  1  0
 94 92  1  0
 94 95  1  0
 94 93  1  0
M  ISO  4  14 100  22 100  54 101  55 101
M  END
>  <TORSDO>  (67) 
F 19

>  <SCORE>  (67) 
-14.334

>  <name>  (67) 
67

>  <ligand_id>  (67) 
67

>  <original_smiles>  (67) 
[H]c1c([H])c([H])c2c(c1[H])C([H])([H])C([H])([H])C([H])([H])C2([H])N([H])C(=O)C1([H])N(C(=O)C([H])(N([H])C(=O)C([H])(N([H])C([H])([H])[H])C([H])([H])[H])C(C([H])([H])[H])(C([H])([H])[H])C([H])([H])[H])C([H])([H])c2c([H])c(OC([H])([H])C3([H])C(=O)N(c4c([H])c(N([H])C(=O)N5C([H])([H])C([H])([H])C([H])([H])C([H])(n6nc(-c7c([H])c([H])c(Oc8c([H])c([H])c(F)c([H])c8F)c([H])c7[H])c(C(=O)N([H])[H])c6N([H])[H])C5([H])[H])c([H])c([H])c4C([H])([H])[H])C([H])([H])C3([H])C([H])([H])C([H])([H])[H])c([H])c([H])c2C1([H])[H]

>  <smiles>  (67) 
[H]c1c([H])c([H])c2c(c1[H])C([H])([H])C([H])([H])C([H])([H])C2([H])N([H])C(=O)C1([H])N(C(=O)C([H])(N([H])C(=O)C([H])(N([H])C([H])([H])[H])C([H])([H])[H])C(C([H])([H])[H])(C([H])([H])[H])C([H])([H])[H])C([H])([H])c2c([H])c(OC([H])([H])C3([H])C(=O)N(c4c([H])c(N([H])C(=O)N5C([H])([H])C([H])([H])C([H])([H])C([H])(n6nc(-c7c([H])c([H])c(Oc8c([H])c([H])c(F)c([H])c8F)c([H])c7[H])c(C(=O)N([H])[H])c6N([H])[H])C5([H])[H])c([H])c([H])c4C([H])([H])[H])C([H])([H])C3([H])C([H])([H])C([H])([H])[H])c([H])c([H])c2C1([H])[H]

$$$$
68:0:0
     RDKit          3D

 99108  0  0  1  0  0  0  0  0999 V2000
  -29.6210  -21.6970   19.4430 C   0  0  0  0  0  2  0  0  0  0  0  0
  -30.0590  -20.4980   19.9700 C   0  0  0  0  0  0  0  0  0  0  0  0
  -30.2120  -22.9700   21.3830 C   0  0  0  0  0  0  0  0  0  0  0  0
  -30.7780  -21.6130   21.9820 C   0  0  0  0  0  0  0  0  0  0  0  0
  -29.7240  -22.9250   20.1140 N   0  0  0  0  0  0  0  0  0  0  0  0
  -30.7130  -20.4690   21.2330 N   0  0  0  0  0  0  0  0  0  0  0  0
  -29.9630  -19.3380   19.5180 O   0  0  0  0  0  0  0  0  0  0  0  0
  -30.2510  -24.0000   22.0750 O   0  0  0  0  0  0  0  0  0  0  0  0
  -31.3130  -21.6430   23.1000 O   0  0  0  0  0  0  0  0  0  0  0  0
  -28.1860  -24.8190   19.5920 C   0  0  0  0  0  3  0  0  0  0  0  0
  -27.8690  -25.9550   18.8150 C   0  0  0  0  0  3  0  0  0  0  0  0
  -30.2580  -24.5690   18.3660 C   0  0  0  0  0  3  0  0  0  0  0  0
  -29.9800  -25.7290   17.5970 C   0  0  0  0  0  0  0  0  0  0  0  0
  -29.3840  -24.1060   19.3710 C   0  0  0  0  0  0  0  0  0  0  0  0
  -28.7480  -26.4300   17.8040 C   0  0  0  0  0  0  0  0  0  0  0  0
  -27.4730  -28.5140   17.0760 C   0  0  0  0  0  0  0  0  0  0  0  0
  -25.8040  -29.7790   15.7590 C   0  0  0  0  0  2  0  0  0  0  0  0
  -24.6960  -28.8130   15.2870 C   0  0  0  0  0  2  0  0  0  0  0  0
  -25.0950  -28.1010   13.9780 C   0  0  0  0  0  2  0  0  0  0  0  0
  -26.5260  -27.5050   14.0320 C   0  0  0  0  0  3  0  0  0  0  0  0
  -27.5210  -28.5650   14.5540 C   0  0  0  0  0  2  0  0  0  0  0  0
  -27.0550  -29.0150   15.8800 N   0  0  0  0  0  0  0  0  0  0  0  0
  -27.0000  -28.8900   18.1550 O   0  0  0  0  0  0  0  0  0  0  0  0
  -28.4200  -27.5600   16.9740 N   0  0  0  0  0  0  0  0  0  0  0  0
  -28.8340  -27.5160   16.0510 H   0  0  0  0  0  0  0  0  0  0  0  0
  -27.1510  -25.6550   12.3500 C   0  0  0  0  0  0  0  0  0  0  0  0
  -27.4450  -25.6950   11.0130 C   0  0  0  0  0  0  0  0  0  0  0  0
  -27.3790  -27.0720   10.6370 C   0  0  0  0  0  0  0  0  0  0  0  0
  -26.9330  -26.9700   12.7330 N   0  0  0  0  0  0  0  0  0  0  0  0
  -27.1230  -27.8280   11.6970 N   0  0  0  0  0  0  0  0  0  0  0  0
  -27.4890  -27.7100    9.3190 C   0  0  0  0  0  0  0  0  0  0  0  0
  -28.5800  -28.5440    8.9910 C   0  0  0  0  0  3  0  0  0  0  0  0
  -28.6730  -29.1310    7.7120 C   0  0  0  0  0  3  0  0  0  0  0  0
  -27.6720  -28.8840    6.7430 C   0  0  0  0  0  0  0  0  0  0  0  0
  -26.5760  -28.0710    7.0820 C   0  0  0  0  0  3  0  0  0  0  0  0
  -26.4830  -27.4910    8.3590 C   0  0  0  0  0  3  0  0  0  0  0  0
  -27.6660  -29.4330    5.4830 O   0  0  0  0  0  0  0  0  0  0  0  0
  -28.8060  -29.5040    4.7230 C   0  0  0  0  0  0  0  0  0  0  0  0
  -29.5050  -28.3470    4.3180 C   0  0  0  0  0  3  0  0  0  0  0  0
  -30.6330  -28.4620    3.4800 C   0  0  0  0  0  3  0  0  0  0  0  0
  -31.0570  -29.7310    3.0400 C   0  0  0  0  0  0  0  0  0  0  0  0
  -30.3580  -30.8830    3.4380 C   0  0  0  0  0  3  0  0  0  0  0  0
  -29.2340  -30.7700    4.2760 C   0  0  0  0  0  0  0  0  0  0  0  0
  -28.5530  -31.8830    4.6390 F   0  0  0  0  0  0  0  0  0  0  0  0
  -32.1350  -29.8420    2.2290 F   0  0  0  0  0  0  0  0  0  0  0  0
  -27.6830  -24.5190   10.1120 C   0  0  0  0  0  0  0  0  0  0  0  0
  -28.5010  -24.6920    9.0790 N   0  0  0  0  0  0  0  0  0  0  0  0
  -27.1810  -23.4200   10.3470 O   0  0  0  0  0  0  0  0  0  0  0  0
  -28.9280  -25.5880    8.8960 H   0  0  0  0  0  0  0  0  0  0  0  0
  -28.7020  -23.9180    8.4630 H   0  0  0  0  0  0  0  0  0  0  0  0
  -27.0300  -24.6120   13.2650 N   0  0  0  0  0  0  0  0  0  0  0  0
  -27.1400  -23.6400   12.9990 H   0  0  0  0  0  0  0  0  0  0  0  0
  -26.7880  -24.7350   14.2400 H   0  0  0  0  0  0  0  0  0  0  0  0
  -30.9910  -26.1380   16.5640 C   0  0  0  0  0  0  0  0  0  0  0  0
  -32.4050  -26.4610   17.0420 C   0  0  0  0  0  1  0  0  0  0  0  0
  -30.7410  -26.2660   15.3630 O   0  0  0  0  0  0  0  0  0  0  0  0
  -31.5120  -19.2810   21.7030 C   0  0  0  0  0  2  0  0  0  0  0  0
  -30.7110  -18.1100   22.3340 C   0  0  0  0  0  2  0  0  0  0  0  0
  -30.2100  -17.1900   21.3650 O   0  0  0  0  0  0  0  0  0  0  0  0
  -36.2090  -13.2510   21.0750 C   0  0  0  0  0  0  0  0  0  0  0  0
  -31.1010  -16.3990   20.6690 C   0  0  0  0  0  0  0  0  0  0  0  0
  -35.1280  -13.7800   18.9130 C   0  0  0  0  0  3  0  0  0  0  0  0
  -32.7890  -14.7890   19.0660 C   0  0  0  0  0  0  0  0  0  0  0  0
  -33.7460  -13.6260   21.0590 C   0  0  0  0  0  2  0  0  0  0  0  0
  -32.8070  -14.6510   20.4600 C   0  0  0  0  0  0  0  0  0  0  0  0
  -31.9660  -15.4520   21.2690 C   0  0  0  0  0  3  0  0  0  0  0  0
  -31.0840  -16.5110   19.2650 C   0  0  0  0  0  3  0  0  0  0  0  0
  -31.9280  -15.7220   18.4620 C   0  0  0  0  0  3  0  0  0  0  0  0
  -33.7170  -13.8930   18.2750 C   0  0  0  0  0  2  0  0  0  0  0  0
  -35.0690  -13.5620   20.3950 N   0  0  0  0  0  0  0  0  0  0  0  0
  -37.2880  -13.1050   20.4840 O   0  0  0  0  0  0  0  0  0  0  0  0
  -35.9530  -15.0230   18.5100 C   0  0  0  0  0  0  0  0  0  0  0  0
  -36.5020  -15.0040   17.2850 N   0  0  0  0  0  0  0  0  0  0  0  0
  -36.0660  -15.9820   19.2780 O   0  0  0  0  0  0  0  0  0  0  0  0
  -36.3690  -14.1790   16.7190 H   0  0  0  0  0  0  0  0  0  0  0  0
  -38.4640  -15.8950   14.3870 C   0  0  0  0  0  0  0  0  0  0  0  0
  -37.2870  -16.0800   16.6800 C   0  0  0  0  0  3  0  0  0  0  0  0
  -36.3700  -17.1280   16.0100 C   0  0  0  0  0  2  0  0  0  0  0  0
  -36.1270  -16.8560   14.5240 C   0  0  0  0  0  2  0  0  0  0  0  0
  -37.4520  -16.8380   13.7570 C   0  0  0  0  0  2  0  0  0  0  0  0
  -38.3770  -15.5270   15.7550 C   0  0  0  0  0  0  0  0  0  0  0  0
  -39.3210  -14.6190   16.2820 C   0  0  0  0  0  3  0  0  0  0  0  0
  -40.3410  -14.0870   15.4690 C   0  0  0  0  0  3  0  0  0  0  0  0
  -40.4320  -14.4680   14.1190 C   0  0  0  0  0  3  0  0  0  0  0  0
  -39.4980  -15.3720   13.5810 C   0  0  0  0  0  3  0  0  0  0  0  0
  -36.2080  -13.0430   22.6230 C   0  0  0  0  0  3  0  0  0  0  0  0
  -36.9870  -14.1710   23.4030 C   0  0  1  0  0  0  0  0  0  0  0  0
  -38.4100  -14.4350   22.8560 C   0  0  0  0  0  1  0  0  0  0  0  0
  -36.2050  -15.5050   23.3560 C   0  0  0  0  0  1  0  0  0  0  0  0
  -37.1130  -13.7850   24.8960 C   0  0  0  0  0  1  0  0  0  0  0  0
  -36.7930  -11.7240   22.8930 N   0  0  0  0  0  0  0  0  0  0  0  0
  -36.0850  -10.6140   23.1370 C   0  0  0  0  0  0  0  0  0  0  0  0
  -34.8540  -10.6100   23.2320 O   0  0  0  0  0  0  0  0  0  0  0  0
  -37.7930  -11.6420   22.7830 H   0  0  0  0  0  0  0  0  0  0  0  0
  -36.7960   -8.4890   21.9940 C   0  0  0  0  0  1  0  0  0  0  0  0
  -36.8660   -9.2950   23.3020 C   0  0  0  0  0  3  0  0  0  0  0  0
  -36.6780   -9.0450   25.7360 C   0  0  0  0  0  1  0  0  0  0  0  0
  -36.3900   -8.4630   24.4280 N   0  0  0  0  0  0  0  0  0  0  0  0
  -36.8080   -7.5370   24.3930 H   0  0  0  0  0  0  0  0  0  0  0  0
  1  2  1  0
  1  5  1  0
  2  6  1  0
  3  4  1  0
  3  8  2  0
  4  9  2  0
  5  3  1  0
  6 57  1  0
  6  4  1  0
  7  2  2  0
 11 10  2  0
 12 14  2  0
 13 15  2  0
 13 12  1  0
 14 10  1  0
 14  5  1  0
 15 11  1  0
 16 23  2  0
 17 22  1  0
 18 17  1  0
 19 20  1  0
 19 18  1  0
 20 29  1  0
 20 21  1  0
 21 22  1  0
 22 16  1  0
 24 16  1  0
 24 15  1  0
 25 24  1  0
 26 29  1  0
 26 51  1  0
 27 26  2  0
 28 27  1  0
 28 30  2  0
 30 29  1  0
 31 28  1  0
 32 31  1  0
 33 32  2  0
 34 35  2  0
 34 33  1  0
 35 36  1  0
 36 31  2  0
 37 34  1  0
 38 37  1  0
 39 38  1  0
 40 39  2  0
 41 42  2  0
 41 40  1  0
 42 43  1  0
 43 44  1  0
 43 38  2  0
 45 41  1  0
 46 48  2  0
 46 27  1  0
 47 46  1  0
 49 47  1  0
 50 47  1  0
 51 53  1  0
 52 51  1  0
 54 55  1  0
 54 13  1  0
 56 54  2  0
 57 58  1  0
 59 58  1  0
 61 66  1  0
 61 59  1  0
 62 72  1  0
 62 70  1  0
 63 65  1  0
 65 64  1  0
 65 66  2  0
 67 61  2  0
 68 63  2  0
 68 67  1  0
 69 62  1  0
 69 63  1  0
 70 64  1  0
 70 60  1  0
 71 60  2  0
 72 74  2  0
 73 72  1  0
 75 73  1  0
 76 81  1  0
 77 73  1  0
 78 77  1  0
 79 78  1  0
 80 76  1  0
 80 79  1  0
 81 82  2  0
 81 77  1  0
 83 82  1  0
 84 83  2  0
 85 84  1  0
 85 76  2  0
 86 60  1  0
 86 91  1  0
 86 87  1  0
 87 90  1  1
 88 87  1  0
 89 87  1  0
 91 92  1  0
 92 93  2  0
 92 96  1  0
 94 91  1  0
 96 95  1  0
 96 98  1  0
 98 97  1  0
 99 98  1  0
M  ISO  4  16 100  24 100  58 101  59 101
M  END
>  <TORSDO>  (68) 
F 20

>  <SCORE>  (68) 
5.789

>  <name>  (68) 
68

>  <ligand_id>  (68) 
68

>  <original_smiles>  (68) 
[H]c1c([H])c([H])c2c(c1[H])C([H])([H])C([H])([H])C([H])([H])C2([H])N([H])C(=O)C1([H])N(C(=O)C([H])(N([H])C(=O)C([H])(N([H])C([H])([H])[H])C([H])([H])[H])C(C([H])([H])[H])(C([H])([H])[H])C([H])([H])[H])C([H])([H])c2c([H])c(OC([H])([H])C([H])([H])n3c([O-])c([H])n(-c4c([H])c([H])c(N([H])C(=O)N5C([H])([H])C([H])([H])C([H])([H])C([H])(n6nc(-c7c([H])c([H])c(Oc8c([H])c([H])c(F)c([H])c8F)c([H])c7[H])c(C(=O)N([H])[H])c6N([H])[H])C5([H])[H])c(C(=O)C([H])([H])[H])c4[H])c(=O)c3=O)c([H])c([H])c2C1([H])[H]

>  <smiles>  (68) 
[H]c1c([H])c([H])c2c(c1[H])C([H])([H])C([H])([H])C([H])([H])C2([H])N([H])C(=O)C1([H])N(C(=O)C([H])(N([H])C(=O)C([H])(N([H])C([H])([H])[H])C([H])([H])[H])C(C([H])([H])[H])(C([H])([H])[H])C([H])([H])[H])C([H])([H])c2c([H])c(OC([H])([H])C([H])([H])n3c([O-])c([H])n(-c4c([H])c([H])c(N([H])C(=O)N5C([H])([H])C([H])([H])C([H])([H])C([H])(n6nc(-c7c([H])c([H])c(Oc8c([H])c([H])c(F)c([H])c8F)c([H])c7[H])c(C(=O)N([H])[H])c6N([H])[H])C5([H])[H])c(C(=O)C([H])([H])[H])c4[H])c(=O)c3=O)c([H])c([H])c2C1([H])[H]

$$$$
69:0:0
     RDKit          3D

 96104  0  0  1  0  0  0  0  0999 V2000
  -27.9920  -19.4780   18.2770 C   0  0  0  0  0  3  0  0  0  0  0  0
  -28.6950  -18.3860   18.8200 C   0  0  0  0  0  3  0  0  0  0  0  0
  -28.1360  -20.7800   18.7900 C   0  0  0  0  0  3  0  0  0  0  0  0
  -29.5690  -18.5410   19.9170 C   0  0  0  0  0  0  0  0  0  0  0  0
  -29.6730  -19.9020   20.4820 C   0  0  0  0  0  0  0  0  0  0  0  0
  -28.9710  -21.0630   19.8970 C   0  0  0  0  0  0  0  0  0  0  0  0
  -30.7790  -14.8130   20.0290 C   0  0  0  0  0  0  0  0  0  0  0  0
  -30.5090  -12.5500   18.9900 C   0  0  0  0  0  2  0  0  0  0  0  0
  -29.5010  -12.6160   17.8230 C   0  0  0  0  0  2  0  0  0  0  0  0
  -28.0610  -12.4290   18.3380 C   0  0  0  0  0  2  0  0  0  0  0  0
  -27.7520  -13.3030   19.5830 C   0  0  0  0  0  3  0  0  0  0  0  0
  -28.8760  -13.2310   20.6370 C   0  0  0  0  0  2  0  0  0  0  0  0
  -30.1230  -13.6010   19.9600 N   0  0  0  0  0  0  0  0  0  0  0  0
  -31.9740  -14.8430   19.7240 O   0  0  0  0  0  0  0  0  0  0  0  0
  -30.4710  -17.3070   20.2780 C   0  0  0  0  0  0  0  0  0  0  0  0
  -30.0290  -15.9870   20.1700 N   0  0  0  0  0  0  0  0  0  0  0  0
  -31.6290  -17.5550   20.6230 O   0  0  0  0  0  0  0  0  0  0  0  0
  -29.0330  -15.8700   20.1130 H   0  0  0  0  0  0  0  0  0  0  0  0
  -25.4210  -13.8740   20.4820 C   0  0  0  0  0  0  0  0  0  0  0  0
  -24.3760  -13.0910   20.8890 C   0  0  0  0  0  0  0  0  0  0  0  0
  -24.8310  -11.7410   20.7860 C   0  0  0  0  0  0  0  0  0  0  0  0
  -26.4440  -13.0010   20.1520 N   0  0  0  0  0  0  0  0  0  0  0  0
  -26.1000  -11.7100   20.3990 N   0  0  0  0  0  0  0  0  0  0  0  0
  -24.1100  -10.4750   20.9760 C   0  0  0  0  0  0  0  0  0  0  0  0
  -24.5560   -9.5010   21.8970 C   0  0  0  0  0  3  0  0  0  0  0  0
  -23.8350   -8.3010   22.0760 C   0  0  0  0  0  3  0  0  0  0  0  0
  -22.6530   -8.0660   21.3320 C   0  0  0  0  0  0  0  0  0  0  0  0
  -22.2270   -9.0280   20.4010 C   0  0  0  0  0  3  0  0  0  0  0  0
  -22.9480  -10.2200   20.2200 C   0  0  0  0  0  3  0  0  0  0  0  0
  -21.9010   -6.9190   21.4210 O   0  0  0  0  0  0  0  0  0  0  0  0
  -21.8130   -6.2060   22.5900 C   0  0  0  0  0  0  0  0  0  0  0  0
  -21.3120   -6.7820   23.7780 C   0  0  0  0  0  3  0  0  0  0  0  0
  -21.1720   -5.9930   24.9390 C   0  0  0  0  0  3  0  0  0  0  0  0
  -21.5230   -4.6310   24.9110 C   0  0  0  0  0  0  0  0  0  0  0  0
  -22.0150   -4.0540   23.7270 C   0  0  0  0  0  3  0  0  0  0  0  0
  -22.1580   -4.8390   22.5690 C   0  0  0  0  0  0  0  0  0  0  0  0
  -22.6120   -4.2740   21.4250 F   0  0  0  0  0  0  0  0  0  0  0  0
  -21.3810   -3.8710   26.0210 F   0  0  0  0  0  0  0  0  0  0  0  0
  -23.0000  -13.5640   21.2560 C   0  0  0  0  0  0  0  0  0  0  0  0
  -22.3210  -12.8440   22.1430 N   0  0  0  0  0  0  0  0  0  0  0  0
  -22.5360  -14.6050   20.7920 O   0  0  0  0  0  0  0  0  0  0  0  0
  -22.7100  -12.0010   22.5380 H   0  0  0  0  0  0  0  0  0  0  0  0
  -21.3990  -13.1410   22.4310 H   0  0  0  0  0  0  0  0  0  0  0  0
  -25.5780  -15.2500   20.3380 N   0  0  0  0  0  0  0  0  0  0  0  0
  -24.8110  -15.8930   20.5010 H   0  0  0  0  0  0  0  0  0  0  0  0
  -26.3880  -15.7000   19.9340 H   0  0  0  0  0  0  0  0  0  0  0  0
  -30.5410  -20.1110   21.7310 C   0  0  1  0  0  0  0  0  0  0  0  0
  -30.4900  -19.0510   22.5410 F   0  0  0  0  0  0  0  0  0  0  0  0
  -31.8060  -20.3380   21.3790 F   0  0  0  0  0  0  0  0  0  0  0  0
  -30.1330  -21.1500   22.4620 F   0  0  0  0  0  0  0  0  0  0  0  0
  -28.6950  -23.7130   19.8250 C   0  0  0  0  0  0  0  0  0  0  0  0
  -28.9910  -22.4770   20.4090 N   0  0  0  0  0  0  0  0  0  0  0  0
  -28.6000  -23.8280   18.6000 O   0  0  0  0  0  0  0  0  0  0  0  0
  -29.2330  -22.5460   21.3910 H   0  0  0  0  0  0  0  0  0  0  0  0
  -28.4730  -25.0380   20.7160 C   0  0  0  0  0  2  0  0  0  0  0  0
  -28.5970  -26.4110   20.0960 O   0  0  0  0  0  0  0  0  0  0  0  0
  -24.6350  -31.7270   23.1390 C   0  0  0  0  0  0  0  0  0  0  0  0
  -27.4720  -27.2660   20.0890 C   0  0  0  0  0  0  0  0  0  0  0  0
  -23.5250  -30.3150   21.4460 C   0  0  0  0  0  3  0  0  0  0  0  0
  -25.0650  -28.8320   20.0340 C   0  0  0  0  0  0  0  0  0  0  0  0
  -26.0610  -30.7120   21.3380 C   0  0  0  0  0  2  0  0  0  0  0  0
  -26.2040  -29.3430   20.6700 C   0  0  0  0  0  0  0  0  0  0  0  0
  -27.4150  -28.5760   20.6790 C   0  0  0  0  0  3  0  0  0  0  0  0
  -26.3100  -26.8170   19.4330 C   0  0  0  0  0  3  0  0  0  0  0  0
  -25.1230  -27.5780   19.4040 C   0  0  0  0  0  3  0  0  0  0  0  0
  -23.8010  -29.6690   20.0620 C   0  0  0  0  0  2  0  0  0  0  0  0
  -24.7570  -30.9370   22.0310 N   0  0  0  0  0  0  0  0  0  0  0  0
  -23.5280  -31.9570   23.6490 O   0  0  0  0  0  0  0  0  0  0  0  0
  -22.8710  -29.2620   22.3730 C   0  0  0  0  0  0  0  0  0  0  0  0
  -21.5490  -29.0640   22.2280 N   0  0  0  0  0  0  0  0  0  0  0  0
  -23.5520  -28.6290   23.1830 O   0  0  0  0  0  0  0  0  0  0  0  0
  -21.0560  -29.6280   21.5490 H   0  0  0  0  0  0  0  0  0  0  0  0
  -18.1860  -27.8020   22.6820 C   0  0  0  0  0  0  0  0  0  0  0  0
  -20.7410  -28.0890   22.9640 C   0  0  0  0  0  3  0  0  0  0  0  0
  -20.8640  -26.6790   22.3410 C   0  0  0  0  0  2  0  0  0  0  0  0
  -19.7670  -26.3760   21.3150 C   0  0  0  0  0  2  0  0  0  0  0  0
  -18.3830  -26.4790   21.9600 C   0  0  0  0  0  2  0  0  0  0  0  0
  -19.2940  -28.5650   23.1390 C   0  0  0  0  0  0  0  0  0  0  0  0
  -19.0550  -29.8030   23.7740 C   0  0  0  0  0  3  0  0  0  0  0  0
  -17.7430  -30.2790   23.9550 C   0  0  0  0  0  3  0  0  0  0  0  0
  -16.6510  -29.5120   23.5140 C   0  0  0  0  0  3  0  0  0  0  0  0
  -16.8730  -28.2750   22.8830 C   0  0  0  0  0  3  0  0  0  0  0  0
  -25.8760  -32.3950   23.8070 C   0  0  0  0  0  3  0  0  0  0  0  0
  -26.3770  -31.6290   25.0940 C   0  0  1  0  0  0  0  0  0  0  0  0
  -25.2600  -31.3510   26.1260 C   0  0  0  0  0  1  0  0  0  0  0  0
  -27.0120  -30.2720   24.7110 C   0  0  0  0  0  1  0  0  0  0  0  0
  -27.4830  -32.4510   25.7950 C   0  0  0  0  0  1  0  0  0  0  0  0
  -25.5120  -33.7790   24.1410 N   0  0  0  0  0  0  0  0  0  0  0  0
  -25.8180  -34.8500   23.3960 C   0  0  0  0  0  0  0  0  0  0  0  0
  -26.5050  -34.7790   22.3740 O   0  0  0  0  0  0  0  0  0  0  0  0
  -24.9050  -33.9070   24.9380 H   0  0  0  0  0  0  0  0  0  0  0  0
  -24.0300  -36.5820   23.0340 C   0  0  0  0  0  1  0  0  0  0  0  0
  -25.2760  -36.2170   23.8570 C   0  0  0  0  0  3  0  0  0  0  0  0
  -27.3640  -37.1770   24.7210 C   0  0  0  0  0  1  0  0  0  0  0  0
  -26.2700  -37.3080   23.7620 N   0  0  0  0  0  0  0  0  0  0  0  0
  -25.8290  -38.2120   23.9060 H   0  0  0  0  0  0  0  0  0  0  0  0
  1  3  2  0
  1  2  1  0
  2  4  2  0
  3  6  1  0
  4 15  1  0
  4  5  1  0
  5 47  1  0
  6 52  1  0
  6  5  2  0
  7 16  1  0
  8 13  1  0
  9 10  1  0
  9  8  1  0
 11 10  1  0
 11 22  1  0
 11 12  1  0
 13  7  1  0
 13 12  1  0
 14  7  2  0
 15 17  2  0
 16 15  1  0
 18 16  1  0
 19 20  2  0
 20 39  1  0
 21 20  1  0
 21 24  1  0
 22 23  1  0
 22 19  1  0
 23 21  2  0
 24 25  1  0
 25 26  2  0
 27 30  1  0
 27 26  1  0
 28 27  2  0
 29 28  1  0
 29 24  2  0
 30 31  1  0
 31 32  1  0
 32 33  2  0
 34 33  1  0
 34 38  1  0
 35 34  2  0
 36 31  2  0
 36 35  1  0
 37 36  1  0
 39 40  1  0
 40 43  1  0
 40 42  1  0
 41 39  2  0
 44 19  1  0
 44 45  1  0
 46 44  1  0
 47 50  1  1
 47 48  1  0
 49 47  1  0
 51 52  1  0
 51 55  1  0
 52 54  1  0
 53 51  2  0
 56 55  1  0
 57 68  2  0
 58 56  1  0
 58 63  1  0
 59 67  1  0
 59 69  1  0
 60 66  1  0
 60 62  1  0
 61 67  1  0
 62 63  2  0
 62 61  1  0
 64 58  2  0
 65 64  1  0
 65 60  2  0
 66 59  1  0
 67 57  1  0
 69 71  2  0
 70 69  1  0
 72 70  1  0
 73 82  2  0
 73 78  1  0
 74 70  1  0
 74 78  1  0
 75 74  1  0
 76 77  1  0
 76 75  1  0
 77 73  1  0
 78 79  2  0
 79 80  1  0
 81 80  2  0
 82 81  1  0
 83 57  1  0
 83 88  1  0
 83 84  1  0
 84 87  1  1
 84 85  1  0
 86 84  1  0
 88 91  1  0
 89 93  1  0
 89 88  1  0
 90 89  2  0
 93 92  1  0
 95 93  1  0
 95 96  1  0
 95 94  1  0
M  ISO  4   7 100  16 100  55 101  56 101
M  END
>  <TORSDO>  (69) 
F 19

>  <SCORE>  (69) 
-14.295

>  <name>  (69) 
69

>  <ligand_id>  (69) 
69

>  <original_smiles>  (69) 
[H]c1c([H])c(C(=O)N([H])C(=O)N2C([H])([H])C([H])([H])C([H])([H])C([H])(n3nc(-c4c([H])c([H])c(Oc5c([H])c([H])c(F)c([H])c5F)c([H])c4[H])c(C(=O)N([H])[H])c3N([H])[H])C2([H])[H])c(C(F)(F)F)c(N([H])C(=O)C([H])([H])Oc2c([H])c([H])c3c(c2[H])C([H])([H])N(C(=O)C([H])(N([H])C(=O)C([H])(N([H])C([H])([H])[H])C([H])([H])[H])C(C([H])([H])[H])(C([H])([H])[H])C([H])([H])[H])C([H])(C(=O)N([H])C2([H])c4c([H])c([H])c([H])c([H])c4C([H])([H])C([H])([H])C2([H])[H])C3([H])[H])c1[H]

>  <smiles>  (69) 
[H]c1c([H])c(C(=O)N([H])C(=O)N2C([H])([H])C([H])([H])C([H])([H])C([H])(n3nc(-c4c([H])c([H])c(Oc5c([H])c([H])c(F)c([H])c5F)c([H])c4[H])c(C(=O)N([H])[H])c3N([H])[H])C2([H])[H])c(C(F)(F)F)c(N([H])C(=O)C([H])([H])Oc2c([H])c([H])c3c(c2[H])C([H])([H])N(C(=O)C([H])(N([H])C(=O)C([H])(N([H])C([H])([H])[H])C([H])([H])[H])C(C([H])([H])[H])(C([H])([H])[H])C([H])([H])[H])C([H])(C(=O)N([H])C2([H])c4c([H])c([H])c([H])c([H])c4C([H])([H])C([H])([H])C2([H])[H])C3([H])[H])c1[H]

$$$$
70:0:0
     RDKit          3D

 95104  0  0  1  0  0  0  0  0999 V2000
  -29.6220  -21.9040   21.6510 C   0  0  0  0  0  3  0  0  0  0  0  0
  -29.4760  -23.2610   21.6620 C   0  0  0  0  0  0  0  0  0  0  0  0
  -28.9040  -22.4090   19.5450 C   0  0  0  0  0  2  0  0  0  0  0  0
  -29.1280  -23.8090   20.2830 C   0  0  0  0  0  3  0  0  0  0  0  0
  -29.3740  -21.2850   20.4230 N   0  0  0  0  0  0  0  0  0  0  0  0
  -29.2790  -19.6350   18.5910 C   0  0  0  0  0  3  0  0  0  0  0  0
  -29.8350  -18.6990   20.7610 C   0  0  0  0  0  3  0  0  0  0  0  0
  -29.3630  -18.3430   18.0280 C   0  0  0  0  0  0  0  0  0  0  0  0
  -29.5070  -19.8900   19.9700 C   0  0  0  0  0  0  0  0  0  0  0  0
  -29.9360  -17.3430   20.2010 C   0  0  0  0  0  0  0  0  0  0  0  0
  -29.6820  -17.2240   18.8150 C   0  0  0  0  0  0  0  0  0  0  0  0
  -29.0790  -18.1220   16.5510 C   0  0  0  0  0  1  0  0  0  0  0  0
  -29.6820  -16.0100   18.2180 F   0  0  0  0  0  0  0  0  0  0  0  0
  -30.8390  -14.9380   20.5160 C   0  0  0  0  0  0  0  0  0  0  0  0
  -30.6730  -12.6800   19.4640 C   0  0  0  0  0  2  0  0  0  0  0  0
  -29.7700  -12.7540   18.2130 C   0  0  0  0  0  2  0  0  0  0  0  0
  -28.2850  -12.5870   18.5870 C   0  0  0  0  0  2  0  0  0  0  0  0
  -27.8710  -13.4330   19.8210 C   0  0  0  0  0  3  0  0  0  0  0  0
  -28.8970  -13.3320   20.9710 C   0  0  0  0  0  2  0  0  0  0  0  0
  -30.2140  -13.7080   20.4340 N   0  0  0  0  0  0  0  0  0  0  0  0
  -31.9990  -15.0570   20.1170 O   0  0  0  0  0  0  0  0  0  0  0  0
  -30.1310  -16.0610   20.9360 N   0  0  0  0  0  0  0  0  0  0  0  0
  -29.3830  -15.8570   21.5840 H   0  0  0  0  0  0  0  0  0  0  0  0
  -25.4380  -13.9760   20.4490 C   0  0  0  0  0  0  0  0  0  0  0  0
  -24.3770  -13.1860   20.7980 C   0  0  0  0  0  0  0  0  0  0  0  0
  -24.8700  -11.8450   20.8010 C   0  0  0  0  0  0  0  0  0  0  0  0
  -26.5100  -13.1180   20.2630 N   0  0  0  0  0  0  0  0  0  0  0  0
  -26.1700  -11.8310   20.5310 N   0  0  0  0  0  0  0  0  0  0  0  0
  -24.1620  -10.5710   20.9910 C   0  0  0  0  0  0  0  0  0  0  0  0
  -24.5700   -9.6340   21.9670 C   0  0  0  0  0  3  0  0  0  0  0  0
  -23.8590   -8.4260   22.1380 C   0  0  0  0  0  3  0  0  0  0  0  0
  -22.7250   -8.1470   21.3380 C   0  0  0  0  0  0  0  0  0  0  0  0
  -22.3420   -9.0720   20.3510 C   0  0  0  0  0  3  0  0  0  0  0  0
  -23.0540  -10.2710   20.1780 C   0  0  0  0  0  3  0  0  0  0  0  0
  -21.9900   -6.9890   21.4170 O   0  0  0  0  0  0  0  0  0  0  0  0
  -21.8850   -6.2810   22.5870 C   0  0  0  0  0  0  0  0  0  0  0  0
  -21.3390   -6.8520   23.7590 C   0  0  0  0  0  3  0  0  0  0  0  0
  -21.1870   -6.0670   24.9190 C   0  0  0  0  0  3  0  0  0  0  0  0
  -21.5730   -4.7130   24.9110 C   0  0  0  0  0  0  0  0  0  0  0  0
  -22.1110   -4.1420   23.7450 C   0  0  0  0  0  3  0  0  0  0  0  0
  -22.2650   -4.9240   22.5860 C   0  0  0  0  0  0  0  0  0  0  0  0
  -22.7680   -4.3640   21.4590 F   0  0  0  0  0  0  0  0  0  0  0  0
  -21.4220   -3.9560   26.0240 F   0  0  0  0  0  0  0  0  0  0  0  0
  -22.9620  -13.6390   21.0200 C   0  0  0  0  0  0  0  0  0  0  0  0
  -22.2230  -12.9540   21.8860 N   0  0  0  0  0  0  0  0  0  0  0  0
  -22.5190  -14.6410   20.4590 O   0  0  0  0  0  0  0  0  0  0  0  0
  -22.5930  -12.1500   22.3680 H   0  0  0  0  0  0  0  0  0  0  0  0
  -21.2710  -13.2410   22.0720 H   0  0  0  0  0  0  0  0  0  0  0  0
  -25.5870  -15.3450   20.2560 N   0  0  0  0  0  0  0  0  0  0  0  0
  -24.8240  -16.0050   20.3620 H   0  0  0  0  0  0  0  0  0  0  0  0
  -26.4510  -15.7810   19.9570 H   0  0  0  0  0  0  0  0  0  0  0  0
  -29.7740  -23.7570   24.0940 C   0  0  0  0  0  2  0  0  0  0  0  0
  -29.7150  -24.1370   22.8060 C   0  0  0  0  0  3  0  0  0  0  0  0
  -27.9990  -24.9760   20.1330 C   0  0  0  0  0  2  0  0  0  0  0  0
  -28.2640  -26.4690   20.2420 O   0  0  0  0  0  0  0  0  0  0  0  0
  -24.5510  -31.9640   23.2710 C   0  0  0  0  0  0  0  0  0  0  0  0
  -27.1660  -27.3730   20.1990 C   0  0  0  0  0  0  0  0  0  0  0  0
  -23.3520  -30.5690   21.6280 C   0  0  0  0  0  3  0  0  0  0  0  0
  -24.8090  -29.0370   20.1910 C   0  0  0  0  0  0  0  0  0  0  0  0
  -25.9000  -30.8900   21.4460 C   0  0  0  0  0  2  0  0  0  0  0  0
  -25.9860  -29.5140   20.7820 C   0  0  0  0  0  0  0  0  0  0  0  0
  -27.1690  -28.6990   20.7650 C   0  0  0  0  0  3  0  0  0  0  0  0
  -25.9490  -26.9650   19.6040 C   0  0  0  0  0  3  0  0  0  0  0  0
  -24.7970  -27.7700   19.5970 C   0  0  0  0  0  3  0  0  0  0  0  0
  -23.5700  -29.9090   20.2420 C   0  0  0  0  0  2  0  0  0  0  0  0
  -24.6190  -31.1600   22.1690 N   0  0  0  0  0  0  0  0  0  0  0  0
  -23.4640  -32.2340   23.8060 O   0  0  0  0  0  0  0  0  0  0  0  0
  -22.6970  -29.5380   22.5810 C   0  0  0  0  0  0  0  0  0  0  0  0
  -21.3730  -29.3450   22.4520 N   0  0  0  0  0  0  0  0  0  0  0  0
  -23.3810  -28.9170   23.3990 O   0  0  0  0  0  0  0  0  0  0  0  0
  -20.8770  -29.9110   21.7770 H   0  0  0  0  0  0  0  0  0  0  0  0
  -18.0060  -28.1070   22.9480 C   0  0  0  0  0  0  0  0  0  0  0  0
  -20.5630  -28.3900   23.2140 C   0  0  0  0  0  3  0  0  0  0  0  0
  -20.6750  -26.9620   22.6310 C   0  0  0  0  0  2  0  0  0  0  0  0
  -19.5740  -26.6350   21.6150 C   0  0  0  0  0  2  0  0  0  0  0  0
  -18.1910  -26.7640   22.2620 C   0  0  0  0  0  2  0  0  0  0  0  0
  -19.1190  -28.8760   23.3810 C   0  0  0  0  0  0  0  0  0  0  0  0
  -18.8930  -30.1340   23.9820 C   0  0  0  0  0  3  0  0  0  0  0  0
  -17.5850  -30.6240   24.1540 C   0  0  0  0  0  3  0  0  0  0  0  0
  -16.4860  -29.8520   23.7390 C   0  0  0  0  0  3  0  0  0  0  0  0
  -16.6960  -28.5950   23.1450 C   0  0  0  0  0  3  0  0  0  0  0  0
  -25.8270  -32.6040   23.8950 C   0  0  0  0  0  3  0  0  0  0  0  0
  -26.3400  -31.8400   25.1790 C   0  0  1  0  0  0  0  0  0  0  0  0
  -25.2380  -31.5980   26.2360 C   0  0  0  0  0  1  0  0  0  0  0  0
  -26.9450  -30.4690   24.8020 C   0  0  0  0  0  1  0  0  0  0  0  0
  -27.4680  -32.6520   25.8540 C   0  0  0  0  0  1  0  0  0  0  0  0
  -25.5090  -34.0020   24.2240 N   0  0  0  0  0  0  0  0  0  0  0  0
  -25.8380  -35.0580   23.4690 C   0  0  0  0  0  0  0  0  0  0  0  0
  -26.5150  -34.9620   22.4430 O   0  0  0  0  0  0  0  0  0  0  0  0
  -24.9050  -34.1510   25.0190 H   0  0  0  0  0  0  0  0  0  0  0  0
  -24.1150  -36.8530   23.1010 C   0  0  0  0  0  1  0  0  0  0  0  0
  -25.3410  -36.4430   23.9290 C   0  0  0  0  0  3  0  0  0  0  0  0
  -27.4560  -37.3310   24.8020 C   0  0  0  0  0  1  0  0  0  0  0  0
  -26.3730  -37.4990   23.8380 N   0  0  0  0  0  0  0  0  0  0  0  0
  -25.9590  -38.4170   23.9820 H   0  0  0  0  0  0  0  0  0  0  0  0
  1  2  2  0
  2 53  1  0
  3  4  1  0
  3  5  1  0
  4 54  1  0
  4  2  1  0
  5  1  1  0
  6  9  1  0
  8  6  2  0
  8 11  1  0
  9  5  1  0
  9  7  2  0
 10  7  1  0
 10 22  1  0
 11 10  2  0
 12  8  1  0
 13 11  1  0
 14 22  1  0
 15 20  1  0
 16 17  1  0
 16 15  1  0
 18 17  1  0
 18 27  1  0
 18 19  1  0
 20 14  1  0
 20 19  1  0
 21 14  2  0
 22 23  1  0
 24 25  2  0
 25 26  1  0
 25 44  1  0
 26 29  1  0
 27 24  1  0
 27 28  1  0
 28 26  2  0
 29 30  1  0
 30 31  2  0
 32 35  1  0
 32 31  1  0
 33 32  2  0
 34 33  1  0
 34 29  2  0
 35 36  1  0
 36 37  1  0
 37 38  2  0
 39 38  1  0
 39 43  1  0
 40 39  2  0
 41 36  2  0
 41 40  1  0
 42 41  1  0
 44 45  1  0
 45 48  1  0
 45 47  1  0
 46 44  2  0
 49 50  1  0
 49 24  1  0
 51 49  1  0
 53 52  2  0
 54 55  1  0
 56 67  2  0
 57 55  1  0
 57 62  1  0
 58 66  1  0
 58 68  1  0
 59 65  1  0
 59 61  1  0
 60 66  1  0
 61 60  1  0
 62 61  2  0
 63 57  2  0
 64 63  1  0
 64 59  2  0
 65 58  1  0
 66 56  1  0
 68 70  2  0
 69 68  1  0
 71 69  1  0
 72 81  2  0
 72 77  1  0
 73 69  1  0
 73 77  1  0
 74 73  1  0
 75 76  1  0
 75 74  1  0
 76 72  1  0
 77 78  2  0
 78 79  1  0
 80 79  2  0
 81 80  1  0
 82 56  1  0
 82 87  1  0
 82 83  1  0
 83 86  1  1
 83 84  1  0
 85 83  1  0
 87 90  1  0
 88 92  1  0
 88 87  1  0
 89 88  2  0
 92 91  1  0
 94 92  1  0
 94 95  1  0
 94 93  1  0
M  ISO  4  14 100  22 100  54 101  55 101
M  END
>  <TORSDO>  (70) 
F 19

>  <SCORE>  (70) 
-13.233

>  <name>  (70) 
70

>  <ligand_id>  (70) 
70

>  <original_smiles>  (70) 
[H]C([H])=C([H])C1=C([H])N(c2c([H])c(N([H])C(=O)N3C([H])([H])C([H])([H])C([H])([H])C([H])(n4nc(-c5c([H])c([H])c(Oc6c([H])c([H])c(F)c([H])c6F)c([H])c5[H])c(C(=O)N([H])[H])c4N([H])[H])C3([H])[H])c(F)c(C([H])([H])[H])c2[H])C([H])([H])C1([H])C([H])([H])Oc1c([H])c([H])c2c(c1[H])C([H])([H])N(C(=O)C([H])(N([H])C(=O)C([H])(N([H])C([H])([H])[H])C([H])([H])[H])C(C([H])([H])[H])(C([H])([H])[H])C([H])([H])[H])C([H])(C(=O)N([H])C1([H])c3c([H])c([H])c([H])c([H])c3C([H])([H])C([H])([H])C1([H])[H])C2([H])[H]

>  <smiles>  (70) 
[H]C([H])=C([H])C1=C([H])N(c2c([H])c(N([H])C(=O)N3C([H])([H])C([H])([H])C([H])([H])C([H])(n4nc(-c5c([H])c([H])c(Oc6c([H])c([H])c(F)c([H])c6F)c([H])c5[H])c(C(=O)N([H])[H])c4N([H])[H])C3([H])[H])c(F)c(C([H])([H])[H])c2[H])C([H])([H])C1([H])C([H])([H])Oc1c([H])c([H])c2c(c1[H])C([H])([H])N(C(=O)C([H])(N([H])C(=O)C([H])(N([H])C([H])([H])[H])C([H])([H])[H])C(C([H])([H])[H])(C([H])([H])[H])C([H])([H])[H])C([H])(C(=O)N([H])C1([H])c3c([H])c([H])c([H])c([H])c3C([H])([H])C([H])([H])C1([H])[H])C2([H])[H]

$$$$
71:0:0
     RDKit          3D

 94103  0  0  1  0  0  0  0  0999 V2000
  -30.1420  -23.4350   20.9770 C   0  0  0  0  0  0  0  0  0  0  0  0
  -30.4020  -21.8850   20.9850 C   0  0  0  0  0  0  0  0  0  0  0  0
  -28.4470  -22.3390   19.8310 C   0  0  0  0  0  2  0  0  0  0  0  0
  -28.7020  -23.7380   20.5540 C   0  0  0  0  0  3  0  0  0  0  0  0
  -29.3710  -21.2630   20.3650 N   0  0  0  0  0  0  0  0  0  0  0  0
  -30.9820  -24.2950   21.2790 O   0  0  0  0  0  0  0  0  0  0  0  0
  -31.4010  -21.3480   21.4820 O   0  0  0  0  0  0  0  0  0  0  0  0
  -28.8560  -19.5810   18.6380 C   0  0  0  0  0  3  0  0  0  0  0  0
  -29.2450  -17.1680   18.8150 C   0  0  0  0  0  3  0  0  0  0  0  0
  -29.7680  -18.6440   20.6900 C   0  0  0  0  0  3  0  0  0  0  0  0
  -28.8170  -18.2870   18.0800 C   0  0  0  0  0  0  0  0  0  0  0  0
  -29.3490  -19.8270   19.9390 C   0  0  0  0  0  0  0  0  0  0  0  0
  -29.7160  -17.2890   20.1390 C   0  0  0  0  0  0  0  0  0  0  0  0
  -28.2700  -18.0870   16.6790 C   0  0  0  0  0  1  0  0  0  0  0  0
  -30.6510  -14.9020   20.4200 C   0  0  0  0  0  0  0  0  0  0  0  0
  -30.4400  -12.6420   19.3830 C   0  0  0  0  0  2  0  0  0  0  0  0
  -29.5210  -12.7770   18.1470 C   0  0  0  0  0  2  0  0  0  0  0  0
  -28.0500  -12.5740   18.5550 C   0  0  0  0  0  2  0  0  0  0  0  0
  -27.6690  -13.4220   19.7980 C   0  0  0  0  0  3  0  0  0  0  0  0
  -28.7170  -13.3140   20.9320 C   0  0  0  0  0  2  0  0  0  0  0  0
  -30.0250  -13.6710   20.3650 N   0  0  0  0  0  0  0  0  0  0  0  0
  -31.8030  -15.0240   19.9940 O   0  0  0  0  0  0  0  0  0  0  0  0
  -29.9410  -16.0110   20.8500 N   0  0  0  0  0  0  0  0  0  0  0  0
  -29.1650  -15.7550   21.4410 H   0  0  0  0  0  0  0  0  0  0  0  0
  -25.2570  -13.9910   20.4530 C   0  0  0  0  0  0  0  0  0  0  0  0
  -24.1940  -13.2110   20.8110 C   0  0  0  0  0  0  0  0  0  0  0  0
  -24.6740  -11.8650   20.8070 C   0  0  0  0  0  0  0  0  0  0  0  0
  -26.3170  -13.1230   20.2570 N   0  0  0  0  0  0  0  0  0  0  0  0
  -25.9720  -11.8400   20.5290 N   0  0  0  0  0  0  0  0  0  0  0  0
  -23.9610  -10.5960   20.9980 C   0  0  0  0  0  0  0  0  0  0  0  0
  -24.3900   -9.6470   21.9520 C   0  0  0  0  0  3  0  0  0  0  0  0
  -23.6740   -8.4450   22.1370 C   0  0  0  0  0  3  0  0  0  0  0  0
  -22.5140   -8.1830   21.3670 C   0  0  0  0  0  0  0  0  0  0  0  0
  -22.1050   -9.1210   20.4010 C   0  0  0  0  0  3  0  0  0  0  0  0
  -22.8240  -10.3150   20.2150 C   0  0  0  0  0  3  0  0  0  0  0  0
  -21.7730   -7.0300   21.4570 O   0  0  0  0  0  0  0  0  0  0  0  0
  -21.7220   -6.2950   22.6160 C   0  0  0  0  0  0  0  0  0  0  0  0
  -21.2700   -6.8550   23.8300 C   0  0  0  0  0  3  0  0  0  0  0  0
  -21.1610   -6.0480   24.9800 C   0  0  0  0  0  3  0  0  0  0  0  0
  -21.4980   -4.6840   24.9180 C   0  0  0  0  0  0  0  0  0  0  0  0
  -21.9440   -4.1230   23.7080 C   0  0  0  0  0  3  0  0  0  0  0  0
  -22.0500   -4.9260   22.5590 C   0  0  0  0  0  0  0  0  0  0  0  0
  -22.4560   -4.3760   21.3900 F   0  0  0  0  0  0  0  0  0  0  0  0
  -21.3890   -3.9080   26.0220 F   0  0  0  0  0  0  0  0  0  0  0  0
  -22.7870  -13.6720   21.0560 C   0  0  0  0  0  0  0  0  0  0  0  0
  -22.0600  -12.9720   21.9180 N   0  0  0  0  0  0  0  0  0  0  0  0
  -22.3430  -14.6890   20.5200 O   0  0  0  0  0  0  0  0  0  0  0  0
  -22.4380  -12.1450   22.3580 H   0  0  0  0  0  0  0  0  0  0  0  0
  -21.1200  -13.2610   22.1490 H   0  0  0  0  0  0  0  0  0  0  0  0
  -25.4120  -15.3620   20.2580 N   0  0  0  0  0  0  0  0  0  0  0  0
  -24.6450  -16.0180   20.3440 H   0  0  0  0  0  0  0  0  0  0  0  0
  -26.2730  -15.8010   19.9600 H   0  0  0  0  0  0  0  0  0  0  0  0
  -28.3640  -25.1160   19.7380 C   0  0  0  0  0  2  0  0  0  0  0  0
  -28.3010  -26.5150   20.3340 O   0  0  0  0  0  0  0  0  0  0  0  0
  -24.5410  -32.0180   23.2860 C   0  0  0  0  0  0  0  0  0  0  0  0
  -27.1830  -27.3940   20.2470 C   0  0  0  0  0  0  0  0  0  0  0  0
  -23.3580  -30.6100   21.6520 C   0  0  0  0  0  3  0  0  0  0  0  0
  -24.8200  -29.0620   20.2310 C   0  0  0  0  0  0  0  0  0  0  0  0
  -25.9030  -30.9140   21.4850 C   0  0  0  0  0  2  0  0  0  0  0  0
  -25.9900  -29.5290   20.8400 C   0  0  0  0  0  0  0  0  0  0  0  0
  -27.1650  -28.7060   20.8440 C   0  0  0  0  0  3  0  0  0  0  0  0
  -25.9840  -27.0100   19.5970 C   0  0  0  0  0  3  0  0  0  0  0  0
  -24.8240  -27.8070   19.6070 C   0  0  0  0  0  3  0  0  0  0  0  0
  -23.5820  -29.9400   20.2740 C   0  0  0  0  0  2  0  0  0  0  0  0
  -24.6210  -31.1970   22.1990 N   0  0  0  0  0  0  0  0  0  0  0  0
  -23.4490  -32.2980   23.8030 O   0  0  0  0  0  0  0  0  0  0  0  0
  -22.6870  -29.5920   22.6050 C   0  0  0  0  0  0  0  0  0  0  0  0
  -21.3670  -29.3920   22.4560 N   0  0  0  0  0  0  0  0  0  0  0  0
  -23.3580  -28.9850   23.4420 O   0  0  0  0  0  0  0  0  0  0  0  0
  -20.8790  -29.9390   21.7600 H   0  0  0  0  0  0  0  0  0  0  0  0
  -18.0060  -28.1300   22.9020 C   0  0  0  0  0  0  0  0  0  0  0  0
  -20.5520  -28.4490   23.2230 C   0  0  0  0  0  3  0  0  0  0  0  0
  -20.6980  -27.0120   22.6740 C   0  0  0  0  0  2  0  0  0  0  0  0
  -19.6230  -26.6480   21.6440 C   0  0  0  0  0  2  0  0  0  0  0  0
  -18.2230  -26.7750   22.2520 C   0  0  0  0  0  2  0  0  0  0  0  0
  -19.0990  -28.9230   23.3450 C   0  0  0  0  0  0  0  0  0  0  0  0
  -18.8390  -30.1890   23.9120 C   0  0  0  0  0  3  0  0  0  0  0  0
  -17.5190  -30.6640   24.0400 C   0  0  0  0  0  3  0  0  0  0  0  0
  -16.4430  -29.8700   23.6100 C   0  0  0  0  0  3  0  0  0  0  0  0
  -16.6870  -28.6050   23.0490 C   0  0  0  0  0  3  0  0  0  0  0  0
  -25.8100  -32.6630   23.9180 C   0  0  0  0  0  3  0  0  0  0  0  0
  -25.4910  -34.0650   24.2220 N   0  0  0  0  0  0  0  0  0  0  0  0
  -25.8340  -35.1090   23.4550 C   0  0  0  0  0  0  0  0  0  0  0  0
  -26.5110  -34.9920   22.4300 O   0  0  0  0  0  0  0  0  0  0  0  0
  -24.8870  -34.2350   25.0140 H   0  0  0  0  0  0  0  0  0  0  0  0
  -24.1070  -36.8970   23.0670 C   0  0  0  0  0  1  0  0  0  0  0  0
  -25.3440  -36.5050   23.8890 C   0  0  0  0  0  3  0  0  0  0  0  0
  -27.4720  -37.4020   24.7250 C   0  0  0  0  0  1  0  0  0  0  0  0
  -26.3790  -37.5560   23.7680 N   0  0  0  0  0  0  0  0  0  0  0  0
  -25.9720  -38.4770   23.9030 H   0  0  0  0  0  0  0  0  0  0  0  0
  -26.3070  -31.9150   25.2150 C   0  0  1  0  0  0  0  0  0  0  0  0
  -25.1930  -31.6860   26.2660 C   0  0  0  0  0  1  0  0  0  0  0  0
  -26.9100  -30.5380   24.8520 C   0  0  0  0  0  1  0  0  0  0  0  0
  -27.4390  -32.7290   25.8850 C   0  0  0  0  0  1  0  0  0  0  0  0
  1  2  1  0
  1  6  2  0
  2  7  2  0
  3  5  1  0
  3  4  1  0
  4 53  1  0
  4  1  1  0
  5  2  1  0
  8 12  1  0
  9 13  2  0
 11  8  2  0
 11  9  1  0
 12  5  1  0
 12 10  2  0
 13 10  1  0
 13 23  1  0
 14 11  1  0
 15 23  1  0
 16 21  1  0
 17 18  1  0
 17 16  1  0
 19 18  1  0
 19 28  1  0
 19 20  1  0
 21 15  1  0
 21 20  1  0
 22 15  2  0
 23 24  1  0
 25 26  2  0
 26 45  1  0
 27 26  1  0
 27 30  1  0
 28 25  1  0
 28 29  1  0
 29 27  2  0
 30 31  1  0
 31 32  2  0
 33 36  1  0
 33 32  1  0
 34 33  2  0
 35 34  1  0
 35 30  2  0
 36 37  1  0
 37 38  1  0
 38 39  2  0
 40 39  1  0
 40 44  1  0
 41 40  2  0
 42 37  2  0
 42 41  1  0
 43 42  1  0
 45 46  1  0
 46 49  1  0
 46 48  1  0
 47 45  2  0
 50 51  1  0
 50 25  1  0
 52 50  1  0
 53 54  1  0
 55 66  2  0
 56 54  1  0
 56 61  1  0
 57 65  1  0
 57 67  1  0
 58 64  1  0
 58 60  1  0
 59 65  1  0
 60 61  2  0
 60 59  1  0
 62 63  1  0
 62 56  2  0
 63 58  2  0
 64 57  1  0
 65 55  1  0
 67 69  2  0
 68 67  1  0
 70 68  1  0
 71 80  2  0
 71 76  1  0
 72 68  1  0
 72 76  1  0
 73 72  1  0
 74 75  1  0
 74 73  1  0
 75 71  1  0
 76 77  2  0
 77 78  1  0
 79 78  2  0
 80 79  1  0
 81 55  1  0
 81 82  1  0
 81 91  1  0
 82 85  1  0
 83 87  1  0
 83 82  1  0
 84 83  2  0
 87 86  1  0
 89 87  1  0
 89 90  1  0
 89 88  1  0
 91 94  1  1
 91 92  1  0
 93 91  1  0
M  ISO  4  15 100  23 100  53 101  54 101
M  END
>  <TORSDO>  (71) 
F 18

>  <SCORE>  (71) 
-14.533

>  <name>  (71) 
71

>  <ligand_id>  (71) 
71

>  <original_smiles>  (71) 
[H]c1c([H])c([H])c2c(c1[H])C([H])([H])C([H])([H])C([H])([H])C2([H])N([H])C(=O)C1([H])N(C(=O)C([H])(N([H])C(=O)C([H])(N([H])C([H])([H])[H])C([H])([H])[H])C(C([H])([H])[H])(C([H])([H])[H])C([H])([H])[H])C([H])([H])c2c([H])c(OC([H])([H])C3([H])C(=O)C(=O)N(c4c([H])c(N([H])C(=O)N5C([H])([H])C([H])([H])C([H])([H])C([H])(n6nc(-c7c([H])c([H])c(Oc8c([H])c([H])c(F)c([H])c8F)c([H])c7[H])c(C(=O)N([H])[H])c6N([H])[H])C5([H])[H])c([H])c(C([H])([H])[H])c4[H])C3([H])[H])c([H])c([H])c2C1([H])[H]

>  <smiles>  (71) 
[H]c1c([H])c([H])c2c(c1[H])C([H])([H])C([H])([H])C([H])([H])C2([H])N([H])C(=O)C1([H])N(C(=O)C([H])(N([H])C(=O)C([H])(N([H])C([H])([H])[H])C([H])([H])[H])C(C([H])([H])[H])(C([H])([H])[H])C([H])([H])[H])C([H])([H])c2c([H])c(OC([H])([H])C3([H])C(=O)C(=O)N(c4c([H])c(N([H])C(=O)N5C([H])([H])C([H])([H])C([H])([H])C([H])(n6nc(-c7c([H])c([H])c(Oc8c([H])c([H])c(F)c([H])c8F)c([H])c7[H])c(C(=O)N([H])[H])c6N([H])[H])C5([H])[H])c([H])c(C([H])([H])[H])c4[H])C3([H])[H])c([H])c([H])c2C1([H])[H]

$$$$
72:0:0
     RDKit          3D

 98107  0  0  1  0  0  0  0  0999 V2000
  -30.1050  -22.8420   19.1540 C   0  0  0  0  0  0  0  0  0  0  0  0
  -28.3890  -22.3650   20.1830 C   0  0  0  0  0  2  0  0  0  0  0  0
  -29.2060  -23.7260   20.1520 C   0  0  1  0  0  0  0  0  0  0  0  0
  -29.5890  -21.6630   19.7230 N   0  0  0  0  0  0  0  0  0  0  0  0
  -30.9090  -23.0280   18.2700 O   0  0  0  0  0  0  0  0  0  0  0  0
  -30.7380  -19.4420   18.9790 C   0  0  0  0  0  3  0  0  0  0  0  0
  -30.8620  -18.0090   18.9960 C   0  0  0  0  0  3  0  0  0  0  0  0
  -28.8560  -19.3140   20.3860 C   0  0  0  0  0  3  0  0  0  0  0  0
  -28.9400  -17.8830   20.4220 C   0  0  0  0  0  0  0  0  0  0  0  0
  -29.7280  -20.1840   19.6710 C   0  0  0  0  0  0  0  0  0  0  0  0
  -29.9650  -17.1700   19.7210 C   0  0  0  0  0  0  0  0  0  0  0  0
  -30.6830  -14.6820   19.1120 C   0  0  0  0  0  0  0  0  0  0  0  0
  -30.2830  -12.4830   17.9940 C   0  0  0  0  0  2  0  0  0  0  0  0
  -29.1270  -12.6650   16.9830 C   0  0  0  0  0  2  0  0  0  0  0  0
  -27.7620  -12.4630   17.6770 C   0  0  0  0  0  2  0  0  0  0  0  0
  -27.6430  -13.2720   18.9970 C   0  0  0  0  0  3  0  0  0  0  0  0
  -28.8920  -13.0480   19.8790 C   0  0  0  0  0  2  0  0  0  0  0  0
  -30.0730  -13.4480   19.0940 N   0  0  0  0  0  0  0  0  0  0  0  0
  -31.7450  -14.8730   18.5110 O   0  0  0  0  0  0  0  0  0  0  0  0
  -29.9730  -15.6880   19.7200 N   0  0  0  0  0  0  0  0  0  0  0  0
  -29.2340  -15.2990   20.2920 H   0  0  0  0  0  0  0  0  0  0  0  0
  -25.4370  -13.8320   20.1900 C   0  0  0  0  0  0  0  0  0  0  0  0
  -24.4480  -13.0400   20.7090 C   0  0  0  0  0  0  0  0  0  0  0  0
  -24.8780  -11.6940   20.5100 C   0  0  0  0  0  0  0  0  0  0  0  0
  -26.4060  -12.9660   19.7110 N   0  0  0  0  0  0  0  0  0  0  0  0
  -26.0860  -11.6710   19.9620 N   0  0  0  0  0  0  0  0  0  0  0  0
  -24.1840  -10.4220   20.7540 C   0  0  0  0  0  0  0  0  0  0  0  0
  -24.6570   -9.4880   21.7030 C   0  0  0  0  0  3  0  0  0  0  0  0
  -23.9590   -8.2810   21.9290 C   0  0  0  0  0  3  0  0  0  0  0  0
  -22.7740   -8.0010   21.2070 C   0  0  0  0  0  0  0  0  0  0  0  0
  -22.3240   -8.9220   20.2460 C   0  0  0  0  0  3  0  0  0  0  0  0
  -23.0230  -10.1190   20.0170 C   0  0  0  0  0  3  0  0  0  0  0  0
  -22.0430   -6.8470   21.3470 O   0  0  0  0  0  0  0  0  0  0  0  0
  -21.8590   -6.2540   22.5700 C   0  0  0  0  0  0  0  0  0  0  0  0
  -21.2990   -6.9530   23.6620 C   0  0  0  0  0  3  0  0  0  0  0  0
  -21.0690   -6.2860   24.8820 C   0  0  0  0  0  3  0  0  0  0  0  0
  -21.3810   -4.9190   25.0060 C   0  0  0  0  0  0  0  0  0  0  0  0
  -21.9320   -4.2200   23.9190 C   0  0  0  0  0  3  0  0  0  0  0  0
  -22.1670   -4.8850   22.7040 C   0  0  0  0  0  0  0  0  0  0  0  0
  -22.6800   -4.2010   21.6520 F   0  0  0  0  0  0  0  0  0  0  0  0
  -21.1510   -4.2750   26.1750 F   0  0  0  0  0  0  0  0  0  0  0  0
  -23.1320  -13.5060   21.2660 C   0  0  0  0  0  0  0  0  0  0  0  0
  -22.5800  -12.7750   22.2290 N   0  0  0  0  0  0  0  0  0  0  0  0
  -22.6080  -14.5510   20.8800 O   0  0  0  0  0  0  0  0  0  0  0  0
  -23.0160  -11.9260   22.5590 H   0  0  0  0  0  0  0  0  0  0  0  0
  -21.7060  -13.0690   22.6410 H   0  0  0  0  0  0  0  0  0  0  0  0
  -25.5810  -15.2100   20.0650 N   0  0  0  0  0  0  0  0  0  0  0  0
  -24.8750  -15.8560   20.4020 H   0  0  0  0  0  0  0  0  0  0  0  0
  -26.3710  -15.6700   19.6330 H   0  0  0  0  0  0  0  0  0  0  0  0
  -27.8850  -17.1830   21.2840 C   0  0  1  0  0  0  0  0  0  0  0  0
  -28.1680  -17.4050   22.5670 F   0  0  0  0  0  0  0  0  0  0  0  0
  -26.6790  -17.6900   21.0260 F   0  0  0  0  0  0  0  0  0  0  0  0
  -27.7960  -15.8660   21.1050 F   0  0  0  0  0  0  0  0  0  0  0  0
  -30.4400  -25.5280   21.7010 C   0  0  0  0  0  1  0  0  0  0  0  0
  -29.5740  -23.4210   22.7670 C   0  0  0  0  0  1  0  0  0  0  0  0
  -30.0690  -24.0560   21.4460 C   0  0  0  0  0  3  0  0  0  0  0  0
  -28.4230  -24.9810   19.4680 C   0  0  0  0  0  2  0  0  0  0  0  0
  -28.5350  -26.4330   19.8130 O   0  0  0  0  0  0  0  0  0  0  0  0
  -24.7030  -31.6350   23.0160 C   0  0  0  0  0  0  0  0  0  0  0  0
  -27.3860  -27.2540   19.7800 C   0  0  0  0  0  0  0  0  0  0  0  0
  -23.4980  -30.2480   21.3640 C   0  0  0  0  0  3  0  0  0  0  0  0
  -24.9640  -28.7920   19.8580 C   0  0  0  0  0  0  0  0  0  0  0  0
  -26.0190  -30.6590   21.1230 C   0  0  0  0  0  2  0  0  0  0  0  0
  -26.1290  -29.2980   20.4460 C   0  0  0  0  0  0  0  0  0  0  0  0
  -27.3400  -28.5420   20.4010 C   0  0  0  0  0  3  0  0  0  0  0  0
  -26.1970  -26.8150   19.1540 C   0  0  0  0  0  3  0  0  0  0  0  0
  -24.9990  -27.5520   19.2020 C   0  0  0  0  0  3  0  0  0  0  0  0
  -23.7000  -29.6220   19.9590 C   0  0  0  0  0  2  0  0  0  0  0  0
  -24.7590  -30.8660   21.8920 N   0  0  0  0  0  0  0  0  0  0  0  0
  -23.6270  -31.8590   23.5880 O   0  0  0  0  0  0  0  0  0  0  0  0
  -22.9000  -29.1810   22.3130 C   0  0  0  0  0  0  0  0  0  0  0  0
  -21.5790  -28.9590   22.2120 N   0  0  0  0  0  0  0  0  0  0  0  0
  -23.6200  -28.5620   23.1000 O   0  0  0  0  0  0  0  0  0  0  0  0
  -21.0570  -29.5110   21.5460 H   0  0  0  0  0  0  0  0  0  0  0  0
  -18.2560  -27.6560   22.7920 C   0  0  0  0  0  0  0  0  0  0  0  0
  -20.8140  -27.9770   22.9820 C   0  0  0  0  0  3  0  0  0  0  0  0
  -20.9330  -26.5690   22.3570 C   0  0  0  0  0  2  0  0  0  0  0  0
  -19.8040  -26.2490   21.3710 C   0  0  0  0  0  2  0  0  0  0  0  0
  -18.4430  -26.3340   22.0660 C   0  0  0  0  0  2  0  0  0  0  0  0
  -19.3670  -28.4330   23.2090 C   0  0  0  0  0  0  0  0  0  0  0  0
  -19.1350  -29.6670   23.8530 C   0  0  0  0  0  3  0  0  0  0  0  0
  -17.8240  -30.1240   24.0840 C   0  0  0  0  0  3  0  0  0  0  0  0
  -16.7280  -29.3460   23.6780 C   0  0  0  0  0  3  0  0  0  0  0  0
  -16.9430  -28.1130   23.0390 C   0  0  0  0  0  3  0  0  0  0  0  0
  -25.9840  -32.2880   23.6220 C   0  0  0  0  0  3  0  0  0  0  0  0
  -26.5790  -31.4780   24.8400 C   0  0  1  0  0  0  0  0  0  0  0  0
  -25.5320  -31.1450   25.9280 C   0  0  0  0  0  1  0  0  0  0  0  0
  -27.2070  -30.1480   24.3600 C   0  0  0  0  0  1  0  0  0  0  0  0
  -27.7190  -32.2910   25.5000 C   0  0  0  0  0  1  0  0  0  0  0  0
  -25.6360  -33.6560   24.0280 N   0  0  0  0  0  0  0  0  0  0  0  0
  -25.8770  -34.7500   23.2960 C   0  0  0  0  0  0  0  0  0  0  0  0
  -26.4900  -34.7130   22.2250 O   0  0  0  0  0  0  0  0  0  0  0  0
  -25.0780  -33.7540   24.8640 H   0  0  0  0  0  0  0  0  0  0  0  0
  -24.0520  -36.4700   23.1150 C   0  0  0  0  0  1  0  0  0  0  0  0
  -25.3590  -36.0980   23.8340 C   0  0  0  0  0  3  0  0  0  0  0  0
  -27.5000  -37.0510   24.5720 C   0  0  0  0  0  1  0  0  0  0  0  0
  -26.3360  -37.2030   23.7020 N   0  0  0  0  0  0  0  0  0  0  0  0
  -25.8980  -38.0980   23.9080 H   0  0  0  0  0  0  0  0  0  0  0  0
  1  4  1  0
  1  3  1  0
  3 57  1  6
  3  2  1  0
  3 56  1  0
  4  2  1  0
  5  1  2  0
  6  7  2  0
  6 10  1  0
  7 11  1  0
  8  9  1  0
  9 50  1  0
 10  4  1  0
 10  8  2  0
 11  9  2  0
 12 20  1  0
 13 18  1  0
 14 15  1  0
 14 13  1  0
 16 15  1  0
 16 25  1  0
 16 17  1  0
 18 12  1  0
 18 17  1  0
 19 12  2  0
 20 11  1  0
 20 21  1  0
 22 23  2  0
 23 42  1  0
 24 23  1  0
 24 27  1  0
 25 26  1  0
 25 22  1  0
 26 24  2  0
 27 28  1  0
 28 29  2  0
 30 33  1  0
 30 29  1  0
 31 30  2  0
 32 31  1  0
 32 27  2  0
 33 34  1  0
 34 39  2  0
 34 35  1  0
 35 36  2  0
 36 37  1  0
 37 41  1  0
 38 37  2  0
 39 38  1  0
 40 39  1  0
 42 43  1  0
 43 45  1  0
 43 46  1  0
 44 42  2  0
 47 22  1  0
 47 48  1  0
 49 47  1  0
 50 51  1  1
 52 50  1  0
 53 50  1  0
 56 54  1  0
 56 55  1  0
 57 58  1  0
 59 70  2  0
 60 58  1  0
 60 65  1  0
 61 69  1  0
 61 71  1  0
 62 68  1  0
 62 64  1  0
 63 69  1  0
 64 63  1  0
 65 64  2  0
 66 67  1  0
 66 60  2  0
 67 62  2  0
 68 61  1  0
 69 59  1  0
 71 73  2  0
 72 71  1  0
 74 72  1  0
 75 84  2  0
 75 80  1  0
 76 72  1  0
 76 80  1  0
 77 76  1  0
 78 79  1  0
 78 77  1  0
 79 75  1  0
 80 81  2  0
 81 82  1  0
 83 82  2  0
 84 83  1  0
 85 59  1  0
 85 90  1  0
 85 86  1  0
 86 89  1  1
 86 87  1  0
 88 86  1  0
 90 93  1  0
 91 95  1  0
 91 90  1  0
 92 91  2  0
 95 94  1  0
 97 95  1  0
 97 98  1  0
 97 96  1  0
M  ISO  4  12 100  20 100  57 101  58 101
M  END
>  <TORSDO>  (72) 
F 20

>  <SCORE>  (72) 
-6.908

>  <name>  (72) 
72

>  <ligand_id>  (72) 
72

>  <original_smiles>  (72) 
[H]c1c([H])c([H])c2c(c1[H])C([H])([H])C([H])([H])C([H])([H])C2([H])N([H])C(=O)C1([H])N(C(=O)C([H])(N([H])C(=O)C([H])(N([H])C([H])([H])[H])C([H])([H])[H])C(C([H])([H])[H])(C([H])([H])[H])C([H])([H])[H])C([H])([H])c2c([H])c(OC([H])([H])C3(C([H])(C([H])([H])[H])C([H])([H])[H])C(=O)N(c4c([H])c([H])c(N([H])C(=O)N5C([H])([H])C([H])([H])C([H])([H])C([H])(n6nc(-c7c([H])c([H])c(Oc8c([H])c([H])c(F)c([H])c8F)c([H])c7[H])c(C(=O)N([H])[H])c6N([H])[H])C5([H])[H])c(C(F)(F)F)c4[H])C3([H])[H])c([H])c([H])c2C1([H])[H]

>  <smiles>  (72) 
[H]c1c([H])c([H])c2c(c1[H])C([H])([H])C([H])([H])C([H])([H])C2([H])N([H])C(=O)C1([H])N(C(=O)C([H])(N([H])C(=O)C([H])(N([H])C([H])([H])[H])C([H])([H])[H])C(C([H])([H])[H])(C([H])([H])[H])C([H])([H])[H])C([H])([H])c2c([H])c(OC([H])([H])C3(C([H])(C([H])([H])[H])C([H])([H])[H])C(=O)N(c4c([H])c([H])c(N([H])C(=O)N5C([H])([H])C([H])([H])C([H])([H])C([H])(n6nc(-c7c([H])c([H])c(Oc8c([H])c([H])c(F)c([H])c8F)c([H])c7[H])c(C(=O)N([H])[H])c6N([H])[H])C5([H])[H])c(C(F)(F)F)c4[H])C3([H])[H])c([H])c([H])c2C1([H])[H]

$$$$
73:0:0
     RDKit          3D

 94103  0  0  1  0  0  0  0  0999 V2000
  -29.8860  -23.3180   19.0020 C   0  0  0  0  0  0  0  0  0  0  0  0
  -30.2750  -21.8950   18.9860 C   0  0  0  0  0  0  0  0  0  0  0  0
  -30.6750  -24.2510   18.4280 C   0  0  0  0  0  2  0  0  0  0  0  0
  -28.5870  -22.1820   20.5310 C   0  0  0  0  0  2  0  0  0  0  0  0
  -28.6020  -23.5750   19.7720 C   0  0  0  0  0  3  0  0  0  0  0  0
  -29.4890  -21.1870   19.8380 N   0  0  0  0  0  0  0  0  0  0  0  0
  -31.1700  -21.3970   18.2950 O   0  0  0  0  0  0  0  0  0  0  0  0
  -30.3730  -19.8800   21.7130 C   0  0  0  0  0  3  0  0  0  0  0  0
  -30.7410  -17.4490   21.7560 C   0  0  0  0  0  3  0  0  0  0  0  0
  -29.8090  -18.5230   19.7750 C   0  0  0  0  0  3  0  0  0  0  0  0
  -30.7960  -18.7150   22.3790 C   0  0  0  0  0  0  0  0  0  0  0  0
  -29.8710  -19.8500   20.3980 C   0  0  0  0  0  0  0  0  0  0  0  0
  -30.2450  -17.2890   20.4440 C   0  0  0  0  0  0  0  0  0  0  0  0
  -31.3140  -18.8520   23.7980 C   0  0  0  0  0  1  0  0  0  0  0  0
  -30.8060  -14.7230   20.0440 C   0  0  0  0  0  0  0  0  0  0  0  0
  -30.5290  -12.4210   19.0600 C   0  0  0  0  0  2  0  0  0  0  0  0
  -29.5680  -12.4900   17.8500 C   0  0  0  0  0  2  0  0  0  0  0  0
  -28.1010  -12.3730   18.3150 C   0  0  0  0  0  2  0  0  0  0  0  0
  -27.7770  -13.2930   19.5230 C   0  0  0  0  0  3  0  0  0  0  0  0
  -28.8570  -13.2000   20.6190 C   0  0  0  0  0  2  0  0  0  0  0  0
  -30.1420  -13.5140   19.9810 N   0  0  0  0  0  0  0  0  0  0  0  0
  -32.0200  -14.7630   19.8270 O   0  0  0  0  0  0  0  0  0  0  0  0
  -30.0310  -15.8870   19.9810 N   0  0  0  0  0  0  0  0  0  0  0  0
  -29.0650  -15.6870   19.7680 H   0  0  0  0  0  0  0  0  0  0  0  0
  -25.4350  -13.9770   20.3150 C   0  0  0  0  0  0  0  0  0  0  0  0
  -24.3510  -13.2440   20.7150 C   0  0  0  0  0  0  0  0  0  0  0  0
  -24.7630  -11.8770   20.6810 C   0  0  0  0  0  0  0  0  0  0  0  0
  -26.4390  -13.0570   20.0550 N   0  0  0  0  0  0  0  0  0  0  0  0
  -26.0440  -11.7900   20.3400 N   0  0  0  0  0  0  0  0  0  0  0  0
  -23.9950  -10.6440   20.8940 C   0  0  0  0  0  0  0  0  0  0  0  0
  -24.4010   -9.6770   21.8410 C   0  0  0  0  0  3  0  0  0  0  0  0
  -23.6350   -8.5080   22.0430 C   0  0  0  0  0  3  0  0  0  0  0  0
  -22.4490   -8.3000   21.3010 C   0  0  0  0  0  0  0  0  0  0  0  0
  -22.0610   -9.2530   20.3440 C   0  0  0  0  0  3  0  0  0  0  0  0
  -22.8260  -10.4140   20.1390 C   0  0  0  0  0  3  0  0  0  0  0  0
  -21.6570   -7.1820   21.4100 O   0  0  0  0  0  0  0  0  0  0  0  0
  -21.5730   -6.4730   22.5800 C   0  0  0  0  0  0  0  0  0  0  0  0
  -21.1640   -7.0740   23.7890 C   0  0  0  0  0  3  0  0  0  0  0  0
  -21.0230   -6.2920   24.9530 C   0  0  0  0  0  3  0  0  0  0  0  0
  -21.2820   -4.9100   24.9080 C   0  0  0  0  0  0  0  0  0  0  0  0
  -21.6840   -4.3070   23.7020 C   0  0  0  0  0  3  0  0  0  0  0  0
  -21.8260   -5.0860   22.5410 C   0  0  0  0  0  0  0  0  0  0  0  0
  -22.1940   -4.4960   21.3790 F   0  0  0  0  0  0  0  0  0  0  0  0
  -21.1380   -4.1580   26.0240 F   0  0  0  0  0  0  0  0  0  0  0  0
  -22.9780  -13.7750   21.0100 C   0  0  0  0  0  0  0  0  0  0  0  0
  -22.2490  -13.1180   21.9040 N   0  0  0  0  0  0  0  0  0  0  0  0
  -22.5650  -14.8060   20.4810 O   0  0  0  0  0  0  0  0  0  0  0  0
  -22.5980  -12.2850   22.3570 H   0  0  0  0  0  0  0  0  0  0  0  0
  -21.3230  -13.4490   22.1370 H   0  0  0  0  0  0  0  0  0  0  0  0
  -25.6430  -15.3400   20.1240 N   0  0  0  0  0  0  0  0  0  0  0  0
  -24.8960  -16.0130   20.2510 H   0  0  0  0  0  0  0  0  0  0  0  0
  -26.4890  -15.7520   19.7540 H   0  0  0  0  0  0  0  0  0  0  0  0
  -28.4020  -24.9200   20.6700 C   0  0  0  0  0  2  0  0  0  0  0  0
  -28.4950  -26.3500   20.2140 O   0  0  0  0  0  0  0  0  0  0  0  0
  -24.6270  -31.7730   23.2120 C   0  0  0  0  0  0  0  0  0  0  0  0
  -27.3580  -27.1890   20.2390 C   0  0  0  0  0  0  0  0  0  0  0  0
  -23.4800  -30.3590   21.5430 C   0  0  0  0  0  3  0  0  0  0  0  0
  -24.9830  -28.7950   20.1770 C   0  0  0  0  0  0  0  0  0  0  0  0
  -26.0240  -30.6860   21.4290 C   0  0  0  0  0  2  0  0  0  0  0  0
  -26.1360  -29.2970   20.7950 C   0  0  0  0  0  0  0  0  0  0  0  0
  -27.3300  -28.5080   20.8080 C   0  0  0  0  0  3  0  0  0  0  0  0
  -26.1800  -26.7410   19.6100 C   0  0  0  0  0  3  0  0  0  0  0  0
  -25.0090  -27.5250   19.5770 C   0  0  0  0  0  3  0  0  0  0  0  0
  -23.7450  -29.6730   20.1770 C   0  0  0  0  0  2  0  0  0  0  0  0
  -24.7290  -30.9560   22.1210 N   0  0  0  0  0  0  0  0  0  0  0  0
  -23.5250  -32.0470   23.7140 O   0  0  0  0  0  0  0  0  0  0  0  0
  -22.7950  -29.3440   22.4900 C   0  0  0  0  0  0  0  0  0  0  0  0
  -21.4710  -29.1710   22.3360 N   0  0  0  0  0  0  0  0  0  0  0  0
  -23.4540  -28.7160   23.3240 O   0  0  0  0  0  0  0  0  0  0  0  0
  -20.9980  -29.7450   21.6490 H   0  0  0  0  0  0  0  0  0  0  0  0
  -18.0830  -27.9630   22.7460 C   0  0  0  0  0  0  0  0  0  0  0  0
  -20.6310  -28.2330   23.0850 C   0  0  0  0  0  3  0  0  0  0  0  0
  -20.7520  -26.7980   22.5230 C   0  0  0  0  0  2  0  0  0  0  0  0
  -19.6820  -26.4670   21.4790 C   0  0  0  0  0  2  0  0  0  0  0  0
  -18.2820  -26.6100   22.0840 C   0  0  0  0  0  2  0  0  0  0  0  0
  -19.1860  -28.7320   23.2040 C   0  0  0  0  0  0  0  0  0  0  0  0
  -18.9480  -29.9970   23.7840 C   0  0  0  0  0  3  0  0  0  0  0  0
  -17.6390  -30.4940   23.9100 C   0  0  0  0  0  3  0  0  0  0  0  0
  -16.5480  -29.7250   23.4680 C   0  0  0  0  0  3  0  0  0  0  0  0
  -16.7710  -28.4600   22.8920 C   0  0  0  0  0  3  0  0  0  0  0  0
  -25.8830  -32.4180   23.8730 C   0  0  0  0  0  3  0  0  0  0  0  0
  -25.5580  -33.8170   24.1860 N   0  0  0  0  0  0  0  0  0  0  0  0
  -25.9040  -34.8670   23.4280 C   0  0  0  0  0  0  0  0  0  0  0  0
  -26.6010  -34.7580   22.4160 O   0  0  0  0  0  0  0  0  0  0  0  0
  -24.9430  -33.9770   24.9710 H   0  0  0  0  0  0  0  0  0  0  0  0
  -24.1750  -36.6460   23.0250 C   0  0  0  0  0  1  0  0  0  0  0  0
  -25.4000  -36.2560   23.8650 C   0  0  0  0  0  3  0  0  0  0  0  0
  -27.5140  -37.1580   24.7250 C   0  0  0  0  0  1  0  0  0  0  0  0
  -26.4290  -37.3150   23.7630 N   0  0  0  0  0  0  0  0  0  0  0  0
  -26.0160  -38.2350   23.8980 H   0  0  0  0  0  0  0  0  0  0  0  0
  -26.3600  -31.6590   25.1720 C   0  0  1  0  0  0  0  0  0  0  0  0
  -25.2330  -31.4300   26.2080 C   0  0  0  0  0  1  0  0  0  0  0  0
  -26.9580  -30.2820   24.8040 C   0  0  0  0  0  1  0  0  0  0  0  0
  -27.4910  -32.4600   25.8610 C   0  0  0  0  0  1  0  0  0  0  0  0
  1  5  1  0
  2  1  1  0
  2  6  1  0
  3  1  2  0
  5  4  1  0
  5 53  1  0
  6 12  1  0
  6  4  1  0
  7  2  2  0
  8 11  1  0
  9 11  2  0
 10 12  1  0
 10 13  2  0
 11 14  1  0
 12  8  2  0
 13  9  1  0
 16 21  1  0
 17 18  1  0
 17 16  1  0
 19 18  1  0
 19 28  1  0
 19 20  1  0
 21 15  1  0
 21 20  1  0
 22 15  2  0
 23 15  1  0
 23 13  1  0
 24 23  1  0
 25 26  2  0
 26 45  1  0
 27 26  1  0
 27 30  1  0
 28 25  1  0
 28 29  1  0
 29 27  2  0
 30 31  1  0
 31 32  2  0
 33 36  1  0
 33 32  1  0
 34 33  2  0
 35 34  1  0
 35 30  2  0
 36 37  1  0
 37 38  1  0
 38 39  2  0
 40 39  1  0
 40 44  1  0
 41 40  2  0
 42 37  2  0
 42 41  1  0
 43 42  1  0
 45 46  1  0
 46 49  1  0
 46 48  1  0
 47 45  2  0
 50 51  1  0
 50 25  1  0
 52 50  1  0
 54 56  1  0
 54 53  1  0
 55 66  2  0
 56 61  1  0
 57 65  1  0
 57 67  1  0
 58 64  1  0
 58 60  1  0
 59 65  1  0
 60 61  2  0
 60 59  1  0
 62 56  2  0
 63 62  1  0
 63 58  2  0
 64 57  1  0
 65 55  1  0
 67 69  2  0
 68 67  1  0
 70 68  1  0
 71 80  2  0
 71 76  1  0
 72 68  1  0
 72 76  1  0
 73 72  1  0
 74 75  1  0
 74 73  1  0
 75 71  1  0
 76 77  2  0
 77 78  1  0
 79 78  2  0
 80 79  1  0
 81 55  1  0
 81 82  1  0
 81 91  1  0
 82 85  1  0
 83 87  1  0
 83 82  1  0
 84 83  2  0
 87 86  1  0
 89 87  1  0
 89 90  1  0
 89 88  1  0
 91 94  1  1
 91 92  1  0
 93 91  1  0
M  ISO  4  15 100  23 100  53 101  54 101
M  END
>  <TORSDO>  (73) 
F 18

>  <SCORE>  (73) 
-13.983

>  <name>  (73) 
73

>  <ligand_id>  (73) 
73

>  <original_smiles>  (73) 
[H]C([H])=C1C(=O)N(c2c([H])c(N([H])C(=O)N3C([H])([H])C([H])([H])C([H])([H])C([H])(n4nc(-c5c([H])c([H])c(Oc6c([H])c([H])c(F)c([H])c6F)c([H])c5[H])c(C(=O)N([H])[H])c4N([H])[H])C3([H])[H])c([H])c(C([H])([H])[H])c2[H])C([H])([H])C1([H])C([H])([H])Oc1c([H])c([H])c2c(c1[H])C([H])([H])N(C(=O)C([H])(N([H])C(=O)C([H])(N([H])C([H])([H])[H])C([H])([H])[H])C(C([H])([H])[H])(C([H])([H])[H])C([H])([H])[H])C([H])(C(=O)N([H])C1([H])c3c([H])c([H])c([H])c([H])c3C([H])([H])C([H])([H])C1([H])[H])C2([H])[H]

>  <smiles>  (73) 
[H]C([H])=C1C(=O)N(c2c([H])c(N([H])C(=O)N3C([H])([H])C([H])([H])C([H])([H])C([H])(n4nc(-c5c([H])c([H])c(Oc6c([H])c([H])c(F)c([H])c6F)c([H])c5[H])c(C(=O)N([H])[H])c4N([H])[H])C3([H])[H])c([H])c(C([H])([H])[H])c2[H])C([H])([H])C1([H])C([H])([H])Oc1c([H])c([H])c2c(c1[H])C([H])([H])N(C(=O)C([H])(N([H])C(=O)C([H])(N([H])C([H])([H])[H])C([H])([H])[H])C(C([H])([H])[H])(C([H])([H])[H])C([H])([H])[H])C([H])(C(=O)N([H])C1([H])c3c([H])c([H])c([H])c([H])c3C([H])([H])C([H])([H])C1([H])[H])C2([H])[H]

$$$$
74:0:0
     RDKit          3D

 98106  0  0  1  0  0  0  0  0999 V2000
  -31.4240  -19.2010   20.7970 C   0  0  0  0  0  3  0  0  0  0  0  0
  -31.0600  -17.8400   20.8030 C   0  0  0  0  0  3  0  0  0  0  0  0
  -28.8270  -18.5720   20.2230 C   0  0  0  0  0  3  0  0  0  0  0  0
  -30.5340  -20.2780   20.5270 C   0  0  0  0  0  0  0  0  0  0  0  0
  -29.7400  -17.4150   20.5750 C   0  0  0  0  0  0  0  0  0  0  0  0
  -29.1710  -20.0460   20.1350 C   0  0  0  0  0  0  0  0  0  0  0  0
  -30.2270  -14.7700   21.3110 C   0  0  0  0  0  0  0  0  0  0  0  0
  -30.3460  -12.2190   21.1720 C   0  0  0  0  0  2  0  0  0  0  0  0
  -29.7280  -11.6790   19.8620 C   0  0  0  0  0  2  0  0  0  0  0  0
  -28.2080  -11.4870   20.0160 C   0  0  0  0  0  2  0  0  0  0  0  0
  -27.5260  -12.7000   20.6990 C   0  0  0  0  0  3  0  0  0  0  0  0
  -28.2910  -13.1860   21.9480 C   0  0  0  0  0  2  0  0  0  0  0  0
  -29.6560  -13.5030   21.5080 N   0  0  0  0  0  0  0  0  0  0  0  0
  -31.4620  -14.8080   21.3740 O   0  0  0  0  0  0  0  0  0  0  0  0
  -29.4660  -15.8910   20.8020 N   0  0  0  0  0  0  0  0  0  0  0  0
  -28.5190  -15.6220   20.5850 H   0  0  0  0  0  0  0  0  0  0  0  0
  -25.0960  -13.3940   21.0780 C   0  0  0  0  0  0  0  0  0  0  0  0
  -23.9450  -12.6740   21.2350 C   0  0  0  0  0  0  0  0  0  0  0  0
  -24.3320  -11.2990   21.2190 C   0  0  0  0  0  0  0  0  0  0  0  0
  -26.1130  -12.4630   20.9680 N   0  0  0  0  0  0  0  0  0  0  0  0
  -25.6520  -11.1940   21.1220 N   0  0  0  0  0  0  0  0  0  0  0  0
  -23.5130  -10.0800   21.2290 C   0  0  0  0  0  0  0  0  0  0  0  0
  -23.6670   -9.0920   22.2260 C   0  0  0  0  0  3  0  0  0  0  0  0
  -22.8520   -7.9400   22.2250 C   0  0  0  0  0  3  0  0  0  0  0  0
  -21.8680   -7.7660   21.2220 C   0  0  0  0  0  0  0  0  0  0  0  0
  -21.7330   -8.7430   20.2190 C   0  0  0  0  0  3  0  0  0  0  0  0
  -22.5490   -9.8860   20.2190 C   0  0  0  0  0  3  0  0  0  0  0  0
  -21.0480   -6.6670   21.1270 O   0  0  0  0  0  0  0  0  0  0  0  0
  -20.6340   -5.9810   22.2400 C   0  0  0  0  0  0  0  0  0  0  0  0
  -19.9310   -6.6140   23.2880 C   0  0  0  0  0  3  0  0  0  0  0  0
  -19.4630   -5.8560   24.3810 C   0  0  0  0  0  3  0  0  0  0  0  0
  -19.6870   -4.4680   24.4230 C   0  0  0  0  0  0  0  0  0  0  0  0
  -20.3820   -3.8340   23.3770 C   0  0  0  0  0  3  0  0  0  0  0  0
  -20.8510   -4.5890   22.2870 C   0  0  0  0  0  0  0  0  0  0  0  0
  -21.5010   -3.9700   21.2720 F   0  0  0  0  0  0  0  0  0  0  0  0
  -19.2310   -3.7380   25.4680 F   0  0  0  0  0  0  0  0  0  0  0  0
  -22.5510  -13.2300   21.2920 C   0  0  0  0  0  0  0  0  0  0  0  0
  -21.6610  -12.5760   22.0290 N   0  0  0  0  0  0  0  0  0  0  0  0
  -22.2600  -14.2790   20.7190 O   0  0  0  0  0  0  0  0  0  0  0  0
  -21.9070  -11.7280   22.5160 H   0  0  0  0  0  0  0  0  0  0  0  0
  -20.7180  -12.9320   22.1090 H   0  0  0  0  0  0  0  0  0  0  0  0
  -25.3610  -14.7580   20.9900 N   0  0  0  0  0  0  0  0  0  0  0  0
  -24.6180  -15.4480   20.9960 H   0  0  0  0  0  0  0  0  0  0  0  0
  -26.2660  -15.1560   20.7810 H   0  0  0  0  0  0  0  0  0  0  0  0
  -28.3650  -22.5850   19.2020 C   0  0  0  0  0  0  0  0  0  0  0  0
  -28.2210  -21.2620   19.7900 N   0  0  0  0  0  0  0  0  0  0  0  0
  -29.4200  -22.8460   18.6220 O   0  0  0  0  0  0  0  0  0  0  0  0
  -27.2610  -21.0960   20.0620 H   0  0  0  0  0  0  0  0  0  0  0  0
  -27.2120  -23.8150   19.1220 C   0  0  0  0  0  2  0  0  0  0  0  0
  -27.5190  -25.3610   18.8950 O   0  0  0  0  0  0  0  0  0  0  0  0
  -24.3360  -30.8940   22.7270 C   0  0  0  0  0  0  0  0  0  0  0  0
  -26.4970  -26.3950   19.0400 C   0  0  0  0  0  0  0  0  0  0  0  0
  -22.9480  -29.6450   21.1220 C   0  0  0  0  0  3  0  0  0  0  0  0
  -24.2110  -28.1880   19.4160 C   0  0  0  0  0  0  0  0  0  0  0  0
  -25.4760  -29.9020   20.6970 C   0  0  0  0  0  2  0  0  0  0  0  0
  -25.4600  -28.5650   19.9250 C   0  0  0  0  0  0  0  0  0  0  0  0
  -26.6010  -27.6890   19.7170 C   0  0  0  0  0  3  0  0  0  0  0  0
  -25.2150  -26.1460   18.5000 C   0  0  0  0  0  3  0  0  0  0  0  0
  -24.1030  -26.9970   18.6850 C   0  0  0  0  0  3  0  0  0  0  0  0
  -23.0080  -29.0870   19.6760 C   0  0  0  0  0  2  0  0  0  0  0  0
  -24.2800  -30.1650   21.5690 N   0  0  0  0  0  0  0  0  0  0  0  0
  -23.3180  -31.1370   23.3940 O   0  0  0  0  0  0  0  0  0  0  0  0
  -22.3650  -28.5630   22.0680 C   0  0  0  0  0  0  0  0  0  0  0  0
  -21.0370  -28.3520   22.0200 N   0  0  0  0  0  0  0  0  0  0  0  0
  -23.1090  -27.9170   22.8100 O   0  0  0  0  0  0  0  0  0  0  0  0
  -20.4890  -28.9260   21.3950 H   0  0  0  0  0  0  0  0  0  0  0  0
  -17.7590  -26.9140   22.5870 C   0  0  0  0  0  0  0  0  0  0  0  0
  -20.3010  -27.3430   22.7890 C   0  0  0  0  0  3  0  0  0  0  0  0
  -20.4810  -25.9350   22.1750 C   0  0  0  0  0  2  0  0  0  0  0  0
  -19.3750  -25.5630   21.1830 C   0  0  0  0  0  2  0  0  0  0  0  0
  -18.0050  -25.5980   21.8690 C   0  0  0  0  0  2  0  0  0  0  0  0
  -18.8350  -27.7410   23.0050 C   0  0  0  0  0  0  0  0  0  0  0  0
  -18.5490  -28.9680   23.6410 C   0  0  0  0  0  3  0  0  0  0  0  0
  -17.2180  -29.3710   23.8600 C   0  0  0  0  0  3  0  0  0  0  0  0
  -16.1570  -28.5440   23.4560 C   0  0  0  0  0  3  0  0  0  0  0  0
  -16.4270  -27.3160   22.8260 C   0  0  0  0  0  3  0  0  0  0  0  0
  -25.6810  -31.4750   23.2590 C   0  0  0  0  0  3  0  0  0  0  0  0
  -25.4020  -32.7990   23.8400 N   0  0  0  0  0  0  0  0  0  0  0  0
  -25.7100  -33.9680   23.2640 C   0  0  0  0  0  0  0  0  0  0  0  0
  -26.3270  -34.0440   22.1990 O   0  0  0  0  0  0  0  0  0  0  0  0
  -24.8480  -32.8120   24.6840 H   0  0  0  0  0  0  0  0  0  0  0  0
  -24.0110  -35.8250   23.3030 C   0  0  0  0  0  1  0  0  0  0  0  0
  -25.2670  -35.2590   23.9830 C   0  0  0  0  0  3  0  0  0  0  0  0
  -27.4430  -35.9490   24.8890 C   0  0  0  0  0  1  0  0  0  0  0  0
  -26.3170  -36.3010   24.0270 N   0  0  0  0  0  0  0  0  0  0  0  0
  -25.9350  -37.1850   24.3510 H   0  0  0  0  0  0  0  0  0  0  0  0
  -26.3760  -30.5450   24.3290 C   0  0  1  0  0  0  0  0  0  0  0  0
  -25.4460  -30.1310   25.4940 C   0  0  0  0  0  1  0  0  0  0  0  0
  -26.9080  -29.2510   23.6730 C   0  0  0  0  0  1  0  0  0  0  0  0
  -27.6060  -31.2670   24.9310 C   0  0  0  0  0  1  0  0  0  0  0  0
  -31.0880  -21.6240   20.8690 C   0  0  0  0  0  0  0  0  0  0  0  0
  -30.7030  -22.2660   21.8540 O   0  0  0  0  0  0  0  0  0  0  0  0
  -32.1810  -22.1850   19.9360 C   0  0  0  0  0  2  0  0  0  0  0  0
  -32.0950  -24.6320   20.2430 C   0  0  0  0  0  0  0  0  0  0  0  0
  -31.7200  -26.0150   19.7130 C   0  0  0  0  0  1  0  0  0  0  0  0
  -31.3390  -23.6590   18.1000 C   0  0  0  0  0  1  0  0  0  0  0  0
  -31.8790  -23.5480   19.4610 N   0  0  0  0  0  0  0  0  0  0  0  0
  -32.5810  -24.5480   21.3740 O   0  0  0  0  0  0  0  0  0  0  0  0
  1  2  1  0
  3  5  1  0
  4  1  2  0
  4 91  1  0
  5 15  1  0
  5  2  2  0
  6  3  2  0
  6  4  1  0
  7 14  2  0
  7 13  1  0
  8 13  1  0
  9 10  1  0
  9  8  1  0
 11 10  1  0
 11 20  1  0
 11 12  1  0
 13 12  1  0
 15  7  1  0
 16 15  1  0
 17 18  2  0
 18 37  1  0
 19 22  1  0
 19 18  1  0
 20 17  1  0
 20 21  1  0
 21 19  2  0
 22 23  1  0
 24 23  2  0
 25 24  1  0
 26 27  1  0
 26 25  2  0
 27 22  2  0
 28 25  1  0
 28 29  1  0
 29 34  2  0
 29 30  1  0
 30 31  2  0
 31 32  1  0
 32 36  1  0
 33 32  2  0
 34 33  1  0
 35 34  1  0
 37 38  1  0
 38 41  1  0
 38 40  1  0
 39 37  2  0
 42 43  1  0
 42 17  1  0
 44 42  1  0
 45 46  1  0
 46 48  1  0
 46  6  1  0
 47 45  2  0
 49 45  1  0
 50 52  1  0
 50 49  1  0
 51 62  2  0
 52 57  1  0
 53 61  1  0
 53 63  1  0
 54 60  1  0
 54 56  1  0
 55 61  1  0
 56 55  1  0
 57 56  2  0
 58 59  1  0
 58 52  2  0
 59 54  2  0
 60 53  1  0
 61 51  1  0
 63 65  2  0
 64 63  1  0
 66 64  1  0
 67 76  2  0
 67 72  1  0
 68 64  1  0
 68 72  1  0
 69 68  1  0
 70 71  1  0
 70 69  1  0
 71 67  1  0
 72 73  2  0
 73 74  1  0
 75 74  2  0
 76 75  1  0
 77 51  1  0
 77 78  1  0
 77 87  1  0
 78 81  1  0
 79 78  1  0
 79 83  1  0
 80 79  2  0
 83 82  1  0
 83 85  1  0
 85 86  1  0
 85 84  1  0
 87 90  1  1
 87 88  1  0
 89 87  1  0
 91 92  2  0
 93 91  1  0
 94 98  2  0
 95 94  1  0
 96 97  1  0
 97 93  1  0
 97 94  1  0
M  ISO  4   7 100  15 100  49 101  50 101
M  END
>  <TORSDO>  (74) 
F 21

>  <SCORE>  (74) 
-8.629

>  <name>  (74) 
74

>  <ligand_id>  (74) 
74

>  <original_smiles>  (74) 
[H]c1c([H])c([H])c2c(c1[H])C([H])([H])C([H])([H])C([H])([H])C2([H])N([H])C(=O)C1([H])N(C(=O)C([H])(N([H])C(=O)C([H])(N([H])C([H])([H])[H])C([H])([H])[H])C(C([H])([H])[H])(C([H])([H])[H])C([H])([H])[H])C([H])([H])c2c([H])c(OC([H])([H])C(=O)N([H])c3c([H])c(N([H])C(=O)N4C([H])([H])C([H])([H])C([H])([H])C([H])(n5nc(-c6c([H])c([H])c(Oc7c([H])c([H])c(F)c([H])c7F)c([H])c6[H])c(C(=O)N([H])[H])c5N([H])[H])C4([H])[H])c([H])c([H])c3C(=O)C([H])([H])N(C(=O)C([H])([H])[H])C([H])([H])[H])c([H])c([H])c2C1([H])[H]

>  <smiles>  (74) 
[H]c1c([H])c([H])c2c(c1[H])C([H])([H])C([H])([H])C([H])([H])C2([H])N([H])C(=O)C1([H])N(C(=O)C([H])(N([H])C(=O)C([H])(N([H])C([H])([H])[H])C([H])([H])[H])C(C([H])([H])[H])(C([H])([H])[H])C([H])([H])[H])C([H])([H])c2c([H])c(OC([H])([H])C(=O)N([H])c3c([H])c(N([H])C(=O)N4C([H])([H])C([H])([H])C([H])([H])C([H])(n5nc(-c6c([H])c([H])c(Oc7c([H])c([H])c(F)c([H])c7F)c([H])c6[H])c(C(=O)N([H])[H])c5N([H])[H])C4([H])[H])c([H])c([H])c3C(=O)C([H])([H])N(C(=O)C([H])([H])[H])C([H])([H])[H])c([H])c([H])c2C1([H])[H]

$$$$
75:0:0
     RDKit          3D

 98107  0  0  1  0  0  0  0  0999 V2000
  -29.7270  -23.3630   21.4900 C   0  0  0  0  0  3  0  0  0  0  0  0
  -28.9380  -23.5900   20.3140 C   0  0  0  0  0  0  0  0  0  0  0  0
  -30.1230  -22.0360   21.5510 C   0  0  0  0  0  0  0  0  0  0  0  0
  -28.9280  -22.3110   19.7380 C   0  0  0  0  0  0  0  0  0  0  0  0
  -29.6570  -21.3100   20.4560 N   0  0  0  0  0  0  0  0  0  0  0  0
  -30.3640  -19.7370   18.7210 C   0  0  0  0  0  3  0  0  0  0  0  0
  -30.6090  -18.4760   18.1580 C   0  0  0  0  0  3  0  0  0  0  0  0
  -29.9180  -18.6620   20.8540 C   0  0  0  0  0  3  0  0  0  0  0  0
  -29.9570  -19.8970   20.0620 C   0  0  0  0  0  0  0  0  0  0  0  0
  -30.5030  -17.2960   18.9130 C   0  0  0  0  0  0  0  0  0  0  0  0
  -30.2250  -17.3310   20.3080 C   0  0  0  0  0  0  0  0  0  0  0  0
  -30.9060  -14.8720   20.9160 C   0  0  0  0  0  0  0  0  0  0  0  0
  -30.7970  -12.5440   20.0090 C   0  0  0  0  0  2  0  0  0  0  0  0
  -29.9720  -12.5370   18.7000 C   0  0  0  0  0  2  0  0  0  0  0  0
  -28.4660  -12.4010   18.9950 C   0  0  0  0  0  2  0  0  0  0  0  0
  -27.9830  -13.3370   20.1370 C   0  0  0  0  0  3  0  0  0  0  0  0
  -28.9360  -13.3100   21.3500 C   0  0  0  0  0  2  0  0  0  0  0  0
  -30.2830  -13.6410   20.8650 N   0  0  0  0  0  0  0  0  0  0  0  0
  -32.1210  -14.9450   20.7060 O   0  0  0  0  0  0  0  0  0  0  0  0
  -30.1250  -16.0210   21.0300 N   0  0  0  0  0  0  0  0  0  0  0  0
  -29.2210  -15.8500   21.4390 H   0  0  0  0  0  0  0  0  0  0  0  0
  -25.5420  -13.9430   20.6440 C   0  0  0  0  0  0  0  0  0  0  0  0
  -24.4450  -13.1790   20.9360 C   0  0  0  0  0  0  0  0  0  0  0  0
  -24.9050  -11.8270   20.9770 C   0  0  0  0  0  0  0  0  0  0  0  0
  -26.6000  -13.0580   20.5170 N   0  0  0  0  0  0  0  0  0  0  0  0
  -26.2180  -11.7820   20.7830 N   0  0  0  0  0  0  0  0  0  0  0  0
  -24.1610  -10.5690   21.1310 C   0  0  0  0  0  0  0  0  0  0  0  0
  -24.5270   -9.6050   22.0960 C   0  0  0  0  0  3  0  0  0  0  0  0
  -23.7820   -8.4140   22.2370 C   0  0  0  0  0  3  0  0  0  0  0  0
  -22.6560   -8.1780   21.4130 C   0  0  0  0  0  0  0  0  0  0  0  0
  -22.3100   -9.1320   20.4390 C   0  0  0  0  0  3  0  0  0  0  0  0
  -23.0560  -10.3130   20.2960 C   0  0  0  0  0  3  0  0  0  0  0  0
  -21.8900   -7.0390   21.4620 O   0  0  0  0  0  0  0  0  0  0  0  0
  -21.7840   -6.2910   22.6070 C   0  0  0  0  0  0  0  0  0  0  0  0
  -21.2970   -6.8380   23.8140 C   0  0  0  0  0  3  0  0  0  0  0  0
  -21.1400   -6.0160   24.9470 C   0  0  0  0  0  3  0  0  0  0  0  0
  -21.4600   -4.6480   24.8740 C   0  0  0  0  0  0  0  0  0  0  0  0
  -21.9420   -4.1000   23.6730 C   0  0  0  0  0  3  0  0  0  0  0  0
  -22.1000   -4.9190   22.5420 C   0  0  0  0  0  0  0  0  0  0  0  0
  -22.5440   -4.3820   21.3790 F   0  0  0  0  0  0  0  0  0  0  0  0
  -21.3040   -3.8560   25.9600 F   0  0  0  0  0  0  0  0  0  0  0  0
  -23.0310  -13.6650   21.0730 C   0  0  0  0  0  0  0  0  0  0  0  0
  -22.2300  -12.9940   21.8920 N   0  0  0  0  0  0  0  0  0  0  0  0
  -22.6430  -14.6750   20.4880 O   0  0  0  0  0  0  0  0  0  0  0  0
  -22.5530  -12.1760   22.3870 H   0  0  0  0  0  0  0  0  0  0  0  0
  -21.2780  -13.3050   22.0280 H   0  0  0  0  0  0  0  0  0  0  0  0
  -25.7290  -15.3070   20.4490 N   0  0  0  0  0  0  0  0  0  0  0  0
  -24.9560  -15.9640   20.4560 H   0  0  0  0  0  0  0  0  0  0  0  0
  -26.6060  -15.7290   20.1710 H   0  0  0  0  0  0  0  0  0  0  0  0
  -30.6060  -16.1000   18.2050 N   0  0  0  0  0  0  0  0  0  0  0  0
  -30.4960  -16.1500   17.1980 H   0  0  0  0  0  0  0  0  0  0  0  0
  -30.1270  -15.3040   18.6000 H   0  0  0  0  0  0  0  0  0  0  0  0
  -30.8920  -21.4280   22.4960 O   0  0  0  0  0  0  0  0  0  0  0  0
  -31.1670  -22.0900   23.1240 H   0  0  0  0  0  0  0  0  0  0  0  0
  -28.2840  -21.9500   18.5910 O   0  0  0  0  0  0  0  0  0  0  0  0
  -28.0020  -22.7420   18.1460 H   0  0  0  0  0  0  0  0  0  0  0  0
  -28.1250  -24.8830   19.8100 C   0  0  0  0  0  2  0  0  0  0  0  0
  -28.4010  -26.3420   20.1050 O   0  0  0  0  0  0  0  0  0  0  0  0
  -24.5610  -31.8090   23.0340 C   0  0  0  0  0  0  0  0  0  0  0  0
  -27.3020  -27.2490   20.0080 C   0  0  0  0  0  0  0  0  0  0  0  0
  -23.4020  -30.3660   21.4050 C   0  0  0  0  0  3  0  0  0  0  0  0
  -24.9000  -28.8520   19.9850 C   0  0  0  0  0  0  0  0  0  0  0  0
  -25.9400  -30.7370   21.2300 C   0  0  0  0  0  2  0  0  0  0  0  0
  -26.0600  -29.3540   20.5870 C   0  0  0  0  0  0  0  0  0  0  0  0
  -27.2620  -28.5640   20.5940 C   0  0  0  0  0  3  0  0  0  0  0  0
  -26.1150  -26.8430   19.3460 C   0  0  0  0  0  3  0  0  0  0  0  0
  -24.9340  -27.6030   19.3540 C   0  0  0  0  0  3  0  0  0  0  0  0
  -23.6390  -29.6910   20.0290 C   0  0  0  0  0  2  0  0  0  0  0  0
  -24.6530  -30.9890   21.9460 N   0  0  0  0  0  0  0  0  0  0  0  0
  -23.4670  -32.0610   23.5630 O   0  0  0  0  0  0  0  0  0  0  0  0
  -22.7630  -29.3370   22.3690 C   0  0  0  0  0  0  0  0  0  0  0  0
  -21.4330  -29.1600   22.2770 N   0  0  0  0  0  0  0  0  0  0  0  0
  -23.4620  -28.7030   23.1630 O   0  0  0  0  0  0  0  0  0  0  0  0
  -20.9260  -29.7240   21.6090 H   0  0  0  0  0  0  0  0  0  0  0  0
  -18.0650  -27.9790   22.8870 C   0  0  0  0  0  0  0  0  0  0  0  0
  -20.6350  -28.2130   23.0590 C   0  0  0  0  0  3  0  0  0  0  0  0
  -20.7010  -26.7930   22.4490 C   0  0  0  0  0  2  0  0  0  0  0  0
  -19.5550  -26.5020   21.4740 C   0  0  0  0  0  2  0  0  0  0  0  0
  -18.2020  -26.6440   22.1760 C   0  0  0  0  0  2  0  0  0  0  0  0
  -19.2070  -28.7240   23.2880 C   0  0  0  0  0  0  0  0  0  0  0  0
  -19.0230  -29.9740   23.9160 C   0  0  0  0  0  3  0  0  0  0  0  0
  -17.7300  -30.4800   24.1480 C   0  0  0  0  0  3  0  0  0  0  0  0
  -16.6040  -29.7320   23.7640 C   0  0  0  0  0  3  0  0  0  0  0  0
  -16.7720  -28.4840   23.1390 C   0  0  0  0  0  3  0  0  0  0  0  0
  -25.8220  -32.4840   23.6540 C   0  0  0  0  0  3  0  0  0  0  0  0
  -25.4550  -33.8590   24.0240 N   0  0  0  0  0  0  0  0  0  0  0  0
  -25.7650  -34.9490   23.3110 C   0  0  0  0  0  0  0  0  0  0  0  0
  -26.4600  -34.9060   22.2920 O   0  0  0  0  0  0  0  0  0  0  0  0
  -24.8420  -33.9640   24.8190 H   0  0  0  0  0  0  0  0  0  0  0  0
  -24.0030  -36.7100   22.9590 C   0  0  0  0  0  1  0  0  0  0  0  0
  -25.2190  -36.3030   23.8060 C   0  0  0  0  0  3  0  0  0  0  0  0
  -27.2890  -37.2100   24.7680 C   0  0  0  0  0  1  0  0  0  0  0  0
  -26.2250  -37.3870   23.7830 N   0  0  0  0  0  0  0  0  0  0  0  0
  -25.7860  -38.2890   23.9500 H   0  0  0  0  0  0  0  0  0  0  0  0
  -26.3880  -31.7070   24.9050 C   0  0  1  0  0  0  0  0  0  0  0  0
  -25.3220  -31.4040   25.9840 C   0  0  0  0  0  1  0  0  0  0  0  0
  -27.0220  -30.3630   24.4800 C   0  0  0  0  0  1  0  0  0  0  0  0
  -27.5140  -32.5350   25.5690 C   0  0  0  0  0  1  0  0  0  0  0  0
  1  3  2  0
  2  1  1  0
  3 53  1  0
  4  2  2  0
  4  5  1  0
  5  3  1  0
  6  9  1  0
  7  6  2  0
  7 10  1  0
  9  5  1  0
  9  8  2  0
 10 11  2  0
 11  8  1  0
 11 20  1  0
 12 20  1  0
 13 18  1  0
 14 15  1  0
 14 13  1  0
 16 15  1  0
 16 25  1  0
 16 17  1  0
 18 12  1  0
 18 17  1  0
 19 12  2  0
 20 21  1  0
 22 23  2  0
 23 24  1  0
 23 42  1  0
 24 27  1  0
 25 22  1  0
 25 26  1  0
 26 24  2  0
 27 28  1  0
 28 29  2  0
 30 33  1  0
 30 29  1  0
 31 30  2  0
 32 31  1  0
 32 27  2  0
 33 34  1  0
 34 35  1  0
 35 36  2  0
 37 36  1  0
 37 41  1  0
 38 37  2  0
 39 34  2  0
 39 38  1  0
 40 39  1  0
 42 43  1  0
 43 46  1  0
 43 45  1  0
 44 42  2  0
 47 48  1  0
 47 22  1  0
 49 47  1  0
 50 52  1  0
 50 10  1  0
 51 50  1  0
 53 54  1  0
 55  4  1  0
 56 55  1  0
 57 58  1  0
 57  2  1  0
 59 70  2  0
 60 58  1  0
 60 65  1  0
 61 69  1  0
 61 71  1  0
 62 68  1  0
 62 64  1  0
 63 69  1  0
 64 65  2  0
 64 63  1  0
 66 67  1  0
 66 60  2  0
 67 62  2  0
 68 61  1  0
 69 59  1  0
 71 73  2  0
 72 71  1  0
 74 72  1  0
 75 84  2  0
 75 80  1  0
 76 72  1  0
 76 80  1  0
 77 76  1  0
 78 79  1  0
 78 77  1  0
 79 75  1  0
 80 81  2  0
 81 82  1  0
 83 82  2  0
 84 83  1  0
 85 59  1  0
 85 86  1  0
 85 95  1  0
 86 89  1  0
 87 91  1  0
 87 86  1  0
 88 87  2  0
 91 90  1  0
 93 91  1  0
 93 94  1  0
 93 92  1  0
 95 98  1  1
 95 96  1  0
 97 95  1  0
M  ISO  4  12 100  20 100  57 101  58 101
M  END
>  <TORSDO>  (75) 
F 21

>  <SCORE>  (75) 
-14.044

>  <name>  (75) 
75

>  <ligand_id>  (75) 
75

>  <original_smiles>  (75) 
[H]Oc1c([H])c(C([H])([H])Oc2c([H])c([H])c3c(c2[H])C([H])([H])N(C(=O)C([H])(N([H])C(=O)C([H])(N([H])C([H])([H])[H])C([H])([H])[H])C(C([H])([H])[H])(C([H])([H])[H])C([H])([H])[H])C([H])(C(=O)N([H])C2([H])c4c([H])c([H])c([H])c([H])c4C([H])([H])C([H])([H])C2([H])[H])C3([H])[H])c(O[H])n1-c1c([H])c([H])c(N([H])[H])c(N([H])C(=O)N2C([H])([H])C([H])([H])C([H])([H])C([H])(n3nc(-c4c([H])c([H])c(Oc5c([H])c([H])c(F)c([H])c5F)c([H])c4[H])c(C(=O)N([H])[H])c3N([H])[H])C2([H])[H])c1[H]

>  <smiles>  (75) 
[H]Oc1c([H])c(C([H])([H])Oc2c([H])c([H])c3c(c2[H])C([H])([H])N(C(=O)C([H])(N([H])C(=O)C([H])(N([H])C([H])([H])[H])C([H])([H])[H])C(C([H])([H])[H])(C([H])([H])[H])C([H])([H])[H])C([H])(C(=O)N([H])C2([H])c4c([H])c([H])c([H])c([H])c4C([H])([H])C([H])([H])C2([H])[H])C3([H])[H])c(O[H])n1-c1c([H])c([H])c(N([H])[H])c(N([H])C(=O)N2C([H])([H])C([H])([H])C([H])([H])C([H])(n3nc(-c4c([H])c([H])c(Oc5c([H])c([H])c(F)c([H])c5F)c([H])c4[H])c(C(=O)N([H])[H])c3N([H])[H])C2([H])[H])c1[H]

$$$$
76:0:0
     RDKit          3D

 94103  0  0  1  0  0  0  0  0999 V2000
  -27.5630  -22.9260   19.5900 C   0  0  0  0  0  3  0  0  0  0  0  0
  -28.4090  -23.6920   20.2930 C   0  0  0  0  0  0  0  0  0  0  0  0
  -27.9940  -21.5210   19.5120 C   0  0  0  0  0  0  0  0  0  0  0  0
  -29.5110  -22.7080   20.7640 C   0  0  0  0  0  2  0  0  0  0  0  0
  -29.1200  -21.3370   20.2530 N   0  0  0  0  0  0  0  0  0  0  0  0
  -27.4130  -20.6340   18.8800 O   0  0  0  0  0  0  0  0  0  0  0  0
  -31.2350  -20.2210   20.8900 C   0  0  0  0  0  3  0  0  0  0  0  0
  -31.6430  -17.7990   20.9230 C   0  0  0  0  0  3  0  0  0  0  0  0
  -29.4660  -18.6710   20.2790 C   0  0  0  0  0  3  0  0  0  0  0  0
  -32.0890  -19.1230   21.1120 C   0  0  0  0  0  0  0  0  0  0  0  0
  -29.8980  -20.0640   20.4590 C   0  0  0  0  0  0  0  0  0  0  0  0
  -30.3280  -17.5040   20.5000 C   0  0  0  0  0  0  0  0  0  0  0  0
  -33.5180  -19.3680   21.5600 C   0  0  0  0  0  1  0  0  0  0  0  0
  -30.6900  -14.9020   20.2230 C   0  0  0  0  0  0  0  0  0  0  0  0
  -30.4820  -12.5950   19.2660 C   0  0  0  0  0  2  0  0  0  0  0  0
  -29.5250  -12.6140   18.0540 C   0  0  0  0  0  2  0  0  0  0  0  0
  -28.0650  -12.4340   18.5130 C   0  0  0  0  0  2  0  0  0  0  0  0
  -27.6990  -13.3520   19.7100 C   0  0  0  0  0  3  0  0  0  0  0  0
  -28.7770  -13.3220   20.8140 C   0  0  0  0  0  2  0  0  0  0  0  0
  -30.0530  -13.6780   20.1830 N   0  0  0  0  0  0  0  0  0  0  0  0
  -31.8780  -14.9610   19.8940 O   0  0  0  0  0  0  0  0  0  0  0  0
  -29.9280  -16.0640   20.3830 N   0  0  0  0  0  0  0  0  0  0  0  0
  -28.9350  -15.8910   20.4350 H   0  0  0  0  0  0  0  0  0  0  0  0
  -25.3330  -13.9380   20.5030 C   0  0  0  0  0  0  0  0  0  0  0  0
  -24.2740  -13.1630   20.8880 C   0  0  0  0  0  0  0  0  0  0  0  0
  -24.7320  -11.8110   20.8300 C   0  0  0  0  0  0  0  0  0  0  0  0
  -26.3680  -13.0590   20.2310 N   0  0  0  0  0  0  0  0  0  0  0  0
  -26.0160  -11.7740   20.4920 N   0  0  0  0  0  0  0  0  0  0  0  0
  -24.0050  -10.5480   21.0190 C   0  0  0  0  0  0  0  0  0  0  0  0
  -24.4440   -9.5730   21.9400 C   0  0  0  0  0  3  0  0  0  0  0  0
  -23.7170   -8.3760   22.1180 C   0  0  0  0  0  3  0  0  0  0  0  0
  -22.5350   -8.1470   21.3750 C   0  0  0  0  0  0  0  0  0  0  0  0
  -22.1140   -9.1120   20.4420 C   0  0  0  0  0  3  0  0  0  0  0  0
  -22.8430  -10.2990   20.2620 C   0  0  0  0  0  3  0  0  0  0  0  0
  -21.7770   -7.0040   21.4630 O   0  0  0  0  0  0  0  0  0  0  0  0
  -21.7220   -6.2660   22.6180 C   0  0  0  0  0  0  0  0  0  0  0  0
  -21.2800   -6.8210   23.8380 C   0  0  0  0  0  3  0  0  0  0  0  0
  -21.1720   -6.0080   24.9830 C   0  0  0  0  0  3  0  0  0  0  0  0
  -21.4960   -4.6410   24.9110 C   0  0  0  0  0  0  0  0  0  0  0  0
  -21.9330   -4.0840   23.6950 C   0  0  0  0  0  3  0  0  0  0  0  0
  -22.0420   -4.8940   22.5510 C   0  0  0  0  0  0  0  0  0  0  0  0
  -22.4420   -4.3490   21.3770 F   0  0  0  0  0  0  0  0  0  0  0  0
  -21.3860   -3.8570   26.0090 F   0  0  0  0  0  0  0  0  0  0  0  0
  -22.8840  -13.6420   21.1940 C   0  0  0  0  0  0  0  0  0  0  0  0
  -22.1730  -12.9370   22.0680 N   0  0  0  0  0  0  0  0  0  0  0  0
  -22.4400  -14.6750   20.6960 O   0  0  0  0  0  0  0  0  0  0  0  0
  -22.5470  -12.1010   22.4920 H   0  0  0  0  0  0  0  0  0  0  0  0
  -21.2420  -13.2400   22.3160 H   0  0  0  0  0  0  0  0  0  0  0  0
  -25.4950  -15.3110   20.3370 N   0  0  0  0  0  0  0  0  0  0  0  0
  -24.7270  -15.9600   20.4670 H   0  0  0  0  0  0  0  0  0  0  0  0
  -26.3240  -15.7520   19.9600 H   0  0  0  0  0  0  0  0  0  0  0  0
  -28.7300  -25.3280   22.2790 C   0  0  0  0  0  1  0  0  0  0  0  0
  -28.0720  -25.1420   20.9070 C   0  0  0  0  0  3  0  0  0  0  0  0
  -28.2840  -26.4410   20.1730 O   0  0  0  0  0  0  0  0  0  0  0  0
  -24.6020  -31.9430   23.2390 C   0  0  0  0  0  0  0  0  0  0  0  0
  -27.2070  -27.3610   20.1660 C   0  0  0  0  0  0  0  0  0  0  0  0
  -23.3990  -30.5490   21.5950 C   0  0  0  0  0  3  0  0  0  0  0  0
  -24.8520  -29.0050   20.1570 C   0  0  0  0  0  0  0  0  0  0  0  0
  -25.9420  -30.8640   21.4100 C   0  0  0  0  0  2  0  0  0  0  0  0
  -26.0260  -29.4840   20.7550 C   0  0  0  0  0  0  0  0  0  0  0  0
  -27.2090  -28.6760   20.7470 C   0  0  0  0  0  3  0  0  0  0  0  0
  -26.0150  -26.9510   19.5360 C   0  0  0  0  0  3  0  0  0  0  0  0
  -24.8520  -27.7460   19.5340 C   0  0  0  0  0  3  0  0  0  0  0  0
  -23.6150  -29.8820   20.2110 C   0  0  0  0  0  2  0  0  0  0  0  0
  -24.6670  -31.1370   22.1370 N   0  0  0  0  0  0  0  0  0  0  0  0
  -23.5180  -32.2150   23.7770 O   0  0  0  0  0  0  0  0  0  0  0  0
  -22.7370  -29.5290   22.5520 C   0  0  0  0  0  0  0  0  0  0  0  0
  -21.4100  -29.3550   22.4320 N   0  0  0  0  0  0  0  0  0  0  0  0
  -23.4190  -28.8980   23.3630 O   0  0  0  0  0  0  0  0  0  0  0  0
  -20.9190  -29.9160   21.7510 H   0  0  0  0  0  0  0  0  0  0  0  0
  -18.0350  -28.1490   22.9400 C   0  0  0  0  0  0  0  0  0  0  0  0
  -20.5950  -28.4110   23.2000 C   0  0  0  0  0  3  0  0  0  0  0  0
  -20.6960  -26.9830   22.6160 C   0  0  0  0  0  2  0  0  0  0  0  0
  -19.5900  -26.6650   21.6050 C   0  0  0  0  0  2  0  0  0  0  0  0
  -18.2110  -26.8040   22.2550 C   0  0  0  0  0  2  0  0  0  0  0  0
  -19.1550  -28.9100   23.3690 C   0  0  0  0  0  0  0  0  0  0  0  0
  -18.9360  -30.1680   23.9720 C   0  0  0  0  0  3  0  0  0  0  0  0
  -17.6320  -30.6660   24.1480 C   0  0  0  0  0  3  0  0  0  0  0  0
  -16.5270  -29.9030   23.7330 C   0  0  0  0  0  3  0  0  0  0  0  0
  -16.7290  -28.6450   23.1360 C   0  0  0  0  0  3  0  0  0  0  0  0
  -25.8830  -32.5770   23.8630 C   0  0  0  0  0  3  0  0  0  0  0  0
  -25.5720  -33.9770   24.1890 N   0  0  0  0  0  0  0  0  0  0  0  0
  -25.9060  -35.0290   23.4290 C   0  0  0  0  0  0  0  0  0  0  0  0
  -26.5730  -34.9230   22.3970 O   0  0  0  0  0  0  0  0  0  0  0  0
  -24.9800  -34.1330   24.9910 H   0  0  0  0  0  0  0  0  0  0  0  0
  -24.1820  -36.8270   23.0720 C   0  0  0  0  0  1  0  0  0  0  0  0
  -25.4220  -36.4190   23.8850 C   0  0  0  0  0  3  0  0  0  0  0  0
  -27.5560  -37.3010   24.7190 C   0  0  0  0  0  1  0  0  0  0  0  0
  -26.4570  -37.4700   23.7730 N   0  0  0  0  0  0  0  0  0  0  0  0
  -26.0530  -38.3910   23.9170 H   0  0  0  0  0  0  0  0  0  0  0  0
  -26.3940  -31.8100   25.1440 C   0  0  1  0  0  0  0  0  0  0  0  0
  -25.2960  -31.5790   26.2100 C   0  0  0  0  0  1  0  0  0  0  0  0
  -26.9760  -30.4300   24.7610 C   0  0  0  0  0  1  0  0  0  0  0  0
  -27.5420  -32.6060   25.8070 C   0  0  0  0  0  1  0  0  0  0  0  0
  1  2  2  0
  2  4  1  0
  2 53  1  0
  3  1  1  0
  3  5  1  0
  5 11  1  0
  5  4  1  0
  6  3  2  0
  7 10  1  0
  8 10  2  0
  9 11  1  0
  9 12  2  0
 10 13  1  0
 11  7  2  0
 12  8  1  0
 14 22  1  0
 15 20  1  0
 16 17  1  0
 16 15  1  0
 18 17  1  0
 18 27  1  0
 18 19  1  0
 20 14  1  0
 20 19  1  0
 21 14  2  0
 22 23  1  0
 22 12  1  0
 24 25  2  0
 25 44  1  0
 26 25  1  0
 26 29  1  0
 27 28  1  0
 27 24  1  0
 28 26  2  0
 29 30  1  0
 30 31  2  0
 32 35  1  0
 32 31  1  0
 33 32  2  0
 34 33  1  0
 34 29  2  0
 35 36  1  0
 36 37  1  0
 37 38  2  0
 39 38  1  0
 39 43  1  0
 40 39  2  0
 41 36  2  0
 41 40  1  0
 42 41  1  0
 44 45  1  0
 45 48  1  0
 45 47  1  0
 46 44  2  0
 49 50  1  0
 49 24  1  0
 51 49  1  0
 53 52  1  0
 54 53  1  0
 55 66  2  0
 56 54  1  0
 56 61  1  0
 57 65  1  0
 57 67  1  0
 58 64  1  0
 58 60  1  0
 59 65  1  0
 60 59  1  0
 61 60  2  0
 62 56  2  0
 63 62  1  0
 63 58  2  0
 64 57  1  0
 65 55  1  0
 67 69  2  0
 68 67  1  0
 70 68  1  0
 71 80  2  0
 71 76  1  0
 72 68  1  0
 72 76  1  0
 73 72  1  0
 74 75  1  0
 74 73  1  0
 75 71  1  0
 76 77  2  0
 77 78  1  0
 79 78  2  0
 80 79  1  0
 81 55  1  0
 81 82  1  0
 81 91  1  0
 82 85  1  0
 83 87  1  0
 83 82  1  0
 84 83  2  0
 87 86  1  0
 89 87  1  0
 89 90  1  0
 89 88  1  0
 91 94  1  1
 91 92  1  0
 93 91  1  0
M  ISO  4  14 100  22 100  53 101  54 101
M  END
>  <TORSDO>  (76) 
F 18

>  <SCORE>  (76) 
-15.132

>  <name>  (76) 
76

>  <ligand_id>  (76) 
76

>  <original_smiles>  (76) 
[H]C1=C(C([H])(Oc2c([H])c([H])c3c(c2[H])C([H])([H])N(C(=O)C([H])(N([H])C(=O)C([H])(N([H])C([H])([H])[H])C([H])([H])[H])C(C([H])([H])[H])(C([H])([H])[H])C([H])([H])[H])C([H])(C(=O)N([H])C2([H])c4c([H])c([H])c([H])c([H])c4C([H])([H])C([H])([H])C2([H])[H])C3([H])[H])C([H])([H])[H])C([H])([H])N(c2c([H])c(N([H])C(=O)N3C([H])([H])C([H])([H])C([H])([H])C([H])(n4nc(-c5c([H])c([H])c(Oc6c([H])c([H])c(F)c([H])c6F)c([H])c5[H])c(C(=O)N([H])[H])c4N([H])[H])C3([H])[H])c([H])c(C([H])([H])[H])c2[H])C1=O

>  <smiles>  (76) 
[H]C1=C(C([H])(Oc2c([H])c([H])c3c(c2[H])C([H])([H])N(C(=O)C([H])(N([H])C(=O)C([H])(N([H])C([H])([H])[H])C([H])([H])[H])C(C([H])([H])[H])(C([H])([H])[H])C([H])([H])[H])C([H])(C(=O)N([H])C2([H])c4c([H])c([H])c([H])c([H])c4C([H])([H])C([H])([H])C2([H])[H])C3([H])[H])C([H])([H])[H])C([H])([H])N(c2c([H])c(N([H])C(=O)N3C([H])([H])C([H])([H])C([H])([H])C([H])(n4nc(-c5c([H])c([H])c(Oc6c([H])c([H])c(F)c([H])c6F)c([H])c5[H])c(C(=O)N([H])[H])c4N([H])[H])C3([H])[H])c([H])c(C([H])([H])[H])c2[H])C1=O

$$$$
77:0:0
     RDKit          3D

 94102  0  0  1  0  0  0  0  0999 V2000
  -31.2690  -19.4230   21.6610 C   0  0  0  0  0  3  0  0  0  0  0  0
  -30.9470  -18.1080   21.2780 C   0  0  0  0  0  3  0  0  0  0  0  0
  -28.9590  -19.0380   20.2590 C   0  0  0  0  0  3  0  0  0  0  0  0
  -30.4780  -20.5680   21.3820 C   0  0  0  0  0  0  0  0  0  0  0  0
  -29.7610  -17.7970   20.5910 C   0  0  0  0  0  0  0  0  0  0  0  0
  -29.2890  -20.4840   20.5850 C   0  0  0  0  0  0  0  0  0  0  0  0
  -30.2790  -15.0710   20.3040 C   0  0  0  0  0  0  0  0  0  0  0  0
  -30.2260  -12.6910   19.3630 C   0  0  0  0  0  2  0  0  0  0  0  0
  -29.2680  -12.5610   18.1560 C   0  0  0  0  0  2  0  0  0  0  0  0
  -27.8280  -12.2880   18.6280 C   0  0  0  0  0  2  0  0  0  0  0  0
  -27.4080  -13.2150   19.7970 C   0  0  0  0  0  3  0  0  0  0  0  0
  -28.4880  -13.3100   20.8940 C   0  0  0  0  0  2  0  0  0  0  0  0
  -29.7130  -13.7890   20.2410 N   0  0  0  0  0  0  0  0  0  0  0  0
  -31.4900  -15.1250   20.0520 O   0  0  0  0  0  0  0  0  0  0  0  0
  -29.4740  -16.2720   20.3860 N   0  0  0  0  0  0  0  0  0  0  0  0
  -28.4890  -16.0570   20.3430 H   0  0  0  0  0  0  0  0  0  0  0  0
  -25.0460  -13.7210   20.6280 C   0  0  0  0  0  0  0  0  0  0  0  0
  -24.0120  -12.9150   21.0130 C   0  0  0  0  0  0  0  0  0  0  0  0
  -24.5050  -11.5760   20.9390 C   0  0  0  0  0  0  0  0  0  0  0  0
  -26.0990  -12.8720   20.3350 N   0  0  0  0  0  0  0  0  0  0  0  0
  -25.7860  -11.5750   20.5900 N   0  0  0  0  0  0  0  0  0  0  0  0
  -23.8110  -10.2940   21.1220 C   0  0  0  0  0  0  0  0  0  0  0  0
  -24.2920   -9.3130   22.0150 C   0  0  0  0  0  3  0  0  0  0  0  0
  -23.5950   -8.0990   22.1890 C   0  0  0  0  0  3  0  0  0  0  0  0
  -22.4010   -7.8560   21.4680 C   0  0  0  0  0  0  0  0  0  0  0  0
  -21.9380   -8.8260   20.5610 C   0  0  0  0  0  3  0  0  0  0  0  0
  -22.6370  -10.0330   20.3860 C   0  0  0  0  0  3  0  0  0  0  0  0
  -21.6700   -6.6960   21.5530 O   0  0  0  0  0  0  0  0  0  0  0  0
  -21.6620   -5.9330   22.6940 C   0  0  0  0  0  0  0  0  0  0  0  0
  -21.1250   -6.4150   23.9080 C   0  0  0  0  0  3  0  0  0  0  0  0
  -21.0730   -5.5730   25.0370 C   0  0  0  0  0  3  0  0  0  0  0  0
  -21.5450   -4.2500   24.9520 C   0  0  0  0  0  0  0  0  0  0  0  0
  -22.0730   -3.7670   23.7420 C   0  0  0  0  0  3  0  0  0  0  0  0
  -22.1280   -4.6060   22.6150 C   0  0  0  0  0  0  0  0  0  0  0  0
  -22.6180   -4.1280   21.4460 F   0  0  0  0  0  0  0  0  0  0  0  0
  -21.4870   -3.4390   26.0340 F   0  0  0  0  0  0  0  0  0  0  0  0
  -22.6130  -13.3560   21.3300 C   0  0  0  0  0  0  0  0  0  0  0  0
  -21.9220  -12.6250   22.1960 N   0  0  0  0  0  0  0  0  0  0  0  0
  -22.1440  -14.3850   20.8450 O   0  0  0  0  0  0  0  0  0  0  0  0
  -22.3150  -11.7920   22.6080 H   0  0  0  0  0  0  0  0  0  0  0  0
  -20.9840  -12.9010   22.4490 H   0  0  0  0  0  0  0  0  0  0  0  0
  -25.1720  -15.0980   20.4710 N   0  0  0  0  0  0  0  0  0  0  0  0
  -24.3860  -15.7250   20.6110 H   0  0  0  0  0  0  0  0  0  0  0  0
  -25.9780  -15.5620   20.0760 H   0  0  0  0  0  0  0  0  0  0  0  0
  -28.6950  -23.1740   19.9690 C   0  0  0  0  0  0  0  0  0  0  0  0
  -28.4410  -21.7840   20.3070 N   0  0  0  0  0  0  0  0  0  0  0  0
  -29.7930  -23.4720   19.4980 O   0  0  0  0  0  0  0  0  0  0  0  0
  -27.4500  -21.6320   20.4420 H   0  0  0  0  0  0  0  0  0  0  0  0
  -27.5980  -24.4570   20.0210 C   0  0  0  0  0  2  0  0  0  0  0  0
  -27.9610  -26.0010   19.8690 O   0  0  0  0  0  0  0  0  0  0  0  0
  -24.6360  -31.8270   23.0980 C   0  0  0  0  0  0  0  0  0  0  0  0
  -26.9450  -27.0510   19.8860 C   0  0  0  0  0  0  0  0  0  0  0  0
  -23.3250  -30.4770   21.5090 C   0  0  0  0  0  3  0  0  0  0  0  0
  -24.6640  -28.8880   19.9890 C   0  0  0  0  0  0  0  0  0  0  0  0
  -25.8750  -30.6810   21.2170 C   0  0  0  0  0  2  0  0  0  0  0  0
  -25.8870  -29.2890   20.5440 C   0  0  0  0  0  0  0  0  0  0  0  0
  -27.0270  -28.3900   20.4710 C   0  0  0  0  0  3  0  0  0  0  0  0
  -25.6970  -26.7780   19.2830 C   0  0  0  0  0  3  0  0  0  0  0  0
  -24.5850  -27.6490   19.3400 C   0  0  0  0  0  3  0  0  0  0  0  0
  -23.4630  -29.8160   20.1120 C   0  0  0  0  0  2  0  0  0  0  0  0
  -24.6360  -31.0170   21.9950 N   0  0  0  0  0  0  0  0  0  0  0  0
  -23.5840  -32.1270   23.6860 O   0  0  0  0  0  0  0  0  0  0  0  0
  -22.6740  -29.4730   22.4950 C   0  0  0  0  0  0  0  0  0  0  0  0
  -21.3470  -29.2770   22.3910 N   0  0  0  0  0  0  0  0  0  0  0  0
  -23.3670  -28.8700   23.3200 O   0  0  0  0  0  0  0  0  0  0  0  0
  -20.8410  -29.8140   21.7000 H   0  0  0  0  0  0  0  0  0  0  0  0
  -17.9970  -28.0180   22.9630 C   0  0  0  0  0  0  0  0  0  0  0  0
  -20.5540  -28.3350   23.1860 C   0  0  0  0  0  3  0  0  0  0  0  0
  -20.6750  -26.8970   22.6300 C   0  0  0  0  0  2  0  0  0  0  0  0
  -19.5650  -26.5390   21.6370 C   0  0  0  0  0  2  0  0  0  0  0  0
  -18.1900  -26.6650   22.3010 C   0  0  0  0  0  2  0  0  0  0  0  0
  -19.1060  -28.8090   23.3650 C   0  0  0  0  0  0  0  0  0  0  0  0
  -18.8700  -30.0730   23.9480 C   0  0  0  0  0  3  0  0  0  0  0  0
  -17.5570  -30.5470   24.1330 C   0  0  0  0  0  3  0  0  0  0  0  0
  -16.4620  -29.7540   23.7450 C   0  0  0  0  0  3  0  0  0  0  0  0
  -16.6830  -28.4930   23.1650 C   0  0  0  0  0  3  0  0  0  0  0  0
  -25.9550  -32.4340   23.6650 C   0  0  0  0  0  3  0  0  0  0  0  0
  -26.5620  -31.5910   24.8540 C   0  0  1  0  0  0  0  0  0  0  0  0
  -25.5440  -31.2670   25.9730 C   0  0  0  0  0  1  0  0  0  0  0  0
  -27.1360  -30.2500   24.3420 C   0  0  0  0  0  1  0  0  0  0  0  0
  -27.7450  -32.3600   25.4900 C   0  0  0  0  0  1  0  0  0  0  0  0
  -25.6650  -33.8060   24.1090 N   0  0  0  0  0  0  0  0  0  0  0  0
  -25.8790  -34.9100   23.3780 C   0  0  0  0  0  0  0  0  0  0  0  0
  -26.4090  -34.8780   22.2640 O   0  0  0  0  0  0  0  0  0  0  0  0
  -25.1780  -33.9020   24.9870 H   0  0  0  0  0  0  0  0  0  0  0  0
  -24.0880  -36.6800   23.3750 C   0  0  0  0  0  1  0  0  0  0  0  0
  -25.4390  -36.2600   23.9770 C   0  0  0  0  0  3  0  0  0  0  0  0
  -27.6410  -37.1740   24.5710 C   0  0  0  0  0  1  0  0  0  0  0  0
  -26.4270  -37.3440   23.7770 N   0  0  0  0  0  0  0  0  0  0  0  0
  -26.0220  -38.2480   24.0080 H   0  0  0  0  0  0  0  0  0  0  0  0
  -30.9440  -21.8440   22.0880 C   0  0  0  0  0  2  0  0  0  0  0  0
  -30.4880  -21.5960   24.5960 C   0  0  0  0  0  1  0  0  0  0  0  0
  -30.0410  -23.7980   23.4250 C   0  0  0  0  0  1  0  0  0  0  0  0
  -30.0580  -22.2690   23.2810 C   0  0  0  0  0  3  0  0  0  0  0  0
  2  1  2  0
  3  6  1  0
  3  5  2  0
  4  1  1  0
  4 91  1  0
  5  2  1  0
  6  4  2  0
  7 15  1  0
  8 13  1  0
  9 10  1  0
  9  8  1  0
 11 10  1  0
 11 20  1  0
 11 12  1  0
 13  7  1  0
 13 12  1  0
 14  7  2  0
 15  5  1  0
 16 15  1  0
 17 18  2  0
 18 37  1  0
 19 18  1  0
 19 22  1  0
 20 21  1  0
 20 17  1  0
 21 19  2  0
 22 23  1  0
 23 24  2  0
 25 28  1  0
 25 24  1  0
 26 25  2  0
 27 26  1  0
 27 22  2  0
 28 29  1  0
 29 30  1  0
 30 31  2  0
 32 31  1  0
 32 36  1  0
 33 32  2  0
 34 29  2  0
 34 33  1  0
 35 34  1  0
 37 38  1  0
 38 41  1  0
 38 40  1  0
 39 37  2  0
 42 43  1  0
 42 17  1  0
 44 42  1  0
 45 49  1  0
 45 46  1  0
 46 48  1  0
 46  6  1  0
 47 45  2  0
 50 52  1  0
 50 49  1  0
 51 62  2  0
 52 57  1  0
 53 61  1  0
 53 63  1  0
 54 60  1  0
 54 56  1  0
 55 61  1  0
 56 55  1  0
 57 56  2  0
 58 59  1  0
 58 52  2  0
 59 54  2  0
 60 53  1  0
 61 51  1  0
 63 65  2  0
 64 63  1  0
 66 64  1  0
 67 76  2  0
 67 72  1  0
 68 64  1  0
 68 72  1  0
 69 68  1  0
 70 71  1  0
 70 69  1  0
 71 67  1  0
 72 73  2  0
 73 74  1  0
 75 74  2  0
 76 75  1  0
 77 51  1  0
 77 82  1  0
 77 78  1  0
 78 81  1  1
 78 79  1  0
 80 78  1  0
 82 85  1  0
 83 87  1  0
 83 82  1  0
 84 83  2  0
 87 86  1  0
 89 87  1  0
 89 90  1  0
 89 88  1  0
 91 94  1  0
 94 93  1  0
 94 92  1  0
M  ISO  4   7 100  15 100  49 101  50 101
M  END
>  <TORSDO>  (77) 
F 20

>  <SCORE>  (77) 
-14.194

>  <name>  (77) 
77

>  <ligand_id>  (77) 
77

>  <original_smiles>  (77) 
[H]c1c([H])c([H])c2c(c1[H])C([H])([H])C([H])([H])C([H])([H])C2([H])N([H])C(=O)C1([H])N(C(=O)C([H])(N([H])C(=O)C([H])(N([H])C([H])([H])[H])C([H])([H])[H])C(C([H])([H])[H])(C([H])([H])[H])C([H])([H])[H])C([H])([H])c2c([H])c(OC([H])([H])C(=O)N([H])c3c([H])c(N([H])C(=O)N4C([H])([H])C([H])([H])C([H])([H])C([H])(n5nc(-c6c([H])c([H])c(Oc7c([H])c([H])c(F)c([H])c7F)c([H])c6[H])c(C(=O)N([H])[H])c5N([H])[H])C4([H])[H])c([H])c([H])c3C([H])([H])C([H])(C([H])([H])[H])C([H])([H])[H])c([H])c([H])c2C1([H])[H]

>  <smiles>  (77) 
[H]c1c([H])c([H])c2c(c1[H])C([H])([H])C([H])([H])C([H])([H])C2([H])N([H])C(=O)C1([H])N(C(=O)C([H])(N([H])C(=O)C([H])(N([H])C([H])([H])[H])C([H])([H])[H])C(C([H])([H])[H])(C([H])([H])[H])C([H])([H])[H])C([H])([H])c2c([H])c(OC([H])([H])C(=O)N([H])c3c([H])c(N([H])C(=O)N4C([H])([H])C([H])([H])C([H])([H])C([H])(n5nc(-c6c([H])c([H])c(Oc7c([H])c([H])c(F)c([H])c7F)c([H])c6[H])c(C(=O)N([H])[H])c5N([H])[H])C4([H])[H])c([H])c([H])c3C([H])([H])C([H])(C([H])([H])[H])C([H])([H])[H])c([H])c([H])c2C1([H])[H]

$$$$
78:0:0
     RDKit          3D

 95104  0  0  1  0  0  0  0  0999 V2000
  -27.7470  -23.1180   20.6450 C   0  0  0  0  0  3  0  0  0  0  0  0
  -28.7090  -23.8290   20.0410 C   0  0  0  0  0  0  0  0  0  0  0  0
  -28.1100  -21.6920   20.7810 C   0  0  0  0  0  0  0  0  0  0  0  0
  -29.8100  -22.7970   19.7060 C   0  0  0  0  0  2  0  0  0  0  0  0
  -29.3150  -21.4540   20.1920 N   0  0  0  0  0  0  0  0  0  0  0  0
  -27.4220  -20.8320   21.3360 O   0  0  0  0  0  0  0  0  0  0  0  0
  -31.5170  -20.3400   20.1250 C   0  0  0  0  0  3  0  0  0  0  0  0
  -29.6510  -18.7860   20.3280 C   0  0  0  0  0  3  0  0  0  0  0  0
  -31.9260  -17.9330   20.3320 C   0  0  0  0  0  3  0  0  0  0  0  0
  -30.1150  -20.1780   20.2140 C   0  0  0  0  0  0  0  0  0  0  0  0
  -32.4030  -19.2520   20.2060 C   0  0  0  0  0  0  0  0  0  0  0  0
  -30.5430  -17.6170   20.3610 C   0  0  0  0  0  0  0  0  0  0  0  0
  -30.8310  -14.9810   20.2050 C   0  0  0  0  0  0  0  0  0  0  0  0
  -30.5740  -12.7010   19.2030 C   0  0  0  0  0  2  0  0  0  0  0  0
  -29.6070  -12.7660   18.0010 C   0  0  0  0  0  2  0  0  0  0  0  0
  -28.1550  -12.5770   18.4730 C   0  0  0  0  0  2  0  0  0  0  0  0
  -27.8070  -13.4580   19.7040 C   0  0  0  0  0  3  0  0  0  0  0  0
  -28.9020  -13.4040   20.7930 C   0  0  0  0  0  2  0  0  0  0  0  0
  -30.1720  -13.7680   20.1540 N   0  0  0  0  0  0  0  0  0  0  0  0
  -32.0100  -15.0020   19.8440 O   0  0  0  0  0  0  0  0  0  0  0  0
  -30.1220  -16.1700   20.4450 N   0  0  0  0  0  0  0  0  0  0  0  0
  -29.1480  -16.0220   20.6560 H   0  0  0  0  0  0  0  0  0  0  0  0
  -25.4470  -14.0160   20.5310 C   0  0  0  0  0  0  0  0  0  0  0  0
  -24.3960  -13.2270   20.9140 C   0  0  0  0  0  0  0  0  0  0  0  0
  -24.8630  -11.8790   20.8310 C   0  0  0  0  0  0  0  0  0  0  0  0
  -26.4850  -13.1480   20.2350 N   0  0  0  0  0  0  0  0  0  0  0  0
  -26.1440  -11.8550   20.4800 N   0  0  0  0  0  0  0  0  0  0  0  0
  -24.1450  -10.6080   21.0070 C   0  0  0  0  0  0  0  0  0  0  0  0
  -24.5700   -9.6440   21.9470 C   0  0  0  0  0  3  0  0  0  0  0  0
  -23.8510   -8.4400   22.1130 C   0  0  0  0  0  3  0  0  0  0  0  0
  -22.6920   -8.1930   21.3390 C   0  0  0  0  0  0  0  0  0  0  0  0
  -22.2870   -9.1470   20.3880 C   0  0  0  0  0  3  0  0  0  0  0  0
  -23.0070  -10.3410   20.2210 C   0  0  0  0  0  3  0  0  0  0  0  0
  -21.9450   -7.0420   21.4140 O   0  0  0  0  0  0  0  0  0  0  0  0
  -21.8310   -6.3330   22.5820 C   0  0  0  0  0  0  0  0  0  0  0  0
  -21.2710   -6.9030   23.7480 C   0  0  0  0  0  3  0  0  0  0  0  0
  -21.1090   -6.1170   24.9070 C   0  0  0  0  0  3  0  0  0  0  0  0
  -21.4950   -4.7630   24.9000 C   0  0  0  0  0  0  0  0  0  0  0  0
  -22.0470   -4.1940   23.7390 C   0  0  0  0  0  3  0  0  0  0  0  0
  -22.2120   -4.9760   22.5830 C   0  0  0  0  0  0  0  0  0  0  0  0
  -22.7250   -4.4150   21.4610 F   0  0  0  0  0  0  0  0  0  0  0  0
  -21.3320   -4.0070   26.0110 F   0  0  0  0  0  0  0  0  0  0  0  0
  -23.0070  -13.6920   21.2410 C   0  0  0  0  0  0  0  0  0  0  0  0
  -22.3060  -12.9670   22.1060 N   0  0  0  0  0  0  0  0  0  0  0  0
  -22.5530  -14.7320   20.7660 O   0  0  0  0  0  0  0  0  0  0  0  0
  -22.6840  -12.1240   22.5100 H   0  0  0  0  0  0  0  0  0  0  0  0
  -21.3760  -13.2620   22.3680 H   0  0  0  0  0  0  0  0  0  0  0  0
  -25.5990  -15.3910   20.3810 N   0  0  0  0  0  0  0  0  0  0  0  0
  -24.8250  -16.0340   20.5170 H   0  0  0  0  0  0  0  0  0  0  0  0
  -26.4250  -15.8420   20.0130 H   0  0  0  0  0  0  0  0  0  0  0  0
  -33.7790  -19.4840   20.1710 N   0  0  0  0  0  0  0  0  0  0  0  0
  -34.1220  -20.4230   20.3510 H   0  0  0  0  0  0  0  0  0  0  0  0
  -34.4040  -18.7670   20.5290 H   0  0  0  0  0  0  0  0  0  0  0  0
  -28.6560  -25.3210   19.4540 C   0  0  0  0  0  2  0  0  0  0  0  0
  -28.4590  -26.5600   20.2830 O   0  0  0  0  0  0  0  0  0  0  0  0
  -24.6280  -31.9680   23.2410 C   0  0  0  0  0  0  0  0  0  0  0  0
  -27.3330  -27.4180   20.1810 C   0  0  0  0  0  0  0  0  0  0  0  0
  -23.4600  -30.5570   21.5870 C   0  0  0  0  0  3  0  0  0  0  0  0
  -24.9450  -29.0290   20.1600 C   0  0  0  0  0  0  0  0  0  0  0  0
  -25.9990  -30.9030   21.4280 C   0  0  0  0  0  2  0  0  0  0  0  0
  -26.1030  -29.5240   20.7710 C   0  0  0  0  0  0  0  0  0  0  0  0
  -27.2950  -28.7280   20.7760 C   0  0  0  0  0  3  0  0  0  0  0  0
  -26.1430  -26.9870   19.5530 C   0  0  0  0  0  3  0  0  0  0  0  0
  -24.9700  -27.7700   19.5410 C   0  0  0  0  0  3  0  0  0  0  0  0
  -23.6940  -29.8860   20.2060 C   0  0  0  0  0  2  0  0  0  0  0  0
  -24.7140  -31.1630   22.1410 N   0  0  0  0  0  0  0  0  0  0  0  0
  -23.5360  -32.2280   23.7680 O   0  0  0  0  0  0  0  0  0  0  0  0
  -22.8030  -29.5290   22.5410 C   0  0  0  0  0  0  0  0  0  0  0  0
  -21.4790  -29.3420   22.4120 N   0  0  0  0  0  0  0  0  0  0  0  0
  -23.4850  -28.9060   23.3560 O   0  0  0  0  0  0  0  0  0  0  0  0
  -20.9870  -29.8990   21.7260 H   0  0  0  0  0  0  0  0  0  0  0  0
  -18.1080  -28.1280   22.9160 C   0  0  0  0  0  0  0  0  0  0  0  0
  -20.6670  -28.3910   23.1730 C   0  0  0  0  0  3  0  0  0  0  0  0
  -20.7690  -26.9690   22.5750 C   0  0  0  0  0  2  0  0  0  0  0  0
  -19.6610  -26.6590   21.5630 C   0  0  0  0  0  2  0  0  0  0  0  0
  -18.2830  -26.7890   22.2190 C   0  0  0  0  0  2  0  0  0  0  0  0
  -19.2270  -28.8870   23.3500 C   0  0  0  0  0  0  0  0  0  0  0  0
  -19.0090  -30.1390   23.9630 C   0  0  0  0  0  3  0  0  0  0  0  0
  -17.7030  -30.6330   24.1490 C   0  0  0  0  0  3  0  0  0  0  0  0
  -16.5990  -29.8700   23.7330 C   0  0  0  0  0  3  0  0  0  0  0  0
  -16.8010  -28.6190   23.1220 C   0  0  0  0  0  3  0  0  0  0  0  0
  -25.8940  -32.6210   23.8760 C   0  0  0  0  0  3  0  0  0  0  0  0
  -26.3940  -31.8700   25.1720 C   0  0  1  0  0  0  0  0  0  0  0  0
  -25.2810  -31.6330   26.2200 C   0  0  0  0  0  1  0  0  0  0  0  0
  -27.0010  -30.4950   24.8100 C   0  0  0  0  0  1  0  0  0  0  0  0
  -27.5210  -32.6870   25.8470 C   0  0  0  0  0  1  0  0  0  0  0  0
  -25.5640  -34.0200   24.1870 N   0  0  0  0  0  0  0  0  0  0  0  0
  -25.9020  -35.0700   23.4270 C   0  0  0  0  0  0  0  0  0  0  0  0
  -26.5910  -34.9650   22.4090 O   0  0  0  0  0  0  0  0  0  0  0  0
  -24.9500  -34.1730   24.9730 H   0  0  0  0  0  0  0  0  0  0  0  0
  -24.1740  -36.8540   23.0230 C   0  0  0  0  0  1  0  0  0  0  0  0
  -25.3960  -36.4580   23.8670 C   0  0  0  0  0  3  0  0  0  0  0  0
  -27.4970  -37.3650   24.7560 C   0  0  0  0  0  1  0  0  0  0  0  0
  -26.4250  -37.5170   23.7760 N   0  0  0  0  0  0  0  0  0  0  0  0
  -26.0100  -38.4360   23.9030 H   0  0  0  0  0  0  0  0  0  0  0  0
  1  3  1  0
  2  1  2  0
  3  6  2  0
  4  2  1  0
  4  5  1  0
  5 10  1  0
  5  3  1  0
  7 11  2  0
  7 10  1  0
  8 12  1  0
  9 12  2  0
 10  8  2  0
 11  9  1  0
 12 21  1  0
 13 21  1  0
 14 19  1  0
 15 16  1  0
 15 14  1  0
 17 16  1  0
 17 26  1  0
 17 18  1  0
 19 13  1  0
 19 18  1  0
 20 13  2  0
 21 22  1  0
 23 24  2  0
 24 43  1  0
 25 24  1  0
 25 28  1  0
 26 27  1  0
 26 23  1  0
 27 25  2  0
 28 29  1  0
 29 30  2  0
 31 34  1  0
 31 30  1  0
 32 31  2  0
 33 32  1  0
 33 28  2  0
 34 35  1  0
 35 40  2  0
 35 36  1  0
 36 37  2  0
 38 37  1  0
 38 42  1  0
 39 38  2  0
 40 39  1  0
 41 40  1  0
 43 44  1  0
 44 47  1  0
 44 46  1  0
 45 43  2  0
 48 49  1  0
 48 23  1  0
 50 48  1  0
 51 11  1  0
 51 52  1  0
 51 53  1  0
 54  2  1  0
 54 55  1  0
 56 67  2  0
 57 55  1  0
 57 62  1  0
 58 66  1  0
 58 68  1  0
 59 65  1  0
 59 61  1  0
 60 66  1  0
 61 62  2  0
 61 60  1  0
 63 57  2  0
 64 63  1  0
 64 59  2  0
 65 58  1  0
 66 56  1  0
 68 70  2  0
 69 68  1  0
 71 69  1  0
 72 81  2  0
 72 77  1  0
 73 69  1  0
 73 77  1  0
 74 73  1  0
 75 76  1  0
 75 74  1  0
 76 72  1  0
 77 78  2  0
 78 79  1  0
 80 79  2  0
 81 80  1  0
 82 56  1  0
 82 87  1  0
 82 83  1  0
 83 86  1  1
 83 84  1  0
 85 83  1  0
 87 90  1  0
 88 92  1  0
 88 87  1  0
 89 88  2  0
 92 91  1  0
 94 92  1  0
 94 95  1  0
 94 93  1  0
M  ISO  4  13 100  21 100  54 101  55 101
M  END
>  <TORSDO>  (78) 
F 19

>  <SCORE>  (78) 
-13.901

>  <name>  (78) 
78

>  <ligand_id>  (78) 
78

>  <original_smiles>  (78) 
[H]C1=C(C([H])([H])Oc2c([H])c([H])c3c(c2[H])C([H])([H])N(C(=O)C([H])(N([H])C(=O)C([H])(N([H])C([H])([H])[H])C([H])([H])[H])C(C([H])([H])[H])(C([H])([H])[H])C([H])([H])[H])C([H])(C(=O)N([H])C2([H])c4c([H])c([H])c([H])c([H])c4C([H])([H])C([H])([H])C2([H])[H])C3([H])[H])C([H])([H])N(c2c([H])c(N([H])[H])c([H])c(N([H])C(=O)N3C([H])([H])C([H])([H])C([H])([H])C([H])(n4nc(-c5c([H])c([H])c(Oc6c([H])c([H])c(F)c([H])c6F)c([H])c5[H])c(C(=O)N([H])[H])c4N([H])[H])C3([H])[H])c2[H])C1=O

>  <smiles>  (78) 
[H]C1=C(C([H])([H])Oc2c([H])c([H])c3c(c2[H])C([H])([H])N(C(=O)C([H])(N([H])C(=O)C([H])(N([H])C([H])([H])[H])C([H])([H])[H])C(C([H])([H])[H])(C([H])([H])[H])C([H])([H])[H])C([H])(C(=O)N([H])C2([H])c4c([H])c([H])c([H])c([H])c4C([H])([H])C([H])([H])C2([H])[H])C3([H])[H])C([H])([H])N(c2c([H])c(N([H])[H])c([H])c(N([H])C(=O)N3C([H])([H])C([H])([H])C([H])([H])C([H])(n4nc(-c5c([H])c([H])c(Oc6c([H])c([H])c(F)c([H])c6F)c([H])c5[H])c(C(=O)N([H])[H])c4N([H])[H])C3([H])[H])c2[H])C1=O

$$$$
79:0:0
     RDKit          3D

 93102  0  0  1  0  0  0  0  0999 V2000
  -30.1840  -21.9900   21.3800 C   0  0  0  0  0  0  0  0  0  0  0  0
  -31.2970  -22.9120   20.9240 C   0  0  0  0  0  2  0  0  0  0  0  0
  -30.5400  -24.0130   20.2030 C   0  0  0  0  0  2  0  0  0  0  0  0
  -29.1330  -23.4250   19.9020 C   0  0  0  0  0  3  0  0  0  0  0  0
  -29.2280  -21.8900   20.4470 N   0  0  0  0  0  0  0  0  0  0  0  0
  -30.2080  -21.4100   22.4720 O   0  0  0  0  0  0  0  0  0  0  0  0
  -28.8720  -18.9430   17.8570 C   0  0  0  0  0  3  0  0  0  0  0  0
  -29.2650  -17.7560   18.5240 C   0  0  0  0  0  3  0  0  0  0  0  0
  -29.5410  -19.1250   20.4910 C   0  0  0  0  0  3  0  0  0  0  0  0
  -28.7970  -20.2250   18.4630 C   0  0  0  0  0  0  0  0  0  0  0  0
  -29.1770  -20.4360   19.8230 C   0  0  0  0  0  0  0  0  0  0  0  0
  -29.5910  -17.7390   19.8930 C   0  0  0  0  0  0  0  0  0  0  0  0
  -28.2680  -21.3370   17.5750 C   0  0  0  0  0  1  0  0  0  0  0  0
  -30.4650  -15.1120   20.1970 C   0  0  0  0  0  0  0  0  0  0  0  0
  -30.3620  -12.7220   19.3120 C   0  0  0  0  0  2  0  0  0  0  0  0
  -29.4080  -12.6120   18.0980 C   0  0  0  0  0  2  0  0  0  0  0  0
  -27.9520  -12.3980   18.5530 C   0  0  0  0  0  2  0  0  0  0  0  0
  -27.5570  -13.3330   19.7280 C   0  0  0  0  0  3  0  0  0  0  0  0
  -28.6330  -13.3880   20.8360 C   0  0  0  0  0  2  0  0  0  0  0  0
  -29.8850  -13.8290   20.2080 N   0  0  0  0  0  0  0  0  0  0  0  0
  -31.6390  -15.1530   19.8130 O   0  0  0  0  0  0  0  0  0  0  0  0
  -29.7610  -16.3270   20.5420 N   0  0  0  0  0  0  0  0  0  0  0  0
  -29.0700  -16.1510   21.2590 H   0  0  0  0  0  0  0  0  0  0  0  0
  -25.1900  -13.8770   20.5330 C   0  0  0  0  0  0  0  0  0  0  0  0
  -24.1400  -13.0900   20.9160 C   0  0  0  0  0  0  0  0  0  0  0  0
  -24.6140  -11.7420   20.8700 C   0  0  0  0  0  0  0  0  0  0  0  0
  -26.2340  -13.0130   20.2620 N   0  0  0  0  0  0  0  0  0  0  0  0
  -25.8980  -11.7240   20.5280 N   0  0  0  0  0  0  0  0  0  0  0  0
  -23.8960  -10.4740   21.0600 C   0  0  0  0  0  0  0  0  0  0  0  0
  -24.3470   -9.5040   21.9800 C   0  0  0  0  0  3  0  0  0  0  0  0
  -23.6300   -8.3020   22.1620 C   0  0  0  0  0  3  0  0  0  0  0  0
  -22.4470   -8.0620   21.4230 C   0  0  0  0  0  0  0  0  0  0  0  0
  -22.0170   -9.0200   20.4870 C   0  0  0  0  0  3  0  0  0  0  0  0
  -22.7340  -10.2150   20.3040 C   0  0  0  0  0  3  0  0  0  0  0  0
  -21.7000   -6.9140   21.5140 O   0  0  0  0  0  0  0  0  0  0  0  0
  -21.6650   -6.1630   22.6630 C   0  0  0  0  0  0  0  0  0  0  0  0
  -21.2410   -6.7060   23.8960 C   0  0  0  0  0  3  0  0  0  0  0  0
  -21.1570   -5.8800   25.0350 C   0  0  0  0  0  3  0  0  0  0  0  0
  -21.4930   -4.5170   24.9420 C   0  0  0  0  0  0  0  0  0  0  0  0
  -21.9080   -3.9720   23.7150 C   0  0  0  0  0  3  0  0  0  0  0  0
  -21.9940   -4.7940   22.5770 C   0  0  0  0  0  0  0  0  0  0  0  0
  -22.3760   -4.2600   21.3920 F   0  0  0  0  0  0  0  0  0  0  0  0
  -21.4010   -3.7230   26.0340 F   0  0  0  0  0  0  0  0  0  0  0  0
  -22.7420  -13.5540   21.2120 C   0  0  0  0  0  0  0  0  0  0  0  0
  -22.0320  -12.8450   22.0820 N   0  0  0  0  0  0  0  0  0  0  0  0
  -22.2900  -14.5810   20.7050 O   0  0  0  0  0  0  0  0  0  0  0  0
  -22.4110  -12.0180   22.5180 H   0  0  0  0  0  0  0  0  0  0  0  0
  -21.0910  -13.1290   22.3060 H   0  0  0  0  0  0  0  0  0  0  0  0
  -25.3320  -15.2500   20.3560 N   0  0  0  0  0  0  0  0  0  0  0  0
  -24.5570  -15.8890   20.4920 H   0  0  0  0  0  0  0  0  0  0  0  0
  -26.1430  -15.6890   19.9450 H   0  0  0  0  0  0  0  0  0  0  0  0
  -28.0830  -24.6640   20.4430 C   0  0  0  0  0  2  0  0  0  0  0  0
  -28.2680  -26.2150   20.2530 O   0  0  0  0  0  0  0  0  0  0  0  0
  -24.6140  -31.9300   23.2540 C   0  0  0  0  0  0  0  0  0  0  0  0
  -27.1860  -27.1800   20.2490 C   0  0  0  0  0  0  0  0  0  0  0  0
  -23.4110  -30.5150   21.6280 C   0  0  0  0  0  3  0  0  0  0  0  0
  -24.8540  -28.9270   20.2190 C   0  0  0  0  0  0  0  0  0  0  0  0
  -25.9630  -30.7820   21.4510 C   0  0  0  0  0  2  0  0  0  0  0  0
  -26.0370  -29.3820   20.8170 C   0  0  0  0  0  0  0  0  0  0  0  0
  -27.2030  -28.5240   20.8100 C   0  0  0  0  0  3  0  0  0  0  0  0
  -25.9710  -26.8330   19.6130 C   0  0  0  0  0  3  0  0  0  0  0  0
  -24.8360  -27.6680   19.6010 C   0  0  0  0  0  3  0  0  0  0  0  0
  -23.6320  -29.8230   20.2550 C   0  0  0  0  0  2  0  0  0  0  0  0
  -24.6830  -31.0980   22.1670 N   0  0  0  0  0  0  0  0  0  0  0  0
  -23.5280  -32.2210   23.7780 O   0  0  0  0  0  0  0  0  0  0  0  0
  -22.7350  -29.5190   22.6030 C   0  0  0  0  0  0  0  0  0  0  0  0
  -21.4100  -29.3420   22.4800 N   0  0  0  0  0  0  0  0  0  0  0  0
  -23.4080  -28.9050   23.4400 O   0  0  0  0  0  0  0  0  0  0  0  0
  -20.9250  -29.8920   21.7840 H   0  0  0  0  0  0  0  0  0  0  0  0
  -18.0320  -28.1170   22.9710 C   0  0  0  0  0  0  0  0  0  0  0  0
  -20.5870  -28.4120   23.2600 C   0  0  0  0  0  3  0  0  0  0  0  0
  -20.7070  -26.9680   22.7140 C   0  0  0  0  0  2  0  0  0  0  0  0
  -19.6180  -26.6140   21.6960 C   0  0  0  0  0  2  0  0  0  0  0  0
  -18.2300  -26.7570   22.3270 C   0  0  0  0  0  2  0  0  0  0  0  0
  -19.1410  -28.9000   23.3970 C   0  0  0  0  0  0  0  0  0  0  0  0
  -18.9020  -30.1700   23.9640 C   0  0  0  0  0  3  0  0  0  0  0  0
  -17.5900  -30.6600   24.1130 C   0  0  0  0  0  3  0  0  0  0  0  0
  -16.4960  -29.8730   23.7050 C   0  0  0  0  0  3  0  0  0  0  0  0
  -16.7200  -28.6040   23.1410 C   0  0  0  0  0  3  0  0  0  0  0  0
  -25.8930  -32.5750   23.8660 C   0  0  0  0  0  3  0  0  0  0  0  0
  -25.5780  -33.9780   24.1840 N   0  0  0  0  0  0  0  0  0  0  0  0
  -25.9120  -35.0290   23.4230 C   0  0  0  0  0  0  0  0  0  0  0  0
  -26.5740  -34.9200   22.3870 O   0  0  0  0  0  0  0  0  0  0  0  0
  -24.9850  -34.1400   24.9840 H   0  0  0  0  0  0  0  0  0  0  0  0
  -24.1820  -36.8240   23.0760 C   0  0  0  0  0  1  0  0  0  0  0  0
  -25.4300  -36.4220   23.8770 C   0  0  0  0  0  3  0  0  0  0  0  0
  -27.5710  -37.3130   24.6870 C   0  0  0  0  0  1  0  0  0  0  0  0
  -26.4610  -37.4730   23.7510 N   0  0  0  0  0  0  0  0  0  0  0  0
  -26.0570  -38.3940   23.9010 H   0  0  0  0  0  0  0  0  0  0  0  0
  -26.4090  -31.8190   25.1500 C   0  0  1  0  0  0  0  0  0  0  0  0
  -25.3190  -31.5990   26.2230 C   0  0  0  0  0  1  0  0  0  0  0  0
  -26.9880  -30.4340   24.7760 C   0  0  0  0  0  1  0  0  0  0  0  0
  -27.5570  -32.6200   25.8060 C   0  0  0  0  0  1  0  0  0  0  0  0
  1  6  2  0
  2  1  1  0
  3  2  1  0
  4  3  1  0
  4 52  1  0
  4  5  1  0
  5  1  1  0
  7 10  2  0
  7  8  1  0
  8 12  2  0
 10 11  1  0
 11  5  1  0
 11  9  2  0
 12  9  1  0
 12 22  1  0
 13 10  1  0
 14 20  1  0
 14 22  1  0
 15 20  1  0
 16 17  1  0
 16 15  1  0
 18 17  1  0
 18 27  1  0
 18 19  1  0
 20 19  1  0
 21 14  2  0
 22 23  1  0
 24 25  2  0
 25 44  1  0
 26 25  1  0
 26 29  1  0
 27 28  1  0
 27 24  1  0
 28 26  2  0
 29 30  1  0
 30 31  2  0
 32 35  1  0
 32 31  1  0
 33 32  2  0
 34 33  1  0
 34 29  2  0
 35 36  1  0
 36 37  1  0
 37 38  2  0
 39 38  1  0
 39 43  1  0
 40 39  2  0
 41 36  2  0
 41 40  1  0
 42 41  1  0
 44 45  1  0
 45 48  1  0
 45 47  1  0
 46 44  2  0
 49 50  1  0
 49 24  1  0
 51 49  1  0
 53 52  1  0
 54 65  2  0
 55 53  1  0
 55 60  1  0
 56 64  1  0
 56 66  1  0
 57 63  1  0
 57 59  1  0
 58 64  1  0
 59 58  1  0
 60 59  2  0
 61 55  2  0
 62 61  1  0
 62 57  2  0
 63 56  1  0
 64 54  1  0
 66 68  2  0
 67 66  1  0
 69 67  1  0
 70 79  2  0
 70 75  1  0
 71 67  1  0
 71 75  1  0
 72 71  1  0
 73 74  1  0
 73 72  1  0
 74 70  1  0
 75 76  2  0
 76 77  1  0
 78 77  2  0
 79 78  1  0
 80 54  1  0
 80 81  1  0
 80 90  1  0
 81 84  1  0
 82 86  1  0
 82 81  1  0
 83 82  2  0
 86 85  1  0
 88 86  1  0
 88 89  1  0
 88 87  1  0
 90 93  1  1
 90 91  1  0
 92 90  1  0
M  ISO  4  14 100  22 100  52 101  53 101
M  END
>  <TORSDO>  (79) 
F 18

>  <SCORE>  (79) 
-15.584

>  <name>  (79) 
79

>  <ligand_id>  (79) 
79

>  <original_smiles>  (79) 
[H]c1c([H])c([H])c2c(c1[H])C([H])([H])C([H])([H])C([H])([H])C2([H])N([H])C(=O)C1([H])N(C(=O)C([H])(N([H])C(=O)C([H])(N([H])C([H])([H])[H])C([H])([H])[H])C(C([H])([H])[H])(C([H])([H])[H])C([H])([H])[H])C([H])([H])c2c([H])c(OC([H])([H])C3([H])N(c4c([H])c(N([H])C(=O)N5C([H])([H])C([H])([H])C([H])([H])C([H])(n6nc(-c7c([H])c([H])c(Oc8c([H])c([H])c(F)c([H])c8F)c([H])c7[H])c(C(=O)N([H])[H])c6N([H])[H])C5([H])[H])c([H])c([H])c4C([H])([H])[H])C(=O)C([H])([H])C3([H])[H])c([H])c([H])c2C1([H])[H]

>  <smiles>  (79) 
[H]c1c([H])c([H])c2c(c1[H])C([H])([H])C([H])([H])C([H])([H])C2([H])N([H])C(=O)C1([H])N(C(=O)C([H])(N([H])C(=O)C([H])(N([H])C([H])([H])[H])C([H])([H])[H])C(C([H])([H])[H])(C([H])([H])[H])C([H])([H])[H])C([H])([H])c2c([H])c(OC([H])([H])C3([H])N(c4c([H])c(N([H])C(=O)N5C([H])([H])C([H])([H])C([H])([H])C([H])(n6nc(-c7c([H])c([H])c(Oc8c([H])c([H])c(F)c([H])c8F)c([H])c7[H])c(C(=O)N([H])[H])c6N([H])[H])C5([H])[H])c([H])c([H])c4C([H])([H])[H])C(=O)C([H])([H])C3([H])[H])c([H])c([H])c2C1([H])[H]

$$$$
80:0:0
     RDKit          3D

 97106  0  0  1  0  0  0  0  0999 V2000
  -29.3910  -17.4540   18.9680 C   0  0  0  0  0  3  0  0  0  0  0  0
  -29.9420  -18.9110   20.8270 C   0  0  0  0  0  3  0  0  0  0  0  0
  -29.0000  -18.5770   18.2050 C   0  0  0  0  0  0  0  0  0  0  0  0
  -29.1440  -19.8970   18.7290 C   0  0  0  0  0  0  0  0  0  0  0  0
  -29.5700  -20.1130   20.0750 C   0  0  0  0  0  0  0  0  0  0  0  0
  -29.8830  -17.5590   20.2790 C   0  0  0  0  0  0  0  0  0  0  0  0
  -28.8690  -21.0910   17.8110 C   0  0  0  0  0  1  0  0  0  0  0  0
  -30.8670  -15.1710   20.5750 C   0  0  0  0  0  0  0  0  0  0  0  0
  -30.7320  -12.9060   19.5310 C   0  0  0  0  0  2  0  0  0  0  0  0
  -29.8410  -13.0060   18.2710 C   0  0  0  0  0  2  0  0  0  0  0  0
  -28.3560  -12.8160   18.6380 C   0  0  0  0  0  2  0  0  0  0  0  0
  -27.9320  -13.6660   19.8670 C   0  0  0  0  0  3  0  0  0  0  0  0
  -28.9500  -13.5530   21.0250 C   0  0  0  0  0  2  0  0  0  0  0  0
  -30.2670  -13.9310   20.4980 N   0  0  0  0  0  0  0  0  0  0  0  0
  -32.0290  -15.3130   20.1840 O   0  0  0  0  0  0  0  0  0  0  0  0
  -30.1180  -16.2690   20.9840 N   0  0  0  0  0  0  0  0  0  0  0  0
  -29.3430  -15.9960   21.5720 H   0  0  0  0  0  0  0  0  0  0  0  0
  -25.5030  -14.2210   20.4790 C   0  0  0  0  0  0  0  0  0  0  0  0
  -24.4370  -13.4340   20.8150 C   0  0  0  0  0  0  0  0  0  0  0  0
  -24.9250  -12.0910   20.8260 C   0  0  0  0  0  0  0  0  0  0  0  0
  -26.5720  -13.3590   20.3000 N   0  0  0  0  0  0  0  0  0  0  0  0
  -26.2280  -12.0730   20.5680 N   0  0  0  0  0  0  0  0  0  0  0  0
  -24.2130  -10.8190   21.0080 C   0  0  0  0  0  0  0  0  0  0  0  0
  -24.6090   -9.8840   21.9900 C   0  0  0  0  0  3  0  0  0  0  0  0
  -23.8970   -8.6770   22.1580 C   0  0  0  0  0  3  0  0  0  0  0  0
  -22.7740   -8.3960   21.3430 C   0  0  0  0  0  0  0  0  0  0  0  0
  -22.3980   -9.3190   20.3520 C   0  0  0  0  0  3  0  0  0  0  0  0
  -23.1120  -10.5170   20.1830 C   0  0  0  0  0  3  0  0  0  0  0  0
  -22.0390   -7.2370   21.4170 O   0  0  0  0  0  0  0  0  0  0  0  0
  -21.9200   -6.5320   22.5890 C   0  0  0  0  0  0  0  0  0  0  0  0
  -21.3580   -7.1070   23.7500 C   0  0  0  0  0  3  0  0  0  0  0  0
  -21.1900   -6.3260   24.9110 C   0  0  0  0  0  3  0  0  0  0  0  0
  -21.5750   -4.9720   24.9110 C   0  0  0  0  0  0  0  0  0  0  0  0
  -22.1310   -4.3970   23.7540 C   0  0  0  0  0  3  0  0  0  0  0  0
  -22.2990   -5.1750   22.5940 C   0  0  0  0  0  0  0  0  0  0  0  0
  -22.8140   -4.6110   21.4770 F   0  0  0  0  0  0  0  0  0  0  0  0
  -21.4080   -4.2190   26.0230 F   0  0  0  0  0  0  0  0  0  0  0  0
  -23.0210  -13.8900   21.0240 C   0  0  0  0  0  0  0  0  0  0  0  0
  -22.2770  -13.2070   21.8860 N   0  0  0  0  0  0  0  0  0  0  0  0
  -22.5810  -14.8880   20.4540 O   0  0  0  0  0  0  0  0  0  0  0  0
  -22.6430  -12.3990   22.3680 H   0  0  0  0  0  0  0  0  0  0  0  0
  -21.3290  -13.5000   22.0730 H   0  0  0  0  0  0  0  0  0  0  0  0
  -25.6510  -15.5930   20.2920 N   0  0  0  0  0  0  0  0  0  0  0  0
  -24.8680  -16.2330   20.3640 H   0  0  0  0  0  0  0  0  0  0  0  0
  -26.5060  -16.0460   19.9980 H   0  0  0  0  0  0  0  0  0  0  0  0
  -28.7290  -22.5260   20.6560 C   0  0  0  0  0  0  0  0  0  0  0  0
  -30.7460  -23.7210   20.5040 C   0  0  0  0  0  2  0  0  0  0  0  0
  -30.9830  -22.1890   20.6960 C   0  0  0  0  0  2  0  0  0  0  0  0
  -29.2900  -23.9900   20.9150 C   0  0  0  0  0  3  0  0  0  0  0  0
  -29.6840  -21.5270   20.5690 N   0  0  0  0  0  0  0  0  0  0  0  0
  -27.5140  -22.3200   20.5750 O   0  0  0  0  0  0  0  0  0  0  0  0
  -28.5100  -25.2920   20.2960 C   0  0  0  0  0  2  0  0  0  0  0  0
  -28.6980  -26.7480   20.6950 O   0  0  0  0  0  0  0  0  0  0  0  0
  -24.9150  -32.2230   23.6510 C   0  0  0  0  0  0  0  0  0  0  0  0
  -27.6090  -27.6610   20.5950 C   0  0  0  0  0  0  0  0  0  0  0  0
  -23.7530  -30.8280   21.9820 C   0  0  0  0  0  3  0  0  0  0  0  0
  -25.2400  -29.3080   20.5540 C   0  0  0  0  0  0  0  0  0  0  0  0
  -26.2960  -31.1580   21.8450 C   0  0  0  0  0  2  0  0  0  0  0  0
  -26.3990  -29.7830   21.1790 C   0  0  0  0  0  0  0  0  0  0  0  0
  -27.5840  -28.9710   21.1910 C   0  0  0  0  0  3  0  0  0  0  0  0
  -26.4290  -27.2760   19.9150 C   0  0  0  0  0  3  0  0  0  0  0  0
  -25.2620  -28.0630   19.9100 C   0  0  0  0  0  3  0  0  0  0  0  0
  -23.9950  -30.1730   20.5980 C   0  0  0  0  0  2  0  0  0  0  0  0
  -25.0060  -31.4220   22.5490 N   0  0  0  0  0  0  0  0  0  0  0  0
  -23.8190  -32.4870   24.1700 O   0  0  0  0  0  0  0  0  0  0  0  0
  -23.0840  -29.7950   22.9230 C   0  0  0  0  0  0  0  0  0  0  0  0
  -21.8000  -29.4900   22.6750 N   0  0  0  0  0  0  0  0  0  0  0  0
  -23.7250  -29.2700   23.8370 O   0  0  0  0  0  0  0  0  0  0  0  0
  -21.3380  -29.9700   21.9150 H   0  0  0  0  0  0  0  0  0  0  0  0
  -18.5310  -27.9400   22.8460 C   0  0  0  0  0  0  0  0  0  0  0  0
  -20.9900  -28.5140   23.4090 C   0  0  0  0  0  3  0  0  0  0  0  0
  -21.3190  -27.0710   22.9630 C   0  0  0  0  0  2  0  0  0  0  0  0
  -20.4020  -26.5590   21.8480 C   0  0  0  0  0  2  0  0  0  0  0  0
  -18.9390  -26.5810   22.3030 C   0  0  0  0  0  2  0  0  0  0  0  0
  -19.4950  -28.8540   23.3500 C   0  0  0  0  0  0  0  0  0  0  0  0
  -19.0640  -30.1160   23.8140 C   0  0  0  0  0  3  0  0  0  0  0  0
  -17.7020  -30.4690   23.7800 C   0  0  0  0  0  3  0  0  0  0  0  0
  -16.7510  -29.5550   23.2920 C   0  0  0  0  0  3  0  0  0  0  0  0
  -17.1660  -28.2930   22.8310 C   0  0  0  0  0  3  0  0  0  0  0  0
  -26.1800  -32.8650   24.3000 C   0  0  0  0  0  3  0  0  0  0  0  0
  -26.6340  -32.1390   25.6260 C   0  0  1  0  0  0  0  0  0  0  0  0
  -25.4780  -31.8830   26.6210 C   0  0  0  0  0  1  0  0  0  0  0  0
  -27.2930  -30.7760   25.3080 C   0  0  0  0  0  1  0  0  0  0  0  0
  -27.7060  -32.9880   26.3460 C   0  0  0  0  0  1  0  0  0  0  0  0
  -25.8730  -34.2780   24.5680 N   0  0  0  0  0  0  0  0  0  0  0  0
  -26.1810  -35.2940   23.7510 C   0  0  0  0  0  0  0  0  0  0  0  0
  -26.8240  -35.1420   22.7080 O   0  0  0  0  0  0  0  0  0  0  0  0
  -25.2960  -34.4690   25.3740 H   0  0  0  0  0  0  0  0  0  0  0  0
  -24.4180  -37.0520   23.3860 C   0  0  0  0  0  1  0  0  0  0  0  0
  -25.7030  -36.7020   24.1540 C   0  0  0  0  0  3  0  0  0  0  0  0
  -27.8590  -37.6580   24.8360 C   0  0  0  0  0  1  0  0  0  0  0  0
  -26.7180  -37.7550   23.9300 N   0  0  0  0  0  0  0  0  0  0  0  0
  -26.3070  -38.6790   24.0360 H   0  0  0  0  0  0  0  0  0  0  0  0
  -28.4230  -18.3120   16.8080 C   0  0  1  0  0  0  0  0  0  0  0  0
  -27.9460  -17.0700   16.6940 F   0  0  0  0  0  0  0  0  0  0  0  0
  -27.4080  -19.1360   16.5390 F   0  0  0  0  0  0  0  0  0  0  0  0
  -29.3720  -18.4700   15.8860 F   0  0  0  0  0  0  0  0  0  0  0  0
  1  6  1  0
  3  4  1  0
  3  1  2  0
  4  5  2  0
  5 50  1  0
  5  2  1  0
  6  2  2  0
  6 16  1  0
  7  4  1  0
  8 16  1  0
  9 14  1  0
 10 11  1  0
 10  9  1  0
 12 11  1  0
 12 21  1  0
 12 13  1  0
 14  8  1  0
 14 13  1  0
 15  8  2  0
 16 17  1  0
 18 19  2  0
 19 20  1  0
 19 38  1  0
 20 23  1  0
 21 18  1  0
 21 22  1  0
 22 20  2  0
 23 24  1  0
 24 25  2  0
 26 29  1  0
 26 25  1  0
 27 26  2  0
 28 27  1  0
 28 23  2  0
 29 30  1  0
 30 35  2  0
 30 31  1  0
 31 32  2  0
 33 32  1  0
 33 37  1  0
 34 33  2  0
 35 34  1  0
 36 35  1  0
 38 39  1  0
 39 42  1  0
 39 41  1  0
 40 38  2  0
 43 44  1  0
 43 18  1  0
 45 43  1  0
 46 49  1  0
 47 48  1  0
 47 49  1  0
 49 52  1  0
 50 46  1  0
 50 48  1  0
 51 46  2  0
 52 53  1  0
 54 65  2  0
 55 53  1  0
 55 60  1  0
 56 64  1  0
 56 66  1  0
 57 63  1  0
 57 59  1  0
 58 64  1  0
 59 60  2  0
 59 58  1  0
 61 55  2  0
 62 61  1  0
 62 57  2  0
 63 56  1  0
 64 54  1  0
 66 68  2  0
 67 66  1  0
 69 67  1  0
 70 75  1  0
 71 67  1  0
 72 71  1  0
 73 74  1  0
 73 72  1  0
 74 70  1  0
 75 71  1  0
 75 76  2  0
 77 76  1  0
 78 77  2  0
 79 70  2  0
 79 78  1  0
 80 54  1  0
 80 85  1  0
 80 81  1  0
 81 84  1  1
 81 82  1  0
 83 81  1  0
 85 88  1  0
 86 90  1  0
 86 85  1  0
 87 86  2  0
 90 89  1  0
 92 93  1  0
 92 90  1  0
 92 91  1  0
 94  3  1  0
 94 95  1  1
 96 94  1  0
 97 94  1  0
M  ISO  4   8 100  16 100  52 101  53 101
M  END
>  <TORSDO>  (80) 
F 19

>  <SCORE>  (80) 
-12.276

>  <name>  (80) 
80

>  <ligand_id>  (80) 
80

>  <original_smiles>  (80) 
[H]c1c([H])c([H])c2c(c1[H])C([H])([H])C([H])([H])C([H])([H])C2([H])N([H])C(=O)C1([H])N(C(=O)C([H])(N([H])C(=O)C([H])(N([H])C([H])([H])[H])C([H])([H])[H])C(C([H])([H])[H])(C([H])([H])[H])C([H])([H])[H])C([H])([H])c2c([H])c(OC([H])([H])C3([H])C(=O)N(c4c([H])c(N([H])C(=O)N5C([H])([H])C([H])([H])C([H])([H])C([H])(n6nc(-c7c([H])c([H])c(Oc8c([H])c([H])c(F)c([H])c8F)c([H])c7[H])c(C(=O)N([H])[H])c6N([H])[H])C5([H])[H])c([H])c(C(F)(F)F)c4C([H])([H])[H])C([H])([H])C3([H])[H])c([H])c([H])c2C1([H])[H]

>  <smiles>  (80) 
[H]c1c([H])c([H])c2c(c1[H])C([H])([H])C([H])([H])C([H])([H])C2([H])N([H])C(=O)C1([H])N(C(=O)C([H])(N([H])C(=O)C([H])(N([H])C([H])([H])[H])C([H])([H])[H])C(C([H])([H])[H])(C([H])([H])[H])C([H])([H])[H])C([H])([H])c2c([H])c(OC([H])([H])C3([H])C(=O)N(c4c([H])c(N([H])C(=O)N5C([H])([H])C([H])([H])C([H])([H])C([H])(n6nc(-c7c([H])c([H])c(Oc8c([H])c([H])c(F)c([H])c8F)c([H])c7[H])c(C(=O)N([H])[H])c6N([H])[H])C5([H])[H])c([H])c(C(F)(F)F)c4C([H])([H])[H])C([H])([H])C3([H])[H])c([H])c([H])c2C1([H])[H]

$$$$
81:0:0
     RDKit          3D

 95104  0  0  1  0  0  0  0  0999 V2000
  -28.4150  -22.6170   21.0550 C   0  0  0  0  0  0  0  0  0  0  0  0
  -29.5000  -22.6960   19.3220 C   0  0  0  0  0  2  0  0  0  0  0  0
  -29.0420  -23.8660   20.2900 C   0  0  2  0  0  0  0  0  0  0  0  0
  -29.3210  -21.7390   20.4280 N   0  0  0  0  0  0  0  0  0  0  0  0
  -27.4780  -22.3990   21.7980 O   0  0  0  0  0  0  0  0  0  0  0  0
  -28.4830  -19.3740   20.7750 C   0  0  0  0  0  3  0  0  0  0  0  0
  -28.6000  -17.9540   20.8030 C   0  0  0  0  0  3  0  0  0  0  0  0
  -30.8000  -18.1170   19.9150 C   0  0  0  0  0  3  0  0  0  0  0  0
  -30.6730  -19.5550   19.8890 C   0  0  0  0  0  0  0  0  0  0  0  0
  -29.5000  -20.2680   20.3280 C   0  0  0  0  0  0  0  0  0  0  0  0
  -29.7660  -17.2650   20.3870 C   0  0  0  0  0  0  0  0  0  0  0  0
  -31.8790  -20.3400   19.4050 C   0  0  0  0  0  1  0  0  0  0  0  0
  -30.5770  -14.7760   20.0040 C   0  0  0  0  0  0  0  0  0  0  0  0
  -30.3460  -12.5370   18.9240 C   0  0  0  0  0  2  0  0  0  0  0  0
  -29.3260  -12.6630   17.7700 C   0  0  0  0  0  2  0  0  0  0  0  0
  -27.8820  -12.4880   18.2840 C   0  0  0  0  0  2  0  0  0  0  0  0
  -27.5950  -13.3310   19.5540 C   0  0  0  0  0  3  0  0  0  0  0  0
  -28.7200  -13.1600   20.6000 C   0  0  0  0  0  2  0  0  0  0  0  0
  -29.9880  -13.5350   19.9530 N   0  0  0  0  0  0  0  0  0  0  0  0
  -31.7050  -14.9640   19.5370 O   0  0  0  0  0  0  0  0  0  0  0  0
  -29.7710  -15.7920   20.4660 N   0  0  0  0  0  0  0  0  0  0  0  0
  -28.9300  -15.4140   20.8730 H   0  0  0  0  0  0  0  0  0  0  0  0
  -25.2600  -13.9230   20.4470 C   0  0  0  0  0  0  0  0  0  0  0  0
  -24.2110  -13.1460   20.8600 C   0  0  0  0  0  0  0  0  0  0  0  0
  -24.6580  -11.7930   20.7510 C   0  0  0  0  0  0  0  0  0  0  0  0
  -26.2780  -13.0430   20.1150 N   0  0  0  0  0  0  0  0  0  0  0  0
  -25.9240  -11.7550   20.3580 N   0  0  0  0  0  0  0  0  0  0  0  0
  -23.9320  -10.5300   20.9450 C   0  0  0  0  0  0  0  0  0  0  0  0
  -24.3740   -9.5590   21.8700 C   0  0  0  0  0  3  0  0  0  0  0  0
  -23.6500   -8.3610   22.0510 C   0  0  0  0  0  3  0  0  0  0  0  0
  -22.4700   -8.1250   21.3060 C   0  0  0  0  0  0  0  0  0  0  0  0
  -22.0480   -9.0850   20.3700 C   0  0  0  0  0  3  0  0  0  0  0  0
  -22.7710  -10.2750   20.1880 C   0  0  0  0  0  3  0  0  0  0  0  0
  -21.7170   -6.9790   21.3970 O   0  0  0  0  0  0  0  0  0  0  0  0
  -21.6180   -6.2740   22.5690 C   0  0  0  0  0  0  0  0  0  0  0  0
  -21.1190   -6.8620   23.7520 C   0  0  0  0  0  3  0  0  0  0  0  0
  -20.9660   -6.0820   24.9160 C   0  0  0  0  0  3  0  0  0  0  0  0
  -21.3060   -4.7160   24.8980 C   0  0  0  0  0  0  0  0  0  0  0  0
  -21.7970   -4.1270   23.7200 C   0  0  0  0  0  3  0  0  0  0  0  0
  -21.9510   -4.9040   22.5580 C   0  0  0  0  0  0  0  0  0  0  0  0
  -22.4040   -4.3280   21.4200 F   0  0  0  0  0  0  0  0  0  0  0  0
  -21.1520   -3.9650   26.0130 F   0  0  0  0  0  0  0  0  0  0  0  0
  -22.8380  -13.6240   21.2370 C   0  0  0  0  0  0  0  0  0  0  0  0
  -22.1630  -12.9050   22.1270 N   0  0  0  0  0  0  0  0  0  0  0  0
  -22.3770  -14.6680   20.7790 O   0  0  0  0  0  0  0  0  0  0  0  0
  -22.5500  -12.0600   22.5190 H   0  0  0  0  0  0  0  0  0  0  0  0
  -21.2450  -13.2070   22.4210 H   0  0  0  0  0  0  0  0  0  0  0  0
  -25.4250  -15.2980   20.3060 N   0  0  0  0  0  0  0  0  0  0  0  0
  -24.6660  -15.9500   20.4730 H   0  0  0  0  0  0  0  0  0  0  0  0
  -26.2390  -15.7380   19.8950 H   0  0  0  0  0  0  0  0  0  0  0  0
  -30.1090  -24.4500   21.2040 C   0  0  0  0  0  0  0  0  0  0  0  0
  -29.6220  -25.1350   22.4830 C   0  0  0  0  0  1  0  0  0  0  0  0
  -31.3280  -24.4350   20.9990 O   0  0  0  0  0  0  0  0  0  0  0  0
  -27.9900  -25.0060   19.8500 C   0  0  0  0  0  2  0  0  0  0  0  0
  -28.2250  -26.4790   20.0170 O   0  0  0  0  0  0  0  0  0  0  0  0
  -24.5250  -31.8590   23.1450 C   0  0  0  0  0  0  0  0  0  0  0  0
  -27.1100  -27.3440   19.9820 C   0  0  0  0  0  0  0  0  0  0  0  0
  -23.3010  -30.4680   21.5160 C   0  0  0  0  0  3  0  0  0  0  0  0
  -24.7340  -28.9510   20.0370 C   0  0  0  0  0  0  0  0  0  0  0  0
  -25.8340  -30.8080   21.2820 C   0  0  0  0  0  2  0  0  0  0  0  0
  -25.9130  -29.4390   20.6160 C   0  0  0  0  0  0  0  0  0  0  0  0
  -27.1040  -28.6470   20.5790 C   0  0  0  0  0  3  0  0  0  0  0  0
  -25.9060  -26.9250   19.3680 C   0  0  0  0  0  3  0  0  0  0  0  0
  -24.7340  -27.7020   19.4020 C   0  0  0  0  0  3  0  0  0  0  0  0
  -23.4910  -29.8140   20.1230 C   0  0  0  0  0  2  0  0  0  0  0  0
  -24.5730  -31.0620   22.0370 N   0  0  0  0  0  0  0  0  0  0  0  0
  -23.4510  -32.1210   23.7050 O   0  0  0  0  0  0  0  0  0  0  0  0
  -22.6680  -29.4340   22.4770 C   0  0  0  0  0  0  0  0  0  0  0  0
  -21.3420  -29.2380   22.3710 N   0  0  0  0  0  0  0  0  0  0  0  0
  -23.3690  -28.8110   23.2800 O   0  0  0  0  0  0  0  0  0  0  0  0
  -20.8350  -29.7930   21.6960 H   0  0  0  0  0  0  0  0  0  0  0  0
  -17.9920  -27.9830   22.9090 C   0  0  0  0  0  0  0  0  0  0  0  0
  -20.5490  -28.2840   23.1470 C   0  0  0  0  0  3  0  0  0  0  0  0
  -20.6670  -26.8570   22.5640 C   0  0  0  0  0  2  0  0  0  0  0  0
  -19.5580  -26.5200   21.5620 C   0  0  0  0  0  2  0  0  0  0  0  0
  -18.1820  -26.6400   22.2250 C   0  0  0  0  0  2  0  0  0  0  0  0
  -19.1030  -28.7620   23.3280 C   0  0  0  0  0  0  0  0  0  0  0  0
  -18.8700  -30.0180   23.9280 C   0  0  0  0  0  3  0  0  0  0  0  0
  -17.5590  -30.4970   24.1120 C   0  0  0  0  0  3  0  0  0  0  0  0
  -16.4620  -29.7160   23.7090 C   0  0  0  0  0  3  0  0  0  0  0  0
  -16.6800  -28.4610   23.1130 C   0  0  0  0  0  3  0  0  0  0  0  0
  -25.8150  -32.4970   23.7450 C   0  0  0  0  0  3  0  0  0  0  0  0
  -26.3630  -31.7190   25.0050 C   0  0  1  0  0  0  0  0  0  0  0  0
  -25.2910  -31.4640   26.0910 C   0  0  0  0  0  1  0  0  0  0  0  0
  -26.9510  -30.3500   24.5920 C   0  0  0  0  0  1  0  0  0  0  0  0
  -27.5170  -32.5190   25.6520 C   0  0  0  0  0  1  0  0  0  0  0  0
  -25.5020  -33.8900   24.0940 N   0  0  0  0  0  0  0  0  0  0  0  0
  -25.7960  -34.9520   23.3300 C   0  0  0  0  0  0  0  0  0  0  0  0
  -26.4300  -34.8610   22.2750 O   0  0  0  0  0  0  0  0  0  0  0  0
  -24.9330  -34.0340   24.9150 H   0  0  0  0  0  0  0  0  0  0  0  0
  -24.0320  -36.7240   23.0530 C   0  0  0  0  0  1  0  0  0  0  0  0
  -25.3090  -36.3320   23.8120 C   0  0  0  0  0  3  0  0  0  0  0  0
  -27.4620  -37.2460   24.5630 C   0  0  0  0  0  1  0  0  0  0  0  0
  -26.3240  -37.3980   23.6600 N   0  0  0  0  0  0  0  0  0  0  0  0
  -25.9120  -38.3140   23.8220 H   0  0  0  0  0  0  0  0  0  0  0  0
  1  5  2  0
  2  3  1  0
  2  4  1  0
  3 54  1  6
  3  1  1  0
  3 51  1  0
  4  1  1  0
  6  7  1  0
  8 11  1  0
  9  8  2  0
  9 10  1  0
 10  4  1  0
 10  6  2  0
 11 21  1  0
 11  7  2  0
 12  9  1  0
 13 21  1  0
 14 19  1  0
 15 16  1  0
 15 14  1  0
 17 16  1  0
 17 26  1  0
 17 18  1  0
 19 13  1  0
 19 18  1  0
 20 13  2  0
 21 22  1  0
 23 24  2  0
 24 43  1  0
 25 24  1  0
 25 28  1  0
 26 27  1  0
 26 23  1  0
 27 25  2  0
 28 29  1  0
 29 30  2  0
 31 34  1  0
 31 30  1  0
 32 31  2  0
 33 32  1  0
 33 28  2  0
 34 35  1  0
 35 36  1  0
 36 37  2  0
 38 37  1  0
 38 42  1  0
 39 38  2  0
 40 35  2  0
 40 39  1  0
 41 40  1  0
 43 44  1  0
 44 47  1  0
 44 46  1  0
 45 43  2  0
 48 23  1  0
 48 49  1  0
 50 48  1  0
 51 52  1  0
 53 51  2  0
 54 55  1  0
 56 67  2  0
 57 55  1  0
 57 62  1  0
 58 66  1  0
 58 68  1  0
 59 65  1  0
 59 61  1  0
 60 66  1  0
 61 60  1  0
 62 61  2  0
 63 64  1  0
 63 57  2  0
 64 59  2  0
 65 58  1  0
 66 56  1  0
 68 70  2  0
 69 68  1  0
 71 69  1  0
 72 81  2  0
 72 77  1  0
 73 69  1  0
 73 77  1  0
 74 73  1  0
 75 76  1  0
 75 74  1  0
 76 72  1  0
 77 78  2  0
 78 79  1  0
 80 79  2  0
 81 80  1  0
 82 56  1  0
 82 87  1  0
 82 83  1  0
 83 86  1  1
 83 84  1  0
 85 83  1  0
 87 90  1  0
 88 92  1  0
 88 87  1  0
 89 88  2  0
 92 91  1  0
 94 92  1  0
 94 95  1  0
 94 93  1  0
M  ISO  4  13 100  21 100  54 101  55 101
M  END
>  <TORSDO>  (81) 
F 19

>  <SCORE>  (81) 
-14.079

>  <name>  (81) 
81

>  <ligand_id>  (81) 
81

>  <original_smiles>  (81) 
[H]c1c([H])c([H])c2c(c1[H])C([H])([H])C([H])([H])C([H])([H])C2([H])N([H])C(=O)C1([H])N(C(=O)C([H])(N([H])C(=O)C([H])(N([H])C([H])([H])[H])C([H])([H])[H])C(C([H])([H])[H])(C([H])([H])[H])C([H])([H])[H])C([H])([H])c2c([H])c(OC([H])([H])C3(C(=O)C([H])([H])[H])C(=O)N(c4c([H])c([H])c(N([H])C(=O)N5C([H])([H])C([H])([H])C([H])([H])C([H])(n6nc(-c7c([H])c([H])c(Oc8c([H])c([H])c(F)c([H])c8F)c([H])c7[H])c(C(=O)N([H])[H])c6N([H])[H])C5([H])[H])c([H])c4C([H])([H])[H])C3([H])[H])c([H])c([H])c2C1([H])[H]

>  <smiles>  (81) 
[H]c1c([H])c([H])c2c(c1[H])C([H])([H])C([H])([H])C([H])([H])C2([H])N([H])C(=O)C1([H])N(C(=O)C([H])(N([H])C(=O)C([H])(N([H])C([H])([H])[H])C([H])([H])[H])C(C([H])([H])[H])(C([H])([H])[H])C([H])([H])[H])C([H])([H])c2c([H])c(OC([H])([H])C3(C(=O)C([H])([H])[H])C(=O)N(c4c([H])c([H])c(N([H])C(=O)N5C([H])([H])C([H])([H])C([H])([H])C([H])(n6nc(-c7c([H])c([H])c(Oc8c([H])c([H])c(F)c([H])c8F)c([H])c7[H])c(C(=O)N([H])[H])c6N([H])[H])C5([H])[H])c([H])c4C([H])([H])[H])C3([H])[H])c([H])c([H])c2C1([H])[H]

$$$$
82:0:0
     RDKit          3D

 94102  0  0  1  0  0  0  0  0999 V2000
  -27.2180  -20.6780   20.1720 O   0  0  0  0  0  0  0  0  0  0  0  0
  -28.9460  -21.1760   18.4010 O   0  0  0  0  0  0  0  0  0  0  0  0
  -28.6040  -21.0460   19.8290 S   0  0  2  0  0  0  0  0  0  0  0  0
  -31.4320  -17.5740   21.3370 C   0  0  0  0  0  3  0  0  0  0  0  0
  -31.7820  -18.9300   21.5300 C   0  0  0  0  0  3  0  0  0  0  0  0
  -29.3450  -18.2980   20.3310 C   0  0  0  0  0  3  0  0  0  0  0  0
  -30.2070  -17.2100   20.7290 C   0  0  0  0  0  0  0  0  0  0  0  0
  -30.9370  -19.9810   21.1140 C   0  0  0  0  0  0  0  0  0  0  0  0
  -29.7030  -19.6870   20.4960 C   0  0  0  0  0  0  0  0  0  0  0  0
  -31.3410  -21.2610   21.3030 F   0  0  0  0  0  0  0  0  0  0  0  0
  -30.6130  -14.6860   20.3220 C   0  0  0  0  0  0  0  0  0  0  0  0
  -30.3640  -12.4590   19.2330 C   0  0  0  0  0  2  0  0  0  0  0  0
  -29.4050  -12.5900   18.0290 C   0  0  0  0  0  2  0  0  0  0  0  0
  -27.9410  -12.4180   18.4790 C   0  0  0  0  0  2  0  0  0  0  0  0
  -27.5950  -13.2760   19.7240 C   0  0  0  0  0  3  0  0  0  0  0  0
  -28.6700  -13.1380   20.8250 C   0  0  0  0  0  2  0  0  0  0  0  0
  -29.9660  -13.4810   20.2220 N   0  0  0  0  0  0  0  0  0  0  0  0
  -31.7880  -14.8000   19.9620 O   0  0  0  0  0  0  0  0  0  0  0  0
  -29.8380  -15.7930   20.5930 N   0  0  0  0  0  0  0  0  0  0  0  0
  -28.8550  -15.5890   20.6770 H   0  0  0  0  0  0  0  0  0  0  0  0
  -25.2110  -13.8630   20.4780 C   0  0  0  0  0  0  0  0  0  0  0  0
  -24.1520  -13.0860   20.8590 C   0  0  0  0  0  0  0  0  0  0  0  0
  -24.6190  -11.7350   20.8220 C   0  0  0  0  0  0  0  0  0  0  0  0
  -26.2560  -12.9870   20.2280 N   0  0  0  0  0  0  0  0  0  0  0  0
  -25.9060  -11.7020   20.4960 N   0  0  0  0  0  0  0  0  0  0  0  0
  -23.9000  -10.4700   21.0180 C   0  0  0  0  0  0  0  0  0  0  0  0
  -24.3440   -9.5050   21.9480 C   0  0  0  0  0  3  0  0  0  0  0  0
  -23.6240   -8.3050   22.1330 C   0  0  0  0  0  3  0  0  0  0  0  0
  -22.4460   -8.0620   21.3870 C   0  0  0  0  0  0  0  0  0  0  0  0
  -22.0210   -9.0160   20.4470 C   0  0  0  0  0  3  0  0  0  0  0  0
  -22.7420  -10.2080   20.2600 C   0  0  0  0  0  3  0  0  0  0  0  0
  -21.6970   -6.9150   21.4820 O   0  0  0  0  0  0  0  0  0  0  0  0
  -21.6580   -6.1730   22.6350 C   0  0  0  0  0  0  0  0  0  0  0  0
  -21.2300   -6.7240   23.8630 C   0  0  0  0  0  3  0  0  0  0  0  0
  -21.1400   -5.9080   25.0080 C   0  0  0  0  0  3  0  0  0  0  0  0
  -21.4690   -4.5410   24.9270 C   0  0  0  0  0  0  0  0  0  0  0  0
  -21.8900   -3.9900   23.7050 C   0  0  0  0  0  3  0  0  0  0  0  0
  -21.9820   -4.8030   22.5620 C   0  0  0  0  0  0  0  0  0  0  0  0
  -22.3680   -4.2620   21.3820 F   0  0  0  0  0  0  0  0  0  0  0  0
  -21.3740   -3.7560   26.0250 F   0  0  0  0  0  0  0  0  0  0  0  0
  -22.7570  -13.5580   21.1490 C   0  0  0  0  0  0  0  0  0  0  0  0
  -22.0400  -12.8560   22.0190 N   0  0  0  0  0  0  0  0  0  0  0  0
  -22.3100  -14.5830   20.6360 O   0  0  0  0  0  0  0  0  0  0  0  0
  -22.4130  -12.0270   22.4570 H   0  0  0  0  0  0  0  0  0  0  0  0
  -21.1040  -13.1540   22.2560 H   0  0  0  0  0  0  0  0  0  0  0  0
  -25.3650  -15.2340   20.2990 N   0  0  0  0  0  0  0  0  0  0  0  0
  -24.5840  -15.8730   20.4020 H   0  0  0  0  0  0  0  0  0  0  0  0
  -26.1910  -15.6800   19.9230 H   0  0  0  0  0  0  0  0  0  0  0  0
  -28.7530  -23.9410   19.9620 C   0  0  0  0  0  0  0  0  0  0  0  0
  -28.8760  -22.6470   20.5800 N   0  0  0  0  0  0  0  0  0  0  0  0
  -29.0080  -24.1070   18.7650 O   0  0  0  0  0  0  0  0  0  0  0  0
  -28.6810  -22.5860   21.5780 H   0  0  0  0  0  0  0  0  0  0  0  0
  -28.2300  -25.1610   20.8230 C   0  0  0  0  0  2  0  0  0  0  0  0
  -28.3800  -26.5180   20.2320 O   0  0  0  0  0  0  0  0  0  0  0  0
  -24.5940  -31.8830   23.2460 C   0  0  0  0  0  0  0  0  0  0  0  0
  -27.2530  -27.3470   20.2170 C   0  0  0  0  0  0  0  0  0  0  0  0
  -23.4070  -30.4770   21.5960 C   0  0  0  0  0  3  0  0  0  0  0  0
  -24.8760  -28.9300   20.1850 C   0  0  0  0  0  0  0  0  0  0  0  0
  -25.9430  -30.8150   21.4260 C   0  0  0  0  0  2  0  0  0  0  0  0
  -26.0370  -29.4350   20.7850 C   0  0  0  0  0  0  0  0  0  0  0  0
  -27.2320  -28.6570   20.7870 C   0  0  0  0  0  3  0  0  0  0  0  0
  -26.0730  -26.8860   19.6000 C   0  0  0  0  0  3  0  0  0  0  0  0
  -24.8950  -27.6600   19.5830 C   0  0  0  0  0  3  0  0  0  0  0  0
  -23.6340  -29.7960   20.2200 C   0  0  0  0  0  2  0  0  0  0  0  0
  -24.6670  -31.0750   22.1470 N   0  0  0  0  0  0  0  0  0  0  0  0
  -23.5070  -32.1550   23.7730 O   0  0  0  0  0  0  0  0  0  0  0  0
  -22.7430  -29.4590   22.5540 C   0  0  0  0  0  0  0  0  0  0  0  0
  -21.4160  -29.2890   22.4270 N   0  0  0  0  0  0  0  0  0  0  0  0
  -23.4190  -28.8280   23.3700 O   0  0  0  0  0  0  0  0  0  0  0  0
  -20.9310  -29.8490   21.7400 H   0  0  0  0  0  0  0  0  0  0  0  0
  -18.0310  -28.1190   22.9310 C   0  0  0  0  0  0  0  0  0  0  0  0
  -20.5930  -28.3530   23.1940 C   0  0  0  0  0  3  0  0  0  0  0  0
  -20.6800  -26.9260   22.6040 C   0  0  0  0  0  2  0  0  0  0  0  0
  -19.5710  -26.6220   21.5920 C   0  0  0  0  0  2  0  0  0  0  0  0
  -18.1940  -26.7730   22.2430 C   0  0  0  0  0  2  0  0  0  0  0  0
  -19.1580  -28.8680   23.3630 C   0  0  0  0  0  0  0  0  0  0  0  0
  -18.9520  -30.1270   23.9660 C   0  0  0  0  0  3  0  0  0  0  0  0
  -17.6520  -30.6370   24.1440 C   0  0  0  0  0  3  0  0  0  0  0  0
  -16.5400  -29.8850   23.7290 C   0  0  0  0  0  3  0  0  0  0  0  0
  -16.7300  -28.6270   23.1280 C   0  0  0  0  0  3  0  0  0  0  0  0
  -25.8710  -32.5190   23.8770 C   0  0  0  0  0  3  0  0  0  0  0  0
  -26.3740  -31.7570   25.1650 C   0  0  1  0  0  0  0  0  0  0  0  0
  -25.2700  -31.5280   26.2240 C   0  0  0  0  0  1  0  0  0  0  0  0
  -26.9590  -30.3750   24.7900 C   0  0  0  0  0  1  0  0  0  0  0  0
  -27.5170  -32.5560   25.8330 C   0  0  0  0  0  1  0  0  0  0  0  0
  -25.5590  -33.9200   24.1940 N   0  0  0  0  0  0  0  0  0  0  0  0
  -25.9020  -34.9670   23.4320 C   0  0  0  0  0  0  0  0  0  0  0  0
  -26.5840  -34.8550   22.4090 O   0  0  0  0  0  0  0  0  0  0  0  0
  -24.9560  -34.0810   24.9870 H   0  0  0  0  0  0  0  0  0  0  0  0
  -24.1840  -36.7620   23.0440 C   0  0  0  0  0  1  0  0  0  0  0  0
  -25.4120  -36.3590   23.8750 C   0  0  0  0  0  3  0  0  0  0  0  0
  -27.5340  -37.2470   24.7350 C   0  0  0  0  0  1  0  0  0  0  0  0
  -26.4490  -37.4080   23.7700 N   0  0  0  0  0  0  0  0  0  0  0  0
  -26.0420  -38.3310   23.9020 H   0  0  0  0  0  0  0  0  0  0  0  0
  2  3  2  0
  3  1  2  0
  3  9  1  0
  3 50  1  1
  4  5  1  0
  6  9  2  0
  6  7  1  0
  7  4  2  0
  8 10  1  0
  8  5  2  0
  9  8  1  0
 11 19  1  0
 12 17  1  0
 13 14  1  0
 13 12  1  0
 15 14  1  0
 15 24  1  0
 15 16  1  0
 17 11  1  0
 17 16  1  0
 18 11  2  0
 19 20  1  0
 19  7  1  0
 21 22  2  0
 22 41  1  0
 23 22  1  0
 23 26  1  0
 24 21  1  0
 24 25  1  0
 25 23  2  0
 26 27  1  0
 27 28  2  0
 29 32  1  0
 29 28  1  0
 30 29  2  0
 31 30  1  0
 31 26  2  0
 32 33  1  0
 33 34  1  0
 34 35  2  0
 36 35  1  0
 36 40  1  0
 37 36  2  0
 38 33  2  0
 38 37  1  0
 39 38  1  0
 41 42  1  0
 42 45  1  0
 42 44  1  0
 43 41  2  0
 46 47  1  0
 46 21  1  0
 48 46  1  0
 49 50  1  0
 49 53  1  0
 50 52  1  0
 51 49  2  0
 54 53  1  0
 55 66  2  0
 56 54  1  0
 56 61  1  0
 57 65  1  0
 57 67  1  0
 58 64  1  0
 58 60  1  0
 59 65  1  0
 60 61  2  0
 60 59  1  0
 62 56  2  0
 63 62  1  0
 63 58  2  0
 64 57  1  0
 65 55  1  0
 67 69  2  0
 68 67  1  0
 70 68  1  0
 71 80  2  0
 71 76  1  0
 72 68  1  0
 72 76  1  0
 73 72  1  0
 74 75  1  0
 74 73  1  0
 75 71  1  0
 76 77  2  0
 77 78  1  0
 79 78  2  0
 80 79  1  0
 81 55  1  0
 81 86  1  0
 81 82  1  0
 82 85  1  1
 82 83  1  0
 84 82  1  0
 86 89  1  0
 87 91  1  0
 87 86  1  0
 88 87  2  0
 91 90  1  0
 93 91  1  0
 93 94  1  0
 93 92  1  0
M  ISO  4  11 100  19 100  53 101  54 101
M  END
>  <TORSDO>  (82) 
F 19

>  <SCORE>  (82) 
-14.339

>  <name>  (82) 
82

>  <ligand_id>  (82) 
82

>  <original_smiles>  (82) 
[H]c1c([H])c([H])c2c(c1[H])C([H])([H])C([H])([H])C([H])([H])C2([H])N([H])C(=O)C1([H])N(C(=O)C([H])(N([H])C(=O)C([H])(N([H])C([H])([H])[H])C([H])([H])[H])C(C([H])([H])[H])(C([H])([H])[H])C([H])([H])[H])C([H])([H])c2c([H])c(OC([H])([H])C(=O)N([H])S(=O)(=O)c3c([H])c(N([H])C(=O)N4C([H])([H])C([H])([H])C([H])([H])C([H])(n5nc(-c6c([H])c([H])c(Oc7c([H])c([H])c(F)c([H])c7F)c([H])c6[H])c(C(=O)N([H])[H])c5N([H])[H])C4([H])[H])c([H])c([H])c3F)c([H])c([H])c2C1([H])[H]

>  <smiles>  (82) 
[H]c1c([H])c([H])c2c(c1[H])C([H])([H])C([H])([H])C([H])([H])C2([H])N([H])C(=O)C1([H])N(C(=O)C([H])(N([H])C(=O)C([H])(N([H])C([H])([H])[H])C([H])([H])[H])C(C([H])([H])[H])(C([H])([H])[H])C([H])([H])[H])C([H])([H])c2c([H])c(OC([H])([H])C(=O)N([H])S(=O)(=O)c3c([H])c(N([H])C(=O)N4C([H])([H])C([H])([H])C([H])([H])C([H])(n5nc(-c6c([H])c([H])c(Oc7c([H])c([H])c(F)c([H])c7F)c([H])c6[H])c(C(=O)N([H])[H])c5N([H])[H])C4([H])[H])c([H])c([H])c3F)c([H])c([H])c2C1([H])[H]

$$$$
83:0:0
     RDKit          3D

 95103  0  0  1  0  0  0  0  0999 V2000
  -29.8090  -22.3280   21.7660 C   0  0  0  0  0  0  0  0  0  0  0  0
  -28.8260  -21.4110   21.7690 N   0  0  0  0  0  0  0  0  0  0  0  0
  -30.9710  -22.0890   21.4240 O   0  0  0  0  0  0  0  0  0  0  0  0
  -27.9260  -21.7670   22.0650 H   0  0  0  0  0  0  0  0  0  0  0  0
  -27.7140  -19.0580   19.1420 C   0  0  0  0  0  3  0  0  0  0  0  0
  -27.7180  -20.1050   20.0760 C   0  0  0  0  0  3  0  0  0  0  0  0
  -29.7500  -19.1970   21.0630 C   0  0  0  0  0  3  0  0  0  0  0  0
  -28.7450  -18.0970   19.1290 C   0  0  0  0  0  0  0  0  0  0  0  0
  -29.7410  -18.1110   20.1510 C   0  0  0  0  0  0  0  0  0  0  0  0
  -28.7820  -20.2280   20.9860 C   0  0  0  0  0  0  0  0  0  0  0  0
  -28.7760  -17.1700   17.9240 C   0  0  0  0  0  1  0  0  0  0  0  0
  -31.7950  -17.2330   19.0020 C   0  0  0  0  0  1  0  0  0  0  0  0
  -30.8820  -17.0830   20.2430 C   0  0  0  0  0  3  0  0  0  0  0  0
  -31.1440  -14.5730   20.4240 C   0  0  0  0  0  0  0  0  0  0  0  0
  -30.7920  -12.3760   19.4010 C   0  0  0  0  0  2  0  0  0  0  0  0
  -29.8810  -12.5510   18.1680 C   0  0  0  0  0  2  0  0  0  0  0  0
  -28.3990  -12.4720   18.5760 C   0  0  0  0  0  2  0  0  0  0  0  0
  -28.0530  -13.3700   19.7910 C   0  0  0  0  0  3  0  0  0  0  0  0
  -29.0870  -13.2060   20.9280 C   0  0  0  0  0  2  0  0  0  0  0  0
  -30.4260  -13.4240   20.3630 N   0  0  0  0  0  0  0  0  0  0  0  0
  -32.3440  -14.6160   20.1580 O   0  0  0  0  0  0  0  0  0  0  0  0
  -30.4170  -15.7030   20.5030 N   0  0  0  0  0  0  0  0  0  0  0  0
  -29.4360  -15.5940   20.6970 H   0  0  0  0  0  0  0  0  0  0  0  0
  -25.6700  -14.0750   20.4450 C   0  0  0  0  0  0  0  0  0  0  0  0
  -24.5650  -13.3460   20.7940 C   0  0  0  0  0  0  0  0  0  0  0  0
  -24.9760  -11.9800   20.7830 C   0  0  0  0  0  0  0  0  0  0  0  0
  -26.6850  -13.1510   20.2500 N   0  0  0  0  0  0  0  0  0  0  0  0
  -26.2710  -11.8880   20.5120 N   0  0  0  0  0  0  0  0  0  0  0  0
  -24.2000  -10.7470   20.9660 C   0  0  0  0  0  0  0  0  0  0  0  0
  -24.5740   -9.7780   21.9200 C   0  0  0  0  0  3  0  0  0  0  0  0
  -23.8070   -8.6060   22.0870 C   0  0  0  0  0  3  0  0  0  0  0  0
  -22.6500   -8.3970   21.3000 C   0  0  0  0  0  0  0  0  0  0  0  0
  -22.2950   -9.3550   20.3340 C   0  0  0  0  0  3  0  0  0  0  0  0
  -23.0630  -10.5190   20.1660 C   0  0  0  0  0  3  0  0  0  0  0  0
  -21.8590   -7.2770   21.3750 O   0  0  0  0  0  0  0  0  0  0  0  0
  -21.7340   -6.5640   22.5390 C   0  0  0  0  0  0  0  0  0  0  0  0
  -21.2750   -7.1610   23.7340 C   0  0  0  0  0  3  0  0  0  0  0  0
  -21.0940   -6.3750   24.8890 C   0  0  0  0  0  3  0  0  0  0  0  0
  -21.3640   -4.9930   24.8510 C   0  0  0  0  0  0  0  0  0  0  0  0
  -21.8180   -4.3960   23.6620 C   0  0  0  0  0  3  0  0  0  0  0  0
  -21.9980   -5.1800   22.5090 C   0  0  0  0  0  0  0  0  0  0  0  0
  -22.4160   -4.5970   21.3600 F   0  0  0  0  0  0  0  0  0  0  0  0
  -21.1820   -4.2360   25.9580 F   0  0  0  0  0  0  0  0  0  0  0  0
  -23.1820  -13.8790   21.0290 C   0  0  0  0  0  0  0  0  0  0  0  0
  -22.4170  -13.2260   21.8970 N   0  0  0  0  0  0  0  0  0  0  0  0
  -22.7900  -14.9090   20.4830 O   0  0  0  0  0  0  0  0  0  0  0  0
  -22.7490  -12.3940   22.3610 H   0  0  0  0  0  0  0  0  0  0  0  0
  -21.4860  -13.5620   22.0950 H   0  0  0  0  0  0  0  0  0  0  0  0
  -25.8870  -15.4350   20.2610 N   0  0  0  0  0  0  0  0  0  0  0  0
  -25.1420  -16.1190   20.3380 H   0  0  0  0  0  0  0  0  0  0  0  0
  -26.7680  -15.8410   19.9770 H   0  0  0  0  0  0  0  0  0  0  0  0
  -29.4290  -23.7410   22.2350 C   0  0  0  0  0  2  0  0  0  0  0  0
  -29.4370  -24.7620   21.0690 C   0  0  0  0  0  2  0  0  0  0  0  0
  -28.6440  -26.0500   21.3610 C   0  0  0  0  0  2  0  0  0  0  0  0
  -28.4670  -26.8100   20.1620 O   0  0  0  0  0  0  0  0  0  0  0  0
  -24.5950  -31.9230   23.2320 C   0  0  0  0  0  0  0  0  0  0  0  0
  -27.3070  -27.5440   20.1570 C   0  0  0  0  0  0  0  0  0  0  0  0
  -23.4060  -30.5110   21.5820 C   0  0  0  0  0  3  0  0  0  0  0  0
  -24.8870  -28.9940   20.1570 C   0  0  0  0  0  0  0  0  0  0  0  0
  -25.9250  -30.9110   21.3860 C   0  0  0  0  0  2  0  0  0  0  0  0
  -26.0310  -29.5400   20.7520 C   0  0  0  0  0  0  0  0  0  0  0  0
  -27.2450  -28.8200   20.7560 C   0  0  0  0  0  3  0  0  0  0  0  0
  -26.1540  -27.0050   19.5520 C   0  0  0  0  0  3  0  0  0  0  0  0
  -24.9400  -27.7250   19.5540 C   0  0  0  0  0  3  0  0  0  0  0  0
  -23.6250  -29.8310   20.2030 C   0  0  0  0  0  2  0  0  0  0  0  0
  -24.6600  -31.1280   22.1250 N   0  0  0  0  0  0  0  0  0  0  0  0
  -23.5120  -32.1800   23.7740 O   0  0  0  0  0  0  0  0  0  0  0  0
  -22.7670  -29.4810   22.5430 C   0  0  0  0  0  0  0  0  0  0  0  0
  -21.4440  -29.2890   22.4180 N   0  0  0  0  0  0  0  0  0  0  0  0
  -23.4590  -28.8580   23.3520 O   0  0  0  0  0  0  0  0  0  0  0  0
  -20.9510  -29.8380   21.7300 H   0  0  0  0  0  0  0  0  0  0  0  0
  -18.0800  -28.0920   22.9440 C   0  0  0  0  0  0  0  0  0  0  0  0
  -20.6390  -28.3470   23.1920 C   0  0  0  0  0  3  0  0  0  0  0  0
  -20.7300  -26.9210   22.6030 C   0  0  0  0  0  2  0  0  0  0  0  0
  -19.6260  -26.6230   21.5860 C   0  0  0  0  0  2  0  0  0  0  0  0
  -18.2520  -26.7510   22.2470 C   0  0  0  0  0  2  0  0  0  0  0  0
  -19.2030  -28.8500   23.3700 C   0  0  0  0  0  0  0  0  0  0  0  0
  -18.9920  -30.1100   23.9690 C   0  0  0  0  0  3  0  0  0  0  0  0
  -17.6920  -30.6140   24.1450 C   0  0  0  0  0  3  0  0  0  0  0  0
  -16.5820  -29.8530   23.7390 C   0  0  0  0  0  3  0  0  0  0  0  0
  -16.7770  -28.5940   23.1430 C   0  0  0  0  0  3  0  0  0  0  0  0
  -25.8750  -32.5650   23.8530 C   0  0  0  0  0  3  0  0  0  0  0  0
  -25.5540  -33.9600   24.1810 N   0  0  0  0  0  0  0  0  0  0  0  0
  -25.8940  -35.0140   23.4250 C   0  0  0  0  0  0  0  0  0  0  0  0
  -26.5820  -34.9130   22.4050 O   0  0  0  0  0  0  0  0  0  0  0  0
  -24.9430  -34.1140   24.9690 H   0  0  0  0  0  0  0  0  0  0  0  0
  -24.1630  -36.7970   23.0390 C   0  0  0  0  0  1  0  0  0  0  0  0
  -25.3900  -36.3990   23.8750 C   0  0  0  0  0  3  0  0  0  0  0  0
  -27.5050  -37.2900   24.7470 C   0  0  0  0  0  1  0  0  0  0  0  0
  -26.4200  -37.4560   23.7830 N   0  0  0  0  0  0  0  0  0  0  0  0
  -26.0070  -38.3740   23.9220 H   0  0  0  0  0  0  0  0  0  0  0  0
  -26.4010  -31.7970   25.1270 C   0  0  1  0  0  0  0  0  0  0  0  0
  -25.3110  -31.5470   26.1940 C   0  0  0  0  0  1  0  0  0  0  0  0
  -26.9990  -30.4260   24.7300 C   0  0  0  0  0  1  0  0  0  0  0  0
  -27.5450  -32.6000   25.7890 C   0  0  0  0  0  1  0  0  0  0  0  0
  1  2  1  0
  1 52  1  0
  2  4  1  0
  3  1  2  0
  5  6  1  0
  6 10  2  0
  8  5  2  0
  8  9  1  0
  9 13  1  0
  9  7  2  0
 10  7  1  0
 10  2  1  0
 11  8  1  0
 13 12  1  0
 13 22  1  0
 14 22  1  0
 15 20  1  0
 16 17  1  0
 16 15  1  0
 18 17  1  0
 18 27  1  0
 18 19  1  0
 20 14  1  0
 20 19  1  0
 21 14  2  0
 22 23  1  0
 24 25  2  0
 25 44  1  0
 26 25  1  0
 26 29  1  0
 27 24  1  0
 27 28  1  0
 28 26  2  0
 29 30  1  0
 30 31  2  0
 32 35  1  0
 32 31  1  0
 33 32  2  0
 34 33  1  0
 34 29  2  0
 35 36  1  0
 36 37  1  0
 37 38  2  0
 39 38  1  0
 39 43  1  0
 40 39  2  0
 41 36  2  0
 41 40  1  0
 42 41  1  0
 44 45  1  0
 45 48  1  0
 45 47  1  0
 46 44  2  0
 49 50  1  0
 49 24  1  0
 51 49  1  0
 53 54  1  0
 53 52  1  0
 55 54  1  0
 56 67  2  0
 57 55  1  0
 57 62  1  0
 58 66  1  0
 58 68  1  0
 59 65  1  0
 59 61  1  0
 60 66  1  0
 61 62  2  0
 61 60  1  0
 63 64  1  0
 63 57  2  0
 64 59  2  0
 65 58  1  0
 66 56  1  0
 68 70  2  0
 69 68  1  0
 71 69  1  0
 72 81  2  0
 72 77  1  0
 73 69  1  0
 73 77  1  0
 74 73  1  0
 75 76  1  0
 75 74  1  0
 76 72  1  0
 77 78  2  0
 78 79  1  0
 80 79  2  0
 81 80  1  0
 82 56  1  0
 82 83  1  0
 82 92  1  0
 83 86  1  0
 84 88  1  0
 84 83  1  0
 85 84  2  0
 88 87  1  0
 90 88  1  0
 90 91  1  0
 90 89  1  0
 92 95  1  1
 92 93  1  0
 94 92  1  0
M  ISO  4  14 100  22 100  54 101  55 101
M  END
>  <TORSDO>  (83) 
F 21

>  <SCORE>  (83) 
-13.129

>  <name>  (83) 
83

>  <ligand_id>  (83) 
83

>  <original_smiles>  (83) 
[H]c1c([H])c([H])c2c(c1[H])C([H])([H])C([H])([H])C([H])([H])C2([H])N([H])C(=O)C1([H])N(C(=O)C([H])(N([H])C(=O)C([H])(N([H])C([H])([H])[H])C([H])([H])[H])C(C([H])([H])[H])(C([H])([H])[H])C([H])([H])[H])C([H])([H])c2c([H])c(OC([H])([H])C([H])([H])C([H])([H])C(=O)N([H])c3c([H])c([H])c(C([H])([H])[H])c(C([H])(N([H])C(=O)N4C([H])([H])C([H])([H])C([H])([H])C([H])(n5nc(-c6c([H])c([H])c(Oc7c([H])c([H])c(F)c([H])c7F)c([H])c6[H])c(C(=O)N([H])[H])c5N([H])[H])C4([H])[H])C([H])([H])[H])c3[H])c([H])c([H])c2C1([H])[H]

>  <smiles>  (83) 
[H]c1c([H])c([H])c2c(c1[H])C([H])([H])C([H])([H])C([H])([H])C2([H])N([H])C(=O)C1([H])N(C(=O)C([H])(N([H])C(=O)C([H])(N([H])C([H])([H])[H])C([H])([H])[H])C(C([H])([H])[H])(C([H])([H])[H])C([H])([H])[H])C([H])([H])c2c([H])c(OC([H])([H])C([H])([H])C([H])([H])C(=O)N([H])c3c([H])c([H])c(C([H])([H])[H])c(C([H])(N([H])C(=O)N4C([H])([H])C([H])([H])C([H])([H])C([H])(n5nc(-c6c([H])c([H])c(Oc7c([H])c([H])c(F)c([H])c7F)c([H])c6[H])c(C(=O)N([H])[H])c5N([H])[H])C4([H])[H])C([H])([H])[H])c3[H])c([H])c([H])c2C1([H])[H]

$$$$
84:0:0
     RDKit          3D

 95103  0  0  1  0  0  0  0  0999 V2000
  -29.3970  -22.5760   20.2290 C   0  0  0  0  0  0  0  0  0  0  0  0
  -30.1550  -21.8150   19.3840 N   0  0  0  0  0  0  0  0  0  0  0  0
  -28.6140  -22.1180   21.0650 O   0  0  0  0  0  0  0  0  0  0  0  0
  -30.7430  -22.3900   18.8020 H   0  0  0  0  0  0  0  0  0  0  0  0
  -30.3780  -20.4760   19.1080 C   0  0  0  0  0  0  0  0  0  0  0  0
  -31.6430  -20.2110   18.0490 S   0  0  0  0  0  0  0  0  0  0  0  0
  -30.2570  -18.0120   20.0350 C   0  0  0  0  0  3  0  0  0  0  0  0
  -28.1970  -19.2330   19.6030 C   0  0  0  0  0  3  0  0  0  0  0  0
  -28.1170  -16.9360   20.4270 C   0  0  0  0  0  3  0  0  0  0  0  0
  -29.6100  -19.2550   19.6400 C   0  0  0  0  0  0  0  0  0  0  0  0
  -29.5230  -16.8310   20.4000 C   0  0  0  0  0  0  0  0  0  0  0  0
  -27.4640  -18.1130   20.0270 C   0  0  0  0  0  0  0  0  0  0  0  0
  -26.1100  -18.1580   20.0300 F   0  0  0  0  0  0  0  0  0  0  0  0
  -30.6930  -14.5360   20.1410 C   0  0  0  0  0  0  0  0  0  0  0  0
  -30.5150  -12.1950   19.3070 C   0  0  0  0  0  2  0  0  0  0  0  0
  -29.5620  -12.1690   18.0910 C   0  0  0  0  0  2  0  0  0  0  0  0
  -28.0910  -12.0540   18.5340 C   0  0  0  0  0  2  0  0  0  0  0  0
  -27.7290  -13.0610   19.6540 C   0  0  0  0  0  3  0  0  0  0  0  0
  -28.7810  -13.0090   20.7860 C   0  0  0  0  0  2  0  0  0  0  0  0
  -30.1020  -13.2990   20.1950 N   0  0  0  0  0  0  0  0  0  0  0  0
  -31.7660  -14.7260   19.5610 O   0  0  0  0  0  0  0  0  0  0  0  0
  -30.0250  -15.5210   20.7980 N   0  0  0  0  0  0  0  0  0  0  0  0
  -29.4160  -15.0830   21.4730 H   0  0  0  0  0  0  0  0  0  0  0  0
  -25.3710  -13.7700   20.4080 C   0  0  0  0  0  0  0  0  0  0  0  0
  -24.2790  -13.0440   20.8050 C   0  0  0  0  0  0  0  0  0  0  0  0
  -24.6840  -11.6750   20.7670 C   0  0  0  0  0  0  0  0  0  0  0  0
  -26.3730  -12.8450   20.1580 N   0  0  0  0  0  0  0  0  0  0  0  0
  -25.9640  -11.5800   20.4310 N   0  0  0  0  0  0  0  0  0  0  0  0
  -23.9100  -10.4430   20.9730 C   0  0  0  0  0  0  0  0  0  0  0  0
  -24.3220   -9.4570   21.8970 C   0  0  0  0  0  3  0  0  0  0  0  0
  -23.5510   -8.2910   22.0900 C   0  0  0  0  0  3  0  0  0  0  0  0
  -22.3530   -8.1020   21.3590 C   0  0  0  0  0  0  0  0  0  0  0  0
  -21.9610   -9.0750   20.4230 C   0  0  0  0  0  3  0  0  0  0  0  0
  -22.7330  -10.2330   20.2290 C   0  0  0  0  0  3  0  0  0  0  0  0
  -21.5540   -6.9890   21.4640 O   0  0  0  0  0  0  0  0  0  0  0  0
  -21.4980   -6.2490   22.6170 C   0  0  0  0  0  0  0  0  0  0  0  0
  -21.1320   -6.8220   23.8540 C   0  0  0  0  0  3  0  0  0  0  0  0
  -21.0200   -6.0100   25.0000 C   0  0  0  0  0  3  0  0  0  0  0  0
  -21.2650   -4.6260   24.9110 C   0  0  0  0  0  0  0  0  0  0  0  0
  -21.6260   -4.0540   23.6790 C   0  0  0  0  0  3  0  0  0  0  0  0
  -21.7390   -4.8620   22.5350 C   0  0  0  0  0  0  0  0  0  0  0  0
  -22.0650   -4.3010   21.3450 F   0  0  0  0  0  0  0  0  0  0  0  0
  -21.1500   -3.8450   26.0100 F   0  0  0  0  0  0  0  0  0  0  0  0
  -22.9090  -13.5800   21.1070 C   0  0  0  0  0  0  0  0  0  0  0  0
  -22.1740  -12.9200   21.9980 N   0  0  0  0  0  0  0  0  0  0  0  0
  -22.4980  -14.6150   20.5870 O   0  0  0  0  0  0  0  0  0  0  0  0
  -22.5180  -12.0780   22.4350 H   0  0  0  0  0  0  0  0  0  0  0  0
  -21.2560  -13.2610   22.2420 H   0  0  0  0  0  0  0  0  0  0  0  0
  -25.5910  -15.1310   20.2200 N   0  0  0  0  0  0  0  0  0  0  0  0
  -24.8630  -15.8250   20.3500 H   0  0  0  0  0  0  0  0  0  0  0  0
  -26.4440  -15.5230   19.8440 H   0  0  0  0  0  0  0  0  0  0  0  0
  -30.5950  -24.5790   21.2450 C   0  0  0  0  0  1  0  0  0  0  0  0
  -29.5930  -24.1490   20.1600 C   0  0  0  0  0  3  0  0  0  0  0  0
  -28.2880  -25.0370   20.2740 C   0  0  0  0  0  2  0  0  0  0  0  0
  -28.4390  -26.5050   20.1930 O   0  0  0  0  0  0  0  0  0  0  0  0
  -24.5190  -31.7850   23.1570 C   0  0  0  0  0  0  0  0  0  0  0  0
  -27.2790  -27.2900   20.1580 C   0  0  0  0  0  0  0  0  0  0  0  0
  -23.3740  -30.3670   21.4900 C   0  0  0  0  0  3  0  0  0  0  0  0
  -24.8800  -28.8410   20.1050 C   0  0  0  0  0  0  0  0  0  0  0  0
  -25.9100  -30.7300   21.3660 C   0  0  0  0  0  2  0  0  0  0  0  0
  -26.0260  -29.3550   20.7220 C   0  0  0  0  0  0  0  0  0  0  0  0
  -27.2290  -28.5930   20.7370 C   0  0  0  0  0  3  0  0  0  0  0  0
  -26.1050  -26.8180   19.5260 C   0  0  0  0  0  3  0  0  0  0  0  0
  -24.9180  -27.5740   19.5050 C   0  0  0  0  0  3  0  0  0  0  0  0
  -23.6300  -29.6960   20.1160 C   0  0  0  0  0  2  0  0  0  0  0  0
  -24.6170  -30.9780   22.0610 N   0  0  0  0  0  0  0  0  0  0  0  0
  -23.4190  -32.0500   23.6640 O   0  0  0  0  0  0  0  0  0  0  0  0
  -22.7070  -29.3390   22.4360 C   0  0  0  0  0  0  0  0  0  0  0  0
  -21.3840  -29.1530   22.2890 N   0  0  0  0  0  0  0  0  0  0  0  0
  -23.3780  -28.7140   23.2610 O   0  0  0  0  0  0  0  0  0  0  0  0
  -20.9030  -29.7130   21.6000 H   0  0  0  0  0  0  0  0  0  0  0  0
  -18.0060  -27.9330   22.7330 C   0  0  0  0  0  0  0  0  0  0  0  0
  -20.5590  -28.2070   23.0430 C   0  0  0  0  0  3  0  0  0  0  0  0
  -20.6780  -26.7790   22.4630 C   0  0  0  0  0  2  0  0  0  0  0  0
  -19.5930  -26.4530   21.4310 C   0  0  0  0  0  2  0  0  0  0  0  0
  -18.2020  -26.5860   22.0550 C   0  0  0  0  0  2  0  0  0  0  0  0
  -19.1140  -28.7000   23.1810 C   0  0  0  0  0  0  0  0  0  0  0  0
  -18.8810  -29.9600   23.7740 C   0  0  0  0  0  3  0  0  0  0  0  0
  -17.5720  -30.4550   23.9230 C   0  0  0  0  0  3  0  0  0  0  0  0
  -16.4770  -29.6860   23.4880 C   0  0  0  0  0  3  0  0  0  0  0  0
  -16.6960  -28.4270   22.9000 C   0  0  0  0  0  3  0  0  0  0  0  0
  -25.7790  -32.4350   23.8070 C   0  0  0  0  0  3  0  0  0  0  0  0
  -26.2820  -31.6650   25.0890 C   0  0  1  0  0  0  0  0  0  0  0  0
  -25.1700  -31.4030   26.1320 C   0  0  0  0  0  1  0  0  0  0  0  0
  -26.9020  -30.3000   24.7050 C   0  0  0  0  0  1  0  0  0  0  0  0
  -27.4010  -32.4800   25.7810 C   0  0  0  0  0  1  0  0  0  0  0  0
  -25.4370  -33.8250   24.1380 N   0  0  0  0  0  0  0  0  0  0  0  0
  -25.7710  -34.8900   23.3970 C   0  0  0  0  0  0  0  0  0  0  0  0
  -26.4720  -34.8070   22.3850 O   0  0  0  0  0  0  0  0  0  0  0  0
  -24.8080  -33.9610   24.9150 H   0  0  0  0  0  0  0  0  0  0  0  0
  -24.0200  -36.6590   23.0120 C   0  0  0  0  0  1  0  0  0  0  0  0
  -25.2460  -36.2650   23.8520 C   0  0  0  0  0  3  0  0  0  0  0  0
  -27.3450  -37.1770   24.7430 C   0  0  0  0  0  1  0  0  0  0  0  0
  -26.2610  -37.3370   23.7760 N   0  0  0  0  0  0  0  0  0  0  0  0
  -25.8350  -38.2480   23.9270 H   0  0  0  0  0  0  0  0  0  0  0  0
  1  3  2  0
  2  1  1  0
  4  2  1  0
  5  2  1  0
  5 10  1  0
  6  5  2  0
  7 11  1  0
  8 10  1  0
  8 12  2  0
 10  7  2  0
 11  9  2  0
 11 22  1  0
 12 13  1  0
 12  9  1  0
 14 20  1  0
 14 22  1  0
 15 20  1  0
 16 17  1  0
 16 15  1  0
 18 17  1  0
 18 27  1  0
 18 19  1  0
 20 19  1  0
 21 14  2  0
 22 23  1  0
 24 25  2  0
 25 44  1  0
 26 25  1  0
 26 29  1  0
 27 24  1  0
 27 28  1  0
 28 26  2  0
 29 30  1  0
 30 31  2  0
 32 35  1  0
 32 31  1  0
 33 32  2  0
 34 33  1  0
 34 29  2  0
 35 36  1  0
 36 37  1  0
 37 38  2  0
 39 38  1  0
 39 43  1  0
 40 39  2  0
 41 36  2  0
 41 40  1  0
 42 41  1  0
 44 45  1  0
 45 48  1  0
 45 47  1  0
 46 44  2  0
 49 50  1  0
 49 24  1  0
 51 49  1  0
 53  1  1  0
 53 54  1  0
 53 52  1  0
 55 54  1  0
 56 67  2  0
 57 55  1  0
 57 62  1  0
 58 66  1  0
 58 68  1  0
 59 65  1  0
 59 61  1  0
 60 66  1  0
 61 62  2  0
 61 60  1  0
 63 57  2  0
 64 63  1  0
 64 59  2  0
 65 58  1  0
 66 56  1  0
 68 70  2  0
 69 68  1  0
 71 69  1  0
 72 81  2  0
 72 77  1  0
 73 69  1  0
 73 77  1  0
 74 73  1  0
 75 76  1  0
 75 74  1  0
 76 72  1  0
 77 78  2  0
 78 79  1  0
 80 79  2  0
 81 80  1  0
 82 56  1  0
 82 87  1  0
 82 83  1  0
 83 86  1  1
 83 84  1  0
 85 83  1  0
 87 90  1  0
 88 92  1  0
 88 87  1  0
 89 88  2  0
 92 91  1  0
 94 92  1  0
 94 95  1  0
 94 93  1  0
M  ISO  4  14 100  22 100  54 101  55 101
M  END
>  <TORSDO>  (84) 
F 20

>  <SCORE>  (84) 
-14.093

>  <name>  (84) 
84

>  <ligand_id>  (84) 
84

>  <original_smiles>  (84) 
[H]c1c([H])c([H])c2c(c1[H])C([H])([H])C([H])([H])C([H])([H])C2([H])N([H])C(=O)C1([H])N(C(=O)C([H])(N([H])C(=O)C([H])(N([H])C([H])([H])[H])C([H])([H])[H])C(C([H])([H])[H])(C([H])([H])[H])C([H])([H])[H])C([H])([H])c2c([H])c(OC([H])([H])C([H])(C(=O)N([H])C(=S)c3c([H])c(F)c([H])c(N([H])C(=O)N4C([H])([H])C([H])([H])C([H])([H])C([H])(n5nc(-c6c([H])c([H])c(Oc7c([H])c([H])c(F)c([H])c7F)c([H])c6[H])c(C(=O)N([H])[H])c5N([H])[H])C4([H])[H])c3[H])C([H])([H])[H])c([H])c([H])c2C1([H])[H]

>  <smiles>  (84) 
[H]c1c([H])c([H])c2c(c1[H])C([H])([H])C([H])([H])C([H])([H])C2([H])N([H])C(=O)C1([H])N(C(=O)C([H])(N([H])C(=O)C([H])(N([H])C([H])([H])[H])C([H])([H])[H])C(C([H])([H])[H])(C([H])([H])[H])C([H])([H])[H])C([H])([H])c2c([H])c(OC([H])([H])C([H])(C(=O)N([H])C(=S)c3c([H])c(F)c([H])c(N([H])C(=O)N4C([H])([H])C([H])([H])C([H])([H])C([H])(n5nc(-c6c([H])c([H])c(Oc7c([H])c([H])c(F)c([H])c7F)c([H])c6[H])c(C(=O)N([H])[H])c5N([H])[H])C4([H])[H])c3[H])C([H])([H])[H])c([H])c([H])c2C1([H])[H]

$$$$
85:0:0
     RDKit          3D

 96105  0  0  1  0  0  0  0  0999 V2000
  -31.7150  -19.3830   21.0790 C   0  0  0  0  0  3  0  0  0  0  0  0
  -31.3260  -18.0400   20.9000 C   0  0  0  0  0  3  0  0  0  0  0  0
  -29.1700  -18.9010   20.2270 C   0  0  0  0  0  3  0  0  0  0  0  0
  -30.8740  -20.5100   20.8690 C   0  0  0  0  0  0  0  0  0  0  0  0
  -29.5330  -20.3660   20.3690 C   0  0  0  0  0  0  0  0  0  0  0  0
  -30.0250  -17.6890   20.4960 C   0  0  0  0  0  0  0  0  0  0  0  0
  -30.4620  -14.9500   20.5370 C   0  0  0  0  0  0  0  0  0  0  0  0
  -30.4060  -12.4980   19.8290 C   0  0  0  0  0  2  0  0  0  0  0  0
  -29.5460  -12.2790   18.5630 C   0  0  0  0  0  2  0  0  0  0  0  0
  -28.0650  -12.0850   18.9410 C   0  0  0  0  0  2  0  0  0  0  0  0
  -27.5800  -13.1340   19.9730 C   0  0  0  0  0  3  0  0  0  0  0  0
  -28.5690  -13.3100   21.1450 C   0  0  0  0  0  2  0  0  0  0  0  0
  -29.8610  -13.6860   20.5560 N   0  0  0  0  0  0  0  0  0  0  0  0
  -31.6870  -14.9570   20.3570 O   0  0  0  0  0  0  0  0  0  0  0  0
  -29.6930  -16.1680   20.4680 N   0  0  0  0  0  0  0  0  0  0  0  0
  -28.7030  -15.9770   20.4290 H   0  0  0  0  0  0  0  0  0  0  0  0
  -25.1900  -13.7790   20.6180 C   0  0  0  0  0  0  0  0  0  0  0  0
  -24.0940  -13.0350   20.9550 C   0  0  0  0  0  0  0  0  0  0  0  0
  -24.5250  -11.6720   20.9580 C   0  0  0  0  0  0  0  0  0  0  0  0
  -26.2200  -12.8720   20.4290 N   0  0  0  0  0  0  0  0  0  0  0  0
  -25.8270  -11.6000   20.7010 N   0  0  0  0  0  0  0  0  0  0  0  0
  -23.7590  -10.4320   21.1330 C   0  0  0  0  0  0  0  0  0  0  0  0
  -24.1370   -9.4550   22.0800 C   0  0  0  0  0  3  0  0  0  0  0  0
  -23.3720   -8.2810   22.2430 C   0  0  0  0  0  3  0  0  0  0  0  0
  -22.2120   -8.0750   21.4600 C   0  0  0  0  0  0  0  0  0  0  0  0
  -21.8520   -9.0390   20.5010 C   0  0  0  0  0  3  0  0  0  0  0  0
  -22.6180  -10.2050   20.3360 C   0  0  0  0  0  3  0  0  0  0  0  0
  -21.4210   -6.9530   21.5320 O   0  0  0  0  0  0  0  0  0  0  0  0
  -21.3460   -6.1980   22.6750 C   0  0  0  0  0  0  0  0  0  0  0  0
  -20.8910   -6.7420   23.8970 C   0  0  0  0  0  3  0  0  0  0  0  0
  -20.7630   -5.9140   25.0300 C   0  0  0  0  0  3  0  0  0  0  0  0
  -21.0770   -4.5450   24.9420 C   0  0  0  0  0  0  0  0  0  0  0  0
  -21.5240   -4.0020   23.7260 C   0  0  0  0  0  3  0  0  0  0  0  0
  -21.6540   -4.8260   22.5940 C   0  0  0  0  0  0  0  0  0  0  0  0
  -22.0650   -4.2920   21.4180 F   0  0  0  0  0  0  0  0  0  0  0  0
  -20.9460   -3.7480   26.0290 F   0  0  0  0  0  0  0  0  0  0  0  0
  -22.7000  -13.5510   21.1590 C   0  0  0  0  0  0  0  0  0  0  0  0
  -21.9210  -12.8900   22.0080 N   0  0  0  0  0  0  0  0  0  0  0  0
  -22.3100  -14.5770   20.6030 O   0  0  0  0  0  0  0  0  0  0  0  0
  -22.2500  -12.0610   22.4800 H   0  0  0  0  0  0  0  0  0  0  0  0
  -20.9840  -13.2190   22.1900 H   0  0  0  0  0  0  0  0  0  0  0  0
  -25.3950  -15.1410   20.4290 N   0  0  0  0  0  0  0  0  0  0  0  0
  -24.6380  -15.8130   20.4990 H   0  0  0  0  0  0  0  0  0  0  0  0
  -26.2570  -15.5540   20.0960 H   0  0  0  0  0  0  0  0  0  0  0  0
  -26.3110  -22.3570   20.3240 C   0  0  0  0  0  2  0  0  0  0  0  0
  -26.5220  -23.7820   19.7600 C   0  0  0  0  0  2  0  0  0  0  0  0
  -27.2800  -21.2970   19.7590 C   0  0  0  0  0  2  0  0  0  0  0  0
  -28.9850  -23.1180   19.7960 C   0  0  0  0  0  2  0  0  0  0  0  0
  -27.8970  -24.3930   20.1130 C   0  0  0  0  0  3  0  0  0  0  0  0
  -28.6650  -21.5910   20.1140 N   0  0  0  0  0  0  0  0  0  0  0  0
  -28.0680  -25.9390   19.7380 O   0  0  0  0  0  0  0  0  0  0  0  0
  -24.5460  -31.6580   22.9520 C   0  0  0  0  0  0  0  0  0  0  0  0
  -27.0320  -26.9680   19.7590 C   0  0  0  0  0  0  0  0  0  0  0  0
  -23.3160  -30.3250   21.2870 C   0  0  0  0  0  3  0  0  0  0  0  0
  -24.7350  -28.7850   19.7950 C   0  0  0  0  0  0  0  0  0  0  0  0
  -25.8760  -30.5570   21.1070 C   0  0  0  0  0  2  0  0  0  0  0  0
  -25.9250  -29.1780   20.4190 C   0  0  0  0  0  0  0  0  0  0  0  0
  -27.0720  -28.2860   20.3890 C   0  0  0  0  0  3  0  0  0  0  0  0
  -25.8370  -26.7330   19.0440 C   0  0  0  0  0  3  0  0  0  0  0  0
  -24.7070  -27.5770   19.0880 C   0  0  0  0  0  3  0  0  0  0  0  0
  -23.5170  -29.6950   19.8850 C   0  0  0  0  0  2  0  0  0  0  0  0
  -24.6010  -30.8690   21.8360 N   0  0  0  0  0  0  0  0  0  0  0  0
  -23.4670  -31.9350   23.4990 O   0  0  0  0  0  0  0  0  0  0  0  0
  -22.6400  -29.2910   22.2250 C   0  0  0  0  0  0  0  0  0  0  0  0
  -21.3040  -29.1660   22.1430 N   0  0  0  0  0  0  0  0  0  0  0  0
  -23.3210  -28.6080   22.9940 O   0  0  0  0  0  0  0  0  0  0  0  0
  -20.8090  -29.7680   21.5010 H   0  0  0  0  0  0  0  0  0  0  0  0
  -17.9010  -28.0870   22.7730 C   0  0  0  0  0  0  0  0  0  0  0  0
  -20.4820  -28.2160   22.9010 C   0  0  0  0  0  3  0  0  0  0  0  0
  -20.4810  -26.8220   22.2310 C   0  0  0  0  0  2  0  0  0  0  0  0
  -19.3090  -26.6160   21.2670 C   0  0  0  0  0  2  0  0  0  0  0  0
  -17.9740  -26.7800   22.0010 C   0  0  0  0  0  2  0  0  0  0  0  0
  -19.0790  -28.7690   23.1820 C   0  0  0  0  0  0  0  0  0  0  0  0
  -18.9530  -29.9960   23.8680 C   0  0  0  0  0  3  0  0  0  0  0  0
  -17.6860  -30.5400   24.1470 C   0  0  0  0  0  3  0  0  0  0  0  0
  -16.5240  -29.8540   23.7520 C   0  0  0  0  0  3  0  0  0  0  0  0
  -16.6330  -28.6280   23.0720 C   0  0  0  0  0  3  0  0  0  0  0  0
  -25.8350  -32.2670   23.5830 C   0  0  0  0  0  3  0  0  0  0  0  0
  -25.5280  -33.6490   23.9870 N   0  0  0  0  0  0  0  0  0  0  0  0
  -25.8280  -34.7400   23.2730 C   0  0  0  0  0  0  0  0  0  0  0  0
  -26.4610  -34.6910   22.2140 O   0  0  0  0  0  0  0  0  0  0  0  0
  -24.9640  -33.7610   24.8180 H   0  0  0  0  0  0  0  0  0  0  0  0
  -24.0820  -36.5440   23.0770 C   0  0  0  0  0  1  0  0  0  0  0  0
  -25.3560  -36.1030   23.8170 C   0  0  0  0  0  3  0  0  0  0  0  0
  -27.5120  -36.9650   24.6130 C   0  0  0  0  0  1  0  0  0  0  0  0
  -26.3780  -37.1670   23.7150 N   0  0  0  0  0  0  0  0  0  0  0  0
  -25.9710  -38.0780   23.9170 H   0  0  0  0  0  0  0  0  0  0  0  0
  -26.3710  -31.4420   24.8170 C   0  0  1  0  0  0  0  0  0  0  0  0
  -25.2950  -31.1650   25.8930 C   0  0  0  0  0  1  0  0  0  0  0  0
  -26.9410  -30.0790   24.3630 C   0  0  0  0  0  1  0  0  0  0  0  0
  -27.5370  -32.2030   25.4890 C   0  0  0  0  0  1  0  0  0  0  0  0
  -31.4580  -21.8220   21.3180 C   0  0  0  0  0  0  0  0  0  0  0  0
  -33.0910  -23.5950   20.7580 C   0  0  0  0  0  1  0  0  0  0  0  0
  -32.4080  -22.3300   20.5220 N   0  0  0  0  0  0  0  0  0  0  0  0
  -31.1000  -22.3680   22.3650 O   0  0  0  0  0  0  0  0  0  0  0  0
  -32.6520  -21.8080   19.6910 H   0  0  0  0  0  0  0  0  0  0  0  0
  2  1  1  0
  3  5  2  0
  3  6  1  0
  4  1  2  0
  4 92  1  0
  5  4  1  0
  6  2  2  0
  7 13  1  0
  8 13  1  0
  9 10  1  0
  9  8  1  0
 11 10  1  0
 11 20  1  0
 11 12  1  0
 13 12  1  0
 14  7  2  0
 15  6  1  0
 15  7  1  0
 16 15  1  0
 17 18  2  0
 18 19  1  0
 18 37  1  0
 19 22  1  0
 20 17  1  0
 20 21  1  0
 21 19  2  0
 22 23  1  0
 23 24  2  0
 25 28  1  0
 25 24  1  0
 26 25  2  0
 27 26  1  0
 27 22  2  0
 28 29  1  0
 29 30  1  0
 30 31  2  0
 32 31  1  0
 32 36  1  0
 33 32  2  0
 34 29  2  0
 34 33  1  0
 35 34  1  0
 37 38  1  0
 38 41  1  0
 38 40  1  0
 39 37  2  0
 42 43  1  0
 42 17  1  0
 44 42  1  0
 46 49  1  0
 46 45  1  0
 47 50  1  0
 47 45  1  0
 48 49  1  0
 48 50  1  0
 49 51  1  0
 50  5  1  0
 51 53  1  0
 52 63  2  0
 53 58  1  0
 54 62  1  0
 54 64  1  0
 55 61  1  0
 55 57  1  0
 56 62  1  0
 57 56  1  0
 58 57  2  0
 59 60  1  0
 59 53  2  0
 60 55  2  0
 61 54  1  0
 62 52  1  0
 64 66  2  0
 65 64  1  0
 67 65  1  0
 68 77  2  0
 68 73  1  0
 69 65  1  0
 69 73  1  0
 70 69  1  0
 71 72  1  0
 71 70  1  0
 72 68  1  0
 73 74  2  0
 74 75  1  0
 76 75  2  0
 77 76  1  0
 78 52  1  0
 78 79  1  0
 78 88  1  0
 79 82  1  0
 80 84  1  0
 80 79  1  0
 81 80  2  0
 84 83  1  0
 86 84  1  0
 86 87  1  0
 86 85  1  0
 88 91  1  1
 88 89  1  0
 90 88  1  0
 92 95  2  0
 94 93  1  0
 94 92  1  0
 96 94  1  0
M  ISO  4   7 100  15 100  49 101  51 101
M  END
>  <TORSDO>  (85) 
F 18

>  <SCORE>  (85) 
-13.109

>  <name>  (85) 
85

>  <ligand_id>  (85) 
85

>  <original_smiles>  (85) 
[H]c1c([H])c([H])c2c(c1[H])C([H])([H])C([H])([H])C([H])([H])C2([H])N([H])C(=O)C1([H])N(C(=O)C([H])(N([H])C(=O)C([H])(N([H])C([H])([H])[H])C([H])([H])[H])C(C([H])([H])[H])(C([H])([H])[H])C([H])([H])[H])C([H])([H])c2c([H])c(OC3([H])C([H])([H])N(c4c([H])c(N([H])C(=O)N5C([H])([H])C([H])([H])C([H])([H])C([H])(n6nc(-c7c([H])c([H])c(Oc8c([H])c([H])c(F)c([H])c8F)c([H])c7[H])c(C(=O)N([H])[H])c6N([H])[H])C5([H])[H])c([H])c([H])c4C(=O)N([H])C([H])([H])[H])C([H])([H])C([H])([H])C3([H])[H])c([H])c([H])c2C1([H])[H]

>  <smiles>  (85) 
[H]c1c([H])c([H])c2c(c1[H])C([H])([H])C([H])([H])C([H])([H])C2([H])N([H])C(=O)C1([H])N(C(=O)C([H])(N([H])C(=O)C([H])(N([H])C([H])([H])[H])C([H])([H])[H])C(C([H])([H])[H])(C([H])([H])[H])C([H])([H])[H])C([H])([H])c2c([H])c(OC3([H])C([H])([H])N(c4c([H])c(N([H])C(=O)N5C([H])([H])C([H])([H])C([H])([H])C([H])(n6nc(-c7c([H])c([H])c(Oc8c([H])c([H])c(F)c([H])c8F)c([H])c7[H])c(C(=O)N([H])[H])c6N([H])[H])C5([H])[H])c([H])c([H])c4C(=O)N([H])C([H])([H])[H])C([H])([H])C([H])([H])C3([H])[H])c([H])c([H])c2C1([H])[H]

$$$$
86:0:0
     RDKit          3D

 96105  0  0  1  0  0  0  0  0999 V2000
  -27.3130  -23.1580   18.9610 C   0  0  0  0  0  3  0  0  0  0  0  0
  -28.5510  -23.8170   19.2230 C   0  0  0  0  0  0  0  0  0  0  0  0
  -27.4830  -21.7990   19.0240 C   0  0  0  0  0  0  0  0  0  0  0  0
  -29.4230  -22.7420   19.4720 C   0  0  0  0  0  0  0  0  0  0  0  0
  -28.7970  -21.4670   19.3480 N   0  0  0  0  0  0  0  0  0  0  0  0
  -30.0480  -19.3580   18.5240 C   0  0  0  0  0  3  0  0  0  0  0  0
  -30.3120  -17.9440   18.6330 C   0  0  0  0  0  3  0  0  0  0  0  0
  -28.8620  -19.2950   20.6000 C   0  0  0  0  0  3  0  0  0  0  0  0
  -29.1240  -17.8940   20.7210 C   0  0  0  0  0  0  0  0  0  0  0  0
  -29.2850  -20.0770   19.4960 C   0  0  0  0  0  0  0  0  0  0  0  0
  -29.8380  -17.1560   19.7260 C   0  0  0  0  0  0  0  0  0  0  0  0
  -28.5900  -17.1730   21.9480 C   0  0  0  0  0  1  0  0  0  0  0  0
  -30.6300  -14.6570   19.2910 C   0  0  0  0  0  0  0  0  0  0  0  0
  -30.2540  -12.4280   18.2400 C   0  0  0  0  0  2  0  0  0  0  0  0
  -29.1130  -12.5960   17.2080 C   0  0  0  0  0  2  0  0  0  0  0  0
  -27.7330  -12.4340   17.8780 C   0  0  0  0  0  2  0  0  0  0  0  0
  -27.6040  -13.2490   19.1940 C   0  0  0  0  0  3  0  0  0  0  0  0
  -28.8370  -13.0510   20.1020 C   0  0  0  0  0  2  0  0  0  0  0  0
  -30.0320  -13.4190   19.3180 N   0  0  0  0  0  0  0  0  0  0  0  0
  -31.6970  -14.8310   18.6930 O   0  0  0  0  0  0  0  0  0  0  0  0
  -29.9150  -15.6830   19.8710 N   0  0  0  0  0  0  0  0  0  0  0  0
  -29.1900  -15.3180   20.4670 H   0  0  0  0  0  0  0  0  0  0  0  0
  -25.4240  -13.8440   20.4190 C   0  0  0  0  0  0  0  0  0  0  0  0
  -24.4020  -13.0730   20.9040 C   0  0  0  0  0  0  0  0  0  0  0  0
  -24.7680  -11.7180   20.6370 C   0  0  0  0  0  0  0  0  0  0  0  0
  -26.3530  -12.9600   19.8940 N   0  0  0  0  0  0  0  0  0  0  0  0
  -25.9720  -11.6700   20.0770 N   0  0  0  0  0  0  0  0  0  0  0  0
  -24.0110  -10.4720   20.8250 C   0  0  0  0  0  0  0  0  0  0  0  0
  -24.5090   -9.4190   21.6260 C   0  0  0  0  0  3  0  0  0  0  0  0
  -23.7560   -8.2390   21.8050 C   0  0  0  0  0  3  0  0  0  0  0  0
  -22.4900   -8.1040   21.1860 C   0  0  0  0  0  0  0  0  0  0  0  0
  -22.0110   -9.1410   20.3670 C   0  0  0  0  0  3  0  0  0  0  0  0
  -22.7660  -10.3120   20.1840 C   0  0  0  0  0  3  0  0  0  0  0  0
  -21.7010   -6.9830   21.2850 O   0  0  0  0  0  0  0  0  0  0  0  0
  -21.6880   -6.2080   22.4150 C   0  0  0  0  0  0  0  0  0  0  0  0
  -21.3640   -6.7360   23.6830 C   0  0  0  0  0  3  0  0  0  0  0  0
  -21.3010   -5.8900   24.8070 C   0  0  0  0  0  3  0  0  0  0  0  0
  -21.5500   -4.5110   24.6640 C   0  0  0  0  0  0  0  0  0  0  0  0
  -21.8580   -3.9770   23.4010 C   0  0  0  0  0  3  0  0  0  0  0  0
  -21.9280   -4.8240   22.2800 C   0  0  0  0  0  0  0  0  0  0  0  0
  -22.2120   -4.3010   21.0630 F   0  0  0  0  0  0  0  0  0  0  0  0
  -21.4780   -3.6960   25.7420 F   0  0  0  0  0  0  0  0  0  0  0  0
  -23.1100  -13.5680   21.4910 C   0  0  0  0  0  0  0  0  0  0  0  0
  -22.5260  -12.8160   22.4180 N   0  0  0  0  0  0  0  0  0  0  0  0
  -22.6330  -14.6550   21.1610 O   0  0  0  0  0  0  0  0  0  0  0  0
  -22.9240  -11.9330   22.7060 H   0  0  0  0  0  0  0  0  0  0  0  0
  -21.6670  -13.1260   22.8530 H   0  0  0  0  0  0  0  0  0  0  0  0
  -25.6350  -15.2210   20.3660 N   0  0  0  0  0  0  0  0  0  0  0  0
  -24.9370  -15.8840   20.6820 H   0  0  0  0  0  0  0  0  0  0  0  0
  -26.4150  -15.6600   19.8930 H   0  0  0  0  0  0  0  0  0  0  0  0
  -26.5590  -20.8280   18.7650 O   0  0  0  0  0  0  0  0  0  0  0  0
  -25.8010  -21.2410   18.3620 H   0  0  0  0  0  0  0  0  0  0  0  0
  -30.7600  -22.7920   19.7430 O   0  0  0  0  0  0  0  0  0  0  0  0
  -31.0220  -23.7040   19.7970 H   0  0  0  0  0  0  0  0  0  0  0  0
  -28.7720  -25.3780   18.9920 C   0  0  0  0  0  2  0  0  0  0  0  0
  -28.4320  -26.4360   19.9730 O   0  0  0  0  0  0  0  0  0  0  0  0
  -24.5170  -31.6790   23.0380 C   0  0  0  0  0  0  0  0  0  0  0  0
  -27.2770  -27.2350   19.8980 C   0  0  0  0  0  0  0  0  0  0  0  0
  -23.3570  -30.2630   21.3750 C   0  0  0  0  0  3  0  0  0  0  0  0
  -24.8540  -28.7710   19.9260 C   0  0  0  0  0  0  0  0  0  0  0  0
  -25.8840  -30.6560   21.2030 C   0  0  0  0  0  2  0  0  0  0  0  0
  -26.0050  -29.2860   20.5370 C   0  0  0  0  0  0  0  0  0  0  0  0
  -27.2100  -28.5210   20.5250 C   0  0  0  0  0  3  0  0  0  0  0  0
  -26.1030  -26.7700   19.2700 C   0  0  0  0  0  3  0  0  0  0  0  0
  -24.9060  -27.5190   19.2850 C   0  0  0  0  0  3  0  0  0  0  0  0
  -23.5880  -29.6030   19.9890 C   0  0  0  0  0  2  0  0  0  0  0  0
  -24.6040  -30.8850   21.9300 N   0  0  0  0  0  0  0  0  0  0  0  0
  -23.4250  -31.9180   23.5740 O   0  0  0  0  0  0  0  0  0  0  0  0
  -22.7220  -29.2230   22.3290 C   0  0  0  0  0  0  0  0  0  0  0  0
  -21.3960  -29.0240   22.2130 N   0  0  0  0  0  0  0  0  0  0  0  0
  -23.4190  -28.5930   23.1300 O   0  0  0  0  0  0  0  0  0  0  0  0
  -20.8870  -29.5890   21.5450 H   0  0  0  0  0  0  0  0  0  0  0  0
  -18.0440  -27.7680   22.7430 C   0  0  0  0  0  0  0  0  0  0  0  0
  -20.6040  -28.0580   22.9760 C   0  0  0  0  0  3  0  0  0  0  0  0
  -20.7140  -26.6430   22.3650 C   0  0  0  0  0  2  0  0  0  0  0  0
  -19.6000  -26.3300   21.3610 C   0  0  0  0  0  2  0  0  0  0  0  0
  -18.2260  -26.4390   22.0300 C   0  0  0  0  0  2  0  0  0  0  0  0
  -19.1590  -28.5350   23.1740 C   0  0  0  0  0  0  0  0  0  0  0  0
  -18.9330  -29.7790   23.8020 C   0  0  0  0  0  3  0  0  0  0  0  0
  -17.6230  -30.2580   23.9990 C   0  0  0  0  0  3  0  0  0  0  0  0
  -16.5230  -29.4880   23.5830 C   0  0  0  0  0  3  0  0  0  0  0  0
  -16.7350  -28.2430   22.9630 C   0  0  0  0  0  3  0  0  0  0  0  0
  -25.7810  -32.3410   23.6740 C   0  0  0  0  0  3  0  0  0  0  0  0
  -26.3340  -31.5540   24.9230 C   0  0  1  0  0  0  0  0  0  0  0  0
  -25.2590  -31.2500   25.9930 C   0  0  0  0  0  1  0  0  0  0  0  0
  -26.9560  -30.2080   24.4900 C   0  0  0  0  0  1  0  0  0  0  0  0
  -27.4670  -32.3660   25.5950 C   0  0  0  0  0  1  0  0  0  0  0  0
  -25.4210  -33.7160   24.0470 N   0  0  0  0  0  0  0  0  0  0  0  0
  -25.7020  -34.8040   23.3170 C   0  0  0  0  0  0  0  0  0  0  0  0
  -26.3580  -34.7580   22.2720 O   0  0  0  0  0  0  0  0  0  0  0  0
  -24.8310  -33.8250   24.8570 H   0  0  0  0  0  0  0  0  0  0  0  0
  -23.8990  -36.5390   23.0400 C   0  0  0  0  0  1  0  0  0  0  0  0
  -25.1670  -36.1580   23.8220 C   0  0  0  0  0  3  0  0  0  0  0  0
  -27.2830  -37.0950   24.6450 C   0  0  0  0  0  1  0  0  0  0  0  0
  -26.1530  -37.2570   23.7330 N   0  0  0  0  0  0  0  0  0  0  0  0
  -25.7120  -38.1510   23.9310 H   0  0  0  0  0  0  0  0  0  0  0  0
  1  3  2  0
  1  2  1  0
  2  4  2  0
  3  5  1  0
  4 53  1  0
  5  4  1  0
  5 10  1  0
  6  7  2  0
  6 10  1  0
  7 11  1  0
  8  9  1  0
  9 12  1  0
 10  8  2  0
 11 21  1  0
 11  9  2  0
 13 19  1  0
 13 21  1  0
 14 19  1  0
 15 16  1  0
 15 14  1  0
 17 16  1  0
 17 26  1  0
 17 18  1  0
 19 18  1  0
 20 13  2  0
 21 22  1  0
 23 24  2  0
 24 43  1  0
 25 28  1  0
 25 24  1  0
 26 27  1  0
 26 23  1  0
 27 25  2  0
 28 29  1  0
 29 30  2  0
 31 34  1  0
 31 30  1  0
 32 31  2  0
 33 32  1  0
 33 28  2  0
 34 35  1  0
 35 36  1  0
 36 37  2  0
 38 37  1  0
 38 42  1  0
 39 38  2  0
 40 35  2  0
 40 39  1  0
 41 40  1  0
 43 44  1  0
 44 46  1  0
 44 47  1  0
 45 43  2  0
 48 23  1  0
 48 49  1  0
 50 48  1  0
 51  3  1  0
 52 51  1  0
 53 54  1  0
 55  2  1  0
 55 56  1  0
 57 68  2  0
 58 56  1  0
 58 63  1  0
 59 67  1  0
 59 69  1  0
 60 66  1  0
 60 62  1  0
 61 67  1  0
 62 61  1  0
 63 62  2  0
 64 65  1  0
 64 58  2  0
 65 60  2  0
 66 59  1  0
 67 57  1  0
 69 71  2  0
 70 69  1  0
 72 70  1  0
 73 82  2  0
 73 78  1  0
 74 70  1  0
 74 78  1  0
 75 74  1  0
 76 77  1  0
 76 75  1  0
 77 73  1  0
 78 79  2  0
 79 80  1  0
 81 80  2  0
 82 81  1  0
 83 57  1  0
 83 88  1  0
 83 84  1  0
 84 87  1  1
 84 85  1  0
 86 84  1  0
 88 91  1  0
 89 93  1  0
 89 88  1  0
 90 89  2  0
 93 92  1  0
 95 93  1  0
 95 96  1  0
 95 94  1  0
M  ISO  4  13 100  21 100  55 101  56 101
M  END
>  <TORSDO>  (86) 
F 20

>  <SCORE>  (86) 
-10.673

>  <name>  (86) 
86

>  <ligand_id>  (86) 
86

>  <original_smiles>  (86) 
[H]Oc1c([H])c(C([H])([H])Oc2c([H])c([H])c3c(c2[H])C([H])([H])N(C(=O)C([H])(N([H])C(=O)C([H])(N([H])C([H])([H])[H])C([H])([H])[H])C(C([H])([H])[H])(C([H])([H])[H])C([H])([H])[H])C([H])(C(=O)N([H])C2([H])c4c([H])c([H])c([H])c([H])c4C([H])([H])C([H])([H])C2([H])[H])C3([H])[H])c(O[H])n1-c1c([H])c([H])c(N([H])C(=O)N2C([H])([H])C([H])([H])C([H])([H])C([H])(n3nc(-c4c([H])c([H])c(Oc5c([H])c([H])c(F)c([H])c5F)c([H])c4[H])c(C(=O)N([H])[H])c3N([H])[H])C2([H])[H])c(C([H])([H])[H])c1[H]

>  <smiles>  (86) 
[H]Oc1c([H])c(C([H])([H])Oc2c([H])c([H])c3c(c2[H])C([H])([H])N(C(=O)C([H])(N([H])C(=O)C([H])(N([H])C([H])([H])[H])C([H])([H])[H])C(C([H])([H])[H])(C([H])([H])[H])C([H])([H])[H])C([H])(C(=O)N([H])C2([H])c4c([H])c([H])c([H])c([H])c4C([H])([H])C([H])([H])C2([H])[H])C3([H])[H])c(O[H])n1-c1c([H])c([H])c(N([H])C(=O)N2C([H])([H])C([H])([H])C([H])([H])C([H])(n3nc(-c4c([H])c([H])c(Oc5c([H])c([H])c(F)c([H])c5F)c([H])c4[H])c(C(=O)N([H])[H])c3N([H])[H])C2([H])[H])c(C([H])([H])[H])c1[H]

$$$$
87:0:0
     RDKit          3D

 98107  0  0  1  0  0  0  0  0999 V2000
  -30.2860  -23.8680   19.4020 C   0  0  0  0  0  3  0  0  0  0  0  0
  -29.0020  -23.8490   20.0070 C   0  0  0  0  0  0  0  0  0  0  0  0
  -30.7920  -22.5950   19.3720 C   0  0  0  0  0  0  0  0  0  0  0  0
  -28.8500  -22.5170   20.3820 C   0  0  0  0  0  0  0  0  0  0  0  0
  -29.9320  -21.6690   19.9970 N   0  0  0  0  0  0  0  0  0  0  0  0
  -31.1950  -17.9780   20.5500 C   0  0  0  0  0  3  0  0  0  0  0  0
  -28.8780  -19.3860   19.9610 C   0  0  0  0  0  3  0  0  0  0  0  0
  -31.2390  -19.4120   20.4300 C   0  0  0  0  0  0  0  0  0  0  0  0
  -30.0460  -20.1850   20.1450 C   0  0  0  0  0  0  0  0  0  0  0  0
  -29.9930  -17.2250   20.4560 C   0  0  0  0  0  0  0  0  0  0  0  0
  -28.8420  -17.9760   20.1320 C   0  0  0  0  0  0  0  0  0  0  0  0
  -27.6640  -17.3230   19.9790 F   0  0  0  0  0  0  0  0  0  0  0  0
  -30.6200  -14.6950   20.5580 C   0  0  0  0  0  0  0  0  0  0  0  0
  -30.4130  -12.4320   19.5670 C   0  0  0  0  0  2  0  0  0  0  0  0
  -29.5010  -12.5390   18.3220 C   0  0  0  0  0  2  0  0  0  0  0  0
  -28.0210  -12.3740   18.7130 C   0  0  0  0  0  2  0  0  0  0  0  0
  -27.6160  -13.2630   19.9180 C   0  0  0  0  0  3  0  0  0  0  0  0
  -28.6510  -13.1730   21.0650 C   0  0  0  0  0  2  0  0  0  0  0  0
  -29.9810  -13.4810   20.5130 N   0  0  0  0  0  0  0  0  0  0  0  0
  -31.8140  -14.8060   20.2720 O   0  0  0  0  0  0  0  0  0  0  0  0
  -29.8130  -15.7900   20.7010 N   0  0  0  0  0  0  0  0  0  0  0  0
  -28.8500  -15.5340   20.8630 H   0  0  0  0  0  0  0  0  0  0  0  0
  -25.2000  -13.8570   20.5740 C   0  0  0  0  0  0  0  0  0  0  0  0
  -24.1220  -13.0830   20.9140 C   0  0  0  0  0  0  0  0  0  0  0  0
  -24.5890  -11.7340   20.9050 C   0  0  0  0  0  0  0  0  0  0  0  0
  -26.2560  -12.9800   20.3730 N   0  0  0  0  0  0  0  0  0  0  0  0
  -25.8880  -11.6960   20.6330 N   0  0  0  0  0  0  0  0  0  0  0  0
  -23.8580  -10.4700   21.0810 C   0  0  0  0  0  0  0  0  0  0  0  0
  -24.2630   -9.5100   22.0350 C   0  0  0  0  0  3  0  0  0  0  0  0
  -23.5360   -8.3100   22.1970 C   0  0  0  0  0  3  0  0  0  0  0  0
  -22.3870   -8.0660   21.4070 C   0  0  0  0  0  0  0  0  0  0  0  0
  -22.0030   -9.0120   20.4420 C   0  0  0  0  0  3  0  0  0  0  0  0
  -22.7300  -10.2030   20.2780 C   0  0  0  0  0  3  0  0  0  0  0  0
  -21.6310   -6.9210   21.4790 O   0  0  0  0  0  0  0  0  0  0  0  0
  -21.5400   -6.1880   22.6350 C   0  0  0  0  0  0  0  0  0  0  0  0
  -21.0410   -6.7440   23.8340 C   0  0  0  0  0  3  0  0  0  0  0  0
  -20.9040   -5.9350   24.9800 C   0  0  0  0  0  3  0  0  0  0  0  0
  -21.2510   -4.5720   24.9280 C   0  0  0  0  0  0  0  0  0  0  0  0
  -21.7400   -4.0150   23.7320 C   0  0  0  0  0  3  0  0  0  0  0  0
  -21.8820   -4.8220   22.5890 C   0  0  0  0  0  0  0  0  0  0  0  0
  -22.3360   -4.2740   21.4350 F   0  0  0  0  0  0  0  0  0  0  0  0
  -21.1120   -3.7940   26.0250 F   0  0  0  0  0  0  0  0  0  0  0  0
  -22.7150  -13.5590   21.1390 C   0  0  0  0  0  0  0  0  0  0  0  0
  -21.9590  -12.8700   21.9880 N   0  0  0  0  0  0  0  0  0  0  0  0
  -22.2920  -14.5800   20.5960 O   0  0  0  0  0  0  0  0  0  0  0  0
  -22.3110  -12.0440   22.4480 H   0  0  0  0  0  0  0  0  0  0  0  0
  -21.0160  -13.1750   22.1830 H   0  0  0  0  0  0  0  0  0  0  0  0
  -25.3580  -15.2290   20.4060 N   0  0  0  0  0  0  0  0  0  0  0  0
  -24.5730  -15.8610   20.5220 H   0  0  0  0  0  0  0  0  0  0  0  0
  -26.2140  -15.7110   20.1590 H   0  0  0  0  0  0  0  0  0  0  0  0
  -33.7070  -19.5010   20.0600 C   0  0  0  0  0  2  0  0  0  0  0  0
  -32.5730  -20.0240   20.5590 C   0  0  0  0  0  3  0  0  0  0  0  0
  -31.9510  -22.2390   18.7590 O   0  0  0  0  0  0  0  0  0  0  0  0
  -32.4750  -23.0300   18.6780 H   0  0  0  0  0  0  0  0  0  0  0  0
  -27.7580  -21.9860   21.0000 O   0  0  0  0  0  0  0  0  0  0  0  0
  -27.0270  -22.5730   20.8490 H   0  0  0  0  0  0  0  0  0  0  0  0
  -27.9370  -25.0020   20.0320 C   0  0  0  0  0  2  0  0  0  0  0  0
  -28.2620  -26.4490   20.1580 O   0  0  0  0  0  0  0  0  0  0  0  0
  -24.5910  -31.8850   23.2880 C   0  0  0  0  0  0  0  0  0  0  0  0
  -27.1550  -27.3280   20.1530 C   0  0  0  0  0  0  0  0  0  0  0  0
  -23.3660  -30.5050   21.6510 C   0  0  0  0  0  3  0  0  0  0  0  0
  -24.7970  -28.9710   20.1960 C   0  0  0  0  0  0  0  0  0  0  0  0
  -25.9090  -30.8130   21.4470 C   0  0  0  0  0  2  0  0  0  0  0  0
  -25.9790  -29.4400   20.7830 C   0  0  0  0  0  0  0  0  0  0  0  0
  -27.1600  -28.6300   20.7530 C   0  0  0  0  0  3  0  0  0  0  0  0
  -25.9340  -26.9260   19.5500 C   0  0  0  0  0  3  0  0  0  0  0  0
  -24.7770  -27.7210   19.5700 C   0  0  0  0  0  3  0  0  0  0  0  0
  -23.5610  -29.8440   20.2650 C   0  0  0  0  0  2  0  0  0  0  0  0
  -24.6410  -31.0840   22.1850 N   0  0  0  0  0  0  0  0  0  0  0  0
  -23.5140  -32.1590   23.8360 O   0  0  0  0  0  0  0  0  0  0  0  0
  -22.7100  -29.4790   22.6090 C   0  0  0  0  0  0  0  0  0  0  0  0
  -21.3870  -29.2840   22.4730 N   0  0  0  0  0  0  0  0  0  0  0  0
  -23.3910  -28.8630   23.4320 O   0  0  0  0  0  0  0  0  0  0  0  0
  -20.8930  -29.8370   21.7860 H   0  0  0  0  0  0  0  0  0  0  0  0
  -18.0200  -28.0530   22.9540 C   0  0  0  0  0  0  0  0  0  0  0  0
  -20.5750  -28.3400   23.2440 C   0  0  0  0  0  3  0  0  0  0  0  0
  -20.6940  -26.9080   22.6750 C   0  0  0  0  0  2  0  0  0  0  0  0
  -19.6040  -26.5690   21.6530 C   0  0  0  0  0  2  0  0  0  0  0  0
  -18.2160  -26.7020   22.2850 C   0  0  0  0  0  2  0  0  0  0  0  0
  -19.1270  -28.8290   23.3880 C   0  0  0  0  0  0  0  0  0  0  0  0
  -18.8880  -30.0930   23.9710 C   0  0  0  0  0  3  0  0  0  0  0  0
  -17.5760  -30.5800   24.1240 C   0  0  0  0  0  3  0  0  0  0  0  0
  -16.4840  -29.8000   23.7050 C   0  0  0  0  0  3  0  0  0  0  0  0
  -16.7070  -28.5390   23.1260 C   0  0  0  0  0  3  0  0  0  0  0  0
  -25.8830  -32.5060   23.9020 C   0  0  0  0  0  3  0  0  0  0  0  0
  -25.5860  -33.9070   24.2320 N   0  0  0  0  0  0  0  0  0  0  0  0
  -25.8920  -34.9530   23.4540 C   0  0  0  0  0  0  0  0  0  0  0  0
  -26.5250  -34.8420   22.4010 O   0  0  0  0  0  0  0  0  0  0  0  0
  -25.0170  -34.0690   25.0490 H   0  0  0  0  0  0  0  0  0  0  0  0
  -24.1440  -36.7380   23.1600 C   0  0  0  0  0  1  0  0  0  0  0  0
  -25.4210  -36.3440   23.9200 C   0  0  0  0  0  3  0  0  0  0  0  0
  -27.5870  -37.2440   24.6460 C   0  0  0  0  0  1  0  0  0  0  0  0
  -26.4430  -37.4000   23.7520 N   0  0  0  0  0  0  0  0  0  0  0  0
  -26.0380  -38.3190   23.9090 H   0  0  0  0  0  0  0  0  0  0  0  0
  -26.3990  -31.7300   25.1750 C   0  0  1  0  0  0  0  0  0  0  0  0
  -25.3100  -31.5020   26.2500 C   0  0  0  0  0  1  0  0  0  0  0  0
  -26.9650  -30.3460   24.7820 C   0  0  0  0  0  1  0  0  0  0  0  0
  -27.5620  -32.5120   25.8280 C   0  0  0  0  0  1  0  0  0  0  0  0
  1  2  1  0
  2 57  1  0
  2  4  2  0
  3  1  2  0
  3  5  1  0
  4 55  1  0
  5  9  1  0
  5  4  1  0
  7 11  1  0
  7  9  2  0
  8  6  2  0
  8 52  1  0
  9  8  1  0
 10  6  1  0
 10 21  1  0
 11 10  2  0
 12 11  1  0
 13 21  1  0
 14 19  1  0
 15 16  1  0
 15 14  1  0
 17 16  1  0
 17 26  1  0
 17 18  1  0
 19 13  1  0
 19 18  1  0
 20 13  2  0
 21 22  1  0
 23 24  2  0
 24 43  1  0
 25 24  1  0
 25 28  1  0
 26 23  1  0
 26 27  1  0
 27 25  2  0
 28 29  1  0
 29 30  2  0
 31 34  1  0
 31 30  1  0
 32 31  2  0
 33 32  1  0
 33 28  2  0
 34 35  1  0
 35 36  1  0
 36 37  2  0
 38 37  1  0
 38 42  1  0
 39 38  2  0
 40 35  2  0
 40 39  1  0
 41 40  1  0
 43 44  1  0
 44 47  1  0
 44 46  1  0
 45 43  2  0
 48 49  1  0
 48 23  1  0
 50 48  1  0
 51 52  2  0
 53  3  1  0
 54 53  1  0
 56 55  1  0
 57 58  1  0
 59 70  2  0
 60 58  1  0
 60 65  1  0
 61 69  1  0
 61 71  1  0
 62 68  1  0
 62 64  1  0
 63 69  1  0
 64 63  1  0
 65 64  2  0
 66 67  1  0
 66 60  2  0
 67 62  2  0
 68 61  1  0
 69 59  1  0
 71 73  2  0
 72 71  1  0
 74 72  1  0
 75 84  2  0
 75 80  1  0
 76 72  1  0
 76 80  1  0
 77 76  1  0
 78 79  1  0
 78 77  1  0
 79 75  1  0
 80 81  2  0
 81 82  1  0
 83 82  2  0
 84 83  1  0
 85 59  1  0
 85 86  1  0
 85 95  1  0
 86 89  1  0
 87 91  1  0
 87 86  1  0
 88 87  2  0
 91 90  1  0
 93 94  1  0
 93 91  1  0
 93 92  1  0
 95 98  1  1
 95 96  1  0
 97 95  1  0
M  ISO  4  13 100  21 100  57 101  58 101
M  END
>  <TORSDO>  (87) 
F 21

>  <SCORE>  (87) 
-14.302

>  <name>  (87) 
87

>  <ligand_id>  (87) 
87

>  <original_smiles>  (87) 
[H]Oc1c([H])c(C([H])([H])Oc2c([H])c([H])c3c(c2[H])C([H])([H])N(C(=O)C([H])(N([H])C(=O)C([H])(N([H])C([H])([H])[H])C([H])([H])[H])C(C([H])([H])[H])(C([H])([H])[H])C([H])([H])[H])C([H])(C(=O)N([H])C2([H])c4c([H])c([H])c([H])c([H])c4C([H])([H])C([H])([H])C2([H])[H])C3([H])[H])c(O[H])n1-c1c([H])c(F)c(N([H])C(=O)N2C([H])([H])C([H])([H])C([H])([H])C([H])(n3nc(-c4c([H])c([H])c(Oc5c([H])c([H])c(F)c([H])c5F)c([H])c4[H])c(C(=O)N([H])[H])c3N([H])[H])C2([H])[H])c([H])c1C([H])=C([H])[H]

>  <smiles>  (87) 
[H]Oc1c([H])c(C([H])([H])Oc2c([H])c([H])c3c(c2[H])C([H])([H])N(C(=O)C([H])(N([H])C(=O)C([H])(N([H])C([H])([H])[H])C([H])([H])[H])C(C([H])([H])[H])(C([H])([H])[H])C([H])([H])[H])C([H])(C(=O)N([H])C2([H])c4c([H])c([H])c([H])c([H])c4C([H])([H])C([H])([H])C2([H])[H])C3([H])[H])c(O[H])n1-c1c([H])c(F)c(N([H])C(=O)N2C([H])([H])C([H])([H])C([H])([H])C([H])(n3nc(-c4c([H])c([H])c(Oc5c([H])c([H])c(F)c([H])c5F)c([H])c4[H])c(C(=O)N([H])[H])c3N([H])[H])C2([H])[H])c([H])c1C([H])=C([H])[H]

$$$$
88:0:0
     RDKit          3D

 96104  0  0  1  0  0  0  0  0999 V2000
  -29.5100  -21.5910   19.2740 C   0  0  0  0  0  0  0  0  0  0  0  0
  -29.0800  -22.5970   20.0950 N   0  0  0  0  0  0  0  0  0  0  0  0
  -29.8000  -21.8610   18.1050 O   0  0  0  0  0  0  0  0  0  0  0  0
  -28.8980  -22.3530   21.0590 H   0  0  0  0  0  0  0  0  0  0  0  0
  -30.9360  -17.9480   19.5420 C   0  0  0  0  0  3  0  0  0  0  0  0
  -28.8370  -17.9960   20.7020 C   0  0  0  0  0  3  0  0  0  0  0  0
  -29.6940  -20.1230   19.7350 C   0  0  0  0  0  0  0  0  0  0  0  0
  -29.9360  -17.2150   20.2330 C   0  0  0  0  0  0  0  0  0  0  0  0
  -30.8160  -19.3510   19.2990 C   0  0  0  0  0  0  0  0  0  0  0  0
  -28.7160  -19.4010   20.4720 C   0  0  0  0  0  0  0  0  0  0  0  0
  -31.8190  -19.9470   18.6040 F   0  0  0  0  0  0  0  0  0  0  0  0
  -27.6150  -20.0410   20.9360 F   0  0  0  0  0  0  0  0  0  0  0  0
  -30.7290  -14.7230   20.0210 C   0  0  0  0  0  0  0  0  0  0  0  0
  -30.4960  -12.4900   18.9520 C   0  0  0  0  0  2  0  0  0  0  0  0
  -29.4840  -12.6210   17.7930 C   0  0  0  0  0  2  0  0  0  0  0  0
  -28.0330  -12.4650   18.2930 C   0  0  0  0  0  2  0  0  0  0  0  0
  -27.7410  -13.2920   19.5750 C   0  0  0  0  0  3  0  0  0  0  0  0
  -28.8630  -13.1210   20.6240 C   0  0  0  0  0  2  0  0  0  0  0  0
  -30.1340  -13.4880   19.9800 N   0  0  0  0  0  0  0  0  0  0  0  0
  -31.8640  -14.9030   19.5720 O   0  0  0  0  0  0  0  0  0  0  0  0
  -29.9240  -15.7580   20.4390 N   0  0  0  0  0  0  0  0  0  0  0  0
  -29.0760  -15.4180   20.8650 H   0  0  0  0  0  0  0  0  0  0  0  0
  -25.3970  -13.8580   20.4650 C   0  0  0  0  0  0  0  0  0  0  0  0
  -24.3550  -13.0690   20.8730 C   0  0  0  0  0  0  0  0  0  0  0  0
  -24.8170  -11.7210   20.7730 C   0  0  0  0  0  0  0  0  0  0  0  0
  -26.4250  -12.9890   20.1340 N   0  0  0  0  0  0  0  0  0  0  0  0
  -26.0840  -11.6970   20.3760 N   0  0  0  0  0  0  0  0  0  0  0  0
  -24.1070  -10.4500   20.9650 C   0  0  0  0  0  0  0  0  0  0  0  0
  -24.5520   -9.4890   21.8990 C   0  0  0  0  0  3  0  0  0  0  0  0
  -23.8420   -8.2830   22.0800 C   0  0  0  0  0  3  0  0  0  0  0  0
  -22.6700   -8.0310   21.3280 C   0  0  0  0  0  0  0  0  0  0  0  0
  -22.2420   -8.9800   20.3840 C   0  0  0  0  0  3  0  0  0  0  0  0
  -22.9530  -10.1770   20.2030 C   0  0  0  0  0  3  0  0  0  0  0  0
  -21.9300   -6.8760   21.4190 O   0  0  0  0  0  0  0  0  0  0  0  0
  -21.8390   -6.1670   22.5890 C   0  0  0  0  0  0  0  0  0  0  0  0
  -21.3020   -6.7380   23.7630 C   0  0  0  0  0  3  0  0  0  0  0  0
  -21.1640   -5.9570   24.9260 C   0  0  0  0  0  3  0  0  0  0  0  0
  -21.5480   -4.6020   24.9140 C   0  0  0  0  0  0  0  0  0  0  0  0
  -22.0790   -4.0300   23.7450 C   0  0  0  0  0  3  0  0  0  0  0  0
  -22.2180   -4.8100   22.5840 C   0  0  0  0  0  0  0  0  0  0  0  0
  -22.7100   -4.2500   21.4530 F   0  0  0  0  0  0  0  0  0  0  0  0
  -21.4060   -3.8470   26.0290 F   0  0  0  0  0  0  0  0  0  0  0  0
  -22.9770  -13.5350   21.2450 C   0  0  0  0  0  0  0  0  0  0  0  0
  -22.2990  -12.8040   22.1220 N   0  0  0  0  0  0  0  0  0  0  0  0
  -22.5120  -14.5790   20.7910 O   0  0  0  0  0  0  0  0  0  0  0  0
  -22.6920  -11.9610   22.5130 H   0  0  0  0  0  0  0  0  0  0  0  0
  -21.3770  -13.1000   22.4140 H   0  0  0  0  0  0  0  0  0  0  0  0
  -25.5500  -15.2340   20.3280 N   0  0  0  0  0  0  0  0  0  0  0  0
  -24.7890  -15.8770   20.5190 H   0  0  0  0  0  0  0  0  0  0  0  0
  -26.3600  -15.6830   19.9240 H   0  0  0  0  0  0  0  0  0  0  0  0
  -29.3020  -24.0730   19.8310 C   0  0  0  0  0  3  0  0  0  0  0  0
  -30.5650  -24.4340   20.6250 C   0  0  0  0  0  0  0  0  0  0  0  0
  -31.5990  -24.7440   20.0000 O   0  0  0  0  0  0  0  0  0  0  0  0
  -30.5440  -24.3170   21.8690 O   0  0  0  0  0  1  0  0  0  0  0  0
  -28.1250  -25.0660   20.2440 C   0  0  0  0  0  2  0  0  0  0  0  0
  -28.3260  -26.5240   20.0200 O   0  0  0  0  0  0  0  0  0  0  0  0
  -24.5870  -31.8510   23.1390 C   0  0  0  0  0  0  0  0  0  0  0  0
  -27.2040  -27.3640   20.0050 C   0  0  0  0  0  0  0  0  0  0  0  0
  -23.3850  -30.4840   21.4710 C   0  0  0  0  0  3  0  0  0  0  0  0
  -24.8390  -28.9680   20.0160 C   0  0  0  0  0  0  0  0  0  0  0  0
  -25.9240  -30.8150   21.2960 C   0  0  0  0  0  2  0  0  0  0  0  0
  -26.0040  -29.4470   20.6280 C   0  0  0  0  0  0  0  0  0  0  0  0
  -27.1890  -28.6540   20.6170 C   0  0  0  0  0  3  0  0  0  0  0  0
  -26.0220  -26.9500   19.3500 C   0  0  0  0  0  3  0  0  0  0  0  0
  -24.8500  -27.7280   19.3640 C   0  0  0  0  0  3  0  0  0  0  0  0
  -23.5980  -29.8350   20.0770 C   0  0  0  0  0  2  0  0  0  0  0  0
  -24.6500  -31.0640   22.0270 N   0  0  0  0  0  0  0  0  0  0  0  0
  -23.5020  -32.1180   23.6780 O   0  0  0  0  0  0  0  0  0  0  0  0
  -22.7240  -29.4490   22.4110 C   0  0  0  0  0  0  0  0  0  0  0  0
  -21.3920  -29.2940   22.3010 N   0  0  0  0  0  0  0  0  0  0  0  0
  -23.4060  -28.7840   23.1960 O   0  0  0  0  0  0  0  0  0  0  0  0
  -20.8970  -29.8830   21.6460 H   0  0  0  0  0  0  0  0  0  0  0  0
  -18.0000  -28.1700   22.8510 C   0  0  0  0  0  0  0  0  0  0  0  0
  -20.5730  -28.3460   23.0560 C   0  0  0  0  0  3  0  0  0  0  0  0
  -20.6160  -26.9370   22.4180 C   0  0  0  0  0  2  0  0  0  0  0  0
  -19.4790  -26.6890   21.4230 C   0  0  0  0  0  2  0  0  0  0  0  0
  -18.1190  -26.8450   22.1140 C   0  0  0  0  0  2  0  0  0  0  0  0
  -19.1520  -28.8800   23.2790 C   0  0  0  0  0  0  0  0  0  0  0  0
  -18.9880  -30.1230   23.9290 C   0  0  0  0  0  3  0  0  0  0  0  0
  -17.7050  -30.6530   24.1530 C   0  0  0  0  0  3  0  0  0  0  0  0
  -16.5660  -29.9380   23.7420 C   0  0  0  0  0  3  0  0  0  0  0  0
  -16.7140  -28.6980   23.0960 C   0  0  0  0  0  3  0  0  0  0  0  0
  -25.8700  -32.4710   23.7740 C   0  0  0  0  0  3  0  0  0  0  0  0
  -26.3790  -31.6830   25.0430 C   0  0  1  0  0  0  0  0  0  0  0  0
  -25.2820  -31.4330   26.1010 C   0  0  0  0  0  1  0  0  0  0  0  0
  -26.9620  -30.3080   24.6390 C   0  0  0  0  0  1  0  0  0  0  0  0
  -27.5240  -32.4680   25.7260 C   0  0  0  0  0  1  0  0  0  0  0  0
  -25.5660  -33.8670   24.1180 N   0  0  0  0  0  0  0  0  0  0  0  0
  -25.9050  -34.9260   23.3720 C   0  0  0  0  0  0  0  0  0  0  0  0
  -26.5770  -34.8320   22.3420 O   0  0  0  0  0  0  0  0  0  0  0  0
  -24.9680  -34.0140   24.9190 H   0  0  0  0  0  0  0  0  0  0  0  0
  -24.1980  -36.7410   23.0190 C   0  0  0  0  0  1  0  0  0  0  0  0
  -25.4210  -36.3110   23.8440 C   0  0  0  0  0  3  0  0  0  0  0  0
  -27.5460  -37.1720   24.7230 C   0  0  0  0  0  1  0  0  0  0  0  0
  -26.4610  -37.3580   23.7640 N   0  0  0  0  0  0  0  0  0  0  0  0
  -26.0550  -38.2770   23.9230 H   0  0  0  0  0  0  0  0  0  0  0  0
  1  7  1  0
  1  2  1  0
  2  4  1  0
  3  1  2  0
  5  8  1  0
  7 10  2  0
  8 21  1  0
  8  6  2  0
  9  5  2  0
  9  7  1  0
 10  6  1  0
 10 12  1  0
 11  9  1  0
 13 21  1  0
 14 19  1  0
 15 16  1  0
 15 14  1  0
 17 16  1  0
 17 26  1  0
 17 18  1  0
 19 13  1  0
 19 18  1  0
 20 13  2  0
 21 22  1  0
 23 24  2  0
 24 43  1  0
 25 24  1  0
 25 28  1  0
 26 27  1  0
 26 23  1  0
 27 25  2  0
 28 29  1  0
 29 30  2  0
 31 34  1  0
 31 30  1  0
 32 31  2  0
 33 32  1  0
 33 28  2  0
 34 35  1  0
 35 36  1  0
 36 37  2  0
 38 37  1  0
 38 42  1  0
 39 38  2  0
 40 35  2  0
 40 39  1  0
 41 40  1  0
 43 44  1  0
 44 47  1  0
 44 46  1  0
 45 43  2  0
 48 23  1  0
 48 49  1  0
 50 48  1  0
 51  2  1  0
 51 55  1  0
 51 52  1  0
 52 54  1  0
 53 52  2  0
 56 55  1  0
 57 68  2  0
 58 56  1  0
 58 63  1  0
 59 67  1  0
 59 69  1  0
 60 66  1  0
 60 62  1  0
 61 67  1  0
 62 61  1  0
 63 62  2  0
 64 65  1  0
 64 58  2  0
 65 60  2  0
 66 59  1  0
 67 57  1  0
 69 71  2  0
 70 69  1  0
 72 70  1  0
 73 82  2  0
 73 78  1  0
 74 70  1  0
 74 78  1  0
 75 74  1  0
 76 77  1  0
 76 75  1  0
 77 73  1  0
 78 79  2  0
 79 80  1  0
 81 80  2  0
 82 81  1  0
 83 57  1  0
 83 88  1  0
 83 84  1  0
 84 87  1  1
 84 85  1  0
 86 84  1  0
 88 91  1  0
 89 93  1  0
 89 88  1  0
 90 89  2  0
 93 92  1  0
 95 93  1  0
 95 96  1  0
 95 94  1  0
M  ISO  4  13 100  21 100  55 101  56 101
M  END
>  <TORSDO>  (88) 
F 20

>  <SCORE>  (88) 
-13.767

>  <name>  (88) 
88

>  <ligand_id>  (88) 
88

>  <original_smiles>  (88) 
[H]c1c([H])c([H])c2c(c1[H])C([H])([H])C([H])([H])C([H])([H])C2([H])N([H])C(=O)C1([H])N(C(=O)C([H])(N([H])C(=O)C([H])(N([H])C([H])([H])[H])C([H])([H])[H])C(C([H])([H])[H])(C([H])([H])[H])C([H])([H])[H])C([H])([H])c2c([H])c(OC([H])([H])C([H])(C(=O)[O-])N([H])C(=O)c3c(F)c([H])c(N([H])C(=O)N4C([H])([H])C([H])([H])C([H])([H])C([H])(n5nc(-c6c([H])c([H])c(Oc7c([H])c([H])c(F)c([H])c7F)c([H])c6[H])c(C(=O)N([H])[H])c5N([H])[H])C4([H])[H])c([H])c3F)c([H])c([H])c2C1([H])[H]

>  <smiles>  (88) 
[H]c1c([H])c([H])c2c(c1[H])C([H])([H])C([H])([H])C([H])([H])C2([H])N([H])C(=O)C1([H])N(C(=O)C([H])(N([H])C(=O)C([H])(N([H])C([H])([H])[H])C([H])([H])[H])C(C([H])([H])[H])(C([H])([H])[H])C([H])([H])[H])C([H])([H])c2c([H])c(OC([H])([H])C([H])(C(=O)[O-])N([H])C(=O)c3c(F)c([H])c(N([H])C(=O)N4C([H])([H])C([H])([H])C([H])([H])C([H])(n5nc(-c6c([H])c([H])c(Oc7c([H])c([H])c(F)c([H])c7F)c([H])c6[H])c(C(=O)N([H])[H])c5N([H])[H])C4([H])[H])c([H])c3F)c([H])c([H])c2C1([H])[H]

$$$$
89:0:0
     RDKit          3D

 96105  0  0  1  0  0  0  0  0999 V2000
  -27.6020  -21.4250   17.9640 C   0  0  0  0  0  0  0  0  0  0  0  0
  -26.4580  -22.4000   18.1580 C   0  0  0  0  0  2  0  0  0  0  0  0
  -27.0250  -23.8070   18.2060 C   0  0  0  0  0  2  0  0  0  0  0  0
  -28.8630  -22.6550   19.6450 C   0  0  0  0  0  2  0  0  0  0  0  0
  -27.9410  -23.9820   19.4450 C   0  0  0  0  0  3  0  0  0  0  0  0
  -28.4920  -21.3130   18.9880 N   0  0  0  0  0  0  0  0  0  0  0  0
  -27.6840  -20.8610   16.8710 O   0  0  0  0  0  0  0  0  0  0  0  0
  -29.0620  -18.8350   18.4750 C   0  0  0  0  0  3  0  0  0  0  0  0
  -29.8900  -18.2960   21.0240 C   0  0  0  0  0  3  0  0  0  0  0  0
  -29.4450  -17.4980   18.8250 C   0  0  0  0  0  0  0  0  0  0  0  0
  -29.0430  -19.9620   19.3630 C   0  0  0  0  0  0  0  0  0  0  0  0
  -29.8600  -17.1560   20.1530 C   0  0  0  0  0  0  0  0  0  0  0  0
  -29.5110  -19.6280   20.6640 C   0  0  0  0  0  0  0  0  0  0  0  0
  -29.3080  -16.4650   17.7160 C   0  0  0  0  0  1  0  0  0  0  0  0
  -29.5650  -20.5680   21.6390 F   0  0  0  0  0  0  0  0  0  0  0  0
  -30.7360  -14.7010   20.0070 C   0  0  0  0  0  0  0  0  0  0  0  0
  -30.4020  -12.4730   18.9280 C   0  0  0  0  0  2  0  0  0  0  0  0
  -29.3870  -12.6000   17.7730 C   0  0  0  0  0  2  0  0  0  0  0  0
  -27.9500  -12.4440   18.2940 C   0  0  0  0  0  2  0  0  0  0  0  0
  -27.6640  -13.2920   19.5580 C   0  0  0  0  0  3  0  0  0  0  0  0
  -28.7890  -13.1430   20.6020 C   0  0  0  0  0  2  0  0  0  0  0  0
  -30.0570  -13.4990   19.9410 N   0  0  0  0  0  0  0  0  0  0  0  0
  -31.8350  -14.8210   19.4620 O   0  0  0  0  0  0  0  0  0  0  0  0
  -30.1750  -15.7820   20.6710 N   0  0  0  0  0  0  0  0  0  0  0  0
  -25.3180  -13.8750   20.4240 C   0  0  0  0  0  0  0  0  0  0  0  0
  -24.2750  -13.0950   20.8350 C   0  0  0  0  0  0  0  0  0  0  0  0
  -24.7350  -11.7450   20.7570 C   0  0  0  0  0  0  0  0  0  0  0  0
  -26.3470  -13.0010   20.1190 N   0  0  0  0  0  0  0  0  0  0  0  0
  -26.0080  -11.7120   20.3750 N   0  0  0  0  0  0  0  0  0  0  0  0
  -24.0160  -10.4800   20.9570 C   0  0  0  0  0  0  0  0  0  0  0  0
  -24.4660   -9.5120   21.8800 C   0  0  0  0  0  3  0  0  0  0  0  0
  -23.7500   -8.3100   22.0670 C   0  0  0  0  0  3  0  0  0  0  0  0
  -22.5650   -8.0700   21.3340 C   0  0  0  0  0  0  0  0  0  0  0  0
  -22.1310   -9.0270   20.4000 C   0  0  0  0  0  3  0  0  0  0  0  0
  -22.8500  -10.2200   20.2130 C   0  0  0  0  0  3  0  0  0  0  0  0
  -21.8100   -6.9290   21.4440 O   0  0  0  0  0  0  0  0  0  0  0  0
  -21.7490   -6.2100   22.6090 C   0  0  0  0  0  0  0  0  0  0  0  0
  -21.3100   -6.7900   23.8180 C   0  0  0  0  0  3  0  0  0  0  0  0
  -21.2020   -6.0000   24.9790 C   0  0  0  0  0  3  0  0  0  0  0  0
  -21.5200   -4.6300   24.9340 C   0  0  0  0  0  0  0  0  0  0  0  0
  -21.9450   -4.0480   23.7260 C   0  0  0  0  0  3  0  0  0  0  0  0
  -22.0600   -4.8360   22.5670 C   0  0  0  0  0  0  0  0  0  0  0  0
  -22.4560   -4.2640   21.4070 F   0  0  0  0  0  0  0  0  0  0  0  0
  -21.3970   -3.8690   26.0480 F   0  0  0  0  0  0  0  0  0  0  0  0
  -22.8910  -13.5610   21.1870 C   0  0  0  0  0  0  0  0  0  0  0  0
  -22.2110  -12.8550   22.0820 N   0  0  0  0  0  0  0  0  0  0  0  0
  -22.4250  -14.5920   20.7020 O   0  0  0  0  0  0  0  0  0  0  0  0
  -22.5980  -12.0190   22.4970 H   0  0  0  0  0  0  0  0  0  0  0  0
  -21.2820  -13.1480   22.3520 H   0  0  0  0  0  0  0  0  0  0  0  0
  -25.4840  -15.2480   20.2640 N   0  0  0  0  0  0  0  0  0  0  0  0
  -24.7430  -15.9160   20.4350 H   0  0  0  0  0  0  0  0  0  0  0  0
  -26.3290  -15.6830   19.9150 H   0  0  0  0  0  0  0  0  0  0  0  0
  -31.4780  -15.5590   22.7310 C   0  0  0  0  0  2  0  0  0  0  0  0
  -30.3060  -15.7000   22.0690 C   0  0  0  0  0  3  0  0  0  0  0  0
  -28.6810  -25.4110   19.4050 C   0  0  0  0  0  2  0  0  0  0  0  0
  -28.3800  -26.5930   20.2390 O   0  0  0  0  0  0  0  0  0  0  0  0
  -24.5990  -31.9090   23.2290 C   0  0  0  0  0  0  0  0  0  0  0  0
  -27.2410  -27.4020   20.1470 C   0  0  0  0  0  0  0  0  0  0  0  0
  -23.3960  -30.5040   21.5930 C   0  0  0  0  0  3  0  0  0  0  0  0
  -24.8540  -28.9760   20.1560 C   0  0  0  0  0  0  0  0  0  0  0  0
  -25.9330  -30.8480   21.4050 C   0  0  0  0  0  2  0  0  0  0  0  0
  -26.0190  -29.4820   20.7460 C   0  0  0  0  0  0  0  0  0  0  0  0
  -27.2130  -28.7040   20.7330 C   0  0  0  0  0  3  0  0  0  0  0  0
  -26.0460  -26.9400   19.5730 C   0  0  0  0  0  3  0  0  0  0  0  0
  -24.8670  -27.7070   19.5620 C   0  0  0  0  0  3  0  0  0  0  0  0
  -23.6020  -29.8260   20.2160 C   0  0  0  0  0  2  0  0  0  0  0  0
  -24.6600  -31.1060   22.1290 N   0  0  0  0  0  0  0  0  0  0  0  0
  -23.5170  -32.1800   23.7640 O   0  0  0  0  0  0  0  0  0  0  0  0
  -22.7430  -29.4830   22.5560 C   0  0  0  0  0  0  0  0  0  0  0  0
  -21.4180  -29.3030   22.4310 N   0  0  0  0  0  0  0  0  0  0  0  0
  -23.4280  -28.8560   23.3680 O   0  0  0  0  0  0  0  0  0  0  0  0
  -20.9310  -29.8550   21.7400 H   0  0  0  0  0  0  0  0  0  0  0  0
  -18.0380  -28.1230   22.9460 C   0  0  0  0  0  0  0  0  0  0  0  0
  -20.6000  -28.3660   23.2010 C   0  0  0  0  0  3  0  0  0  0  0  0
  -20.6910  -26.9380   22.6160 C   0  0  0  0  0  2  0  0  0  0  0  0
  -19.5800  -26.6280   21.6070 C   0  0  0  0  0  2  0  0  0  0  0  0
  -18.2030  -26.7760   22.2600 C   0  0  0  0  0  2  0  0  0  0  0  0
  -19.1650  -28.8780   23.3700 C   0  0  0  0  0  0  0  0  0  0  0  0
  -18.9570  -30.1410   23.9670 C   0  0  0  0  0  3  0  0  0  0  0  0
  -17.6570  -30.6480   24.1470 C   0  0  0  0  0  3  0  0  0  0  0  0
  -16.5450  -29.8900   23.7380 C   0  0  0  0  0  3  0  0  0  0  0  0
  -16.7380  -28.6300   23.1450 C   0  0  0  0  0  3  0  0  0  0  0  0
  -25.8810  -32.5440   23.8490 C   0  0  0  0  0  3  0  0  0  0  0  0
  -26.4020  -31.7720   25.1240 C   0  0  1  0  0  0  0  0  0  0  0  0
  -25.3120  -31.5220   26.1920 C   0  0  0  0  0  1  0  0  0  0  0  0
  -26.9930  -30.3970   24.7340 C   0  0  0  0  0  1  0  0  0  0  0  0
  -27.5450  -32.5760   25.7870 C   0  0  0  0  0  1  0  0  0  0  0  0
  -25.5590  -33.9360   24.1800 N   0  0  0  0  0  0  0  0  0  0  0  0
  -25.8860  -34.9950   23.4270 C   0  0  0  0  0  0  0  0  0  0  0  0
  -26.5580  -34.8990   22.3960 O   0  0  0  0  0  0  0  0  0  0  0  0
  -24.9530  -34.0860   24.9760 H   0  0  0  0  0  0  0  0  0  0  0  0
  -24.1390  -36.7750   23.0910 C   0  0  0  0  0  1  0  0  0  0  0  0
  -25.3900  -36.3780   23.8900 C   0  0  0  0  0  3  0  0  0  0  0  0
  -27.5260  -37.2770   24.7040 C   0  0  0  0  0  1  0  0  0  0  0  0
  -26.4140  -37.4410   23.7730 N   0  0  0  0  0  0  0  0  0  0  0  0
  -25.9980  -38.3570   23.9340 H   0  0  0  0  0  0  0  0  0  0  0  0
  1  2  1  0
  1  6  1  0
  2  3  1  0
  3  5  1  0
  5 55  1  0
  5  4  1  0
  6 11  1  0
  6  4  1  0
  7  1  2  0
  8 10  2  0
  8 11  1  0
 10 12  1  0
 11 13  2  0
 12 24  1  0
 12  9  2  0
 13  9  1  0
 13 15  1  0
 14 10  1  0
 16 24  1  0
 17 22  1  0
 18 19  1  0
 18 17  1  0
 20 19  1  0
 20 28  1  0
 20 21  1  0
 22 16  1  0
 22 21  1  0
 23 16  2  0
 24 54  1  0
 25 26  2  0
 26 45  1  0
 27 26  1  0
 27 30  1  0
 28 29  1  0
 28 25  1  0
 29 27  2  0
 30 31  1  0
 31 32  2  0
 33 36  1  0
 33 32  1  0
 34 33  2  0
 35 34  1  0
 35 30  2  0
 36 37  1  0
 37 38  1  0
 38 39  2  0
 40 39  1  0
 40 44  1  0
 41 40  2  0
 42 37  2  0
 42 41  1  0
 43 42  1  0
 45 46  1  0
 46 49  1  0
 46 48  1  0
 47 45  2  0
 50 25  1  0
 50 51  1  0
 52 50  1  0
 54 53  2  0
 55 56  1  0
 57 68  2  0
 58 56  1  0
 58 63  1  0
 59 67  1  0
 59 69  1  0
 60 66  1  0
 60 62  1  0
 61 67  1  0
 62 61  1  0
 63 62  2  0
 64 58  2  0
 65 64  1  0
 65 60  2  0
 66 59  1  0
 67 57  1  0
 69 71  2  0
 70 69  1  0
 72 70  1  0
 73 82  2  0
 73 78  1  0
 74 70  1  0
 74 78  1  0
 75 74  1  0
 76 77  1  0
 76 75  1  0
 77 73  1  0
 78 79  2  0
 79 80  1  0
 81 80  2  0
 82 81  1  0
 83 57  1  0
 83 88  1  0
 83 84  1  0
 84 87  1  1
 84 85  1  0
 86 84  1  0
 88 91  1  0
 89 93  1  0
 89 88  1  0
 90 89  2  0
 93 92  1  0
 95 93  1  0
 95 96  1  0
 95 94  1  0
M  ISO  4  16 100  24 100  55 101  56 101
M  END
>  <TORSDO>  (89) 
F 19

>  <SCORE>  (89) 
-11.606

>  <name>  (89) 
89

>  <ligand_id>  (89) 
89

>  <original_smiles>  (89) 
[H]C([H])=C([H])N(C(=O)N1C([H])([H])C([H])([H])C([H])([H])C([H])(n2nc(-c3c([H])c([H])c(Oc4c([H])c([H])c(F)c([H])c4F)c([H])c3[H])c(C(=O)N([H])[H])c2N([H])[H])C1([H])[H])c1c([H])c(F)c(N2C(=O)C([H])([H])C([H])([H])C([H])(C([H])([H])Oc3c([H])c([H])c4c(c3[H])C([H])([H])N(C(=O)C([H])(N([H])C(=O)C([H])(N([H])C([H])([H])[H])C([H])([H])[H])C(C([H])([H])[H])(C([H])([H])[H])C([H])([H])[H])C([H])(C(=O)N([H])C3([H])c5c([H])c([H])c([H])c([H])c5C([H])([H])C([H])([H])C3([H])[H])C4([H])[H])C2([H])[H])c([H])c1C([H])([H])[H]

>  <smiles>  (89) 
[H]C([H])=C([H])N(C(=O)N1C([H])([H])C([H])([H])C([H])([H])C([H])(n2nc(-c3c([H])c([H])c(Oc4c([H])c([H])c(F)c([H])c4F)c([H])c3[H])c(C(=O)N([H])[H])c2N([H])[H])C1([H])[H])c1c([H])c(F)c(N2C(=O)C([H])([H])C([H])([H])C([H])(C([H])([H])Oc3c([H])c([H])c4c(c3[H])C([H])([H])N(C(=O)C([H])(N([H])C(=O)C([H])(N([H])C([H])([H])[H])C([H])([H])[H])C(C([H])([H])[H])(C([H])([H])[H])C([H])([H])[H])C([H])(C(=O)N([H])C3([H])c5c([H])c([H])c([H])c([H])c5C([H])([H])C([H])([H])C3([H])[H])C4([H])[H])C2([H])[H])c([H])c1C([H])([H])[H]

$$$$
90:0:0
     RDKit          3D

 92101  0  0  1  0  0  0  0  0999 V2000
  -28.1570  -19.3360   20.0260 C   0  0  0  0  0  0  0  0  0  0  0  0
  -27.6520  -20.8270   20.0890 C   0  0  0  0  0  2  0  0  0  0  0  0
  -29.9840  -20.6730   20.0090 C   0  0  0  0  0  2  0  0  0  0  0  0
  -28.8160  -21.7720   19.6850 C   0  0  0  0  0  3  0  0  0  0  0  0
  -29.5030  -19.2000   19.9950 N   0  0  0  0  0  0  0  0  0  0  0  0
  -27.3600  -18.3930   20.0050 O   0  0  0  0  0  0  0  0  0  0  0  0
  -31.6250  -18.3020   20.6440 C   0  0  0  0  0  2  0  0  0  0  0  0
  -31.9780  -17.8530   21.9310 C   0  0  0  0  0  3  0  0  0  0  0  0
  -30.0510  -16.3570   21.9250 C   0  0  0  0  0  2  0  0  0  0  0  0
  -30.0100  -16.4850   20.5160 C   0  0  0  0  0  3  0  0  0  0  0  0
  -30.3610  -17.9130   20.1450 C   0  0  0  0  0  3  0  0  0  0  0  0
  -31.1160  -16.9740   22.6140 C   0  0  0  0  0  0  0  0  0  0  0  0
  -31.3610  -16.6520   23.9060 F   0  0  0  0  0  0  0  0  0  0  0  0
  -30.6000  -15.1290   19.8540 C   0  0  0  0  0  0  0  0  0  0  0  0
  -30.3710  -12.8060   18.8290 C   0  0  0  0  0  2  0  0  0  0  0  0
  -29.3640  -12.8210   17.6520 C   0  0  0  0  0  2  0  0  0  0  0  0
  -27.9270  -12.6050   18.1590 C   0  0  0  0  0  2  0  0  0  0  0  0
  -27.6120  -13.4840   19.3960 C   0  0  0  0  0  3  0  0  0  0  0  0
  -28.7330  -13.4260   20.4500 C   0  0  0  0  0  2  0  0  0  0  0  0
  -29.9800  -13.8700   19.8080 N   0  0  0  0  0  0  0  0  0  0  0  0
  -31.7160  -15.1910   19.3220 O   0  0  0  0  0  0  0  0  0  0  0  0
  -25.2890  -14.0620   20.2990 C   0  0  0  0  0  0  0  0  0  0  0  0
  -24.2470  -13.2860   20.7280 C   0  0  0  0  0  0  0  0  0  0  0  0
  -24.7010  -11.9340   20.6460 C   0  0  0  0  0  0  0  0  0  0  0  0
  -26.3080  -13.1820   19.9740 N   0  0  0  0  0  0  0  0  0  0  0  0
  -25.9680  -11.8950   20.2490 N   0  0  0  0  0  0  0  0  0  0  0  0
  -23.9800  -10.6730   20.8690 C   0  0  0  0  0  0  0  0  0  0  0  0
  -24.4380   -9.7130   21.7990 C   0  0  0  0  0  3  0  0  0  0  0  0
  -23.7180   -8.5170   22.0090 C   0  0  0  0  0  3  0  0  0  0  0  0
  -22.5240   -8.2730   21.2900 C   0  0  0  0  0  0  0  0  0  0  0  0
  -22.0840   -9.2210   20.3500 C   0  0  0  0  0  3  0  0  0  0  0  0
  -22.8050  -10.4070   20.1380 C   0  0  0  0  0  3  0  0  0  0  0  0
  -21.7730   -7.1290   21.4080 O   0  0  0  0  0  0  0  0  0  0  0  0
  -21.7090   -6.4270   22.5860 C   0  0  0  0  0  0  0  0  0  0  0  0
  -21.2810   -7.0290   23.7890 C   0  0  0  0  0  3  0  0  0  0  0  0
  -21.1640   -6.2540   24.9600 C   0  0  0  0  0  3  0  0  0  0  0  0
  -21.4660   -4.8790   24.9290 C   0  0  0  0  0  0  0  0  0  0  0  0
  -21.8870   -4.2780   23.7300 C   0  0  0  0  0  3  0  0  0  0  0  0
  -22.0050   -5.0490   22.5610 C   0  0  0  0  0  0  0  0  0  0  0  0
  -22.3920   -4.4600   21.4040 F   0  0  0  0  0  0  0  0  0  0  0  0
  -21.3460   -4.1330   26.0520 F   0  0  0  0  0  0  0  0  0  0  0  0
  -22.8740  -13.7660   21.0980 C   0  0  0  0  0  0  0  0  0  0  0  0
  -22.2080  -13.0710   22.0120 N   0  0  0  0  0  0  0  0  0  0  0  0
  -22.4030  -14.7930   20.6100 O   0  0  0  0  0  0  0  0  0  0  0  0
  -22.6040  -12.2410   22.4280 H   0  0  0  0  0  0  0  0  0  0  0  0
  -21.2890  -13.3740   22.3010 H   0  0  0  0  0  0  0  0  0  0  0  0
  -25.4470  -15.4350   20.1380 N   0  0  0  0  0  0  0  0  0  0  0  0
  -24.6980  -16.0900   20.3260 H   0  0  0  0  0  0  0  0  0  0  0  0
  -26.2890  -15.8910   19.8040 H   0  0  0  0  0  0  0  0  0  0  0  0
  -28.8620  -23.4100   20.1700 C   0  0  0  0  0  3  0  0  0  0  0  0
  -27.8930  -24.7160   19.6840 C   0  0  0  0  0  3  0  0  0  0  0  0
  -28.1120  -26.2450   19.9540 O   0  0  0  0  0  0  0  0  0  0  0  0
  -24.5970  -31.9010   23.1300 C   0  0  0  0  0  0  0  0  0  0  0  0
  -27.0560  -27.2330   19.9200 C   0  0  0  0  0  0  0  0  0  0  0  0
  -23.3350  -30.5340   21.5130 C   0  0  0  0  0  3  0  0  0  0  0  0
  -24.7280  -28.9860   20.0030 C   0  0  0  0  0  0  0  0  0  0  0  0
  -25.8820  -30.8000   21.2580 C   0  0  0  0  0  2  0  0  0  0  0  0
  -25.9280  -29.4190   20.5780 C   0  0  0  0  0  0  0  0  0  0  0  0
  -27.0900  -28.5590   20.5200 C   0  0  0  0  0  3  0  0  0  0  0  0
  -25.8280  -26.9100   19.2980 C   0  0  0  0  0  3  0  0  0  0  0  0
  -24.6910  -27.7450   19.3470 C   0  0  0  0  0  3  0  0  0  0  0  0
  -23.5030  -29.8820   20.1150 C   0  0  0  0  0  2  0  0  0  0  0  0
  -24.6270  -31.1000   22.0210 N   0  0  0  0  0  0  0  0  0  0  0  0
  -23.5330  -32.1740   23.7040 O   0  0  0  0  0  0  0  0  0  0  0  0
  -22.6920  -29.5110   22.4830 C   0  0  0  0  0  0  0  0  0  0  0  0
  -21.3630  -29.3280   22.3890 N   0  0  0  0  0  0  0  0  0  0  0  0
  -23.3920  -28.8840   23.2830 O   0  0  0  0  0  0  0  0  0  0  0  0
  -20.8540  -29.8850   21.7160 H   0  0  0  0  0  0  0  0  0  0  0  0
  -18.0140  -28.0590   22.9400 C   0  0  0  0  0  0  0  0  0  0  0  0
  -20.5720  -28.3750   23.1720 C   0  0  0  0  0  3  0  0  0  0  0  0
  -20.6950  -26.9450   22.5980 C   0  0  0  0  0  2  0  0  0  0  0  0
  -19.5860  -26.5970   21.5990 C   0  0  0  0  0  2  0  0  0  0  0  0
  -18.2100  -26.7140   22.2610 C   0  0  0  0  0  2  0  0  0  0  0  0
  -19.1230  -28.8460   23.3540 C   0  0  0  0  0  0  0  0  0  0  0  0
  -18.8830  -30.1020   23.9520 C   0  0  0  0  0  3  0  0  0  0  0  0
  -17.5710  -30.5740   24.1370 C   0  0  0  0  0  3  0  0  0  0  0  0
  -16.4780  -29.7850   23.7390 C   0  0  0  0  0  3  0  0  0  0  0  0
  -16.7010  -28.5290   23.1470 C   0  0  0  0  0  3  0  0  0  0  0  0
  -25.8990  -32.5260   23.7200 C   0  0  0  0  0  3  0  0  0  0  0  0
  -26.4530  -31.7370   24.9700 C   0  0  1  0  0  0  0  0  0  0  0  0
  -25.3950  -31.4920   26.0720 C   0  0  0  0  0  1  0  0  0  0  0  0
  -27.0150  -30.3600   24.5480 C   0  0  0  0  0  1  0  0  0  0  0  0
  -27.6300  -32.5180   25.6010 C   0  0  0  0  0  1  0  0  0  0  0  0
  -25.6000  -33.9190   24.0870 N   0  0  0  0  0  0  0  0  0  0  0  0
  -25.9150  -34.9900   23.3450 C   0  0  0  0  0  0  0  0  0  0  0  0
  -26.5550  -34.9070   22.2930 O   0  0  0  0  0  0  0  0  0  0  0  0
  -25.0300  -34.0570   24.9070 H   0  0  0  0  0  0  0  0  0  0  0  0
  -24.1900  -36.8040   23.0820 C   0  0  0  0  0  1  0  0  0  0  0  0
  -25.4500  -36.3700   23.8490 C   0  0  0  0  0  3  0  0  0  0  0  0
  -27.6120  -37.2250   24.6410 C   0  0  0  0  0  1  0  0  0  0  0  0
  -26.4860  -37.4210   23.7320 N   0  0  0  0  0  0  0  0  0  0  0  0
  -26.0890  -38.3400   23.9100 H   0  0  0  0  0  0  0  0  0  0  0  0
  1  2  1  0
  4  3  1  0
  4  2  1  0
  4 50  1  0
  5  3  1  0
  5  1  1  0
  6  1  2  0
  7  8  1  0
  8 12  2  0
  9 12  1  0
 10 14  1  0
 10  9  1  0
 11  5  1  0
 11 10  1  0
 11  7  1  0
 12 13  1  0
 15 20  1  0
 16 17  1  0
 16 15  1  0
 18 17  1  0
 18 25  1  0
 18 19  1  0
 20 14  1  0
 20 19  1  0
 21 14  2  0
 22 23  2  0
 23 42  1  0
 24 23  1  0
 24 27  1  0
 25 26  1  0
 25 22  1  0
 26 24  2  0
 27 28  1  0
 28 29  2  0
 30 33  1  0
 30 29  1  0
 31 30  2  0
 32 31  1  0
 32 27  2  0
 33 34  1  0
 34 35  1  0
 35 36  2  0
 37 36  1  0
 37 41  1  0
 38 37  2  0
 39 34  2  0
 39 38  1  0
 40 39  1  0
 42 43  1  0
 43 46  1  0
 43 45  1  0
 44 42  2  0
 47 22  1  0
 47 48  1  0
 49 47  1  0
 51 52  1  0
 51 50  2  0
 53 64  2  0
 54 52  1  0
 54 59  1  0
 55 63  1  0
 55 65  1  0
 56 62  1  0
 56 58  1  0
 57 63  1  0
 58 57  1  0
 59 58  2  0
 60 61  1  0
 60 54  2  0
 61 56  2  0
 62 55  1  0
 63 53  1  0
 65 67  2  0
 66 65  1  0
 68 66  1  0
 69 78  2  0
 69 74  1  0
 70 66  1  0
 70 74  1  0
 71 70  1  0
 72 73  1  0
 72 71  1  0
 73 69  1  0
 74 75  2  0
 75 76  1  0
 77 76  2  0
 78 77  1  0
 79 53  1  0
 79 84  1  0
 79 80  1  0
 80 83  1  1
 80 81  1  0
 82 80  1  0
 84 87  1  0
 85 89  1  0
 85 84  1  0
 86 85  2  0
 89 88  1  0
 91 89  1  0
 91 92  1  0
 91 90  1  0
M  ISO  4  10 100  14 100  51 101  52 101
M  END
>  <TORSDO>  (90) 
F 19

>  <SCORE>  (90) 
-13.492

>  <name>  (90) 
90

>  <ligand_id>  (90) 
90

>  <original_smiles>  (90) 
[H]c1c([H])c([H])c2c(c1[H])C([H])([H])C([H])([H])C([H])([H])C2([H])N([H])C(=O)C1([H])N(C(=O)C([H])(N([H])C(=O)C([H])(N([H])C([H])([H])[H])C([H])([H])[H])C(C([H])([H])[H])(C([H])([H])[H])C([H])([H])[H])C([H])([H])c2c([H])c(OC([H])([H])C([H])([H])C3([H])C([H])([H])C(=O)N(c4c([H])c([H])c(F)c([H])c4C(=O)N4C([H])([H])C([H])([H])C([H])([H])C([H])(n5nc(-c6c([H])c([H])c(Oc7c([H])c([H])c(F)c([H])c7F)c([H])c6[H])c(C(=O)N([H])[H])c5N([H])[H])C4([H])[H])C3([H])[H])c([H])c([H])c2C1([H])[H]

>  <smiles>  (90) 
[H]c1c([H])c([H])c2c(c1[H])C([H])([H])C([H])([H])C([H])([H])C2([H])N([H])C(=O)C1([H])N(C(=O)C([H])(N([H])C(=O)C([H])(N([H])C([H])([H])[H])C([H])([H])[H])C(C([H])([H])[H])(C([H])([H])[H])C([H])([H])[H])C([H])([H])c2c([H])c(OC([H])([H])C([H])([H])C3([H])C([H])([H])C(=O)N(c4c([H])c([H])c(F)c([H])c4C(=O)N4C([H])([H])C([H])([H])C([H])([H])C([H])(n5nc(-c6c([H])c([H])c(Oc7c([H])c([H])c(F)c([H])c7F)c([H])c6[H])c(C(=O)N([H])[H])c5N([H])[H])C4([H])[H])C3([H])[H])c([H])c([H])c2C1([H])[H]

$$$$
91:0:0
     RDKit          3D

 95103  0  0  1  0  0  0  0  0999 V2000
  -31.5640  -19.4050   21.3350 C   0  0  0  0  0  3  0  0  0  0  0  0
  -31.1940  -18.0940   20.9780 C   0  0  0  0  0  3  0  0  0  0  0  0
  -29.0970  -19.0350   20.2350 C   0  0  0  0  0  3  0  0  0  0  0  0
  -30.7370  -20.5560   21.2010 C   0  0  0  0  0  0  0  0  0  0  0  0
  -29.9280  -17.7890   20.4520 C   0  0  0  0  0  0  0  0  0  0  0  0
  -29.4550  -20.4780   20.5530 C   0  0  0  0  0  0  0  0  0  0  0  0
  -30.3750  -15.0590   20.1100 C   0  0  0  0  0  0  0  0  0  0  0  0
  -30.2460  -12.7140   19.0990 C   0  0  0  0  0  2  0  0  0  0  0  0
  -29.2590  -12.6490   17.9100 C   0  0  0  0  0  2  0  0  0  0  0  0
  -27.8250  -12.3900   18.4090 C   0  0  0  0  0  2  0  0  0  0  0  0
  -27.4520  -13.2840   19.6190 C   0  0  0  0  0  3  0  0  0  0  0  0
  -28.5600  -13.3170   20.6930 C   0  0  0  0  0  2  0  0  0  0  0  0
  -29.7800  -13.7920   20.0260 N   0  0  0  0  0  0  0  0  0  0  0  0
  -31.5780  -15.0970   19.8210 O   0  0  0  0  0  0  0  0  0  0  0  0
  -29.6010  -16.2730   20.2600 N   0  0  0  0  0  0  0  0  0  0  0  0
  -28.6130  -16.0740   20.2820 H   0  0  0  0  0  0  0  0  0  0  0  0
  -25.1010  -13.7990   20.4820 C   0  0  0  0  0  0  0  0  0  0  0  0
  -24.0680  -12.9970   20.8800 C   0  0  0  0  0  0  0  0  0  0  0  0
  -24.5550  -11.6570   20.8010 C   0  0  0  0  0  0  0  0  0  0  0  0
  -26.1480  -12.9460   20.1760 N   0  0  0  0  0  0  0  0  0  0  0  0
  -25.8320  -11.6500   20.4350 N   0  0  0  0  0  0  0  0  0  0  0  0
  -23.8570  -10.3780   20.9940 C   0  0  0  0  0  0  0  0  0  0  0  0
  -24.3260   -9.4100   21.9090 C   0  0  0  0  0  3  0  0  0  0  0  0
  -23.6250   -8.1980   22.0920 C   0  0  0  0  0  3  0  0  0  0  0  0
  -22.4410   -7.9460   21.3580 C   0  0  0  0  0  0  0  0  0  0  0  0
  -21.9910   -8.9020   20.4320 C   0  0  0  0  0  3  0  0  0  0  0  0
  -22.6930  -10.1050   20.2470 C   0  0  0  0  0  3  0  0  0  0  0  0
  -21.7090   -6.7870   21.4510 O   0  0  0  0  0  0  0  0  0  0  0  0
  -21.6770   -6.0460   22.6060 C   0  0  0  0  0  0  0  0  0  0  0  0
  -21.1910   -6.5770   23.8190 C   0  0  0  0  0  3  0  0  0  0  0  0
  -21.1120   -5.7600   24.9640 C   0  0  0  0  0  3  0  0  0  0  0  0
  -21.5090   -4.4120   24.8970 C   0  0  0  0  0  0  0  0  0  0  0  0
  -21.9890   -3.8780   23.6880 C   0  0  0  0  0  3  0  0  0  0  0  0
  -22.0700   -4.6930   22.5440 C   0  0  0  0  0  0  0  0  0  0  0  0
  -22.5130   -4.1690   21.3760 F   0  0  0  0  0  0  0  0  0  0  0  0
  -21.4260   -3.6240   25.9950 F   0  0  0  0  0  0  0  0  0  0  0  0
  -22.6760  -13.4450   21.2170 C   0  0  0  0  0  0  0  0  0  0  0  0
  -21.9990  -12.7250   22.1030 N   0  0  0  0  0  0  0  0  0  0  0  0
  -22.1990  -14.4690   20.7280 O   0  0  0  0  0  0  0  0  0  0  0  0
  -22.3990  -11.8970   22.5180 H   0  0  0  0  0  0  0  0  0  0  0  0
  -21.0660  -13.0060   22.3710 H   0  0  0  0  0  0  0  0  0  0  0  0
  -25.2310  -15.1760   20.3240 N   0  0  0  0  0  0  0  0  0  0  0  0
  -24.4510  -15.8080   20.4730 H   0  0  0  0  0  0  0  0  0  0  0  0
  -26.0410  -15.6370   19.9330 H   0  0  0  0  0  0  0  0  0  0  0  0
  -28.8640  -23.1980   20.1730 C   0  0  0  0  0  0  0  0  0  0  0  0
  -27.1250  -21.5080   20.3860 C   0  0  0  0  0  1  0  0  0  0  0  0
  -28.5640  -21.7790   20.3740 N   0  0  0  0  0  0  0  0  0  0  0  0
  -30.0100  -23.5210   19.8510 O   0  0  0  0  0  0  0  0  0  0  0  0
  -27.7800  -24.4970   20.2280 C   0  0  0  0  0  2  0  0  0  0  0  0
  -28.1530  -26.0460   20.2170 O   0  0  0  0  0  0  0  0  0  0  0  0
  -24.6370  -31.8560   23.2780 C   0  0  0  0  0  0  0  0  0  0  0  0
  -27.1310  -27.0900   20.1880 C   0  0  0  0  0  0  0  0  0  0  0  0
  -23.4150  -30.4930   21.6320 C   0  0  0  0  0  3  0  0  0  0  0  0
  -24.8350  -28.9100   20.1840 C   0  0  0  0  0  0  0  0  0  0  0  0
  -25.9760  -30.7130   21.4610 C   0  0  0  0  0  2  0  0  0  0  0  0
  -26.0280  -29.3200   20.7940 C   0  0  0  0  0  0  0  0  0  0  0  0
  -27.1760  -28.4290   20.7760 C   0  0  0  0  0  3  0  0  0  0  0  0
  -25.9100  -26.8050   19.5340 C   0  0  0  0  0  3  0  0  0  0  0  0
  -24.7930  -27.6680   19.5380 C   0  0  0  0  0  3  0  0  0  0  0  0
  -23.6230  -29.8300   20.2460 C   0  0  0  0  0  2  0  0  0  0  0  0
  -24.6970  -31.0440   22.1780 N   0  0  0  0  0  0  0  0  0  0  0  0
  -23.5560  -32.1480   23.8140 O   0  0  0  0  0  0  0  0  0  0  0  0
  -22.7240  -29.4860   22.5880 C   0  0  0  0  0  0  0  0  0  0  0  0
  -21.3950  -29.3230   22.4570 N   0  0  0  0  0  0  0  0  0  0  0  0
  -23.3890  -28.8540   23.4130 O   0  0  0  0  0  0  0  0  0  0  0  0
  -20.9140  -29.8830   21.7670 H   0  0  0  0  0  0  0  0  0  0  0  0
  -18.0080  -28.1290   22.9470 C   0  0  0  0  0  0  0  0  0  0  0  0
  -20.5660  -28.3850   23.2220 C   0  0  0  0  0  3  0  0  0  0  0  0
  -20.6660  -26.9550   22.6420 C   0  0  0  0  0  2  0  0  0  0  0  0
  -19.5660  -26.6380   21.6240 C   0  0  0  0  0  2  0  0  0  0  0  0
  -18.1820  -26.7840   22.2630 C   0  0  0  0  0  2  0  0  0  0  0  0
  -19.1270  -28.8890   23.3820 C   0  0  0  0  0  0  0  0  0  0  0  0
  -18.9070  -30.1470   23.9830 C   0  0  0  0  0  3  0  0  0  0  0  0
  -17.6020  -30.6470   24.1510 C   0  0  0  0  0  3  0  0  0  0  0  0
  -16.4970  -29.8860   23.7290 C   0  0  0  0  0  3  0  0  0  0  0  0
  -16.7010  -28.6290   23.1340 C   0  0  0  0  0  3  0  0  0  0  0  0
  -25.9230  -32.4730   23.9070 C   0  0  0  0  0  3  0  0  0  0  0  0
  -26.4180  -31.6980   25.1900 C   0  0  1  0  0  0  0  0  0  0  0  0
  -25.3140  -31.4820   26.2520 C   0  0  0  0  0  1  0  0  0  0  0  0
  -26.9820  -30.3090   24.8120 C   0  0  0  0  0  1  0  0  0  0  0  0
  -27.5770  -32.4760   25.8560 C   0  0  0  0  0  1  0  0  0  0  0  0
  -25.6320  -33.8770   24.2390 N   0  0  0  0  0  0  0  0  0  0  0  0
  -25.9440  -34.9270   23.4690 C   0  0  0  0  0  0  0  0  0  0  0  0
  -26.5700  -34.8150   22.4120 O   0  0  0  0  0  0  0  0  0  0  0  0
  -25.0700  -34.0380   25.0630 H   0  0  0  0  0  0  0  0  0  0  0  0
  -24.2050  -36.7290   23.1980 C   0  0  0  0  0  1  0  0  0  0  0  0
  -25.4870  -36.3230   23.9420 C   0  0  0  0  0  3  0  0  0  0  0  0
  -27.6620  -37.2150   24.6540 C   0  0  0  0  0  1  0  0  0  0  0  0
  -26.5170  -37.3710   23.7620 N   0  0  0  0  0  0  0  0  0  0  0  0
  -26.1200  -38.2940   23.9150 H   0  0  0  0  0  0  0  0  0  0  0  0
  -31.2870  -21.7470   21.8990 C   0  0  0  0  0  0  0  0  0  0  0  0
  -30.6770  -22.3310   23.3340 S   0  0  0  0  0  0  0  0  0  0  0  0
  -32.3950  -22.2620   21.3390 N   0  0  0  0  0  0  0  0  0  0  0  0
  -32.7410  -21.8700   20.4740 H   0  0  0  0  0  0  0  0  0  0  0  0
  -32.8400  -23.0650   21.7600 H   0  0  0  0  0  0  0  0  0  0  0  0
  2  1  2  0
  3  5  2  0
  3  6  1  0
  4  1  1  0
  4 91  1  0
  5  2  1  0
  6  4  2  0
  7 15  1  0
  8 13  1  0
  9 10  1  0
  9  8  1  0
 11 10  1  0
 11 20  1  0
 11 12  1  0
 13  7  1  0
 13 12  1  0
 14  7  2  0
 15 16  1  0
 15  5  1  0
 17 18  2  0
 18 37  1  0
 19 18  1  0
 19 22  1  0
 20 21  1  0
 20 17  1  0
 21 19  2  0
 22 23  1  0
 23 24  2  0
 25 28  1  0
 25 24  1  0
 26 25  2  0
 27 26  1  0
 27 22  2  0
 28 29  1  0
 29 30  1  0
 30 31  2  0
 32 31  1  0
 32 36  1  0
 33 32  2  0
 34 29  2  0
 34 33  1  0
 35 34  1  0
 37 38  1  0
 38 41  1  0
 38 40  1  0
 39 37  2  0
 42 43  1  0
 42 17  1  0
 44 42  1  0
 45 49  1  0
 45 47  1  0
 47 46  1  0
 47  6  1  0
 48 45  2  0
 50 49  1  0
 51 62  2  0
 52 50  1  0
 52 57  1  0
 53 61  1  0
 53 63  1  0
 54 60  1  0
 54 56  1  0
 55 61  1  0
 56 55  1  0
 57 56  2  0
 58 59  1  0
 58 52  2  0
 59 54  2  0
 60 53  1  0
 61 51  1  0
 63 65  2  0
 64 63  1  0
 66 64  1  0
 67 76  2  0
 67 72  1  0
 68 64  1  0
 68 72  1  0
 69 68  1  0
 70 71  1  0
 70 69  1  0
 71 67  1  0
 72 73  2  0
 73 74  1  0
 75 74  2  0
 76 75  1  0
 77 51  1  0
 77 82  1  0
 77 78  1  0
 78 81  1  1
 78 79  1  0
 80 78  1  0
 82 85  1  0
 83 87  1  0
 83 82  1  0
 84 83  2  0
 87 86  1  0
 89 90  1  0
 89 87  1  0
 89 88  1  0
 91 92  2  0
 93 95  1  0
 93 91  1  0
 94 93  1  0
M  ISO  4   7 100  15 100  49 101  50 101
M  END
>  <TORSDO>  (91) 
F 20

>  <SCORE>  (91) 
-13.792

>  <name>  (91) 
91

>  <ligand_id>  (91) 
91

>  <original_smiles>  (91) 
[H]c1c([H])c([H])c2c(c1[H])C([H])([H])C([H])([H])C([H])([H])C2([H])N([H])C(=O)C1([H])N(C(=O)C([H])(N([H])C(=O)C([H])(N([H])C([H])([H])[H])C([H])([H])[H])C(C([H])([H])[H])(C([H])([H])[H])C([H])([H])[H])C([H])([H])c2c([H])c(OC([H])([H])C(=O)N(c3c([H])c(N([H])C(=O)N4C([H])([H])C([H])([H])C([H])([H])C([H])(n5nc(-c6c([H])c([H])c(Oc7c([H])c([H])c(F)c([H])c7F)c([H])c6[H])c(C(=O)N([H])[H])c5N([H])[H])C4([H])[H])c([H])c([H])c3C(=S)N([H])[H])C([H])([H])[H])c([H])c([H])c2C1([H])[H]

>  <smiles>  (91) 
[H]c1c([H])c([H])c2c(c1[H])C([H])([H])C([H])([H])C([H])([H])C2([H])N([H])C(=O)C1([H])N(C(=O)C([H])(N([H])C(=O)C([H])(N([H])C([H])([H])[H])C([H])([H])[H])C(C([H])([H])[H])(C([H])([H])[H])C([H])([H])[H])C([H])([H])c2c([H])c(OC([H])([H])C(=O)N(c3c([H])c(N([H])C(=O)N4C([H])([H])C([H])([H])C([H])([H])C([H])(n5nc(-c6c([H])c([H])c(Oc7c([H])c([H])c(F)c([H])c7F)c([H])c6[H])c(C(=O)N([H])[H])c5N([H])[H])C4([H])[H])c([H])c([H])c3C(=S)N([H])[H])C([H])([H])[H])c([H])c([H])c2C1([H])[H]

$$$$
92:0:0
     RDKit          3D

 95104  0  0  1  0  0  0  0  0999 V2000
  -29.3040  -22.8170   19.3420 C   0  0  0  0  0  0  0  0  0  0  0  0
  -29.2960  -23.0580   21.3500 C   0  0  0  0  0  0  0  0  0  0  0  0
  -29.4270  -24.1190   20.2040 C   0  0  0  0  0  3  0  0  0  0  0  0
  -29.5350  -21.9770   20.4590 N   0  0  0  0  0  0  0  0  0  0  0  0
  -29.1050  -22.5530   18.1720 O   0  0  0  0  0  0  0  0  0  0  0  0
  -29.0890  -23.0740   22.5480 O   0  0  0  0  0  0  0  0  0  0  0  0
  -30.0190  -19.8600   21.8570 C   0  0  0  0  0  3  0  0  0  0  0  0
  -30.1840  -18.4460   22.0130 C   0  0  0  0  0  3  0  0  0  0  0  0
  -29.6330  -19.5650   19.5560 C   0  0  0  0  0  3  0  0  0  0  0  0
  -29.7570  -18.1330   19.6760 C   0  0  0  0  0  0  0  0  0  0  0  0
  -29.7230  -20.5120   20.6230 C   0  0  0  0  0  0  0  0  0  0  0  0
  -30.0650  -17.5220   20.9400 C   0  0  0  0  0  0  0  0  0  0  0  0
  -30.8700  -15.0190   21.0160 C   0  0  0  0  0  0  0  0  0  0  0  0
  -30.8470  -12.6980   20.0980 C   0  0  0  0  0  2  0  0  0  0  0  0
  -30.0290  -12.6960   18.7860 C   0  0  0  0  0  2  0  0  0  0  0  0
  -28.5240  -12.5210   19.0690 C   0  0  0  0  0  2  0  0  0  0  0  0
  -28.0150  -13.4520   20.2020 C   0  0  0  0  0  3  0  0  0  0  0  0
  -28.9550  -13.4090   21.4290 C   0  0  0  0  0  2  0  0  0  0  0  0
  -30.3060  -13.7660   20.9670 N   0  0  0  0  0  0  0  0  0  0  0  0
  -32.0640  -15.1860   20.7460 O   0  0  0  0  0  0  0  0  0  0  0  0
  -30.0070  -16.0720   21.2370 N   0  0  0  0  0  0  0  0  0  0  0  0
  -29.1040  -15.7560   21.5570 H   0  0  0  0  0  0  0  0  0  0  0  0
  -25.5600  -14.0310   20.6800 C   0  0  0  0  0  0  0  0  0  0  0  0
  -24.4690  -13.2510   20.9590 C   0  0  0  0  0  0  0  0  0  0  0  0
  -24.9470  -11.9040   20.9950 C   0  0  0  0  0  0  0  0  0  0  0  0
  -26.6310  -13.1610   20.5610 N   0  0  0  0  0  0  0  0  0  0  0  0
  -26.2610  -11.8770   20.8120 N   0  0  0  0  0  0  0  0  0  0  0  0
  -24.2190  -10.6360   21.1370 C   0  0  0  0  0  0  0  0  0  0  0  0
  -24.5650   -9.6910   22.1260 C   0  0  0  0  0  3  0  0  0  0  0  0
  -23.8380   -8.4890   22.2540 C   0  0  0  0  0  3  0  0  0  0  0  0
  -22.7490   -8.2220   21.3890 C   0  0  0  0  0  0  0  0  0  0  0  0
  -22.4220   -9.1570   20.3910 C   0  0  0  0  0  3  0  0  0  0  0  0
  -23.1510  -10.3510   20.2620 C   0  0  0  0  0  3  0  0  0  0  0  0
  -22.0020   -7.0690   21.4230 O   0  0  0  0  0  0  0  0  0  0  0  0
  -21.8170   -6.3660   22.5860 C   0  0  0  0  0  0  0  0  0  0  0  0
  -21.2130   -6.9490   23.7210 C   0  0  0  0  0  3  0  0  0  0  0  0
  -20.9780   -6.1690   24.8710 C   0  0  0  0  0  3  0  0  0  0  0  0
  -21.3360   -4.8070   24.8860 C   0  0  0  0  0  0  0  0  0  0  0  0
  -21.9320   -4.2250   23.7540 C   0  0  0  0  0  3  0  0  0  0  0  0
  -22.1690   -5.0010   22.6060 C   0  0  0  0  0  0  0  0  0  0  0  0
  -22.7240   -4.4290   21.5110 F   0  0  0  0  0  0  0  0  0  0  0  0
  -21.1030   -4.0570   25.9880 F   0  0  0  0  0  0  0  0  0  0  0  0
  -23.0470  -13.7160   21.0890 C   0  0  0  0  0  0  0  0  0  0  0  0
  -22.2500  -13.0330   21.9020 N   0  0  0  0  0  0  0  0  0  0  0  0
  -22.6480  -14.7230   20.5040 O   0  0  0  0  0  0  0  0  0  0  0  0
  -22.5830  -12.2190   22.3970 H   0  0  0  0  0  0  0  0  0  0  0  0
  -21.2920  -13.3280   22.0320 H   0  0  0  0  0  0  0  0  0  0  0  0
  -25.7260  -15.4000   20.4970 N   0  0  0  0  0  0  0  0  0  0  0  0
  -24.9420  -16.0440   20.5240 H   0  0  0  0  0  0  0  0  0  0  0  0
  -26.5950  -15.8470   20.2390 H   0  0  0  0  0  0  0  0  0  0  0  0
  -29.5470  -17.3280   18.4320 C   0  0  0  0  0  0  0  0  0  0  0  0
  -28.6040  -17.8980   17.3790 C   0  0  0  0  0  1  0  0  0  0  0  0
  -30.0610  -16.2280   18.2190 O   0  0  0  0  0  0  0  0  0  0  0  0
  -28.2720  -25.2130   19.9890 C   0  0  0  0  0  2  0  0  0  0  0  0
  -28.4930  -26.6800   20.2040 O   0  0  0  0  0  0  0  0  0  0  0  0
  -24.7280  -31.9810   23.4110 C   0  0  0  0  0  0  0  0  0  0  0  0
  -27.3730  -27.5450   20.1790 C   0  0  0  0  0  0  0  0  0  0  0  0
  -23.5360  -30.6420   21.7160 C   0  0  0  0  0  3  0  0  0  0  0  0
  -24.9980  -29.1600   20.2310 C   0  0  0  0  0  0  0  0  0  0  0  0
  -26.0770  -30.9760   21.5510 C   0  0  0  0  0  2  0  0  0  0  0  0
  -26.1660  -29.6250   20.8480 C   0  0  0  0  0  0  0  0  0  0  0  0
  -27.3550  -28.8300   20.8130 C   0  0  0  0  0  3  0  0  0  0  0  0
  -26.1750  -27.1430   19.5390 C   0  0  0  0  0  3  0  0  0  0  0  0
  -25.0060  -27.9260   19.5660 C   0  0  0  0  0  3  0  0  0  0  0  0
  -23.7560  -30.0240   20.3100 C   0  0  0  0  0  2  0  0  0  0  0  0
  -24.7990  -31.2150   22.2820 N   0  0  0  0  0  0  0  0  0  0  0  0
  -23.6430  -32.2310   23.9540 O   0  0  0  0  0  0  0  0  0  0  0  0
  -22.8770  -29.5830   22.6330 C   0  0  0  0  0  0  0  0  0  0  0  0
  -21.5540  -29.3950   22.4870 N   0  0  0  0  0  0  0  0  0  0  0  0
  -23.5550  -28.9370   23.4350 O   0  0  0  0  0  0  0  0  0  0  0  0
  -21.0650  -29.9700   21.8160 H   0  0  0  0  0  0  0  0  0  0  0  0
  -18.1890  -28.1290   22.8990 C   0  0  0  0  0  0  0  0  0  0  0  0
  -20.7390  -28.4220   23.2180 C   0  0  0  0  0  3  0  0  0  0  0  0
  -20.8730  -27.0100   22.6020 C   0  0  0  0  0  2  0  0  0  0  0  0
  -19.7920  -26.6990   21.5620 C   0  0  0  0  0  2  0  0  0  0  0  0
  -18.3980  -26.8040   22.1880 C   0  0  0  0  0  2  0  0  0  0  0  0
  -19.2880  -28.8970   23.3680 C   0  0  0  0  0  0  0  0  0  0  0  0
  -19.0390  -30.1380   23.9930 C   0  0  0  0  0  3  0  0  0  0  0  0
  -17.7240  -30.6120   24.1540 C   0  0  0  0  0  3  0  0  0  0  0  0
  -16.6400  -29.8420   23.7000 C   0  0  0  0  0  3  0  0  0  0  0  0
  -16.8730  -28.6020   23.0790 C   0  0  0  0  0  3  0  0  0  0  0  0
  -26.0060  -32.5960   24.0610 C   0  0  0  0  0  3  0  0  0  0  0  0
  -26.5010  -31.7990   25.3310 C   0  0  1  0  0  0  0  0  0  0  0  0
  -25.3920  -31.5480   26.3790 C   0  0  0  0  0  1  0  0  0  0  0  0
  -27.0830  -30.4260   24.9220 C   0  0  0  0  0  1  0  0  0  0  0  0
  -27.6450  -32.5760   26.0220 C   0  0  0  0  0  1  0  0  0  0  0  0
  -25.6980  -33.9890   24.4120 N   0  0  0  0  0  0  0  0  0  0  0  0
  -26.0410  -35.0550   23.6760 C   0  0  0  0  0  0  0  0  0  0  0  0
  -26.7190  -34.9670   22.6480 O   0  0  0  0  0  0  0  0  0  0  0  0
  -25.0970  -34.1320   25.2110 H   0  0  0  0  0  0  0  0  0  0  0  0
  -24.3250  -36.8630   23.3400 C   0  0  0  0  0  1  0  0  0  0  0  0
  -25.5560  -36.4370   24.1550 C   0  0  0  0  0  3  0  0  0  0  0  0
  -27.6860  -37.2990   25.0230 C   0  0  0  0  0  1  0  0  0  0  0  0
  -26.5950  -37.4870   24.0700 N   0  0  0  0  0  0  0  0  0  0  0  0
  -26.1920  -38.4060   24.2280 H   0  0  0  0  0  0  0  0  0  0  0  0
  1  3  1  0
  1  4  1  0
  2  6  2  0
  3 54  1  0
  3  2  1  0
  4 11  1  0
  4  2  1  0
  5  1  2  0
  7  8  1  0
  9 10  2  0
  9 11  1  0
 10 12  1  0
 11  7  2  0
 12 21  1  0
 12  8  2  0
 13 21  1  0
 14 19  1  0
 15 16  1  0
 15 14  1  0
 17 16  1  0
 17 26  1  0
 17 18  1  0
 19 13  1  0
 19 18  1  0
 20 13  2  0
 21 22  1  0
 23 24  2  0
 24 25  1  0
 24 43  1  0
 25 28  1  0
 26 23  1  0
 26 27  1  0
 27 25  2  0
 28 29  1  0
 29 30  2  0
 31 34  1  0
 31 30  1  0
 32 31  2  0
 33 32  1  0
 33 28  2  0
 34 35  1  0
 35 40  2  0
 35 36  1  0
 36 37  2  0
 37 38  1  0
 38 42  1  0
 39 38  2  0
 40 39  1  0
 41 40  1  0
 43 44  1  0
 44 47  1  0
 44 46  1  0
 45 43  2  0
 48 49  1  0
 48 23  1  0
 50 48  1  0
 51 10  1  0
 52 51  1  0
 53 51  2  0
 54 55  1  0
 56 67  2  0
 57 55  1  0
 57 62  1  0
 58 66  1  0
 58 68  1  0
 59 65  1  0
 59 61  1  0
 60 66  1  0
 61 60  1  0
 62 61  2  0
 63 64  1  0
 63 57  2  0
 64 59  2  0
 65 58  1  0
 66 56  1  0
 68 70  2  0
 69 68  1  0
 71 69  1  0
 72 81  2  0
 72 77  1  0
 73 69  1  0
 73 77  1  0
 74 73  1  0
 75 76  1  0
 75 74  1  0
 76 72  1  0
 77 78  2  0
 78 79  1  0
 80 79  2  0
 81 80  1  0
 82 56  1  0
 82 87  1  0
 82 83  1  0
 83 86  1  1
 83 84  1  0
 85 83  1  0
 87 90  1  0
 88 92  1  0
 88 87  1  0
 89 88  2  0
 92 91  1  0
 94 92  1  0
 94 95  1  0
 94 93  1  0
M  ISO  4  13 100  21 100  54 101  55 101
M  END
>  <TORSDO>  (92) 
F 19

>  <SCORE>  (92) 
-12.771

>  <name>  (92) 
92

>  <ligand_id>  (92) 
92

>  <original_smiles>  (92) 
[H]c1c([H])c([H])c2c(c1[H])C([H])([H])C([H])([H])C([H])([H])C2([H])N([H])C(=O)C1([H])N(C(=O)C([H])(N([H])C(=O)C([H])(N([H])C([H])([H])[H])C([H])([H])[H])C(C([H])([H])[H])(C([H])([H])[H])C([H])([H])[H])C([H])([H])c2c([H])c(OC([H])([H])C3([H])C(=O)N(c4c([H])c([H])c(N([H])C(=O)N5C([H])([H])C([H])([H])C([H])([H])C([H])(n6nc(-c7c([H])c([H])c(Oc8c([H])c([H])c(F)c([H])c8F)c([H])c7[H])c(C(=O)N([H])[H])c6N([H])[H])C5([H])[H])c(C(=O)C([H])([H])[H])c4[H])C3=O)c([H])c([H])c2C1([H])[H]

>  <smiles>  (92) 
[H]c1c([H])c([H])c2c(c1[H])C([H])([H])C([H])([H])C([H])([H])C2([H])N([H])C(=O)C1([H])N(C(=O)C([H])(N([H])C(=O)C([H])(N([H])C([H])([H])[H])C([H])([H])[H])C(C([H])([H])[H])(C([H])([H])[H])C([H])([H])[H])C([H])([H])c2c([H])c(OC([H])([H])C3([H])C(=O)N(c4c([H])c([H])c(N([H])C(=O)N5C([H])([H])C([H])([H])C([H])([H])C([H])(n6nc(-c7c([H])c([H])c(Oc8c([H])c([H])c(F)c([H])c8F)c([H])c7[H])c(C(=O)N([H])[H])c6N([H])[H])C5([H])[H])c(C(=O)C([H])([H])[H])c4[H])C3=O)c([H])c([H])c2C1([H])[H]

$$$$
93:0:0
     RDKit          3D

 96105  0  0  1  0  0  0  0  0999 V2000
  -31.1690  -22.7220   19.6750 C   0  0  0  0  0  0  0  0  0  0  0  0
  -29.0960  -22.7380   20.6620 C   0  0  0  0  0  2  0  0  0  0  0  0
  -30.7520  -24.2060   19.6740 C   0  0  0  0  0  3  0  0  0  0  0  0
  -29.4960  -24.2520   20.5670 C   0  0  0  0  0  3  0  0  0  0  0  0
  -30.2400  -21.9080   20.2230 N   0  0  0  0  0  0  0  0  0  0  0  0
  -32.2680  -22.3720   19.2330 O   0  0  0  0  0  0  0  0  0  0  0  0
  -30.9070  -18.1860   19.4350 C   0  0  0  0  0  3  0  0  0  0  0  0
  -29.5330  -18.3400   21.4030 C   0  0  0  0  0  3  0  0  0  0  0  0
  -30.9860  -19.6090   19.3960 C   0  0  0  0  0  3  0  0  0  0  0  0
  -29.6000  -19.7580   21.3560 C   0  0  0  0  0  3  0  0  0  0  0  0
  -30.1260  -17.5130   20.4080 C   0  0  0  0  0  0  0  0  0  0  0  0
  -30.2930  -20.4420   20.3260 C   0  0  0  0  0  0  0  0  0  0  0  0
  -29.6100  -16.0370   20.1990 C   0  0  2  0  0  0  0  0  0  0  0  0
  -28.6750  -15.8560   21.1650 F   0  0  0  0  0  0  0  0  0  0  0  0
  -30.5800  -14.7580   20.2150 C   0  0  0  0  0  0  0  0  0  0  0  0
  -30.3850  -12.5620   19.0820 C   0  0  0  0  0  2  0  0  0  0  0  0
  -29.3740  -12.7560   17.9250 C   0  0  0  0  0  2  0  0  0  0  0  0
  -27.9190  -12.5520   18.4030 C   0  0  0  0  0  2  0  0  0  0  0  0
  -27.6110  -13.3210   19.7110 C   0  0  0  0  0  3  0  0  0  0  0  0
  -28.7330  -13.0880   20.7530 C   0  0  0  0  0  2  0  0  0  0  0  0
  -30.0160  -13.5010   20.1580 N   0  0  0  0  0  0  0  0  0  0  0  0
  -31.7770  -14.9080   19.9350 O   0  0  0  0  0  0  0  0  0  0  0  0
  -25.2470  -13.9070   20.5300 C   0  0  0  0  0  0  0  0  0  0  0  0
  -24.1930  -13.1220   20.9070 C   0  0  0  0  0  0  0  0  0  0  0  0
  -24.6620  -11.7750   20.8290 C   0  0  0  0  0  0  0  0  0  0  0  0
  -26.2850  -13.0330   20.2400 N   0  0  0  0  0  0  0  0  0  0  0  0
  -25.9400  -11.7460   20.4800 N   0  0  0  0  0  0  0  0  0  0  0  0
  -23.9550  -10.5050   21.0120 C   0  0  0  0  0  0  0  0  0  0  0  0
  -24.3990   -9.5430   21.9450 C   0  0  0  0  0  3  0  0  0  0  0  0
  -23.6930   -8.3330   22.1140 C   0  0  0  0  0  3  0  0  0  0  0  0
  -22.5300   -8.0790   21.3500 C   0  0  0  0  0  0  0  0  0  0  0  0
  -22.1060   -9.0300   20.4060 C   0  0  0  0  0  3  0  0  0  0  0  0
  -22.8130  -10.2320   20.2340 C   0  0  0  0  0  3  0  0  0  0  0  0
  -21.7950   -6.9220   21.4280 O   0  0  0  0  0  0  0  0  0  0  0  0
  -21.7020   -6.2090   22.5970 C   0  0  0  0  0  0  0  0  0  0  0  0
  -21.1600   -6.7710   23.7730 C   0  0  0  0  0  3  0  0  0  0  0  0
  -21.0180   -5.9800   24.9310 C   0  0  0  0  0  3  0  0  0  0  0  0
  -21.4100   -4.6290   24.9130 C   0  0  0  0  0  0  0  0  0  0  0  0
  -21.9450   -4.0660   23.7400 C   0  0  0  0  0  3  0  0  0  0  0  0
  -22.0880   -4.8540   22.5860 C   0  0  0  0  0  0  0  0  0  0  0  0
  -22.5860   -4.3020   21.4520 F   0  0  0  0  0  0  0  0  0  0  0  0
  -21.2670   -3.8650   26.0210 F   0  0  0  0  0  0  0  0  0  0  0  0
  -22.8030  -13.5840   21.2380 C   0  0  0  0  0  0  0  0  0  0  0  0
  -22.1130  -12.8640   22.1150 N   0  0  0  0  0  0  0  0  0  0  0  0
  -22.3370  -14.6150   20.7550 O   0  0  0  0  0  0  0  0  0  0  0  0
  -22.5020  -12.0280   22.5250 H   0  0  0  0  0  0  0  0  0  0  0  0
  -21.1810  -13.1520   22.3800 H   0  0  0  0  0  0  0  0  0  0  0  0
  -25.4070  -15.2830   20.3960 N   0  0  0  0  0  0  0  0  0  0  0  0
  -24.6720  -15.9430   20.6260 H   0  0  0  0  0  0  0  0  0  0  0  0
  -26.3110  -15.7160   20.2590 H   0  0  0  0  0  0  0  0  0  0  0  0
  -27.9440  -16.8660   18.6570 C   0  0  0  0  0  1  0  0  0  0  0  0
  -28.9950  -15.9570   18.9790 O   0  0  0  0  0  0  0  0  0  0  0  0
  -31.6220  -26.6190   20.1000 C   0  0  0  0  0  1  0  0  0  0  0  0
  -31.9200  -25.1140   20.1350 C   0  0  0  0  0  2  0  0  0  0  0  0
  -28.3300  -25.2200   20.1060 C   0  0  0  0  0  2  0  0  0  0  0  0
  -28.4640  -26.6610   20.3400 O   0  0  0  0  0  0  0  0  0  0  0  0
  -24.6430  -31.9330   23.3620 C   0  0  0  0  0  0  0  0  0  0  0  0
  -27.3120  -27.4510   20.2850 C   0  0  0  0  0  0  0  0  0  0  0  0
  -23.4540  -30.5450   21.6990 C   0  0  0  0  0  3  0  0  0  0  0  0
  -24.9230  -29.0130   20.2740 C   0  0  0  0  0  0  0  0  0  0  0  0
  -25.9900  -30.8860   21.5340 C   0  0  0  0  0  2  0  0  0  0  0  0
  -26.0810  -29.5160   20.8780 C   0  0  0  0  0  0  0  0  0  0  0  0
  -27.2780  -28.7470   20.8730 C   0  0  0  0  0  3  0  0  0  0  0  0
  -26.1270  -26.9870   19.6630 C   0  0  0  0  0  3  0  0  0  0  0  0
  -24.9450  -27.7510   19.6610 C   0  0  0  0  0  3  0  0  0  0  0  0
  -23.6790  -29.8760   20.3160 C   0  0  0  0  0  2  0  0  0  0  0  0
  -24.7140  -31.1370   22.2560 N   0  0  0  0  0  0  0  0  0  0  0  0
  -23.5550  -32.2040   23.8910 O   0  0  0  0  0  0  0  0  0  0  0  0
  -22.7880  -29.5200   22.6450 C   0  0  0  0  0  0  0  0  0  0  0  0
  -21.4670  -29.3290   22.4930 N   0  0  0  0  0  0  0  0  0  0  0  0
  -23.4580  -28.8990   23.4740 O   0  0  0  0  0  0  0  0  0  0  0  0
  -20.9860  -29.8840   21.7980 H   0  0  0  0  0  0  0  0  0  0  0  0
  -18.0910  -28.1100   22.9300 C   0  0  0  0  0  0  0  0  0  0  0  0
  -20.6420  -28.3830   23.2460 C   0  0  0  0  0  3  0  0  0  0  0  0
  -20.7630  -26.9540   22.6660 C   0  0  0  0  0  2  0  0  0  0  0  0
  -19.6790  -26.6300   21.6320 C   0  0  0  0  0  2  0  0  0  0  0  0
  -18.2860  -26.7650   22.2520 C   0  0  0  0  0  2  0  0  0  0  0  0
  -19.1970  -28.8760   23.3820 C   0  0  0  0  0  0  0  0  0  0  0  0
  -18.9610  -30.1370   23.9750 C   0  0  0  0  0  3  0  0  0  0  0  0
  -17.6510  -30.6300   24.1200 C   0  0  0  0  0  3  0  0  0  0  0  0
  -16.5580  -29.8600   23.6850 C   0  0  0  0  0  3  0  0  0  0  0  0
  -16.7790  -28.6020   23.0970 C   0  0  0  0  0  3  0  0  0  0  0  0
  -25.9210  -32.5600   24.0000 C   0  0  0  0  0  3  0  0  0  0  0  0
  -25.6230  -33.9670   24.2990 N   0  0  0  0  0  0  0  0  0  0  0  0
  -25.9530  -34.9990   23.5110 C   0  0  0  0  0  0  0  0  0  0  0  0
  -26.6120  -34.8660   22.4760 O   0  0  0  0  0  0  0  0  0  0  0  0
  -25.0380  -34.1450   25.1020 H   0  0  0  0  0  0  0  0  0  0  0  0
  -24.2200  -36.7830   23.1430 C   0  0  0  0  0  1  0  0  0  0  0  0
  -25.4790  -36.4010   23.9390 C   0  0  0  0  0  3  0  0  0  0  0  0
  -27.6270  -37.3100   24.7040 C   0  0  0  0  0  1  0  0  0  0  0  0
  -26.5090  -37.4490   23.7740 N   0  0  0  0  0  0  0  0  0  0  0  0
  -26.1070  -38.3730   23.8990 H   0  0  0  0  0  0  0  0  0  0  0  0
  -26.4010  -31.8050   25.3000 C   0  0  1  0  0  0  0  0  0  0  0  0
  -25.2810  -31.5950   26.3460 C   0  0  0  0  0  1  0  0  0  0  0  0
  -26.9800  -30.4160   24.9440 C   0  0  0  0  0  1  0  0  0  0  0  0
  -27.5430  -32.6010   25.9750 C   0  0  0  0  0  1  0  0  0  0  0  0
  1  5  1  0
  3  1  1  0
  3 54  1  0
  3  4  1  0
  4 55  1  0
  4  2  1  0
  5 12  1  0
  5  2  1  0
  6  1  2  0
  7 11  1  0
  9  7  2  0
  9 12  1  0
 10  8  1  0
 11  8  2  0
 12 10  2  0
 13 15  1  0
 13 11  1  0
 13 14  1  1
 16 21  1  0
 17 18  1  0
 17 16  1  0
 19 18  1  0
 19 26  1  0
 19 20  1  0
 21 15  1  0
 21 20  1  0
 22 15  2  0
 23 24  2  0
 24 43  1  0
 25 24  1  0
 25 28  1  0
 26 27  1  0
 26 23  1  0
 27 25  2  0
 28 29  1  0
 29 30  2  0
 31 34  1  0
 31 30  1  0
 32 31  2  0
 33 32  1  0
 33 28  2  0
 34 35  1  0
 35 36  1  0
 36 37  2  0
 38 37  1  0
 38 42  1  0
 39 38  2  0
 40 35  2  0
 40 39  1  0
 41 40  1  0
 43 44  1  0
 44 47  1  0
 44 46  1  0
 45 43  2  0
 48 23  1  0
 48 49  1  0
 50 48  1  0
 51 52  1  0
 52 13  1  0
 53 54  1  0
 55 56  1  0
 57 68  2  0
 58 56  1  0
 58 63  1  0
 59 67  1  0
 59 69  1  0
 60 66  1  0
 60 62  1  0
 61 67  1  0
 62 61  1  0
 63 62  2  0
 64 58  2  0
 65 64  1  0
 65 60  2  0
 66 59  1  0
 67 57  1  0
 69 71  2  0
 70 69  1  0
 72 70  1  0
 73 82  2  0
 73 78  1  0
 74 70  1  0
 74 78  1  0
 75 74  1  0
 76 77  1  0
 76 75  1  0
 77 73  1  0
 78 79  2  0
 79 80  1  0
 81 80  2  0
 82 81  1  0
 83 57  1  0
 83 84  1  0
 83 93  1  0
 84 87  1  0
 85 89  1  0
 85 84  1  0
 86 85  2  0
 89 88  1  0
 91 92  1  0
 91 89  1  0
 91 90  1  0
 93 96  1  1
 93 94  1  0
 95 93  1  0
M  ISO  4  13 100  15 100  55 101  56 101
M  END
>  <TORSDO>  (93) 
F 21

>  <SCORE>  (93) 
-13.198

>  <name>  (93) 
93

>  <ligand_id>  (93) 
93

>  <original_smiles>  (93) 
[H]c1c([H])c([H])c2c(c1[H])C([H])([H])C([H])([H])C([H])([H])C2([H])N([H])C(=O)C1([H])N(C(=O)C([H])(N([H])C(=O)C([H])(N([H])C([H])([H])[H])C([H])([H])[H])C(C([H])([H])[H])(C([H])([H])[H])C([H])([H])[H])C([H])([H])c2c([H])c(OC([H])([H])C3([H])C([H])([H])N(c4c([H])c([H])c(C(F)(OC([H])([H])[H])C(=O)N5C([H])([H])C([H])([H])C([H])([H])C([H])(n6nc(-c7c([H])c([H])c(Oc8c([H])c([H])c(F)c([H])c8F)c([H])c7[H])c(C(=O)N([H])[H])c6N([H])[H])C5([H])[H])c([H])c4[H])C(=O)C3([H])C([H])([H])C([H])([H])[H])c([H])c([H])c2C1([H])[H]

>  <smiles>  (93) 
[H]c1c([H])c([H])c2c(c1[H])C([H])([H])C([H])([H])C([H])([H])C2([H])N([H])C(=O)C1([H])N(C(=O)C([H])(N([H])C(=O)C([H])(N([H])C([H])([H])[H])C([H])([H])[H])C(C([H])([H])[H])(C([H])([H])[H])C([H])([H])[H])C([H])([H])c2c([H])c(OC([H])([H])C3([H])C([H])([H])N(c4c([H])c([H])c(C(F)(OC([H])([H])[H])C(=O)N5C([H])([H])C([H])([H])C([H])([H])C([H])(n6nc(-c7c([H])c([H])c(Oc8c([H])c([H])c(F)c([H])c8F)c([H])c7[H])c(C(=O)N([H])[H])c6N([H])[H])C5([H])[H])c([H])c4[H])C(=O)C3([H])C([H])([H])C([H])([H])[H])c([H])c([H])c2C1([H])[H]

$$$$
94:0:0
     RDKit          3D

 97106  0  0  1  0  0  0  0  0999 V2000
  -30.6030  -19.1950   21.4640 C   0  0  0  0  0  3  0  0  0  0  0  0
  -30.3900  -20.5830   21.7230 C   0  0  0  0  0  3  0  0  0  0  0  0
  -28.3820  -20.5530   20.4450 C   0  0  0  0  0  3  0  0  0  0  0  0
  -29.7240  -18.4400   20.6620 C   0  0  0  0  0  0  0  0  0  0  0  0
  -28.5790  -19.1610   20.1760 C   0  0  0  0  0  0  0  0  0  0  0  0
  -29.2800  -21.3400   21.2110 C   0  0  0  0  0  0  0  0  0  0  0  0
  -27.5180  -18.4890   19.3120 C   0  0  0  0  0  1  0  0  0  0  0  0
  -29.5290  -23.4130   22.5850 C   0  0  0  0  0  0  0  0  0  0  0  0
  -28.7790  -24.6100   23.1650 C   0  0  0  0  0  2  0  0  0  0  0  0
  -28.5510  -25.6820   22.1080 C   0  0  0  0  0  2  0  0  0  0  0  0
  -28.2780  -23.6980   20.4860 C   0  0  0  0  0  2  0  0  0  0  0  0
  -27.7050  -25.1240   20.9670 C   0  0  0  0  0  3  0  0  0  0  0  0
  -29.0280  -22.7950   21.4720 N   0  0  0  0  0  0  0  0  0  0  0  0
  -30.5660  -23.0950   23.1720 O   0  0  0  0  0  0  0  0  0  0  0  0
  -27.6340  -26.2420   20.0100 O   0  0  0  0  0  0  0  0  0  0  0  0
  -24.4850  -31.8830   23.2360 C   0  0  0  0  0  0  0  0  0  0  0  0
  -26.5720  -27.1440   20.1040 C   0  0  0  0  0  0  0  0  0  0  0  0
  -23.0810  -30.5780   21.6730 C   0  0  0  0  0  3  0  0  0  0  0  0
  -24.3290  -28.9030   20.1950 C   0  0  0  0  0  0  0  0  0  0  0  0
  -25.6220  -30.7040   21.3470 C   0  0  0  0  0  2  0  0  0  0  0  0
  -25.5610  -29.3190   20.7190 C   0  0  0  0  0  0  0  0  0  0  0  0
  -26.6880  -28.4510   20.6610 C   0  0  0  0  0  3  0  0  0  0  0  0
  -25.3250  -26.7640   19.5720 C   0  0  0  0  0  3  0  0  0  0  0  0
  -24.2120  -27.6280   19.6150 C   0  0  0  0  0  3  0  0  0  0  0  0
  -23.1670  -29.8710   20.2940 C   0  0  0  0  0  2  0  0  0  0  0  0
  -24.4170  -31.0720   22.1400 N   0  0  0  0  0  0  0  0  0  0  0  0
  -23.4600  -32.2490   23.8300 O   0  0  0  0  0  0  0  0  0  0  0  0
  -22.3980  -29.6250   22.6810 C   0  0  0  0  0  0  0  0  0  0  0  0
  -21.0720  -29.4520   22.5450 N   0  0  0  0  0  0  0  0  0  0  0  0
  -23.0600  -29.0390   23.5420 O   0  0  0  0  0  0  0  0  0  0  0  0
  -20.5990  -29.9760   21.8230 H   0  0  0  0  0  0  0  0  0  0  0  0
  -17.6960  -28.2350   22.9880 C   0  0  0  0  0  0  0  0  0  0  0  0
  -20.2330  -28.5670   23.3560 C   0  0  0  0  0  3  0  0  0  0  0  0
  -20.3860  -27.0940   22.9110 C   0  0  0  0  0  2  0  0  0  0  0  0
  -19.3400  -26.6630   21.8780 C   0  0  0  0  0  2  0  0  0  0  0  0
  -17.9250  -26.8370   22.4390 C   0  0  0  0  0  2  0  0  0  0  0  0
  -18.7800  -29.0520   23.4030 C   0  0  0  0  0  0  0  0  0  0  0  0
  -18.5130  -30.3560   23.8750 C   0  0  0  0  0  3  0  0  0  0  0  0
  -17.1940  -30.8440   23.9350 C   0  0  0  0  0  3  0  0  0  0  0  0
  -16.1230  -30.0260   23.5360 C   0  0  0  0  0  3  0  0  0  0  0  0
  -16.3750  -28.7230   23.0690 C   0  0  0  0  0  3  0  0  0  0  0  0
  -25.8500  -32.4110   23.7770 C   0  0  0  0  0  3  0  0  0  0  0  0
  -26.3930  -31.5870   25.0080 C   0  0  1  0  0  0  0  0  0  0  0  0
  -25.3560  -31.4070   26.1390 C   0  0  0  0  0  1  0  0  0  0  0  0
  -26.8540  -30.1770   24.5650 C   0  0  0  0  0  1  0  0  0  0  0  0
  -27.6310  -32.2930   25.6100 C   0  0  0  0  0  1  0  0  0  0  0  0
  -25.6670  -33.8220   24.1420 N   0  0  0  0  0  0  0  0  0  0  0  0
  -26.0640  -34.8610   23.3940 C   0  0  0  0  0  0  0  0  0  0  0  0
  -26.6990  -34.7260   22.3440 O   0  0  0  0  0  0  0  0  0  0  0  0
  -25.1060  -34.0060   24.9600 H   0  0  0  0  0  0  0  0  0  0  0  0
  -24.5100  -36.8160   23.0960 C   0  0  0  0  0  1  0  0  0  0  0  0
  -25.7040  -36.2730   23.8950 C   0  0  0  0  0  3  0  0  0  0  0  0
  -27.8980  -36.9460   24.7710 C   0  0  0  0  0  1  0  0  0  0  0  0
  -26.8290  -37.2300   23.8160 N   0  0  0  0  0  0  0  0  0  0  0  0
  -26.5040  -38.1780   23.9780 H   0  0  0  0  0  0  0  0  0  0  0  0
  -30.0980  -16.9850   20.1450 C   0  0  0  0  0  0  0  0  0  0  0  0
  -31.1220  -14.6640   21.0100 C   0  0  0  0  0  0  0  0  0  0  0  0
  -30.9980  -12.3360   20.1480 C   0  0  0  0  0  2  0  0  0  0  0  0
  -30.1910  -12.3590   18.8300 C   0  0  0  0  0  2  0  0  0  0  0  0
  -28.6660  -12.3250   19.0930 C   0  0  0  0  0  2  0  0  0  0  0  0
  -28.2070  -13.2510   20.2580 C   0  0  0  0  0  3  0  0  0  0  0  0
  -29.1520  -13.1470   21.4780 C   0  0  0  0  0  2  0  0  0  0  0  0
  -30.5090  -13.4400   21.0000 N   0  0  0  0  0  0  0  0  0  0  0  0
  -32.3320  -14.7570   20.8020 O   0  0  0  0  0  0  0  0  0  0  0  0
  -30.2780  -15.7550   21.0340 N   0  0  0  0  0  4  0  0  0  0  0  0
  -29.3930  -15.4900   21.4410 H   0  0  0  0  0  0  0  0  0  0  0  0
  -25.7880  -13.9250   20.8050 C   0  0  0  0  0  0  0  0  0  0  0  0
  -24.6700  -13.1860   21.0790 C   0  0  0  0  0  0  0  0  0  0  0  0
  -25.0870  -11.8180   21.0470 C   0  0  0  0  0  0  0  0  0  0  0  0
  -26.8170  -13.0100   20.6330 N   0  0  0  0  0  0  0  0  0  0  0  0
  -26.3960  -11.7370   20.8400 N   0  0  0  0  0  0  0  0  0  0  0  0
  -24.3010  -10.5810   21.1390 C   0  0  0  0  0  0  0  0  0  0  0  0
  -24.6330   -9.5650   22.0590 C   0  0  0  0  0  3  0  0  0  0  0  0
  -23.8510   -8.3940   22.1440 C   0  0  0  0  0  3  0  0  0  0  0  0
  -22.7200   -8.2350   21.3080 C   0  0  0  0  0  0  0  0  0  0  0  0
  -22.4050   -9.2420   20.3800 C   0  0  0  0  0  3  0  0  0  0  0  0
  -23.1900  -10.4030   20.2930 C   0  0  0  0  0  3  0  0  0  0  0  0
  -21.9170   -7.1220   21.3010 O   0  0  0  0  0  0  0  0  0  0  0  0
  -21.7610   -6.3370   22.4160 C   0  0  0  0  0  0  0  0  0  0  0  0
  -21.2330   -6.8500   23.6200 C   0  0  0  0  0  3  0  0  0  0  0  0
  -21.0290   -5.9910   24.7170 C   0  0  0  0  0  3  0  0  0  0  0  0
  -21.3420   -4.6230   24.6130 C   0  0  0  0  0  0  0  0  0  0  0  0
  -21.8580   -4.1100   23.4100 C   0  0  0  0  0  3  0  0  0  0  0  0
  -22.0640   -4.9640   22.3120 C   0  0  0  0  0  0  0  0  0  0  0  0
  -22.5440   -4.4610   21.1510 F   0  0  0  0  0  0  0  0  0  0  0  0
  -21.1340   -3.8000   25.6670 F   0  0  0  0  0  0  0  0  0  0  0  0
  -23.2710  -13.7110   21.2490 C   0  0  0  0  0  0  0  0  0  0  0  0
  -22.4470  -13.0360   22.0440 N   0  0  0  0  0  0  0  0  0  0  0  0
  -22.9180  -14.7620   20.7140 O   0  0  0  0  0  0  0  0  0  0  0  0
  -22.7430  -12.1920   22.5120 H   0  0  0  0  0  0  0  0  0  0  0  0
  -21.5050  -13.3730   22.1920 H   0  0  0  0  0  0  0  0  0  0  0  0
  -25.9990  -15.2940   20.6640 N   0  0  0  0  0  0  0  0  0  0  0  0
  -25.2090  -15.9290   20.7040 H   0  0  0  0  0  0  0  0  0  0  0  0
  -26.8370  -15.7370   20.3110 H   0  0  0  0  0  0  0  0  0  0  0  0
  -32.4540  -17.3160   19.0030 C   0  0  0  0  0  1  0  0  0  0  0  0
  -30.6070  -16.0120   17.8080 C   0  0  0  0  0  1  0  0  0  0  0  0
  -30.9430  -17.1060   18.8350 C   0  0  0  0  0  3  0  0  0  0  0  0
  1  2  1  0
  3  6  1  0
  4  1  2  0
  5  3  2  0
  5  4  1  0
  6 13  1  0
  6  2  2  0
  7  5  1  0
  8  9  1  0
  8 14  2  0
 10  9  1  0
 11 12  1  0
 11 13  1  0
 12 15  1  0
 12 10  1  0
 13  8  1  0
 15 17  1  0
 16 27  2  0
 17 22  1  0
 18 26  1  0
 18 28  1  0
 19 25  1  0
 19 21  1  0
 20 26  1  0
 21 20  1  0
 22 21  2  0
 23 24  1  0
 23 17  2  0
 24 19  2  0
 25 18  1  0
 26 16  1  0
 28 30  2  0
 29 28  1  0
 31 29  1  0
 32 41  2  0
 32 37  1  0
 33 29  1  0
 33 37  1  0
 34 33  1  0
 35 36  1  0
 35 34  1  0
 36 32  1  0
 37 38  2  0
 38 39  1  0
 40 39  2  0
 41 40  1  0
 42 16  1  0
 42 47  1  0
 42 43  1  0
 43 46  1  1
 43 44  1  0
 45 43  1  0
 47 50  1  0
 48 52  1  0
 48 47  1  0
 49 48  2  0
 52 51  1  0
 54 52  1  0
 54 55  1  0
 54 53  1  0
 56  4  1  0
 56 65  2  0
 57 65  1  0
 58 63  1  0
 59 60  1  0
 59 58  1  0
 61 60  1  0
 61 70  1  0
 61 62  1  0
 63 57  1  0
 63 62  1  0
 64 57  2  0
 65 66  1  0
 67 68  2  0
 68 87  1  0
 69 68  1  0
 69 72  1  0
 70 67  1  0
 70 71  1  0
 71 69  2  0
 72 73  1  0
 73 74  2  0
 75 74  1  0
 76 75  2  0
 77 76  1  0
 77 72  2  0
 78 75  1  0
 78 79  1  0
 79 80  1  0
 80 81  2  0
 82 81  1  0
 82 86  1  0
 83 82  2  0
 84 79  2  0
 84 83  1  0
 85 84  1  0
 87 88  1  0
 88 91  1  0
 88 90  1  0
 89 87  2  0
 92 93  1  0
 92 67  1  0
 94 92  1  0
 96 97  1  0
 97 95  1  0
 97 56  1  0
M  ISO  4  12 101  15 101  57 100  65 100
M  END
>  <TORSDO>  (94) 
F 19

>  <SCORE>  (94) 
-12.822

>  <name>  (94) 
94

>  <ligand_id>  (94) 
94

>  <original_smiles>  (94) 
[H]c1c([H])c([H])c2c(c1[H])C([H])([H])C([H])([H])C([H])([H])C2([H])N([H])C(=O)C1([H])N(C(=O)C([H])(N([H])C(=O)C([H])(N([H])C([H])([H])[H])C([H])([H])[H])C(C([H])([H])[H])(C([H])([H])[H])C([H])([H])[H])C([H])([H])c2c([H])c(OC3([H])C([H])([H])N(c4c([H])c([H])c(C([H])(N([H])C(=O)N5C([H])([H])C([H])([H])C([H])([H])C([H])(n6nc(-c7c([H])c([H])c(Oc8c([H])c([H])c(F)c([H])c8F)c([H])c7[H])c(C(=O)N([H])[H])c6N([H])[H])C5([H])[H])C([H])(C([H])([H])[H])C([H])([H])[H])c(C([H])([H])[H])c4[H])C(=O)C([H])([H])C3([H])[H])c([H])c([H])c2C1([H])[H]

>  <smiles>  (94) 
[H]c1c([H])c([H])c2c(c1[H])C([H])([H])C([H])([H])C([H])([H])C2([H])N([H])C(=O)C1([H])N(C(=O)C([H])(N([H])C(=O)C([H])(N([H])C([H])([H])[H])C([H])([H])[H])C(C([H])([H])[H])(C([H])([H])[H])C([H])([H])[H])C([H])([H])c2c([H])c(OC3([H])C([H])([H])N(c4c([H])c([H])c(C([H])(N([H])C(=O)N5C([H])([H])C([H])([H])C([H])([H])C([H])(n6nc(-c7c([H])c([H])c(Oc8c([H])c([H])c(F)c([H])c8F)c([H])c7[H])c(C(=O)N([H])[H])c6N([H])[H])C5([H])[H])C([H])(C([H])([H])[H])C([H])([H])[H])c(C([H])([H])[H])c4[H])C(=O)C([H])([H])C3([H])[H])c([H])c([H])c2C1([H])[H]

$$$$
