0:0:0
     RDKit          3D

 98106  0  0  1  0  0  0  0  0999 V2000
  -30.5800  -20.4860   19.2620 C   0  0  0  0  0  3  0  0  0  0  0  0
  -30.2150  -18.5790   22.6020 C   0  0  0  0  0  3  0  0  0  0  0  0
  -30.2420  -19.5730   21.6140 C   0  0  0  0  0  3  0  0  0  0  0  0
  -30.5300  -17.2570   22.2720 C   0  0  0  0  0  3  0  0  0  0  0  0
  -30.6320  -19.3110   20.2770 C   0  0  0  0  0  0  0  0  0  0  0  0
  -31.0750  -17.9520   19.9980 C   0  0  0  0  0  0  0  0  0  0  0  0
  -30.9410  -16.8960   20.9750 C   0  0  0  0  0  0  0  0  0  0  0  0
  -31.7350  -17.6380   18.6640 C   0  0  0  0  0  1  0  0  0  0  0  0
  -31.6230  -14.5800   19.9610 C   0  0  0  0  0  0  0  0  0  0  0  0
  -31.1620  -12.4550   18.7600 C   0  0  0  0  0  2  0  0  0  0  0  0
  -30.1360  -12.7250   17.6400 C   0  0  0  0  0  2  0  0  0  0  0  0
  -28.6960  -12.6280   18.1790 C   0  0  0  0  0  2  0  0  0  0  0  0
  -28.4940  -13.4360   19.4880 C   0  0  0  0  0  3  0  0  0  0  0  0
  -29.6190  -13.1260   20.5020 C   0  0  0  0  0  2  0  0  0  0  0  0
  -30.9160  -13.4140   19.8540 N   0  0  0  0  0  0  0  0  0  0  0  0
  -32.6560  -14.7650   19.3140 O   0  0  0  0  0  0  0  0  0  0  0  0
  -31.1340  -15.4570   20.8700 N   0  0  0  0  0  0  0  0  0  0  0  0
  -30.5060  -14.9590   21.4830 H   0  0  0  0  0  0  0  0  0  0  0  0
  -26.2050  -14.1360   20.4350 C   0  0  0  0  0  0  0  0  0  0  0  0
  -25.1200  -13.4060   20.8420 C   0  0  0  0  0  0  0  0  0  0  0  0
  -25.4850  -12.0330   20.6860 C   0  0  0  0  0  0  0  0  0  0  0  0
  -27.1670  -13.2100   20.0580 N   0  0  0  0  0  0  0  0  0  0  0  0
  -26.7400  -11.9370   20.2650 N   0  0  0  0  0  0  0  0  0  0  0  0
  -24.6940  -10.8090   20.8560 C   0  0  0  0  0  0  0  0  0  0  0  0
  -25.0170   -9.8550   21.8470 C   0  0  0  0  0  3  0  0  0  0  0  0
  -24.2330   -8.6930   22.0060 C   0  0  0  0  0  3  0  0  0  0  0  0
  -23.1090   -8.4760   21.1750 C   0  0  0  0  0  0  0  0  0  0  0  0
  -22.8040   -9.4180   20.1760 C   0  0  0  0  0  3  0  0  0  0  0  0
  -23.5900  -10.5710   20.0150 C   0  0  0  0  0  3  0  0  0  0  0  0
  -22.3050   -7.3640   21.2380 O   0  0  0  0  0  0  0  0  0  0  0  0
  -21.9830   -6.7760   22.4360 C   0  0  0  0  0  0  0  0  0  0  0  0
  -21.3140   -7.4840   23.4580 C   0  0  0  0  0  3  0  0  0  0  0  0
  -20.9420   -6.8230   24.6460 C   0  0  0  0  0  3  0  0  0  0  0  0
  -21.2250   -5.4540   24.8080 C   0  0  0  0  0  0  0  0  0  0  0  0
  -21.8860   -4.7460   23.7890 C   0  0  0  0  0  3  0  0  0  0  0  0
  -22.2600   -5.4040   22.6060 C   0  0  0  0  0  0  0  0  0  0  0  0
  -22.8770   -4.7120   21.6170 F   0  0  0  0  0  0  0  0  0  0  0  0
  -20.8600   -4.8170   25.9440 F   0  0  0  0  0  0  0  0  0  0  0  0
  -23.7850  -13.9490   21.2670 C   0  0  0  0  0  0  0  0  0  0  0  0
  -23.1020  -13.2560   22.1710 N   0  0  0  0  0  0  0  0  0  0  0  0
  -23.3620  -15.0190   20.8310 O   0  0  0  0  0  0  0  0  0  0  0  0
  -23.4600  -12.3910   22.5480 H   0  0  0  0  0  0  0  0  0  0  0  0
  -22.2080  -13.5990   22.4970 H   0  0  0  0  0  0  0  0  0  0  0  0
  -26.4490  -15.5020   20.3380 N   0  0  0  0  0  0  0  0  0  0  0  0
  -25.7430  -16.1920   20.5680 H   0  0  0  0  0  0  0  0  0  0  0  0
  -27.3160  -15.9130   20.0120 H   0  0  0  0  0  0  0  0  0  0  0  0
  -29.9560  -19.9120   17.9700 C   0  0  0  0  0  0  0  0  0  0  0  0
  -30.6160  -20.0900   16.8290 N   0  0  0  0  0  0  0  0  0  0  0  0
  -28.8680  -19.3370   17.9870 O   0  0  0  0  0  0  0  0  0  0  0  0
  -31.4880  -20.6010   16.8160 H   0  0  0  0  0  0  0  0  0  0  0  0
  -30.2400  -19.7330   15.9630 H   0  0  0  0  0  0  0  0  0  0  0  0
  -29.8900  -22.9150   19.7190 C   0  0  0  0  0  0  0  0  0  0  0  0
  -29.6380  -21.5870   19.6120 N   0  0  0  0  0  0  0  0  0  0  0  0
  -31.0430  -23.3460   19.7560 O   0  0  0  0  0  0  0  0  0  0  0  0
  -28.6660  -21.3150   19.5460 H   0  0  0  0  0  0  0  0  0  0  0  0
  -28.6870  -23.9160   19.7120 C   0  0  0  0  0  2  0  0  0  0  0  0
  -28.8030  -25.2310   20.5710 C   0  0  0  0  0  2  0  0  0  0  0  0
  -28.7590  -26.5110   19.8700 O   0  0  0  0  0  0  0  0  0  0  0  0
  -24.7630  -31.6020   22.9530 C   0  0  0  0  0  0  0  0  0  0  0  0
  -27.5690  -27.2250   19.8910 C   0  0  0  0  0  0  0  0  0  0  0  0
  -23.6110  -30.1670   21.3030 C   0  0  0  0  0  3  0  0  0  0  0  0
  -25.1230  -28.6740   19.8860 C   0  0  0  0  0  0  0  0  0  0  0  0
  -26.1260  -30.6080   21.1130 C   0  0  0  0  0  2  0  0  0  0  0  0
  -26.2660  -29.2380   20.4680 C   0  0  0  0  0  0  0  0  0  0  0  0
  -27.4930  -28.5260   20.4560 C   0  0  0  0  0  3  0  0  0  0  0  0
  -26.4060  -26.6780   19.3110 C   0  0  0  0  0  3  0  0  0  0  0  0
  -25.1890  -27.3940   19.3060 C   0  0  0  0  0  3  0  0  0  0  0  0
  -23.8520  -29.4980   19.9230 C   0  0  0  0  0  2  0  0  0  0  0  0
  -24.8500  -30.8090   21.8480 N   0  0  0  0  0  0  0  0  0  0  0  0
  -23.6710  -31.8330   23.4930 O   0  0  0  0  0  0  0  0  0  0  0  0
  -22.9910  -29.1210   22.2590 C   0  0  0  0  0  0  0  0  0  0  0  0
  -21.6710  -28.9030   22.1400 N   0  0  0  0  0  0  0  0  0  0  0  0
  -23.6960  -28.5070   23.0640 O   0  0  0  0  0  0  0  0  0  0  0  0
  -21.1600  -29.4500   21.4610 H   0  0  0  0  0  0  0  0  0  0  0  0
  -18.3310  -27.6300   22.6790 C   0  0  0  0  0  0  0  0  0  0  0  0
  -20.8880  -27.9370   22.9100 C   0  0  0  0  0  3  0  0  0  0  0  0
  -21.0090  -26.5180   22.3100 C   0  0  0  0  0  2  0  0  0  0  0  0
  -19.8970  -26.1880   21.3100 C   0  0  0  0  0  2  0  0  0  0  0  0
  -18.5240  -26.2950   21.9780 C   0  0  0  0  0  2  0  0  0  0  0  0
  -19.4410  -28.4070   23.1030 C   0  0  0  0  0  0  0  0  0  0  0  0
  -19.2070  -29.6550   23.7210 C   0  0  0  0  0  3  0  0  0  0  0  0
  -17.8970  -30.1270   23.9150 C   0  0  0  0  0  3  0  0  0  0  0  0
  -16.8010  -29.3480   23.5060 C   0  0  0  0  0  3  0  0  0  0  0  0
  -17.0190  -28.1000   22.8940 C   0  0  0  0  0  3  0  0  0  0  0  0
  -26.0230  -32.2780   23.5790 C   0  0  0  0  0  3  0  0  0  0  0  0
  -25.6290  -33.6220   24.0250 N   0  0  0  0  0  0  0  0  0  0  0  0
  -25.8490  -34.7470   23.3320 C   0  0  0  0  0  0  0  0  0  0  0  0
  -26.4760  -34.7680   22.2680 O   0  0  0  0  0  0  0  0  0  0  0  0
  -25.0610  -33.6740   24.8570 H   0  0  0  0  0  0  0  0  0  0  0  0
  -23.9780  -36.4230   23.1880 C   0  0  0  0  0  1  0  0  0  0  0  0
  -25.2850  -36.0590   23.9120 C   0  0  0  0  0  3  0  0  0  0  0  0
  -27.3830  -37.0510   24.7160 C   0  0  0  0  0  1  0  0  0  0  0  0
  -26.2310  -37.1940   23.8290 N   0  0  0  0  0  0  0  0  0  0  0  0
  -25.7630  -38.0690   24.0520 H   0  0  0  0  0  0  0  0  0  0  0  0
  -26.6420  -31.4550   24.7750 C   0  0  1  0  0  0  0  0  0  0  0  0
  -25.6080  -31.0580   25.8540 C   0  0  0  0  0  1  0  0  0  0  0  0
  -27.3140  -30.1610   24.2610 C   0  0  0  0  0  1  0  0  0  0  0  0
  -27.7540  -32.2840   25.4620 C   0  0  0  0  0  1  0  0  0  0  0  0
  1 47  1  0
  1 53  1  0
  1  5  1  0
  3  2  2  0
  4  2  1  0
  5  3  1  0
  6  5  2  0
  6  7  1  0
  7  4  2  0
  8  6  1  0
  9 17  1  0
 10 15  1  0
 11 12  1  0
 11 10  1  0
 13 12  1  0
 13 22  1  0
 13 14  1  0
 15  9  1  0
 15 14  1  0
 16  9  2  0
 17  7  1  0
 17 18  1  0
 19 20  2  0
 20 39  1  0
 21 20  1  0
 21 24  1  0
 22 23  1  0
 22 19  1  0
 23 21  2  0
 24 25  1  0
 25 26  2  0
 27 30  1  0
 27 26  1  0
 28 27  2  0
 29 28  1  0
 29 24  2  0
 30 31  1  0
 31 36  2  0
 31 32  1  0
 32 33  2  0
 33 34  1  0
 34 38  1  0
 35 34  2  0
 36 35  1  0
 37 36  1  0
 39 40  1  0
 40 43  1  0
 40 42  1  0
 41 39  2  0
 44 19  1  0
 44 45  1  0
 46 44  1  0
 47 49  2  0
 48 47  1  0
 50 48  1  0
 51 48  1  0
 52 54  2  0
 53 52  1  0
 55 53  1  0
 56 52  1  0
 56 57  1  0
 58 60  1  0
 58 57  1  0
 59 70  2  0
 60 65  1  0
 61 69  1  0
 61 71  1  0
 62 68  1  0
 62 64  1  0
 63 69  1  0
 64 63  1  0
 65 64  2  0
 66 60  2  0
 67 66  1  0
 67 62  2  0
 68 61  1  0
 69 59  1  0
 71 73  2  0
 72 71  1  0
 74 72  1  0
 75 84  2  0
 75 80  1  0
 76 72  1  0
 76 80  1  0
 77 76  1  0
 78 79  1  0
 78 77  1  0
 79 75  1  0
 80 81  2  0
 81 82  1  0
 83 82  2  0
 84 83  1  0
 85 59  1  0
 85 86  1  0
 85 95  1  0
 86 89  1  0
 87 91  1  0
 87 86  1  0
 88 87  2  0
 91 90  1  0
 93 91  1  0
 93 94  1  0
 93 92  1  0
 95 98  1  1
 95 96  1  0
 97 95  1  0
M  ISO  4   9 100  17 100  57 101  58 101
M  END
>  <TORSDO>  (1) 
F 21

>  <SCORE>  (1) 
-11.018

>  <name>  (1) 
0

>  <ligand_id>  (1) 
0

>  <original_smiles>  (1) 
[H]c1c([H])c(N([H])C(=O)N2C([H])([H])C([H])([H])C([H])([H])C([H])(n3nc(-c4c([H])c([H])c(Oc5c([H])c([H])c(F)c([H])c5F)c([H])c4[H])c(C(=O)N([H])[H])c3N([H])[H])C2([H])[H])c(C([H])([H])[H])c(C([H])(C(=O)N([H])[H])N([H])C(=O)C([H])([H])C([H])([H])Oc2c([H])c([H])c3c(c2[H])C([H])([H])N(C(=O)C([H])(N([H])C(=O)C([H])(N([H])C([H])([H])[H])C([H])([H])[H])C(C([H])([H])[H])(C([H])([H])[H])C([H])([H])[H])C([H])(C(=O)N([H])C2([H])c4c([H])c([H])c([H])c([H])c4C([H])([H])C([H])([H])C2([H])[H])C3([H])[H])c1[H]

>  <smiles>  (1) 
[H]c1c([H])c(N([H])C(=O)N2C([H])([H])C([H])([H])C([H])([H])C([H])(n3nc(-c4c([H])c([H])c(Oc5c([H])c([H])c(F)c([H])c5F)c([H])c4[H])c(C(=O)N([H])[H])c3N([H])[H])C2([H])[H])c(C([H])([H])[H])c(C([H])(C(=O)N([H])[H])N([H])C(=O)C([H])([H])C([H])([H])Oc2c([H])c([H])c3c(c2[H])C([H])([H])N(C(=O)C([H])(N([H])C(=O)C([H])(N([H])C([H])([H])[H])C([H])([H])[H])C(C([H])([H])[H])(C([H])([H])[H])C([H])([H])[H])C([H])(C(=O)N([H])C2([H])c4c([H])c([H])c([H])c([H])c4C([H])([H])C([H])([H])C2([H])[H])C3([H])[H])c1[H]

$$$$
1:0:0
     RDKit          3D

 95104  0  0  1  0  0  0  0  0999 V2000
  -27.4520  -22.5920   21.3660 C   0  0  0  0  0  3  0  0  0  0  0  0
  -27.8080  -23.8420   21.0030 C   0  0  0  0  0  3  0  0  0  0  0  0
  -28.2180  -21.3780   21.0650 C   0  0  0  0  0  0  0  0  0  0  0  0
  -29.3960  -22.7960   19.3990 C   0  0  0  0  0  2  0  0  0  0  0  0
  -29.0120  -24.1640   20.1590 C   0  0  0  0  0  3  0  0  0  0  0  0
  -29.2380  -21.4720   20.1570 N   0  0  0  0  0  0  0  0  0  0  0  0
  -27.9470  -20.3210   21.6450 O   0  0  0  0  0  0  0  0  0  0  0  0
  -29.7800  -18.8980   19.9840 C   0  0  0  0  0  3  0  0  0  0  0  0
  -32.0740  -18.1370   19.8850 C   0  0  0  0  0  3  0  0  0  0  0  0
  -31.5820  -20.5530   19.9870 C   0  0  0  0  0  0  0  0  0  0  0  0
  -30.1770  -20.3100   20.0020 C   0  0  0  0  0  0  0  0  0  0  0  0
  -30.7100  -17.7750   19.9420 C   0  0  0  0  0  0  0  0  0  0  0  0
  -32.4960  -19.4780   19.9000 C   0  0  0  0  0  0  0  0  0  0  0  0
  -32.1800  -21.9460   20.1510 C   0  0  0  0  0  1  0  0  0  0  0  0
  -33.8270  -19.7320   19.8680 F   0  0  0  0  0  0  0  0  0  0  0  0
  -31.0690  -15.1690   19.8110 C   0  0  0  0  0  0  0  0  0  0  0  0
  -30.8230  -12.8370   18.9510 C   0  0  0  0  0  2  0  0  0  0  0  0
  -29.8290  -12.8220   17.7710 C   0  0  0  0  0  2  0  0  0  0  0  0
  -28.3860  -12.6590   18.2870 C   0  0  0  0  0  2  0  0  0  0  0  0
  -28.0590  -13.6210   19.4590 C   0  0  0  0  0  3  0  0  0  0  0  0
  -29.1710  -13.6300   20.5300 C   0  0  0  0  0  2  0  0  0  0  0  0
  -30.4310  -13.9500   19.8470 N   0  0  0  0  0  0  0  0  0  0  0  0
  -32.2350  -15.2150   19.4100 O   0  0  0  0  0  0  0  0  0  0  0  0
  -30.3230  -16.3320   19.9990 N   0  0  0  0  0  0  0  0  0  0  0  0
  -29.3480  -16.1560   20.1920 H   0  0  0  0  0  0  0  0  0  0  0  0
  -25.7490  -14.2390   20.3880 C   0  0  0  0  0  0  0  0  0  0  0  0
  -24.6910  -13.4770   20.7990 C   0  0  0  0  0  0  0  0  0  0  0  0
  -25.1100  -12.1170   20.6740 C   0  0  0  0  0  0  0  0  0  0  0  0
  -26.7470  -13.3450   20.0360 N   0  0  0  0  0  0  0  0  0  0  0  0
  -26.3740  -12.0600   20.2720 N   0  0  0  0  0  0  0  0  0  0  0  0
  -24.3620  -10.8670   20.8590 C   0  0  0  0  0  0  0  0  0  0  0  0
  -24.7580   -9.9020   21.8120 C   0  0  0  0  0  3  0  0  0  0  0  0
  -24.0110   -8.7160   21.9830 C   0  0  0  0  0  3  0  0  0  0  0  0
  -22.8520   -8.4880   21.2030 C   0  0  0  0  0  0  0  0  0  0  0  0
  -22.4750   -9.4410   20.2410 C   0  0  0  0  0  3  0  0  0  0  0  0
  -23.2230  -10.6180   20.0660 C   0  0  0  0  0  3  0  0  0  0  0  0
  -22.0790   -7.3560   21.2840 O   0  0  0  0  0  0  0  0  0  0  0  0
  -21.8780   -6.7040   22.4740 C   0  0  0  0  0  0  0  0  0  0  0  0
  -21.2710   -7.3400   23.5790 C   0  0  0  0  0  3  0  0  0  0  0  0
  -21.0220   -6.6120   24.7600 C   0  0  0  0  0  3  0  0  0  0  0  0
  -21.3690   -5.2510   24.8360 C   0  0  0  0  0  0  0  0  0  0  0  0
  -21.9700   -4.6150   23.7350 C   0  0  0  0  0  3  0  0  0  0  0  0
  -22.2210   -5.3390   22.5570 C   0  0  0  0  0  0  0  0  0  0  0  0
  -22.7800   -4.7160   21.4910 F   0  0  0  0  0  0  0  0  0  0  0  0
  -21.1230   -4.5500   25.9680 F   0  0  0  0  0  0  0  0  0  0  0  0
  -23.3310  -13.9780   21.1910 C   0  0  0  0  0  0  0  0  0  0  0  0
  -22.6510  -13.2700   22.0870 N   0  0  0  0  0  0  0  0  0  0  0  0
  -22.8820  -15.0300   20.7380 O   0  0  0  0  0  0  0  0  0  0  0  0
  -23.0280  -12.4180   22.4740 H   0  0  0  0  0  0  0  0  0  0  0  0
  -21.7420  -13.5860   22.3910 H   0  0  0  0  0  0  0  0  0  0  0  0
  -25.9400  -15.6120   20.2570 N   0  0  0  0  0  0  0  0  0  0  0  0
  -25.1970  -16.2770   20.4460 H   0  0  0  0  0  0  0  0  0  0  0  0
  -26.7610  -16.0430   19.8540 H   0  0  0  0  0  0  0  0  0  0  0  0
  -28.8010  -25.5240   19.3080 C   0  0  0  0  0  2  0  0  0  0  0  0
  -28.6570  -26.8730   19.9530 O   0  0  0  0  0  0  0  0  0  0  0  0
  -24.6970  -31.9640   23.2430 C   0  0  0  0  0  0  0  0  0  0  0  0
  -27.4830  -27.6600   19.9310 C   0  0  0  0  0  0  0  0  0  0  0  0
  -23.5420  -30.5940   21.5460 C   0  0  0  0  0  3  0  0  0  0  0  0
  -25.0460  -29.1850   20.0260 C   0  0  0  0  0  0  0  0  0  0  0  0
  -26.0640  -31.0330   21.3570 C   0  0  0  0  0  2  0  0  0  0  0  0
  -26.1990  -29.6910   20.6370 C   0  0  0  0  0  0  0  0  0  0  0  0
  -27.4150  -28.9410   20.5790 C   0  0  0  0  0  3  0  0  0  0  0  0
  -26.2950  -27.2130   19.3090 C   0  0  0  0  0  3  0  0  0  0  0  0
  -25.0980  -27.9550   19.3540 C   0  0  0  0  0  3  0  0  0  0  0  0
  -23.7720  -30.0000   20.1300 C   0  0  0  0  0  2  0  0  0  0  0  0
  -24.7870  -31.2140   22.1050 N   0  0  0  0  0  0  0  0  0  0  0  0
  -23.6070  -32.1630   23.8000 O   0  0  0  0  0  0  0  0  0  0  0  0
  -22.9390  -29.5000   22.4590 C   0  0  0  0  0  0  0  0  0  0  0  0
  -21.6310  -29.2330   22.3030 N   0  0  0  0  0  0  0  0  0  0  0  0
  -23.6480  -28.8970   23.2700 O   0  0  0  0  0  0  0  0  0  0  0  0
  -21.1150  -29.7770   21.6260 H   0  0  0  0  0  0  0  0  0  0  0  0
  -18.3480  -27.7590   22.6790 C   0  0  0  0  0  0  0  0  0  0  0  0
  -20.8700  -28.2130   23.0270 C   0  0  0  0  0  3  0  0  0  0  0  0
  -21.1000  -26.8110   22.4190 C   0  0  0  0  0  2  0  0  0  0  0  0
  -20.0540  -26.4280   21.3660 C   0  0  0  0  0  2  0  0  0  0  0  0
  -18.6480  -26.4470   21.9760 C   0  0  0  0  0  2  0  0  0  0  0  0
  -19.3910  -28.5960   23.1590 C   0  0  0  0  0  0  0  0  0  0  0  0
  -19.0560  -29.8200   23.7770 C   0  0  0  0  0  3  0  0  0  0  0  0
  -17.7120  -30.2110   23.9190 C   0  0  0  0  0  3  0  0  0  0  0  0
  -16.6830  -29.3730   23.4560 C   0  0  0  0  0  3  0  0  0  0  0  0
  -17.0020  -28.1490   22.8420 C   0  0  0  0  0  3  0  0  0  0  0  0
  -25.9530  -32.6270   23.8850 C   0  0  0  0  0  3  0  0  0  0  0  0
  -25.6100  -34.0220   24.1980 N   0  0  0  0  0  0  0  0  0  0  0  0
  -25.9280  -35.0750   23.4320 C   0  0  0  0  0  0  0  0  0  0  0  0
  -26.6100  -34.9750   22.4080 O   0  0  0  0  0  0  0  0  0  0  0  0
  -25.0050  -34.1720   24.9910 H   0  0  0  0  0  0  0  0  0  0  0  0
  -24.1630  -36.8270   23.0500 C   0  0  0  0  0  1  0  0  0  0  0  0
  -25.4090  -36.4580   23.8720 C   0  0  0  0  0  3  0  0  0  0  0  0
  -27.5120  -37.4050   24.7130 C   0  0  0  0  0  1  0  0  0  0  0  0
  -26.4190  -37.5320   23.7530 N   0  0  0  0  0  0  0  0  0  0  0  0
  -25.9910  -38.4450   23.8780 H   0  0  0  0  0  0  0  0  0  0  0  0
  -26.4560  -31.8780   25.1810 C   0  0  1  0  0  0  0  0  0  0  0  0
  -25.3420  -31.6160   26.2200 C   0  0  0  0  0  1  0  0  0  0  0  0
  -27.0880  -30.5150   24.8140 C   0  0  0  0  0  1  0  0  0  0  0  0
  -27.5660  -32.7080   25.8680 C   0  0  0  0  0  1  0  0  0  0  0  0
  2  1  2  0
  3  1  1  0
  3  7  2  0
  4  6  1  0
  4  5  1  0
  5 54  1  0
  5  2  1  0
  6  3  1  0
  8 11  1  0
  9 13  2  0
  9 12  1  0
 10 11  2  0
 10 14  1  0
 11  6  1  0
 12  8  2  0
 12 24  1  0
 13 10  1  0
 15 13  1  0
 16 22  1  0
 16 24  1  0
 17 22  1  0
 18 19  1  0
 18 17  1  0
 20 19  1  0
 20 29  1  0
 20 21  1  0
 22 21  1  0
 23 16  2  0
 24 25  1  0
 26 27  2  0
 27 46  1  0
 28 27  1  0
 28 31  1  0
 29 30  1  0
 29 26  1  0
 30 28  2  0
 31 32  1  0
 32 33  2  0
 34 37  1  0
 34 33  1  0
 35 34  2  0
 36 35  1  0
 36 31  2  0
 37 38  1  0
 38 43  2  0
 38 39  1  0
 39 40  2  0
 40 41  1  0
 41 45  1  0
 42 41  2  0
 43 42  1  0
 44 43  1  0
 46 47  1  0
 47 50  1  0
 47 49  1  0
 48 46  2  0
 51 26  1  0
 51 52  1  0
 53 51  1  0
 54 55  1  0
 56 67  2  0
 57 55  1  0
 57 62  1  0
 58 66  1  0
 58 68  1  0
 59 65  1  0
 59 61  1  0
 60 66  1  0
 61 60  1  0
 62 61  2  0
 63 64  1  0
 63 57  2  0
 64 59  2  0
 65 58  1  0
 66 56  1  0
 68 70  2  0
 69 68  1  0
 71 69  1  0
 72 81  2  0
 72 77  1  0
 73 69  1  0
 73 77  1  0
 74 73  1  0
 75 76  1  0
 75 74  1  0
 76 72  1  0
 77 78  2  0
 78 79  1  0
 80 79  2  0
 81 80  1  0
 82 56  1  0
 82 83  1  0
 82 92  1  0
 83 86  1  0
 84 88  1  0
 84 83  1  0
 85 84  2  0
 88 87  1  0
 90 88  1  0
 90 91  1  0
 90 89  1  0
 92 95  1  1
 92 93  1  0
 94 92  1  0
M  ISO  4  16 100  24 100  54 101  55 101
M  END
>  <TORSDO>  (2) 
F 18

>  <SCORE>  (2) 
-13.073

>  <name>  (2) 
1

>  <ligand_id>  (2) 
1

>  <original_smiles>  (2) 
[H]C1=C([H])C([H])(C([H])([H])Oc2c([H])c([H])c3c(c2[H])C([H])([H])N(C(=O)C([H])(N([H])C(=O)C([H])(N([H])C([H])([H])[H])C([H])([H])[H])C(C([H])([H])[H])(C([H])([H])[H])C([H])([H])[H])C([H])(C(=O)N([H])C2([H])c4c([H])c([H])c([H])c([H])c4C([H])([H])C([H])([H])C2([H])[H])C3([H])[H])C([H])([H])N(c2c([H])c(N([H])C(=O)N3C([H])([H])C([H])([H])C([H])([H])C([H])(n4nc(-c5c([H])c([H])c(Oc6c([H])c([H])c(F)c([H])c6F)c([H])c5[H])c(C(=O)N([H])[H])c4N([H])[H])C3([H])[H])c([H])c(F)c2C([H])([H])[H])C1=O

>  <smiles>  (2) 
[H]C1=C([H])C([H])(C([H])([H])Oc2c([H])c([H])c3c(c2[H])C([H])([H])N(C(=O)C([H])(N([H])C(=O)C([H])(N([H])C([H])([H])[H])C([H])([H])[H])C(C([H])([H])[H])(C([H])([H])[H])C([H])([H])[H])C([H])(C(=O)N([H])C2([H])c4c([H])c([H])c([H])c([H])c4C([H])([H])C([H])([H])C2([H])[H])C3([H])[H])C([H])([H])N(c2c([H])c(N([H])C(=O)N3C([H])([H])C([H])([H])C([H])([H])C([H])(n4nc(-c5c([H])c([H])c(Oc6c([H])c([H])c(F)c([H])c6F)c([H])c5[H])c(C(=O)N([H])[H])c4N([H])[H])C3([H])[H])c([H])c(F)c2C([H])([H])[H])C1=O

$$$$
2:0:0
     RDKit          3D

102110  0  0  1  0  0  0  0  0999 V2000
  -28.8000  -20.9160   20.1800 C   0  0  0  0  0  0  0  0  0  0  0  0
  -27.8250  -20.5050   19.3690 N   0  0  0  0  0  4  0  0  0  0  0  0
  -28.9450  -22.2630   20.3520 N   0  0  0  0  0  0  0  0  0  0  0  0
  -27.6370  -19.5130   19.3120 H   0  0  0  0  0  0  0  0  0  0  0  0
  -27.2010  -21.1400   18.9040 H   0  0  0  0  0  0  0  0  0  0  0  0
  -29.6240  -22.5510   21.0410 H   0  0  0  0  0  0  0  0  0  0  0  0
  -30.9090  -20.3120   21.3790 C   0  0  0  0  0  3  0  0  0  0  0  0
  -31.4880  -18.0020   21.9310 C   0  0  0  0  0  3  0  0  0  0  0  0
  -29.6850  -19.8960   20.8110 C   0  0  0  0  0  0  0  0  0  0  0  0
  -30.2850  -17.5340   21.3440 C   0  0  0  0  0  0  0  0  0  0  0  0
  -31.7960  -19.3760   21.9400 C   0  0  0  0  0  0  0  0  0  0  0  0
  -29.3810  -18.4960   20.8120 C   0  0  0  0  0  0  0  0  0  0  0  0
  -32.9620  -19.8020   22.4840 F   0  0  0  0  0  0  0  0  0  0  0  0
  -28.2280  -18.0390   20.2560 F   0  0  0  0  0  0  0  0  0  0  0  0
  -30.6880  -15.1150   20.7730 C   0  0  0  0  0  0  0  0  0  0  0  0
  -30.5180  -12.9690   19.5590 C   0  0  0  0  0  2  0  0  0  0  0  0
  -29.6240  -13.1480   18.3150 C   0  0  0  0  0  2  0  0  0  0  0  0
  -28.1440  -12.9260   18.6760 C   0  0  0  0  0  2  0  0  0  0  0  0
  -27.7090  -13.7170   19.9380 C   0  0  0  0  0  3  0  0  0  0  0  0
  -28.7260  -13.5460   21.0910 C   0  0  0  0  0  2  0  0  0  0  0  0
  -30.0550  -13.9220   20.5820 N   0  0  0  0  0  0  0  0  0  0  0  0
  -31.8360  -15.3070   20.3640 O   0  0  0  0  0  0  0  0  0  0  0  0
  -29.9430  -16.1310   21.2740 N   0  0  0  0  0  0  0  0  0  0  0  0
  -28.9770  -15.9100   21.4610 H   0  0  0  0  0  0  0  0  0  0  0  0
  -25.2600  -14.1820   20.5660 C   0  0  0  0  0  0  0  0  0  0  0  0
  -24.2160  -13.3470   20.8600 C   0  0  0  0  0  0  0  0  0  0  0  0
  -24.7420  -12.0210   20.8060 C   0  0  0  0  0  0  0  0  0  0  0  0
  -26.3540  -13.3590   20.3520 N   0  0  0  0  0  0  0  0  0  0  0  0
  -26.0450  -12.0520   20.5540 N   0  0  0  0  0  0  0  0  0  0  0  0
  -24.0690  -10.7210   20.9200 C   0  0  0  0  0  0  0  0  0  0  0  0
  -24.5480   -9.7150   21.7880 C   0  0  0  0  0  3  0  0  0  0  0  0
  -23.8740   -8.4800   21.8960 C   0  0  0  0  0  3  0  0  0  0  0  0
  -22.7050   -8.2420   21.1330 C   0  0  0  0  0  0  0  0  0  0  0  0
  -22.2450   -9.2370   20.2520 C   0  0  0  0  0  3  0  0  0  0  0  0
  -22.9220  -10.4640   20.1440 C   0  0  0  0  0  3  0  0  0  0  0  0
  -21.9990   -7.0640   21.1520 O   0  0  0  0  0  0  0  0  0  0  0  0
  -22.0450   -6.2140   22.2290 C   0  0  0  0  0  0  0  0  0  0  0  0
  -21.7020   -6.6410   23.5300 C   0  0  0  0  0  3  0  0  0  0  0  0
  -21.6960   -5.7170   24.5950 C   0  0  0  0  0  3  0  0  0  0  0  0
  -22.0240   -4.3680   24.3590 C   0  0  0  0  0  0  0  0  0  0  0  0
  -22.3620   -3.9410   23.0640 C   0  0  0  0  0  3  0  0  0  0  0  0
  -22.3700   -4.8610   22.0000 C   0  0  0  0  0  0  0  0  0  0  0  0
  -22.6740   -4.4400   20.7500 F   0  0  0  0  0  0  0  0  0  0  0  0
  -22.0130   -3.4790   25.3810 F   0  0  0  0  0  0  0  0  0  0  0  0
  -22.7880  -13.7500   21.0870 C   0  0  0  0  0  0  0  0  0  0  0  0
  -22.0680  -13.0080   21.9210 N   0  0  0  0  0  0  0  0  0  0  0  0
  -22.3160  -14.7570   20.5620 O   0  0  0  0  0  0  0  0  0  0  0  0
  -22.4620  -12.1930   22.3670 H   0  0  0  0  0  0  0  0  0  0  0  0
  -21.1090  -13.2570   22.1160 H   0  0  0  0  0  0  0  0  0  0  0  0
  -25.3680  -15.5640   20.4440 N   0  0  0  0  0  0  0  0  0  0  0  0
  -24.5680  -16.1790   20.5480 H   0  0  0  0  0  0  0  0  0  0  0  0
  -26.2130  -16.0610   20.1900 H   0  0  0  0  0  0  0  0  0  0  0  0
  -28.0920  -23.3530   19.7550 C   0  0  0  0  0  3  0  0  0  0  0  0
  -26.6470  -23.2370   20.2710 C   0  0  0  0  0  0  0  0  0  0  0  0
  -25.1510  -23.3530   22.2390 C   0  0  0  0  0  1  0  0  0  0  0  0
  -26.4490  -23.4190   21.5810 N   0  0  0  0  0  0  0  0  0  0  0  0
  -25.7390  -22.9570   19.4910 O   0  0  0  0  0  0  0  0  0  0  0  0
  -27.2460  -23.6660   22.1520 H   0  0  0  0  0  0  0  0  0  0  0  0
  -29.9920  -24.9450   20.5890 C   0  0  0  0  0  1  0  0  0  0  0  0
  -28.6010  -24.8430   19.9380 C   0  0  0  0  0  3  0  0  0  0  0  0
  -28.4770  -25.7480   18.6710 C   0  0  0  0  0  2  0  0  0  0  0  0
  -28.3970  -27.1650   18.9710 O   0  0  0  0  0  0  0  0  0  0  0  0
  -24.6550  -31.6810   23.0500 C   0  0  0  0  0  0  0  0  0  0  0  0
  -27.1820  -27.8130   19.1520 C   0  0  0  0  0  0  0  0  0  0  0  0
  -23.3700  -30.4880   21.3090 C   0  0  0  0  0  3  0  0  0  0  0  0
  -24.7520  -29.2380   19.5660 C   0  0  0  0  0  0  0  0  0  0  0  0
  -25.8690  -30.9580   20.9940 C   0  0  0  0  0  2  0  0  0  0  0  0
  -25.9390  -29.7040   20.1420 C   0  0  0  0  0  0  0  0  0  0  0  0
  -27.1500  -29.0010   19.9290 C   0  0  0  0  0  3  0  0  0  0  0  0
  -25.9630  -27.3680   18.5840 C   0  0  0  0  0  3  0  0  0  0  0  0
  -24.7610  -28.0700   18.7880 C   0  0  0  0  0  3  0  0  0  0  0  0
  -23.4950  -30.0330   19.8300 C   0  0  0  0  0  2  0  0  0  0  0  0
  -24.6530  -31.0520   21.8410 N   0  0  0  0  0  0  0  0  0  0  0  0
  -23.6100  -31.8270   23.7000 O   0  0  0  0  0  0  0  0  0  0  0  0
  -22.8260  -29.3060   22.1460 C   0  0  0  0  0  0  0  0  0  0  0  0
  -21.5010  -29.0850   22.0820 N   0  0  0  0  0  0  0  0  0  0  0  0
  -23.5880  -28.5980   22.8090 O   0  0  0  0  0  0  0  0  0  0  0  0
  -20.9450  -29.7180   21.5250 H   0  0  0  0  0  0  0  0  0  0  0  0
  -18.2180  -27.6570   22.5880 C   0  0  0  0  0  0  0  0  0  0  0  0
  -20.7730  -28.0090   22.7550 C   0  0  0  0  0  3  0  0  0  0  0  0
  -20.9040  -26.6780   21.9790 C   0  0  0  0  0  2  0  0  0  0  0  0
  -19.7580  -26.4400   20.9890 C   0  0  0  0  0  2  0  0  0  0  0  0
  -18.4130  -26.4220   21.7210 C   0  0  0  0  0  2  0  0  0  0  0  0
  -19.3260  -28.4120   23.0570 C   0  0  0  0  0  0  0  0  0  0  0  0
  -19.0890  -29.5720   23.8280 C   0  0  0  0  0  3  0  0  0  0  0  0
  -17.7760  -29.9780   24.1300 C   0  0  0  0  0  3  0  0  0  0  0  0
  -16.6830  -29.2200   23.6750 C   0  0  0  0  0  3  0  0  0  0  0  0
  -16.9060  -28.0590   22.9130 C   0  0  0  0  0  3  0  0  0  0  0  0
  -25.9660  -32.2680   23.6640 C   0  0  0  0  0  3  0  0  0  0  0  0
  -25.6620  -33.6180   24.1570 N   0  0  0  0  0  0  0  0  0  0  0  0
  -25.9640  -34.7500   23.5070 C   0  0  0  0  0  0  0  0  0  0  0  0
  -26.6020  -34.7650   22.4510 O   0  0  0  0  0  0  0  0  0  0  0  0
  -25.0930  -33.6750   24.9900 H   0  0  0  0  0  0  0  0  0  0  0  0
  -24.2160  -36.5520   23.3980 C   0  0  0  0  0  1  0  0  0  0  0  0
  -25.4800  -36.0730   24.1270 C   0  0  0  0  0  3  0  0  0  0  0  0
  -27.6310  -36.8780   24.9960 C   0  0  0  0  0  1  0  0  0  0  0  0
  -26.5050  -37.1410   24.1040 N   0  0  0  0  0  0  0  0  0  0  0  0
  -26.0990  -38.0340   24.3660 H   0  0  0  0  0  0  0  0  0  0  0  0
  -26.5670  -31.3750   24.8200 C   0  0  1  0  0  0  0  0  0  0  0  0
  -25.5450  -31.0150   25.9240 C   0  0  0  0  0  1  0  0  0  0  0  0
  -27.1370  -30.0530   24.2550 C   0  0  0  0  0  1  0  0  0  0  0  0
  -27.7500  -32.1140   25.4890 C   0  0  0  0  0  1  0  0  0  0  0  0
  1  3  1  0
  1  9  1  0
  2  1  2  0
  3  6  1  0
  4  2  1  0
  5  2  1  0
  7 11  1  0
  8 11  2  0
  9 12  1  0
  9  7  2  0
 10  8  1  0
 11 13  1  0
 12 10  2  0
 14 12  1  0
 15 23  1  0
 16 21  1  0
 17 18  1  0
 17 16  1  0
 19 18  1  0
 19 28  1  0
 19 20  1  0
 21 15  1  0
 21 20  1  0
 22 15  2  0
 23 10  1  0
 23 24  1  0
 25 26  2  0
 26 45  1  0
 27 26  1  0
 27 30  1  0
 28 29  1  0
 28 25  1  0
 29 27  2  0
 30 31  1  0
 31 32  2  0
 33 36  1  0
 33 32  1  0
 34 33  2  0
 35 34  1  0
 35 30  2  0
 36 37  1  0
 37 38  1  0
 38 39  2  0
 40 39  1  0
 40 44  1  0
 41 40  2  0
 42 37  2  0
 42 41  1  0
 43 42  1  0
 45 46  1  0
 46 49  1  0
 46 48  1  0
 47 45  2  0
 50 51  1  0
 50 25  1  0
 52 50  1  0
 53 60  1  0
 53 54  1  0
 53  3  1  0
 54 56  1  0
 56 58  1  0
 56 55  1  0
 57 54  2  0
 60 59  1  0
 61 62  1  0
 61 60  1  0
 62 64  1  0
 63 74  2  0
 64 69  1  0
 65 73  1  0
 65 75  1  0
 66 72  1  0
 66 68  1  0
 67 73  1  0
 68 67  1  0
 69 68  2  0
 70 71  1  0
 70 64  2  0
 71 66  2  0
 72 65  1  0
 73 63  1  0
 75 77  2  0
 76 75  1  0
 78 76  1  0
 79 88  2  0
 79 84  1  0
 80 76  1  0
 80 84  1  0
 81 80  1  0
 82 83  1  0
 82 81  1  0
 83 79  1  0
 84 85  2  0
 85 86  1  0
 87 86  2  0
 88 87  1  0
 89 63  1  0
 89 90  1  0
 89 99  1  0
 90 93  1  0
 91 95  1  0
 91 90  1  0
 92 91  2  0
 95 94  1  0
 97 95  1  0
 97 98  1  0
 97 96  1  0
 99102  1  1
 99100  1  0
101 99  1  0
M  ISO  4  15 100  23 100  61 101  62 101
M  END
>  <TORSDO>  (3) 
F 21

>  <SCORE>  (3) 
-12.554

>  <name>  (3) 
2

>  <ligand_id>  (3) 
2

>  <original_smiles>  (3) 
[H]c1c([H])c([H])c2c(c1[H])C([H])([H])C([H])([H])C([H])([H])C2([H])N([H])C(=O)C1([H])N(C(=O)C([H])(N([H])C(=O)C([H])(N([H])C([H])([H])[H])C([H])([H])[H])C(C([H])([H])[H])(C([H])([H])[H])C([H])([H])[H])C([H])([H])c2c([H])c(OC([H])([H])C([H])(C([H])([H])[H])C([H])(C(=O)N([H])C([H])([H])[H])[N+]([H])=C(c3c([H])c(F)c([H])c(N([H])C(=O)N4C([H])([H])C([H])([H])C([H])([H])C([H])(n5nc(-c6c([H])c([H])c(Oc7c([H])c([H])c(F)c([H])c7F)c([H])c6[H])c(C(=O)N([H])[H])c5N([H])[H])C4([H])[H])c3F)N([H])[H])c([H])c([H])c2C1([H])[H]

>  <smiles>  (3) 
[H]c1c([H])c([H])c2c(c1[H])C([H])([H])C([H])([H])C([H])([H])C2([H])N([H])C(=O)C1([H])N(C(=O)C([H])(N([H])C(=O)C([H])(N([H])C([H])([H])[H])C([H])([H])[H])C(C([H])([H])[H])(C([H])([H])[H])C([H])([H])[H])C([H])([H])c2c([H])c(OC([H])([H])C([H])(C([H])([H])[H])C([H])(C(=O)N([H])C([H])([H])[H])[N+]([H])=C(c3c([H])c(F)c([H])c(N([H])C(=O)N4C([H])([H])C([H])([H])C([H])([H])C([H])(n5nc(-c6c([H])c([H])c(Oc7c([H])c([H])c(F)c([H])c7F)c([H])c6[H])c(C(=O)N([H])[H])c5N([H])[H])C4([H])[H])c3F)N([H])[H])c([H])c([H])c2C1([H])[H]

$$$$
3:0:0
     RDKit          3D

 99108  0  0  1  0  0  0  0  0999 V2000
  -31.1860  -19.4670   20.4050 C   0  0  0  0  0  3  0  0  0  0  0  0
  -31.2540  -18.0510   20.5620 C   0  0  0  0  0  3  0  0  0  0  0  0
  -28.8910  -19.3310   19.6160 C   0  0  0  0  0  0  0  0  0  0  0  0
  -28.9380  -17.9010   19.8810 C   0  0  0  0  0  0  0  0  0  0  0  0
  -30.0270  -20.1490   19.9320 C   0  0  0  0  0  0  0  0  0  0  0  0
  -30.1390  -17.2180   20.2980 C   0  0  0  0  0  0  0  0  0  0  0  0
  -30.8600  -14.6840   19.9480 C   0  0  0  0  0  0  0  0  0  0  0  0
  -30.5740  -12.4230   18.9210 C   0  0  0  0  0  2  0  0  0  0  0  0
  -29.5430  -12.5080   17.7730 C   0  0  0  0  0  2  0  0  0  0  0  0
  -28.1070  -12.3220   18.3060 C   0  0  0  0  0  2  0  0  0  0  0  0
  -27.8150  -13.1960   19.5550 C   0  0  0  0  0  3  0  0  0  0  0  0
  -28.9630  -13.0950   20.5910 C   0  0  0  0  0  2  0  0  0  0  0  0
  -30.2280  -13.4570   19.9200 N   0  0  0  0  0  0  0  0  0  0  0  0
  -31.9730  -14.8360   19.4400 O   0  0  0  0  0  0  0  0  0  0  0  0
  -30.1380  -15.7380   20.4530 N   0  0  0  0  0  0  0  0  0  0  0  0
  -29.2760  -15.4010   20.8630 H   0  0  0  0  0  0  0  0  0  0  0  0
  -25.4630  -13.7400   20.4710 C   0  0  0  0  0  0  0  0  0  0  0  0
  -24.4380  -12.9620   20.9060 C   0  0  0  0  0  0  0  0  0  0  0  0
  -24.8960  -11.6190   20.7750 C   0  0  0  0  0  0  0  0  0  0  0  0
  -26.5040  -12.8890   20.1330 N   0  0  0  0  0  0  0  0  0  0  0  0
  -26.1630  -11.5940   20.3690 N   0  0  0  0  0  0  0  0  0  0  0  0
  -24.1720  -10.3610   20.9580 C   0  0  0  0  0  0  0  0  0  0  0  0
  -24.6030   -9.3920   21.8890 C   0  0  0  0  0  3  0  0  0  0  0  0
  -23.8730   -8.1980   22.0630 C   0  0  0  0  0  3  0  0  0  0  0  0
  -22.7020   -7.9650   21.3040 C   0  0  0  0  0  0  0  0  0  0  0  0
  -22.2900   -8.9240   20.3610 C   0  0  0  0  0  3  0  0  0  0  0  0
  -23.0200  -10.1100   20.1860 C   0  0  0  0  0  3  0  0  0  0  0  0
  -21.9450   -6.8230   21.3880 O   0  0  0  0  0  0  0  0  0  0  0  0
  -21.7990   -6.1450   22.5720 C   0  0  0  0  0  0  0  0  0  0  0  0
  -21.2630   -6.7640   23.7220 C   0  0  0  0  0  3  0  0  0  0  0  0
  -21.0640   -6.0120   24.8970 C   0  0  0  0  0  3  0  0  0  0  0  0
  -21.3930   -4.6430   24.9220 C   0  0  0  0  0  0  0  0  0  0  0  0
  -21.9250   -4.0260   23.7760 C   0  0  0  0  0  3  0  0  0  0  0  0
  -22.1240   -4.7750   22.6030 C   0  0  0  0  0  0  0  0  0  0  0  0
  -22.6170   -4.1710   21.4950 F   0  0  0  0  0  0  0  0  0  0  0  0
  -21.1960   -3.9180   26.0470 F   0  0  0  0  0  0  0  0  0  0  0  0
  -23.0740  -13.4410   21.3120 C   0  0  0  0  0  0  0  0  0  0  0  0
  -22.4190  -12.7250   22.2170 N   0  0  0  0  0  0  0  0  0  0  0  0
  -22.6030  -14.4900   20.8680 O   0  0  0  0  0  0  0  0  0  0  0  0
  -22.8170  -11.8780   22.5970 H   0  0  0  0  0  0  0  0  0  0  0  0
  -21.5100  -13.0260   22.5360 H   0  0  0  0  0  0  0  0  0  0  0  0
  -25.5420  -15.1050   20.3110 N   0  0  0  0  0  0  0  0  0  0  0  0
  -24.7660  -15.7180   20.5250 H   0  0  0  0  0  0  0  0  0  0  0  0
  -26.3290  -15.5940   19.8980 H   0  0  0  0  0  0  0  0  0  0  0  0
  -30.5150  -22.1710   18.5520 C   0  0  0  0  0  0  0  0  0  0  0  0
  -30.1860  -23.6670   18.4430 C   0  0  0  0  0  2  0  0  0  0  0  0
  -29.4060  -22.6760   20.5010 C   0  0  0  0  0  2  0  0  0  0  0  0
  -29.6190  -24.0780   19.8110 C   0  0  0  0  0  3  0  0  0  0  0  0
  -30.0740  -21.6100   19.6960 N   0  0  0  0  0  0  0  0  0  0  0  0
  -31.1210  -21.5800   17.6520 O   0  0  0  0  0  0  0  0  0  0  0  0
  -28.3610  -25.0570   19.7640 C   0  0  0  0  0  2  0  0  0  0  0  0
  -28.5590  -26.5090   19.5880 O   0  0  0  0  0  0  0  0  0  0  0  0
  -24.8830  -31.5760   23.1750 C   0  0  0  0  0  0  0  0  0  0  0  0
  -27.4280  -27.3400   19.6530 C   0  0  0  0  0  0  0  0  0  0  0  0
  -23.6520  -30.3880   21.3930 C   0  0  0  0  0  3  0  0  0  0  0  0
  -25.0770  -28.9660   19.8150 C   0  0  0  0  0  0  0  0  0  0  0  0
  -26.1960  -30.6790   21.2440 C   0  0  0  0  0  2  0  0  0  0  0  0
  -26.2520  -29.3760   20.4560 C   0  0  0  0  0  0  0  0  0  0  0  0
  -27.4290  -28.5770   20.3650 C   0  0  0  0  0  3  0  0  0  0  0  0
  -26.2290  -26.9810   18.9930 C   0  0  0  0  0  3  0  0  0  0  0  0
  -25.0670  -27.7720   19.0750 C   0  0  0  0  0  3  0  0  0  0  0  0
  -23.8560  -29.8530   19.9510 C   0  0  0  0  0  2  0  0  0  0  0  0
  -24.9290  -30.8900   21.9970 N   0  0  0  0  0  0  0  0  0  0  0  0
  -23.8050  -31.8190   23.7370 O   0  0  0  0  0  0  0  0  0  0  0  0
  -22.9640  -29.2910   22.2410 C   0  0  0  0  0  0  0  0  0  0  0  0
  -21.6300  -29.1850   22.1220 N   0  0  0  0  0  0  0  0  0  0  0  0
  -23.6290  -28.5430   22.9630 O   0  0  0  0  0  0  0  0  0  0  0  0
  -21.1550  -29.8420   21.5200 H   0  0  0  0  0  0  0  0  0  0  0  0
  -18.2050  -28.1290   22.6130 C   0  0  0  0  0  0  0  0  0  0  0  0
  -20.7840  -28.1960   22.7910 C   0  0  0  0  0  3  0  0  0  0  0  0
  -20.7690  -26.8570   22.0170 C   0  0  0  0  0  2  0  0  0  0  0  0
  -19.6080  -26.7490   21.0220 C   0  0  0  0  0  2  0  0  0  0  0  0
  -18.2650  -26.8810   21.7460 C   0  0  0  0  0  2  0  0  0  0  0  0
  -19.3870  -28.7540   23.0910 C   0  0  0  0  0  0  0  0  0  0  0  0
  -19.2760  -29.9300   23.8630 C   0  0  0  0  0  3  0  0  0  0  0  0
  -18.0140  -30.4780   24.1630 C   0  0  0  0  0  3  0  0  0  0  0  0
  -16.8470  -29.8470   23.6990 C   0  0  0  0  0  3  0  0  0  0  0  0
  -16.9430  -28.6740   22.9320 C   0  0  0  0  0  3  0  0  0  0  0  0
  -26.1800  -32.1070   23.8620 C   0  0  0  0  0  3  0  0  0  0  0  0
  -26.6550  -31.2110   25.0710 C   0  0  1  0  0  0  0  0  0  0  0  0
  -25.5430  -30.9300   26.1100 C   0  0  0  0  0  1  0  0  0  0  0  0
  -27.1840  -29.8480   24.5680 C   0  0  0  0  0  1  0  0  0  0  0  0
  -27.8290  -31.9000   25.8040 C   0  0  0  0  0  1  0  0  0  0  0  0
  -25.9140  -33.4810   24.3100 N   0  0  0  0  0  0  0  0  0  0  0  0
  -26.2710  -34.5850   23.6370 C   0  0  0  0  0  0  0  0  0  0  0  0
  -26.9290  -34.5480   22.5940 O   0  0  0  0  0  0  0  0  0  0  0  0
  -25.3320  -33.5860   25.1280 H   0  0  0  0  0  0  0  0  0  0  0  0
  -24.5900  -36.4470   23.4550 C   0  0  0  0  0  1  0  0  0  0  0  0
  -25.8290  -35.9430   24.2140 C   0  0  0  0  0  3  0  0  0  0  0  0
  -27.9940  -36.7010   25.0880 C   0  0  0  0  0  1  0  0  0  0  0  0
  -26.8900  -36.9730   24.1730 N   0  0  0  0  0  0  0  0  0  0  0  0
  -26.5110  -37.8900   24.3990 H   0  0  0  0  0  0  0  0  0  0  0  0
  -27.7400  -17.0080   19.5840 C   0  0  1  0  0  0  0  0  0  0  0  0
  -26.5410  -17.5640   19.6140 F   0  0  0  0  0  0  0  0  0  0  0  0
  -28.0090  -16.5600   18.3580 F   0  0  0  0  0  0  0  0  0  0  0  0
  -27.6300  -15.9800   20.4280 F   0  0  0  0  0  0  0  0  0  0  0  0
  -26.5390  -20.4830   19.7860 C   0  0  0  0  0  1  0  0  0  0  0  0
  -27.2720  -19.3790   17.5440 C   0  0  0  0  0  1  0  0  0  0  0  0
  -27.7040  -20.0200   18.8790 C   0  0  0  0  0  3  0  0  0  0  0  0
  1  2  1  0
  3  4  2  0
  3  5  1  0
  4  6  1  0
  5  1  2  0
  6 15  1  0
  6  2  2  0
  7 15  1  0
  8 13  1  0
  9 10  1  0
  9  8  1  0
 11 10  1  0
 11 20  1  0
 11 12  1  0
 13  7  1  0
 13 12  1  0
 14  7  2  0
 15 16  1  0
 17 18  2  0
 18 37  1  0
 19 18  1  0
 19 22  1  0
 20 21  1  0
 20 17  1  0
 21 19  2  0
 22 23  1  0
 23 24  2  0
 25 28  1  0
 25 24  1  0
 26 25  2  0
 27 26  1  0
 27 22  2  0
 28 29  1  0
 29 34  2  0
 29 30  1  0
 30 31  2  0
 31 32  1  0
 32 36  1  0
 33 32  2  0
 34 33  1  0
 35 34  1  0
 37 38  1  0
 38 41  1  0
 38 40  1  0
 39 37  2  0
 42 17  1  0
 42 43  1  0
 44 42  1  0
 45 49  1  0
 46 45  1  0
 46 48  1  0
 48 51  1  0
 48 47  1  0
 49  5  1  0
 49 47  1  0
 50 45  2  0
 52 54  1  0
 52 51  1  0
 53 64  2  0
 54 59  1  0
 55 63  1  0
 55 65  1  0
 56 62  1  0
 56 58  1  0
 57 63  1  0
 58 57  1  0
 59 58  2  0
 60 61  1  0
 60 54  2  0
 61 56  2  0
 62 55  1  0
 63 53  1  0
 65 67  2  0
 66 65  1  0
 68 66  1  0
 69 78  2  0
 69 74  1  0
 70 66  1  0
 70 74  1  0
 71 70  1  0
 72 73  1  0
 72 71  1  0
 73 69  1  0
 74 75  2  0
 75 76  1  0
 77 76  2  0
 78 77  1  0
 79 53  1  0
 79 84  1  0
 79 80  1  0
 80 83  1  1
 80 81  1  0
 82 80  1  0
 84 87  1  0
 85 89  1  0
 85 84  1  0
 86 85  2  0
 89 88  1  0
 91 89  1  0
 91 92  1  0
 91 90  1  0
 93 94  1  6
 93  4  1  0
 93 96  1  0
 95 93  1  0
 98 99  1  0
 99  3  1  0
 99 97  1  0
M  ISO  4   7 100  15 100  51 101  52 101
M  END
>  <TORSDO>  (4) 
F 20

>  <SCORE>  (4) 
-12.582

>  <name>  (4) 
3

>  <ligand_id>  (4) 
3

>  <original_smiles>  (4) 
[H]c1c([H])c([H])c2c(c1[H])C([H])([H])C([H])([H])C([H])([H])C2([H])N([H])C(=O)C1([H])N(C(=O)C([H])(N([H])C(=O)C([H])(N([H])C([H])([H])[H])C([H])([H])[H])C(C([H])([H])[H])(C([H])([H])[H])C([H])([H])[H])C([H])([H])c2c([H])c(OC([H])([H])C3([H])C([H])([H])C(=O)N(c4c([H])c([H])c(N([H])C(=O)N5C([H])([H])C([H])([H])C([H])([H])C([H])(n6nc(-c7c([H])c([H])c(Oc8c([H])c([H])c(F)c([H])c8F)c([H])c7[H])c(C(=O)N([H])[H])c6N([H])[H])C5([H])[H])c(C(F)(F)F)c4C([H])(C([H])([H])[H])C([H])([H])[H])C3([H])[H])c([H])c([H])c2C1([H])[H]

>  <smiles>  (4) 
[H]c1c([H])c([H])c2c(c1[H])C([H])([H])C([H])([H])C([H])([H])C2([H])N([H])C(=O)C1([H])N(C(=O)C([H])(N([H])C(=O)C([H])(N([H])C([H])([H])[H])C([H])([H])[H])C(C([H])([H])[H])(C([H])([H])[H])C([H])([H])[H])C([H])([H])c2c([H])c(OC([H])([H])C3([H])C([H])([H])C(=O)N(c4c([H])c([H])c(N([H])C(=O)N5C([H])([H])C([H])([H])C([H])([H])C([H])(n6nc(-c7c([H])c([H])c(Oc8c([H])c([H])c(F)c([H])c8F)c([H])c7[H])c(C(=O)N([H])[H])c6N([H])[H])C5([H])[H])c(C(F)(F)F)c4C([H])(C([H])([H])[H])C([H])([H])[H])C3([H])[H])c([H])c([H])c2C1([H])[H]

$$$$
4:0:0
     RDKit          3D

 93101  0  0  1  0  0  0  0  0999 V2000
  -29.6880  -22.1030   20.2140 C   0  0  0  0  0  0  0  0  0  0  0  0
  -29.4460  -20.7670   20.2800 N   0  0  0  0  0  0  0  0  0  0  0  0
  -30.8160  -22.6010   20.1960 O   0  0  0  0  0  0  0  0  0  0  0  0
  -28.4680  -20.5210   20.1990 H   0  0  0  0  0  0  0  0  0  0  0  0
  -31.7260  -19.8250   20.7080 C   0  0  0  0  0  3  0  0  0  0  0  0
  -32.0690  -17.4070   20.7280 C   0  0  0  0  0  3  0  0  0  0  0  0
  -29.8490  -18.3200   20.3150 C   0  0  0  0  0  3  0  0  0  0  0  0
  -32.5780  -18.7120   20.8610 C   0  0  0  0  0  0  0  0  0  0  0  0
  -30.3500  -19.6530   20.4220 C   0  0  0  0  0  0  0  0  0  0  0  0
  -30.7020  -17.1870   20.4420 C   0  0  0  0  0  0  0  0  0  0  0  0
  -34.0480  -18.9140   21.1690 C   0  0  0  0  0  1  0  0  0  0  0  0
  -30.8550  -14.7610   19.8630 C   0  0  0  0  0  0  0  0  0  0  0  0
  -30.4910  -12.5290   18.8690 C   0  0  0  0  0  2  0  0  0  0  0  0
  -29.4910  -12.6430   17.7020 C   0  0  0  0  0  2  0  0  0  0  0  0
  -28.0440  -12.5230   18.2160 C   0  0  0  0  0  2  0  0  0  0  0  0
  -27.7620  -13.4430   19.4350 C   0  0  0  0  0  3  0  0  0  0  0  0
  -28.8760  -13.3200   20.5000 C   0  0  0  0  0  2  0  0  0  0  0  0
  -30.1620  -13.5880   19.8380 N   0  0  0  0  0  0  0  0  0  0  0  0
  -31.9640  -14.8730   19.3360 O   0  0  0  0  0  0  0  0  0  0  0  0
  -30.1910  -15.8460   20.3310 N   0  0  0  0  0  0  0  0  0  0  0  0
  -29.2220  -15.7010   20.5690 H   0  0  0  0  0  0  0  0  0  0  0  0
  -25.4440  -14.0970   20.3360 C   0  0  0  0  0  0  0  0  0  0  0  0
  -24.3770  -13.3440   20.7490 C   0  0  0  0  0  0  0  0  0  0  0  0
  -24.7880  -11.9810   20.6370 C   0  0  0  0  0  0  0  0  0  0  0  0
  -26.4380  -13.1910   20.0000 N   0  0  0  0  0  0  0  0  0  0  0  0
  -26.0520  -11.9120   20.2380 N   0  0  0  0  0  0  0  0  0  0  0  0
  -24.0320  -10.7370   20.8300 C   0  0  0  0  0  0  0  0  0  0  0  0
  -24.4210   -9.7780   21.7920 C   0  0  0  0  0  3  0  0  0  0  0  0
  -23.6680   -8.5990   21.9710 C   0  0  0  0  0  3  0  0  0  0  0  0
  -22.5110   -8.3680   21.1890 C   0  0  0  0  0  0  0  0  0  0  0  0
  -22.1420   -9.3140   20.2170 C   0  0  0  0  0  3  0  0  0  0  0  0
  -22.8960  -10.4850   20.0350 C   0  0  0  0  0  3  0  0  0  0  0  0
  -21.7330   -7.2390   21.2770 O   0  0  0  0  0  0  0  0  0  0  0  0
  -21.5720   -6.5660   22.4610 C   0  0  0  0  0  0  0  0  0  0  0  0
  -20.9810   -7.1750   23.5900 C   0  0  0  0  0  3  0  0  0  0  0  0
  -20.7710   -6.4260   24.7640 C   0  0  0  0  0  3  0  0  0  0  0  0
  -21.1410   -5.0690   24.8110 C   0  0  0  0  0  0  0  0  0  0  0  0
  -21.7250   -4.4600   23.6870 C   0  0  0  0  0  3  0  0  0  0  0  0
  -21.9370   -5.2050   22.5140 C   0  0  0  0  0  0  0  0  0  0  0  0
  -22.4800   -4.6080   21.4260 F   0  0  0  0  0  0  0  0  0  0  0  0
  -20.9330   -4.3470   25.9370 F   0  0  0  0  0  0  0  0  0  0  0  0
  -23.0200  -13.8560   21.1370 C   0  0  0  0  0  0  0  0  0  0  0  0
  -22.3270  -13.1480   22.0220 N   0  0  0  0  0  0  0  0  0  0  0  0
  -22.5850  -14.9170   20.6890 O   0  0  0  0  0  0  0  0  0  0  0  0
  -22.6930  -12.2880   22.4040 H   0  0  0  0  0  0  0  0  0  0  0  0
  -21.4190  -13.4700   22.3230 H   0  0  0  0  0  0  0  0  0  0  0  0
  -25.6440  -15.4660   20.1980 N   0  0  0  0  0  0  0  0  0  0  0  0
  -24.9110  -16.1410   20.3850 H   0  0  0  0  0  0  0  0  0  0  0  0
  -26.4800  -15.8900   19.8150 H   0  0  0  0  0  0  0  0  0  0  0  0
  -28.4570  -23.0320   20.1230 C   0  0  0  0  0  2  0  0  0  0  0  0
  -28.6150  -24.4720   19.6010 C   0  0  0  0  0  3  0  0  0  0  0  0
  -27.9960  -25.5520   20.1290 C   0  0  0  0  0  3  0  0  0  0  0  0
  -28.0570  -26.8380   19.6160 O   0  0  0  0  0  0  0  0  0  0  0  0
  -24.4080  -31.9580   23.0270 C   0  0  0  0  0  0  0  0  0  0  0  0
  -26.8950  -27.5840   19.7100 C   0  0  0  0  0  0  0  0  0  0  0  0
  -23.1000  -30.5120   21.5080 C   0  0  0  0  0  3  0  0  0  0  0  0
  -24.4640  -29.0260   19.9440 C   0  0  0  0  0  0  0  0  0  0  0  0
  -25.5850  -30.9540   21.0690 C   0  0  0  0  0  2  0  0  0  0  0  0
  -25.6580  -29.5840   20.4220 C   0  0  0  0  0  0  0  0  0  0  0  0
  -26.8770  -28.8710   20.3020 C   0  0  0  0  0  3  0  0  0  0  0  0
  -25.6830  -27.0520   19.2150 C   0  0  0  0  0  3  0  0  0  0  0  0
  -24.4720  -27.7590   19.3360 C   0  0  0  0  0  3  0  0  0  0  0  0
  -23.2010  -29.8400   20.1130 C   0  0  0  0  0  2  0  0  0  0  0  0
  -24.3880  -31.1570   21.9250 N   0  0  0  0  0  0  0  0  0  0  0  0
  -23.3740  -32.1940   23.6670 O   0  0  0  0  0  0  0  0  0  0  0  0
  -22.5790  -29.4710   22.5230 C   0  0  0  0  0  0  0  0  0  0  0  0
  -21.2760  -29.1570   22.4440 N   0  0  0  0  0  0  0  0  0  0  0  0
  -23.3420  -28.9460   23.3380 O   0  0  0  0  0  0  0  0  0  0  0  0
  -20.7130  -29.6380   21.7540 H   0  0  0  0  0  0  0  0  0  0  0  0
  -18.0860  -27.5440   22.9790 C   0  0  0  0  0  0  0  0  0  0  0  0
  -20.5750  -28.1760   23.2710 C   0  0  0  0  0  3  0  0  0  0  0  0
  -20.8890  -26.7330   22.8120 C   0  0  0  0  0  2  0  0  0  0  0  0
  -19.8690  -26.1850   21.8070 C   0  0  0  0  0  2  0  0  0  0  0  0
  -18.4650  -26.1850   22.4150 C   0  0  0  0  0  2  0  0  0  0  0  0
  -19.0760  -28.4850   23.3670 C   0  0  0  0  0  0  0  0  0  0  0  0
  -18.6700  -29.7470   23.8510 C   0  0  0  0  0  3  0  0  0  0  0  0
  -17.3050  -30.0730   23.9540 C   0  0  0  0  0  3  0  0  0  0  0  0
  -16.3280  -29.1330   23.5840 C   0  0  0  0  0  3  0  0  0  0  0  0
  -16.7190  -27.8700   23.1030 C   0  0  0  0  0  3  0  0  0  0  0  0
  -25.7250  -32.6350   23.5220 C   0  0  0  0  0  3  0  0  0  0  0  0
  -26.4330  -31.8390   24.6860 C   0  0  1  0  0  0  0  0  0  0  0  0
  -25.4790  -31.4340   25.8350 C   0  0  0  0  0  1  0  0  0  0  0  0
  -27.0900  -30.5490   24.1430 C   0  0  0  0  0  1  0  0  0  0  0  0
  -27.5730  -32.6930   25.2880 C   0  0  0  0  0  1  0  0  0  0  0  0
  -25.3850  -33.9960   23.9560 N   0  0  0  0  0  0  0  0  0  0  0  0
  -25.6280  -35.1040   23.2430 C   0  0  0  0  0  0  0  0  0  0  0  0
  -26.2320  -35.0890   22.1670 O   0  0  0  0  0  0  0  0  0  0  0  0
  -24.8390  -34.0800   24.8010 H   0  0  0  0  0  0  0  0  0  0  0  0
  -23.8370  -36.8630   23.0740 C   0  0  0  0  0  1  0  0  0  0  0  0
  -25.1180  -36.4420   23.8130 C   0  0  0  0  0  3  0  0  0  0  0  0
  -27.2550  -37.3310   24.6340 C   0  0  0  0  0  1  0  0  0  0  0  0
  -26.1160  -37.5320   23.7420 N   0  0  0  0  0  0  0  0  0  0  0  0
  -25.6880  -38.4250   23.9700 H   0  0  0  0  0  0  0  0  0  0  0  0
  1  2  1  0
  2  9  1  0
  3  1  2  0
  4  2  1  0
  5  8  1  0
  6  8  2  0
  7  9  1  0
  7 10  2  0
  8 11  1  0
  9  5  2  0
 10  6  1  0
 12 20  1  0
 13 18  1  0
 14 15  1  0
 14 13  1  0
 16 15  1  0
 16 25  1  0
 16 17  1  0
 18 12  1  0
 18 17  1  0
 19 12  2  0
 20 10  1  0
 20 21  1  0
 22 23  2  0
 23 42  1  0
 24 23  1  0
 24 27  1  0
 25 26  1  0
 25 22  1  0
 26 24  2  0
 27 28  1  0
 28 29  2  0
 30 33  1  0
 30 29  1  0
 31 30  2  0
 32 31  1  0
 32 27  2  0
 33 34  1  0
 34 39  2  0
 34 35  1  0
 35 36  2  0
 36 37  1  0
 37 41  1  0
 38 37  2  0
 39 38  1  0
 40 39  1  0
 42 43  1  0
 43 46  1  0
 43 45  1  0
 44 42  2  0
 47 22  1  0
 47 48  1  0
 49 47  1  0
 50  1  1  0
 51 50  1  0
 51 52  2  0
 53 55  1  0
 53 52  1  0
 54 65  2  0
 55 60  1  0
 56 64  1  0
 56 66  1  0
 57 63  1  0
 57 59  1  0
 58 64  1  0
 59 58  1  0
 60 59  2  0
 61 62  1  0
 61 55  2  0
 62 57  2  0
 63 56  1  0
 64 54  1  0
 66 68  2  0
 67 66  1  0
 69 67  1  0
 70 79  2  0
 70 75  1  0
 71 67  1  0
 71 75  1  0
 72 71  1  0
 73 74  1  0
 73 72  1  0
 74 70  1  0
 75 76  2  0
 76 77  1  0
 78 77  2  0
 79 78  1  0
 80 54  1  0
 80 85  1  0
 80 81  1  0
 81 84  1  1
 81 82  1  0
 83 81  1  0
 85 88  1  0
 86 90  1  0
 86 85  1  0
 87 86  2  0
 90 89  1  0
 92 90  1  0
 92 93  1  0
 92 91  1  0
M  ISO  4  12 100  20 100  52 101  53 101
M  END
>  <TORSDO>  (5) 
F 19

>  <SCORE>  (5) 
-13.046

>  <name>  (5) 
4

>  <ligand_id>  (5) 
4

>  <original_smiles>  (5) 
[H]C(Oc1c([H])c([H])c2c(c1[H])C([H])([H])N(C(=O)C([H])(N([H])C(=O)C([H])(N([H])C([H])([H])[H])C([H])([H])[H])C(C([H])([H])[H])(C([H])([H])[H])C([H])([H])[H])C([H])(C(=O)N([H])C1([H])c3c([H])c([H])c([H])c([H])c3C([H])([H])C([H])([H])C1([H])[H])C2([H])[H])=C([H])C([H])([H])C(=O)N([H])c1c([H])c(N([H])C(=O)N2C([H])([H])C([H])([H])C([H])([H])C([H])(n3nc(-c4c([H])c([H])c(Oc5c([H])c([H])c(F)c([H])c5F)c([H])c4[H])c(C(=O)N([H])[H])c3N([H])[H])C2([H])[H])c([H])c(C([H])([H])[H])c1[H]

>  <smiles>  (5) 
[H]C(Oc1c([H])c([H])c2c(c1[H])C([H])([H])N(C(=O)C([H])(N([H])C(=O)C([H])(N([H])C([H])([H])[H])C([H])([H])[H])C(C([H])([H])[H])(C([H])([H])[H])C([H])([H])[H])C([H])(C(=O)N([H])C1([H])c3c([H])c([H])c([H])c([H])c3C([H])([H])C([H])([H])C1([H])[H])C2([H])[H])=C([H])C([H])([H])C(=O)N([H])c1c([H])c(N([H])C(=O)N2C([H])([H])C([H])([H])C([H])([H])C([H])(n3nc(-c4c([H])c([H])c(Oc5c([H])c([H])c(F)c([H])c5F)c([H])c4[H])c(C(=O)N([H])[H])c3N([H])[H])C2([H])[H])c([H])c(C([H])([H])[H])c1[H]

$$$$
5:0:0
     RDKit          3D

100108  0  0  1  0  0  0  0  0999 V2000
  -29.6310  -20.5190   21.7230 C   0  0  0  0  0  0  0  0  0  0  0  0
  -28.8220  -20.3270   22.7670 N   0  0  0  0  0  4  0  0  0  0  0  0
  -29.5390  -21.6580   21.0010 N   0  0  0  0  0  0  0  0  0  0  0  0
  -28.8080  -19.4190   23.2080 H   0  0  0  0  0  0  0  0  0  0  0  0
  -28.1920  -21.0290   23.1150 H   0  0  0  0  0  0  0  0  0  0  0  0
  -30.1420  -21.7240   20.1920 H   0  0  0  0  0  0  0  0  0  0  0  0
  -32.9150  -18.9880   20.6950 C   0  0  0  0  0  3  0  0  0  0  0  0
  -31.9360  -19.9280   21.0550 C   0  0  0  0  0  3  0  0  0  0  0  0
  -32.5970  -17.6190   20.6450 C   0  0  0  0  0  3  0  0  0  0  0  0
  -30.6270  -19.5020   21.3690 C   0  0  0  0  0  0  0  0  0  0  0  0
  -31.2860  -17.1650   20.9490 C   0  0  0  0  0  0  0  0  0  0  0  0
  -30.3140  -18.1180   21.3320 C   0  0  0  0  0  0  0  0  0  0  0  0
  -29.0670  -17.6810   21.6460 F   0  0  0  0  0  0  0  0  0  0  0  0
  -31.3840  -14.8000   20.1260 C   0  0  0  0  0  0  0  0  0  0  0  0
  -30.9350  -12.6640   18.9780 C   0  0  0  0  0  2  0  0  0  0  0  0
  -29.9420  -12.8810   17.8190 C   0  0  0  0  0  2  0  0  0  0  0  0
  -28.4930  -12.7640   18.3270 C   0  0  0  0  0  2  0  0  0  0  0  0
  -28.2300  -13.6190   19.5930 C   0  0  0  0  0  3  0  0  0  0  0  0
  -29.3380  -13.4120   20.6540 C   0  0  0  0  0  2  0  0  0  0  0  0
  -30.6420  -13.6640   20.0210 N   0  0  0  0  0  0  0  0  0  0  0  0
  -32.4440  -14.9330   19.5140 O   0  0  0  0  0  0  0  0  0  0  0  0
  -30.8650  -15.7950   20.8690 N   0  0  0  0  0  0  0  0  0  0  0  0
  -29.9750  -15.5990   21.3020 H   0  0  0  0  0  0  0  0  0  0  0  0
  -25.9040  -14.2540   20.4890 C   0  0  0  0  0  0  0  0  0  0  0  0
  -24.8360  -13.4900   20.8810 C   0  0  0  0  0  0  0  0  0  0  0  0
  -25.2470  -12.1300   20.7350 C   0  0  0  0  0  0  0  0  0  0  0  0
  -26.9010  -13.3560   20.1400 N   0  0  0  0  0  0  0  0  0  0  0  0
  -26.5130  -12.0700   20.3440 N   0  0  0  0  0  0  0  0  0  0  0  0
  -24.4890  -10.8810   20.8930 C   0  0  0  0  0  0  0  0  0  0  0  0
  -24.9080   -9.8710   21.7870 C   0  0  0  0  0  3  0  0  0  0  0  0
  -24.1540   -8.6880   21.9360 C   0  0  0  0  0  3  0  0  0  0  0  0
  -22.9700   -8.5020   21.1850 C   0  0  0  0  0  0  0  0  0  0  0  0
  -22.5680   -9.4990   20.2770 C   0  0  0  0  0  3  0  0  0  0  0  0
  -23.3230  -10.6760   20.1290 C   0  0  0  0  0  3  0  0  0  0  0  0
  -22.1890   -7.3730   21.2420 O   0  0  0  0  0  0  0  0  0  0  0  0
  -22.0480   -6.6520   22.4000 C   0  0  0  0  0  0  0  0  0  0  0  0
  -21.5570   -7.2370   23.5870 C   0  0  0  0  0  3  0  0  0  0  0  0
  -21.3630   -6.4460   24.7360 C   0  0  0  0  0  3  0  0  0  0  0  0
  -21.6530   -5.0680   24.7000 C   0  0  0  0  0  0  0  0  0  0  0  0
  -22.1390   -4.4820   23.5170 C   0  0  0  0  0  3  0  0  0  0  0  0
  -22.3340   -5.2720   22.3710 C   0  0  0  0  0  0  0  0  0  0  0  0
  -22.7810   -4.6980   21.2270 F   0  0  0  0  0  0  0  0  0  0  0  0
  -21.4620   -4.3040   25.8000 F   0  0  0  0  0  0  0  0  0  0  0  0
  -23.4760  -13.9910   21.2740 C   0  0  0  0  0  0  0  0  0  0  0  0
  -22.7920  -13.2720   22.1590 N   0  0  0  0  0  0  0  0  0  0  0  0
  -23.0320  -15.0500   20.8360 O   0  0  0  0  0  0  0  0  0  0  0  0
  -23.1620  -12.4090   22.5280 H   0  0  0  0  0  0  0  0  0  0  0  0
  -21.8840  -13.5880   22.4690 H   0  0  0  0  0  0  0  0  0  0  0  0
  -26.1010  -15.6250   20.3750 N   0  0  0  0  0  0  0  0  0  0  0  0
  -25.3570  -16.2930   20.5470 H   0  0  0  0  0  0  0  0  0  0  0  0
  -26.9300  -16.0500   19.9780 H   0  0  0  0  0  0  0  0  0  0  0  0
  -28.5630  -22.7590   21.1480 C   0  0  0  0  0  3  0  0  0  0  0  0
  -29.0570  -25.2760   21.1130 C   0  0  0  0  0  3  0  0  0  0  0  0
  -29.3160  -24.0350   21.5840 C   0  0  0  0  0  0  0  0  0  0  0  0
  -30.4070  -23.8000   22.6150 C   0  0  0  0  0  1  0  0  0  0  0  0
  -29.7540  -26.5690   21.5100 C   0  0  0  0  0  2  0  0  0  0  0  0
  -29.5960  -27.5650   20.4990 O   0  0  0  0  0  0  0  0  0  0  0  0
  -24.8330  -31.9440   23.4620 C   0  0  0  0  0  0  0  0  0  0  0  0
  -28.3460  -28.1340   20.4480 C   0  0  0  0  0  0  0  0  0  0  0  0
  -23.9890  -30.5060   21.6310 C   0  0  0  0  0  3  0  0  0  0  0  0
  -25.7720  -29.2770   20.2820 C   0  0  0  0  0  0  0  0  0  0  0  0
  -26.4410  -31.2210   21.7100 C   0  0  0  0  0  2  0  0  0  0  0  0
  -26.7780  -29.9180   21.0180 C   0  0  0  0  0  0  0  0  0  0  0  0
  -28.0650  -29.3490   21.1080 C   0  0  0  0  0  3  0  0  0  0  0  0
  -27.3320  -27.5010   19.7040 C   0  0  0  0  0  3  0  0  0  0  0  0
  -26.0430  -28.0610   19.6230 C   0  0  0  0  0  3  0  0  0  0  0  0
  -24.4170  -29.9480   20.2450 C   0  0  0  0  0  2  0  0  0  0  0  0
  -25.0980  -31.2360   22.3280 N   0  0  0  0  0  0  0  0  0  0  0  0
  -23.6790  -32.0400   23.9050 O   0  0  0  0  0  0  0  0  0  0  0  0
  -23.4010  -29.3470   22.4690 C   0  0  0  0  0  0  0  0  0  0  0  0
  -22.1080  -29.0550   22.2590 N   0  0  0  0  0  0  0  0  0  0  0  0
  -24.1080  -28.7180   23.2630 O   0  0  0  0  0  0  0  0  0  0  0  0
  -21.6000  -29.6250   21.5960 H   0  0  0  0  0  0  0  0  0  0  0  0
  -18.8180  -27.5890   22.5600 C   0  0  0  0  0  0  0  0  0  0  0  0
  -21.3500  -27.9820   22.9010 C   0  0  0  0  0  3  0  0  0  0  0  0
  -21.5530  -26.6390   22.1610 C   0  0  0  0  0  2  0  0  0  0  0  0
  -20.4820  -26.3680   21.0980 C   0  0  0  0  0  2  0  0  0  0  0  0
  -19.0890  -26.3440   21.7340 C   0  0  0  0  0  2  0  0  0  0  0  0
  -19.8800  -28.3680   23.0950 C   0  0  0  0  0  0  0  0  0  0  0  0
  -19.5750  -29.5370   23.8240 C   0  0  0  0  0  3  0  0  0  0  0  0
  -18.2380  -29.9310   24.0250 C   0  0  0  0  0  3  0  0  0  0  0  0
  -17.1900  -29.1480   23.5070 C   0  0  0  0  0  3  0  0  0  0  0  0
  -17.4810  -27.9800   22.7790 C   0  0  0  0  0  3  0  0  0  0  0  0
  -25.9630  -32.6920   24.2410 C   0  0  0  0  0  3  0  0  0  0  0  0
  -25.5190  -34.0790   24.4210 N   0  0  0  0  0  0  0  0  0  0  0  0
  -25.8790  -35.1010   23.6330 C   0  0  0  0  0  0  0  0  0  0  0  0
  -26.6890  -34.9830   22.7100 O   0  0  0  0  0  0  0  0  0  0  0  0
  -24.8100  -34.2380   25.1220 H   0  0  0  0  0  0  0  0  0  0  0  0
  -24.0890  -36.7220   22.9310 C   0  0  0  0  0  1  0  0  0  0  0  0
  -25.2420  -36.4750   23.9140 C   0  0  0  0  0  3  0  0  0  0  0  0
  -27.2000  -37.5770   24.9120 C   0  0  0  0  0  1  0  0  0  0  0  0
  -26.2050  -37.5970   23.8450 N   0  0  0  0  0  0  0  0  0  0  0  0
  -25.7180  -38.4880   23.8860 H   0  0  0  0  0  0  0  0  0  0  0  0
  -26.3080  -32.0250   25.6300 C   0  0  1  0  0  0  0  0  0  0  0  0
  -25.0640  -31.7490   26.5060 C   0  0  0  0  0  1  0  0  0  0  0  0
  -27.0500  -30.6800   25.4270 C   0  0  0  0  0  1  0  0  0  0  0  0
  -27.2530  -32.9510   26.4330 C   0  0  0  0  0  1  0  0  0  0  0  0
  -26.2580  -23.4230   20.2890 C   0  0  0  0  0  1  0  0  0  0  0  0
  -27.4570  -21.6110   19.0700 C   0  0  0  0  0  1  0  0  0  0  0  0
  -27.6510  -22.9060   19.8840 C   0  0  0  0  0  3  0  0  0  0  0  0
  1  2  2  0
  2  5  1  0
  2  4  1  0
  3 52  1  0
  3  1  1  0
  6  3  1  0
  7  8  1  0
  8 10  2  0
  9  7  2  0
  9 11  1  0
 10  1  1  0
 11 12  2  0
 12 10  1  0
 12 13  1  0
 14 22  1  0
 15 20  1  0
 16 17  1  0
 16 15  1  0
 18 17  1  0
 18 27  1  0
 18 19  1  0
 20 14  1  0
 20 19  1  0
 21 14  2  0
 22 11  1  0
 22 23  1  0
 24 25  2  0
 25 44  1  0
 26 25  1  0
 26 29  1  0
 27 28  1  0
 27 24  1  0
 28 26  2  0
 29 30  1  0
 30 31  2  0
 32 35  1  0
 32 31  1  0
 33 32  2  0
 34 33  1  0
 34 29  2  0
 35 36  1  0
 36 37  1  0
 37 38  2  0
 39 38  1  0
 39 43  1  0
 40 39  2  0
 41 36  2  0
 41 40  1  0
 42 41  1  0
 44 45  1  0
 45 48  1  0
 45 47  1  0
 46 44  2  0
 49 24  1  0
 49 50  1  0
 51 49  1  0
 52100  1  0
 52 54  1  0
 53 56  1  0
 53 54  2  0
 54 55  1  0
 57 56  1  0
 58 69  2  0
 59 57  1  0
 59 64  1  0
 60 68  1  0
 60 70  1  0
 61 63  1  0
 62 68  1  0
 63 64  2  0
 63 62  1  0
 65 59  2  0
 66 65  1  0
 66 61  2  0
 67 61  1  0
 67 60  1  0
 68 58  1  0
 70 72  2  0
 71 70  1  0
 73 71  1  0
 74 83  2  0
 74 79  1  0
 75 71  1  0
 75 79  1  0
 76 75  1  0
 77 78  1  0
 77 76  1  0
 78 74  1  0
 79 80  2  0
 80 81  1  0
 82 81  2  0
 83 82  1  0
 84 58  1  0
 84 85  1  0
 84 94  1  0
 85 88  1  0
 86 90  1  0
 86 85  1  0
 87 86  2  0
 90 89  1  0
 92 93  1  0
 92 90  1  0
 92 91  1  0
 94 97  1  1
 94 95  1  0
 96 94  1  0
 99100  1  0
100 98  1  0
M  ISO  4  14 100  22 100  56 101  57 101
M  END
>  <TORSDO>  (6) 
F 21

>  <SCORE>  (6) 
-9.401

>  <name>  (6) 
5

>  <ligand_id>  (6) 
5

>  <original_smiles>  (6) 
[H]C(=C(C([H])([H])[H])C([H])([N+]([H])=C(c1c([H])c([H])c([H])c(N([H])C(=O)N2C([H])([H])C([H])([H])C([H])([H])C([H])(n3nc(-c4c([H])c([H])c(Oc5c([H])c([H])c(F)c([H])c5F)c([H])c4[H])c(C(=O)N([H])[H])c3N([H])[H])C2([H])[H])c1F)N([H])[H])C([H])(C([H])([H])[H])C([H])([H])[H])C([H])([H])Oc1c([H])c([H])c2c(c1[H])C([H])([H])N(C(=O)C([H])(N([H])C(=O)C([H])(N([H])C([H])([H])[H])C([H])([H])[H])C(C([H])([H])[H])(C([H])([H])[H])C([H])([H])[H])C([H])(C(=O)N([H])C1([H])c3c([H])c([H])c([H])c([H])c3C([H])([H])C([H])([H])C1([H])[H])C2([H])[H]

>  <smiles>  (6) 
[H]C(=C(C([H])([H])[H])C([H])([N+]([H])=C(c1c([H])c([H])c([H])c(N([H])C(=O)N2C([H])([H])C([H])([H])C([H])([H])C([H])(n3nc(-c4c([H])c([H])c(Oc5c([H])c([H])c(F)c([H])c5F)c([H])c4[H])c(C(=O)N([H])[H])c3N([H])[H])C2([H])[H])c1F)N([H])[H])C([H])(C([H])([H])[H])C([H])([H])[H])C([H])([H])Oc1c([H])c([H])c2c(c1[H])C([H])([H])N(C(=O)C([H])(N([H])C(=O)C([H])(N([H])C([H])([H])[H])C([H])([H])[H])C(C([H])([H])[H])(C([H])([H])[H])C([H])([H])[H])C([H])(C(=O)N([H])C1([H])c3c([H])c([H])c([H])c([H])c3C([H])([H])C([H])([H])C1([H])[H])C2([H])[H]

$$$$
6:0:0
     RDKit          3D

 96106  0  0  1  0  0  0  0  0999 V2000
  -29.8190  -20.6850   19.0720 C   0  0  0  0  0  0  0  0  0  0  0  0
  -29.0890  -22.1080   18.9560 C   0  0  0  0  0  2  0  0  0  0  0  0
  -29.7100  -22.4800   21.3190 C   0  0  0  0  0  2  0  0  0  0  0  0
  -29.4320  -20.8980   21.3860 C   0  0  0  0  0  2  0  0  0  0  0  0
  -29.3750  -23.2750   19.9980 C   0  0  0  0  0  3  0  0  0  0  0  0
  -29.8250  -19.9810   20.2540 N   0  0  0  0  0  0  0  0  0  0  0  0
  -30.3580  -20.2450   18.0530 O   0  0  0  0  0  0  0  0  0  0  0  0
  -29.9870  -17.0440   18.0320 C   0  0  0  0  0  3  0  0  0  0  0  0
  -28.6940  -17.3220   18.5310 C   0  0  0  0  0  3  0  0  0  0  0  0
  -31.0990  -17.1620   18.8940 C   0  0  0  0  0  3  0  0  0  0  0  0
  -28.5400  -17.9630   19.7860 C   0  0  0  0  0  0  0  0  0  0  0  0
  -29.7390  -18.4440   20.3800 C   0  0  0  0  0  3  0  0  0  0  0  0
  -30.8100  -17.4140   20.2540 C   0  0  0  0  0  3  0  0  0  0  0  0
  -31.3950  -14.8230   20.6410 C   0  0  0  0  0  0  0  0  0  0  0  0
  -31.1520  -12.4840   19.7320 C   0  0  0  0  0  2  0  0  0  0  0  0
  -30.3080  -12.5210   18.4350 C   0  0  0  0  0  2  0  0  0  0  0  0
  -28.8070  -12.4280   18.7630 C   0  0  0  0  0  2  0  0  0  0  0  0
  -28.3910  -13.3910   19.9050 C   0  0  0  0  0  3  0  0  0  0  0  0
  -29.3610  -13.3240   21.1060 C   0  0  0  0  0  2  0  0  0  0  0  0
  -30.7110  -13.6100   20.6040 N   0  0  0  0  0  0  0  0  0  0  0  0
  -32.5910  -14.8170   20.3370 O   0  0  0  0  0  0  0  0  0  0  0  0
  -30.7190  -16.0380   20.9000 N   0  0  0  0  0  0  0  0  0  0  0  0
  -29.8430  -15.8970   21.3800 H   0  0  0  0  0  0  0  0  0  0  0  0
  -25.9910  -14.1250   20.4140 C   0  0  0  0  0  0  0  0  0  0  0  0
  -24.8580  -13.4350   20.7390 C   0  0  0  0  0  0  0  0  0  0  0  0
  -25.2450  -12.0620   20.7990 C   0  0  0  0  0  0  0  0  0  0  0  0
  -27.0010  -13.1880   20.3040 N   0  0  0  0  0  0  0  0  0  0  0  0
  -26.5520  -11.9400   20.5960 N   0  0  0  0  0  0  0  0  0  0  0  0
  -24.4290  -10.8570   20.9760 C   0  0  0  0  0  0  0  0  0  0  0  0
  -24.7600   -9.8740   21.9330 C   0  0  0  0  0  3  0  0  0  0  0  0
  -23.9430   -8.7360   22.1020 C   0  0  0  0  0  3  0  0  0  0  0  0
  -22.7830   -8.5710   21.3070 C   0  0  0  0  0  0  0  0  0  0  0  0
  -22.4720   -9.5390   20.3340 C   0  0  0  0  0  3  0  0  0  0  0  0
  -23.2910  -10.6700   20.1660 C   0  0  0  0  0  3  0  0  0  0  0  0
  -21.9460   -7.4840   21.3800 O   0  0  0  0  0  0  0  0  0  0  0  0
  -21.8500   -6.7250   22.5180 C   0  0  0  0  0  0  0  0  0  0  0  0
  -21.5000   -7.2910   23.7630 C   0  0  0  0  0  3  0  0  0  0  0  0
  -21.3460   -6.4650   24.8930 C   0  0  0  0  0  3  0  0  0  0  0  0
  -21.5320   -5.0740   24.7790 C   0  0  0  0  0  0  0  0  0  0  0  0
  -21.8770   -4.5080   23.5390 C   0  0  0  0  0  3  0  0  0  0  0  0
  -22.0330   -5.3320   22.4110 C   0  0  0  0  0  0  0  0  0  0  0  0
  -22.3420   -4.7790   21.2140 F   0  0  0  0  0  0  0  0  0  0  0  0
  -21.3760   -4.2780   25.8640 F   0  0  0  0  0  0  0  0  0  0  0  0
  -23.4770  -14.0070   20.8810 C   0  0  0  0  0  0  0  0  0  0  0  0
  -22.6590  -13.4180   21.7470 N   0  0  0  0  0  0  0  0  0  0  0  0
  -23.1340  -15.0150   20.2630 O   0  0  0  0  0  0  0  0  0  0  0  0
  -22.9520  -12.6090   22.2750 H   0  0  0  0  0  0  0  0  0  0  0  0
  -21.7280  -13.7850   21.8870 H   0  0  0  0  0  0  0  0  0  0  0  0
  -26.2360  -15.4650   20.1760 N   0  0  0  0  0  4  0  0  0  0  0  0
  -25.5160  -16.1680   20.2960 H   0  0  0  0  0  0  0  0  0  0  0  0
  -27.1450  -15.8590   19.9720 H   0  0  0  0  0  0  0  0  0  0  0  0
  -26.4650  -16.9640   20.8700 C   0  0  0  0  0  2  0  0  0  0  0  0
  -26.2270  -18.9920   19.3500 C   0  0  0  0  0  1  0  0  0  0  0  0
  -27.1380  -18.2390   20.3470 C   0  0  0  0  0  3  0  0  0  0  0  0
  -28.2740  -24.5360   20.0040 C   0  0  0  0  0  2  0  0  0  0  0  0
  -28.4890  -26.0560   20.1280 O   0  0  0  0  0  0  0  0  0  0  0  0
  -24.5320  -31.6380   22.7940 C   0  0  0  0  0  0  0  0  0  0  0  0
  -27.3810  -26.9620   19.9980 C   0  0  0  0  0  0  0  0  0  0  0  0
  -23.4290  -30.1380   21.1800 C   0  0  0  0  0  3  0  0  0  0  0  0
  -24.9740  -28.5760   19.8540 C   0  0  0  0  0  0  0  0  0  0  0  0
  -25.9710  -30.5090   21.0650 C   0  0  0  0  0  2  0  0  0  0  0  0
  -26.1160  -29.1000   20.4700 C   0  0  0  0  0  0  0  0  0  0  0  0
  -27.3190  -28.3080   20.5300 C   0  0  0  0  0  3  0  0  0  0  0  0
  -26.2080  -26.5300   19.3360 C   0  0  0  0  0  3  0  0  0  0  0  0
  -25.0280  -27.3010   19.2750 C   0  0  0  0  0  3  0  0  0  0  0  0
  -23.7120  -29.4230   19.8330 C   0  0  0  0  0  2  0  0  0  0  0  0
  -24.6620  -30.7840   21.7360 N   0  0  0  0  0  0  0  0  0  0  0  0
  -23.4230  -31.9000   23.2860 O   0  0  0  0  0  0  0  0  0  0  0  0
  -22.7660  -29.1420   22.1630 C   0  0  0  0  0  0  0  0  0  0  0  0
  -21.4340  -28.9790   22.0670 N   0  0  0  0  0  0  0  0  0  0  0  0
  -23.4510  -28.5140   22.9740 O   0  0  0  0  0  0  0  0  0  0  0  0
  -20.9390  -29.5330   21.3820 H   0  0  0  0  0  0  0  0  0  0  0  0
  -18.0580  -27.8290   22.6720 C   0  0  0  0  0  0  0  0  0  0  0  0
  -20.6250  -28.0530   22.8650 C   0  0  0  0  0  3  0  0  0  0  0  0
  -20.6880  -26.6200   22.2900 C   0  0  0  0  0  2  0  0  0  0  0  0
  -19.5560  -26.3200   21.2980 C   0  0  0  0  0  2  0  0  0  0  0  0
  -18.1930  -26.4830   21.9810 C   0  0  0  0  0  2  0  0  0  0  0  0
  -19.1980  -28.5750   23.0700 C   0  0  0  0  0  0  0  0  0  0  0  0
  -19.0140  -29.8390   23.6710 C   0  0  0  0  0  3  0  0  0  0  0  0
  -17.7220  -30.3580   23.8780 C   0  0  0  0  0  3  0  0  0  0  0  0
  -16.5960  -29.6070   23.5010 C   0  0  0  0  0  3  0  0  0  0  0  0
  -16.7640  -28.3450   22.9040 C   0  0  0  0  0  3  0  0  0  0  0  0
  -25.7720  -32.3450   23.4250 C   0  0  0  0  0  3  0  0  0  0  0  0
  -26.3750  -31.5580   24.6520 C   0  0  1  0  0  0  0  0  0  0  0  0
  -25.3300  -31.1890   25.7310 C   0  0  0  0  0  1  0  0  0  0  0  0
  -27.0500  -30.2460   24.1870 C   0  0  0  0  0  1  0  0  0  0  0  0
  -27.4760  -32.4050   25.3280 C   0  0  0  0  0  1  0  0  0  0  0  0
  -25.3550  -33.6960   23.8340 N   0  0  0  0  0  0  0  0  0  0  0  0
  -25.7230  -34.8270   23.2190 C   0  0  0  0  0  0  0  0  0  0  0  0
  -26.5120  -34.8460   22.2710 O   0  0  0  0  0  0  0  0  0  0  0  0
  -24.6620  -33.7530   24.5650 H   0  0  0  0  0  0  0  0  0  0  0  0
  -23.9860  -36.6020   22.8070 C   0  0  0  0  0  1  0  0  0  0  0  0
  -25.1220  -36.1480   23.7370 C   0  0  0  0  0  3  0  0  0  0  0  0
  -27.0850  -37.0070   24.9380 C   0  0  0  0  0  1  0  0  0  0  0  0
  -26.1150  -37.2360   23.8700 N   0  0  0  0  0  0  0  0  0  0  0  0
  -25.6530  -38.1240   24.0460 H   0  0  0  0  0  0  0  0  0  0  0  0
  1  6  1  0
  2  1  1  0
  2  5  1  0
  3  4  1  0
  5 55  1  0
  5  3  1  0
  6  4  1  0
  7  1  2  0
  8  9  1  0
  8 10  2  0
  9 11  2  0
 11 54  1  0
 11 12  1  0
 12  6  1  0
 13 10  1  0
 13 12  1  0
 13 22  1  0
 14 22  1  0
 15 20  1  0
 16 17  1  0
 16 15  1  0
 18 17  1  0
 18 27  1  0
 18 19  1  0
 20 14  1  0
 20 19  1  0
 21 14  2  0
 22 23  1  0
 24 25  2  0
 25 26  1  0
 25 44  1  0
 26 29  1  0
 27 24  1  0
 27 28  1  0
 28 26  2  0
 29 30  1  0
 30 31  2  0
 32 35  1  0
 32 31  1  0
 33 32  2  0
 34 33  1  0
 34 29  2  0
 35 36  1  0
 36 37  1  0
 37 38  2  0
 39 38  1  0
 39 43  1  0
 40 39  2  0
 41 36  2  0
 41 40  1  0
 42 41  1  0
 44 45  1  0
 45 48  1  0
 45 47  1  0
 46 44  2  0
 49 50  1  0
 49 24  1  0
 49 52  1  0
 51 49  1  0
 54 53  1  0
 54 52  1  0
 55 56  1  0
 57 68  2  0
 58 56  1  0
 58 63  1  0
 59 67  1  0
 59 69  1  0
 60 62  1  0
 61 67  1  0
 62 63  2  0
 62 61  1  0
 64 58  2  0
 65 64  1  0
 65 60  2  0
 66 60  1  0
 66 59  1  0
 67 57  1  0
 69 71  2  0
 70 69  1  0
 72 70  1  0
 73 82  2  0
 73 78  1  0
 74 70  1  0
 74 78  1  0
 75 74  1  0
 76 77  1  0
 76 75  1  0
 77 73  1  0
 78 79  2  0
 79 80  1  0
 81 80  2  0
 82 81  1  0
 83 57  1  0
 83 88  1  0
 83 84  1  0
 84 87  1  1
 84 85  1  0
 86 84  1  0
 88 91  1  0
 89 93  1  0
 89 88  1  0
 90 89  2  0
 93 92  1  0
 93 95  1  0
 95 96  1  0
 95 94  1  0
M  ISO  4  14 100  22 100  55 101  56 101
M  END
>  <TORSDO>  (7) 
F 19

>  <SCORE>  (7) 
-12.060

>  <name>  (7) 
6

>  <ligand_id>  (7) 
6

>  <original_smiles>  (7) 
[H]c1c([H])c([H])c2c(c1[H])C([H])([H])C([H])([H])C([H])([H])C2([H])N([H])C(=O)C1([H])N(C(=O)C([H])(N([H])C(=O)C([H])(N([H])C([H])([H])[H])C([H])([H])[H])C(C([H])([H])[H])(C([H])([H])[H])C([H])([H])[H])C([H])([H])c2c([H])c(OC([H])([H])C3([H])C([H])([H])C(=O)N(c4c(N([H])C(=O)N5C([H])([H])C([H])([H])C([H])([H])C([H])(n6nc(-c7c([H])c([H])c(Oc8c([H])c([H])c(F)c([H])c8F)c([H])c7[H])c(C(=O)N([H])[H])c6N([H])[H])C5([H])[H])c([H])c([H])c([H])c4C([H])(C([H])([H])[H])C([H])([H])[H])C([H])([H])C3([H])[H])c([H])c([H])c2C1([H])[H]

>  <smiles>  (7) 
[H]c1c([H])c([H])c2c(c1[H])C([H])([H])C([H])([H])C([H])([H])C2([H])N([H])C(=O)C1([H])N(C(=O)C([H])(N([H])C(=O)C([H])(N([H])C([H])([H])[H])C([H])([H])[H])C(C([H])([H])[H])(C([H])([H])[H])C([H])([H])[H])C([H])([H])c2c([H])c(OC([H])([H])C3([H])C([H])([H])C(=O)N(c4c(N([H])C(=O)N5C([H])([H])C([H])([H])C([H])([H])C([H])(n6nc(-c7c([H])c([H])c(Oc8c([H])c([H])c(F)c([H])c8F)c([H])c7[H])c(C(=O)N([H])[H])c6N([H])[H])C5([H])[H])c([H])c([H])c([H])c4C([H])(C([H])([H])[H])C([H])([H])[H])C([H])([H])C3([H])[H])c([H])c([H])c2C1([H])[H]

$$$$
7:0:0
     RDKit          3D

 94102  0  0  1  0  0  0  0  0999 V2000
  -30.9660  -21.2590   20.1110 C   0  0  0  0  0  2  0  0  0  0  0  0
  -30.7340  -18.9190   19.1400 C   0  0  0  0  0  3  0  0  0  0  0  0
  -30.5940  -17.5210   19.2680 C   0  0  0  0  0  3  0  0  0  0  0  0
  -30.7130  -19.7570   20.2770 C   0  0  0  0  0  0  0  0  0  0  0  0
  -30.4330  -16.9240   20.5420 C   0  0  0  0  0  0  0  0  0  0  0  0
  -30.5340  -19.1660   21.5500 C   0  0  0  0  0  0  0  0  0  0  0  0
  -30.3820  -17.7630   21.6770 C   0  0  0  0  0  0  0  0  0  0  0  0
  -30.5230  -19.9410   22.6600 F   0  0  0  0  0  0  0  0  0  0  0  0
  -30.1980  -17.2160   22.9040 F   0  0  0  0  0  0  0  0  0  0  0  0
  -30.9170  -14.5210   20.0940 C   0  0  0  0  0  0  0  0  0  0  0  0
  -30.5430  -12.3990   18.9140 C   0  0  0  0  0  2  0  0  0  0  0  0
  -29.5360  -12.6630   17.7770 C   0  0  0  0  0  2  0  0  0  0  0  0
  -28.0870  -12.5270   18.2850 C   0  0  0  0  0  2  0  0  0  0  0  0
  -27.8310  -13.3080   19.6000 C   0  0  0  0  0  3  0  0  0  0  0  0
  -28.9500  -13.0350   20.6330 C   0  0  0  0  0  2  0  0  0  0  0  0
  -30.2430  -13.3430   20.0000 N   0  0  0  0  0  0  0  0  0  0  0  0
  -32.0100  -14.7070   19.5530 O   0  0  0  0  0  0  0  0  0  0  0  0
  -30.2610  -15.5150   20.7200 N   0  0  0  0  0  0  0  0  0  0  0  0
  -29.4840  -15.2370   21.2970 H   0  0  0  0  0  0  0  0  0  0  0  0
  -25.4830  -13.8940   20.4790 C   0  0  0  0  0  0  0  0  0  0  0  0
  -24.4320  -13.1130   20.8760 C   0  0  0  0  0  0  0  0  0  0  0  0
  -24.8770  -11.7600   20.7570 C   0  0  0  0  0  0  0  0  0  0  0  0
  -26.5050  -13.0180   20.1460 N   0  0  0  0  0  0  0  0  0  0  0  0
  -26.1460  -11.7260   20.3680 N   0  0  0  0  0  0  0  0  0  0  0  0
  -24.1530  -10.4950   20.9340 C   0  0  0  0  0  0  0  0  0  0  0  0
  -24.5390   -9.5540   21.9130 C   0  0  0  0  0  3  0  0  0  0  0  0
  -23.8170   -8.3530   22.0780 C   0  0  0  0  0  3  0  0  0  0  0  0
  -22.6930   -8.0850   21.2620 C   0  0  0  0  0  0  0  0  0  0  0  0
  -22.3240   -9.0150   20.2750 C   0  0  0  0  0  3  0  0  0  0  0  0
  -23.0480  -10.2070   20.1090 C   0  0  0  0  0  3  0  0  0  0  0  0
  -21.9450   -6.9330   21.3330 O   0  0  0  0  0  0  0  0  0  0  0  0
  -21.7030   -6.3040   22.5280 C   0  0  0  0  0  0  0  0  0  0  0  0
  -21.0340   -6.9530   23.5900 C   0  0  0  0  0  3  0  0  0  0  0  0
  -20.7450   -6.2470   24.7750 C   0  0  0  0  0  3  0  0  0  0  0  0
  -21.1130   -4.8940   24.8970 C   0  0  0  0  0  0  0  0  0  0  0  0
  -21.7730   -4.2460   23.8400 C   0  0  0  0  0  3  0  0  0  0  0  0
  -22.0640   -4.9480   22.6580 C   0  0  0  0  0  0  0  0  0  0  0  0
  -22.6820   -4.3130   21.6340 F   0  0  0  0  0  0  0  0  0  0  0  0
  -20.8280   -4.2130   26.0320 F   0  0  0  0  0  0  0  0  0  0  0  0
  -23.0580  -13.5870   21.2570 C   0  0  0  0  0  0  0  0  0  0  0  0
  -22.3890  -12.8750   22.1550 N   0  0  0  0  0  0  0  0  0  0  0  0
  -22.5880  -14.6250   20.7930 O   0  0  0  0  0  0  0  0  0  0  0  0
  -22.7790  -12.0340   22.5580 H   0  0  0  0  0  0  0  0  0  0  0  0
  -21.4710  -13.1760   22.4500 H   0  0  0  0  0  0  0  0  0  0  0  0
  -25.6520  -15.2700   20.3530 N   0  0  0  0  0  0  0  0  0  0  0  0
  -24.9030  -15.9300   20.5330 H   0  0  0  0  0  0  0  0  0  0  0  0
  -26.4980  -15.7130   20.0180 H   0  0  0  0  0  0  0  0  0  0  0  0
  -29.8490  -23.4760   20.2130 C   0  0  0  0  0  0  0  0  0  0  0  0
  -29.8110  -22.1350   20.3360 N   0  0  0  0  0  0  0  0  0  0  0  0
  -30.8720  -24.0640   19.8540 O   0  0  0  0  0  0  0  0  0  0  0  0
  -28.9440  -21.6980   20.6160 H   0  0  0  0  0  0  0  0  0  0  0  0
  -28.5710  -24.2720   20.5410 C   0  0  0  0  0  2  0  0  0  0  0  0
  -28.8050  -25.6670   21.1890 C   0  0  0  0  0  2  0  0  0  0  0  0
  -28.8020  -26.7740   20.2700 O   0  0  0  0  0  0  0  0  0  0  0  0
  -24.7160  -31.7970   23.2570 C   0  0  0  0  0  0  0  0  0  0  0  0
  -27.6200  -27.4800   20.2400 C   0  0  0  0  0  0  0  0  0  0  0  0
  -23.6200  -30.3770   21.5520 C   0  0  0  0  0  3  0  0  0  0  0  0
  -25.1770  -28.9000   20.1710 C   0  0  0  0  0  0  0  0  0  0  0  0
  -26.1380  -30.8200   21.4570 C   0  0  0  0  0  2  0  0  0  0  0  0
  -26.2930  -29.4590   20.8080 C   0  0  0  0  0  0  0  0  0  0  0  0
  -27.5200  -28.7560   20.8390 C   0  0  0  0  0  3  0  0  0  0  0  0
  -26.4910  -26.9310   19.6010 C   0  0  0  0  0  3  0  0  0  0  0  0
  -25.2700  -27.6330   19.5670 C   0  0  0  0  0  3  0  0  0  0  0  0
  -23.9050  -29.7180   20.1760 C   0  0  0  0  0  2  0  0  0  0  0  0
  -24.8410  -31.0110   22.1490 N   0  0  0  0  0  0  0  0  0  0  0  0
  -23.6070  -32.0290   23.7580 O   0  0  0  0  0  0  0  0  0  0  0  0
  -22.9640  -29.3250   22.4750 C   0  0  0  0  0  0  0  0  0  0  0  0
  -21.6490  -29.1130   22.3020 N   0  0  0  0  0  0  0  0  0  0  0  0
  -23.6360  -28.7040   23.3020 O   0  0  0  0  0  0  0  0  0  0  0  0
  -21.1650  -29.6700   21.6110 H   0  0  0  0  0  0  0  0  0  0  0  0
  -18.2860  -27.8480   22.6830 C   0  0  0  0  0  0  0  0  0  0  0  0
  -20.8310  -28.1430   23.0290 C   0  0  0  0  0  3  0  0  0  0  0  0
  -20.9740  -26.7280   22.4220 C   0  0  0  0  0  2  0  0  0  0  0  0
  -19.9050  -26.4110   21.3720 C   0  0  0  0  0  2  0  0  0  0  0  0
  -18.5050  -26.5170   21.9830 C   0  0  0  0  0  2  0  0  0  0  0  0
  -19.3800  -28.6180   23.1600 C   0  0  0  0  0  0  0  0  0  0  0  0
  -19.1240  -29.8640   23.7730 C   0  0  0  0  0  3  0  0  0  0  0  0
  -17.8070  -30.3410   23.9130 C   0  0  0  0  0  3  0  0  0  0  0  0
  -16.7280  -29.5670   23.4550 C   0  0  0  0  0  3  0  0  0  0  0  0
  -16.9680  -28.3220   22.8450 C   0  0  0  0  0  3  0  0  0  0  0  0
  -25.9570  -32.4590   23.9340 C   0  0  0  0  0  3  0  0  0  0  0  0
  -26.4450  -31.6930   25.2240 C   0  0  1  0  0  0  0  0  0  0  0  0
  -25.3180  -31.4120   26.2440 C   0  0  0  0  0  1  0  0  0  0  0  0
  -27.0880  -30.3390   24.8440 C   0  0  0  0  0  1  0  0  0  0  0  0
  -27.5400  -32.5170   25.9410 C   0  0  0  0  0  1  0  0  0  0  0  0
  -25.5970  -33.8460   24.2570 N   0  0  0  0  0  0  0  0  0  0  0  0
  -25.9240  -34.9090   23.5100 C   0  0  0  0  0  0  0  0  0  0  0  0
  -26.6300  -34.8280   22.5010 O   0  0  0  0  0  0  0  0  0  0  0  0
  -24.9740  -33.9810   25.0400 H   0  0  0  0  0  0  0  0  0  0  0  0
  -24.1570  -36.6510   23.0990 C   0  0  0  0  0  1  0  0  0  0  0  0
  -25.3810  -36.2810   23.9530 C   0  0  0  0  0  3  0  0  0  0  0  0
  -27.4520  -37.2320   24.8660 C   0  0  0  0  0  1  0  0  0  0  0  0
  -26.3870  -37.3630   23.8750 N   0  0  0  0  0  0  0  0  0  0  0  0
  -25.9480  -38.2730   24.0000 H   0  0  0  0  0  0  0  0  0  0  0  0
  1  4  1  0
  1 49  1  0
  2  3  2  0
  2  4  1  0
  3  5  1  0
  4  6  2  0
  5 18  1  0
  5  7  2  0
  6  7  1  0
  6  8  1  0
  7  9  1  0
 10 18  1  0
 11 16  1  0
 12 13  1  0
 12 11  1  0
 14 13  1  0
 14 23  1  0
 14 15  1  0
 16 10  1  0
 16 15  1  0
 17 10  2  0
 18 19  1  0
 20 21  2  0
 21 40  1  0
 22 21  1  0
 22 25  1  0
 23 24  1  0
 23 20  1  0
 24 22  2  0
 25 26  1  0
 26 27  2  0
 28 31  1  0
 28 27  1  0
 29 28  2  0
 30 29  1  0
 30 25  2  0
 31 32  1  0
 32 37  2  0
 32 33  1  0
 33 34  2  0
 34 35  1  0
 35 39  1  0
 36 35  2  0
 37 36  1  0
 38 37  1  0
 40 41  1  0
 41 44  1  0
 41 43  1  0
 42 40  2  0
 45 20  1  0
 45 46  1  0
 47 45  1  0
 48 49  1  0
 48 52  1  0
 49 51  1  0
 50 48  2  0
 52 53  1  0
 54 53  1  0
 55 66  2  0
 56 54  1  0
 56 61  1  0
 57 65  1  0
 57 67  1  0
 58 64  1  0
 58 60  1  0
 59 65  1  0
 60 61  2  0
 60 59  1  0
 62 56  2  0
 63 62  1  0
 63 58  2  0
 64 57  1  0
 65 55  1  0
 67 69  2  0
 68 67  1  0
 70 68  1  0
 71 80  2  0
 71 76  1  0
 72 68  1  0
 72 76  1  0
 73 72  1  0
 74 75  1  0
 74 73  1  0
 75 71  1  0
 76 77  2  0
 77 78  1  0
 79 78  2  0
 80 79  1  0
 81 55  1  0
 81 86  1  0
 81 82  1  0
 82 85  1  1
 82 83  1  0
 84 82  1  0
 86 89  1  0
 87 91  1  0
 87 86  1  0
 88 87  2  0
 91 90  1  0
 93 91  1  0
 93 94  1  0
 93 92  1  0
M  ISO  4  10 100  18 100  53 101  54 101
M  END
>  <TORSDO>  (8) 
F 20

>  <SCORE>  (8) 
-13.257

>  <name>  (8) 
7

>  <ligand_id>  (8) 
7

>  <original_smiles>  (8) 
[H]c1c([H])c([H])c2c(c1[H])C([H])([H])C([H])([H])C([H])([H])C2([H])N([H])C(=O)C1([H])N(C(=O)C([H])(N([H])C(=O)C([H])(N([H])C([H])([H])[H])C([H])([H])[H])C(C([H])([H])[H])(C([H])([H])[H])C([H])([H])[H])C([H])([H])c2c([H])c(OC([H])([H])C([H])([H])C(=O)N([H])C([H])([H])c3c([H])c([H])c(N([H])C(=O)N4C([H])([H])C([H])([H])C([H])([H])C([H])(n5nc(-c6c([H])c([H])c(Oc7c([H])c([H])c(F)c([H])c7F)c([H])c6[H])c(C(=O)N([H])[H])c5N([H])[H])C4([H])[H])c(F)c3F)c([H])c([H])c2C1([H])[H]

>  <smiles>  (8) 
[H]c1c([H])c([H])c2c(c1[H])C([H])([H])C([H])([H])C([H])([H])C2([H])N([H])C(=O)C1([H])N(C(=O)C([H])(N([H])C(=O)C([H])(N([H])C([H])([H])[H])C([H])([H])[H])C(C([H])([H])[H])(C([H])([H])[H])C([H])([H])[H])C([H])([H])c2c([H])c(OC([H])([H])C([H])([H])C(=O)N([H])C([H])([H])c3c([H])c([H])c(N([H])C(=O)N4C([H])([H])C([H])([H])C([H])([H])C([H])(n5nc(-c6c([H])c([H])c(Oc7c([H])c([H])c(F)c([H])c7F)c([H])c6[H])c(C(=O)N([H])[H])c5N([H])[H])C4([H])[H])c(F)c3F)c([H])c([H])c2C1([H])[H]

$$$$
8:0:0
     RDKit          3D

 95104  0  0  1  0  0  0  0  0999 V2000
  -28.8670  -22.3220   19.4710 C   0  0  0  0  0  0  0  0  0  0  0  0
  -28.5400  -23.4290   21.5040 C   0  0  0  0  0  2  0  0  0  0  0  0
  -28.6230  -21.8830   21.6900 C   0  0  0  0  0  2  0  0  0  0  0  0
  -28.2110  -23.6590   20.0260 C   0  0  0  0  0  3  0  0  0  0  0  0
  -29.0020  -21.3040   20.3970 N   0  0  0  0  0  0  0  0  0  0  0  0
  -29.1900  -22.2180   18.2840 O   0  0  0  0  0  0  0  0  0  0  0  0
  -32.1180  -19.2110   20.3950 C   0  0  0  0  0  3  0  0  0  0  0  0
  -31.1990  -20.2670   20.3290 C   0  0  0  0  0  3  0  0  0  0  0  0
  -31.6950  -17.8720   20.4440 C   0  0  0  0  0  3  0  0  0  0  0  0
  -29.3720  -18.6280   20.3390 C   0  0  0  0  0  0  0  0  0  0  0  0
  -29.8070  -20.0420   20.3160 C   0  0  0  0  0  0  0  0  0  0  0  0
  -30.3280  -17.4990   20.4050 C   0  0  0  0  0  0  0  0  0  0  0  0
  -30.7030  -14.8770   20.0770 C   0  0  0  0  0  0  0  0  0  0  0  0
  -30.3930  -12.6870   18.9110 C   0  0  0  0  0  2  0  0  0  0  0  0
  -29.3820  -12.8590   17.7570 C   0  0  0  0  0  2  0  0  0  0  0  0
  -27.9430  -12.6580   18.2690 C   0  0  0  0  0  2  0  0  0  0  0  0
  -27.6560  -13.4430   19.5780 C   0  0  0  0  0  3  0  0  0  0  0  0
  -28.7860  -13.2770   20.6160 C   0  0  0  0  0  2  0  0  0  0  0  0
  -30.0390  -13.6730   19.9620 N   0  0  0  0  0  0  0  0  0  0  0  0
  -31.8690  -14.9320   19.6800 O   0  0  0  0  0  0  0  0  0  0  0  0
  -29.9890  -16.0260   20.4340 N   0  0  0  0  0  0  0  0  0  0  0  0
  -29.0400  -15.8280   20.7190 H   0  0  0  0  0  0  0  0  0  0  0  0
  -25.3010  -13.9550   20.4530 C   0  0  0  0  0  0  0  0  0  0  0  0
  -24.2690  -13.1490   20.8420 C   0  0  0  0  0  0  0  0  0  0  0  0
  -24.7570  -11.8090   20.7460 C   0  0  0  0  0  0  0  0  0  0  0  0
  -26.3490  -13.1080   20.1330 N   0  0  0  0  0  0  0  0  0  0  0  0
  -26.0330  -11.8080   20.3750 N   0  0  0  0  0  0  0  0  0  0  0  0
  -24.0650  -10.5280   20.9340 C   0  0  0  0  0  0  0  0  0  0  0  0
  -24.4940   -9.5900   21.9000 C   0  0  0  0  0  3  0  0  0  0  0  0
  -23.7980   -8.3740   22.0740 C   0  0  0  0  0  3  0  0  0  0  0  0
  -22.6590   -8.0880   21.2840 C   0  0  0  0  0  0  0  0  0  0  0  0
  -22.2500   -9.0160   20.3100 C   0  0  0  0  0  3  0  0  0  0  0  0
  -22.9460  -10.2230   20.1340 C   0  0  0  0  0  3  0  0  0  0  0  0
  -21.9360   -6.9230   21.3660 O   0  0  0  0  0  0  0  0  0  0  0  0
  -21.7880   -6.2500   22.5520 C   0  0  0  0  0  0  0  0  0  0  0  0
  -21.1980   -6.8550   23.6830 C   0  0  0  0  0  3  0  0  0  0  0  0
  -21.0020   -6.1060   24.8600 C   0  0  0  0  0  3  0  0  0  0  0  0
  -21.3860   -4.7510   24.9060 C   0  0  0  0  0  0  0  0  0  0  0  0
  -21.9670   -4.1460   23.7780 C   0  0  0  0  0  3  0  0  0  0  0  0
  -22.1650   -4.8930   22.6040 C   0  0  0  0  0  0  0  0  0  0  0  0
  -22.7070   -4.2990   21.5140 F   0  0  0  0  0  0  0  0  0  0  0  0
  -21.1890   -4.0290   26.0340 F   0  0  0  0  0  0  0  0  0  0  0  0
  -22.8810  -13.5910   21.2020 C   0  0  0  0  0  0  0  0  0  0  0  0
  -22.2130  -12.8570   22.0850 N   0  0  0  0  0  0  0  0  0  0  0  0
  -22.3980  -14.6230   20.7360 O   0  0  0  0  0  0  0  0  0  0  0  0
  -22.6150  -12.0210   22.4810 H   0  0  0  0  0  0  0  0  0  0  0  0
  -21.2830  -13.1350   22.3670 H   0  0  0  0  0  0  0  0  0  0  0  0
  -25.4280  -15.3340   20.3300 N   0  0  0  0  0  0  0  0  0  0  0  0
  -24.6830  -15.9440   20.6450 H   0  0  0  0  0  0  0  0  0  0  0  0
  -26.3250  -15.8080   20.3120 H   0  0  0  0  0  0  0  0  0  0  0  0
  -27.9120  -18.2990   20.3180 C   0  0  0  0  0  0  0  0  0  0  0  0
  -26.9830  -19.1850   19.4970 C   0  0  0  0  0  1  0  0  0  0  0  0
  -27.4350  -17.2980   20.8600 O   0  0  0  0  0  0  0  0  0  0  0  0
  -28.5860  -25.0990   19.3500 C   0  0  0  0  0  2  0  0  0  0  0  0
  -28.4260  -26.4670   19.9580 O   0  0  0  0  0  0  0  0  0  0  0  0
  -24.6250  -31.8110   23.0120 C   0  0  0  0  0  0  0  0  0  0  0  0
  -27.2830  -27.2950   19.8790 C   0  0  0  0  0  0  0  0  0  0  0  0
  -23.4290  -30.4040   21.3720 C   0  0  0  0  0  3  0  0  0  0  0  0
  -24.8910  -28.8880   19.9070 C   0  0  0  0  0  0  0  0  0  0  0  0
  -25.9600  -30.7640   21.1600 C   0  0  0  0  0  2  0  0  0  0  0  0
  -26.0560  -29.3880   20.5000 C   0  0  0  0  0  0  0  0  0  0  0  0
  -27.2480  -28.5990   20.4800 C   0  0  0  0  0  3  0  0  0  0  0  0
  -26.0950  -26.8530   19.2600 C   0  0  0  0  0  3  0  0  0  0  0  0
  -24.9150  -27.6310   19.2770 C   0  0  0  0  0  3  0  0  0  0  0  0
  -23.6390  -29.7440   19.9820 C   0  0  0  0  0  2  0  0  0  0  0  0
  -24.6910  -31.0120   21.9050 N   0  0  0  0  0  0  0  0  0  0  0  0
  -23.5430  -32.0600   23.5650 O   0  0  0  0  0  0  0  0  0  0  0  0
  -22.7970  -29.3680   22.3340 C   0  0  0  0  0  0  0  0  0  0  0  0
  -21.4680  -29.1890   22.2450 N   0  0  0  0  0  0  0  0  0  0  0  0
  -23.5010  -28.7290   23.1210 O   0  0  0  0  0  0  0  0  0  0  0  0
  -20.9560  -29.7570   21.5840 H   0  0  0  0  0  0  0  0  0  0  0  0
  -18.1080  -27.9940   22.8550 C   0  0  0  0  0  0  0  0  0  0  0  0
  -20.6780  -28.2320   23.0240 C   0  0  0  0  0  3  0  0  0  0  0  0
  -20.7470  -26.8190   22.4000 C   0  0  0  0  0  2  0  0  0  0  0  0
  -19.6000  -26.5340   21.4240 C   0  0  0  0  0  2  0  0  0  0  0  0
  -18.2480  -26.6660   22.1310 C   0  0  0  0  0  2  0  0  0  0  0  0
  -19.2500  -28.7350   23.2610 C   0  0  0  0  0  0  0  0  0  0  0  0
  -19.0650  -29.9790   23.9020 C   0  0  0  0  0  3  0  0  0  0  0  0
  -17.7700  -30.4810   24.1410 C   0  0  0  0  0  3  0  0  0  0  0  0
  -16.6450  -29.7350   23.7530 C   0  0  0  0  0  3  0  0  0  0  0  0
  -16.8150  -28.4930   23.1140 C   0  0  0  0  0  3  0  0  0  0  0  0
  -25.9020  -32.4680   23.6230 C   0  0  0  0  0  3  0  0  0  0  0  0
  -26.4900  -31.6570   24.8440 C   0  0  1  0  0  0  0  0  0  0  0  0
  -25.4450  -31.3230   25.9340 C   0  0  0  0  0  1  0  0  0  0  0  0
  -27.1140  -30.3260   24.3660 C   0  0  0  0  0  1  0  0  0  0  0  0
  -27.6300  -32.4650   25.5080 C   0  0  0  0  0  1  0  0  0  0  0  0
  -25.5480  -33.8340   24.0340 N   0  0  0  0  0  0  0  0  0  0  0  0
  -25.8120  -34.9380   23.3230 C   0  0  0  0  0  0  0  0  0  0  0  0
  -26.4470  -34.9130   22.2650 O   0  0  0  0  0  0  0  0  0  0  0  0
  -24.9810  -33.9240   24.8650 H   0  0  0  0  0  0  0  0  0  0  0  0
  -24.0120  -36.6850   23.1110 C   0  0  0  0  0  1  0  0  0  0  0  0
  -25.2890  -36.2820   23.8680 C   0  0  0  0  0  3  0  0  0  0  0  0
  -27.4070  -37.2050   24.6980 C   0  0  0  0  0  1  0  0  0  0  0  0
  -26.2790  -37.3770   23.7870 N   0  0  0  0  0  0  0  0  0  0  0  0
  -25.8440  -38.2730   23.9890 H   0  0  0  0  0  0  0  0  0  0  0  0
  1  4  1  0
  1  5  1  0
  2  3  1  0
  4 54  1  0
  4  2  1  0
  5  3  1  0
  6  1  2  0
  7  9  1  0
  8  7  2  0
 10 12  1  0
 11  8  1  0
 11 10  2  0
 11  5  1  0
 12 21  1  0
 12  9  2  0
 13 21  1  0
 14 19  1  0
 15 16  1  0
 15 14  1  0
 17 16  1  0
 17 26  1  0
 17 18  1  0
 19 13  1  0
 19 18  1  0
 20 13  2  0
 21 22  1  0
 23 24  2  0
 24 43  1  0
 25 24  1  0
 25 28  1  0
 26 27  1  0
 26 23  1  0
 27 25  2  0
 28 29  1  0
 29 30  2  0
 31 34  1  0
 31 30  1  0
 32 31  2  0
 33 32  1  0
 33 28  2  0
 34 35  1  0
 35 40  2  0
 35 36  1  0
 36 37  2  0
 37 38  1  0
 38 42  1  0
 39 38  2  0
 40 39  1  0
 41 40  1  0
 43 44  1  0
 44 47  1  0
 44 46  1  0
 45 43  2  0
 48 23  1  0
 48 49  1  0
 50 48  1  0
 51 10  1  0
 51 53  2  0
 52 51  1  0
 54 55  1  0
 56 67  2  0
 57 55  1  0
 57 62  1  0
 58 66  1  0
 58 68  1  0
 59 65  1  0
 59 61  1  0
 60 66  1  0
 61 60  1  0
 62 61  2  0
 63 64  1  0
 63 57  2  0
 64 59  2  0
 65 58  1  0
 66 56  1  0
 68 70  2  0
 69 68  1  0
 71 69  1  0
 72 81  2  0
 72 77  1  0
 73 69  1  0
 73 77  1  0
 74 73  1  0
 75 76  1  0
 75 74  1  0
 76 72  1  0
 77 78  2  0
 78 79  1  0
 80 79  2  0
 81 80  1  0
 82 56  1  0
 82 87  1  0
 82 83  1  0
 83 86  1  1
 83 84  1  0
 85 83  1  0
 87 90  1  0
 88 92  1  0
 88 87  1  0
 89 88  2  0
 92 91  1  0
 94 92  1  0
 94 95  1  0
 94 93  1  0
M  ISO  4  13 100  21 100  54 101  55 101
M  END
>  <TORSDO>  (9) 
F 19

>  <SCORE>  (9) 
-14.161

>  <name>  (9) 
8

>  <ligand_id>  (9) 
8

>  <original_smiles>  (9) 
[H]c1c([H])c(N([H])C(=O)N2C([H])([H])C([H])([H])C([H])([H])C([H])(n3nc(-c4c([H])c([H])c(Oc5c([H])c([H])c(F)c([H])c5F)c([H])c4[H])c(C(=O)N([H])[H])c3N([H])[H])C2([H])[H])c(C(=O)C([H])([H])[H])c(N2C(=O)C([H])(C([H])([H])Oc3c([H])c([H])c4c(c3[H])C([H])([H])N(C(=O)C([H])(N([H])C(=O)C([H])(N([H])C([H])([H])[H])C([H])([H])[H])C(C([H])([H])[H])(C([H])([H])[H])C([H])([H])[H])C([H])(C(=O)N([H])C3([H])c5c([H])c([H])c([H])c([H])c5C([H])([H])C([H])([H])C3([H])[H])C4([H])[H])C([H])([H])C2([H])[H])c1[H]

>  <smiles>  (9) 
[H]c1c([H])c(N([H])C(=O)N2C([H])([H])C([H])([H])C([H])([H])C([H])(n3nc(-c4c([H])c([H])c(Oc5c([H])c([H])c(F)c([H])c5F)c([H])c4[H])c(C(=O)N([H])[H])c3N([H])[H])C2([H])[H])c(C(=O)C([H])([H])[H])c(N2C(=O)C([H])(C([H])([H])Oc3c([H])c([H])c4c(c3[H])C([H])([H])N(C(=O)C([H])(N([H])C(=O)C([H])(N([H])C([H])([H])[H])C([H])([H])[H])C(C([H])([H])[H])(C([H])([H])[H])C([H])([H])[H])C([H])(C(=O)N([H])C3([H])c5c([H])c([H])c([H])c([H])c5C([H])([H])C([H])([H])C3([H])[H])C4([H])[H])C([H])([H])C2([H])[H])c1[H]

$$$$
9:0:0
     RDKit          3D

 99108  0  0  1  0  0  0  0  0999 V2000
  -30.0060  -19.2890   21.0800 C   0  0  0  0  0  3  0  0  0  0  0  0
  -30.3520  -18.0030   21.5540 C   0  0  0  0  0  3  0  0  0  0  0  0
  -29.5390  -17.0380   19.4780 C   0  0  0  0  0  3  0  0  0  0  0  0
  -29.1790  -18.3160   19.0070 C   0  0  0  0  0  0  0  0  0  0  0  0
  -29.3880  -19.4570   19.8180 C   0  0  0  0  0  0  0  0  0  0  0  0
  -30.1090  -16.8640   20.7590 C   0  0  0  0  0  0  0  0  0  0  0  0
  -28.6050  -18.4500   17.6670 C   0  0  0  0  0  0  0  0  0  0  0  0
  -27.5660  -17.7010   17.2570 C   0  0  0  0  0  2  0  0  0  0  0  0
  -28.8460  -20.8350   19.4030 C   0  0  0  0  0  2  0  0  0  0  0  0
  -29.3730  -19.3510   16.7240 C   0  0  0  0  0  2  0  0  0  0  0  0
  -29.0610  -20.8450   16.9070 C   0  0  0  0  0  2  0  0  0  0  0  0
  -29.4740  -21.4600   18.2030 N   0  0  1  0  0  4  0  0  0  0  0  0
  -30.4740  -21.3720   18.3080 H   0  0  0  0  0  0  0  0  0  0  0  0
  -30.9930  -14.6030   20.5890 C   0  0  0  0  0  0  0  0  0  0  0  0
  -30.7030  -12.5110   19.3310 C   0  0  0  0  0  2  0  0  0  0  0  0
  -29.7950  -12.7870   18.1140 C   0  0  0  0  0  2  0  0  0  0  0  0
  -28.3060  -12.6560   18.4930 C   0  0  0  0  0  2  0  0  0  0  0  0
  -27.9430  -13.4410   19.7800 C   0  0  0  0  0  3  0  0  0  0  0  0
  -28.9580  -13.1410   20.9080 C   0  0  0  0  0  2  0  0  0  0  0  0
  -30.3150  -13.4380   20.4050 N   0  0  0  0  0  0  0  0  0  0  0  0
  -32.1030  -14.8300   20.0990 O   0  0  0  0  0  0  0  0  0  0  0  0
  -30.3360  -15.5540   21.2680 N   0  0  0  0  0  0  0  0  0  0  0  0
  -29.5810  -15.1910   21.8300 H   0  0  0  0  0  0  0  0  0  0  0  0
  -25.5090  -14.0650   20.3630 C   0  0  0  0  0  0  0  0  0  0  0  0
  -24.4270  -13.2990   20.7050 C   0  0  0  0  0  0  0  0  0  0  0  0
  -24.8930  -11.9490   20.7340 C   0  0  0  0  0  0  0  0  0  0  0  0
  -26.5680  -13.1810   20.2040 N   0  0  0  0  0  0  0  0  0  0  0  0
  -26.1940  -11.9060   20.4830 N   0  0  0  0  0  0  0  0  0  0  0  0
  -24.1650  -10.6910   20.9340 C   0  0  0  0  0  0  0  0  0  0  0  0
  -24.5440   -9.7690   21.9350 C   0  0  0  0  0  3  0  0  0  0  0  0
  -23.8170   -8.5730   22.1200 C   0  0  0  0  0  3  0  0  0  0  0  0
  -22.6970   -8.2900   21.3030 C   0  0  0  0  0  0  0  0  0  0  0  0
  -22.3380   -9.2020   20.2940 C   0  0  0  0  0  3  0  0  0  0  0  0
  -23.0650  -10.3890   20.1080 C   0  0  0  0  0  3  0  0  0  0  0  0
  -21.9470   -7.1420   21.3900 O   0  0  0  0  0  0  0  0  0  0  0  0
  -21.8170   -6.4560   22.5710 C   0  0  0  0  0  0  0  0  0  0  0  0
  -21.2770   -7.0580   23.7280 C   0  0  0  0  0  3  0  0  0  0  0  0
  -21.0990   -6.2960   24.8990 C   0  0  0  0  0  3  0  0  0  0  0  0
  -21.4470   -4.9320   24.9140 C   0  0  0  0  0  0  0  0  0  0  0  0
  -21.9800   -4.3300   23.7600 C   0  0  0  0  0  3  0  0  0  0  0  0
  -22.1600   -5.0890   22.5900 C   0  0  0  0  0  0  0  0  0  0  0  0
  -22.6540   -4.4970   21.4750 F   0  0  0  0  0  0  0  0  0  0  0  0
  -21.2690   -4.1990   26.0370 F   0  0  0  0  0  0  0  0  0  0  0  0
  -23.0180  -13.7780   20.9040 C   0  0  0  0  0  0  0  0  0  0  0  0
  -22.2620  -13.1220   21.7770 N   0  0  0  0  0  0  0  0  0  0  0  0
  -22.5930  -14.7750   20.3200 O   0  0  0  0  0  0  0  0  0  0  0  0
  -22.6190  -12.3200   22.2750 H   0  0  0  0  0  0  0  0  0  0  0  0
  -21.3150  -13.4290   21.9480 H   0  0  0  0  0  0  0  0  0  0  0  0
  -25.6780  -15.4310   20.1610 N   0  0  0  0  0  0  0  0  0  0  0  0
  -24.9110  -16.0860   20.2630 H   0  0  0  0  0  0  0  0  0  0  0  0
  -26.5570  -15.8850   19.9520 H   0  0  0  0  0  0  0  0  0  0  0  0
  -29.2100  -22.9290   18.1350 C   0  0  0  0  0  2  0  0  0  0  0  0
  -30.1870  -23.7930   18.9330 C   0  0  0  0  0  0  0  0  0  0  0  0
  -30.0690  -25.1170   18.7600 N   0  0  0  0  0  0  0  0  0  0  0  0
  -31.0220  -23.2770   19.6790 O   0  0  0  0  0  0  0  0  0  0  0  0
  -29.3590  -25.4340   18.1140 H   0  0  0  0  0  0  0  0  0  0  0  0
  -30.8170  -26.1710   19.4470 C   0  0  0  0  0  2  0  0  0  0  0  0
  -29.8950  -27.3680   19.7560 C   0  0  0  0  0  2  0  0  0  0  0  0
  -28.8010  -26.8910   20.5250 O   0  0  0  0  0  0  0  0  0  0  0  0
  -24.6690  -31.9710   23.3240 C   0  0  0  0  0  0  0  0  0  0  0  0
  -27.6430  -27.6200   20.4480 C   0  0  0  0  0  0  0  0  0  0  0  0
  -23.6020  -30.5000   21.6410 C   0  0  0  0  0  3  0  0  0  0  0  0
  -25.1890  -28.9980   20.3210 C   0  0  0  0  0  0  0  0  0  0  0  0
  -26.1150  -30.9650   21.5630 C   0  0  0  0  0  2  0  0  0  0  0  0
  -26.2920  -29.5900   20.9540 C   0  0  0  0  0  0  0  0  0  0  0  0
  -27.5260  -28.9070   21.0150 C   0  0  0  0  0  3  0  0  0  0  0  0
  -26.5240  -27.0280   19.8320 C   0  0  0  0  0  3  0  0  0  0  0  0
  -25.2960  -27.7130   19.7600 C   0  0  0  0  0  3  0  0  0  0  0  0
  -23.9110  -29.8060   20.2870 C   0  0  0  0  0  2  0  0  0  0  0  0
  -24.8090  -31.1600   22.2360 N   0  0  0  0  0  0  0  0  0  0  0  0
  -23.5520  -32.2060   23.8040 O   0  0  0  0  0  0  0  0  0  0  0  0
  -22.9390  -29.4720   22.5870 C   0  0  0  0  0  0  0  0  0  0  0  0
  -21.6270  -29.2470   22.4010 N   0  0  0  0  0  0  0  0  0  0  0  0
  -23.6010  -28.8780   23.4400 O   0  0  0  0  0  0  0  0  0  0  0  0
  -21.1520  -29.7830   21.6870 H   0  0  0  0  0  0  0  0  0  0  0  0
  -18.2590  -28.0000   22.7990 C   0  0  0  0  0  0  0  0  0  0  0  0
  -20.8030  -28.2950   23.1460 C   0  0  0  0  0  3  0  0  0  0  0  0
  -20.9450  -26.8690   22.5670 C   0  0  0  0  0  2  0  0  0  0  0  0
  -19.8770  -26.5340   21.5200 C   0  0  0  0  0  2  0  0  0  0  0  0
  -18.4750  -26.6570   22.1250 C   0  0  0  0  0  2  0  0  0  0  0  0
  -19.3540  -28.7760   23.2640 C   0  0  0  0  0  0  0  0  0  0  0  0
  -19.1000  -30.0350   23.8520 C   0  0  0  0  0  3  0  0  0  0  0  0
  -17.7840  -30.5160   23.9820 C   0  0  0  0  0  3  0  0  0  0  0  0
  -16.7030  -29.7390   23.5330 C   0  0  0  0  0  3  0  0  0  0  0  0
  -16.9410  -28.4820   22.9480 C   0  0  0  0  0  3  0  0  0  0  0  0
  -25.8990  -32.6570   23.9970 C   0  0  0  0  0  3  0  0  0  0  0  0
  -26.3710  -31.9330   25.3160 C   0  0  1  0  0  0  0  0  0  0  0  0
  -25.2240  -31.6500   26.3120 C   0  0  0  0  0  1  0  0  0  0  0  0
  -27.0520  -30.5850   24.9810 C   0  0  0  0  0  1  0  0  0  0  0  0
  -27.4280  -32.7990   26.0400 C   0  0  0  0  0  1  0  0  0  0  0  0
  -25.5320  -34.0520   24.2720 N   0  0  0  0  0  0  0  0  0  0  0  0
  -25.8810  -35.0950   23.5060 C   0  0  0  0  0  0  0  0  0  0  0  0
  -26.6160  -34.9850   22.5200 O   0  0  0  0  0  0  0  0  0  0  0  0
  -24.8850  -34.2080   25.0320 H   0  0  0  0  0  0  0  0  0  0  0  0
  -24.1310  -36.8240   22.9920 C   0  0  0  0  0  1  0  0  0  0  0  0
  -25.3260  -36.4790   23.8940 C   0  0  0  0  0  3  0  0  0  0  0  0
  -27.3750  -37.4470   24.8410 C   0  0  0  0  0  1  0  0  0  0  0  0
  -26.3350  -37.5590   23.8210 N   0  0  0  0  0  0  0  0  0  0  0  0
  -25.8920  -38.4700   23.9180 H   0  0  0  0  0  0  0  0  0  0  0  0
  1  2  1  0
  3  6  1  0
  4  3  2  0
  4  5  1  0
  5  1  2  0
  6 22  1  0
  6  2  2  0
  7  4  1  0
  8  7  2  0
  9  5  1  0
 10 11  1  0
 10  7  1  0
 11 12  1  0
 12 13  1  1
 12  9  1  0
 14 22  1  0
 15 20  1  0
 16 17  1  0
 16 15  1  0
 18 17  1  0
 18 27  1  0
 18 19  1  0
 20 14  1  0
 20 19  1  0
 21 14  2  0
 22 23  1  0
 24 25  2  0
 25 26  1  0
 25 44  1  0
 26 29  1  0
 27 24  1  0
 27 28  1  0
 28 26  2  0
 29 30  1  0
 30 31  2  0
 32 35  1  0
 32 31  1  0
 33 32  2  0
 34 33  1  0
 34 29  2  0
 35 36  1  0
 36 41  2  0
 36 37  1  0
 37 38  2  0
 38 39  1  0
 39 43  1  0
 40 39  2  0
 41 40  1  0
 42 41  1  0
 44 45  1  0
 45 48  1  0
 45 47  1  0
 46 44  2  0
 49 50  1  0
 49 24  1  0
 51 49  1  0
 52 12  1  0
 52 53  1  0
 53 55  2  0
 54 53  1  0
 54 57  1  0
 56 54  1  0
 57 58  1  0
 58 59  1  0
 60 71  2  0
 61 59  1  0
 61 66  1  0
 62 70  1  0
 62 72  1  0
 63 65  1  0
 64 70  1  0
 65 66  2  0
 65 64  1  0
 67 61  2  0
 68 67  1  0
 68 63  2  0
 69 63  1  0
 69 62  1  0
 70 60  1  0
 72 74  2  0
 73 72  1  0
 75 73  1  0
 76 85  2  0
 76 81  1  0
 77 73  1  0
 77 81  1  0
 78 77  1  0
 79 80  1  0
 79 78  1  0
 80 76  1  0
 81 82  2  0
 82 83  1  0
 84 83  2  0
 85 84  1  0
 86 60  1  0
 86 91  1  0
 86 87  1  0
 87 90  1  1
 87 88  1  0
 89 87  1  0
 91 94  1  0
 92 96  1  0
 92 91  1  0
 93 92  2  0
 96 95  1  0
 98 96  1  0
 98 99  1  0
 98 97  1  0
M  ISO  4  14 100  22 100  58 101  59 101
M  END
>  <TORSDO>  (10) 
F 20

>  <SCORE>  (10) 
-12.885

>  <name>  (10) 
9

>  <ligand_id>  (10) 
9

>  <original_smiles>  (10) 
[H]C([H])=C1c2c([H])c(N([H])C(=O)N3C([H])([H])C([H])([H])C([H])([H])C([H])(n4nc(-c5c([H])c([H])c(Oc6c([H])c([H])c(F)c([H])c6F)c([H])c5[H])c(C(=O)N([H])[H])c4N([H])[H])C3([H])[H])c([H])c([H])c2C([H])([H])[N+]([H])(C([H])([H])C(=O)N([H])C([H])([H])C([H])([H])Oc2c([H])c([H])c3c(c2[H])C([H])([H])N(C(=O)C([H])(N([H])C(=O)C([H])(N([H])C([H])([H])[H])C([H])([H])[H])C(C([H])([H])[H])(C([H])([H])[H])C([H])([H])[H])C([H])(C(=O)N([H])C2([H])c4c([H])c([H])c([H])c([H])c4C([H])([H])C([H])([H])C2([H])[H])C3([H])[H])C([H])([H])C1([H])[H]

>  <smiles>  (10) 
[H]C([H])=C1c2c([H])c(N([H])C(=O)N3C([H])([H])C([H])([H])C([H])([H])C([H])(n4nc(-c5c([H])c([H])c(Oc6c([H])c([H])c(F)c([H])c6F)c([H])c5[H])c(C(=O)N([H])[H])c4N([H])[H])C3([H])[H])c([H])c([H])c2C([H])([H])[N+]([H])(C([H])([H])C(=O)N([H])C([H])([H])C([H])([H])Oc2c([H])c([H])c3c(c2[H])C([H])([H])N(C(=O)C([H])(N([H])C(=O)C([H])(N([H])C([H])([H])[H])C([H])([H])[H])C(C([H])([H])[H])(C([H])([H])[H])C([H])([H])[H])C([H])(C(=O)N([H])C2([H])c4c([H])c([H])c([H])c([H])c4C([H])([H])C([H])([H])C2([H])[H])C3([H])[H])C([H])([H])C1([H])[H]

$$$$
10:0:0
     RDKit          3D

 92100  0  0  1  0  0  0  0  0999 V2000
  -29.8100  -21.8560   20.8020 C   0  0  0  0  0  0  0  0  0  0  0  0
  -29.5540  -20.5370   20.6090 N   0  0  0  0  0  0  0  0  0  0  0  0
  -30.7950  -22.2920   21.4000 O   0  0  0  0  0  0  0  0  0  0  0  0
  -28.6930  -20.3530   20.1140 H   0  0  0  0  0  0  0  0  0  0  0  0
  -32.2920  -18.2550   21.9100 C   0  0  0  0  0  3  0  0  0  0  0  0
  -31.5900  -19.4280   21.5810 C   0  0  0  0  0  3  0  0  0  0  0  0
  -31.7390  -16.9920   21.6340 C   0  0  0  0  0  3  0  0  0  0  0  0
  -29.7550  -18.0760   20.7190 C   0  0  0  0  0  3  0  0  0  0  0  0
  -30.3080  -19.3650   20.9790 C   0  0  0  0  0  0  0  0  0  0  0  0
  -30.4710  -16.8850   21.0220 C   0  0  0  0  0  0  0  0  0  0  0  0
  -30.5610  -14.5520   20.1720 C   0  0  0  0  0  0  0  0  0  0  0  0
  -30.1900  -12.4110   19.0000 C   0  0  0  0  0  2  0  0  0  0  0  0
  -29.2030  -12.6220   17.8340 C   0  0  0  0  0  2  0  0  0  0  0  0
  -27.7490  -12.4770   18.3220 C   0  0  0  0  0  2  0  0  0  0  0  0
  -27.4600  -13.3020   19.6050 C   0  0  0  0  0  3  0  0  0  0  0  0
  -28.5610  -13.0890   20.6690 C   0  0  0  0  0  2  0  0  0  0  0  0
  -29.8570  -13.3940   20.0430 N   0  0  0  0  0  0  0  0  0  0  0  0
  -31.6710  -14.7050   19.6530 O   0  0  0  0  0  0  0  0  0  0  0  0
  -29.9160  -15.5900   20.7490 N   0  0  0  0  0  0  0  0  0  0  0  0
  -28.9410  -15.4480   20.9630 H   0  0  0  0  0  0  0  0  0  0  0  0
  -25.0950  -13.8910   20.4270 C   0  0  0  0  0  0  0  0  0  0  0  0
  -24.0430  -13.1110   20.8250 C   0  0  0  0  0  0  0  0  0  0  0  0
  -24.5030  -11.7600   20.7470 C   0  0  0  0  0  0  0  0  0  0  0  0
  -26.1300  -13.0150   20.1360 N   0  0  0  0  0  0  0  0  0  0  0  0
  -25.7780  -11.7280   20.3850 N   0  0  0  0  0  0  0  0  0  0  0  0
  -23.7830  -10.4940   20.9410 C   0  0  0  0  0  0  0  0  0  0  0  0
  -24.2020   -9.5470   21.9020 C   0  0  0  0  0  3  0  0  0  0  0  0
  -23.4830   -8.3440   22.0820 C   0  0  0  0  0  3  0  0  0  0  0  0
  -22.3320   -8.0820   21.3020 C   0  0  0  0  0  0  0  0  0  0  0  0
  -21.9330   -9.0190   20.3310 C   0  0  0  0  0  3  0  0  0  0  0  0
  -22.6530  -10.2120   20.1490 C   0  0  0  0  0  3  0  0  0  0  0  0
  -21.5870   -6.9320   21.3890 O   0  0  0  0  0  0  0  0  0  0  0  0
  -21.4690   -6.2390   22.5680 C   0  0  0  0  0  0  0  0  0  0  0  0
  -20.9180   -6.8270   23.7260 C   0  0  0  0  0  3  0  0  0  0  0  0
  -20.7520   -6.0570   24.8960 C   0  0  0  0  0  3  0  0  0  0  0  0
  -21.1270   -4.7010   24.9060 C   0  0  0  0  0  0  0  0  0  0  0  0
  -21.6720   -4.1120   23.7510 C   0  0  0  0  0  3  0  0  0  0  0  0
  -21.8390   -4.8790   22.5840 C   0  0  0  0  0  0  0  0  0  0  0  0
  -22.3450   -4.3000   21.4680 F   0  0  0  0  0  0  0  0  0  0  0  0
  -20.9610   -3.9590   26.0260 F   0  0  0  0  0  0  0  0  0  0  0  0
  -22.6590  -13.5830   21.1640 C   0  0  0  0  0  0  0  0  0  0  0  0
  -21.9630  -12.8610   22.0360 N   0  0  0  0  0  0  0  0  0  0  0  0
  -22.2040  -14.6240   20.6930 O   0  0  0  0  0  0  0  0  0  0  0  0
  -22.3440  -12.0160   22.4360 H   0  0  0  0  0  0  0  0  0  0  0  0
  -21.0360  -13.1560   22.3070 H   0  0  0  0  0  0  0  0  0  0  0  0
  -25.2530  -15.2650   20.2690 N   0  0  0  0  0  0  0  0  0  0  0  0
  -24.4910  -15.9180   20.4170 H   0  0  0  0  0  0  0  0  0  0  0  0
  -26.0850  -15.7080   19.8970 H   0  0  0  0  0  0  0  0  0  0  0  0
  -28.7830  -22.8580   20.2350 C   0  0  0  0  0  2  0  0  0  0  0  0
  -29.1160  -24.3710   20.4390 C   0  0  0  0  0  2  0  0  0  0  0  0
  -28.0100  -25.2920   19.8740 C   0  0  0  0  0  2  0  0  0  0  0  0
  -28.1880  -26.7090   20.1100 O   0  0  0  0  0  0  0  0  0  0  0  0
  -24.4900  -31.9610   23.2280 C   0  0  0  0  0  0  0  0  0  0  0  0
  -27.0360  -27.4840   20.0860 C   0  0  0  0  0  0  0  0  0  0  0  0
  -23.2410  -30.5640   21.6180 C   0  0  0  0  0  3  0  0  0  0  0  0
  -24.6540  -29.0270   20.1530 C   0  0  0  0  0  0  0  0  0  0  0  0
  -25.7670  -30.9060   21.3620 C   0  0  0  0  0  2  0  0  0  0  0  0
  -25.8310  -29.5350   20.7160 C   0  0  0  0  0  0  0  0  0  0  0  0
  -27.0250  -28.7720   20.6790 C   0  0  0  0  0  3  0  0  0  0  0  0
  -25.8350  -27.0120   19.4980 C   0  0  0  0  0  3  0  0  0  0  0  0
  -24.6520  -27.7670   19.5410 C   0  0  0  0  0  3  0  0  0  0  0  0
  -23.4150  -29.8900   20.2330 C   0  0  0  0  0  2  0  0  0  0  0  0
  -24.5200  -31.1590   22.1270 N   0  0  0  0  0  0  0  0  0  0  0  0
  -23.4230  -32.2370   23.7920 O   0  0  0  0  0  0  0  0  0  0  0  0
  -22.6100  -29.5410   22.5920 C   0  0  0  0  0  0  0  0  0  0  0  0
  -21.2900  -29.3320   22.4700 N   0  0  0  0  0  0  0  0  0  0  0  0
  -23.3070  -28.9410   23.4150 O   0  0  0  0  0  0  0  0  0  0  0  0
  -20.7880  -29.8690   21.7760 H   0  0  0  0  0  0  0  0  0  0  0  0
  -17.9400  -28.0730   22.9820 C   0  0  0  0  0  0  0  0  0  0  0  0
  -20.4910  -28.3920   23.2550 C   0  0  0  0  0  3  0  0  0  0  0  0
  -20.6270  -26.9530   22.7040 C   0  0  0  0  0  2  0  0  0  0  0  0
  -19.5340  -26.5880   21.6940 C   0  0  0  0  0  2  0  0  0  0  0  0
  -18.1480  -26.7160   22.3320 C   0  0  0  0  0  2  0  0  0  0  0  0
  -19.0420  -28.8660   23.4000 C   0  0  0  0  0  0  0  0  0  0  0  0
  -18.7940  -30.1360   23.9650 C   0  0  0  0  0  3  0  0  0  0  0  0
  -17.4780  -30.6130   24.1180 C   0  0  0  0  0  3  0  0  0  0  0  0
  -16.3920  -29.8170   23.7160 C   0  0  0  0  0  3  0  0  0  0  0  0
  -16.6230  -28.5490   23.1530 C   0  0  0  0  0  3  0  0  0  0  0  0
  -25.7920  -32.5890   23.8150 C   0  0  0  0  0  3  0  0  0  0  0  0
  -26.3360  -31.8220   25.0830 C   0  0  1  0  0  0  0  0  0  0  0  0
  -25.2600  -31.5670   26.1630 C   0  0  0  0  0  1  0  0  0  0  0  0
  -26.9320  -30.4540   24.6790 C   0  0  0  0  0  1  0  0  0  0  0  0
  -27.4840  -32.6300   25.7310 C   0  0  0  0  0  1  0  0  0  0  0  0
  -25.4980  -33.9910   24.1420 N   0  0  0  0  0  0  0  0  0  0  0  0
  -25.7940  -35.0340   23.3540 C   0  0  0  0  0  0  0  0  0  0  0  0
  -26.4170  -34.9170   22.2950 O   0  0  0  0  0  0  0  0  0  0  0  0
  -24.9410  -34.1550   24.9680 H   0  0  0  0  0  0  0  0  0  0  0  0
  -24.0370  -36.8100   23.0710 C   0  0  0  0  0  1  0  0  0  0  0  0
  -25.3260  -36.4270   23.8160 C   0  0  0  0  0  3  0  0  0  0  0  0
  -27.4950  -37.3420   24.5130 C   0  0  0  0  0  1  0  0  0  0  0  0
  -26.3440  -37.4830   23.6250 N   0  0  0  0  0  0  0  0  0  0  0  0
  -25.9400  -38.4040   23.7730 H   0  0  0  0  0  0  0  0  0  0  0  0
  1  3  2  0
  2  1  1  0
  2  9  1  0
  4  2  1  0
  6  5  2  0
  7  5  1  0
  8  9  2  0
  8 10  1  0
  9  6  1  0
 10  7  2  0
 11 19  1  0
 12 17  1  0
 13 14  1  0
 13 12  1  0
 15 14  1  0
 15 24  1  0
 15 16  1  0
 17 11  1  0
 17 16  1  0
 18 11  2  0
 19 20  1  0
 19 10  1  0
 21 22  2  0
 22 41  1  0
 23 22  1  0
 23 26  1  0
 24 25  1  0
 24 21  1  0
 25 23  2  0
 26 27  1  0
 27 28  2  0
 29 32  1  0
 29 28  1  0
 30 29  2  0
 31 30  1  0
 31 26  2  0
 32 33  1  0
 33 38  2  0
 33 34  1  0
 34 35  2  0
 35 36  1  0
 36 40  1  0
 37 36  2  0
 38 37  1  0
 39 38  1  0
 41 42  1  0
 42 45  1  0
 42 44  1  0
 43 41  2  0
 46 47  1  0
 46 21  1  0
 48 46  1  0
 49 50  1  0
 49  1  1  0
 51 52  1  0
 51 50  1  0
 53 64  2  0
 54 52  1  0
 54 59  1  0
 55 63  1  0
 55 65  1  0
 56 62  1  0
 56 58  1  0
 57 63  1  0
 58 57  1  0
 59 58  2  0
 60 61  1  0
 60 54  2  0
 61 56  2  0
 62 55  1  0
 63 53  1  0
 65 67  2  0
 66 65  1  0
 68 66  1  0
 69 78  2  0
 69 74  1  0
 70 66  1  0
 70 74  1  0
 71 70  1  0
 72 73  1  0
 72 71  1  0
 73 69  1  0
 74 75  2  0
 75 76  1  0
 77 76  2  0
 78 77  1  0
 79 53  1  0
 79 84  1  0
 79 80  1  0
 80 83  1  1
 80 81  1  0
 82 80  1  0
 84 87  1  0
 85 89  1  0
 85 84  1  0
 86 85  2  0
 89 88  1  0
 91 92  1  0
 91 89  1  0
 91 90  1  0
M  ISO  4  11 100  19 100  51 101  52 101
M  END
>  <TORSDO>  (11) 
F 20

>  <SCORE>  (11) 
-12.886

>  <name>  (11) 
10

>  <ligand_id>  (11) 
10

>  <original_smiles>  (11) 
[H]c1c([H])c(N([H])C(=O)N2C([H])([H])C([H])([H])C([H])([H])C([H])(n3nc(-c4c([H])c([H])c(Oc5c([H])c([H])c(F)c([H])c5F)c([H])c4[H])c(C(=O)N([H])[H])c3N([H])[H])C2([H])[H])c([H])c(N([H])C(=O)C([H])([H])C([H])([H])C([H])([H])Oc2c([H])c([H])c3c(c2[H])C([H])([H])N(C(=O)C([H])(N([H])C(=O)C([H])(N([H])C([H])([H])[H])C([H])([H])[H])C(C([H])([H])[H])(C([H])([H])[H])C([H])([H])[H])C([H])(C(=O)N([H])C2([H])c4c([H])c([H])c([H])c([H])c4C([H])([H])C([H])([H])C2([H])[H])C3([H])[H])c1[H]

>  <smiles>  (11) 
[H]c1c([H])c(N([H])C(=O)N2C([H])([H])C([H])([H])C([H])([H])C([H])(n3nc(-c4c([H])c([H])c(Oc5c([H])c([H])c(F)c([H])c5F)c([H])c4[H])c(C(=O)N([H])[H])c3N([H])[H])C2([H])[H])c([H])c(N([H])C(=O)C([H])([H])C([H])([H])C([H])([H])Oc2c([H])c([H])c3c(c2[H])C([H])([H])N(C(=O)C([H])(N([H])C(=O)C([H])(N([H])C([H])([H])[H])C([H])([H])[H])C(C([H])([H])[H])(C([H])([H])[H])C([H])([H])[H])C([H])(C(=O)N([H])C2([H])c4c([H])c([H])c([H])c([H])c4C([H])([H])C([H])([H])C2([H])[H])C3([H])[H])c1[H]

$$$$
11:0:0
     RDKit          3D

 92100  0  0  1  0  0  0  0  0999 V2000
  -31.4610  -21.7430   19.9450 O   0  0  0  0  0  0  0  0  0  0  0  0
  -29.5320  -20.8410   18.6200 O   0  0  0  0  0  0  0  0  0  0  0  0
  -30.1110  -21.1490   19.9390 S   0  0  1  0  0  0  0  0  0  0  0  0
  -30.9370  -18.2810   22.8680 C   0  0  0  0  0  3  0  0  0  0  0  0
  -30.7340  -17.0530   22.2100 C   0  0  0  0  0  3  0  0  0  0  0  0
  -29.9860  -18.2730   20.2400 C   0  0  0  0  0  3  0  0  0  0  0  0
  -30.6940  -19.5180   22.2310 C   0  0  0  0  0  0  0  0  0  0  0  0
  -30.2580  -17.0130   20.8850 C   0  0  0  0  0  0  0  0  0  0  0  0
  -30.2180  -19.5390   20.8890 C   0  0  0  0  0  0  0  0  0  0  0  0
  -30.9570  -20.7770   23.0430 C   0  0  0  0  0  1  0  0  0  0  0  0
  -30.7160  -14.6030   20.1380 C   0  0  0  0  0  0  0  0  0  0  0  0
  -30.3940  -12.4150   19.0030 C   0  0  0  0  0  2  0  0  0  0  0  0
  -29.3960  -12.5880   17.8380 C   0  0  0  0  0  2  0  0  0  0  0  0
  -27.9410  -12.4480   18.3340 C   0  0  0  0  0  2  0  0  0  0  0  0
  -27.6530  -13.2930   19.6030 C   0  0  0  0  0  3  0  0  0  0  0  0
  -28.7580  -13.1000   20.6650 C   0  0  0  0  0  2  0  0  0  0  0  0
  -30.0450  -13.4170   20.0250 N   0  0  0  0  0  0  0  0  0  0  0  0
  -31.8950  -14.7150   19.7950 O   0  0  0  0  0  0  0  0  0  0  0  0
  -29.9290  -15.7080   20.3310 N   0  0  0  0  0  0  0  0  0  0  0  0
  -28.9430  -15.4960   20.3130 H   0  0  0  0  0  0  0  0  0  0  0  0
  -25.3020  -13.9300   20.4200 C   0  0  0  0  0  0  0  0  0  0  0  0
  -24.2360  -13.1730   20.8240 C   0  0  0  0  0  0  0  0  0  0  0  0
  -24.6730  -11.8140   20.7690 C   0  0  0  0  0  0  0  0  0  0  0  0
  -26.3210  -13.0320   20.1410 N   0  0  0  0  0  0  0  0  0  0  0  0
  -25.9500  -11.7550   20.4120 N   0  0  0  0  0  0  0  0  0  0  0  0
  -23.9320  -10.5640   20.9780 C   0  0  0  0  0  0  0  0  0  0  0  0
  -24.3820   -9.5830   21.8880 C   0  0  0  0  0  3  0  0  0  0  0  0
  -23.6420   -8.3960   22.0850 C   0  0  0  0  0  3  0  0  0  0  0  0
  -22.4380   -8.1840   21.3710 C   0  0  0  0  0  0  0  0  0  0  0  0
  -22.0070   -9.1550   20.4500 C   0  0  0  0  0  3  0  0  0  0  0  0
  -22.7480  -10.3320   20.2510 C   0  0  0  0  0  3  0  0  0  0  0  0
  -21.6680   -7.0520   21.4780 O   0  0  0  0  0  0  0  0  0  0  0  0
  -21.6490   -6.3000   22.6250 C   0  0  0  0  0  0  0  0  0  0  0  0
  -21.2860   -6.8540   23.8730 C   0  0  0  0  0  3  0  0  0  0  0  0
  -21.2120   -6.0300   25.0140 C   0  0  0  0  0  3  0  0  0  0  0  0
  -21.4920   -4.6540   24.9090 C   0  0  0  0  0  0  0  0  0  0  0  0
  -21.8480   -4.1000   23.6670 C   0  0  0  0  0  3  0  0  0  0  0  0
  -21.9230   -4.9210   22.5280 C   0  0  0  0  0  0  0  0  0  0  0  0
  -22.2460   -4.3780   21.3300 F   0  0  0  0  0  0  0  0  0  0  0  0
  -21.4150   -3.8620   26.0030 F   0  0  0  0  0  0  0  0  0  0  0  0
  -22.8580  -13.6730   21.1500 C   0  0  0  0  0  0  0  0  0  0  0  0
  -22.1490  -12.9870   22.0380 N   0  0  0  0  0  0  0  0  0  0  0  0
  -22.4210  -14.7100   20.6510 O   0  0  0  0  0  0  0  0  0  0  0  0
  -22.5140  -12.1460   22.4620 H   0  0  0  0  0  0  0  0  0  0  0  0
  -21.2260  -13.3070   22.2980 H   0  0  0  0  0  0  0  0  0  0  0  0
  -25.4790  -15.2990   20.2440 N   0  0  0  0  0  0  0  0  0  0  0  0
  -24.7230  -15.9580   20.3930 H   0  0  0  0  0  0  0  0  0  0  0  0
  -26.3050  -15.7340   19.8540 H   0  0  0  0  0  0  0  0  0  0  0  0
  -28.9620  -22.4410   20.7220 C   0  0  0  0  0  2  0  0  0  0  0  0
  -29.3630  -23.9660   20.4890 C   0  0  0  0  0  3  0  0  0  0  0  0
  -28.1710  -25.0000   20.4280 C   0  0  0  0  0  3  0  0  0  0  0  0
  -28.4250  -26.4540   20.4390 O   0  0  0  0  0  0  0  0  0  0  0  0
  -24.6160  -31.8780   23.2870 C   0  0  0  0  0  0  0  0  0  0  0  0
  -27.2990  -27.2870   20.3630 C   0  0  0  0  0  0  0  0  0  0  0  0
  -23.4480  -30.4470   21.6500 C   0  0  0  0  0  3  0  0  0  0  0  0
  -24.9280  -28.8820   20.2840 C   0  0  0  0  0  0  0  0  0  0  0  0
  -25.9900  -30.7730   21.5100 C   0  0  0  0  0  2  0  0  0  0  0  0
  -26.0860  -29.3860   20.8910 C   0  0  0  0  0  0  0  0  0  0  0  0
  -27.2750  -28.6020   20.9190 C   0  0  0  0  0  3  0  0  0  0  0  0
  -26.1110  -26.8340   19.7370 C   0  0  0  0  0  3  0  0  0  0  0  0
  -24.9410  -27.6110   19.7010 C   0  0  0  0  0  3  0  0  0  0  0  0
  -23.6900  -29.7530   20.2860 C   0  0  0  0  0  2  0  0  0  0  0  0
  -24.7040  -31.0480   22.2070 N   0  0  0  0  0  0  0  0  0  0  0  0
  -23.5210  -32.1630   23.7910 O   0  0  0  0  0  0  0  0  0  0  0  0
  -22.7710  -29.4420   22.6110 C   0  0  0  0  0  0  0  0  0  0  0  0
  -21.4500  -29.2570   22.4580 N   0  0  0  0  0  0  0  0  0  0  0  0
  -23.4350  -28.8330   23.4550 O   0  0  0  0  0  0  0  0  0  0  0  0
  -20.9750  -29.8010   21.7510 H   0  0  0  0  0  0  0  0  0  0  0  0
  -18.0670  -28.0520   22.8850 C   0  0  0  0  0  0  0  0  0  0  0  0
  -20.6140  -28.3330   23.2280 C   0  0  0  0  0  3  0  0  0  0  0  0
  -20.7420  -26.8890   22.6920 C   0  0  0  0  0  2  0  0  0  0  0  0
  -19.6740  -26.5330   21.6540 C   0  0  0  0  0  2  0  0  0  0  0  0
  -18.2720  -26.6870   22.2510 C   0  0  0  0  0  2  0  0  0  0  0  0
  -19.1680  -28.8320   23.3280 C   0  0  0  0  0  0  0  0  0  0  0  0
  -18.9240  -30.1090   23.8790 C   0  0  0  0  0  3  0  0  0  0  0  0
  -17.6130  -30.6060   23.9930 C   0  0  0  0  0  3  0  0  0  0  0  0
  -16.5250  -29.8230   23.5670 C   0  0  0  0  0  3  0  0  0  0  0  0
  -16.7530  -28.5490   23.0170 C   0  0  0  0  0  3  0  0  0  0  0  0
  -25.8860  -32.5230   23.9210 C   0  0  0  0  0  3  0  0  0  0  0  0
  -26.3780  -31.7740   25.2200 C   0  0  1  0  0  0  0  0  0  0  0  0
  -25.2630  -31.5520   26.2700 C   0  0  0  0  0  1  0  0  0  0  0  0
  -26.9730  -30.3930   24.8620 C   0  0  0  0  0  1  0  0  0  0  0  0
  -27.5090  -32.5850   25.8950 C   0  0  0  0  0  1  0  0  0  0  0  0
  -25.5640  -33.9250   24.2230 N   0  0  0  0  0  0  0  0  0  0  0  0
  -25.9100  -34.9670   23.4550 C   0  0  0  0  0  0  0  0  0  0  0  0
  -26.6030  -34.8500   22.4410 O   0  0  0  0  0  0  0  0  0  0  0  0
  -24.9570  -34.0920   25.0110 H   0  0  0  0  0  0  0  0  0  0  0  0
  -24.1840  -36.7470   23.0370 C   0  0  0  0  0  1  0  0  0  0  0  0
  -25.4090  -36.3600   23.8810 C   0  0  0  0  0  3  0  0  0  0  0  0
  -27.5220  -37.2630   24.7420 C   0  0  0  0  0  1  0  0  0  0  0  0
  -26.4390  -37.4150   23.7750 N   0  0  0  0  0  0  0  0  0  0  0  0
  -26.0270  -38.3350   23.9040 H   0  0  0  0  0  0  0  0  0  0  0  0
  2  3  2  0
  3  1  2  0
  3 49  1  1
  3  9  1  0
  5  4  2  0
  6  8  2  0
  6  9  1  0
  7  4  1  0
  7 10  1  0
  8  5  1  0
  9  7  2  0
 11 19  1  0
 12 17  1  0
 13 14  1  0
 13 12  1  0
 15 14  1  0
 15 24  1  0
 15 16  1  0
 17 11  1  0
 17 16  1  0
 18 11  2  0
 19  8  1  0
 20 19  1  0
 21 22  2  0
 22 41  1  0
 23 22  1  0
 23 26  1  0
 24 25  1  0
 24 21  1  0
 25 23  2  0
 26 27  1  0
 27 28  2  0
 29 32  1  0
 29 28  1  0
 30 29  2  0
 31 30  1  0
 31 26  2  0
 32 33  1  0
 33 34  1  0
 34 35  2  0
 36 35  1  0
 36 40  1  0
 37 36  2  0
 38 33  2  0
 38 37  1  0
 39 38  1  0
 41 42  1  0
 42 45  1  0
 42 44  1  0
 43 41  2  0
 46 47  1  0
 46 21  1  0
 48 46  1  0
 50 49  1  0
 51 52  1  0
 51 50  2  0
 53 64  2  0
 54 52  1  0
 54 59  1  0
 55 63  1  0
 55 65  1  0
 56 62  1  0
 56 58  1  0
 57 63  1  0
 58 59  2  0
 58 57  1  0
 60 54  2  0
 61 60  1  0
 61 56  2  0
 62 55  1  0
 63 53  1  0
 65 67  2  0
 66 65  1  0
 68 66  1  0
 69 78  2  0
 69 74  1  0
 70 66  1  0
 70 74  1  0
 71 70  1  0
 72 73  1  0
 72 71  1  0
 73 69  1  0
 74 75  2  0
 75 76  1  0
 77 76  2  0
 78 77  1  0
 79 53  1  0
 79 84  1  0
 79 80  1  0
 80 83  1  1
 80 81  1  0
 82 80  1  0
 84 87  1  0
 85 89  1  0
 85 84  1  0
 86 85  2  0
 89 88  1  0
 91 89  1  0
 91 92  1  0
 91 90  1  0
M  ISO  4  11 100  19 100  51 101  52 101
M  END
>  <TORSDO>  (12) 
F 20

>  <SCORE>  (12) 
-13.704

>  <name>  (12) 
11

>  <ligand_id>  (12) 
11

>  <original_smiles>  (12) 
[H]c1c([H])c([H])c2c(c1[H])C([H])([H])C([H])([H])C([H])([H])C2([H])N([H])C(=O)C1([H])N(C(=O)C([H])(N([H])C(=O)C([H])(N([H])C([H])([H])[H])C([H])([H])[H])C(C([H])([H])[H])(C([H])([H])[H])C([H])([H])[H])C([H])([H])c2c([H])c(OC([H])([H])C([H])([H])C([H])([H])S(=O)(=O)c3c([H])c(N([H])C(=O)N4C([H])([H])C([H])([H])C([H])([H])C([H])(n5nc(-c6c([H])c([H])c(Oc7c([H])c([H])c(F)c([H])c7F)c([H])c6[H])c(C(=O)N([H])[H])c5N([H])[H])C4([H])[H])c([H])c([H])c3C([H])([H])[H])c([H])c([H])c2C1([H])[H]

>  <smiles>  (12) 
[H]c1c([H])c([H])c2c(c1[H])C([H])([H])C([H])([H])C([H])([H])C2([H])N([H])C(=O)C1([H])N(C(=O)C([H])(N([H])C(=O)C([H])(N([H])C([H])([H])[H])C([H])([H])[H])C(C([H])([H])[H])(C([H])([H])[H])C([H])([H])[H])C([H])([H])c2c([H])c(OC([H])([H])C([H])([H])C([H])([H])S(=O)(=O)c3c([H])c(N([H])C(=O)N4C([H])([H])C([H])([H])C([H])([H])C([H])(n5nc(-c6c([H])c([H])c(Oc7c([H])c([H])c(F)c([H])c7F)c([H])c6[H])c(C(=O)N([H])[H])c5N([H])[H])C4([H])[H])c([H])c([H])c3C([H])([H])[H])c([H])c([H])c2C1([H])[H]

$$$$
12:0:0
     RDKit          3D

 96105  0  0  1  0  0  0  0  0999 V2000
  -28.0930  -21.5220   21.2130 C   0  0  0  0  0  0  0  0  0  0  0  0
  -27.2270  -22.7620   21.5110 C   0  0  0  0  0  2  0  0  0  0  0  0
  -27.8320  -24.1170   21.1150 C   0  0  0  0  0  2  0  0  0  0  0  0
  -29.1410  -22.8000   19.3510 C   0  0  0  0  0  2  0  0  0  0  0  0
  -28.1590  -24.0710   19.6350 C   0  0  0  0  0  3  0  0  0  0  0  0
  -29.0070  -21.5170   20.1990 N   0  0  0  0  0  0  0  0  0  0  0  0
  -27.8950  -20.5320   21.9210 O   0  0  0  0  0  0  0  0  0  0  0  0
  -29.5680  -18.9620   19.8680 C   0  0  0  0  0  3  0  0  0  0  0  0
  -31.7010  -18.0600   20.5790 C   0  0  0  0  0  3  0  0  0  0  0  0
  -31.2690  -20.4910   20.7420 C   0  0  0  0  0  0  0  0  0  0  0  0
  -29.9550  -20.3410   20.1890 C   0  0  0  0  0  0  0  0  0  0  0  0
  -30.4230  -17.7860   20.0690 C   0  0  0  0  0  0  0  0  0  0  0  0
  -32.1180  -19.3600   20.9040 C   0  0  0  0  0  0  0  0  0  0  0  0
  -33.7000  -19.4990   21.6000 Cl  0  0  0  0  0  0  0  0  0  0  0  0
  -30.8590  -15.2010   19.8000 C   0  0  0  0  0  0  0  0  0  0  0  0
  -30.7160  -12.8420   18.9660 C   0  0  0  0  0  2  0  0  0  0  0  0
  -29.7360  -12.7550   17.7770 C   0  0  0  0  0  2  0  0  0  0  0  0
  -28.2880  -12.5780   18.2760 C   0  0  0  0  0  2  0  0  0  0  0  0
  -27.9200  -13.5670   19.4170 C   0  0  0  0  0  3  0  0  0  0  0  0
  -29.0110  -13.6020   20.5060 C   0  0  0  0  0  2  0  0  0  0  0  0
  -30.2680  -13.9550   19.8370 N   0  0  0  0  0  0  0  0  0  0  0  0
  -32.0330  -15.2920   19.4390 O   0  0  0  0  0  0  0  0  0  0  0  0
  -30.0520  -16.3400   19.9230 N   0  0  0  0  0  0  0  0  0  0  0  0
  -29.0720  -16.1360   20.0460 H   0  0  0  0  0  0  0  0  0  0  0  0
  -25.5950  -14.1920   20.2890 C   0  0  0  0  0  0  0  0  0  0  0  0
  -24.5290  -13.4310   20.6930 C   0  0  0  0  0  0  0  0  0  0  0  0
  -24.9580  -12.0710   20.5960 C   0  0  0  0  0  0  0  0  0  0  0  0
  -26.6000  -13.2950   19.9700 N   0  0  0  0  0  0  0  0  0  0  0  0
  -26.2270  -12.0100   20.2130 N   0  0  0  0  0  0  0  0  0  0  0  0
  -24.2100  -10.8220   20.7910 C   0  0  0  0  0  0  0  0  0  0  0  0
  -24.6260   -9.8530   21.7290 C   0  0  0  0  0  3  0  0  0  0  0  0
  -23.8810   -8.6690   21.9110 C   0  0  0  0  0  3  0  0  0  0  0  0
  -22.7050   -8.4460   21.1570 C   0  0  0  0  0  0  0  0  0  0  0  0
  -22.3100   -9.4040   20.2070 C   0  0  0  0  0  3  0  0  0  0  0  0
  -23.0550  -10.5790   20.0230 C   0  0  0  0  0  3  0  0  0  0  0  0
  -21.9320   -7.3130   21.2500 O   0  0  0  0  0  0  0  0  0  0  0  0
  -21.8170   -6.6140   22.4250 C   0  0  0  0  0  0  0  0  0  0  0  0
  -21.3090   -7.2100   23.6000 C   0  0  0  0  0  3  0  0  0  0  0  0
  -21.1370   -6.4360   24.7640 C   0  0  0  0  0  3  0  0  0  0  0  0
  -21.4650   -5.0670   24.7560 C   0  0  0  0  0  0  0  0  0  0  0  0
  -21.9700   -4.4710   23.5860 C   0  0  0  0  0  3  0  0  0  0  0  0
  -22.1400   -5.2410   22.4220 C   0  0  0  0  0  0  0  0  0  0  0  0
  -22.6020   -4.6570   21.2890 F   0  0  0  0  0  0  0  0  0  0  0  0
  -21.2960   -4.3190   25.8720 F   0  0  0  0  0  0  0  0  0  0  0  0
  -23.1630  -13.9350   21.0520 C   0  0  0  0  0  0  0  0  0  0  0  0
  -22.4700  -13.2340   21.9430 N   0  0  0  0  0  0  0  0  0  0  0  0
  -22.7220  -14.9820   20.5780 O   0  0  0  0  0  0  0  0  0  0  0  0
  -22.8430  -12.3880   22.3460 H   0  0  0  0  0  0  0  0  0  0  0  0
  -21.5510  -13.5460   22.2230 H   0  0  0  0  0  0  0  0  0  0  0  0
  -25.7850  -15.5610   20.1420 N   0  0  0  0  0  0  0  0  0  0  0  0
  -25.0440  -16.2280   20.3220 H   0  0  0  0  0  0  0  0  0  0  0  0
  -26.6150  -15.9930   19.7540 H   0  0  0  0  0  0  0  0  0  0  0  0
  -31.5570  -21.8780   22.8410 C   0  0  0  0  0  1  0  0  0  0  0  0
  -31.7770  -21.8140   21.3220 C   0  0  0  0  0  2  0  0  0  0  0  0
  -28.4810  -25.5180   18.9880 C   0  0  0  0  0  2  0  0  0  0  0  0
  -28.2350  -26.8460   19.6230 O   0  0  0  0  0  0  0  0  0  0  0  0
  -24.5700  -31.9460   23.1220 C   0  0  0  0  0  0  0  0  0  0  0  0
  -27.0600  -27.6290   19.6140 C   0  0  0  0  0  0  0  0  0  0  0  0
  -23.2800  -30.6500   21.4570 C   0  0  0  0  0  3  0  0  0  0  0  0
  -24.6590  -29.2020   19.8310 C   0  0  0  0  0  0  0  0  0  0  0  0
  -25.7960  -31.0030   21.1450 C   0  0  0  0  0  2  0  0  0  0  0  0
  -25.8480  -29.6680   20.4070 C   0  0  0  0  0  0  0  0  0  0  0  0
  -27.0360  -28.8900   20.2900 C   0  0  0  0  0  3  0  0  0  0  0  0
  -25.8520  -27.2140   19.0110 C   0  0  0  0  0  3  0  0  0  0  0  0
  -24.6690  -27.9870   19.1170 C   0  0  0  0  0  3  0  0  0  0  0  0
  -23.4100  -30.0510   20.0250 C   0  0  0  0  0  2  0  0  0  0  0  0
  -24.5740  -31.2160   21.9660 N   0  0  0  0  0  0  0  0  0  0  0  0
  -23.5190  -32.1730   23.7390 O   0  0  0  0  0  0  0  0  0  0  0  0
  -22.6860  -29.5670   22.3860 C   0  0  0  0  0  0  0  0  0  0  0  0
  -21.3670  -29.3410   22.2770 N   0  0  0  0  0  0  0  0  0  0  0  0
  -23.4100  -28.9320   23.1590 O   0  0  0  0  0  0  0  0  0  0  0  0
  -20.8390  -29.9180   21.6380 H   0  0  0  0  0  0  0  0  0  0  0  0
  -18.0800  -27.9020   22.7120 C   0  0  0  0  0  0  0  0  0  0  0  0
  -20.6090  -28.3300   23.0150 C   0  0  0  0  0  3  0  0  0  0  0  0
  -20.8140  -26.9220   22.4080 C   0  0  0  0  0  2  0  0  0  0  0  0
  -19.7480  -26.5460   21.3720 C   0  0  0  0  0  2  0  0  0  0  0  0
  -18.3550  -26.5820   22.0080 C   0  0  0  0  0  2  0  0  0  0  0  0
  -19.1390  -28.7290   23.1710 C   0  0  0  0  0  0  0  0  0  0  0  0
  -18.8280  -29.9590   23.7920 C   0  0  0  0  0  3  0  0  0  0  0  0
  -17.4910  -30.3680   23.9520 C   0  0  0  0  0  3  0  0  0  0  0  0
  -16.4450  -29.5380   23.5060 C   0  0  0  0  0  3  0  0  0  0  0  0
  -16.7410  -28.3050   22.8960 C   0  0  0  0  0  3  0  0  0  0  0  0
  -25.8810  -32.5530   23.7120 C   0  0  0  0  0  3  0  0  0  0  0  0
  -26.4410  -31.7390   24.9410 C   0  0  1  0  0  0  0  0  0  0  0  0
  -25.3910  -31.4690   26.0440 C   0  0  0  0  0  1  0  0  0  0  0  0
  -26.9990  -30.3730   24.4780 C   0  0  0  0  0  1  0  0  0  0  0  0
  -27.6140  -32.5120   25.5920 C   0  0  0  0  0  1  0  0  0  0  0  0
  -25.5920  -33.9380   24.1010 N   0  0  0  0  0  0  0  0  0  0  0  0
  -25.9180  -35.0210   23.3780 C   0  0  0  0  0  0  0  0  0  0  0  0
  -26.5610  -34.9520   22.3270 O   0  0  0  0  0  0  0  0  0  0  0  0
  -25.0190  -34.0650   24.9220 H   0  0  0  0  0  0  0  0  0  0  0  0
  -24.1980  -36.8470   23.1560 C   0  0  0  0  0  1  0  0  0  0  0  0
  -25.4600  -36.3950   23.9090 C   0  0  0  0  0  3  0  0  0  0  0  0
  -27.6260  -37.2270   24.7110 C   0  0  0  0  0  1  0  0  0  0  0  0
  -26.4990  -37.4440   23.8060 N   0  0  0  0  0  0  0  0  0  0  0  0
  -26.1080  -38.3600   24.0040 H   0  0  0  0  0  0  0  0  0  0  0  0
  1  2  1  0
  1  7  2  0
  3  2  1  0
  4  5  1  0
  4  6  1  0
  5 55  1  0
  5  3  1  0
  6  1  1  0
  8 12  2  0
  8 11  1  0
  9 13  2  0
 10 13  1  0
 10 54  1  0
 11  6  1  0
 11 10  2  0
 12  9  1  0
 13 14  1  0
 15 21  1  0
 15 23  1  0
 16 21  1  0
 17 18  1  0
 17 16  1  0
 19 18  1  0
 19 28  1  0
 19 20  1  0
 21 20  1  0
 22 15  2  0
 23 24  1  0
 23 12  1  0
 25 26  2  0
 26 45  1  0
 27 26  1  0
 27 30  1  0
 28 29  1  0
 28 25  1  0
 29 27  2  0
 30 31  1  0
 31 32  2  0
 33 36  1  0
 33 32  1  0
 34 33  2  0
 35 34  1  0
 35 30  2  0
 36 37  1  0
 37 38  1  0
 38 39  2  0
 40 39  1  0
 40 44  1  0
 41 40  2  0
 42 37  2  0
 42 41  1  0
 43 42  1  0
 45 46  1  0
 46 49  1  0
 46 48  1  0
 47 45  2  0
 50 25  1  0
 50 51  1  0
 52 50  1  0
 54 53  1  0
 55 56  1  0
 57 68  2  0
 58 56  1  0
 58 63  1  0
 59 67  1  0
 59 69  1  0
 60 66  1  0
 60 62  1  0
 61 67  1  0
 62 61  1  0
 63 62  2  0
 64 65  1  0
 64 58  2  0
 65 60  2  0
 66 59  1  0
 67 57  1  0
 69 71  2  0
 70 69  1  0
 72 70  1  0
 73 82  2  0
 73 78  1  0
 74 70  1  0
 74 78  1  0
 75 74  1  0
 76 77  1  0
 76 75  1  0
 77 73  1  0
 78 79  2  0
 79 80  1  0
 81 80  2  0
 82 81  1  0
 83 57  1  0
 83 88  1  0
 83 84  1  0
 84 87  1  1
 84 85  1  0
 86 84  1  0
 88 91  1  0
 89 93  1  0
 89 88  1  0
 90 89  2  0
 93 92  1  0
 95 93  1  0
 95 96  1  0
 95 94  1  0
M  ISO  4  15 100  23 100  55 101  56 101
M  END
>  <TORSDO>  (13) 
F 19

>  <SCORE>  (13) 
-12.595

>  <name>  (13) 
12

>  <ligand_id>  (13) 
12

>  <original_smiles>  (13) 
[H]c1c([H])c([H])c2c(c1[H])C([H])([H])C([H])([H])C([H])([H])C2([H])N([H])C(=O)C1([H])N(C(=O)C([H])(N([H])C(=O)C([H])(N([H])C([H])([H])[H])C([H])([H])[H])C(C([H])([H])[H])(C([H])([H])[H])C([H])([H])[H])C([H])([H])c2c([H])c(OC([H])([H])C3([H])C([H])([H])N(c4c([H])c(N([H])C(=O)N5C([H])([H])C([H])([H])C([H])([H])C([H])(n6nc(-c7c([H])c([H])c(Oc8c([H])c([H])c(F)c([H])c8F)c([H])c7[H])c(C(=O)N([H])[H])c6N([H])[H])C5([H])[H])c([H])c(Cl)c4C([H])([H])C([H])([H])[H])C(=O)C([H])([H])C3([H])[H])c([H])c([H])c2C1([H])[H]

>  <smiles>  (13) 
[H]c1c([H])c([H])c2c(c1[H])C([H])([H])C([H])([H])C([H])([H])C2([H])N([H])C(=O)C1([H])N(C(=O)C([H])(N([H])C(=O)C([H])(N([H])C([H])([H])[H])C([H])([H])[H])C(C([H])([H])[H])(C([H])([H])[H])C([H])([H])[H])C([H])([H])c2c([H])c(OC([H])([H])C3([H])C([H])([H])N(c4c([H])c(N([H])C(=O)N5C([H])([H])C([H])([H])C([H])([H])C([H])(n6nc(-c7c([H])c([H])c(Oc8c([H])c([H])c(F)c([H])c8F)c([H])c7[H])c(C(=O)N([H])[H])c6N([H])[H])C5([H])[H])c([H])c(Cl)c4C([H])([H])C([H])([H])[H])C(=O)C([H])([H])C3([H])[H])c([H])c([H])c2C1([H])[H]

$$$$
13:0:0
     RDKit          3D

 96104  0  0  1  0  0  0  0  0999 V2000
  -29.0980  -23.6190   21.0790 C   0  0  0  0  0  3  0  0  0  0  0  0
  -28.5650  -22.3860   20.9970 C   0  0  0  0  0  3  0  0  0  0  0  0
  -28.4500  -24.7250   20.3940 C   0  0  0  0  0  0  0  0  0  0  0  0
  -28.6870  -25.9560   20.9080 N   0  0  0  0  0  0  0  0  0  0  0  0
  -27.7520  -24.5610   19.3890 O   0  0  0  0  0  0  0  0  0  0  0  0
  -28.9510  -26.1700   23.3660 C   0  0  0  0  0  1  0  0  0  0  0  0
  -29.5910  -26.3770   21.9860 C   0  0  0  0  0  2  0  0  0  0  0  0
  -28.4580  -27.0190   20.0250 O   0  0  0  0  0  0  0  0  0  0  0  0
  -24.5540  -32.0030   23.3400 C   0  0  0  0  0  0  0  0  0  0  0  0
  -27.2490  -27.6450   20.2030 C   0  0  0  0  0  0  0  0  0  0  0  0
  -23.3550  -30.5910   21.7000 C   0  0  0  0  0  3  0  0  0  0  0  0
  -24.8190  -29.0730   20.2770 C   0  0  0  0  0  0  0  0  0  0  0  0
  -25.8760  -30.9840   21.4980 C   0  0  0  0  0  2  0  0  0  0  0  0
  -25.9730  -29.6190   20.8530 C   0  0  0  0  0  0  0  0  0  0  0  0
  -27.1910  -28.9100   20.8210 C   0  0  0  0  0  3  0  0  0  0  0  0
  -26.0800  -27.0940   19.6400 C   0  0  0  0  0  3  0  0  0  0  0  0
  -24.8600  -27.7990   19.6830 C   0  0  0  0  0  3  0  0  0  0  0  0
  -23.5700  -29.9190   20.3190 C   0  0  0  0  0  2  0  0  0  0  0  0
  -24.6100  -31.2080   22.2350 N   0  0  0  0  0  0  0  0  0  0  0  0
  -23.4730  -32.2600   23.8880 O   0  0  0  0  0  0  0  0  0  0  0  0
  -22.7280  -29.5540   22.6600 C   0  0  0  0  0  0  0  0  0  0  0  0
  -21.4110  -29.3330   22.5230 N   0  0  0  0  0  0  0  0  0  0  0  0
  -23.4250  -28.9500   23.4820 O   0  0  0  0  0  0  0  0  0  0  0  0
  -20.9060  -29.8770   21.8390 H   0  0  0  0  0  0  0  0  0  0  0  0
  -18.0760  -28.0330   22.9800 C   0  0  0  0  0  0  0  0  0  0  0  0
  -20.6170  -28.3760   23.2950 C   0  0  0  0  0  3  0  0  0  0  0  0
  -20.7790  -26.9430   22.7380 C   0  0  0  0  0  2  0  0  0  0  0  0
  -19.7040  -26.5710   21.7110 C   0  0  0  0  0  2  0  0  0  0  0  0
  -18.3070  -26.6790   22.3270 C   0  0  0  0  0  2  0  0  0  0  0  0
  -19.1610  -28.8350   23.4190 C   0  0  0  0  0  0  0  0  0  0  0  0
  -18.8930  -30.1000   23.9870 C   0  0  0  0  0  3  0  0  0  0  0  0
  -17.5710  -30.5630   24.1230 C   0  0  0  0  0  3  0  0  0  0  0  0
  -16.4980  -29.7570   23.7020 C   0  0  0  0  0  3  0  0  0  0  0  0
  -16.7510  -28.4950   23.1360 C   0  0  0  0  0  3  0  0  0  0  0  0
  -25.8390  -32.6470   23.9490 C   0  0  0  0  0  3  0  0  0  0  0  0
  -25.5260  -34.0500   24.2480 N   0  0  0  0  0  0  0  0  0  0  0  0
  -25.8510  -35.0860   23.4620 C   0  0  0  0  0  0  0  0  0  0  0  0
  -26.5160  -34.9620   22.4320 O   0  0  0  0  0  0  0  0  0  0  0  0
  -24.9330  -34.2210   25.0470 H   0  0  0  0  0  0  0  0  0  0  0  0
  -24.1080  -36.8550   23.0730 C   0  0  0  0  0  1  0  0  0  0  0  0
  -25.3560  -36.4810   23.8880 C   0  0  0  0  0  3  0  0  0  0  0  0
  -27.4880  -37.4010   24.6850 C   0  0  0  0  0  1  0  0  0  0  0  0
  -26.3810  -37.5380   23.7420 N   0  0  0  0  0  0  0  0  0  0  0  0
  -25.9690  -38.4590   23.8720 H   0  0  0  0  0  0  0  0  0  0  0  0
  -26.3590  -31.8990   25.2370 C   0  0  1  0  0  0  0  0  0  0  0  0
  -25.2640  -31.6690   26.3030 C   0  0  0  0  0  1  0  0  0  0  0  0
  -26.9550  -30.5200   24.8710 C   0  0  0  0  0  1  0  0  0  0  0  0
  -27.4980  -32.7140   25.8920 C   0  0  0  0  0  1  0  0  0  0  0  0
  -29.1690  -21.1480   21.6070 C   0  0  0  0  0  2  0  0  0  0  0  0
  -29.2220  -20.0660   20.6310 N   0  0  0  0  0  0  0  0  0  0  0  0
  -28.3140  -19.7840   20.2720 H   0  0  0  0  0  0  0  0  0  0  0  0
  -32.3230  -18.2040   21.5290 C   0  0  0  0  0  3  0  0  0  0  0  0
  -31.8800  -16.8750   21.4260 C   0  0  0  0  0  3  0  0  0  0  0  0
  -31.4370  -19.2610   21.2630 C   0  0  0  0  0  3  0  0  0  0  0  0
  -29.6500  -17.6640   20.7580 C   0  0  0  0  0  0  0  0  0  0  0  0
  -30.5530  -16.6010   21.0340 C   0  0  0  0  0  0  0  0  0  0  0  0
  -30.0980  -19.0040   20.8920 C   0  0  0  0  0  0  0  0  0  0  0  0
  -28.2210  -17.3790   20.2940 C   0  0  0  0  0  1  0  0  0  0  0  0
  -30.5560  -14.4220   19.9700 C   0  0  0  0  0  0  0  0  0  0  0  0
  -30.0810  -12.3430   18.7350 C   0  0  0  0  0  2  0  0  0  0  0  0
  -29.0270  -12.6020   17.6420 C   0  0  0  0  0  2  0  0  0  0  0  0
  -27.6050  -12.4420   18.2100 C   0  0  0  0  0  2  0  0  0  0  0  0
  -27.3990  -13.2430   19.5220 C   0  0  0  0  0  3  0  0  0  0  0  0
  -28.5540  -12.9800   20.5160 C   0  0  0  0  0  2  0  0  0  0  0  0
  -29.8300  -13.2810   19.8390 N   0  0  0  0  0  0  0  0  0  0  0  0
  -31.5270  -14.6940   19.2570 O   0  0  0  0  0  0  0  0  0  0  0  0
  -30.1420  -15.2510   20.9330 N   0  0  0  0  0  0  0  0  0  0  0  0
  -29.3170  -14.9710   21.4390 H   0  0  0  0  0  0  0  0  0  0  0  0
  -25.0700  -13.8330   20.4530 C   0  0  0  0  0  0  0  0  0  0  0  0
  -24.0470  -13.0490   20.9150 C   0  0  0  0  0  0  0  0  0  0  0  0
  -24.5090  -11.7010   20.8190 C   0  0  0  0  0  0  0  0  0  0  0  0
  -26.0950  -12.9610   20.1190 N   0  0  0  0  0  0  0  0  0  0  0  0
  -25.7650  -11.6740   20.3920 N   0  0  0  0  0  0  0  0  0  0  0  0
  -23.8100  -10.4320   21.0600 C   0  0  0  0  0  0  0  0  0  0  0  0
  -24.3020   -9.4810   21.9820 C   0  0  0  0  0  3  0  0  0  0  0  0
  -23.6030   -8.2750   22.2060 C   0  0  0  0  0  3  0  0  0  0  0  0
  -22.4010   -8.0120   21.5110 C   0  0  0  0  0  0  0  0  0  0  0  0
  -21.9290   -8.9510   20.5770 C   0  0  0  0  0  3  0  0  0  0  0  0
  -22.6260  -10.1480   20.3500 C   0  0  0  0  0  3  0  0  0  0  0  0
  -21.6680   -6.8570   21.6450 O   0  0  0  0  0  0  0  0  0  0  0  0
  -21.6510   -6.1500   22.8200 C   0  0  0  0  0  0  0  0  0  0  0  0
  -21.2330   -6.7350   24.0350 C   0  0  0  0  0  3  0  0  0  0  0  0
  -21.1630   -5.9530   25.2050 C   0  0  0  0  0  3  0  0  0  0  0  0
  -21.5040   -4.5880   25.1620 C   0  0  0  0  0  0  0  0  0  0  0  0
  -21.9160   -4.0020   23.9520 C   0  0  0  0  0  3  0  0  0  0  0  0
  -21.9860   -4.7820   22.7850 C   0  0  0  0  0  0  0  0  0  0  0  0
  -22.3640   -4.2090   21.6170 F   0  0  0  0  0  0  0  0  0  0  0  0
  -21.4300   -3.8340   26.2840 F   0  0  0  0  0  0  0  0  0  0  0  0
  -22.6790  -13.5130   21.3260 C   0  0  0  0  0  0  0  0  0  0  0  0
  -22.0450  -12.8010   22.2510 N   0  0  0  0  0  0  0  0  0  0  0  0
  -22.1860  -14.5390   20.8610 O   0  0  0  0  0  0  0  0  0  0  0  0
  -22.4610  -11.9710   22.6440 H   0  0  0  0  0  0  0  0  0  0  0  0
  -21.1320  -13.0940   22.5720 H   0  0  0  0  0  0  0  0  0  0  0  0
  -25.2070  -15.2060   20.2710 N   0  0  0  0  0  0  0  0  0  0  0  0
  -24.4360  -15.8440   20.4240 H   0  0  0  0  0  0  0  0  0  0  0  0
  -25.9960  -15.6400   19.8130 H   0  0  0  0  0  0  0  0  0  0  0  0
  2  1  2  0
  2 49  1  0
  3  4  1  0
  3  1  1  0
  4  7  1  0
  5  3  2  0
  7  6  1  0
  8 10  1  0
  8  4  1  0
  9 20  2  0
 10 15  1  0
 11 19  1  0
 11 21  1  0
 12 18  1  0
 12 14  1  0
 13 19  1  0
 14 13  1  0
 15 14  2  0
 16 17  1  0
 16 10  2  0
 17 12  2  0
 18 11  1  0
 19  9  1  0
 21 23  2  0
 22 21  1  0
 24 22  1  0
 25 34  2  0
 25 30  1  0
 26 22  1  0
 26 30  1  0
 27 26  1  0
 28 29  1  0
 28 27  1  0
 29 25  1  0
 30 31  2  0
 31 32  1  0
 33 32  2  0
 34 33  1  0
 35  9  1  0
 35 36  1  0
 35 45  1  0
 36 39  1  0
 37 41  1  0
 37 36  1  0
 38 37  2  0
 41 40  1  0
 43 44  1  0
 43 41  1  0
 43 42  1  0
 45 48  1  1
 45 46  1  0
 47 45  1  0
 50 57  1  0
 50 49  1  0
 51 50  1  0
 53 52  1  0
 54 52  2  0
 55 57  2  0
 55 56  1  0
 56 53  2  0
 57 54  1  0
 58 55  1  0
 59 67  1  0
 60 65  1  0
 61 62  1  0
 61 60  1  0
 63 62  1  0
 63 72  1  0
 63 64  1  0
 65 59  1  0
 65 64  1  0
 66 59  2  0
 67 56  1  0
 67 68  1  0
 69 70  2  0
 70 89  1  0
 71 70  1  0
 71 74  1  0
 72 73  1  0
 72 69  1  0
 73 71  2  0
 74 75  1  0
 75 76  2  0
 77 80  1  0
 77 76  1  0
 78 77  2  0
 79 78  1  0
 79 74  2  0
 80 81  1  0
 81 82  1  0
 82 83  2  0
 84 83  1  0
 84 88  1  0
 85 84  2  0
 86 81  2  0
 86 85  1  0
 87 86  1  0
 89 90  1  0
 90 93  1  0
 90 92  1  0
 91 89  2  0
 94 95  1  0
 94 69  1  0
 96 94  1  0
M  ISO  4   4 101   8 101  59 100  67 100
M  END
>  <TORSDO>  (14) 
F 21

>  <SCORE>  (14) 
-12.968

>  <name>  (14) 
13

>  <ligand_id>  (14) 
13

>  <original_smiles>  (14) 
[H]C(C(=O)N(Oc1c([H])c([H])c2c(c1[H])C([H])([H])N(C(=O)C([H])(N([H])C(=O)C([H])(N([H])C([H])([H])[H])C([H])([H])[H])C(C([H])([H])[H])(C([H])([H])[H])C([H])([H])[H])C([H])(C(=O)N([H])C1([H])c3c([H])c([H])c([H])c([H])c3C([H])([H])C([H])([H])C1([H])[H])C2([H])[H])C([H])([H])C([H])([H])[H])=C([H])C([H])([H])N([H])c1c([H])c([H])c([H])c(N([H])C(=O)N2C([H])([H])C([H])([H])C([H])([H])C([H])(n3nc(-c4c([H])c([H])c(Oc5c([H])c([H])c(F)c([H])c5F)c([H])c4[H])c(C(=O)N([H])[H])c3N([H])[H])C2([H])[H])c1C([H])([H])[H]

>  <smiles>  (14) 
[H]C(C(=O)N(Oc1c([H])c([H])c2c(c1[H])C([H])([H])N(C(=O)C([H])(N([H])C(=O)C([H])(N([H])C([H])([H])[H])C([H])([H])[H])C(C([H])([H])[H])(C([H])([H])[H])C([H])([H])[H])C([H])(C(=O)N([H])C1([H])c3c([H])c([H])c([H])c([H])c3C([H])([H])C([H])([H])C1([H])[H])C2([H])[H])C([H])([H])C([H])([H])[H])=C([H])C([H])([H])N([H])c1c([H])c([H])c([H])c(N([H])C(=O)N2C([H])([H])C([H])([H])C([H])([H])C([H])(n3nc(-c4c([H])c([H])c(Oc5c([H])c([H])c(F)c([H])c5F)c([H])c4[H])c(C(=O)N([H])[H])c3N([H])[H])C2([H])[H])c1C([H])([H])[H]

$$$$
14:0:0
     RDKit          3D

 93102  0  0  1  0  0  0  0  0999 V2000
  -29.4650  -22.5130   19.8930 C   0  0  0  0  0  0  0  0  0  0  0  0
  -27.8870  -22.9620   21.5660 C   0  0  0  0  0  2  0  0  0  0  0  0
  -28.3590  -21.4780   21.6140 C   0  0  0  0  0  2  0  0  0  0  0  0
  -28.8660  -23.7590   20.6680 C   0  0  1  0  0  0  0  0  0  0  0  0
  -29.9990  -24.3740   21.5170 C   0  0  0  0  0  1  0  0  0  0  0  0
  -29.2750  -21.2800   20.4970 N   0  0  0  0  0  0  0  0  0  0  0  0
  -30.0500  -22.6740   18.8180 O   0  0  0  0  0  0  0  0  0  0  0  0
  -32.2260  -19.0310   19.7540 C   0  0  0  0  0  3  0  0  0  0  0  0
  -31.3870  -20.1410   19.9100 C   0  0  0  0  0  3  0  0  0  0  0  0
  -31.7570  -17.7250   19.9590 C   0  0  0  0  0  3  0  0  0  0  0  0
  -29.5770  -18.6290   20.5260 C   0  0  0  0  0  3  0  0  0  0  0  0
  -30.0340  -20.0050   20.2960 C   0  0  0  0  0  0  0  0  0  0  0  0
  -30.4220  -17.4420   20.3440 C   0  0  0  0  0  0  0  0  0  0  0  0
  -30.6700  -14.8100   20.3050 C   0  0  0  0  0  0  0  0  0  0  0  0
  -30.3930  -12.5520   19.2790 C   0  0  0  0  0  2  0  0  0  0  0  0
  -29.4620  -12.6420   18.0520 C   0  0  0  0  0  2  0  0  0  0  0  0
  -27.9940  -12.4750   18.4810 C   0  0  0  0  0  2  0  0  0  0  0  0
  -27.6260  -13.3530   19.7060 C   0  0  0  0  0  3  0  0  0  0  0  0
  -28.6870  -13.2760   20.8250 C   0  0  0  0  0  2  0  0  0  0  0  0
  -29.9810  -13.6180   20.2260 N   0  0  0  0  0  0  0  0  0  0  0  0
  -31.8640  -14.7960   20.0060 O   0  0  0  0  0  0  0  0  0  0  0  0
  -29.9870  -16.0130   20.5190 N   0  0  0  0  0  0  0  0  0  0  0  0
  -29.0140  -15.8870   20.7550 H   0  0  0  0  0  0  0  0  0  0  0  0
  -25.2340  -13.9260   20.4260 C   0  0  0  0  0  0  0  0  0  0  0  0
  -24.1740  -13.1470   20.7980 C   0  0  0  0  0  0  0  0  0  0  0  0
  -24.6490  -11.7990   20.7820 C   0  0  0  0  0  0  0  0  0  0  0  0
  -26.2850  -13.0550   20.1990 N   0  0  0  0  0  0  0  0  0  0  0  0
  -25.9410  -11.7700   20.4790 N   0  0  0  0  0  0  0  0  0  0  0  0
  -23.9300  -10.5320   20.9780 C   0  0  0  0  0  0  0  0  0  0  0  0
  -24.3620   -9.5760   21.9240 C   0  0  0  0  0  3  0  0  0  0  0  0
  -23.6420   -8.3750   22.1090 C   0  0  0  0  0  3  0  0  0  0  0  0
  -22.4760   -8.1230   21.3470 C   0  0  0  0  0  0  0  0  0  0  0  0
  -22.0640   -9.0670   20.3900 C   0  0  0  0  0  3  0  0  0  0  0  0
  -22.7860  -10.2590   20.2030 C   0  0  0  0  0  3  0  0  0  0  0  0
  -21.7290   -6.9740   21.4410 O   0  0  0  0  0  0  0  0  0  0  0  0
  -21.6720   -6.2440   22.6000 C   0  0  0  0  0  0  0  0  0  0  0  0
  -21.2220   -6.8060   23.8150 C   0  0  0  0  0  3  0  0  0  0  0  0
  -21.1140   -6.0020   24.9670 C   0  0  0  0  0  3  0  0  0  0  0  0
  -21.4470   -4.6350   24.9050 C   0  0  0  0  0  0  0  0  0  0  0  0
  -21.8910   -4.0720   23.6960 C   0  0  0  0  0  3  0  0  0  0  0  0
  -22.0010   -4.8740   22.5460 C   0  0  0  0  0  0  0  0  0  0  0  0
  -22.4080   -4.3210   21.3780 F   0  0  0  0  0  0  0  0  0  0  0  0
  -21.3370   -3.8600   26.0080 F   0  0  0  0  0  0  0  0  0  0  0  0
  -22.7710  -13.6140   21.0590 C   0  0  0  0  0  0  0  0  0  0  0  0
  -22.0430  -12.9190   21.9250 N   0  0  0  0  0  0  0  0  0  0  0  0
  -22.3300  -14.6340   20.5290 O   0  0  0  0  0  0  0  0  0  0  0  0
  -22.4140  -12.0940   22.3730 H   0  0  0  0  0  0  0  0  0  0  0  0
  -21.1020  -13.2150   22.1420 H   0  0  0  0  0  0  0  0  0  0  0  0
  -25.3890  -15.2970   20.2370 N   0  0  0  0  0  0  0  0  0  0  0  0
  -24.6130  -15.9450   20.3320 H   0  0  0  0  0  0  0  0  0  0  0  0
  -26.2310  -15.7370   19.8890 H   0  0  0  0  0  0  0  0  0  0  0  0
  -28.1780  -24.9720   19.8230 C   0  0  0  0  0  2  0  0  0  0  0  0
  -28.3050  -26.4310   20.1980 O   0  0  0  0  0  0  0  0  0  0  0  0
  -24.6070  -31.8910   23.2140 C   0  0  0  0  0  0  0  0  0  0  0  0
  -27.2040  -27.3200   20.1160 C   0  0  0  0  0  0  0  0  0  0  0  0
  -23.4000  -30.5000   21.5740 C   0  0  0  0  0  3  0  0  0  0  0  0
  -24.8470  -28.9700   20.1220 C   0  0  0  0  0  0  0  0  0  0  0  0
  -25.9410  -30.8180   21.3800 C   0  0  0  0  0  2  0  0  0  0  0  0
  -26.0200  -29.4400   20.7260 C   0  0  0  0  0  0  0  0  0  0  0  0
  -27.1980  -28.6240   20.7180 C   0  0  0  0  0  3  0  0  0  0  0  0
  -26.0120  -26.9370   19.4540 C   0  0  0  0  0  3  0  0  0  0  0  0
  -24.8480  -27.7270   19.4780 C   0  0  0  0  0  3  0  0  0  0  0  0
  -23.6110  -29.8430   20.1850 C   0  0  0  0  0  2  0  0  0  0  0  0
  -24.6700  -31.0870   22.1130 N   0  0  0  0  0  0  0  0  0  0  0  0
  -23.5240  -32.1580   23.7570 O   0  0  0  0  0  0  0  0  0  0  0  0
  -22.7500  -29.4700   22.5300 C   0  0  0  0  0  0  0  0  0  0  0  0
  -21.4210  -29.2910   22.4160 N   0  0  0  0  0  0  0  0  0  0  0  0
  -23.4370  -28.8410   23.3370 O   0  0  0  0  0  0  0  0  0  0  0  0
  -20.9220  -29.8520   21.7400 H   0  0  0  0  0  0  0  0  0  0  0  0
  -18.0530  -28.0760   22.9390 C   0  0  0  0  0  0  0  0  0  0  0  0
  -20.6130  -28.3440   23.1880 C   0  0  0  0  0  3  0  0  0  0  0  0
  -20.7170  -26.9170   22.6030 C   0  0  0  0  0  2  0  0  0  0  0  0
  -19.6070  -26.5950   21.5970 C   0  0  0  0  0  2  0  0  0  0  0  0
  -18.2300  -26.7330   22.2510 C   0  0  0  0  0  2  0  0  0  0  0  0
  -19.1720  -28.8390   23.3640 C   0  0  0  0  0  0  0  0  0  0  0  0
  -18.9530  -30.0980   23.9670 C   0  0  0  0  0  3  0  0  0  0  0  0
  -17.6460  -30.5920   24.1470 C   0  0  0  0  0  3  0  0  0  0  0  0
  -16.5430  -29.8250   23.7380 C   0  0  0  0  0  3  0  0  0  0  0  0
  -16.7460  -28.5690   23.1400 C   0  0  0  0  0  3  0  0  0  0  0  0
  -25.8900  -32.5290   23.8310 C   0  0  0  0  0  3  0  0  0  0  0  0
  -25.5760  -33.9260   24.1670 N   0  0  0  0  0  0  0  0  0  0  0  0
  -25.9010  -34.9840   23.4110 C   0  0  0  0  0  0  0  0  0  0  0  0
  -26.5670  -34.8870   22.3780 O   0  0  0  0  0  0  0  0  0  0  0  0
  -24.9860  -34.0750   24.9720 H   0  0  0  0  0  0  0  0  0  0  0  0
  -24.1720  -36.7770   23.0660 C   0  0  0  0  0  1  0  0  0  0  0  0
  -25.4110  -36.3690   23.8770 C   0  0  0  0  0  3  0  0  0  0  0  0
  -27.5410  -37.2510   24.7200 C   0  0  0  0  0  1  0  0  0  0  0  0
  -26.4420  -37.4240   23.7750 N   0  0  0  0  0  0  0  0  0  0  0  0
  -26.0330  -38.3420   23.9300 H   0  0  0  0  0  0  0  0  0  0  0  0
  -26.4160  -31.7570   25.1040 C   0  0  1  0  0  0  0  0  0  0  0  0
  -25.3290  -31.5140   26.1760 C   0  0  0  0  0  1  0  0  0  0  0  0
  -27.0020  -30.3820   24.7050 C   0  0  0  0  0  1  0  0  0  0  0  0
  -27.5670  -32.5550   25.7610 C   0  0  0  0  0  1  0  0  0  0  0  0
  1  6  1  0
  1  4  1  0
  2  3  1  0
  4  5  1  1
  4  2  1  0
  6  3  1  0
  7  1  2  0
  8  9  2  0
  8 10  1  0
  9 12  1  0
 10 13  2  0
 12  6  1  0
 12 11  2  0
 13 22  1  0
 13 11  1  0
 14 22  1  0
 15 20  1  0
 16 17  1  0
 16 15  1  0
 18 17  1  0
 18 27  1  0
 18 19  1  0
 20 14  1  0
 20 19  1  0
 21 14  2  0
 22 23  1  0
 24 25  2  0
 25 44  1  0
 26 25  1  0
 26 29  1  0
 27 24  1  0
 27 28  1  0
 28 26  2  0
 29 30  1  0
 30 31  2  0
 32 35  1  0
 32 31  1  0
 33 32  2  0
 34 33  1  0
 34 29  2  0
 35 36  1  0
 36 37  1  0
 37 38  2  0
 39 38  1  0
 39 43  1  0
 40 39  2  0
 41 36  2  0
 41 40  1  0
 42 41  1  0
 44 45  1  0
 45 48  1  0
 45 47  1  0
 46 44  2  0
 49 50  1  0
 49 24  1  0
 51 49  1  0
 52 53  1  0
 52  4  1  0
 54 65  2  0
 55 53  1  0
 55 60  1  0
 56 64  1  0
 56 66  1  0
 57 63  1  0
 57 59  1  0
 58 64  1  0
 59 58  1  0
 60 59  2  0
 61 62  1  0
 61 55  2  0
 62 57  2  0
 63 56  1  0
 64 54  1  0
 66 68  2  0
 67 66  1  0
 69 67  1  0
 70 79  2  0
 70 75  1  0
 71 67  1  0
 71 75  1  0
 72 71  1  0
 73 74  1  0
 73 72  1  0
 74 70  1  0
 75 76  2  0
 76 77  1  0
 78 77  2  0
 79 78  1  0
 80 54  1  0
 80 81  1  0
 80 90  1  0
 81 84  1  0
 82 86  1  0
 82 81  1  0
 83 82  2  0
 86 85  1  0
 88 86  1  0
 88 89  1  0
 88 87  1  0
 90 93  1  1
 90 91  1  0
 92 90  1  0
M  ISO  4  14 100  22 100  52 101  53 101
M  END
>  <TORSDO>  (15) 
F 18

>  <SCORE>  (15) 
-14.865

>  <name>  (15) 
14

>  <ligand_id>  (15) 
14

>  <original_smiles>  (15) 
[H]c1c([H])c(N([H])C(=O)N2C([H])([H])C([H])([H])C([H])([H])C([H])(n3nc(-c4c([H])c([H])c(Oc5c([H])c([H])c(F)c([H])c5F)c([H])c4[H])c(C(=O)N([H])[H])c3N([H])[H])C2([H])[H])c([H])c(N2C(=O)C(C([H])([H])[H])(C([H])([H])Oc3c([H])c([H])c4c(c3[H])C([H])([H])N(C(=O)C([H])(N([H])C(=O)C([H])(N([H])C([H])([H])[H])C([H])([H])[H])C(C([H])([H])[H])(C([H])([H])[H])C([H])([H])[H])C([H])(C(=O)N([H])C3([H])c5c([H])c([H])c([H])c([H])c5C([H])([H])C([H])([H])C3([H])[H])C4([H])[H])C([H])([H])C2([H])[H])c1[H]

>  <smiles>  (15) 
[H]c1c([H])c(N([H])C(=O)N2C([H])([H])C([H])([H])C([H])([H])C([H])(n3nc(-c4c([H])c([H])c(Oc5c([H])c([H])c(F)c([H])c5F)c([H])c4[H])c(C(=O)N([H])[H])c3N([H])[H])C2([H])[H])c([H])c(N2C(=O)C(C([H])([H])[H])(C([H])([H])Oc3c([H])c([H])c4c(c3[H])C([H])([H])N(C(=O)C([H])(N([H])C(=O)C([H])(N([H])C([H])([H])[H])C([H])([H])[H])C(C([H])([H])[H])(C([H])([H])[H])C([H])([H])[H])C([H])(C(=O)N([H])C3([H])c5c([H])c([H])c([H])c([H])c5C([H])([H])C([H])([H])C3([H])[H])C4([H])[H])C([H])([H])C2([H])[H])c1[H]

$$$$
15:0:0
     RDKit          3D

 95 96  0  0  1  0  0  0  0  0999 V2000
  -20.5580  -24.4040   19.4780 C   0  0  0  0  0  3  0  0  0  0  0  0
  -19.2220  -25.8200   19.1160 C   0  0  0  0  0 15  0  0  0  0  0  0
  -19.3180  -27.9250   19.3060 C   0  0  0  0  0 15  0  0  0  0  0  0
  -20.8780  -25.5890   21.7250 C   0  0  0  0  0 15  0  0  0  0  0  0
  -20.6100  -28.5960   20.8860 C   0  0  0  0  0  1  0  0  0  0  0  0
  -21.8680  -24.4360   20.3640 N   0  0  0  0  0  1  0  0  0  0  0  0
  -20.3780  -23.3810   18.8160 O   0  0  0  0  0  0  0  0  0  0  0  0
  -25.2760  -23.3920   20.3660 C   0  0  0  0  0  3  0  0  0  0  0  0
  -26.7850  -22.8110   19.8810 C   0  0  0  0  0  3  0  0  0  0  0  0
  -24.5760  -23.1260   18.5250 C   0  0  0  0  0  0  0  0  0  0  0  0
  -26.0880  -22.4980   18.0550 C   0  0  0  0  0  0  0  0  0  0  0  0
  -23.7760  -23.7110   19.8220 C   0  0  0  0  0  3  0  0  0  0  0  0
  -27.6030  -22.2520   18.5930 C   0  0  0  0  0  3  0  0  0  0  0  0
  -23.6060  -23.2560   17.3590 C   0  0  0  0  0  1  0  0  0  0  0  0
  -26.0760  -21.9080   16.6540 C   0  0  0  0  0  1  0  0  0  0  0  0
  -31.0870  -21.1240   17.1930 C   0  0  0  0  0  0  0  0  0  0  0  0
  -33.1870  -19.4550   15.9350 C   0  0  0  0  0  2  0  0  0  0  0  0
  -32.8780  -18.1650   15.0520 C   0  0  0  0  0  2  0  0  0  0  0  0
  -32.2030  -17.0720   15.8910 C   0  0  0  0  0  2  0  0  0  0  0  0
  -31.3960  -17.8050   16.9620 C   0  0  0  0  0  3  0  0  0  0  0  0
  -32.2010  -18.7590   17.8350 C   0  0  0  0  0  2  0  0  0  0  0  0
  -32.0550  -19.9140   16.9990 N   0  0  0  0  0  0  0  0  0  0  0  0
  -31.9310  -21.8550   16.5230 O   0  0  0  0  0  0  0  0  0  0  0  0
  -29.4000  -21.3980   17.8970 N   0  0  0  0  0  2  0  0  0  0  0  0
  -29.1780  -20.4040   18.0340 H   0  0  0  0  0  0  0  0  0  0  0  0
  -29.4350  -17.4940   18.3970 C   0  0  0  0  0  0  0  0  0  0  0  0
  -29.0670  -16.4870   19.2130 C   0  0  0  0  0  0  0  0  0  0  0  0
  -30.1110  -15.5170   19.1270 C   0  0  0  0  0  0  0  0  0  0  0  0
  -30.6170  -17.0650   17.8420 N   0  0  0  0  0  0  0  0  0  0  0  0
  -31.0920  -15.9210   18.3440 N   0  0  0  0  0  0  0  0  0  0  0  0
  -30.1990  -14.1810   19.6690 C   0  0  0  0  0  0  0  0  0  0  0  0
  -30.5320  -13.9600   21.0190 C   0  0  0  0  0  3  0  0  0  0  0  0
  -30.5960  -12.6460   21.5140 C   0  0  0  0  0  3  0  0  0  0  0  0
  -30.3240  -11.5560   20.6530 C   0  0  0  0  0  0  0  0  0  0  0  0
  -30.0220  -11.7910   19.3010 C   0  0  0  0  0  3  0  0  0  0  0  0
  -29.9640  -13.0990   18.8070 C   0  0  0  0  0  3  0  0  0  0  0  0
  -30.3750  -10.2420   21.0390 O   0  0  0  0  0  0  0  0  0  0  0  0
  -29.2340   -9.5120   21.2400 C   0  0  0  0  0  0  0  0  0  0  0  0
  -27.9720   -9.9630   20.7950 C   0  0  0  0  0  3  0  0  0  0  0  0
  -26.8370   -9.1460   20.9580 C   0  0  0  0  0  3  0  0  0  0  0  0
  -26.9620   -7.8780   21.5560 C   0  0  0  0  0  0  0  0  0  0  0  0
  -28.2190   -7.4260   21.9950 C   0  0  0  0  0  3  0  0  0  0  0  0
  -29.3530   -8.2420   21.8350 C   0  0  0  0  0  0  0  0  0  0  0  0
  -30.5660   -7.7950   22.2400 F   0  0  0  0  0  0  0  0  0  0  0  0
  -25.8730   -7.0880   21.7060 F   0  0  0  0  0  0  0  0  0  0  0  0
  -27.7630  -16.4070   19.9290 C   0  0  0  0  0  0  0  0  0  0  0  0
  -27.7180  -15.6510   21.0150 N   0  0  0  0  0  0  0  0  0  0  0  0
  -26.7920  -17.0650   19.5560 O   0  0  0  0  0  0  0  0  0  0  0  0
  -28.5280  -15.1410   21.3330 H   0  0  0  0  0  0  0  0  0  0  0  0
  -26.8580  -15.5940   21.5400 H   0  0  0  0  0  0  0  0  0  0  0  0
  -28.8530  -18.7150   18.0800 N   0  0  0  0  0  0  0  0  0  0  0  0
  -27.9160  -18.9010   18.4290 H   0  0  0  0  0  0  0  0  0  0  0  0
  -29.1130  -19.2600   17.2690 H   0  0  0  0  0  0  0  0  0  0  0  0
  -22.4430  -29.5010   20.6280 C   0  0  0  0  0  1  0  0  0  0  0  0
  -24.2710  -29.1830   20.8340 O   0  0  0  0  0  0  0  0  0  0  0  0
  -26.1530  -31.2690   25.5430 C   0  0  0  0  0  0  0  0  0  0  0  0
  -25.5500  -29.4840   20.1750 C   0  0  0  0  0  3  0  0  0  0  0  0
  -24.3600  -31.5930   23.9220 C   0  0  0  0  0  3  0  0  0  0  0  0
  -25.0360  -31.6550   21.3980 C   0  0  0  0  0  3  0  0  0  0  0  0
  -26.7880  -31.4290   23.1420 C   0  0  0  0  0  2  0  0  0  0  0  0
  -26.1940  -31.0080   21.8210 C   0  0  0  0  0  3  0  0  0  0  0  0
  -26.6090  -29.9180   21.0400 C   0  0  0  0  0  2  0  0  0  0  0  0
  -25.1820  -30.4370   19.2720 C   0  0  0  0  0  2  0  0  0  0  0  0
  -24.6490  -31.5010   20.0230 C   0  0  0  0  0  2  0  0  0  0  0  0
  -24.2250  -32.2980   22.5180 C   0  0  0  0  0  2  0  0  0  0  0  0
  -25.8030  -31.4660   24.2480 N   0  0  0  0  0  0  0  0  0  0  0  0
  -25.3070  -31.2620   26.4510 O   0  0  0  0  0  0  0  0  0  0  0  0
  -23.7470  -30.1790   24.1690 C   0  0  0  0  0  0  0  0  0  0  0  0
  -22.6210  -30.0010   24.8390 N   0  0  0  0  0  0  0  0  0  0  0  0
  -24.3840  -29.1810   23.8540 O   0  0  0  0  0  0  0  0  0  0  0  0
  -22.1360  -30.8040   25.2170 H   0  0  0  0  0  0  0  0  0  0  0  0
  -20.2200  -28.4070   22.7320 C   0  0  0  0  0  0  0  0  0  0  0  0
  -21.8760  -28.7010   24.7860 C   0  0  0  0  0  3  0  0  0  0  0  0
  -22.9040  -27.4350   24.2080 C   0  0  0  0  0  2  0  0  0  0  0  0
  -23.2910  -26.7630   22.6010 C   0  0  0  0  0  2  0  0  0  0  0  0
  -22.1570  -27.1160   21.3820 C   0  0  0  0  0  1  0  0  0  0  0  0
  -20.4980  -29.0350   24.1240 C   0  0  0  0  0  0  0  0  0  0  0  0
  -19.8570  -30.1240   24.9220 C   0  0  0  0  0  3  0  0  0  0  0  0
  -18.7110  -30.8360   24.5690 C   0  0  0  0  0  3  0  0  0  0  0  0
  -18.2190  -30.3410   23.3540 C   0  0  0  0  0  3  0  0  0  0  0  0
  -18.9140  -29.2760   22.5360 C   0  0  0  0  0  3  0  0  0  0  0  0
  -27.6380  -31.0800   25.9280 C   0  0  0  0  0  3  0  0  0  0  0  0
  -27.7650  -31.6300   27.2790 N   0  0  0  0  0  0  0  0  0  0  0  0
  -28.2090  -32.8610   27.5540 C   0  0  0  0  0  0  0  0  0  0  0  0
  -28.6520  -33.6200   26.6870 O   0  0  0  0  0  0  0  0  0  0  0  0
  -27.3700  -31.0820   28.0290 H   0  0  0  0  0  0  0  0  0  0  0  0
  -27.0990  -34.4120   29.1970 C   0  0  0  0  0  1  0  0  0  0  0  0
  -28.1600  -33.3120   29.0240 C   0  0  0  0  0  3  0  0  0  0  0  0
  -30.4430  -32.7190   29.7000 C   0  0  0  0  0  1  0  0  0  0  0  0
  -29.4640  -33.7890   29.5330 N   0  0  0  0  0  0  0  0  0  0  0  0
  -29.3500  -34.2530   30.4320 H   0  0  0  0  0  0  0  0  0  0  0  0
  -28.1170  -29.5790   25.8820 C   0  0  1  0  0  0  0  0  0  0  0  0
  -27.1780  -28.6080   26.6320 C   0  0  0  0  0  1  0  0  0  0  0  0
  -28.2590  -29.0680   24.4310 C   0  0  0  0  0  1  0  0  0  0  0  0
  -29.5230  -29.4850   26.5130 C   0  0  0  0  0  1  0  0  0  0  0  0
  1  6  1  0
  5 72  1  0
  7  1  2  0
  9  8  1  0
 10 12  1  0
 11 10  2  0
 11 13  1  0
 12  8  2  0
 13  9  2  0
 14 10  1  0
 15 11  1  0
 16 24  1  0
 17 22  1  0
 18 19  1  0
 18 17  1  0
 20 19  1  0
 20 21  1  0
 20 29  1  0
 22 16  1  0
 22 21  1  0
 23 16  2  0
 24 25  1  0
 26 27  2  0
 27 46  1  0
 28 27  1  0
 28 31  1  0
 29 30  1  0
 29 26  1  0
 30 28  2  0
 31 32  1  0
 32 33  2  0
 34 37  1  0
 34 33  1  0
 35 34  2  0
 36 35  1  0
 36 31  2  0
 37 38  1  0
 38 43  1  0
 39 40  1  0
 39 38  2  0
 40 41  2  0
 41 45  1  0
 41 42  1  0
 43 42  2  0
 43 44  1  0
 46 47  1  0
 47 49  1  0
 47 50  1  0
 48 46  2  0
 51 26  1  0
 51 52  1  0
 53 51  1  0
 54 55  1  0
 56 67  2  0
 57 55  1  0
 57 62  1  0
 58 68  1  0
 58 66  1  0
 59 64  1  0
 59 61  1  0
 59 65  1  0
 60 66  1  0
 61 62  1  0
 61 60  1  0
 63 64  1  0
 63 57  1  0
 65 58  1  0
 66 56  1  0
 68 69  1  0
 69 71  1  0
 70 68  2  0
 72 77  1  0
 73 74  1  0
 73 69  1  0
 75 74  1  0
 76 75  1  0
 77 73  1  0
 77 78  2  0
 79 78  1  0
 80 79  2  0
 81 72  2  0
 81 80  1  0
 82 56  1  0
 82 83  1  0
 83 84  1  0
 83 86  1  0
 84 88  1  0
 85 84  2  0
 88 87  1  0
 88 90  1  0
 90 89  1  0
 90 91  1  0
 92 82  1  0
 92 95  1  1
 92 93  1  0
 94 92  1  0
M  ISO  4  16 100  24 100  54 101  55 101
M  END
>  <TORSDO>  (16) 
F 18

>  <SCORE>  (16) 
1.727

>  <name>  (16) 
15

>  <ligand_id>  (16) 
15

>  <original_smiles>  (16) 
[H]c1c([H])c([H])c2c(c1[H])C([H])([H])C([H])([H])C([H])([H])C2([H])N([H])C(=O)C1([H])N(C(=O)C([H])(N([H])C(=O)C([H])(N([H])C([H])([H])[H])C([H])([H])[H])C(C([H])([H])[H])(C([H])([H])[H])C([H])([H])[H])C([H])([H])c2c([H])c(OC([H])([H])C3([H])C([H])([H])N(c4c([H])c([H])c(N([H])C(=O)N5C([H])([H])C([H])([H])C([H])([H])C([H])(n6nc(-c7c([H])c([H])c(Oc8c([H])c([H])c(F)c([H])c8F)c([H])c7[H])c(C(=O)N([H])[H])c6N([H])[H])C5([H])[H])c(C([H])([H])[H])c4C([H])([H])[H])C(=O)C([H])([H])C3([H])[H])c([H])c([H])c2C1([H])[H]

>  <smiles>  (16) 
[H]c1c([H])c([H])c2c(c1[H])C([H])([H])C([H])([H])C([H])([H])C2([H])N([H])C(=O)C1([H])N(C(=O)C([H])(N([H])C(=O)C([H])(N([H])C([H])([H])[H])C([H])([H])[H])C(C([H])([H])[H])(C([H])([H])[H])C([H])([H])[H])C([H])([H])c2c([H])c(OC([H])([H])C3([H])C([H])([H])N(c4c([H])c([H])c(N([H])C(=O)N5C([H])([H])C([H])([H])C([H])([H])C([H])(n6nc(-c7c([H])c([H])c(Oc8c([H])c([H])c(F)c([H])c8F)c([H])c7[H])c(C(=O)N([H])[H])c6N([H])[H])C5([H])[H])c(C([H])([H])[H])c4C([H])([H])[H])C(=O)C([H])([H])C3([H])[H])c([H])c([H])c2C1([H])[H]

$$$$
16:0:0
     RDKit          3D

 95104  0  0  1  0  0  0  0  0999 V2000
  -31.6430  -22.0640   20.3830 C   0  0  0  0  0  0  0  0  0  0  0  0
  -31.7950  -23.6010   20.3770 C   0  0  0  0  0  2  0  0  0  0  0  0
  -29.2130  -22.4190   20.2500 C   0  0  0  0  0  2  0  0  0  0  0  0
  -29.5010  -23.9600   19.9520 C   0  0  0  0  0  3  0  0  0  0  0  0
  -30.4090  -21.5040   20.2440 N   0  0  0  0  0  0  0  0  0  0  0  0
  -32.6750  -21.3940   20.5010 O   0  0  0  0  0  0  0  0  0  0  0  0
  -30.6080  -24.2880   20.7710 O   0  0  0  0  0  0  0  0  0  0  0  0
  -30.0110  -19.3310   21.4920 C   0  0  0  0  0  3  0  0  0  0  0  0
  -30.6030  -19.2310   19.1630 C   0  0  0  0  0  3  0  0  0  0  0  0
  -30.0810  -17.9040   21.5630 C   0  0  0  0  0  0  0  0  0  0  0  0
  -30.3000  -20.0380   20.2960 C   0  0  0  0  0  0  0  0  0  0  0  0
  -30.4210  -17.1020   20.4310 C   0  0  0  0  0  0  0  0  0  0  0  0
  -30.6580  -17.8090   19.2170 C   0  0  0  0  0  0  0  0  0  0  0  0
  -29.8050  -17.2390   22.9040 C   0  0  0  0  0  1  0  0  0  0  0  0
  -30.9140  -17.1380   18.0700 F   0  0  0  0  0  0  0  0  0  0  0  0
  -31.1290  -14.6500   19.9350 C   0  0  0  0  0  0  0  0  0  0  0  0
  -30.8330  -12.4450   18.8230 C   0  0  0  0  0  2  0  0  0  0  0  0
  -29.7420  -12.6020   17.7420 C   0  0  0  0  0  2  0  0  0  0  0  0
  -28.3350  -12.3950   18.3400 C   0  0  0  0  0  2  0  0  0  0  0  0
  -28.1230  -13.1900   19.6580 C   0  0  0  0  0  3  0  0  0  0  0  0
  -29.3180  -13.0160   20.6210 C   0  0  0  0  0  2  0  0  0  0  0  0
  -30.5380  -13.4140   19.8970 N   0  0  0  0  0  0  0  0  0  0  0  0
  -32.2120  -14.8550   19.3790 O   0  0  0  0  0  0  0  0  0  0  0  0
  -30.4080  -15.6400   20.5450 N   0  0  0  0  0  0  0  0  0  0  0  0
  -29.6590  -15.2790   21.1130 H   0  0  0  0  0  0  0  0  0  0  0  0
  -25.8750  -13.6960   20.7990 C   0  0  0  0  0  0  0  0  0  0  0  0
  -24.8580  -12.8850   21.2250 C   0  0  0  0  0  0  0  0  0  0  0  0
  -25.2800  -11.5480   20.9510 C   0  0  0  0  0  0  0  0  0  0  0  0
  -26.8530  -12.8510   20.2990 N   0  0  0  0  0  0  0  0  0  0  0  0
  -26.5070  -11.5460   20.4460 N   0  0  0  0  0  0  0  0  0  0  0  0
  -24.5620  -10.2730   21.0880 C   0  0  0  0  0  0  0  0  0  0  0  0
  -24.9770   -9.2860   22.0070 C   0  0  0  0  0  3  0  0  0  0  0  0
  -24.2570   -8.0790   22.1370 C   0  0  0  0  0  3  0  0  0  0  0  0
  -23.1060   -7.8500   21.3450 C   0  0  0  0  0  0  0  0  0  0  0  0
  -22.7090   -8.8280   20.4170 C   0  0  0  0  0  3  0  0  0  0  0  0
  -23.4300  -10.0270   20.2870 C   0  0  0  0  0  3  0  0  0  0  0  0
  -22.3590   -6.6970   21.3830 O   0  0  0  0  0  0  0  0  0  0  0  0
  -22.1100   -6.0390   22.5610 C   0  0  0  0  0  0  0  0  0  0  0  0
  -21.4470   -6.6660   23.6380 C   0  0  0  0  0  3  0  0  0  0  0  0
  -21.1500   -5.9330   24.8040 C   0  0  0  0  0  3  0  0  0  0  0  0
  -21.5030   -4.5730   24.8910 C   0  0  0  0  0  0  0  0  0  0  0  0
  -22.1570   -3.9450   23.8160 C   0  0  0  0  0  3  0  0  0  0  0  0
  -22.4570   -4.6760   22.6530 C   0  0  0  0  0  0  0  0  0  0  0  0
  -23.0680   -4.0620   21.6120 F   0  0  0  0  0  0  0  0  0  0  0  0
  -21.2110   -3.8660   26.0080 F   0  0  0  0  0  0  0  0  0  0  0  0
  -23.5290  -13.3280   21.7660 C   0  0  0  0  0  0  0  0  0  0  0  0
  -22.9550  -12.5610   22.6850 N   0  0  0  0  0  0  0  0  0  0  0  0
  -23.0150  -14.3890   21.4100 O   0  0  0  0  0  0  0  0  0  0  0  0
  -23.3840  -11.7010   22.9930 H   0  0  0  0  0  0  0  0  0  0  0  0
  -22.0690  -12.8350   23.0870 H   0  0  0  0  0  0  0  0  0  0  0  0
  -26.0410  -15.0780   20.7760 N   0  0  0  0  0  0  0  0  0  0  0  0
  -25.3120  -15.7100   21.0860 H   0  0  0  0  0  0  0  0  0  0  0  0
  -26.8420  -15.5610   20.3880 H   0  0  0  0  0  0  0  0  0  0  0  0
  -28.3550  -25.0120   20.2600 C   0  0  0  0  0  2  0  0  0  0  0  0
  -28.5810  -26.4450   19.9460 O   0  0  0  0  0  0  0  0  0  0  0  0
  -24.6940  -31.6660   23.0680 C   0  0  0  0  0  0  0  0  0  0  0  0
  -27.4550  -27.2780   19.9170 C   0  0  0  0  0  0  0  0  0  0  0  0
  -23.5570  -30.3150   21.3440 C   0  0  0  0  0  3  0  0  0  0  0  0
  -25.0680  -28.8460   19.9000 C   0  0  0  0  0  0  0  0  0  0  0  0
  -26.0930  -30.6810   21.2400 C   0  0  0  0  0  2  0  0  0  0  0  0
  -26.2120  -29.3300   20.5490 C   0  0  0  0  0  0  0  0  0  0  0  0
  -27.4100  -28.5560   20.5510 C   0  0  0  0  0  3  0  0  0  0  0  0
  -26.2950  -26.8580   19.2260 C   0  0  0  0  0  3  0  0  0  0  0  0
  -25.1130  -27.6180   19.2260 C   0  0  0  0  0  3  0  0  0  0  0  0
  -23.8150  -29.6940   19.9460 C   0  0  0  0  0  2  0  0  0  0  0  0
  -24.7990  -30.9030   21.9420 N   0  0  0  0  0  0  0  0  0  0  0  0
  -23.5930  -31.9080   23.5810 O   0  0  0  0  0  0  0  0  0  0  0  0
  -22.8860  -29.2520   22.2470 C   0  0  0  0  0  0  0  0  0  0  0  0
  -21.5540  -29.1130   22.1290 N   0  0  0  0  0  0  0  0  0  0  0  0
  -23.5610  -28.5580   23.0120 O   0  0  0  0  0  0  0  0  0  0  0  0
  -21.0700  -29.7230   21.4850 H   0  0  0  0  0  0  0  0  0  0  0  0
  -18.1430  -28.0450   22.6830 C   0  0  0  0  0  0  0  0  0  0  0  0
  -20.7210  -28.1490   22.8490 C   0  0  0  0  0  3  0  0  0  0  0  0
  -20.7210  -26.7760   22.1380 C   0  0  0  0  0  2  0  0  0  0  0  0
  -19.5560  -26.6060   21.1580 C   0  0  0  0  0  2  0  0  0  0  0  0
  -18.2140  -26.7590   21.8790 C   0  0  0  0  0  2  0  0  0  0  0  0
  -19.3190  -28.7070   23.1250 C   0  0  0  0  0  0  0  0  0  0  0  0
  -19.1950  -29.9190   23.8390 C   0  0  0  0  0  3  0  0  0  0  0  0
  -17.9270  -30.4640   24.1170 C   0  0  0  0  0  3  0  0  0  0  0  0
  -16.7660  -29.7970   23.6890 C   0  0  0  0  0  3  0  0  0  0  0  0
  -16.8760  -28.5890   22.9770 C   0  0  0  0  0  3  0  0  0  0  0  0
  -25.9500  -32.2930   23.7490 C   0  0  0  0  0  3  0  0  0  0  0  0
  -25.6060  -33.6710   24.1280 N   0  0  0  0  0  0  0  0  0  0  0  0
  -25.9370  -34.7600   23.4220 C   0  0  0  0  0  0  0  0  0  0  0  0
  -26.6310  -34.7120   22.4030 O   0  0  0  0  0  0  0  0  0  0  0  0
  -24.9910  -33.7830   24.9200 H   0  0  0  0  0  0  0  0  0  0  0  0
  -24.1870  -36.5410   23.1020 C   0  0  0  0  0  1  0  0  0  0  0  0
  -25.4120  -36.1190   23.9280 C   0  0  0  0  0  3  0  0  0  0  0  0
  -27.5020  -37.0050   24.8620 C   0  0  0  0  0  1  0  0  0  0  0  0
  -26.4270  -37.1930   23.8920 N   0  0  0  0  0  0  0  0  0  0  0  0
  -25.9970  -38.0970   24.0680 H   0  0  0  0  0  0  0  0  0  0  0  0
  -26.4460  -31.4750   25.0040 C   0  0  1  0  0  0  0  0  0  0  0  0
  -25.3280  -31.1590   26.0240 C   0  0  0  0  0  1  0  0  0  0  0  0
  -27.0760  -30.1340   24.5670 C   0  0  0  0  0  1  0  0  0  0  0  0
  -27.5540  -32.2660   25.7380 C   0  0  0  0  0  1  0  0  0  0  0  0
  1  6  2  0
  2  1  1  0
  2  7  1  0
  4  3  1  0
  4 54  1  0
  4  7  1  0
  5  3  1  0
  5 11  1  0
  5  1  1  0
  8 10  1  0
  9 13  2  0
  9 11  1  0
 10 14  1  0
 11  8  2  0
 12 24  1  0
 12 10  2  0
 13 12  1  0
 15 13  1  0
 16 24  1  0
 17 22  1  0
 18 19  1  0
 18 17  1  0
 20 19  1  0
 20 29  1  0
 20 21  1  0
 22 16  1  0
 22 21  1  0
 23 16  2  0
 24 25  1  0
 26 27  2  0
 27 46  1  0
 28 31  1  0
 28 27  1  0
 29 30  1  0
 29 26  1  0
 30 28  2  0
 31 32  1  0
 32 33  2  0
 34 37  1  0
 34 33  1  0
 35 34  2  0
 36 35  1  0
 36 31  2  0
 37 38  1  0
 38 43  2  0
 38 39  1  0
 39 40  2  0
 40 41  1  0
 41 45  1  0
 42 41  2  0
 43 42  1  0
 44 43  1  0
 46 47  1  0
 47 49  1  0
 47 50  1  0
 48 46  2  0
 51 26  1  0
 51 52  1  0
 53 51  1  0
 55 54  1  0
 56 67  2  0
 57 55  1  0
 57 62  1  0
 58 66  1  0
 58 68  1  0
 59 65  1  0
 59 61  1  0
 60 66  1  0
 61 62  2  0
 61 60  1  0
 63 64  1  0
 63 57  2  0
 64 59  2  0
 65 58  1  0
 66 56  1  0
 68 70  2  0
 69 68  1  0
 71 69  1  0
 72 81  2  0
 72 77  1  0
 73 69  1  0
 73 77  1  0
 74 73  1  0
 75 76  1  0
 75 74  1  0
 76 72  1  0
 77 78  2  0
 78 79  1  0
 80 79  2  0
 81 80  1  0
 82 56  1  0
 82 83  1  0
 82 92  1  0
 83 86  1  0
 84 88  1  0
 84 83  1  0
 85 84  2  0
 88 87  1  0
 90 88  1  0
 90 91  1  0
 90 89  1  0
 92 95  1  1
 92 93  1  0
 94 92  1  0
M  ISO  4  16 100  24 100  54 101  55 101
M  END
>  <TORSDO>  (17) 
F 18

>  <SCORE>  (17) 
-11.363

>  <name>  (17) 
16

>  <ligand_id>  (17) 
16

>  <original_smiles>  (17) 
[H]c1c([H])c([H])c2c(c1[H])C([H])([H])C([H])([H])C([H])([H])C2([H])N([H])C(=O)C1([H])N(C(=O)C([H])(N([H])C(=O)C([H])(N([H])C([H])([H])[H])C([H])([H])[H])C(C([H])([H])[H])(C([H])([H])[H])C([H])([H])[H])C([H])([H])c2c([H])c(OC([H])([H])C3([H])OC([H])([H])C(=O)N(c4c([H])c(F)c(N([H])C(=O)N5C([H])([H])C([H])([H])C([H])([H])C([H])(n6nc(-c7c([H])c([H])c(Oc8c([H])c([H])c(F)c([H])c8F)c([H])c7[H])c(C(=O)N([H])[H])c6N([H])[H])C5([H])[H])c(C([H])([H])[H])c4[H])C3([H])[H])c([H])c([H])c2C1([H])[H]

>  <smiles>  (17) 
[H]c1c([H])c([H])c2c(c1[H])C([H])([H])C([H])([H])C([H])([H])C2([H])N([H])C(=O)C1([H])N(C(=O)C([H])(N([H])C(=O)C([H])(N([H])C([H])([H])[H])C([H])([H])[H])C(C([H])([H])[H])(C([H])([H])[H])C([H])([H])[H])C([H])([H])c2c([H])c(OC([H])([H])C3([H])OC([H])([H])C(=O)N(c4c([H])c(F)c(N([H])C(=O)N5C([H])([H])C([H])([H])C([H])([H])C([H])(n6nc(-c7c([H])c([H])c(Oc8c([H])c([H])c(F)c([H])c8F)c([H])c7[H])c(C(=O)N([H])[H])c6N([H])[H])C5([H])[H])c(C([H])([H])[H])c4[H])C3([H])[H])c([H])c([H])c2C1([H])[H]

$$$$
17:0:0
     RDKit          3D

 96104  0  0  1  0  0  0  0  0999 V2000
  -30.5560  -21.5000   18.1690 C   0  0  0  0  0  1  0  0  0  0  0  0
  -30.3110  -22.1830   19.4530 N   0  0  0  0  0  0  0  0  0  0  0  0
  -30.4340  -22.0680   22.0260 O   0  0  0  0  0  0  0  0  0  0  0  0
  -32.5360  -21.7530   20.6570 O   0  0  0  0  0  0  0  0  0  0  0  0
  -31.1000  -21.4940   20.8440 S   0  0  2  0  0  0  0  0  0  0  0  0
  -31.8050  -17.4370   20.8930 C   0  0  0  0  0  3  0  0  0  0  0  0
  -31.9430  -18.8420   20.8660 C   0  0  0  0  0  3  0  0  0  0  0  0
  -29.3920  -17.6860   20.7750 C   0  0  0  0  0  3  0  0  0  0  0  0
  -29.5230  -19.0970   20.7420 C   0  0  0  0  0  0  0  0  0  0  0  0
  -30.5230  -16.8390   20.8380 C   0  0  0  0  0  0  0  0  0  0  0  0
  -30.8140  -19.6860   20.7950 C   0  0  0  0  0  0  0  0  0  0  0  0
  -28.2660  -19.9440   20.6520 C   0  0  0  0  0  1  0  0  0  0  0  0
  -30.9170  -14.4540   20.1600 C   0  0  0  0  0  0  0  0  0  0  0  0
  -30.5050  -12.3470   18.9470 C   0  0  0  0  0  2  0  0  0  0  0  0
  -29.5200  -12.6260   17.7930 C   0  0  0  0  0  2  0  0  0  0  0  0
  -28.0600  -12.5150   18.2810 C   0  0  0  0  0  2  0  0  0  0  0  0
  -27.8030  -13.3120   19.5890 C   0  0  0  0  0  3  0  0  0  0  0  0
  -28.8980  -13.0140   20.6390 C   0  0  0  0  0  2  0  0  0  0  0  0
  -30.2090  -13.2990   20.0290 N   0  0  0  0  0  0  0  0  0  0  0  0
  -32.0020  -14.6310   19.5970 O   0  0  0  0  0  0  0  0  0  0  0  0
  -30.3040  -15.4230   20.8690 N   0  0  0  0  0  0  0  0  0  0  0  0
  -29.4350  -15.1230   21.2850 H   0  0  0  0  0  0  0  0  0  0  0  0
  -25.4450  -13.9560   20.4040 C   0  0  0  0  0  0  0  0  0  0  0  0
  -24.3780  -13.1980   20.8060 C   0  0  0  0  0  0  0  0  0  0  0  0
  -24.8090  -11.8380   20.7320 C   0  0  0  0  0  0  0  0  0  0  0  0
  -26.4630  -13.0580   20.1150 N   0  0  0  0  0  0  0  0  0  0  0  0
  -26.0830  -11.7780   20.3690 N   0  0  0  0  0  0  0  0  0  0  0  0
  -24.0640  -10.5870   20.9320 C   0  0  0  0  0  0  0  0  0  0  0  0
  -24.4990   -9.6090   21.8530 C   0  0  0  0  0  3  0  0  0  0  0  0
  -23.7560   -8.4220   22.0410 C   0  0  0  0  0  3  0  0  0  0  0  0
  -22.5650   -8.2070   21.3090 C   0  0  0  0  0  0  0  0  0  0  0  0
  -22.1500   -9.1740   20.3750 C   0  0  0  0  0  3  0  0  0  0  0  0
  -22.8920  -10.3510   20.1850 C   0  0  0  0  0  3  0  0  0  0  0  0
  -21.7920   -7.0750   21.4080 O   0  0  0  0  0  0  0  0  0  0  0  0
  -21.7280   -6.3460   22.5700 C   0  0  0  0  0  0  0  0  0  0  0  0
  -21.2980   -6.9190   23.7870 C   0  0  0  0  0  3  0  0  0  0  0  0
  -21.1820   -6.1180   24.9400 C   0  0  0  0  0  3  0  0  0  0  0  0
  -21.4830   -4.7430   24.8760 C   0  0  0  0  0  0  0  0  0  0  0  0
  -21.9060   -4.1710   23.6650 C   0  0  0  0  0  3  0  0  0  0  0  0
  -22.0250   -4.9700   22.5150 C   0  0  0  0  0  0  0  0  0  0  0  0
  -22.4140   -4.4090   21.3440 F   0  0  0  0  0  0  0  0  0  0  0  0
  -21.3640   -3.9710   25.9810 F   0  0  0  0  0  0  0  0  0  0  0  0
  -23.0030  -13.6980   21.1470 C   0  0  0  0  0  0  0  0  0  0  0  0
  -22.3010  -13.0050   22.0380 N   0  0  0  0  0  0  0  0  0  0  0  0
  -22.5610  -14.7360   20.6580 O   0  0  0  0  0  0  0  0  0  0  0  0
  -22.6690  -12.1640   22.4600 H   0  0  0  0  0  0  0  0  0  0  0  0
  -21.3800  -13.3210   22.3070 H   0  0  0  0  0  0  0  0  0  0  0  0
  -25.6310  -15.3250   20.2410 N   0  0  0  0  0  0  0  0  0  0  0  0
  -24.8780  -15.9890   20.3850 H   0  0  0  0  0  0  0  0  0  0  0  0
  -26.4680  -15.7520   19.8670 H   0  0  0  0  0  0  0  0  0  0  0  0
  -30.3960  -23.6690   19.3290 C   0  0  0  0  0  2  0  0  0  0  0  0
  -29.2120  -25.3370   17.8520 C   0  0  0  0  0  1  0  0  0  0  0  0
  -27.8700  -23.4580   18.7820 C   0  0  0  0  0  1  0  0  0  0  0  0
  -29.0360  -24.4290   19.0920 C   0  0  1  0  0  0  0  0  0  0  0  0
  -28.6380  -25.3010   20.3380 C   0  0  0  0  0  2  0  0  0  0  0  0
  -28.6970  -26.7330   20.1460 O   0  0  0  0  0  0  0  0  0  0  0  0
  -24.6390  -31.7160   23.2100 C   0  0  0  0  0  0  0  0  0  0  0  0
  -27.4970  -27.4210   20.1200 C   0  0  0  0  0  0  0  0  0  0  0  0
  -23.5150  -30.3040   21.5210 C   0  0  0  0  0  3  0  0  0  0  0  0
  -25.0490  -28.8460   20.1010 C   0  0  0  0  0  0  0  0  0  0  0  0
  -26.0310  -30.7590   21.3760 C   0  0  0  0  0  2  0  0  0  0  0  0
  -26.1770  -29.4020   20.7170 C   0  0  0  0  0  0  0  0  0  0  0  0
  -27.4040  -28.6990   20.7230 C   0  0  0  0  0  3  0  0  0  0  0  0
  -26.3520  -26.8870   19.4910 C   0  0  0  0  0  3  0  0  0  0  0  0
  -25.1320  -27.5860   19.4860 C   0  0  0  0  0  3  0  0  0  0  0  0
  -23.7720  -29.6570   20.1350 C   0  0  0  0  0  2  0  0  0  0  0  0
  -24.7460  -30.9410   22.0940 N   0  0  0  0  0  0  0  0  0  0  0  0
  -23.5390  -31.9380   23.7350 O   0  0  0  0  0  0  0  0  0  0  0  0
  -22.8840  -29.2440   22.4530 C   0  0  0  0  0  0  0  0  0  0  0  0
  -21.5700  -29.0140   22.2890 N   0  0  0  0  0  0  0  0  0  0  0  0
  -23.5710  -28.6320   23.2740 O   0  0  0  0  0  0  0  0  0  0  0  0
  -21.0780  -29.5570   21.5940 H   0  0  0  0  0  0  0  0  0  0  0  0
  -18.2300  -27.6960   22.6950 C   0  0  0  0  0  0  0  0  0  0  0  0
  -20.7710  -28.0350   23.0240 C   0  0  0  0  0  3  0  0  0  0  0  0
  -20.9360  -26.6220   22.4220 C   0  0  0  0  0  2  0  0  0  0  0  0
  -19.8660  -26.2820   21.3800 C   0  0  0  0  0  2  0  0  0  0  0  0
  -18.4670  -26.3680   21.9950 C   0  0  0  0  0  2  0  0  0  0  0  0
  -19.3130  -28.4870   23.1620 C   0  0  0  0  0  0  0  0  0  0  0  0
  -19.0400  -29.7310   23.7720 C   0  0  0  0  0  3  0  0  0  0  0  0
  -17.7160  -30.1870   23.9180 C   0  0  0  0  0  3  0  0  0  0  0  0
  -16.6470  -29.3940   23.4670 C   0  0  0  0  0  3  0  0  0  0  0  0
  -16.9030  -28.1490   22.8620 C   0  0  0  0  0  3  0  0  0  0  0  0
  -25.8900  -32.3790   23.8680 C   0  0  0  0  0  3  0  0  0  0  0  0
  -25.5380  -33.7670   24.1930 N   0  0  0  0  0  0  0  0  0  0  0  0
  -25.8490  -34.8270   23.4350 C   0  0  0  0  0  0  0  0  0  0  0  0
  -26.5380  -34.7420   22.4150 O   0  0  0  0  0  0  0  0  0  0  0  0
  -24.9320  -33.9060   24.9900 H   0  0  0  0  0  0  0  0  0  0  0  0
  -24.0660  -36.5570   23.0540 C   0  0  0  0  0  1  0  0  0  0  0  0
  -25.3100  -36.1980   23.8810 C   0  0  0  0  0  3  0  0  0  0  0  0
  -27.4010  -37.1630   24.7330 C   0  0  0  0  0  1  0  0  0  0  0  0
  -26.3060  -37.2850   23.7730 N   0  0  0  0  0  0  0  0  0  0  0  0
  -25.8650  -38.1920   23.9050 H   0  0  0  0  0  0  0  0  0  0  0  0
  -26.3920  -31.6140   25.1550 C   0  0  1  0  0  0  0  0  0  0  0  0
  -25.2790  -31.3420   26.1910 C   0  0  0  0  0  1  0  0  0  0  0  0
  -27.0220  -30.2560   24.7690 C   0  0  0  0  0  1  0  0  0  0  0  0
  -27.5010  -32.4380   25.8530 C   0  0  0  0  0  1  0  0  0  0  0  0
  1  2  1  0
  5  2  1  6
  4  5  2  0
  5  3  2  0
  7  6  1  0
  8 10  1  0
  9  8  2  0
  9 11  1  0
 10 21  1  0
 10  6  2  0
 11  5  1  0
 11  7  2  0
 12  9  1  0
 13 21  1  0
 14 19  1  0
 15 16  1  0
 15 14  1  0
 17 16  1  0
 17 26  1  0
 17 18  1  0
 19 13  1  0
 19 18  1  0
 20 13  2  0
 21 22  1  0
 23 24  2  0
 24 43  1  0
 25 24  1  0
 25 28  1  0
 26 27  1  0
 26 23  1  0
 27 25  2  0
 28 29  1  0
 29 30  2  0
 31 34  1  0
 31 30  1  0
 32 31  2  0
 33 32  1  0
 33 28  2  0
 34 35  1  0
 35 36  1  0
 36 37  2  0
 38 37  1  0
 38 42  1  0
 39 38  2  0
 40 35  2  0
 40 39  1  0
 41 40  1  0
 43 44  1  0
 44 47  1  0
 44 46  1  0
 45 43  2  0
 48 49  1  0
 48 23  1  0
 50 48  1  0
 51  2  1  0
 54 52  1  6
 53 54  1  0
 54 51  1  0
 54 55  1  0
 56 55  1  0
 57 68  2  0
 58 56  1  0
 58 63  1  0
 59 67  1  0
 59 69  1  0
 60 66  1  0
 60 62  1  0
 61 67  1  0
 62 63  2  0
 62 61  1  0
 64 58  2  0
 65 64  1  0
 65 60  2  0
 66 59  1  0
 67 57  1  0
 69 71  2  0
 70 69  1  0
 72 70  1  0
 73 82  2  0
 73 78  1  0
 74 70  1  0
 74 78  1  0
 75 74  1  0
 76 77  1  0
 76 75  1  0
 77 73  1  0
 78 79  2  0
 79 80  1  0
 81 80  2  0
 82 81  1  0
 83 57  1  0
 83 84  1  0
 83 93  1  0
 84 87  1  0
 85 89  1  0
 85 84  1  0
 86 85  2  0
 89 88  1  0
 91 89  1  0
 91 92  1  0
 91 90  1  0
 93 96  1  1
 93 94  1  0
 95 93  1  0
M  ISO  4  13 100  21 100  55 101  56 101
M  END
>  <TORSDO>  (18) 
F 21

>  <SCORE>  (18) 
-13.514

>  <name>  (18) 
17

>  <ligand_id>  (18) 
17

>  <original_smiles>  (18) 
[H]c1c([H])c([H])c2c(c1[H])C([H])([H])C([H])([H])C([H])([H])C2([H])N([H])C(=O)C1([H])N(C(=O)C([H])(N([H])C(=O)C([H])(N([H])C([H])([H])[H])C([H])([H])[H])C(C([H])([H])[H])(C([H])([H])[H])C([H])([H])[H])C([H])([H])c2c([H])c(OC([H])([H])C(C([H])([H])[H])(C([H])([H])[H])C([H])([H])N(C([H])([H])[H])S(=O)(=O)c3c([H])c([H])c(N([H])C(=O)N4C([H])([H])C([H])([H])C([H])([H])C([H])(n5nc(-c6c([H])c([H])c(Oc7c([H])c([H])c(F)c([H])c7F)c([H])c6[H])c(C(=O)N([H])[H])c5N([H])[H])C4([H])[H])c([H])c3C([H])([H])[H])c([H])c([H])c2C1([H])[H]

>  <smiles>  (18) 
[H]c1c([H])c([H])c2c(c1[H])C([H])([H])C([H])([H])C([H])([H])C2([H])N([H])C(=O)C1([H])N(C(=O)C([H])(N([H])C(=O)C([H])(N([H])C([H])([H])[H])C([H])([H])[H])C(C([H])([H])[H])(C([H])([H])[H])C([H])([H])[H])C([H])([H])c2c([H])c(OC([H])([H])C(C([H])([H])[H])(C([H])([H])[H])C([H])([H])N(C([H])([H])[H])S(=O)(=O)c3c([H])c([H])c(N([H])C(=O)N4C([H])([H])C([H])([H])C([H])([H])C([H])(n5nc(-c6c([H])c([H])c(Oc7c([H])c([H])c(F)c([H])c7F)c([H])c6[H])c(C(=O)N([H])[H])c5N([H])[H])C4([H])[H])c([H])c3C([H])([H])[H])c([H])c([H])c2C1([H])[H]

$$$$
18:0:0
     RDKit          3D

102103  0  0  1  0  0  0  0  0999 V2000
  -25.0510  -17.0720   19.7200 C   0  0  0  0  0  0  0  0  0  0  0  0
  -23.8090  -17.2720   19.2790 N   0  0  0  0  0  4  0  0  0  0  0  0
  -25.8780  -18.3410   19.4640 N   0  0  0  0  0  0  0  0  0  0  0  0
  -23.1420  -16.5150   19.3700 H   0  0  0  0  0  0  0  0  0  0  0  0
  -23.5670  -18.0610   18.7060 H   0  0  0  0  0  0  0  0  0  0  0  0
  -26.8140  -18.1890   19.8360 H   0  0  0  0  0  0  0  0  0  0  0  0
  -25.2000  -11.5950   19.4510 C   0  0  0  0  0  1  0  0  0  0  0  0
  -24.3430  -13.6450   19.2190 C   0  0  0  0  0 15  0  0  0  0  0  0
  -27.0770  -11.2360   20.7270 C   0  0  0  0  0 15  0  0  0  0  0  0
  -25.2190  -15.4370   20.3230 C   0  0  0  0  0  1  0  0  0  0  0  0
  -28.0080  -13.1870   21.5970 C   0  0  0  0  0  1  0  0  0  0  0  0
  -26.9670  -15.0620   21.5300 C   0  0  0  0  0  1  0  0  0  0  0  0
  -30.5630  -13.6330   20.2120 C   0  0  0  0  0  0  0  0  0  0  0  0
  -31.0550  -11.8320   18.4090 C   0  0  0  0  0  2  0  0  0  0  0  0
  -29.8750  -11.6170   17.3510 C   0  0  0  0  0  2  0  0  0  0  0  0
  -28.4010  -11.5710   17.8660 C   0  0  0  0  0  2  0  0  0  0  0  0
  -28.4160  -12.5130   19.0090 C   0  0  0  0  0  3  0  0  0  0  0  0
  -29.4660  -11.6980   19.9410 C   0  0  0  0  0  2  0  0  0  0  0  0
  -30.6020  -12.3990   19.6930 N   0  0  0  0  0  0  0  0  0  0  0  0
  -31.3640  -14.4200   19.6260 O   0  0  0  0  0  0  0  0  0  0  0  0
  -29.5100  -13.7860   21.2710 N   0  0  0  0  0  0  0  0  0  0  0  0
  -29.5920  -14.7190   21.6420 H   0  0  0  0  0  0  0  0  0  0  0  0
  -26.4350  -13.4960   20.0110 C   0  0  0  0  0  0  0  0  0  0  0  0
  -25.0820  -12.9280   21.2280 C   0  0  0  0  0  0  0  0  0  0  0  0
  -25.1300  -11.6750   21.6470 C   0  0  0  0  0  2  0  0  0  0  0  0
  -27.0150  -12.9830   19.4120 N   0  0  0  0  0  2  0  0  0  0  0  0
  -25.7490  -12.7800   20.8340 N   0  0  0  0  0  0  0  0  0  0  0  0
  -24.4270  -10.2520   21.4090 C   0  0  0  0  0  3  0  0  0  0  0  0
  -24.8470   -9.1330   22.1950 C   0  0  0  0  0  3  0  0  0  0  0  0
  -24.1120   -7.9140   22.2990 C   0  0  0  0  0  3  0  0  0  0  0  0
  -22.8980   -7.7320   21.6010 C   0  0  0  0  0  0  0  0  0  0  0  0
  -22.5270   -8.7630   20.7070 C   0  0  0  0  0  3  0  0  0  0  0  0
  -23.2740   -9.9760   20.6020 C   0  0  0  0  0  3  0  0  0  0  0  0
  -22.0870   -6.6090   21.7160 O   0  0  0  0  0  0  0  0  0  0  0  0
  -21.9460   -5.9010   22.8970 C   0  0  0  0  0  0  0  0  0  0  0  0
  -21.4830   -6.5050   24.0880 C   0  0  0  0  0  3  0  0  0  0  0  0
  -21.3110   -5.7360   25.2610 C   0  0  0  0  0  3  0  0  0  0  0  0
  -21.5890   -4.3550   25.2510 C   0  0  0  0  0  0  0  0  0  0  0  0
  -22.0300   -3.7420   24.0650 C   0  0  0  0  0  3  0  0  0  0  0  0
  -22.1980   -4.5080   22.8940 C   0  0  0  0  0  0  0  0  0  0  0  0
  -22.6040   -3.8940   21.7560 F   0  0  0  0  0  0  0  0  0  0  0  0
  -21.4320   -3.6160   26.3770 F   0  0  0  0  0  0  0  0  0  0  0  0
  -23.5130  -13.3400   21.7030 C   0  0  0  0  0  0  0  0  0  0  0  0
  -22.8610  -12.5920   22.6010 N   0  0  0  0  0  0  0  0  0  0  0  0
  -22.8380  -14.2420   21.2040 O   0  0  0  0  0  0  0  0  0  0  0  0
  -23.2880  -11.8110   23.0740 H   0  0  0  0  0  0  0  0  0  0  0  0
  -21.9070  -12.8330   22.8250 H   0  0  0  0  0  0  0  0  0  0  0  0
  -27.0140  -14.6190   19.2350 N   0  0  0  0  0  4  0  0  0  0  0  0
  -27.6450  -14.4930   18.4580 H   0  0  0  0  0  0  0  0  0  0  0  0
  -26.6170  -15.5440   19.2610 H   0  0  0  0  0  0  0  0  0  0  0  0
  -27.6680  -16.1460   22.0600 N   0  0  0  0  0  0  0  0  0  0  0  0
  -27.0690  -16.8100   22.5400 H   0  0  0  0  0  0  0  0  0  0  0  0
  -28.4380  -15.9010   22.6700 H   0  0  0  0  0  0  0  0  0  0  0  0
  -25.7030  -20.0320   19.0100 C   0  0  0  0  0  2  0  0  0  0  0  0
  -26.8180  -21.4840   18.5630 C   0  0  0  0  0  0  0  0  0  0  0  0
  -29.1180  -20.5610   18.2980 C   0  0  0  0  0  0  0  0  0  0  0  0
  -30.3130  -20.0200   19.0640 C   0  0  0  0  0  1  0  0  0  0  0  0
  -28.1280  -21.0670   19.0400 N   0  0  0  0  0  4  0  0  0  0  0  0
  -29.0890  -20.5000   17.0700 O   0  0  0  0  0  0  0  0  0  0  0  0
  -28.2600  -21.0820   20.0410 H   0  0  0  0  0  0  0  0  0  0  0  0
  -26.7620  -23.3760   18.6850 C   0  0  0  0  0  2  0  0  0  0  0  0
  -27.6580  -24.8290   18.3580 O   0  0  0  0  0  0  0  0  0  0  0  0
  -25.2400  -30.7080   22.4640 C   0  0  0  0  0  0  0  0  0  0  0  0
  -27.1170  -26.2200   18.4990 C   0  0  0  0  0  0  0  0  0  0  0  0
  -23.9310  -29.7170   20.6500 C   0  0  0  0  0  3  0  0  0  0  0  0
  -25.2120  -28.4070   18.8440 C   0  0  0  0  0  0  0  0  0  0  0  0
  -26.5050  -29.7660   20.4550 C   0  0  0  0  0  2  0  0  0  0  0  0
  -26.4300  -28.5110   19.5260 C   0  0  0  0  0  0  0  0  0  0  0  0
  -27.4100  -27.4230   19.3390 C   0  0  0  0  0  3  0  0  0  0  0  0
  -25.9960  -26.3990   17.6960 C   0  0  0  0  0  3  0  0  0  0  0  0
  -25.0440  -27.4060   17.8890 C   0  0  0  0  0  3  0  0  0  0  0  0
  -24.0790  -29.3750   19.1480 C   0  0  0  0  0  2  0  0  0  0  0  0
  -25.2540  -30.0870   21.2420 N   0  0  0  0  0  0  0  0  0  0  0  0
  -24.1780  -30.9320   23.0690 O   0  0  0  0  0  0  0  0  0  0  0  0
  -23.2410  -28.5500   21.4050 C   0  0  0  0  0  0  0  0  0  0  0  0
  -21.8970  -28.4920   21.3660 N   0  0  0  0  0  0  0  0  0  0  0  0
  -23.9180  -27.7130   22.0080 O   0  0  0  0  0  0  0  0  0  0  0  0
  -21.4050  -29.2180   20.8650 H   0  0  0  0  0  0  0  0  0  0  0  0
  -18.4790  -27.4450   21.9760 C   0  0  0  0  0  0  0  0  0  0  0  0
  -21.0670  -27.4550   21.9870 C   0  0  0  0  0  3  0  0  0  0  0  0
  -20.9710  -26.2040   21.0830 C   0  0  0  0  0  2  0  0  0  0  0  0
  -19.7470  -26.2200   20.1610 C   0  0  0  0  0  2  0  0  0  0  0  0
  -18.4560  -26.2980   20.9810 C   0  0  0  0  0  2  0  0  0  0  0  0
  -19.7040  -27.9980   22.4380 C   0  0  0  0  0  0  0  0  0  0  0  0
  -19.6650  -29.0830   23.3410 C   0  0  0  0  0  3  0  0  0  0  0  0
  -18.4370  -29.6110   23.7810 C   0  0  0  0  0  3  0  0  0  0  0  0
  -17.2280  -29.0500   23.3320 C   0  0  0  0  0  3  0  0  0  0  0  0
  -17.2520  -27.9690   22.4340 C   0  0  0  0  0  3  0  0  0  0  0  0
  -26.5510  -31.1820   23.1550 C   0  0  0  0  0  3  0  0  0  0  0  0
  -26.2460  -32.4210   23.8940 N   0  0  0  0  0  0  0  0  0  0  0  0
  -26.5100  -33.6630   23.4620 C   0  0  0  0  0  0  0  0  0  0  0  0
  -27.1010  -33.8840   22.4020 O   0  0  0  0  0  0  0  0  0  0  0  0
  -25.7120  -32.3170   24.7430 H   0  0  0  0  0  0  0  0  0  0  0  0
  -24.7420  -35.4270   23.7890 C   0  0  0  0  0  1  0  0  0  0  0  0
  -26.0510  -34.8430   24.3450 C   0  0  0  0  0  3  0  0  0  0  0  0
  -28.2340  -35.5260   25.2400 C   0  0  0  0  0  1  0  0  0  0  0  0
  -27.0600  -35.9190   24.4650 N   0  0  0  0  0  0  0  0  0  0  0  0
  -26.6560  -36.7460   24.8980 H   0  0  0  0  0  0  0  0  0  0  0  0
  -27.1540  -30.1050   24.1390 C   0  0  1  0  0  0  0  0  0  0  0  0
  -26.1440  -29.5880   25.1920 C   0  0  0  0  0  1  0  0  0  0  0  0
  -27.6830  -28.8780   23.3660 C   0  0  0  0  0  1  0  0  0  0  0  0
  -28.3670  -30.7030   24.8880 C   0  0  0  0  0  1  0  0  0  0  0  0
  1 10  1  0
  2  4  1  0
  2  1  2  0
  3  1  1  0
  3  6  1  0
  5  2  1  0
  7 27  1  0
 12 51  1  0
 13 21  1  0
 14 19  1  0
 15 16  1  0
 15 14  1  0
 16 17  1  0
 17 26  1  0
 17 18  1  0
 19 18  1  0
 19 13  1  0
 20 13  2  0
 21 11  1  0
 21 22  1  0
 23 27  1  0
 24 25  2  0
 24 43  1  0
 26 23  1  0
 27 24  1  0
 28 29  1  0
 29 30  2  0
 31 34  1  0
 31 30  1  0
 32 31  2  0
 33 32  1  0
 33 28  2  0
 34 35  1  0
 35 36  1  0
 36 37  2  0
 38 37  1  0
 38 42  1  0
 39 38  2  0
 40 35  2  0
 40 39  1  0
 41 40  1  0
 43 44  1  0
 44 47  1  0
 44 46  1  0
 45 43  2  0
 48 50  1  0
 48 23  2  0
 49 48  1  0
 51 52  1  0
 51 53  1  0
 54  3  1  0
 55 61  1  0
 55 54  1  0
 55 58  2  3
 56 58  1  0
 56 57  1  0
 58 60  1  0
 59 56  2  0
 62 64  1  0
 62 61  1  0
 63 74  2  0
 64 69  1  0
 65 73  1  0
 65 75  1  0
 66 72  1  0
 66 68  1  0
 67 73  1  0
 68 67  1  0
 69 68  2  0
 70 71  1  0
 70 64  2  0
 71 66  2  0
 72 65  1  0
 73 63  1  0
 75 77  2  0
 76 75  1  0
 78 76  1  0
 79 88  2  0
 79 84  1  0
 80 76  1  0
 80 84  1  0
 81 80  1  0
 82 83  1  0
 82 81  1  0
 83 79  1  0
 84 85  2  0
 85 86  1  0
 87 86  2  0
 88 87  1  0
 89 63  1  0
 89 90  1  0
 89 99  1  0
 90 93  1  0
 91 90  1  0
 91 95  1  0
 92 91  2  0
 95 94  1  0
 95 97  1  0
 97 98  1  0
 97 96  1  0
 99102  1  1
 99100  1  0
101 99  1  0
M  ISO  4  13 100  21 100  61 101  62 101
M  END
>  <TORSDO>  (19) 
F 22

>  <SCORE>  (19) 
-2.100

>  <name>  (19) 
18

>  <ligand_id>  (19) 
18

>  <original_smiles>  (19) 
[H]c1c([H])c(C(N([H])[H])=[N+]([H])C([H])([H])C([H])(N([H])C(=O)C([H])([H])[H])C([H])([H])Oc2c([H])c([H])c3c(c2[H])C([H])([H])N(C(=O)C([H])(N([H])C(=O)C([H])(N([H])C([H])([H])[H])C([H])([H])[H])C(C([H])([H])[H])(C([H])([H])[H])C([H])([H])[H])C([H])(C(=O)N([H])C2([H])c4c([H])c([H])c([H])c([H])c4C([H])([H])C([H])([H])C2([H])[H])C3([H])[H])c(N([H])[H])c(N([H])C(=O)N2C([H])([H])C([H])([H])C([H])([H])C([H])(n3nc(-c4c([H])c([H])c(Oc5c([H])c([H])c(F)c([H])c5F)c([H])c4[H])c(C(=O)N([H])[H])c3N([H])[H])C2([H])[H])c1[H]

>  <smiles>  (19) 
[H]c1c([H])c(C(N([H])[H])=[N+]([H])C([H])([H])C([H])(N([H])C(=O)C([H])([H])[H])C([H])([H])Oc2c([H])c([H])c3c(c2[H])C([H])([H])N(C(=O)C([H])(N([H])C(=O)C([H])(N([H])C([H])([H])[H])C([H])([H])[H])C(C([H])([H])[H])(C([H])([H])[H])C([H])([H])[H])C([H])(C(=O)N([H])C2([H])c4c([H])c([H])c([H])c([H])c4C([H])([H])C([H])([H])C2([H])[H])C3([H])[H])c(N([H])[H])c(N([H])C(=O)N2C([H])([H])C([H])([H])C([H])([H])C([H])(n3nc(-c4c([H])c([H])c(Oc5c([H])c([H])c(F)c([H])c5F)c([H])c4[H])c(C(=O)N([H])[H])c3N([H])[H])C2([H])[H])c1[H]

$$$$
19:0:0
     RDKit          3D

103112  0  0  1  0  0  0  0  0999 V2000
  -28.3470  -20.4570   20.3360 C   0  0  0  0  0  2  0  0  0  0  0  0
  -30.8570  -19.8570   20.4280 C   0  0  0  0  0  3  0  0  0  0  0  0
  -31.6050  -17.5230   20.6310 C   0  0  0  0  0  3  0  0  0  0  0  0
  -29.2320  -18.0430   20.5470 C   0  0  0  0  0  3  0  0  0  0  0  0
  -31.8920  -18.9000   20.5220 C   0  0  0  0  0  0  0  0  0  0  0  0
  -29.5110  -19.4410   20.4540 C   0  0  0  0  0  0  0  0  0  0  0  0
  -30.2680  -17.0620   20.6110 C   0  0  0  0  0  0  0  0  0  0  0  0
  -30.6800  -14.5930   20.2290 C   0  0  0  0  0  0  0  0  0  0  0  0
  -30.3710  -12.4110   19.1210 C   0  0  0  0  0  2  0  0  0  0  0  0
  -29.4060  -12.6210   17.9360 C   0  0  0  0  0  2  0  0  0  0  0  0
  -27.9460  -12.4640   18.4030 C   0  0  0  0  0  2  0  0  0  0  0  0
  -27.6330  -13.2960   19.6760 C   0  0  0  0  0  3  0  0  0  0  0  0
  -28.7150  -13.1020   20.7620 C   0  0  0  0  0  2  0  0  0  0  0  0
  -30.0190  -13.4060   20.1500 N   0  0  0  0  0  0  0  0  0  0  0  0
  -31.8160  -14.7300   19.7620 O   0  0  0  0  0  0  0  0  0  0  0  0
  -29.9520  -15.6530   20.6710 N   0  0  0  0  0  0  0  0  0  0  0  0
  -29.0100  -15.4180   20.9390 H   0  0  0  0  0  0  0  0  0  0  0  0
  -25.2600  -13.8940   20.4680 C   0  0  0  0  0  0  0  0  0  0  0  0
  -24.2060  -13.1180   20.8640 C   0  0  0  0  0  0  0  0  0  0  0  0
  -24.6620  -11.7660   20.8000 C   0  0  0  0  0  0  0  0  0  0  0  0
  -26.2950  -13.0140   20.1880 N   0  0  0  0  0  0  0  0  0  0  0  0
  -25.9420  -11.7300   20.4480 N   0  0  0  0  0  0  0  0  0  0  0  0
  -23.9420  -10.5030   20.9980 C   0  0  0  0  0  0  0  0  0  0  0  0
  -24.3940   -9.5320   21.9190 C   0  0  0  0  0  3  0  0  0  0  0  0
  -23.6740   -8.3310   22.1050 C   0  0  0  0  0  3  0  0  0  0  0  0
  -22.4920   -8.0950   21.3680 C   0  0  0  0  0  0  0  0  0  0  0  0
  -22.0580   -9.0560   20.4380 C   0  0  0  0  0  3  0  0  0  0  0  0
  -22.7770  -10.2470   20.2490 C   0  0  0  0  0  3  0  0  0  0  0  0
  -21.7380   -6.9510   21.4650 O   0  0  0  0  0  0  0  0  0  0  0  0
  -21.6870   -6.2160   22.6210 C   0  0  0  0  0  0  0  0  0  0  0  0
  -21.2440   -6.7760   23.8390 C   0  0  0  0  0  3  0  0  0  0  0  0
  -21.1410   -5.9650   24.9900 C   0  0  0  0  0  3  0  0  0  0  0  0
  -21.4740   -4.6000   24.9220 C   0  0  0  0  0  0  0  0  0  0  0  0
  -21.9100   -4.0410   23.7090 C   0  0  0  0  0  3  0  0  0  0  0  0
  -22.0140   -4.8470   22.5610 C   0  0  0  0  0  0  0  0  0  0  0  0
  -22.4170   -4.2980   21.3900 F   0  0  0  0  0  0  0  0  0  0  0  0
  -21.3710   -3.8200   26.0240 F   0  0  0  0  0  0  0  0  0  0  0  0
  -22.8190  -13.5920   21.1890 C   0  0  0  0  0  0  0  0  0  0  0  0
  -22.1190  -12.8830   22.0700 N   0  0  0  0  0  0  0  0  0  0  0  0
  -22.3640  -14.6240   20.6970 O   0  0  0  0  0  0  0  0  0  0  0  0
  -22.5030  -12.0530   22.4940 H   0  0  0  0  0  0  0  0  0  0  0  0
  -21.1860  -13.1800   22.3290 H   0  0  0  0  0  0  0  0  0  0  0  0
  -25.4180  -15.2670   20.3020 N   0  0  0  0  0  0  0  0  0  0  0  0
  -24.6390  -15.9060   20.4380 H   0  0  0  0  0  0  0  0  0  0  0  0
  -26.2230  -15.7050   19.8760 H   0  0  0  0  0  0  0  0  0  0  0  0
  -33.2780  -19.3360   20.4870 C   0  0  0  0  0  0  0  0  0  0  0  0
  -33.8090  -19.7390   19.3360 N   0  0  0  0  0  4  0  0  0  0  0  0
  -34.0020  -19.3350   21.6020 N   0  0  0  0  0  0  0  0  0  0  0  0
  -33.2490  -19.6680   18.4980 H   0  0  0  0  0  0  0  0  0  0  0  0
  -34.7720  -20.0120   19.2290 H   0  0  0  0  0  0  0  0  0  0  0  0
  -33.5350  -19.1270   22.4740 H   0  0  0  0  0  0  0  0  0  0  0  0
  -34.9580  -19.6550   21.6410 H   0  0  0  0  0  0  0  0  0  0  0  0
  -28.8680  -23.9380   21.4870 C   0  0  0  0  0  3  0  0  0  0  0  0
  -28.6230  -24.1870   20.1010 C   0  0  0  0  0  0  0  0  0  0  0  0
  -28.8600  -22.5820   21.6970 C   0  0  0  0  0  0  0  0  0  0  0  0
  -28.5080  -22.9260   19.5460 C   0  0  0  0  0  0  0  0  0  0  0  0
  -28.6060  -21.9160   20.5090 N   0  0  0  0  0  0  0  0  0  0  0  0
  -29.0320  -21.8850   22.8540 O   0  0  0  0  0  0  0  0  0  0  0  0
  -29.2790  -22.5040   23.5320 H   0  0  0  0  0  0  0  0  0  0  0  0
  -28.2990  -22.5950   18.2420 O   0  0  0  0  0  0  0  0  0  0  0  0
  -28.4770  -23.3670   17.7130 H   0  0  0  0  0  0  0  0  0  0  0  0
  -28.5580  -25.5510   19.3760 C   0  0  0  0  0  2  0  0  0  0  0  0
  -28.3750  -26.7320   20.1950 O   0  0  0  0  0  0  0  0  0  0  0  0
  -24.5850  -31.9620   23.2470 C   0  0  0  0  0  0  0  0  0  0  0  0
  -27.1900  -27.4620   20.1660 C   0  0  0  0  0  0  0  0  0  0  0  0
  -23.3710  -30.5580   21.6170 C   0  0  0  0  0  3  0  0  0  0  0  0
  -24.8050  -29.0080   20.1930 C   0  0  0  0  0  0  0  0  0  0  0  0
  -25.9020  -30.8940   21.4120 C   0  0  0  0  0  2  0  0  0  0  0  0
  -25.9730  -29.5230   20.7660 C   0  0  0  0  0  0  0  0  0  0  0  0
  -27.1660  -28.7570   20.7450 C   0  0  0  0  0  3  0  0  0  0  0  0
  -25.9880  -26.9580   19.6150 C   0  0  0  0  0  3  0  0  0  0  0  0
  -24.8060  -27.7250   19.6220 C   0  0  0  0  0  3  0  0  0  0  0  0
  -23.5750  -29.8840   20.2360 C   0  0  0  0  0  2  0  0  0  0  0  0
  -24.6370  -31.1540   22.1480 N   0  0  0  0  0  0  0  0  0  0  0  0
  -23.5070  -32.2410   23.7880 O   0  0  0  0  0  0  0  0  0  0  0  0
  -22.7200  -29.5410   22.5830 C   0  0  0  0  0  0  0  0  0  0  0  0
  -21.3940  -29.3640   22.4620 N   0  0  0  0  0  0  0  0  0  0  0  0
  -23.4030  -28.9170   23.3990 O   0  0  0  0  0  0  0  0  0  0  0  0
  -20.9050  -29.9190   21.7750 H   0  0  0  0  0  0  0  0  0  0  0  0
  -18.0160  -28.1760   22.9700 C   0  0  0  0  0  0  0  0  0  0  0  0
  -20.5750  -28.4300   23.2360 C   0  0  0  0  0  3  0  0  0  0  0  0
  -20.6760  -26.9980   22.6620 C   0  0  0  0  0  2  0  0  0  0  0  0
  -19.5690  -26.6740   21.6530 C   0  0  0  0  0  2  0  0  0  0  0  0
  -18.1880  -26.8230   22.3000 C   0  0  0  0  0  2  0  0  0  0  0  0
  -19.1370  -28.9370   23.3950 C   0  0  0  0  0  0  0  0  0  0  0  0
  -18.9230  -30.2020   23.9830 C   0  0  0  0  0  3  0  0  0  0  0  0
  -17.6200  -30.7090   24.1490 C   0  0  0  0  0  3  0  0  0  0  0  0
  -16.5140  -29.9470   23.7390 C   0  0  0  0  0  3  0  0  0  0  0  0
  -16.7120  -28.6810   23.1570 C   0  0  0  0  0  3  0  0  0  0  0  0
  -25.8750  -32.5920   23.8570 C   0  0  0  0  0  3  0  0  0  0  0  0
  -25.5760  -33.9950   24.1750 N   0  0  0  0  0  0  0  0  0  0  0  0
  -25.9110  -35.0390   23.4040 C   0  0  0  0  0  0  0  0  0  0  0  0
  -26.5760  -34.9220   22.3720 O   0  0  0  0  0  0  0  0  0  0  0  0
  -24.9880  -34.1610   24.9780 H   0  0  0  0  0  0  0  0  0  0  0  0
  -24.1930  -36.8380   23.0350 C   0  0  0  0  0  1  0  0  0  0  0  0
  -25.4330  -36.4340   23.8490 C   0  0  0  0  0  3  0  0  0  0  0  0
  -27.5720  -37.3150   24.6720 C   0  0  0  0  0  1  0  0  0  0  0  0
  -26.4720  -37.4800   23.7260 N   0  0  0  0  0  0  0  0  0  0  0  0
  -26.0710  -38.4030   23.8650 H   0  0  0  0  0  0  0  0  0  0  0  0
  -26.3880  -31.8300   25.1410 C   0  0  1  0  0  0  0  0  0  0  0  0
  -25.2950  -31.6140   26.2140 C   0  0  0  0  0  1  0  0  0  0  0  0
  -26.9590  -30.4430   24.7630 C   0  0  0  0  0  1  0  0  0  0  0  0
  -27.5390  -32.6270   25.7970 C   0  0  0  0  0  1  0  0  0  0  0  0
  1  6  1  0
  1 57  1  0
  2  6  2  0
  2  5  1  0
  4  7  2  0
  5  3  2  0
  6  4  1  0
  7  3  1  0
  7 16  1  0
  8 16  1  0
  9 14  1  0
 10 11  1  0
 10  9  1  0
 12 11  1  0
 12 21  1  0
 12 13  1  0
 14  8  1  0
 14 13  1  0
 15  8  2  0
 16 17  1  0
 18 19  2  0
 19 38  1  0
 20 19  1  0
 20 23  1  0
 21 22  1  0
 21 18  1  0
 22 20  2  0
 23 24  1  0
 24 25  2  0
 26 29  1  0
 26 25  1  0
 27 26  2  0
 28 27  1  0
 28 23  2  0
 29 30  1  0
 30 31  1  0
 31 32  2  0
 33 32  1  0
 33 37  1  0
 34 33  2  0
 35 30  2  0
 35 34  1  0
 36 35  1  0
 38 39  1  0
 39 42  1  0
 39 41  1  0
 40 38  2  0
 43 44  1  0
 43 18  1  0
 45 43  1  0
 46  5  1  0
 46 48  1  0
 47 46  2  0
 48 52  1  0
 48 51  1  0
 49 47  1  0
 50 47  1  0
 53 55  2  0
 54 53  1  0
 55 58  1  0
 56 54  2  0
 56 57  1  0
 57 55  1  0
 58 59  1  0
 60 56  1  0
 61 60  1  0
 62 54  1  0
 62 63  1  0
 64 75  2  0
 65 63  1  0
 65 70  1  0
 66 74  1  0
 66 76  1  0
 67 73  1  0
 67 69  1  0
 68 74  1  0
 69 68  1  0
 70 69  2  0
 71 72  1  0
 71 65  2  0
 72 67  2  0
 73 66  1  0
 74 64  1  0
 76 78  2  0
 77 76  1  0
 79 77  1  0
 80 89  2  0
 80 85  1  0
 81 77  1  0
 81 85  1  0
 82 81  1  0
 83 84  1  0
 83 82  1  0
 84 80  1  0
 85 86  2  0
 86 87  1  0
 88 87  2  0
 89 88  1  0
 90 64  1  0
 90 91  1  0
 90100  1  0
 91 94  1  0
 92 96  1  0
 92 91  1  0
 93 92  2  0
 96 95  1  0
 98 96  1  0
 98 99  1  0
 98 97  1  0
100103  1  1
100101  1  0
102100  1  0
M  ISO  4   8 100  16 100  62 101  63 101
M  END
>  <TORSDO>  (20) 
F 22

>  <SCORE>  (20) 
-14.280

>  <name>  (20) 
19

>  <ligand_id>  (20) 
19

>  <original_smiles>  (20) 
[H]Oc1c([H])c(C([H])([H])Oc2c([H])c([H])c3c(c2[H])C([H])([H])N(C(=O)C([H])(N([H])C(=O)C([H])(N([H])C([H])([H])[H])C([H])([H])[H])C(C([H])([H])[H])(C([H])([H])[H])C([H])([H])[H])C([H])(C(=O)N([H])C2([H])c4c([H])c([H])c([H])c([H])c4C([H])([H])C([H])([H])C2([H])[H])C3([H])[H])c(O[H])n1C([H])([H])c1c([H])c(C(N([H])[H])=[N+]([H])[H])c([H])c(N([H])C(=O)N2C([H])([H])C([H])([H])C([H])([H])C([H])(n3nc(-c4c([H])c([H])c(Oc5c([H])c([H])c(F)c([H])c5F)c([H])c4[H])c(C(=O)N([H])[H])c3N([H])[H])C2([H])[H])c1[H]

>  <smiles>  (20) 
[H]Oc1c([H])c(C([H])([H])Oc2c([H])c([H])c3c(c2[H])C([H])([H])N(C(=O)C([H])(N([H])C(=O)C([H])(N([H])C([H])([H])[H])C([H])([H])[H])C(C([H])([H])[H])(C([H])([H])[H])C([H])([H])[H])C([H])(C(=O)N([H])C2([H])c4c([H])c([H])c([H])c([H])c4C([H])([H])C([H])([H])C2([H])[H])C3([H])[H])c(O[H])n1C([H])([H])c1c([H])c(C(N([H])[H])=[N+]([H])[H])c([H])c(N([H])C(=O)N2C([H])([H])C([H])([H])C([H])([H])C([H])(n3nc(-c4c([H])c([H])c(Oc5c([H])c([H])c(F)c([H])c5F)c([H])c4[H])c(C(=O)N([H])[H])c3N([H])[H])C2([H])[H])c1[H]

$$$$
20:0:0
     RDKit          3D

 96104  0  0  1  0  0  0  0  0999 V2000
  -29.4290  -18.5640   20.1270 C   0  0  0  0  0  3  0  0  0  0  0  0
  -31.6830  -17.7140   20.3680 C   0  0  0  0  0  3  0  0  0  0  0  0
  -31.2430  -20.1520   20.4920 C   0  0  0  0  0  0  0  0  0  0  0  0
  -30.3170  -17.3950   20.2310 C   0  0  0  0  0  0  0  0  0  0  0  0
  -29.8540  -19.9750   20.1980 C   0  0  0  0  0  0  0  0  0  0  0  0
  -32.1270  -19.0420   20.5120 C   0  0  0  0  0  0  0  0  0  0  0  0
  -33.4500  -19.2460   20.7320 F   0  0  0  0  0  0  0  0  0  0  0  0
  -30.6540  -14.7570   20.3790 C   0  0  0  0  0  0  0  0  0  0  0  0
  -30.4970  -12.3150   19.8070 C   0  0  0  0  0  2  0  0  0  0  0  0
  -29.6440  -12.1140   18.5350 C   0  0  0  0  0  2  0  0  0  0  0  0
  -28.1550  -11.9870   18.9090 C   0  0  0  0  0  2  0  0  0  0  0  0
  -27.6930  -13.0960   19.8910 C   0  0  0  0  0  3  0  0  0  0  0  0
  -28.6800  -13.2840   21.0640 C   0  0  0  0  0  2  0  0  0  0  0  0
  -30.0030  -13.5380   20.4840 N   0  0  0  0  0  0  0  0  0  0  0  0
  -31.8630  -14.7540   20.1350 O   0  0  0  0  0  0  0  0  0  0  0  0
  -29.9070  -15.9420   20.2900 N   0  0  0  0  0  0  0  0  0  0  0  0
  -28.9120  -15.7840   20.3010 H   0  0  0  0  0  0  0  0  0  0  0  0
  -25.3260  -13.8220   20.5570 C   0  0  0  0  0  0  0  0  0  0  0  0
  -24.2070  -13.1130   20.8970 C   0  0  0  0  0  0  0  0  0  0  0  0
  -24.5910  -11.7380   20.8820 C   0  0  0  0  0  0  0  0  0  0  0  0
  -26.3230  -12.8830   20.3510 N   0  0  0  0  0  0  0  0  0  0  0  0
  -25.8860  -11.6240   20.6110 N   0  0  0  0  0  0  0  0  0  0  0  0
  -23.7850  -10.5210   21.0530 C   0  0  0  0  0  0  0  0  0  0  0  0
  -24.1360   -9.5270   21.9920 C   0  0  0  0  0  3  0  0  0  0  0  0
  -23.3330   -8.3770   22.1520 C   0  0  0  0  0  3  0  0  0  0  0  0
  -22.1660   -8.2140   21.3700 C   0  0  0  0  0  0  0  0  0  0  0  0
  -21.8340   -9.1940   20.4190 C   0  0  0  0  0  3  0  0  0  0  0  0
  -22.6360  -10.3360   20.2580 C   0  0  0  0  0  3  0  0  0  0  0  0
  -21.3400   -7.1170   21.4380 O   0  0  0  0  0  0  0  0  0  0  0  0
  -21.2530   -6.3500   22.5720 C   0  0  0  0  0  0  0  0  0  0  0  0
  -20.8400   -6.8920   23.8090 C   0  0  0  0  0  3  0  0  0  0  0  0
  -20.6980   -6.0530   24.9320 C   0  0  0  0  0  3  0  0  0  0  0  0
  -20.9590   -4.6730   24.8200 C   0  0  0  0  0  0  0  0  0  0  0  0
  -21.3650   -4.1320   23.5870 C   0  0  0  0  0  3  0  0  0  0  0  0
  -21.5090   -4.9680   22.4660 C   0  0  0  0  0  0  0  0  0  0  0  0
  -21.8810   -4.4370   21.2760 F   0  0  0  0  0  0  0  0  0  0  0  0
  -20.8150   -3.8670   25.8960 F   0  0  0  0  0  0  0  0  0  0  0  0
  -22.8340  -13.6740   21.1280 C   0  0  0  0  0  0  0  0  0  0  0  0
  -22.0420  -13.0280   21.9780 N   0  0  0  0  0  0  0  0  0  0  0  0
  -22.4740  -14.7220   20.5920 O   0  0  0  0  0  0  0  0  0  0  0  0
  -22.3460  -12.1820   22.4350 H   0  0  0  0  0  0  0  0  0  0  0  0
  -21.1170  -13.3870   22.1710 H   0  0  0  0  0  0  0  0  0  0  0  0
  -25.5710  -15.1800   20.3810 N   0  0  0  0  0  0  0  0  0  0  0  0
  -24.8250  -15.8650   20.4300 H   0  0  0  0  0  0  0  0  0  0  0  0
  -26.4460  -15.5740   20.0610 H   0  0  0  0  0  0  0  0  0  0  0  0
  -28.9590  -22.5080   19.7690 C   0  0  0  0  0  0  0  0  0  0  0  0
  -28.9010  -21.1480   20.1580 N   0  0  0  0  0  0  0  0  0  0  0  0
  -29.8160  -22.9050   18.9810 O   0  0  0  0  0  0  0  0  0  0  0  0
  -28.0020  -20.9400   20.5690 H   0  0  0  0  0  0  0  0  0  0  0  0
  -27.6260  -24.8080   20.3480 C   0  0  0  0  0  3  0  0  0  0  0  0
  -27.8760  -23.4140   20.3440 C   0  0  0  0  0  0  0  0  0  0  0  0
  -26.8020  -22.6140   21.1000 C   0  0  0  0  0  1  0  0  0  0  0  0
  -28.0970  -26.0810   19.8490 O   0  0  0  0  0  0  0  0  0  0  0  0
  -24.5280  -31.6180   23.0780 C   0  0  0  0  0  0  0  0  0  0  0  0
  -27.0950  -27.1070   19.8030 C   0  0  0  0  0  0  0  0  0  0  0  0
  -23.3030  -30.2530   21.4320 C   0  0  0  0  0  3  0  0  0  0  0  0
  -24.7370  -28.7750   19.9050 C   0  0  0  0  0  0  0  0  0  0  0  0
  -25.8430  -30.5810   21.2070 C   0  0  0  0  0  2  0  0  0  0  0  0
  -25.9220  -29.2220   20.5040 C   0  0  0  0  0  0  0  0  0  0  0  0
  -27.1050  -28.3950   20.4550 C   0  0  0  0  0  3  0  0  0  0  0  0
  -25.8970  -26.7810   19.1260 C   0  0  0  0  0  3  0  0  0  0  0  0
  -24.7310  -27.5640   19.2040 C   0  0  0  0  0  3  0  0  0  0  0  0
  -23.4940  -29.6400   20.0200 C   0  0  0  0  0  2  0  0  0  0  0  0
  -24.5790  -30.8370   21.9600 N   0  0  0  0  0  0  0  0  0  0  0  0
  -23.4500  -31.8670   23.6440 O   0  0  0  0  0  0  0  0  0  0  0  0
  -22.6780  -29.1970   22.3770 C   0  0  0  0  0  0  0  0  0  0  0  0
  -21.3560  -28.9740   22.2550 N   0  0  0  0  0  0  0  0  0  0  0  0
  -23.3830  -28.5850   23.1840 O   0  0  0  0  0  0  0  0  0  0  0  0
  -20.8450  -29.5190   21.5730 H   0  0  0  0  0  0  0  0  0  0  0  0
  -18.0380  -27.6080   22.7420 C   0  0  0  0  0  0  0  0  0  0  0  0
  -20.5780  -27.9960   23.0200 C   0  0  0  0  0  3  0  0  0  0  0  0
  -20.7520  -26.5720   22.4430 C   0  0  0  0  0  2  0  0  0  0  0  0
  -19.6720  -26.1980   21.4210 C   0  0  0  0  0  2  0  0  0  0  0  0
  -18.2840  -26.2730   22.0590 C   0  0  0  0  0  2  0  0  0  0  0  0
  -19.1150  -28.4240   23.1800 C   0  0  0  0  0  0  0  0  0  0  0  0
  -18.8300  -29.6710   23.7770 C   0  0  0  0  0  3  0  0  0  0  0  0
  -17.5000  -30.1020   23.9400 C   0  0  0  0  0  3  0  0  0  0  0  0
  -16.4380  -29.2840   23.5160 C   0  0  0  0  0  3  0  0  0  0  0  0
  -16.7080  -28.0380   22.9230 C   0  0  0  0  0  3  0  0  0  0  0  0
  -25.8150  -32.2590   23.6820 C   0  0  0  0  0  3  0  0  0  0  0  0
  -26.3730  -31.4650   24.9300 C   0  0  1  0  0  0  0  0  0  0  0  0
  -25.3140  -31.1920   26.0230 C   0  0  0  0  0  1  0  0  0  0  0  0
  -26.9640  -30.1010   24.5040 C   0  0  0  0  0  1  0  0  0  0  0  0
  -27.5340  -32.2590   25.5770 C   0  0  0  0  0  1  0  0  0  0  0  0
  -25.4930  -33.6450   24.0550 N   0  0  0  0  0  0  0  0  0  0  0  0
  -25.7880  -34.7210   23.3150 C   0  0  0  0  0  0  0  0  0  0  0  0
  -26.4320  -34.6540   22.2640 O   0  0  0  0  0  0  0  0  0  0  0  0
  -24.9200  -33.7660   24.8790 H   0  0  0  0  0  0  0  0  0  0  0  0
  -24.0200  -36.4910   23.0600 C   0  0  0  0  0  1  0  0  0  0  0  0
  -25.2940  -36.0890   23.8210 C   0  0  0  0  0  3  0  0  0  0  0  0
  -27.4370  -36.9910   24.6130 C   0  0  0  0  0  1  0  0  0  0  0  0
  -26.3080  -37.1590   23.7020 N   0  0  0  0  0  0  0  0  0  0  0  0
  -25.8930  -38.0690   23.8830 H   0  0  0  0  0  0  0  0  0  0  0  0
  -31.8510  -21.4860   20.9210 C   0  0  0  0  0  2  0  0  0  0  0  0
  -33.1480  -23.4300   19.9590 C   0  0  0  0  0  2  0  0  0  0  0  0
  -32.6140  -22.2060   19.8270 C   0  0  0  0  0  3  0  0  0  0  0  0
  1  5  2  0
  1  4  1  0
  2  6  1  0
  3  6  2  0
  3 94  1  0
  4 16  1  0
  4  2  2  0
  5  3  1  0
  6  7  1  0
  8 14  1  0
  9 14  1  0
 10 11  1  0
 10  9  1  0
 12 11  1  0
 12 21  1  0
 12 13  1  0
 14 13  1  0
 15  8  2  0
 16 17  1  0
 16  8  1  0
 18 19  2  0
 19 38  1  0
 20 19  1  0
 20 23  1  0
 21 18  1  0
 21 22  1  0
 22 20  2  0
 23 24  1  0
 24 25  2  0
 26 29  1  0
 26 25  1  0
 27 26  2  0
 28 27  1  0
 28 23  2  0
 29 30  1  0
 30 31  1  0
 31 32  2  0
 33 32  1  0
 33 37  1  0
 34 33  2  0
 35 30  2  0
 35 34  1  0
 36 35  1  0
 38 39  1  0
 39 42  1  0
 39 41  1  0
 40 38  2  0
 43 44  1  0
 43 18  1  0
 45 43  1  0
 46 47  1  0
 46 51  1  0
 47  5  1  0
 47 49  1  0
 48 46  2  0
 51 50  2  0
 51 52  1  0
 53 50  1  0
 54 65  2  0
 55 53  1  0
 55 60  1  0
 56 64  1  0
 56 66  1  0
 57 63  1  0
 57 59  1  0
 58 64  1  0
 59 58  1  0
 60 59  2  0
 61 62  1  0
 61 55  2  0
 62 57  2  0
 63 56  1  0
 64 54  1  0
 66 68  2  0
 67 66  1  0
 69 67  1  0
 70 79  2  0
 70 75  1  0
 71 67  1  0
 71 75  1  0
 72 71  1  0
 73 74  1  0
 73 72  1  0
 74 70  1  0
 75 76  2  0
 76 77  1  0
 78 77  2  0
 79 78  1  0
 80 54  1  0
 80 85  1  0
 80 81  1  0
 81 84  1  1
 81 82  1  0
 83 81  1  0
 85 88  1  0
 86 90  1  0
 86 85  1  0
 87 86  2  0
 90 89  1  0
 92 90  1  0
 92 93  1  0
 92 91  1  0
 96 95  2  0
 96 94  1  0
M  ISO  4   8 100  16 100  50 101  53 101
M  END
>  <TORSDO>  (21) 
F 20

>  <SCORE>  (21) 
-13.065

>  <name>  (21) 
20

>  <ligand_id>  (21) 
20

>  <original_smiles>  (21) 
[H]C([H])=C([H])C([H])([H])c1c(F)c([H])c(N([H])C(=O)N2C([H])([H])C([H])([H])C([H])([H])C([H])(n3nc(-c4c([H])c([H])c(Oc5c([H])c([H])c(F)c([H])c5F)c([H])c4[H])c(C(=O)N([H])[H])c3N([H])[H])C2([H])[H])c([H])c1N([H])C(=O)C(=C([H])Oc1c([H])c([H])c2c(c1[H])C([H])([H])N(C(=O)C([H])(N([H])C(=O)C([H])(N([H])C([H])([H])[H])C([H])([H])[H])C(C([H])([H])[H])(C([H])([H])[H])C([H])([H])[H])C([H])(C(=O)N([H])C1([H])c3c([H])c([H])c([H])c([H])c3C([H])([H])C([H])([H])C1([H])[H])C2([H])[H])C([H])([H])[H]

>  <smiles>  (21) 
[H]C([H])=C([H])C([H])([H])c1c(F)c([H])c(N([H])C(=O)N2C([H])([H])C([H])([H])C([H])([H])C([H])(n3nc(-c4c([H])c([H])c(Oc5c([H])c([H])c(F)c([H])c5F)c([H])c4[H])c(C(=O)N([H])[H])c3N([H])[H])C2([H])[H])c([H])c1N([H])C(=O)C(=C([H])Oc1c([H])c([H])c2c(c1[H])C([H])([H])N(C(=O)C([H])(N([H])C(=O)C([H])(N([H])C([H])([H])[H])C([H])([H])[H])C(C([H])([H])[H])(C([H])([H])[H])C([H])([H])[H])C([H])(C(=O)N([H])C1([H])c3c([H])c([H])c([H])c([H])c3C([H])([H])C([H])([H])C1([H])[H])C2([H])[H])C([H])([H])[H]

$$$$
21:0:0
     RDKit          3D

 92100  0  0  1  0  0  0  0  0999 V2000
  -28.8340  -22.4890   19.5740 C   0  0  0  0  0  0  0  0  0  0  0  0
  -29.0830  -21.2980   20.2770 N   0  0  0  0  0  0  0  0  0  0  0  0
  -28.7250  -22.4520   18.3470 O   0  0  0  0  0  0  0  0  0  0  0  0
  -28.9380  -21.3660   21.2750 H   0  0  0  0  0  0  0  0  0  0  0  0
  -29.4230  -18.6430   20.4390 C   0  0  0  0  0  3  0  0  0  0  0  0
  -30.3820  -19.9390   18.6190 C   0  0  0  0  0  3  0  0  0  0  0  0
  -30.7630  -17.5120   18.7530 C   0  0  0  0  0  3  0  0  0  0  0  0
  -29.5890  -19.9580   19.7910 C   0  0  0  0  0  0  0  0  0  0  0  0
  -30.0110  -17.3840   19.9440 C   0  0  0  0  0  0  0  0  0  0  0  0
  -30.9430  -18.7520   18.1100 C   0  0  0  0  0  0  0  0  0  0  0  0
  -31.6720  -18.8010   16.9700 F   0  0  0  0  0  0  0  0  0  0  0  0
  -30.5760  -14.8260   20.3200 C   0  0  0  0  0  0  0  0  0  0  0  0
  -30.3730  -12.5250   19.3670 C   0  0  0  0  0  2  0  0  0  0  0  0
  -29.4410  -12.5830   18.1370 C   0  0  0  0  0  2  0  0  0  0  0  0
  -27.9710  -12.4130   18.5620 C   0  0  0  0  0  2  0  0  0  0  0  0
  -27.5940  -13.3090   19.7710 C   0  0  0  0  0  3  0  0  0  0  0  0
  -28.6500  -13.2430   20.8940 C   0  0  0  0  0  2  0  0  0  0  0  0
  -29.9450  -13.5970   20.3010 N   0  0  0  0  0  0  0  0  0  0  0  0
  -31.7700  -14.8810   20.0130 O   0  0  0  0  0  0  0  0  0  0  0  0
  -29.8270  -15.9990   20.5110 N   0  0  0  0  0  0  0  0  0  0  0  0
  -28.9390  -15.8430   20.9630 H   0  0  0  0  0  0  0  0  0  0  0  0
  -25.2080  -13.9010   20.4910 C   0  0  0  0  0  0  0  0  0  0  0  0
  -24.1410  -13.1280   20.8580 C   0  0  0  0  0  0  0  0  0  0  0  0
  -24.6040  -11.7770   20.8330 C   0  0  0  0  0  0  0  0  0  0  0  0
  -26.2510  -13.0200   20.2630 N   0  0  0  0  0  0  0  0  0  0  0  0
  -25.8960  -11.7380   20.5340 N   0  0  0  0  0  0  0  0  0  0  0  0
  -23.8730  -10.5150   21.0230 C   0  0  0  0  0  0  0  0  0  0  0  0
  -24.2990   -9.5500   21.9620 C   0  0  0  0  0  3  0  0  0  0  0  0
  -23.5680   -8.3560   22.1440 C   0  0  0  0  0  3  0  0  0  0  0  0
  -22.3970   -8.1170   21.3860 C   0  0  0  0  0  0  0  0  0  0  0  0
  -21.9880   -9.0720   20.4370 C   0  0  0  0  0  3  0  0  0  0  0  0
  -22.7200  -10.2580   20.2550 C   0  0  0  0  0  3  0  0  0  0  0  0
  -21.6410   -6.9740   21.4760 O   0  0  0  0  0  0  0  0  0  0  0  0
  -21.5870   -6.2340   22.6300 C   0  0  0  0  0  0  0  0  0  0  0  0
  -21.1620   -6.7930   23.8540 C   0  0  0  0  0  3  0  0  0  0  0  0
  -21.0560   -5.9800   25.0000 C   0  0  0  0  0  3  0  0  0  0  0  0
  -21.3630   -4.6090   24.9220 C   0  0  0  0  0  0  0  0  0  0  0  0
  -21.7830   -4.0490   23.7010 C   0  0  0  0  0  3  0  0  0  0  0  0
  -21.8900   -4.8600   22.5580 C   0  0  0  0  0  0  0  0  0  0  0  0
  -22.2720   -4.3120   21.3780 F   0  0  0  0  0  0  0  0  0  0  0  0
  -21.2560   -3.8250   26.0180 F   0  0  0  0  0  0  0  0  0  0  0  0
  -22.7430  -13.6070   21.1190 C   0  0  0  0  0  0  0  0  0  0  0  0
  -22.0080  -12.9170   21.9840 N   0  0  0  0  0  0  0  0  0  0  0  0
  -22.3090  -14.6290   20.5890 O   0  0  0  0  0  0  0  0  0  0  0  0
  -22.3690  -12.0870   22.4320 H   0  0  0  0  0  0  0  0  0  0  0  0
  -21.0700  -13.2210   22.2010 H   0  0  0  0  0  0  0  0  0  0  0  0
  -25.3690  -15.2710   20.3070 N   0  0  0  0  0  0  0  0  0  0  0  0
  -24.5990  -15.9210   20.4160 H   0  0  0  0  0  0  0  0  0  0  0  0
  -26.2130  -15.7130   19.9650 H   0  0  0  0  0  0  0  0  0  0  0  0
  -28.6990  -23.8140   20.3070 C   0  0  0  0  0  3  0  0  0  0  0  0
  -28.2890  -25.0150   19.7130 C   0  0  0  0  0  3  0  0  0  0  0  0
  -28.2810  -26.3500   20.2480 O   0  0  0  0  0  0  0  0  0  0  0  0
  -24.6130  -31.8730   23.2320 C   0  0  0  0  0  0  0  0  0  0  0  0
  -27.1900  -27.2550   20.1480 C   0  0  0  0  0  0  0  0  0  0  0  0
  -23.3970  -30.4770   21.5990 C   0  0  0  0  0  3  0  0  0  0  0  0
  -24.8360  -28.9230   20.1500 C   0  0  0  0  0  0  0  0  0  0  0  0
  -25.9390  -30.7710   21.4050 C   0  0  0  0  0  2  0  0  0  0  0  0
  -26.0110  -29.3900   20.7500 C   0  0  0  0  0  0  0  0  0  0  0  0
  -27.1840  -28.5680   20.7410 C   0  0  0  0  0  3  0  0  0  0  0  0
  -25.9900  -26.8600   19.5150 C   0  0  0  0  0  3  0  0  0  0  0  0
  -24.8310  -27.6680   19.5210 C   0  0  0  0  0  3  0  0  0  0  0  0
  -23.6000  -29.8020   20.2160 C   0  0  0  0  0  2  0  0  0  0  0  0
  -24.6680  -31.0620   22.1340 N   0  0  0  0  0  0  0  0  0  0  0  0
  -23.5330  -32.1530   23.7740 O   0  0  0  0  0  0  0  0  0  0  0  0
  -22.7350  -29.4640   22.5630 C   0  0  0  0  0  0  0  0  0  0  0  0
  -21.4090  -29.2830   22.4370 N   0  0  0  0  0  0  0  0  0  0  0  0
  -23.4140  -28.8440   23.3840 O   0  0  0  0  0  0  0  0  0  0  0  0
  -20.9180  -29.8340   21.7460 H   0  0  0  0  0  0  0  0  0  0  0  0
  -18.0380  -28.0610   22.9320 C   0  0  0  0  0  0  0  0  0  0  0  0
  -20.5940  -28.3420   23.2100 C   0  0  0  0  0  3  0  0  0  0  0  0
  -20.7090  -26.9080   22.6450 C   0  0  0  0  0  2  0  0  0  0  0  0
  -19.6140  -26.5720   21.6270 C   0  0  0  0  0  2  0  0  0  0  0  0
  -18.2280  -26.7100   22.2630 C   0  0  0  0  0  2  0  0  0  0  0  0
  -19.1500  -28.8350   23.3610 C   0  0  0  0  0  0  0  0  0  0  0  0
  -18.9180  -30.1000   23.9440 C   0  0  0  0  0  3  0  0  0  0  0  0
  -17.6090  -30.5910   24.1020 C   0  0  0  0  0  3  0  0  0  0  0  0
  -16.5120  -29.8140   23.6900 C   0  0  0  0  0  3  0  0  0  0  0  0
  -16.7280  -28.5500   23.1110 C   0  0  0  0  0  3  0  0  0  0  0  0
  -25.8980  -32.5050   23.8480 C   0  0  0  0  0  3  0  0  0  0  0  0
  -26.4210  -31.7330   25.1210 C   0  0  1  0  0  0  0  0  0  0  0  0
  -25.3350  -31.4950   26.1960 C   0  0  0  0  0  1  0  0  0  0  0  0
  -26.9990  -30.3540   24.7260 C   0  0  0  0  0  1  0  0  0  0  0  0
  -27.5770  -32.5230   25.7760 C   0  0  0  0  0  1  0  0  0  0  0  0
  -25.5930  -33.9030   24.1870 N   0  0  0  0  0  0  0  0  0  0  0  0
  -25.9160  -34.9600   23.4280 C   0  0  0  0  0  0  0  0  0  0  0  0
  -26.5720  -34.8600   22.3890 O   0  0  0  0  0  0  0  0  0  0  0  0
  -25.0130  -34.0580   24.9980 H   0  0  0  0  0  0  0  0  0  0  0  0
  -24.1800  -36.7520   23.1070 C   0  0  0  0  0  1  0  0  0  0  0  0
  -25.4350  -36.3470   23.8980 C   0  0  0  0  0  3  0  0  0  0  0  0
  -27.5800  -37.2300   24.7010 C   0  0  0  0  0  1  0  0  0  0  0  0
  -26.4640  -37.4010   23.7740 N   0  0  0  0  0  0  0  0  0  0  0  0
  -26.0600  -38.3200   23.9310 H   0  0  0  0  0  0  0  0  0  0  0  0
  1  2  1  0
  1 50  1  0
  2  4  1  0
  3  1  2  0
  6  8  1  0
  7  9  2  0
  8  2  1  0
  8  5  2  0
  9  5  1  0
  9 20  1  0
 10  6  2  0
 10  7  1  0
 11 10  1  0
 12 20  1  0
 13 18  1  0
 14 15  1  0
 14 13  1  0
 16 15  1  0
 16 25  1  0
 16 17  1  0
 18 12  1  0
 18 17  1  0
 19 12  2  0
 20 21  1  0
 22 23  2  0
 23 42  1  0
 24 23  1  0
 24 27  1  0
 25 22  1  0
 25 26  1  0
 26 24  2  0
 27 28  1  0
 28 29  2  0
 30 33  1  0
 30 29  1  0
 31 30  2  0
 32 31  1  0
 32 27  2  0
 33 34  1  0
 34 35  1  0
 35 36  2  0
 37 36  1  0
 37 41  1  0
 38 37  2  0
 39 34  2  0
 39 38  1  0
 40 39  1  0
 42 43  1  0
 43 46  1  0
 43 45  1  0
 44 42  2  0
 47 48  1  0
 47 22  1  0
 49 47  1  0
 51 52  1  0
 51 50  2  0
 53 64  2  0
 54 52  1  0
 54 59  1  0
 55 63  1  0
 55 65  1  0
 56 62  1  0
 56 58  1  0
 57 63  1  0
 58 57  1  0
 59 58  2  0
 60 61  1  0
 60 54  2  0
 61 56  2  0
 62 55  1  0
 63 53  1  0
 65 67  2  0
 66 65  1  0
 68 66  1  0
 69 78  2  0
 69 74  1  0
 70 66  1  0
 70 74  1  0
 71 70  1  0
 72 73  1  0
 72 71  1  0
 73 69  1  0
 74 75  2  0
 75 76  1  0
 77 76  2  0
 78 77  1  0
 79 53  1  0
 79 84  1  0
 79 80  1  0
 80 83  1  1
 80 81  1  0
 82 80  1  0
 84 87  1  0
 85 89  1  0
 85 84  1  0
 86 85  2  0
 89 88  1  0
 91 89  1  0
 91 92  1  0
 91 90  1  0
M  ISO  4  12 100  20 100  51 101  52 101
M  END
>  <TORSDO>  (22) 
F 18

>  <SCORE>  (22) 
-14.632

>  <name>  (22) 
21

>  <ligand_id>  (22) 
21

>  <original_smiles>  (22) 
[H]C(Oc1c([H])c([H])c2c(c1[H])C([H])([H])N(C(=O)C([H])(N([H])C(=O)C([H])(N([H])C([H])([H])[H])C([H])([H])[H])C(C([H])([H])[H])(C([H])([H])[H])C([H])([H])[H])C([H])(C(=O)N([H])C1([H])c3c([H])c([H])c([H])c([H])c3C([H])([H])C([H])([H])C1([H])[H])C2([H])[H])=C([H])C(=O)N([H])c1c([H])c(F)c([H])c(N([H])C(=O)N2C([H])([H])C([H])([H])C([H])([H])C([H])(n3nc(-c4c([H])c([H])c(Oc5c([H])c([H])c(F)c([H])c5F)c([H])c4[H])c(C(=O)N([H])[H])c3N([H])[H])C2([H])[H])c1[H]

>  <smiles>  (22) 
[H]C(Oc1c([H])c([H])c2c(c1[H])C([H])([H])N(C(=O)C([H])(N([H])C(=O)C([H])(N([H])C([H])([H])[H])C([H])([H])[H])C(C([H])([H])[H])(C([H])([H])[H])C([H])([H])[H])C([H])(C(=O)N([H])C1([H])c3c([H])c([H])c([H])c([H])c3C([H])([H])C([H])([H])C1([H])[H])C2([H])[H])=C([H])C(=O)N([H])c1c([H])c(F)c([H])c(N([H])C(=O)N2C([H])([H])C([H])([H])C([H])([H])C([H])(n3nc(-c4c([H])c([H])c(Oc5c([H])c([H])c(F)c([H])c5F)c([H])c4[H])c(C(=O)N([H])[H])c3N([H])[H])C2([H])[H])c1[H]

$$$$
22:0:0
     RDKit          3D

 91 99  0  0  1  0  0  0  0  0999 V2000
  -28.8600  -22.5150   20.9250 C   0  0  0  0  0  0  0  0  0  0  0  0
  -29.0800  -21.3190   20.2280 N   0  0  0  0  0  0  0  0  0  0  0  0
  -28.7500  -22.4660   22.1510 O   0  0  0  0  0  0  0  0  0  0  0  0
  -28.9010  -21.3740   19.2350 H   0  0  0  0  0  0  0  0  0  0  0  0
  -31.6940  -19.0470   21.7930 C   0  0  0  0  0  3  0  0  0  0  0  0
  -30.9240  -20.1660   21.4190 C   0  0  0  0  0  3  0  0  0  0  0  0
  -31.3090  -17.7310   21.4660 C   0  0  0  0  0  3  0  0  0  0  0  0
  -29.3430  -18.6490   20.3650 C   0  0  0  0  0  3  0  0  0  0  0  0
  -29.7220  -20.0350   20.6880 C   0  0  0  0  0  0  0  0  0  0  0  0
  -30.1270  -17.4580   20.7410 C   0  0  0  0  0  0  0  0  0  0  0  0
  -30.5530  -14.8610   20.3460 C   0  0  0  0  0  0  0  0  0  0  0  0
  -30.3770  -12.5680   19.3210 C   0  0  0  0  0  2  0  0  0  0  0  0
  -29.4260  -12.5990   18.1040 C   0  0  0  0  0  2  0  0  0  0  0  0
  -27.9660  -12.3950   18.5520 C   0  0  0  0  0  2  0  0  0  0  0  0
  -27.5860  -13.2890   19.7630 C   0  0  0  0  0  3  0  0  0  0  0  0
  -28.6550  -13.2440   20.8750 C   0  0  0  0  0  2  0  0  0  0  0  0
  -29.9310  -13.6290   20.2600 N   0  0  0  0  0  0  0  0  0  0  0  0
  -31.7510  -14.9370   20.0520 O   0  0  0  0  0  0  0  0  0  0  0  0
  -29.7690  -16.0160   20.5000 N   0  0  0  0  0  0  0  0  0  0  0  0
  -28.7780  -15.8280   20.4810 H   0  0  0  0  0  0  0  0  0  0  0  0
  -25.2070  -13.8610   20.5240 C   0  0  0  0  0  0  0  0  0  0  0  0
  -24.1500  -13.0800   20.9030 C   0  0  0  0  0  0  0  0  0  0  0  0
  -24.6210  -11.7320   20.8610 C   0  0  0  0  0  0  0  0  0  0  0  0
  -26.2520  -12.9880   20.2690 N   0  0  0  0  0  0  0  0  0  0  0  0
  -25.9070  -11.7030   20.5370 N   0  0  0  0  0  0  0  0  0  0  0  0
  -23.9030  -10.4650   21.0500 C   0  0  0  0  0  0  0  0  0  0  0  0
  -24.3400   -9.4980   21.9810 C   0  0  0  0  0  3  0  0  0  0  0  0
  -23.6210   -8.2970   22.1590 C   0  0  0  0  0  3  0  0  0  0  0  0
  -22.4500   -8.0530   21.4040 C   0  0  0  0  0  0  0  0  0  0  0  0
  -22.0300   -9.0080   20.4620 C   0  0  0  0  0  3  0  0  0  0  0  0
  -22.7490  -10.2010   20.2810 C   0  0  0  0  0  3  0  0  0  0  0  0
  -21.7020   -6.9040   21.4910 O   0  0  0  0  0  0  0  0  0  0  0  0
  -21.6520   -6.1620   22.6440 C   0  0  0  0  0  0  0  0  0  0  0  0
  -21.2060   -6.7120   23.8650 C   0  0  0  0  0  3  0  0  0  0  0  0
  -21.1050   -5.8960   25.0100 C   0  0  0  0  0  3  0  0  0  0  0  0
  -21.4420   -4.5320   24.9340 C   0  0  0  0  0  0  0  0  0  0  0  0
  -21.8830   -3.9820   23.7180 C   0  0  0  0  0  3  0  0  0  0  0  0
  -21.9850   -4.7950   22.5750 C   0  0  0  0  0  0  0  0  0  0  0  0
  -22.3900   -4.2550   21.4000 F   0  0  0  0  0  0  0  0  0  0  0  0
  -21.3400   -3.7450   26.0300 F   0  0  0  0  0  0  0  0  0  0  0  0
  -22.7530  -13.5490   21.1880 C   0  0  0  0  0  0  0  0  0  0  0  0
  -22.0350  -12.8420   22.0550 N   0  0  0  0  0  0  0  0  0  0  0  0
  -22.3070  -14.5770   20.6790 O   0  0  0  0  0  0  0  0  0  0  0  0
  -22.4090  -12.0110   22.4880 H   0  0  0  0  0  0  0  0  0  0  0  0
  -21.0980  -13.1390   22.2880 H   0  0  0  0  0  0  0  0  0  0  0  0
  -25.3590  -15.2340   20.3490 N   0  0  0  0  0  0  0  0  0  0  0  0
  -24.5770  -15.8720   20.4490 H   0  0  0  0  0  0  0  0  0  0  0  0
  -26.1830  -15.6790   19.9690 H   0  0  0  0  0  0  0  0  0  0  0  0
  -28.7780  -23.8460   20.1870 C   0  0  0  0  0  3  0  0  0  0  0  0
  -28.2330  -25.0330   20.6990 C   0  0  0  0  0  3  0  0  0  0  0  0
  -28.3060  -26.3720   20.1780 O   0  0  0  0  0  0  0  0  0  0  0  0
  -24.6050  -31.9080   23.2360 C   0  0  0  0  0  0  0  0  0  0  0  0
  -27.2070  -27.2680   20.2210 C   0  0  0  0  0  0  0  0  0  0  0  0
  -23.4040  -30.5020   21.6020 C   0  0  0  0  0  3  0  0  0  0  0  0
  -24.8540  -28.9300   20.1890 C   0  0  0  0  0  0  0  0  0  0  0  0
  -25.9490  -30.7990   21.4230 C   0  0  0  0  0  2  0  0  0  0  0  0
  -26.0270  -29.4080   20.7880 C   0  0  0  0  0  0  0  0  0  0  0  0
  -27.2080  -28.5910   20.7900 C   0  0  0  0  0  3  0  0  0  0  0  0
  -26.0100  -26.8570   19.6020 C   0  0  0  0  0  3  0  0  0  0  0  0
  -24.8510  -27.6620   19.5850 C   0  0  0  0  0  3  0  0  0  0  0  0
  -23.6240  -29.8180   20.2260 C   0  0  0  0  0  2  0  0  0  0  0  0
  -24.6730  -31.0890   22.1440 N   0  0  0  0  0  0  0  0  0  0  0  0
  -23.5200  -32.1890   23.7670 O   0  0  0  0  0  0  0  0  0  0  0  0
  -22.7330  -29.4930   22.5670 C   0  0  0  0  0  0  0  0  0  0  0  0
  -21.4060  -29.3170   22.4390 N   0  0  0  0  0  0  0  0  0  0  0  0
  -23.4080  -28.8710   23.3920 O   0  0  0  0  0  0  0  0  0  0  0  0
  -20.9180  -29.8730   21.7510 H   0  0  0  0  0  0  0  0  0  0  0  0
  -18.0270  -28.1190   22.9380 C   0  0  0  0  0  0  0  0  0  0  0  0
  -20.5860  -28.3820   23.2120 C   0  0  0  0  0  3  0  0  0  0  0  0
  -20.6900  -26.9480   22.6430 C   0  0  0  0  0  2  0  0  0  0  0  0
  -19.5910  -26.6200   21.6290 C   0  0  0  0  0  2  0  0  0  0  0  0
  -18.2070  -26.7650   22.2700 C   0  0  0  0  0  2  0  0  0  0  0  0
  -19.1450  -28.8840   23.3670 C   0  0  0  0  0  0  0  0  0  0  0  0
  -18.9210  -30.1490   23.9520 C   0  0  0  0  0  3  0  0  0  0  0  0
  -17.6150  -30.6490   24.1140 C   0  0  0  0  0  3  0  0  0  0  0  0
  -16.5140  -29.8790   23.7020 C   0  0  0  0  0  3  0  0  0  0  0  0
  -16.7200  -28.6160   23.1190 C   0  0  0  0  0  3  0  0  0  0  0  0
  -25.8850  -32.5450   23.8590 C   0  0  0  0  0  3  0  0  0  0  0  0
  -26.3950  -31.7820   25.1430 C   0  0  1  0  0  0  0  0  0  0  0  0
  -25.2970  -31.5570   26.2090 C   0  0  0  0  0  1  0  0  0  0  0  0
  -26.9760  -30.4010   24.7640 C   0  0  0  0  0  1  0  0  0  0  0  0
  -27.5450  -32.5780   25.8020 C   0  0  0  0  0  1  0  0  0  0  0  0
  -25.5750  -33.9450   24.1810 N   0  0  0  0  0  0  0  0  0  0  0  0
  -25.9110  -34.9960   23.4210 C   0  0  0  0  0  0  0  0  0  0  0  0
  -26.5830  -34.8890   22.3920 O   0  0  0  0  0  0  0  0  0  0  0  0
  -24.9800  -34.1020   24.9810 H   0  0  0  0  0  0  0  0  0  0  0  0
  -24.1920  -36.7960   23.0520 C   0  0  0  0  0  1  0  0  0  0  0  0
  -25.4260  -36.3880   23.8730 C   0  0  0  0  0  3  0  0  0  0  0  0
  -27.5550  -37.2680   24.7230 C   0  0  0  0  0  1  0  0  0  0  0  0
  -26.4640  -37.4360   23.7660 N   0  0  0  0  0  0  0  0  0  0  0  0
  -26.0590  -38.3580   23.9060 H   0  0  0  0  0  0  0  0  0  0  0  0
  1  3  2  0
  2  9  1  0
  2  1  1  0
  4  2  1  0
  6  5  2  0
  7  5  1  0
  8  9  2  0
  8 10  1  0
  9  6  1  0
 10  7  2  0
 11 19  1  0
 12 17  1  0
 13 14  1  0
 13 12  1  0
 15 14  1  0
 15 24  1  0
 15 16  1  0
 17 11  1  0
 17 16  1  0
 18 11  2  0
 19 10  1  0
 20 19  1  0
 21 22  2  0
 22 41  1  0
 23 22  1  0
 23 26  1  0
 24 21  1  0
 24 25  1  0
 25 23  2  0
 26 27  1  0
 27 28  2  0
 29 32  1  0
 29 28  1  0
 30 29  2  0
 31 30  1  0
 31 26  2  0
 32 33  1  0
 33 34  1  0
 34 35  2  0
 36 35  1  0
 36 40  1  0
 37 36  2  0
 38 33  2  0
 38 37  1  0
 39 38  1  0
 41 42  1  0
 42 45  1  0
 42 44  1  0
 43 41  2  0
 46 47  1  0
 46 21  1  0
 48 46  1  0
 49 50  2  0
 49  1  1  0
 51 53  1  0
 51 50  1  0
 52 63  2  0
 53 58  1  0
 54 62  1  0
 54 64  1  0
 55 61  1  0
 55 57  1  0
 56 62  1  0
 57 58  2  0
 57 56  1  0
 59 53  2  0
 60 59  1  0
 60 55  2  0
 61 54  1  0
 62 52  1  0
 64 66  2  0
 65 64  1  0
 67 65  1  0
 68 77  2  0
 68 73  1  0
 69 65  1  0
 69 73  1  0
 70 69  1  0
 71 72  1  0
 71 70  1  0
 72 68  1  0
 73 74  2  0
 74 75  1  0
 76 75  2  0
 77 76  1  0
 78 52  1  0
 78 83  1  0
 78 79  1  0
 79 82  1  1
 79 80  1  0
 81 79  1  0
 83 86  1  0
 84 88  1  0
 84 83  1  0
 85 84  2  0
 88 87  1  0
 90 88  1  0
 90 91  1  0
 90 89  1  0
M  ISO  4  11 100  19 100  50 101  51 101
M  END
>  <TORSDO>  (23) 
F 18

>  <SCORE>  (23) 
-14.949

>  <name>  (23) 
22

>  <ligand_id>  (23) 
22

>  <original_smiles>  (23) 
[H]C(Oc1c([H])c([H])c2c(c1[H])C([H])([H])N(C(=O)C([H])(N([H])C(=O)C([H])(N([H])C([H])([H])[H])C([H])([H])[H])C(C([H])([H])[H])(C([H])([H])[H])C([H])([H])[H])C([H])(C(=O)N([H])C1([H])c3c([H])c([H])c([H])c([H])c3C([H])([H])C([H])([H])C1([H])[H])C2([H])[H])=C([H])C(=O)N([H])c1c([H])c([H])c([H])c(N([H])C(=O)N2C([H])([H])C([H])([H])C([H])([H])C([H])(n3nc(-c4c([H])c([H])c(Oc5c([H])c([H])c(F)c([H])c5F)c([H])c4[H])c(C(=O)N([H])[H])c3N([H])[H])C2([H])[H])c1[H]

>  <smiles>  (23) 
[H]C(Oc1c([H])c([H])c2c(c1[H])C([H])([H])N(C(=O)C([H])(N([H])C(=O)C([H])(N([H])C([H])([H])[H])C([H])([H])[H])C(C([H])([H])[H])(C([H])([H])[H])C([H])([H])[H])C([H])(C(=O)N([H])C1([H])c3c([H])c([H])c([H])c([H])c3C([H])([H])C([H])([H])C1([H])[H])C2([H])[H])=C([H])C(=O)N([H])c1c([H])c([H])c([H])c(N([H])C(=O)N2C([H])([H])C([H])([H])C([H])([H])C([H])(n3nc(-c4c([H])c([H])c(Oc5c([H])c([H])c(F)c([H])c5F)c([H])c4[H])c(C(=O)N([H])[H])c3N([H])[H])C2([H])[H])c1[H]

$$$$
23:0:0
     RDKit          3D

100109  0  0  1  0  0  0  0  0999 V2000
  -29.0430  -19.0470   19.5800 C   0  0  0  0  0  3  0  0  0  0  0  0
  -30.9780  -17.7260   21.1150 C   0  0  0  0  0  3  0  0  0  0  0  0
  -29.0700  -17.6310   19.6170 C   0  0  0  0  0  0  0  0  0  0  0  0
  -29.9680  -19.8280   20.3050 C   0  0  0  0  0  0  0  0  0  0  0  0
  -30.0250  -16.9470   20.4150 C   0  0  0  0  0  0  0  0  0  0  0  0
  -30.9740  -19.1520   21.0510 C   0  0  0  0  0  0  0  0  0  0  0  0
  -28.0430  -16.8790   18.7930 C   0  0  0  0  0  1  0  0  0  0  0  0
  -30.6660  -14.5200   20.1600 C   0  0  0  0  0  0  0  0  0  0  0  0
  -30.3670  -12.3330   19.0420 C   0  0  0  0  0  2  0  0  0  0  0  0
  -29.3740  -12.5280   17.8760 C   0  0  0  0  0  2  0  0  0  0  0  0
  -27.9170  -12.3820   18.3620 C   0  0  0  0  0  2  0  0  0  0  0  0
  -27.6270  -13.2090   19.6410 C   0  0  0  0  0  3  0  0  0  0  0  0
  -28.7290  -12.9920   20.7030 C   0  0  0  0  0  2  0  0  0  0  0  0
  -30.0260  -13.3160   20.0830 N   0  0  0  0  0  0  0  0  0  0  0  0
  -31.7930  -14.7060   19.6880 O   0  0  0  0  0  0  0  0  0  0  0  0
  -29.9120  -15.5300   20.6500 N   0  0  0  0  0  0  0  0  0  0  0  0
  -29.0110  -15.2230   20.9820 H   0  0  0  0  0  0  0  0  0  0  0  0
  -25.2660  -13.8340   20.4560 C   0  0  0  0  0  0  0  0  0  0  0  0
  -24.2030  -13.0690   20.8530 C   0  0  0  0  0  0  0  0  0  0  0  0
  -24.6480  -11.7140   20.7860 C   0  0  0  0  0  0  0  0  0  0  0  0
  -26.2910  -12.9450   20.1720 N   0  0  0  0  0  0  0  0  0  0  0  0
  -25.9240  -11.6630   20.4250 N   0  0  0  0  0  0  0  0  0  0  0  0
  -23.9160  -10.4570   20.9890 C   0  0  0  0  0  0  0  0  0  0  0  0
  -24.3710   -9.4790   21.9000 C   0  0  0  0  0  3  0  0  0  0  0  0
  -23.6410   -8.2860   22.0910 C   0  0  0  0  0  3  0  0  0  0  0  0
  -22.4430   -8.0650   21.3700 C   0  0  0  0  0  0  0  0  0  0  0  0
  -22.0080   -9.0330   20.4490 C   0  0  0  0  0  3  0  0  0  0  0  0
  -22.7380  -10.2160   20.2550 C   0  0  0  0  0  3  0  0  0  0  0  0
  -21.6820   -6.9260   21.4720 O   0  0  0  0  0  0  0  0  0  0  0  0
  -21.6460   -6.1850   22.6260 C   0  0  0  0  0  0  0  0  0  0  0  0
  -21.2290   -6.7400   23.8560 C   0  0  0  0  0  3  0  0  0  0  0  0
  -21.1410   -5.9240   25.0020 C   0  0  0  0  0  3  0  0  0  0  0  0
  -21.4600   -4.5550   24.9200 C   0  0  0  0  0  0  0  0  0  0  0  0
  -21.8710   -4.0000   23.6950 C   0  0  0  0  0  3  0  0  0  0  0  0
  -21.9610   -4.8130   22.5500 C   0  0  0  0  0  0  0  0  0  0  0  0
  -22.3380   -4.2700   21.3680 F   0  0  0  0  0  0  0  0  0  0  0  0
  -21.3680   -3.7710   26.0180 F   0  0  0  0  0  0  0  0  0  0  0  0
  -22.8240  -13.5590   21.1860 C   0  0  0  0  0  0  0  0  0  0  0  0
  -22.1160  -12.8540   22.0620 N   0  0  0  0  0  0  0  0  0  0  0  0
  -22.3830  -14.6010   20.7040 O   0  0  0  0  0  0  0  0  0  0  0  0
  -22.4840  -12.0120   22.4770 H   0  0  0  0  0  0  0  0  0  0  0  0
  -21.1910  -13.1670   22.3230 H   0  0  0  0  0  0  0  0  0  0  0  0
  -25.4330  -15.2050   20.3000 N   0  0  0  0  0  0  0  0  0  0  0  0
  -24.6760  -15.8600   20.4640 H   0  0  0  0  0  0  0  0  0  0  0  0
  -26.2800  -15.6540   19.9790 H   0  0  0  0  0  0  0  0  0  0  0  0
  -30.7320  -22.0240   19.5480 C   0  0  0  0  0  0  0  0  0  0  0  0
  -30.4490  -23.5210   19.2720 C   0  0  0  0  0  2  0  0  0  0  0  0
  -28.2250  -23.2380   20.4030 C   0  0  0  0  0  2  0  0  0  0  0  0
  -28.7370  -21.8970   20.9940 C   0  0  0  0  0  2  0  0  0  0  0  0
  -29.3640  -24.2340   20.1240 C   0  0  0  0  0  3  0  0  0  0  0  0
  -29.8500  -21.2690   20.2550 N   0  0  0  0  0  0  0  0  0  0  0  0
  -31.7650  -21.5460   19.0690 O   0  0  0  0  0  0  0  0  0  0  0  0
  -28.8830  -25.5580   19.4230 C   0  0  0  0  0  2  0  0  0  0  0  0
  -28.5420  -26.6490   20.3060 O   0  0  0  0  0  0  0  0  0  0  0  0
  -24.5770  -31.7690   23.2610 C   0  0  0  0  0  0  0  0  0  0  0  0
  -27.3570  -27.3670   20.2000 C   0  0  0  0  0  0  0  0  0  0  0  0
  -23.4430  -30.4040   21.5380 C   0  0  0  0  0  3  0  0  0  0  0  0
  -24.9580  -28.8980   20.1360 C   0  0  0  0  0  0  0  0  0  0  0  0
  -25.9760  -30.7600   21.4580 C   0  0  0  0  0  2  0  0  0  0  0  0
  -26.0890  -29.4010   20.7890 C   0  0  0  0  0  0  0  0  0  0  0  0
  -27.2830  -28.6420   20.8190 C   0  0  0  0  0  3  0  0  0  0  0  0
  -26.1980  -26.8810   19.5480 C   0  0  0  0  0  3  0  0  0  0  0  0
  -25.0100  -27.6390   19.5130 C   0  0  0  0  0  3  0  0  0  0  0  0
  -23.7120  -29.7570   20.1530 C   0  0  0  0  0  2  0  0  0  0  0  0
  -24.6810  -30.9930   22.1450 N   0  0  0  0  0  0  0  0  0  0  0  0
  -23.4740  -32.0300   23.7610 O   0  0  0  0  0  0  0  0  0  0  0  0
  -22.7520  -29.3630   22.4470 C   0  0  0  0  0  0  0  0  0  0  0  0
  -21.4290  -29.2050   22.2780 N   0  0  0  0  0  0  0  0  0  0  0  0
  -23.4040  -28.7030   23.2610 O   0  0  0  0  0  0  0  0  0  0  0  0
  -20.9660  -29.7900   21.5960 H   0  0  0  0  0  0  0  0  0  0  0  0
  -18.0220  -28.0630   22.6650 C   0  0  0  0  0  0  0  0  0  0  0  0
  -20.5780  -28.2540   22.9950 C   0  0  0  0  0  3  0  0  0  0  0  0
  -20.6630  -26.8460   22.3620 C   0  0  0  0  0  2  0  0  0  0  0  0
  -19.5740  -26.5900   21.3140 C   0  0  0  0  0  2  0  0  0  0  0  0
  -18.1840  -26.7380   21.9380 C   0  0  0  0  0  2  0  0  0  0  0  0
  -19.1470  -28.7830   23.1470 C   0  0  0  0  0  0  0  0  0  0  0  0
  -18.9440  -30.0250   23.7850 C   0  0  0  0  0  3  0  0  0  0  0  0
  -17.6470  -30.5470   23.9480 C   0  0  0  0  0  3  0  0  0  0  0  0
  -16.5350  -29.8230   23.4820 C   0  0  0  0  0  3  0  0  0  0  0  0
  -16.7240  -28.5820   22.8470 C   0  0  0  0  0  3  0  0  0  0  0  0
  -25.8350  -32.3850   23.9490 C   0  0  0  0  0  3  0  0  0  0  0  0
  -26.2610  -31.6220   25.2630 C   0  0  1  0  0  0  0  0  0  0  0  0
  -25.1040  -31.4210   26.2690 C   0  0  0  0  0  1  0  0  0  0  0  0
  -26.8370  -30.2280   24.9220 C   0  0  0  0  0  1  0  0  0  0  0  0
  -27.3880  -32.4030   25.9810 C   0  0  0  0  0  1  0  0  0  0  0  0
  -25.5340  -33.7930   24.2430 N   0  0  0  0  0  0  0  0  0  0  0  0
  -25.9040  -34.8270   23.4740 C   0  0  0  0  0  0  0  0  0  0  0  0
  -26.6040  -34.6930   22.4660 O   0  0  0  0  0  0  0  0  0  0  0  0
  -24.9170  -33.9710   25.0220 H   0  0  0  0  0  0  0  0  0  0  0  0
  -24.1990  -36.6230   23.0410 C   0  0  0  0  0  1  0  0  0  0  0  0
  -25.4190  -36.2290   23.8870 C   0  0  0  0  0  3  0  0  0  0  0  0
  -27.5410  -37.1220   24.7420 C   0  0  0  0  0  1  0  0  0  0  0  0
  -26.4630  -37.2710   23.7690 N   0  0  0  0  0  0  0  0  0  0  0  0
  -26.0600  -38.1970   23.8800 H   0  0  0  0  0  0  0  0  0  0  0  0
  -33.2530  -19.8140   21.7670 C   0  0  0  0  0  0  0  0  0  0  0  0
  -31.9160  -19.9260   21.7820 N   0  0  0  0  0  0  0  0  0  0  0  0
  -33.8620  -18.9400   21.1440 O   0  0  0  0  0  0  0  0  0  0  0  0
  -31.5550  -20.7400   22.2590 H   0  0  0  0  0  0  0  0  0  0  0  0
  -35.2110  -21.0170   22.5650 C   0  0  0  0  0  2  0  0  0  0  0  0
  -33.8760  -20.8520   22.5690 C   0  0  0  0  0  3  0  0  0  0  0  0
  1  3  2  0
  1  4  1  0
  3  5  1  0
  4  6  2  0
  5 16  1  0
  5  2  2  0
  6  2  1  0
  6 96  1  0
  7  3  1  0
  8 16  1  0
  9 14  1  0
 10 11  1  0
 10  9  1  0
 12 11  1  0
 12 21  1  0
 12 13  1  0
 14  8  1  0
 14 13  1  0
 15  8  2  0
 16 17  1  0
 18 19  2  0
 19 38  1  0
 20 19  1  0
 20 23  1  0
 21 22  1  0
 21 18  1  0
 22 20  2  0
 23 24  1  0
 24 25  2  0
 26 29  1  0
 26 25  1  0
 27 26  2  0
 28 27  1  0
 28 23  2  0
 29 30  1  0
 30 31  1  0
 31 32  2  0
 33 32  1  0
 33 37  1  0
 34 33  2  0
 35 30  2  0
 35 34  1  0
 36 35  1  0
 38 39  1  0
 39 42  1  0
 39 41  1  0
 40 38  2  0
 43 18  1  0
 43 44  1  0
 45 43  1  0
 46 51  1  0
 47 46  1  0
 47 50  1  0
 48 49  1  0
 50 53  1  0
 50 48  1  0
 51  4  1  0
 51 49  1  0
 52 46  2  0
 53 54  1  0
 55 66  2  0
 56 54  1  0
 56 61  1  0
 57 65  1  0
 57 67  1  0
 58 64  1  0
 58 60  1  0
 59 65  1  0
 60 61  2  0
 60 59  1  0
 62 56  2  0
 63 62  1  0
 63 58  2  0
 64 57  1  0
 65 55  1  0
 67 69  2  0
 68 67  1  0
 70 68  1  0
 71 80  2  0
 71 76  1  0
 72 68  1  0
 72 76  1  0
 73 72  1  0
 74 75  1  0
 74 73  1  0
 75 71  1  0
 76 77  2  0
 77 78  1  0
 79 78  2  0
 80 79  1  0
 81 55  1  0
 81 86  1  0
 81 82  1  0
 82 85  1  1
 82 83  1  0
 84 82  1  0
 86 89  1  0
 87 91  1  0
 87 86  1  0
 88 87  2  0
 91 90  1  0
 93 94  1  0
 93 91  1  0
 93 92  1  0
 95 96  1  0
 95100  1  0
 96 98  1  0
 97 95  2  0
 99100  2  0
M  ISO  4   8 100  16 100  53 101  54 101
M  END
>  <TORSDO>  (24) 
F 20

>  <SCORE>  (24) 
-14.747

>  <name>  (24) 
23

>  <ligand_id>  (24) 
23

>  <original_smiles>  (24) 
[H]C([H])=C([H])C(=O)N([H])c1c([H])c(N([H])C(=O)N2C([H])([H])C([H])([H])C([H])([H])C([H])(n3nc(-c4c([H])c([H])c(Oc5c([H])c([H])c(F)c([H])c5F)c([H])c4[H])c(C(=O)N([H])[H])c3N([H])[H])C2([H])[H])c(C([H])([H])[H])c([H])c1N1C(=O)C([H])([H])C([H])(C([H])([H])Oc2c([H])c([H])c3c(c2[H])C([H])([H])N(C(=O)C([H])(N([H])C(=O)C([H])(N([H])C([H])([H])[H])C([H])([H])[H])C(C([H])([H])[H])(C([H])([H])[H])C([H])([H])[H])C([H])(C(=O)N([H])C2([H])c4c([H])c([H])c([H])c([H])c4C([H])([H])C([H])([H])C2([H])[H])C3([H])[H])C([H])([H])C1([H])[H]

>  <smiles>  (24) 
[H]C([H])=C([H])C(=O)N([H])c1c([H])c(N([H])C(=O)N2C([H])([H])C([H])([H])C([H])([H])C([H])(n3nc(-c4c([H])c([H])c(Oc5c([H])c([H])c(F)c([H])c5F)c([H])c4[H])c(C(=O)N([H])[H])c3N([H])[H])C2([H])[H])c(C([H])([H])[H])c([H])c1N1C(=O)C([H])([H])C([H])(C([H])([H])Oc2c([H])c([H])c3c(c2[H])C([H])([H])N(C(=O)C([H])(N([H])C(=O)C([H])(N([H])C([H])([H])[H])C([H])([H])[H])C(C([H])([H])[H])(C([H])([H])[H])C([H])([H])[H])C([H])(C(=O)N([H])C2([H])c4c([H])c([H])c([H])c([H])c4C([H])([H])C([H])([H])C2([H])[H])C3([H])[H])C([H])([H])C1([H])[H]

$$$$
24:0:0
     RDKit          3D

 93102  0  0  1  0  0  0  0  0999 V2000
  -28.0180  -22.2180   19.1230 C   0  0  0  0  0  0  0  0  0  0  0  0
  -29.0320  -23.3000   20.8130 C   0  0  0  0  0  2  0  0  0  0  0  0
  -27.6650  -23.7500   18.9680 C   0  0  0  0  0  3  0  0  0  0  0  0
  -28.0040  -24.4960   20.2910 C   0  0  0  0  0  3  0  0  0  0  0  0
  -28.4060  -24.3550   17.7610 C   0  0  0  0  0  1  0  0  0  0  0  0
  -28.7590  -21.8810   20.2100 N   0  0  0  0  0  0  0  0  0  0  0  0
  -27.6330  -21.4110   18.2730 O   0  0  0  0  0  0  0  0  0  0  0  0
  -31.7070  -19.5580   21.0800 C   0  0  0  0  0  3  0  0  0  0  0  0
  -30.8410  -20.6550   20.8760 C   0  0  0  0  0  3  0  0  0  0  0  0
  -31.3140  -18.2130   20.8990 C   0  0  0  0  0  3  0  0  0  0  0  0
  -29.1100  -19.0500   20.3020 C   0  0  0  0  0  0  0  0  0  0  0  0
  -29.5020  -20.5110   20.4480 C   0  0  0  0  0  0  0  0  0  0  0  0
  -30.0070  -17.8450   20.5160 C   0  0  0  0  0  0  0  0  0  0  0  0
  -27.6740  -18.7440   19.9270 C   0  0  0  0  0  1  0  0  0  0  0  0
  -30.4860  -15.0920   20.3780 C   0  0  0  0  0  0  0  0  0  0  0  0
  -30.4080  -12.7050   19.4650 C   0  0  0  0  0  2  0  0  0  0  0  0
  -29.4830  -12.5910   18.2290 C   0  0  0  0  0  2  0  0  0  0  0  0
  -28.0250  -12.3520   18.6610 C   0  0  0  0  0  2  0  0  0  0  0  0
  -27.5900  -13.2960   19.8130 C   0  0  0  0  0  3  0  0  0  0  0  0
  -28.6410  -13.3740   20.9410 C   0  0  0  0  0  2  0  0  0  0  0  0
  -29.8950  -13.8200   20.3200 N   0  0  0  0  0  0  0  0  0  0  0  0
  -31.7020  -15.1170   20.1540 O   0  0  0  0  0  0  0  0  0  0  0  0
  -29.7030  -16.3100   20.4370 N   0  0  0  0  0  0  0  0  0  0  0  0
  -28.7170  -16.1010   20.4390 H   0  0  0  0  0  0  0  0  0  0  0  0
  -25.2070  -13.8510   20.5500 C   0  0  0  0  0  0  0  0  0  0  0  0
  -24.1470  -13.0680   20.9140 C   0  0  0  0  0  0  0  0  0  0  0  0
  -24.6210  -11.7220   20.8840 C   0  0  0  0  0  0  0  0  0  0  0  0
  -26.2570  -12.9810   20.3130 N   0  0  0  0  0  0  0  0  0  0  0  0
  -25.9150  -11.6940   20.5810 N   0  0  0  0  0  0  0  0  0  0  0  0
  -23.9010  -10.4540   21.0690 C   0  0  0  0  0  0  0  0  0  0  0  0
  -24.3380   -9.4820   21.9970 C   0  0  0  0  0  3  0  0  0  0  0  0
  -23.6150   -8.2820   22.1710 C   0  0  0  0  0  3  0  0  0  0  0  0
  -22.4420   -8.0450   21.4160 C   0  0  0  0  0  0  0  0  0  0  0  0
  -22.0240   -9.0050   20.4770 C   0  0  0  0  0  3  0  0  0  0  0  0
  -22.7470  -10.1960   20.3020 C   0  0  0  0  0  3  0  0  0  0  0  0
  -21.6920   -6.8970   21.4980 O   0  0  0  0  0  0  0  0  0  0  0  0
  -21.6500   -6.1450   22.6440 C   0  0  0  0  0  0  0  0  0  0  0  0
  -21.2160   -6.6850   23.8750 C   0  0  0  0  0  3  0  0  0  0  0  0
  -21.1230   -5.8590   25.0130 C   0  0  0  0  0  3  0  0  0  0  0  0
  -21.4550   -4.4940   24.9220 C   0  0  0  0  0  0  0  0  0  0  0  0
  -21.8820   -3.9530   23.6970 C   0  0  0  0  0  3  0  0  0  0  0  0
  -21.9770   -4.7760   22.5610 C   0  0  0  0  0  0  0  0  0  0  0  0
  -22.3690   -4.2450   21.3790 F   0  0  0  0  0  0  0  0  0  0  0  0
  -21.3570   -3.6980   26.0140 F   0  0  0  0  0  0  0  0  0  0  0  0
  -22.7460  -13.5370   21.1730 C   0  0  0  0  0  0  0  0  0  0  0  0
  -22.0160  -12.8410   22.0370 N   0  0  0  0  0  0  0  0  0  0  0  0
  -22.3050  -14.5570   20.6440 O   0  0  0  0  0  0  0  0  0  0  0  0
  -22.3850  -12.0180   22.4890 H   0  0  0  0  0  0  0  0  0  0  0  0
  -21.0760  -13.1390   22.2540 H   0  0  0  0  0  0  0  0  0  0  0  0
  -25.3580  -15.2230   20.3700 N   0  0  0  0  0  0  0  0  0  0  0  0
  -24.5720  -15.8590   20.4550 H   0  0  0  0  0  0  0  0  0  0  0  0
  -26.1820  -15.6630   19.9860 H   0  0  0  0  0  0  0  0  0  0  0  0
  -28.2200  -26.0800   20.2930 O   0  0  0  0  0  0  0  0  0  0  0  0
  -24.6210  -31.8830   23.2540 C   0  0  0  0  0  0  0  0  0  0  0  0
  -27.1690  -27.0920   20.2430 C   0  0  0  0  0  0  0  0  0  0  0  0
  -23.4150  -30.4850   21.6240 C   0  0  0  0  0  3  0  0  0  0  0  0
  -24.8540  -28.8890   20.2040 C   0  0  0  0  0  0  0  0  0  0  0  0
  -25.9740  -30.7230   21.4580 C   0  0  0  0  0  2  0  0  0  0  0  0
  -26.0400  -29.3220   20.8110 C   0  0  0  0  0  0  0  0  0  0  0  0
  -27.1970  -28.4420   20.8070 C   0  0  0  0  0  3  0  0  0  0  0  0
  -25.9530  -26.7760   19.6010 C   0  0  0  0  0  3  0  0  0  0  0  0
  -24.8280  -27.6310   19.5820 C   0  0  0  0  0  3  0  0  0  0  0  0
  -23.6340  -29.7990   20.2480 C   0  0  0  0  0  2  0  0  0  0  0  0
  -24.6910  -31.0540   22.1660 N   0  0  0  0  0  0  0  0  0  0  0  0
  -23.5360  -32.1740   23.7800 O   0  0  0  0  0  0  0  0  0  0  0  0
  -22.7290  -29.4880   22.5920 C   0  0  0  0  0  0  0  0  0  0  0  0
  -21.4000  -29.3200   22.4650 N   0  0  0  0  0  0  0  0  0  0  0  0
  -23.3970  -28.8660   23.4230 O   0  0  0  0  0  0  0  0  0  0  0  0
  -20.9160  -29.8730   21.7710 H   0  0  0  0  0  0  0  0  0  0  0  0
  -18.0170  -28.1190   22.9690 C   0  0  0  0  0  0  0  0  0  0  0  0
  -20.5760  -28.3880   23.2420 C   0  0  0  0  0  3  0  0  0  0  0  0
  -20.6810  -26.9510   22.6800 C   0  0  0  0  0  2  0  0  0  0  0  0
  -19.5840  -26.6180   21.6640 C   0  0  0  0  0  2  0  0  0  0  0  0
  -18.1990  -26.7650   22.3020 C   0  0  0  0  0  2  0  0  0  0  0  0
  -19.1330  -28.8870   23.3960 C   0  0  0  0  0  0  0  0  0  0  0  0
  -18.9080  -30.1530   23.9800 C   0  0  0  0  0  3  0  0  0  0  0  0
  -17.6010  -30.6490   24.1410 C   0  0  0  0  0  3  0  0  0  0  0  0
  -16.5000  -29.8780   23.7300 C   0  0  0  0  0  3  0  0  0  0  0  0
  -16.7100  -28.6140   23.1500 C   0  0  0  0  0  3  0  0  0  0  0  0
  -25.8990  -32.5180   23.8790 C   0  0  0  0  0  3  0  0  0  0  0  0
  -25.5910  -33.9210   24.2050 N   0  0  0  0  0  0  0  0  0  0  0  0
  -25.9140  -34.9740   23.4400 C   0  0  0  0  0  0  0  0  0  0  0  0
  -26.5680  -34.8650   22.4000 O   0  0  0  0  0  0  0  0  0  0  0  0
  -25.0090  -34.0780   25.0130 H   0  0  0  0  0  0  0  0  0  0  0  0
  -24.1780  -36.7690   23.1210 C   0  0  0  0  0  1  0  0  0  0  0  0
  -25.4400  -36.3660   23.9030 C   0  0  0  0  0  3  0  0  0  0  0  0
  -27.5930  -37.2600   24.6770 C   0  0  0  0  0  1  0  0  0  0  0  0
  -26.4700  -37.4190   23.7570 N   0  0  0  0  0  0  0  0  0  0  0  0
  -26.0670  -38.3400   23.9040 H   0  0  0  0  0  0  0  0  0  0  0  0
  -26.4040  -31.7570   25.1670 C   0  0  1  0  0  0  0  0  0  0  0  0
  -25.3040  -31.5390   26.2330 C   0  0  0  0  0  1  0  0  0  0  0  0
  -26.9800  -30.3720   24.7980 C   0  0  0  0  0  1  0  0  0  0  0  0
  -27.5570  -32.5510   25.8270 C   0  0  0  0  0  1  0  0  0  0  0  0
  1  6  1  0
  3  5  1  0
  3  1  1  0
  3  4  1  0
  4 53  1  0
  4  2  1  0
  6 12  1  0
  6  2  1  0
  7  1  2  0
  9  8  2  0
 10  8  1  0
 11 12  2  0
 11 13  1  0
 12  9  1  0
 13 10  2  0
 14 11  1  0
 15 23  1  0
 16 21  1  0
 17 18  1  0
 17 16  1  0
 19 18  1  0
 19 28  1  0
 19 20  1  0
 21 15  1  0
 21 20  1  0
 22 15  2  0
 23 24  1  0
 23 13  1  0
 25 26  2  0
 26 45  1  0
 27 26  1  0
 27 30  1  0
 28 25  1  0
 28 29  1  0
 29 27  2  0
 30 31  1  0
 31 32  2  0
 33 36  1  0
 33 32  1  0
 34 33  2  0
 35 34  1  0
 35 30  2  0
 36 37  1  0
 37 38  1  0
 38 39  2  0
 40 39  1  0
 40 44  1  0
 41 40  2  0
 42 37  2  0
 42 41  1  0
 43 42  1  0
 45 46  1  0
 46 49  1  0
 46 48  1  0
 47 45  2  0
 50 51  1  0
 50 25  1  0
 52 50  1  0
 54 65  2  0
 55 53  1  0
 55 60  1  0
 56 64  1  0
 56 66  1  0
 57 63  1  0
 57 59  1  0
 58 64  1  0
 59 58  1  0
 60 59  2  0
 61 55  2  0
 62 61  1  0
 62 57  2  0
 63 56  1  0
 64 54  1  0
 66 68  2  0
 67 66  1  0
 69 67  1  0
 70 79  2  0
 70 75  1  0
 71 67  1  0
 71 75  1  0
 72 71  1  0
 73 74  1  0
 73 72  1  0
 74 70  1  0
 75 76  2  0
 76 77  1  0
 78 77  2  0
 79 78  1  0
 80 54  1  0
 80 81  1  0
 80 90  1  0
 81 84  1  0
 82 86  1  0
 82 81  1  0
 83 82  2  0
 86 85  1  0
 88 86  1  0
 88 89  1  0
 88 87  1  0
 90 93  1  1
 90 91  1  0
 92 90  1  0
M  ISO  4   4 101  15 100  23 100  53 101
M  END
>  <TORSDO>  (25) 
F 17

>  <SCORE>  (25) 
-15.463

>  <name>  (25) 
24

>  <ligand_id>  (25) 
24

>  <original_smiles>  (25) 
[H]c1c([H])c(N([H])C(=O)N2C([H])([H])C([H])([H])C([H])([H])C([H])(n3nc(-c4c([H])c([H])c(Oc5c([H])c([H])c(F)c([H])c5F)c([H])c4[H])c(C(=O)N([H])[H])c3N([H])[H])C2([H])[H])c(C([H])([H])[H])c(N2C(=O)C([H])(C([H])([H])[H])C([H])(Oc3c([H])c([H])c4c(c3[H])C([H])([H])N(C(=O)C([H])(N([H])C(=O)C([H])(N([H])C([H])([H])[H])C([H])([H])[H])C(C([H])([H])[H])(C([H])([H])[H])C([H])([H])[H])C([H])(C(=O)N([H])C3([H])c5c([H])c([H])c([H])c([H])c5C([H])([H])C([H])([H])C3([H])[H])C4([H])[H])C2([H])[H])c1[H]

>  <smiles>  (25) 
[H]c1c([H])c(N([H])C(=O)N2C([H])([H])C([H])([H])C([H])([H])C([H])(n3nc(-c4c([H])c([H])c(Oc5c([H])c([H])c(F)c([H])c5F)c([H])c4[H])c(C(=O)N([H])[H])c3N([H])[H])C2([H])[H])c(C([H])([H])[H])c(N2C(=O)C([H])(C([H])([H])[H])C([H])(Oc3c([H])c([H])c4c(c3[H])C([H])([H])N(C(=O)C([H])(N([H])C(=O)C([H])(N([H])C([H])([H])[H])C([H])([H])[H])C(C([H])([H])[H])(C([H])([H])[H])C([H])([H])[H])C([H])(C(=O)N([H])C3([H])c5c([H])c([H])c([H])c([H])c5C([H])([H])C([H])([H])C3([H])[H])C4([H])[H])C2([H])[H])c1[H]

$$$$
25:0:0
     RDKit          3D

 92100  0  0  1  0  0  0  0  0999 V2000
  -29.4470  -21.3340   20.4050 C   0  0  0  0  0  0  0  0  0  0  0  0
  -29.2390  -19.9190   20.3770 N   0  0  0  0  0  0  0  0  0  0  0  0
  -30.5400  -21.7610   20.7910 O   0  0  0  0  0  0  0  0  0  0  0  0
  -28.4610  -19.5910   19.8180 H   0  0  0  0  0  0  0  0  0  0  0  0
  -31.0550  -18.8660   23.4930 C   0  0  0  0  0  3  0  0  0  0  0  0
  -31.3890  -17.5270   23.3700 C   0  0  0  0  0  3  0  0  0  0  0  0
  -30.3270  -19.4840   22.4740 C   0  0  0  0  0  3  0  0  0  0  0  0
  -30.9360  -16.8130   22.2600 C   0  0  0  0  0  3  0  0  0  0  0  0
  -29.9080  -18.8640   21.2540 C   0  0  0  0  0  0  0  0  0  0  0  0
  -30.1720  -17.3650   21.1830 C   0  0  0  0  0  0  0  0  0  0  0  0
  -30.4190  -15.0190   19.9940 C   0  0  0  0  0  0  0  0  0  0  0  0
  -30.2070  -12.7330   18.9330 C   0  0  0  0  0  2  0  0  0  0  0  0
  -29.1860  -12.7210   17.7760 C   0  0  0  0  0  2  0  0  0  0  0  0
  -27.7660  -12.4690   18.3140 C   0  0  0  0  0  2  0  0  0  0  0  0
  -27.4330  -13.3440   19.5520 C   0  0  0  0  0  3  0  0  0  0  0  0
  -28.5730  -13.3470   20.5920 C   0  0  0  0  0  2  0  0  0  0  0  0
  -29.7820  -13.7900   19.8900 N   0  0  0  0  0  0  0  0  0  0  0  0
  -31.5950  -15.0790   19.6200 O   0  0  0  0  0  0  0  0  0  0  0  0
  -29.7250  -16.2220   20.2980 N   0  0  0  0  0  0  0  0  0  0  0  0
  -28.7260  -16.1710   20.1650 H   0  0  0  0  0  0  0  0  0  0  0  0
  -25.1120  -13.8350   20.5090 C   0  0  0  0  0  0  0  0  0  0  0  0
  -24.0930  -13.0200   20.9170 C   0  0  0  0  0  0  0  0  0  0  0  0
  -24.5760  -11.6830   20.7780 C   0  0  0  0  0  0  0  0  0  0  0  0
  -26.1470  -12.9930   20.1410 N   0  0  0  0  0  0  0  0  0  0  0  0
  -25.8390  -11.6890   20.3680 N   0  0  0  0  0  0  0  0  0  0  0  0
  -23.8870  -10.3970   20.9530 C   0  0  0  0  0  0  0  0  0  0  0  0
  -24.3330   -9.4410   21.8920 C   0  0  0  0  0  3  0  0  0  0  0  0
  -23.6400   -8.2220   22.0570 C   0  0  0  0  0  3  0  0  0  0  0  0
  -22.4870   -7.9510   21.2820 C   0  0  0  0  0  0  0  0  0  0  0  0
  -22.0610   -8.8970   20.3330 C   0  0  0  0  0  3  0  0  0  0  0  0
  -22.7540  -10.1060   20.1670 C   0  0  0  0  0  3  0  0  0  0  0  0
  -21.7650   -6.7840   21.3550 O   0  0  0  0  0  0  0  0  0  0  0  0
  -21.6550   -6.0790   22.5270 C   0  0  0  0  0  0  0  0  0  0  0  0
  -21.0720   -6.6420   23.6830 C   0  0  0  0  0  3  0  0  0  0  0  0
  -20.9140   -5.8600   24.8460 C   0  0  0  0  0  3  0  0  0  0  0  0
  -21.3290   -4.5150   24.8510 C   0  0  0  0  0  0  0  0  0  0  0  0
  -21.9050   -3.9510   23.6990 C   0  0  0  0  0  3  0  0  0  0  0  0
  -22.0640   -4.7300   22.5390 C   0  0  0  0  0  0  0  0  0  0  0  0
  -22.5990   -4.1750   21.4250 F   0  0  0  0  0  0  0  0  0  0  0  0
  -21.1710   -3.7610   25.9640 F   0  0  0  0  0  0  0  0  0  0  0  0
  -22.7130  -13.4540   21.3170 C   0  0  0  0  0  0  0  0  0  0  0  0
  -22.0690  -12.7050   22.2060 N   0  0  0  0  0  0  0  0  0  0  0  0
  -22.2190  -14.4910   20.8800 O   0  0  0  0  0  0  0  0  0  0  0  0
  -22.4850  -11.8660   22.5810 H   0  0  0  0  0  0  0  0  0  0  0  0
  -21.1470  -12.9770   22.5160 H   0  0  0  0  0  0  0  0  0  0  0  0
  -25.2360  -15.2170   20.3920 N   0  0  0  0  0  0  0  0  0  0  0  0
  -24.4650  -15.8440   20.5940 H   0  0  0  0  0  0  0  0  0  0  0  0
  -26.0390  -15.6920   20.0010 H   0  0  0  0  0  0  0  0  0  0  0  0
  -28.3120  -23.6920   20.1550 C   0  0  0  0  0  0  0  0  0  0  0  0
  -28.4100  -22.3400   19.9040 C   0  0  0  0  0  3  0  0  0  0  0  0
  -27.8780  -24.9570   20.4760 C   0  0  0  0  0  3  0  0  0  0  0  0
  -28.1340  -26.3380   20.0950 O   0  0  0  0  0  0  0  0  0  0  0  0
  -24.5320  -31.9640   23.1960 C   0  0  0  0  0  0  0  0  0  0  0  0
  -27.0780  -27.3050   20.1100 C   0  0  0  0  0  0  0  0  0  0  0  0
  -23.3100  -30.5720   21.5680 C   0  0  0  0  0  3  0  0  0  0  0  0
  -24.7420  -29.0110   20.1180 C   0  0  0  0  0  0  0  0  0  0  0  0
  -25.8570  -30.8570   21.3640 C   0  0  0  0  0  2  0  0  0  0  0  0
  -25.9270  -29.4690   20.7110 C   0  0  0  0  0  0  0  0  0  0  0  0
  -27.0990  -28.6300   20.6910 C   0  0  0  0  0  3  0  0  0  0  0  0
  -25.8710  -26.9370   19.4830 C   0  0  0  0  0  3  0  0  0  0  0  0
  -24.7220  -27.7560   19.4910 C   0  0  0  0  0  3  0  0  0  0  0  0
  -23.5110  -29.9010   20.1840 C   0  0  0  0  0  2  0  0  0  0  0  0
  -24.5870  -31.1520   22.0970 N   0  0  0  0  0  0  0  0  0  0  0  0
  -23.4530  -32.2430   23.7420 O   0  0  0  0  0  0  0  0  0  0  0  0
  -22.6510  -29.5580   22.5360 C   0  0  0  0  0  0  0  0  0  0  0  0
  -21.3250  -29.3680   22.4120 N   0  0  0  0  0  0  0  0  0  0  0  0
  -23.3340  -28.9440   23.3600 O   0  0  0  0  0  0  0  0  0  0  0  0
  -20.8300  -29.9150   21.7220 H   0  0  0  0  0  0  0  0  0  0  0  0
  -17.9580  -28.1420   22.9420 C   0  0  0  0  0  0  0  0  0  0  0  0
  -20.5170  -28.4230   23.1900 C   0  0  0  0  0  3  0  0  0  0  0  0
  -20.6260  -26.9920   22.6130 C   0  0  0  0  0  2  0  0  0  0  0  0
  -19.5180  -26.6620   21.6070 C   0  0  0  0  0  2  0  0  0  0  0  0
  -18.1400  -26.7950   22.2630 C   0  0  0  0  0  2  0  0  0  0  0  0
  -19.0750  -28.9130   23.3630 C   0  0  0  0  0  0  0  0  0  0  0  0
  -18.8490  -30.1730   23.9600 C   0  0  0  0  0  3  0  0  0  0  0  0
  -17.5420  -30.6610   24.1400 C   0  0  0  0  0  3  0  0  0  0  0  0
  -16.4400  -29.8870   23.7330 C   0  0  0  0  0  3  0  0  0  0  0  0
  -16.6500  -28.6290   23.1400 C   0  0  0  0  0  3  0  0  0  0  0  0
  -25.8190  -32.5990   23.8060 C   0  0  0  0  0  3  0  0  0  0  0  0
  -26.3460  -31.8290   25.0780 C   0  0  1  0  0  0  0  0  0  0  0  0
  -25.2570  -31.5670   26.1450 C   0  0  0  0  0  1  0  0  0  0  0  0
  -26.9510  -30.4620   24.6820 C   0  0  0  0  0  1  0  0  0  0  0  0
  -27.4840  -32.6370   25.7440 C   0  0  0  0  0  1  0  0  0  0  0  0
  -25.5110  -33.9980   24.1440 N   0  0  0  0  0  0  0  0  0  0  0  0
  -25.8350  -35.0560   23.3890 C   0  0  0  0  0  0  0  0  0  0  0  0
  -26.4930  -34.9570   22.3500 O   0  0  0  0  0  0  0  0  0  0  0  0
  -24.9240  -34.1480   24.9510 H   0  0  0  0  0  0  0  0  0  0  0  0
  -24.1160  -36.8630   23.0540 C   0  0  0  0  0  1  0  0  0  0  0  0
  -25.3570  -36.4420   23.8600 C   0  0  0  0  0  3  0  0  0  0  0  0
  -27.4900  -37.3180   24.7060 C   0  0  0  0  0  1  0  0  0  0  0  0
  -26.3940  -37.4920   23.7550 N   0  0  0  0  0  0  0  0  0  0  0  0
  -25.9910  -38.4130   23.8990 H   0  0  0  0  0  0  0  0  0  0  0  0
  1  3  2  0
  2  1  1  0
  2  9  1  0
  4  2  1  0
  6  5  1  0
  7  5  2  0
  8  6  2  0
  9  7  1  0
 10  9  2  0
 10  8  1  0
 11 19  1  0
 12 17  1  0
 13 14  1  0
 13 12  1  0
 15 14  1  0
 15 24  1  0
 15 16  1  0
 17 11  1  0
 17 16  1  0
 18 11  2  0
 19 10  1  0
 20 19  1  0
 21 22  2  0
 22 41  1  0
 23 22  1  0
 23 26  1  0
 24 25  1  0
 24 21  1  0
 25 23  2  0
 26 27  1  0
 27 28  2  0
 29 32  1  0
 29 28  1  0
 30 29  2  0
 31 30  1  0
 31 26  2  0
 32 33  1  0
 33 38  2  0
 33 34  1  0
 34 35  2  0
 35 36  1  0
 36 40  1  0
 37 36  2  0
 38 37  1  0
 39 38  1  0
 41 42  1  0
 42 45  1  0
 42 44  1  0
 43 41  2  0
 46 21  1  0
 46 47  1  0
 48 46  1  0
 49 51  2  0
 50 49  2  0
 50  1  1  0
 52 54  1  0
 52 51  1  0
 53 64  2  0
 54 59  1  0
 55 63  1  0
 55 65  1  0
 56 62  1  0
 56 58  1  0
 57 63  1  0
 58 57  1  0
 59 58  2  0
 60 61  1  0
 60 54  2  0
 61 56  2  0
 62 55  1  0
 63 53  1  0
 65 67  2  0
 66 65  1  0
 68 66  1  0
 69 78  2  0
 69 74  1  0
 70 66  1  0
 70 74  1  0
 71 70  1  0
 72 73  1  0
 72 71  1  0
 73 69  1  0
 74 75  2  0
 75 76  1  0
 77 76  2  0
 78 77  1  0
 79 53  1  0
 79 84  1  0
 79 80  1  0
 80 83  1  1
 80 81  1  0
 82 80  1  0
 84 87  1  0
 85 89  1  0
 85 84  1  0
 86 85  2  0
 89 88  1  0
 91 89  1  0
 91 92  1  0
 91 90  1  0
M  ISO  4  11 100  19 100  51 101  52 101
M  END
>  <TORSDO>  (26) 
F 18

>  <SCORE>  (26) 
-12.718

>  <name>  (26) 
25

>  <ligand_id>  (26) 
25

>  <original_smiles>  (26) 
[H]C(=C=C([H])C(=O)N([H])c1c([H])c([H])c([H])c([H])c1N([H])C(=O)N1C([H])([H])C([H])([H])C([H])([H])C([H])(n2nc(-c3c([H])c([H])c(Oc4c([H])c([H])c(F)c([H])c4F)c([H])c3[H])c(C(=O)N([H])[H])c2N([H])[H])C1([H])[H])Oc1c([H])c([H])c2c(c1[H])C([H])([H])N(C(=O)C([H])(N([H])C(=O)C([H])(N([H])C([H])([H])[H])C([H])([H])[H])C(C([H])([H])[H])(C([H])([H])[H])C([H])([H])[H])C([H])(C(=O)N([H])C1([H])c3c([H])c([H])c([H])c([H])c3C([H])([H])C([H])([H])C1([H])[H])C2([H])[H]

>  <smiles>  (26) 
[H]C(=C=C([H])C(=O)N([H])c1c([H])c([H])c([H])c([H])c1N([H])C(=O)N1C([H])([H])C([H])([H])C([H])([H])C([H])(n2nc(-c3c([H])c([H])c(Oc4c([H])c([H])c(F)c([H])c4F)c([H])c3[H])c(C(=O)N([H])[H])c2N([H])[H])C1([H])[H])Oc1c([H])c([H])c2c(c1[H])C([H])([H])N(C(=O)C([H])(N([H])C(=O)C([H])(N([H])C([H])([H])[H])C([H])([H])[H])C(C([H])([H])[H])(C([H])([H])[H])C([H])([H])[H])C([H])(C(=O)N([H])C1([H])c3c([H])c([H])c([H])c([H])c3C([H])([H])C([H])([H])C1([H])[H])C2([H])[H]

$$$$
26:0:0
     RDKit          3D

 97 96  0  0  1  0  0  0  0  0999 V2000
  -28.1800  -27.4440   17.9540 C   0  0  0  0  0  0  0  0  0  0  0  0
  -28.9070  -26.9690   16.6240 C   0  0  0  0  0  2  0  0  0  0  0  0
  -28.2660  -25.7840   15.7880 C   0  0  0  0  0  2  0  0  0  0  0  0
  -26.2240  -26.6410   16.9670 C   0  0  0  0  0  2  0  0  0  0  0  0
  -26.9550  -25.3730   16.4520 C   0  0  0  0  0  3  0  0  0  0  0  0
  -26.8920  -27.0400   18.2250 N   0  0  0  0  0  0  0  0  0  0  0  0
  -28.8060  -28.2100   18.6990 O   0  0  0  0  0  0  0  0  0  0  0  0
  -28.4020  -25.4760   20.3880 C   0  0  0  0  0 15  0  0  0  0  0  0
  -24.6890  -24.6380   19.5050 C   0  0  0  0  0  2  0  0  0  0  0  0
  -27.2400  -21.7590   20.8270 C   0  0  0  0  0 15  0  0  0  0  0  0
  -28.6400  -23.3560   21.1500 C   0  0  0  0  0  1  0  0  0  0  0  0
  -26.5430  -26.1900   19.3700 C   0  0  0  0  0  1  0  0  0  0  0  0
  -25.2820  -22.6580   20.4460 C   0  0  0  0  0  1  0  0  0  0  0  0
  -30.0090  -22.9520   21.6520 C   0  0  0  0  0  1  0  0  0  0  0  0
  -24.2440  -21.7820   20.4630 F   0  0  0  0  0  0  0  0  0  0  0  0
  -29.0650  -15.4420   20.1470 C   0  0  0  0  0  2  0  0  0  0  0  0
  -29.6780  -12.4380   19.1740 C   0  0  0  0  0  2  0  0  0  0  0  0
  -29.0390  -11.2630   18.2140 C   0  0  0  0  0  2  0  0  0  0  0  0
  -27.9140  -10.4420   18.8370 C   0  0  0  0  0  2  0  0  0  0  0  0
  -27.2340  -11.4340   19.7760 C   0  0  0  0  0  3  0  0  0  0  0  0
  -28.1500  -12.4270   20.6830 C   0  0  0  0  0  2  0  0  0  0  0  0
  -28.8170  -13.6990   19.9460 N   0  0  0  0  0  0  0  0  0  0  0  0
  -30.3080  -15.0740   19.9310 O   0  0  0  0  0  1  0  0  0  0  0  0
  -27.9150  -19.4210   20.5840 C   0  0  0  0  0  2  0  0  0  0  0  0
  -28.2370  -17.3590   20.3870 N   0  0  0  0  0  1  0  0  0  0  0  0
  -26.7110  -19.1640   20.5410 O   0  0  0  0  0  0  0  0  0  0  0  0
  -27.2640  -17.0950   20.4370 H   0  0  0  0  0  0  0  0  0  0  0  0
  -24.9080  -11.6800   20.6030 C   0  0  0  0  0  0  0  0  0  0  0  0
  -23.9540  -10.8650   21.1230 C   0  0  0  0  0  0  0  0  0  0  0  0
  -24.5400   -9.5640   21.2220 C   0  0  0  0  0  0  0  0  0  0  0  0
  -26.0340  -10.9160   20.4330 N   0  0  0  0  0  0  0  0  0  0  0  0
  -25.8270   -9.6180   20.8340 N   0  0  0  0  0  0  0  0  0  0  0  0
  -23.8990   -8.2880   21.6100 C   0  0  0  0  0  0  0  0  0  0  0  0
  -24.0300   -7.7460   22.9080 C   0  0  0  0  0  3  0  0  0  0  0  0
  -23.3570   -6.5540   23.2620 C   0  0  0  0  0  3  0  0  0  0  0  0
  -22.5370   -5.8900   22.3180 C   0  0  0  0  0  0  0  0  0  0  0  0
  -22.4220   -6.4220   21.0220 C   0  0  0  0  0  3  0  0  0  0  0  0
  -23.0970   -7.6040   20.6700 C   0  0  0  0  0  3  0  0  0  0  0  0
  -21.8710   -4.7120   22.5650 O   0  0  0  0  0  0  0  0  0  0  0  0
  -20.9460   -4.5980   23.5720 C   0  0  0  0  0  0  0  0  0  0  0  0
  -19.7150   -5.2870   23.5330 C   0  0  0  0  0  3  0  0  0  0  0  0
  -18.7630   -5.0910   24.5530 C   0  0  0  0  0  3  0  0  0  0  0  0
  -19.0340   -4.2000   25.6090 C   0  0  0  0  0  0  0  0  0  0  0  0
  -20.2570   -3.5070   25.6470 C   0  0  0  0  0  3  0  0  0  0  0  0
  -21.2070   -3.7020   24.6300 C   0  0  0  0  0  0  0  0  0  0  0  0
  -22.3750   -3.0150   24.6630 F   0  0  0  0  0  0  0  0  0  0  0  0
  -18.1170   -4.0070   26.5850 F   0  0  0  0  0  0  0  0  0  0  0  0
  -22.5430  -11.2810   21.4010 C   0  0  0  0  0  0  0  0  0  0  0  0
  -21.9140  -10.6750   22.3990 N   0  0  0  0  0  0  0  0  0  0  0  0
  -22.0170  -12.2010   20.7730 O   0  0  0  0  0  0  0  0  0  0  0  0
  -22.3640   -9.9440   22.9300 H   0  0  0  0  0  0  0  0  0  0  0  0
  -20.9690  -10.9420   22.6370 H   0  0  0  0  0  0  0  0  0  0  0  0
  -24.9040  -13.0190   20.2260 N   0  0  0  0  0  0  0  0  0  0  0  0
  -24.0650  -13.5880   20.2750 H   0  0  0  0  0  0  0  0  0  0  0  0
  -25.6930  -13.4900   19.8050 H   0  0  0  0  0  0  0  0  0  0  0  0
  -26.2530  -23.9800   16.4290 C   0  0  0  0  0  2  0  0  0  0  0  0
  -25.5310  -23.6410   17.6770 O   0  0  0  0  0  0  0  0  0  0  0  0
  -24.2400  -29.3960   23.0700 C   0  0  0  0  0  0  0  0  0  0  0  0
  -24.0760  -24.3040   18.0950 C   0  0  0  0  0  3  0  0  0  0  0  0
  -22.5290  -28.6390   21.2950 C   0  0  0  0  0  3  0  0  0  0  0  0
  -23.1050  -25.8240   19.8600 C   0  0  0  0  0  3  0  0  0  0  0  0
  -24.6240  -27.5370   21.2300 C   0  0  0  0  0  1  0  0  0  0  0  0
  -23.7960  -26.0400   21.0140 C   0  0  0  0  0  1  0  0  0  0  0  0
  -23.3460  -24.9460   20.0560 C   0  0  0  0  0  2  0  0  0  0  0  0
  -23.5350  -24.3410   16.7780 C   0  0  0  0  0  1  0  0  0  0  0  0
  -23.8060  -24.7570   17.9830 C   0  0  0  0  0  2  0  0  0  0  0  0
  -22.3820  -27.5120   20.0630 C   0  0  0  0  0  2  0  0  0  0  0  0
  -23.8780  -28.6400   21.9330 N   0  0  0  0  0  0  0  0  0  0  0  0
  -23.4250  -30.1250   23.6630 O   0  0  0  0  0  0  0  0  0  0  0  0
  -21.4630  -28.3170   22.3380 C   0  0  0  0  0  0  0  0  0  0  0  0
  -20.2250  -28.8300   22.2310 N   0  0  0  0  0  0  0  0  0  0  0  0
  -21.7620  -27.4870   23.1890 O   0  0  0  0  0  0  0  0  0  0  0  0
  -20.0370  -29.5210   21.5170 H   0  0  0  0  0  0  0  0  0  0  0  0
  -16.6110  -28.9850   22.7540 C   0  0  0  0  0  0  0  0  0  0  0  0
  -19.0750  -28.2250   22.9180 C   0  0  0  0  0  3  0  0  0  0  0  0
  -18.6110  -26.9550   22.1670 C   0  0  0  0  0  2  0  0  0  0  0  0
  -17.4860  -27.2270   21.1620 C   0  0  0  0  0  2  0  0  0  0  0  0
  -16.2610  -27.7890   21.8870 C   0  0  0  0  0  2  0  0  0  0  0  0
  -17.9370  -29.2070   23.2160 C   0  0  0  0  0  0  0  0  0  0  0  0
  -18.2090  -30.3470   24.0010 C   0  0  0  0  0  3  0  0  0  0  0  0
  -17.1840  -31.2590   24.3220 C   0  0  0  0  0  3  0  0  0  0  0  0
  -15.8730  -31.0310   23.8700 C   0  0  0  0  0  3  0  0  0  0  0  0
  -15.5870  -29.8940   23.0960 C   0  0  0  0  0  3  0  0  0  0  0  0
  -25.6750  -29.3700   23.7310 C   0  0  0  0  0  3  0  0  0  0  0  0
  -26.1460  -30.7610   24.0120 N   0  0  0  0  0  0  0  0  0  0  0  0
  -27.0980  -31.4490   23.3530 C   0  0  0  0  0  0  0  0  0  0  0  0
  -27.6880  -30.9770   22.3800 O   0  0  0  0  0  0  0  0  0  0  0  0
  -25.6420  -31.2400   24.7430 H   0  0  0  0  0  0  0  0  0  0  0  0
  -26.6910  -33.9210   22.9850 C   0  0  0  0  0  1  0  0  0  0  0  0
  -27.4520  -32.8840   23.8290 C   0  0  0  0  0  3  0  0  0  0  0  0
  -29.6780  -32.4970   24.8020 C   0  0  0  0  0  1  0  0  0  0  0  0
  -28.9030  -33.1920   23.7800 N   0  0  0  0  0  0  0  0  0  0  0  0
  -29.0670  -34.1910   23.8770 H   0  0  0  0  0  0  0  0  0  0  0  0
  -25.7190  -28.5630   25.0960 C   0  0  1  0  0  0  0  0  0  0  0  0
  -24.6420  -29.0130   26.1150 C   0  0  0  0  0  1  0  0  0  0  0  0
  -25.5300  -27.0500   24.8770 C   0  0  0  0  0  1  0  0  0  0  0  0
  -27.1090  -28.7110   25.7690 C   0  0  0  0  0  1  0  0  0  0  0  0
  1  6  1  0
  1  7  2  0
  2  1  1  0
  3  5  1  0
  3  2  1  0
  4  6  1  0
  5 56  1  0
  5  4  1  0
  6 12  1  0
  9 64  1  0
 11 14  1  0
 13 15  1  0
 17 22  1  0
 18 19  1  0
 18 17  1  0
 20 19  1  0
 20 31  1  0
 20 21  1  0
 22 16  1  0
 22 21  1  0
 23 16  1  0
 25 27  1  0
 26 24  2  0
 28 29  2  0
 29 30  1  0
 29 48  1  0
 30 33  1  0
 31 28  1  0
 31 32  1  0
 32 30  2  0
 33 34  1  0
 34 35  2  0
 36 39  1  0
 36 35  1  0
 37 36  2  0
 38 37  1  0
 38 33  2  0
 39 40  1  0
 40 45  1  0
 41 40  2  0
 41 42  1  0
 42 43  2  0
 43 44  1  0
 43 47  1  0
 45 46  1  0
 45 44  2  0
 48 49  1  0
 49 52  1  0
 49 51  1  0
 50 48  2  0
 53 54  1  0
 53 28  1  0
 55 53  1  0
 56 57  1  0
 57 59  1  0
 58 69  2  0
 59 66  1  0
 59  9  1  0
 60 67  1  0
 60 68  1  0
 60 70  1  0
 61 64  1  0
 61 67  1  0
 61 63  1  0
 62 68  1  0
 65 66  1  0
 68 58  1  0
 70 72  2  0
 71 70  1  0
 73 71  1  0
 74 83  2  0
 74 79  1  0
 75 71  1  0
 75 79  1  0
 76 75  1  0
 77 78  1  0
 77 76  1  0
 78 74  1  0
 79 80  2  0
 80 81  1  0
 82 81  2  0
 83 82  1  0
 84 58  1  0
 84 85  1  0
 84 94  1  0
 85 88  1  0
 86 90  1  0
 86 85  1  0
 87 86  2  0
 90 89  1  0
 92 90  1  0
 92 93  1  0
 92 91  1  0
 94 97  1  1
 94 95  1  0
 96 94  1  0
M  ISO  4  16 100  25 100  56 101  57 101
M  END
>  <TORSDO>  (27) 
F 18

>  <SCORE>  (27) 
-1.067

>  <name>  (27) 
26

>  <ligand_id>  (27) 
26

>  <original_smiles>  (27) 
[H]c1c([H])c([H])c2c(c1[H])C([H])([H])C([H])([H])C([H])([H])C2([H])N([H])C(=O)C1([H])N(C(=O)C([H])(N([H])C(=O)C([H])(N([H])C([H])([H])[H])C([H])([H])[H])C(C([H])([H])[H])(C([H])([H])[H])C([H])([H])[H])C([H])([H])c2c([H])c(OC([H])([H])C3([H])C([H])([H])N(c4c([H])c(F)c(C(=O)N([H])C(=O)N5C([H])([H])C([H])([H])C([H])([H])C([H])(n6nc(-c7c([H])c([H])c(Oc8c([H])c([H])c(F)c([H])c8F)c([H])c7[H])c(C(=O)N([H])[H])c6N([H])[H])C5([H])[H])c(C([H])([H])[H])c4[H])C(=O)C([H])([H])C3([H])[H])c([H])c([H])c2C1([H])[H]

>  <smiles>  (27) 
[H]c1c([H])c([H])c2c(c1[H])C([H])([H])C([H])([H])C([H])([H])C2([H])N([H])C(=O)C1([H])N(C(=O)C([H])(N([H])C(=O)C([H])(N([H])C([H])([H])[H])C([H])([H])[H])C(C([H])([H])[H])(C([H])([H])[H])C([H])([H])[H])C([H])([H])c2c([H])c(OC([H])([H])C3([H])C([H])([H])N(c4c([H])c(F)c(C(=O)N([H])C(=O)N5C([H])([H])C([H])([H])C([H])([H])C([H])(n6nc(-c7c([H])c([H])c(Oc8c([H])c([H])c(F)c([H])c8F)c([H])c7[H])c(C(=O)N([H])[H])c6N([H])[H])C5([H])[H])c(C([H])([H])[H])c4[H])C(=O)C([H])([H])C3([H])[H])c([H])c([H])c2C1([H])[H]

$$$$
27:0:0
     RDKit          3D

 95103  0  0  1  0  0  0  0  0999 V2000
  -29.7900  -21.6150   19.3600 C   0  0  0  0  0  0  0  0  0  0  0  0
  -31.3810  -19.9430   18.6580 C   0  0  0  0  0  1  0  0  0  0  0  0
  -30.5700  -20.5140   19.7450 N   0  0  0  0  0  0  0  0  0  0  0  0
  -29.5930  -21.8170   18.1540 O   0  0  0  0  0  0  0  0  0  0  0  0
  -30.7160  -17.8920   22.5720 C   0  0  0  0  0  3  0  0  0  0  0  0
  -30.9460  -18.7280   23.6690 C   0  0  0  0  0  3  0  0  0  0  0  0
  -30.6560  -18.3860   21.2460 C   0  0  0  0  0  0  0  0  0  0  0  0
  -31.1760  -20.6270   22.1620 C   0  0  0  0  0  0  0  0  0  0  0  0
  -30.7430  -19.8430   21.0410 C   0  0  0  0  0  0  0  0  0  0  0  0
  -31.2190  -20.0810   23.4600 C   0  0  0  0  0  0  0  0  0  0  0  0
  -31.7540  -22.0350   22.0370 C   0  0  0  0  0  1  0  0  0  0  0  0
  -31.5700  -20.8550   24.5160 F   0  0  0  0  0  0  0  0  0  0  0  0
  -30.5670  -17.2630   20.1430 C   0  0  0  0  0  2  0  0  0  0  0  0
  -31.0330  -14.7060   20.3400 C   0  0  0  0  0  0  0  0  0  0  0  0
  -30.7600  -12.4280   19.3880 C   0  0  0  0  0  2  0  0  0  0  0  0
  -29.8510  -12.5270   18.1430 C   0  0  0  0  0  2  0  0  0  0  0  0
  -28.3670  -12.4250   18.5470 C   0  0  0  0  0  2  0  0  0  0  0  0
  -28.0060  -13.3610   19.7310 C   0  0  0  0  0  3  0  0  0  0  0  0
  -29.0350  -13.2440   20.8800 C   0  0  0  0  0  2  0  0  0  0  0  0
  -30.3650  -13.5080   20.3150 N   0  0  0  0  0  0  0  0  0  0  0  0
  -32.2100  -14.7840   19.9790 O   0  0  0  0  0  0  0  0  0  0  0  0
  -30.2770  -15.8310   20.5440 N   0  0  0  0  0  0  0  0  0  0  0  0
  -29.3270  -15.6500   20.8260 H   0  0  0  0  0  0  0  0  0  0  0  0
  -25.6410  -14.0650   20.4400 C   0  0  0  0  0  0  0  0  0  0  0  0
  -24.5320  -13.3400   20.7820 C   0  0  0  0  0  0  0  0  0  0  0  0
  -24.9240  -11.9670   20.7260 C   0  0  0  0  0  0  0  0  0  0  0  0
  -26.6410  -13.1380   20.1980 N   0  0  0  0  0  0  0  0  0  0  0  0
  -26.2140  -11.8700   20.4310 N   0  0  0  0  0  0  0  0  0  0  0  0
  -24.1310  -10.7400   20.8780 C   0  0  0  0  0  0  0  0  0  0  0  0
  -24.5120   -9.7240   21.7800 C   0  0  0  0  0  3  0  0  0  0  0  0
  -23.7240   -8.5620   21.9240 C   0  0  0  0  0  3  0  0  0  0  0  0
  -22.5400   -8.4090   21.1640 C   0  0  0  0  0  0  0  0  0  0  0  0
  -22.1780   -9.4140   20.2500 C   0  0  0  0  0  3  0  0  0  0  0  0
  -22.9660  -10.5680   20.1040 C   0  0  0  0  0  3  0  0  0  0  0  0
  -21.7260   -7.3030   21.2170 O   0  0  0  0  0  0  0  0  0  0  0  0
  -21.6310   -6.5350   22.3490 C   0  0  0  0  0  0  0  0  0  0  0  0
  -21.2390   -7.0810   23.5920 C   0  0  0  0  0  3  0  0  0  0  0  0
  -21.0880   -6.2420   24.7140 C   0  0  0  0  0  3  0  0  0  0  0  0
  -21.3170   -4.8580   24.5950 C   0  0  0  0  0  0  0  0  0  0  0  0
  -21.7020   -4.3120   23.3590 C   0  0  0  0  0  3  0  0  0  0  0  0
  -21.8550   -5.1470   22.2390 C   0  0  0  0  0  0  0  0  0  0  0  0
  -22.2060   -4.6120   21.0440 F   0  0  0  0  0  0  0  0  0  0  0  0
  -21.1640   -4.0510   25.6710 F   0  0  0  0  0  0  0  0  0  0  0  0
  -23.1580  -13.8830   21.0500 C   0  0  0  0  0  0  0  0  0  0  0  0
  -22.3920  -13.2130   21.9060 N   0  0  0  0  0  0  0  0  0  0  0  0
  -22.7730  -14.9320   20.5370 O   0  0  0  0  0  0  0  0  0  0  0  0
  -22.7160  -12.3620   22.3400 H   0  0  0  0  0  0  0  0  0  0  0  0
  -21.4690  -13.5580   22.1310 H   0  0  0  0  0  0  0  0  0  0  0  0
  -25.8770  -15.4300   20.2930 N   0  0  0  0  0  0  0  0  0  0  0  0
  -25.1400  -16.1170   20.4080 H   0  0  0  0  0  0  0  0  0  0  0  0
  -26.7420  -15.8310   19.9550 H   0  0  0  0  0  0  0  0  0  0  0  0
  -29.1860  -22.5660   20.3320 C   0  0  0  0  0  3  0  0  0  0  0  0
  -28.9780  -23.8920   20.0030 C   0  0  0  0  0  3  0  0  0  0  0  0
  -28.3410  -25.0220   20.8720 C   0  0  0  0  0  2  0  0  0  0  0  0
  -28.5670  -26.4260   20.4560 O   0  0  0  0  0  0  0  0  0  0  0  0
  -24.6680  -31.8090   23.2720 C   0  0  0  0  0  0  0  0  0  0  0  0
  -27.4430  -27.2570   20.3790 C   0  0  0  0  0  0  0  0  0  0  0  0
  -23.5400  -30.3750   21.6080 C   0  0  0  0  0  3  0  0  0  0  0  0
  -25.0600  -28.8250   20.2550 C   0  0  0  0  0  0  0  0  0  0  0  0
  -26.0780  -30.7280   21.5100 C   0  0  0  0  0  2  0  0  0  0  0  0
  -26.1990  -29.3430   20.8870 C   0  0  0  0  0  0  0  0  0  0  0  0
  -27.3970  -28.5690   20.9380 C   0  0  0  0  0  3  0  0  0  0  0  0
  -26.2880  -26.7910   19.7160 C   0  0  0  0  0  3  0  0  0  0  0  0
  -25.1070  -27.5540   19.6590 C   0  0  0  0  0  3  0  0  0  0  0  0
  -23.8110  -29.6830   20.2460 C   0  0  0  0  0  2  0  0  0  0  0  0
  -24.7790  -30.9890   22.1880 N   0  0  0  0  0  0  0  0  0  0  0  0
  -23.5640  -32.0800   23.7650 O   0  0  0  0  0  0  0  0  0  0  0  0
  -22.8560  -29.3630   22.5570 C   0  0  0  0  0  0  0  0  0  0  0  0
  -21.5370  -29.1720   22.3880 N   0  0  0  0  0  0  0  0  0  0  0  0
  -23.5130  -28.7510   23.4040 O   0  0  0  0  0  0  0  0  0  0  0  0
  -21.0680  -29.7160   21.6770 H   0  0  0  0  0  0  0  0  0  0  0  0
  -18.1570  -27.9430   22.7760 C   0  0  0  0  0  0  0  0  0  0  0  0
  -20.6990  -28.2380   23.1420 C   0  0  0  0  0  3  0  0  0  0  0  0
  -20.8420  -26.7990   22.5950 C   0  0  0  0  0  2  0  0  0  0  0  0
  -19.7840  -26.4460   21.5440 C   0  0  0  0  0  2  0  0  0  0  0  0
  -18.3760  -26.5850   22.1300 C   0  0  0  0  0  2  0  0  0  0  0  0
  -19.2490  -28.7260   23.2360 C   0  0  0  0  0  0  0  0  0  0  0  0
  -18.9920  -29.9950   23.7980 C   0  0  0  0  0  3  0  0  0  0  0  0
  -17.6760  -30.4820   23.9050 C   0  0  0  0  0  3  0  0  0  0  0  0
  -16.5980  -29.6970   23.4600 C   0  0  0  0  0  3  0  0  0  0  0  0
  -16.8390  -28.4300   22.9010 C   0  0  0  0  0  3  0  0  0  0  0  0
  -25.9220  -32.4630   23.9320 C   0  0  0  0  0  3  0  0  0  0  0  0
  -26.3990  -31.7150   25.2360 C   0  0  1  0  0  0  0  0  0  0  0  0
  -25.2690  -31.4790   26.2660 C   0  0  0  0  0  1  0  0  0  0  0  0
  -27.0120  -30.3390   24.8860 C   0  0  0  0  0  1  0  0  0  0  0  0
  -27.5160  -32.5310   25.9290 C   0  0  0  0  0  1  0  0  0  0  0  0
  -25.5860  -33.8620   24.2320 N   0  0  0  0  0  0  0  0  0  0  0  0
  -25.9260  -34.9080   23.4660 C   0  0  0  0  0  0  0  0  0  0  0  0
  -26.6260  -34.7970   22.4550 O   0  0  0  0  0  0  0  0  0  0  0  0
  -24.9680  -34.0220   25.0140 H   0  0  0  0  0  0  0  0  0  0  0  0
  -24.1770  -36.6670   23.0480 C   0  0  0  0  0  1  0  0  0  0  0  0
  -25.4110  -36.2970   23.8880 C   0  0  0  0  0  3  0  0  0  0  0  0
  -27.5170  -37.2300   24.7360 C   0  0  0  0  0  1  0  0  0  0  0  0
  -26.4290  -37.3640   23.7720 N   0  0  0  0  0  0  0  0  0  0  0  0
  -26.0060  -38.2800   23.8950 H   0  0  0  0  0  0  0  0  0  0  0  0
  1  3  1  0
  1 52  1  0
  2  3  1  0
  3  9  1  0
  4  1  2  0
  5  6  1  0
  7  5  2  0
  8 10  1  0
  9  7  1  0
  9  8  2  0
 10  6  2  0
 10 12  1  0
 11  8  1  0
 13 22  1  0
 13  7  1  0
 14 22  1  0
 15 20  1  0
 16 17  1  0
 16 15  1  0
 18 17  1  0
 18 27  1  0
 18 19  1  0
 20 14  1  0
 20 19  1  0
 21 14  2  0
 22 23  1  0
 24 25  2  0
 25 44  1  0
 26 25  1  0
 26 29  1  0
 27 28  1  0
 27 24  1  0
 28 26  2  0
 29 30  1  0
 30 31  2  0
 32 35  1  0
 32 31  1  0
 33 32  2  0
 34 33  1  0
 34 29  2  0
 35 36  1  0
 36 37  1  0
 37 38  2  0
 39 38  1  0
 39 43  1  0
 40 39  2  0
 41 36  2  0
 41 40  1  0
 42 41  1  0
 44 45  1  0
 45 48  1  0
 45 47  1  0
 46 44  2  0
 49 50  1  0
 49 24  1  0
 51 49  1  0
 53 52  2  0
 53 54  1  0
 55 54  1  0
 56 67  2  0
 57 55  1  0
 57 62  1  0
 58 66  1  0
 58 68  1  0
 59 61  1  0
 60 66  1  0
 61 62  2  0
 61 60  1  0
 63 57  2  0
 64 63  1  0
 64 59  2  0
 65 59  1  0
 65 58  1  0
 66 56  1  0
 68 70  2  0
 69 68  1  0
 71 69  1  0
 72 81  2  0
 72 77  1  0
 73 69  1  0
 73 77  1  0
 74 73  1  0
 75 76  1  0
 75 74  1  0
 76 72  1  0
 77 78  2  0
 78 79  1  0
 80 79  2  0
 81 80  1  0
 82 56  1  0
 82 87  1  0
 82 83  1  0
 83 86  1  1
 83 84  1  0
 85 83  1  0
 87 90  1  0
 88 92  1  0
 88 87  1  0
 89 88  2  0
 92 91  1  0
 94 92  1  0
 94 95  1  0
 94 93  1  0
M  ISO  4  14 100  22 100  54 101  55 101
M  END
>  <TORSDO>  (28) 
F 20

>  <SCORE>  (28) 
-13.388

>  <name>  (28) 
27

>  <ligand_id>  (28) 
27

>  <original_smiles>  (28) 
[H]C(C(=O)N(c1c(C([H])([H])[H])c(F)c([H])c([H])c1C([H])([H])N([H])C(=O)N1C([H])([H])C([H])([H])C([H])([H])C([H])(n2nc(-c3c([H])c([H])c(Oc4c([H])c([H])c(F)c([H])c4F)c([H])c3[H])c(C(=O)N([H])[H])c2N([H])[H])C1([H])[H])C([H])([H])[H])=C([H])C([H])([H])Oc1c([H])c([H])c2c(c1[H])C([H])([H])N(C(=O)C([H])(N([H])C(=O)C([H])(N([H])C([H])([H])[H])C([H])([H])[H])C(C([H])([H])[H])(C([H])([H])[H])C([H])([H])[H])C([H])(C(=O)N([H])C1([H])c3c([H])c([H])c([H])c([H])c3C([H])([H])C([H])([H])C1([H])[H])C2([H])[H]

>  <smiles>  (28) 
[H]C(C(=O)N(c1c(C([H])([H])[H])c(F)c([H])c([H])c1C([H])([H])N([H])C(=O)N1C([H])([H])C([H])([H])C([H])([H])C([H])(n2nc(-c3c([H])c([H])c(Oc4c([H])c([H])c(F)c([H])c4F)c([H])c3[H])c(C(=O)N([H])[H])c2N([H])[H])C1([H])[H])C([H])([H])[H])=C([H])C([H])([H])Oc1c([H])c([H])c2c(c1[H])C([H])([H])N(C(=O)C([H])(N([H])C(=O)C([H])(N([H])C([H])([H])[H])C([H])([H])[H])C(C([H])([H])[H])(C([H])([H])[H])C([H])([H])[H])C([H])(C(=O)N([H])C1([H])c3c([H])c([H])c([H])c([H])c3C([H])([H])C([H])([H])C1([H])[H])C2([H])[H]

$$$$
28:0:0
     RDKit          3D

 96104  0  0  1  0  0  0  0  0999 V2000
  -31.0330  -20.2290   19.5850 C   0  0  0  0  0  3  0  0  0  0  0  0
  -31.5940  -17.8350   19.6240 C   0  0  0  0  0  3  0  0  0  0  0  0
  -29.7410  -19.9910   20.0770 C   0  0  0  0  0  0  0  0  0  0  0  0
  -30.3160  -17.4570   20.1070 C   0  0  0  0  0  0  0  0  0  0  0  0
  -29.3900  -18.5700   20.3310 C   0  0  0  0  0  0  0  0  0  0  0  0
  -31.9400  -19.1780   19.3690 C   0  0  0  0  0  0  0  0  0  0  0  0
  -33.1820  -19.4580   18.9020 F   0  0  0  0  0  0  0  0  0  0  0  0
  -30.6750  -14.8310   20.0260 C   0  0  0  0  0  0  0  0  0  0  0  0
  -30.3500  -12.5970   18.9550 C   0  0  0  0  0  2  0  0  0  0  0  0
  -29.3480  -12.7350   17.7880 C   0  0  0  0  0  2  0  0  0  0  0  0
  -27.9040  -12.5640   18.2950 C   0  0  0  0  0  2  0  0  0  0  0  0
  -27.6170  -13.4040   19.5700 C   0  0  0  0  0  3  0  0  0  0  0  0
  -28.7400  -13.2720   20.6220 C   0  0  0  0  0  2  0  0  0  0  0  0
  -30.0010  -13.6290   19.9610 N   0  0  0  0  0  0  0  0  0  0  0  0
  -31.8490  -14.8610   19.6510 O   0  0  0  0  0  0  0  0  0  0  0  0
  -29.9750  -16.0030   20.3200 N   0  0  0  0  0  0  0  0  0  0  0  0
  -29.0370  -15.8360   20.6450 H   0  0  0  0  0  0  0  0  0  0  0  0
  -25.2770  -13.9840   20.4360 C   0  0  0  0  0  0  0  0  0  0  0  0
  -24.2310  -13.2060   20.8510 C   0  0  0  0  0  0  0  0  0  0  0  0
  -24.6870  -11.8540   20.7730 C   0  0  0  0  0  0  0  0  0  0  0  0
  -26.3030  -13.1070   20.1280 N   0  0  0  0  0  0  0  0  0  0  0  0
  -25.9590  -11.8200   20.3940 N   0  0  0  0  0  0  0  0  0  0  0  0
  -23.9660  -10.5910   20.9770 C   0  0  0  0  0  0  0  0  0  0  0  0
  -24.4220   -9.6190   21.8960 C   0  0  0  0  0  3  0  0  0  0  0  0
  -23.7000   -8.4220   22.0890 C   0  0  0  0  0  3  0  0  0  0  0  0
  -22.5080   -8.1870   21.3640 C   0  0  0  0  0  0  0  0  0  0  0  0
  -22.0700   -9.1460   20.4330 C   0  0  0  0  0  3  0  0  0  0  0  0
  -22.7940  -10.3340   20.2380 C   0  0  0  0  0  3  0  0  0  0  0  0
  -21.7550   -7.0430   21.4680 O   0  0  0  0  0  0  0  0  0  0  0  0
  -21.7190   -6.3070   22.6250 C   0  0  0  0  0  0  0  0  0  0  0  0
  -21.2800   -6.8620   23.8480 C   0  0  0  0  0  3  0  0  0  0  0  0
  -21.1920   -6.0520   24.9980 C   0  0  0  0  0  3  0  0  0  0  0  0
  -21.5370   -4.6890   24.9270 C   0  0  0  0  0  0  0  0  0  0  0  0
  -21.9690   -4.1340   23.7100 C   0  0  0  0  0  3  0  0  0  0  0  0
  -22.0570   -4.9410   22.5630 C   0  0  0  0  0  0  0  0  0  0  0  0
  -22.4550   -4.3950   21.3880 F   0  0  0  0  0  0  0  0  0  0  0  0
  -21.4450   -3.9080   26.0290 F   0  0  0  0  0  0  0  0  0  0  0  0
  -22.8520  -13.6820   21.2050 C   0  0  0  0  0  0  0  0  0  0  0  0
  -22.1640  -12.9680   22.0870 N   0  0  0  0  0  0  0  0  0  0  0  0
  -22.3950  -14.7220   20.7310 O   0  0  0  0  0  0  0  0  0  0  0  0
  -22.5480  -12.1260   22.4920 H   0  0  0  0  0  0  0  0  0  0  0  0
  -21.2390  -13.2660   22.3660 H   0  0  0  0  0  0  0  0  0  0  0  0
  -25.4340  -15.3570   20.2640 N   0  0  0  0  0  0  0  0  0  0  0  0
  -24.6580  -15.9980   20.3920 H   0  0  0  0  0  0  0  0  0  0  0  0
  -26.2250  -15.7810   19.8010 H   0  0  0  0  0  0  0  0  0  0  0  0
  -28.8670  -21.2680   20.3380 C   0  0  0  0  0  0  0  0  0  0  0  0
  -27.8340  -21.0220   21.0820 N   0  0  0  0  0  4  0  0  0  0  0  0
  -27.6710  -20.0450   21.3680 H   0  0  0  0  0  0  0  0  0  0  0  0
  -27.1180  -21.6880   21.3480 H   0  0  0  0  0  0  0  0  0  0  0  0
  -28.4510  -23.7330   20.1780 C   0  0  0  0  0  3  0  0  0  0  0  0
  -29.0890  -22.6010   19.8830 N   0  0  0  0  0  0  0  0  0  0  0  0
  -28.6280  -25.1710   19.4680 C   0  0  0  0  0  2  0  0  0  0  0  0
  -28.4660  -26.4770   20.1990 O   0  0  0  0  0  0  0  0  0  0  0  0
  -24.6880  -31.8500   23.2450 C   0  0  0  0  0  0  0  0  0  0  0  0
  -27.3410  -27.3300   20.1100 C   0  0  0  0  0  0  0  0  0  0  0  0
  -23.5030  -30.4790   21.5690 C   0  0  0  0  0  3  0  0  0  0  0  0
  -24.9700  -28.9630   20.1110 C   0  0  0  0  0  0  0  0  0  0  0  0
  -26.0440  -30.8030   21.4120 C   0  0  0  0  0  2  0  0  0  0  0  0
  -26.1310  -29.4350   20.7350 C   0  0  0  0  0  0  0  0  0  0  0  0
  -27.3120  -28.6260   20.7310 C   0  0  0  0  0  3  0  0  0  0  0  0
  -26.1550  -26.9230   19.4590 C   0  0  0  0  0  3  0  0  0  0  0  0
  -24.9870  -27.7150   19.4660 C   0  0  0  0  0  3  0  0  0  0  0  0
  -23.7280  -29.8330   20.1750 C   0  0  0  0  0  2  0  0  0  0  0  0
  -24.7640  -31.0620   22.1320 N   0  0  0  0  0  0  0  0  0  0  0  0
  -23.6010  -32.1110   23.7800 O   0  0  0  0  0  0  0  0  0  0  0  0
  -22.8390  -29.4400   22.5040 C   0  0  0  0  0  0  0  0  0  0  0  0
  -21.5110  -29.2700   22.3790 N   0  0  0  0  0  0  0  0  0  0  0  0
  -23.5170  -28.7890   23.3040 O   0  0  0  0  0  0  0  0  0  0  0  0
  -21.0210  -29.8490   21.7110 H   0  0  0  0  0  0  0  0  0  0  0  0
  -18.1270  -28.0900   22.8730 C   0  0  0  0  0  0  0  0  0  0  0  0
  -20.6910  -28.3140   23.1260 C   0  0  0  0  0  3  0  0  0  0  0  0
  -20.7730  -26.9020   22.5010 C   0  0  0  0  0  2  0  0  0  0  0  0
  -19.6580  -26.6260   21.4870 C   0  0  0  0  0  2  0  0  0  0  0  0
  -18.2840  -26.7630   22.1500 C   0  0  0  0  0  2  0  0  0  0  0  0
  -19.2580  -28.8250   23.3170 C   0  0  0  0  0  0  0  0  0  0  0  0
  -19.0580  -30.0690   23.9540 C   0  0  0  0  0  3  0  0  0  0  0  0
  -17.7610  -30.5780   24.1510 C   0  0  0  0  0  3  0  0  0  0  0  0
  -16.6440  -29.8370   23.7280 C   0  0  0  0  0  3  0  0  0  0  0  0
  -16.8290  -28.5950   23.0930 C   0  0  0  0  0  3  0  0  0  0  0  0
  -25.9630  -32.4770   23.8880 C   0  0  0  0  0  3  0  0  0  0  0  0
  -26.4540  -31.7040   25.1740 C   0  0  1  0  0  0  0  0  0  0  0  0
  -25.3430  -31.4670   26.2230 C   0  0  0  0  0  1  0  0  0  0  0  0
  -27.0380  -30.3250   24.7910 C   0  0  0  0  0  1  0  0  0  0  0  0
  -27.5970  -32.4930   25.8560 C   0  0  0  0  0  1  0  0  0  0  0  0
  -25.6540  -33.8770   24.2180 N   0  0  0  0  0  0  0  0  0  0  0  0
  -25.9960  -34.9310   23.4650 C   0  0  0  0  0  0  0  0  0  0  0  0
  -26.6750  -34.8280   22.4400 O   0  0  0  0  0  0  0  0  0  0  0  0
  -25.0500  -34.0310   25.0120 H   0  0  0  0  0  0  0  0  0  0  0  0
  -24.2810  -36.7350   23.0950 C   0  0  0  0  0  1  0  0  0  0  0  0
  -25.5100  -36.3220   23.9210 C   0  0  0  0  0  3  0  0  0  0  0  0
  -27.6320  -37.1990   24.7900 C   0  0  0  0  0  1  0  0  0  0  0  0
  -26.5500  -37.3700   23.8260 N   0  0  0  0  0  0  0  0  0  0  0  0
  -26.1450  -38.2930   23.9640 H   0  0  0  0  0  0  0  0  0  0  0  0
  -28.1130  -18.2120   20.8090 N   0  0  0  0  0  0  0  0  0  0  0  0
  -27.3870  -18.3430   20.1100 H   0  0  0  0  0  0  0  0  0  0  0  0
  -28.0580  -17.2560   21.1350 H   0  0  0  0  0  0  0  0  0  0  0  0
  1  3  1  0
  2  4  2  0
  3  5  2  0
  3 46  1  0
  4 16  1  0
  4  5  1  0
  5 94  1  0
  6  1  2  0
  6  2  1  0
  7  6  1  0
  8 16  1  0
  9 14  1  0
 10 11  1  0
 10  9  1  0
 12 11  1  0
 12 21  1  0
 12 13  1  0
 14  8  1  0
 14 13  1  0
 15  8  2  0
 16 17  1  0
 18 19  2  0
 19 38  1  0
 20 19  1  0
 20 23  1  0
 21 22  1  0
 21 18  1  0
 22 20  2  0
 23 24  1  0
 24 25  2  0
 26 29  1  0
 26 25  1  0
 27 26  2  0
 28 27  1  0
 28 23  2  0
 29 30  1  0
 30 31  1  0
 31 32  2  0
 33 32  1  0
 33 37  1  0
 34 33  2  0
 35 30  2  0
 35 34  1  0
 36 35  1  0
 38 39  1  0
 39 42  1  0
 39 41  1  0
 40 38  2  0
 43 44  1  0
 43 18  1  0
 45 43  1  0
 46 47  2  0
 47 49  1  0
 47 48  1  0
 51 50  2  0
 51 46  1  0
 52 50  1  0
 52 53  1  0
 54 65  2  0
 55 53  1  0
 55 60  1  0
 56 64  1  0
 56 66  1  0
 57 63  1  0
 57 59  1  0
 58 64  1  0
 59 58  1  0
 60 59  2  0
 61 62  1  0
 61 55  2  0
 62 57  2  0
 63 56  1  0
 64 54  1  0
 66 68  2  0
 67 66  1  0
 69 67  1  0
 70 79  2  0
 70 75  1  0
 71 67  1  0
 71 75  1  0
 72 71  1  0
 73 74  1  0
 73 72  1  0
 74 70  1  0
 75 76  2  0
 76 77  1  0
 78 77  2  0
 79 78  1  0
 80 54  1  0
 80 85  1  0
 80 81  1  0
 81 84  1  1
 81 82  1  0
 83 81  1  0
 85 88  1  0
 86 90  1  0
 86 85  1  0
 87 86  2  0
 90 89  1  0
 92 90  1  0
 92 93  1  0
 92 91  1  0
 94 96  1  0
 95 94  1  0
M  ISO  4   8 100  16 100  52 101  53 101
M  END
>  <TORSDO>  (29) 
F 20

>  <SCORE>  (29) 
-14.170

>  <name>  (29) 
28

>  <ligand_id>  (29) 
28

>  <original_smiles>  (29) 
[H]C(=NC(c1c([H])c(F)c([H])c(N([H])C(=O)N2C([H])([H])C([H])([H])C([H])([H])C([H])(n3nc(-c4c([H])c([H])c(Oc5c([H])c([H])c(F)c([H])c5F)c([H])c4[H])c(C(=O)N([H])[H])c3N([H])[H])C2([H])[H])c1N([H])[H])=[N+]([H])[H])C([H])([H])Oc1c([H])c([H])c2c(c1[H])C([H])([H])N(C(=O)C([H])(N([H])C(=O)C([H])(N([H])C([H])([H])[H])C([H])([H])[H])C(C([H])([H])[H])(C([H])([H])[H])C([H])([H])[H])C([H])(C(=O)N([H])C1([H])c3c([H])c([H])c([H])c([H])c3C([H])([H])C([H])([H])C1([H])[H])C2([H])[H]

>  <smiles>  (29) 
[H]C(=NC(c1c([H])c(F)c([H])c(N([H])C(=O)N2C([H])([H])C([H])([H])C([H])([H])C([H])(n3nc(-c4c([H])c([H])c(Oc5c([H])c([H])c(F)c([H])c5F)c([H])c4[H])c(C(=O)N([H])[H])c3N([H])[H])C2([H])[H])c1N([H])[H])=[N+]([H])[H])C([H])([H])Oc1c([H])c([H])c2c(c1[H])C([H])([H])N(C(=O)C([H])(N([H])C(=O)C([H])(N([H])C([H])([H])[H])C([H])([H])[H])C(C([H])([H])[H])(C([H])([H])[H])C([H])([H])[H])C([H])(C(=O)N([H])C1([H])c3c([H])c([H])c([H])c([H])c3C([H])([H])C([H])([H])C1([H])[H])C2([H])[H]

$$$$
29:0:0
     RDKit          3D

 98106  0  0  1  0  0  0  0  0999 V2000
  -29.6870  -20.5550   21.0420 C   0  0  0  0  0  0  0  0  0  0  0  0
  -30.5400  -20.7220   22.0500 N   0  0  0  0  0  4  0  0  0  0  0  0
  -28.8320  -21.5500   20.7240 N   0  0  0  0  0  0  0  0  0  0  0  0
  -31.2460  -20.0210   22.2190 H   0  0  0  0  0  0  0  0  0  0  0  0
  -30.5620  -21.5580   22.6080 H   0  0  0  0  0  0  0  0  0  0  0  0
  -28.1450  -21.2840   20.0270 H   0  0  0  0  0  0  0  0  0  0  0  0
  -29.6250  -18.0580   18.1450 C   0  0  0  0  0  3  0  0  0  0  0  0
  -29.7190  -16.8410   18.8330 C   0  0  0  0  0  3  0  0  0  0  0  0
  -29.7910  -18.0440   20.9500 C   0  0  0  0  0  3  0  0  0  0  0  0
  -29.7010  -19.2910   20.2640 C   0  0  0  0  0  0  0  0  0  0  0  0
  -29.6430  -19.2880   18.8390 C   0  0  0  0  0  0  0  0  0  0  0  0
  -29.8290  -16.8140   20.2420 C   0  0  0  0  0  0  0  0  0  0  0  0
  -29.6230  -20.5620   18.0010 C   0  0  0  0  0  1  0  0  0  0  0  0
  -30.6480  -14.5150   20.4900 C   0  0  0  0  0  0  0  0  0  0  0  0
  -30.3740  -12.3480   19.3640 C   0  0  0  0  0  2  0  0  0  0  0  0
  -29.4410  -12.5620   18.1510 C   0  0  0  0  0  2  0  0  0  0  0  0
  -27.9610  -12.4390   18.5680 C   0  0  0  0  0  2  0  0  0  0  0  0
  -27.6190  -13.2580   19.8400 C   0  0  0  0  0  3  0  0  0  0  0  0
  -28.6650  -13.0280   20.9550 C   0  0  0  0  0  2  0  0  0  0  0  0
  -29.9950  -13.3240   20.4000 N   0  0  0  0  0  0  0  0  0  0  0  0
  -31.7850  -14.6940   20.0450 O   0  0  0  0  0  0  0  0  0  0  0  0
  -29.9080  -15.5570   20.9240 N   0  0  0  0  0  0  0  0  0  0  0  0
  -29.0960  -15.3110   21.4720 H   0  0  0  0  0  0  0  0  0  0  0  0
  -25.2120  -13.8680   20.5220 C   0  0  0  0  0  0  0  0  0  0  0  0
  -24.1390  -13.0990   20.8870 C   0  0  0  0  0  0  0  0  0  0  0  0
  -24.6010  -11.7470   20.8650 C   0  0  0  0  0  0  0  0  0  0  0  0
  -26.2580  -12.9860   20.3060 N   0  0  0  0  0  0  0  0  0  0  0  0
  -25.8930  -11.7050   20.5660 N   0  0  0  0  0  0  0  0  0  0  0  0
  -23.8720  -10.4860   21.0570 C   0  0  0  0  0  0  0  0  0  0  0  0
  -24.3020   -9.5200   21.9930 C   0  0  0  0  0  3  0  0  0  0  0  0
  -23.5740   -8.3240   22.1730 C   0  0  0  0  0  3  0  0  0  0  0  0
  -22.4010   -8.0860   21.4170 C   0  0  0  0  0  0  0  0  0  0  0  0
  -21.9890   -9.0420   20.4720 C   0  0  0  0  0  3  0  0  0  0  0  0
  -22.7190  -10.2280   20.2910 C   0  0  0  0  0  3  0  0  0  0  0  0
  -21.6480   -6.9390   21.5040 O   0  0  0  0  0  0  0  0  0  0  0  0
  -21.6050   -6.1910   22.6520 C   0  0  0  0  0  0  0  0  0  0  0  0
  -21.1910   -6.7420   23.8840 C   0  0  0  0  0  3  0  0  0  0  0  0
  -21.0920   -5.9220   25.0250 C   0  0  0  0  0  3  0  0  0  0  0  0
  -21.3980   -4.5510   24.9360 C   0  0  0  0  0  0  0  0  0  0  0  0
  -21.8080   -4.0000   23.7100 C   0  0  0  0  0  3  0  0  0  0  0  0
  -21.9070   -4.8180   22.5710 C   0  0  0  0  0  0  0  0  0  0  0  0
  -22.2790   -4.2770   21.3850 F   0  0  0  0  0  0  0  0  0  0  0  0
  -21.2990   -3.7600   26.0300 F   0  0  0  0  0  0  0  0  0  0  0  0
  -22.7410  -13.5780   21.1440 C   0  0  0  0  0  0  0  0  0  0  0  0
  -22.0050  -12.8880   22.0080 N   0  0  0  0  0  0  0  0  0  0  0  0
  -22.3080  -14.6030   20.6170 O   0  0  0  0  0  0  0  0  0  0  0  0
  -22.3660  -12.0620   22.4610 H   0  0  0  0  0  0  0  0  0  0  0  0
  -21.0650  -13.1940   22.2190 H   0  0  0  0  0  0  0  0  0  0  0  0
  -25.3830  -15.2360   20.3380 N   0  0  0  0  0  0  0  0  0  0  0  0
  -24.6180  -15.8950   20.4390 H   0  0  0  0  0  0  0  0  0  0  0  0
  -26.2390  -15.6710   20.0210 H   0  0  0  0  0  0  0  0  0  0  0  0
  -28.6110  -22.9030   21.3250 C   0  0  0  0  0  2  0  0  0  0  0  0
  -28.7570  -24.1320   20.3560 C   0  0  0  0  0  3  0  0  0  0  0  0
  -28.1020  -23.9020   18.9880 C   0  0  0  0  0  0  0  0  0  0  0  0
  -28.8800  -24.3450   17.7570 C   0  0  0  0  0  1  0  0  0  0  0  0
  -26.9980  -23.3640   18.8720 O   0  0  0  0  0  0  0  0  0  0  0  0
  -28.2010  -25.4350   21.0100 C   0  0  0  0  0  2  0  0  0  0  0  0
  -28.3760  -26.6640   20.2620 O   0  0  0  0  0  0  0  0  0  0  0  0
  -24.5890  -31.9140   23.2410 C   0  0  0  0  0  0  0  0  0  0  0  0
  -27.2400  -27.4470   20.2100 C   0  0  0  0  0  0  0  0  0  0  0  0
  -23.3920  -30.5040   21.6000 C   0  0  0  0  0  3  0  0  0  0  0  0
  -24.8540  -28.9650   20.1850 C   0  0  0  0  0  0  0  0  0  0  0  0
  -25.9200  -30.8640   21.4130 C   0  0  0  0  0  2  0  0  0  0  0  0
  -26.0100  -29.4900   20.7770 C   0  0  0  0  0  0  0  0  0  0  0  0
  -27.2110  -28.7380   20.7840 C   0  0  0  0  0  3  0  0  0  0  0  0
  -26.0720  -26.9460   19.5970 C   0  0  0  0  0  3  0  0  0  0  0  0
  -24.8800  -27.6930   19.5890 C   0  0  0  0  0  3  0  0  0  0  0  0
  -23.6090  -29.8220   20.2220 C   0  0  0  0  0  2  0  0  0  0  0  0
  -24.6510  -31.1090   22.1430 N   0  0  0  0  0  0  0  0  0  0  0  0
  -23.5030  -32.1870   23.7750 O   0  0  0  0  0  0  0  0  0  0  0  0
  -22.7390  -29.4850   22.5620 C   0  0  0  0  0  0  0  0  0  0  0  0
  -21.4130  -29.3050   22.4340 N   0  0  0  0  0  0  0  0  0  0  0  0
  -23.4210  -28.8600   23.3780 O   0  0  0  0  0  0  0  0  0  0  0  0
  -20.9240  -29.8620   21.7480 H   0  0  0  0  0  0  0  0  0  0  0  0
  -18.0340  -28.1240   22.9360 C   0  0  0  0  0  0  0  0  0  0  0  0
  -20.5940  -28.3710   23.2060 C   0  0  0  0  0  3  0  0  0  0  0  0
  -20.6900  -26.9390   22.6290 C   0  0  0  0  0  2  0  0  0  0  0  0
  -19.5850  -26.6210   21.6160 C   0  0  0  0  0  2  0  0  0  0  0  0
  -18.2040  -26.7740   22.2610 C   0  0  0  0  0  2  0  0  0  0  0  0
  -19.1570  -28.8820   23.3650 C   0  0  0  0  0  0  0  0  0  0  0  0
  -18.9450  -30.1460   23.9570 C   0  0  0  0  0  3  0  0  0  0  0  0
  -17.6430  -30.6540   24.1220 C   0  0  0  0  0  3  0  0  0  0  0  0
  -16.5350  -29.8940   23.7080 C   0  0  0  0  0  3  0  0  0  0  0  0
  -16.7320  -28.6310   23.1230 C   0  0  0  0  0  3  0  0  0  0  0  0
  -25.8700  -32.5500   23.8630 C   0  0  0  0  0  3  0  0  0  0  0  0
  -25.5600  -33.9500   24.1810 N   0  0  0  0  0  0  0  0  0  0  0  0
  -25.9010  -34.9960   23.4170 C   0  0  0  0  0  0  0  0  0  0  0  0
  -26.5830  -34.8850   22.3940 O   0  0  0  0  0  0  0  0  0  0  0  0
  -24.9570  -34.1100   24.9750 H   0  0  0  0  0  0  0  0  0  0  0  0
  -24.1810  -36.7880   23.0270 C   0  0  0  0  0  1  0  0  0  0  0  0
  -25.4100  -36.3870   23.8590 C   0  0  0  0  0  3  0  0  0  0  0  0
  -27.5360  -37.2710   24.7120 C   0  0  0  0  0  1  0  0  0  0  0  0
  -26.4470  -37.4380   23.7520 N   0  0  0  0  0  0  0  0  0  0  0  0
  -26.0410  -38.3590   23.8920 H   0  0  0  0  0  0  0  0  0  0  0  0
  -26.3830  -31.7880   25.1480 C   0  0  1  0  0  0  0  0  0  0  0  0
  -25.2860  -31.5590   26.2130 C   0  0  0  0  0  1  0  0  0  0  0  0
  -26.9660  -30.4080   24.7650 C   0  0  0  0  0  1  0  0  0  0  0  0
  -27.5320  -32.5860   25.8070 C   0  0  0  0  0  1  0  0  0  0  0  0
  1  2  2  0
  2  4  1  0
  2  5  1  0
  3  1  1  0
  3 52  1  0
  6  3  1  0
  7  8  2  0
  7 11  1  0
  8 12  1  0
 10  9  1  0
 10  1  1  0
 11 10  2  0
 12 22  1  0
 12  9  2  0
 13 11  1  0
 14 22  1  0
 15 20  1  0
 16 17  1  0
 16 15  1  0
 18 17  1  0
 18 27  1  0
 18 19  1  0
 20 14  1  0
 20 19  1  0
 21 14  2  0
 22 23  1  0
 24 25  2  0
 25 44  1  0
 26 25  1  0
 26 29  1  0
 27 24  1  0
 27 28  1  0
 28 26  2  0
 29 30  1  0
 30 31  2  0
 32 35  1  0
 32 31  1  0
 33 32  2  0
 34 33  1  0
 34 29  2  0
 35 36  1  0
 36 37  1  0
 37 38  2  0
 39 38  1  0
 39 43  1  0
 40 39  2  0
 41 36  2  0
 41 40  1  0
 42 41  1  0
 44 45  1  0
 45 48  1  0
 45 47  1  0
 46 44  2  0
 49 50  1  0
 49 24  1  0
 51 49  1  0
 53 57  1  0
 53 52  1  0
 54 53  1  0
 55 54  1  0
 56 54  2  0
 58 57  1  0
 59 70  2  0
 60 58  1  0
 60 65  1  0
 61 69  1  0
 61 71  1  0
 62 68  1  0
 62 64  1  0
 63 69  1  0
 64 65  2  0
 64 63  1  0
 66 60  2  0
 67 66  1  0
 67 62  2  0
 68 61  1  0
 69 59  1  0
 71 73  2  0
 72 71  1  0
 74 72  1  0
 75 84  2  0
 75 80  1  0
 76 72  1  0
 76 80  1  0
 77 76  1  0
 78 79  1  0
 78 77  1  0
 79 75  1  0
 80 81  2  0
 81 82  1  0
 83 82  2  0
 84 83  1  0
 85 59  1  0
 85 86  1  0
 85 95  1  0
 86 89  1  0
 87 91  1  0
 87 86  1  0
 88 87  2  0
 91 90  1  0
 93 91  1  0
 93 94  1  0
 93 92  1  0
 95 98  1  1
 95 96  1  0
 97 95  1  0
M  ISO  4  14 100  22 100  57 101  58 101
M  END
>  <TORSDO>  (30) 
F 21

>  <SCORE>  (30) 
-13.854

>  <name>  (30) 
29

>  <ligand_id>  (30) 
29

>  <original_smiles>  (30) 
[H]c1c([H])c([H])c2c(c1[H])C([H])([H])C([H])([H])C([H])([H])C2([H])N([H])C(=O)C1([H])N(C(=O)C([H])(N([H])C(=O)C([H])(N([H])C([H])([H])[H])C([H])([H])[H])C(C([H])([H])[H])(C([H])([H])[H])C([H])([H])[H])C([H])([H])c2c([H])c(OC([H])([H])C([H])(C(=O)C([H])([H])[H])C([H])([H])[N+]([H])=C(c3c([H])c(N([H])C(=O)N4C([H])([H])C([H])([H])C([H])([H])C([H])(n5nc(-c6c([H])c([H])c(Oc7c([H])c([H])c(F)c([H])c7F)c([H])c6[H])c(C(=O)N([H])[H])c5N([H])[H])C4([H])[H])c([H])c([H])c3C([H])([H])[H])N([H])[H])c([H])c([H])c2C1([H])[H]

>  <smiles>  (30) 
[H]c1c([H])c([H])c2c(c1[H])C([H])([H])C([H])([H])C([H])([H])C2([H])N([H])C(=O)C1([H])N(C(=O)C([H])(N([H])C(=O)C([H])(N([H])C([H])([H])[H])C([H])([H])[H])C(C([H])([H])[H])(C([H])([H])[H])C([H])([H])[H])C([H])([H])c2c([H])c(OC([H])([H])C([H])(C(=O)C([H])([H])[H])C([H])([H])[N+]([H])=C(c3c([H])c(N([H])C(=O)N4C([H])([H])C([H])([H])C([H])([H])C([H])(n5nc(-c6c([H])c([H])c(Oc7c([H])c([H])c(F)c([H])c7F)c([H])c6[H])c(C(=O)N([H])[H])c5N([H])[H])C4([H])[H])c([H])c([H])c3C([H])([H])[H])N([H])[H])c([H])c([H])c2C1([H])[H]

$$$$
30:0:0
     RDKit          3D

 98106  0  0  1  0  0  0  0  0999 V2000
  -29.2350  -22.6710   19.4840 C   0  0  0  0  0  3  0  0  0  0  0  0
  -27.8130  -22.3010   19.0210 C   0  0  0  0  0  0  0  0  0  0  0  0
  -27.5660  -22.2900   17.7160 N   0  0  0  0  0  0  0  0  0  0  0  0
  -26.9370  -21.9990   19.8320 O   0  0  0  0  0  0  0  0  0  0  0  0
  -28.2970  -22.4970   17.0490 H   0  0  0  0  0  0  0  0  0  0  0  0
  -26.6550  -22.0250   17.3730 H   0  0  0  0  0  0  0  0  0  0  0  0
  -30.5520  -20.5510   19.9060 C   0  0  0  0  0  0  0  0  0  0  0  0
  -29.6880  -21.5120   20.2970 N   0  0  0  0  0  0  0  0  0  0  0  0
  -31.1590  -20.6040   18.8350 O   0  0  0  0  0  0  0  0  0  0  0  0
  -29.1820  -21.3580   21.1570 H   0  0  0  0  0  0  0  0  0  0  0  0
  -31.0630  -18.3380   22.9940 C   0  0  0  0  0  3  0  0  0  0  0  0
  -30.9280  -19.4690   22.1660 C   0  0  0  0  0  3  0  0  0  0  0  0
  -30.9310  -17.0420   22.4620 C   0  0  0  0  0  3  0  0  0  0  0  0
  -30.5740  -17.9980   20.2460 C   0  0  0  0  0  3  0  0  0  0  0  0
  -30.6760  -19.3200   20.7850 C   0  0  0  0  0  0  0  0  0  0  0  0
  -30.6830  -16.8490   21.0870 C   0  0  0  0  0  0  0  0  0  0  0  0
  -31.0710  -14.5220   20.1250 C   0  0  0  0  0  0  0  0  0  0  0  0
  -30.7310  -12.3530   18.9630 C   0  0  0  0  0  2  0  0  0  0  0  0
  -29.7520  -12.5590   17.7860 C   0  0  0  0  0  2  0  0  0  0  0  0
  -28.2850  -12.4600   18.2550 C   0  0  0  0  0  2  0  0  0  0  0  0
  -28.0040  -13.3100   19.5210 C   0  0  0  0  0  3  0  0  0  0  0  0
  -29.0810  -13.0460   20.5990 C   0  0  0  0  0  2  0  0  0  0  0  0
  -30.3950  -13.3420   20.0010 N   0  0  0  0  0  0  0  0  0  0  0  0
  -32.1930  -14.7020   19.6400 O   0  0  0  0  0  0  0  0  0  0  0  0
  -30.3350  -15.5220   20.6680 N   0  0  0  0  0  0  0  0  0  0  0  0
  -29.4370  -15.2030   20.9960 H   0  0  0  0  0  0  0  0  0  0  0  0
  -25.6460  -14.0120   20.2820 C   0  0  0  0  0  0  0  0  0  0  0  0
  -24.5580  -13.2830   20.6820 C   0  0  0  0  0  0  0  0  0  0  0  0
  -24.9680  -11.9150   20.6490 C   0  0  0  0  0  0  0  0  0  0  0  0
  -26.6530  -13.0910   20.0330 N   0  0  0  0  0  0  0  0  0  0  0  0
  -26.2490  -11.8250   20.3110 N   0  0  0  0  0  0  0  0  0  0  0  0
  -24.2000  -10.6820   20.8640 C   0  0  0  0  0  0  0  0  0  0  0  0
  -24.6080   -9.7160   21.8100 C   0  0  0  0  0  3  0  0  0  0  0  0
  -23.8450   -8.5460   22.0110 C   0  0  0  0  0  3  0  0  0  0  0  0
  -22.6600   -8.3350   21.2670 C   0  0  0  0  0  0  0  0  0  0  0  0
  -22.2720   -9.2890   20.3100 C   0  0  0  0  0  3  0  0  0  0  0  0
  -23.0340  -10.4510   20.1070 C   0  0  0  0  0  3  0  0  0  0  0  0
  -21.8680   -7.2170   21.3790 O   0  0  0  0  0  0  0  0  0  0  0  0
  -21.7750   -6.5140   22.5530 C   0  0  0  0  0  0  0  0  0  0  0  0
  -21.3580   -7.1250   23.7570 C   0  0  0  0  0  3  0  0  0  0  0  0
  -21.2100   -6.3520   24.9250 C   0  0  0  0  0  3  0  0  0  0  0  0
  -21.4690   -4.9680   24.8910 C   0  0  0  0  0  0  0  0  0  0  0  0
  -21.8790   -4.3560   23.6930 C   0  0  0  0  0  3  0  0  0  0  0  0
  -22.0290   -5.1280   22.5270 C   0  0  0  0  0  0  0  0  0  0  0  0
  -22.4040   -4.5300   21.3710 F   0  0  0  0  0  0  0  0  0  0  0  0
  -21.3180   -4.2230   26.0110 F   0  0  0  0  0  0  0  0  0  0  0  0
  -23.1870  -13.8130   20.9850 C   0  0  0  0  0  0  0  0  0  0  0  0
  -22.4600  -13.1590   21.8840 N   0  0  0  0  0  0  0  0  0  0  0  0
  -22.7710  -14.8450   20.4600 O   0  0  0  0  0  0  0  0  0  0  0  0
  -22.8090  -12.3250   22.3330 H   0  0  0  0  0  0  0  0  0  0  0  0
  -21.5400  -13.4980   22.1270 H   0  0  0  0  0  0  0  0  0  0  0  0
  -25.8570  -15.3760   20.0900 N   0  0  0  0  0  0  0  0  0  0  0  0
  -25.1160  -16.0570   20.2030 H   0  0  0  0  0  0  0  0  0  0  0  0
  -26.7150  -15.7790   19.7320 H   0  0  0  0  0  0  0  0  0  0  0  0
  -29.2310  -24.0760   20.2240 C   0  0  0  0  0  0  0  0  0  0  0  0
  -30.0080  -24.3410   21.1500 O   0  0  0  0  0  0  0  0  0  0  0  0
  -28.2150  -25.1530   19.7210 C   0  0  0  0  0  2  0  0  0  0  0  0
  -28.3460  -26.5100   20.2510 O   0  0  0  0  0  0  0  0  0  0  0  0
  -24.6020  -31.8610   23.2400 C   0  0  0  0  0  0  0  0  0  0  0  0
  -27.2060  -27.3180   20.1950 C   0  0  0  0  0  0  0  0  0  0  0  0
  -23.3900  -30.4610   21.6070 C   0  0  0  0  0  3  0  0  0  0  0  0
  -24.8340  -28.9050   20.1910 C   0  0  0  0  0  0  0  0  0  0  0  0
  -25.9290  -30.7740   21.4230 C   0  0  0  0  0  2  0  0  0  0  0  0
  -26.0020  -29.3960   20.7870 C   0  0  0  0  0  0  0  0  0  0  0  0
  -27.1860  -28.6100   20.7900 C   0  0  0  0  0  3  0  0  0  0  0  0
  -26.0130  -26.8760   19.5660 C   0  0  0  0  0  3  0  0  0  0  0  0
  -24.8390  -27.6470   19.5760 C   0  0  0  0  0  3  0  0  0  0  0  0
  -23.6000  -29.7790   20.2300 C   0  0  0  0  0  2  0  0  0  0  0  0
  -24.6590  -31.0480   22.1460 N   0  0  0  0  0  0  0  0  0  0  0  0
  -23.5210  -32.1480   23.7710 O   0  0  0  0  0  0  0  0  0  0  0  0
  -22.7230  -29.4500   22.5690 C   0  0  0  0  0  0  0  0  0  0  0  0
  -21.4000  -29.2650   22.4280 N   0  0  0  0  0  0  0  0  0  0  0  0
  -23.3970  -28.8370   23.4030 O   0  0  0  0  0  0  0  0  0  0  0  0
  -20.9190  -29.8120   21.7270 H   0  0  0  0  0  0  0  0  0  0  0  0
  -18.0260  -28.0490   22.8790 C   0  0  0  0  0  0  0  0  0  0  0  0
  -20.5750  -28.3370   23.2010 C   0  0  0  0  0  3  0  0  0  0  0  0
  -20.7030  -26.8940   22.6600 C   0  0  0  0  0  2  0  0  0  0  0  0
  -19.6270  -26.5380   21.6300 C   0  0  0  0  0  2  0  0  0  0  0  0
  -18.2300  -26.6860   22.2390 C   0  0  0  0  0  2  0  0  0  0  0  0
  -19.1280  -28.8300   23.3170 C   0  0  0  0  0  0  0  0  0  0  0  0
  -18.8860  -30.1050   23.8740 C   0  0  0  0  0  3  0  0  0  0  0  0
  -17.5730  -30.5980   23.9990 C   0  0  0  0  0  3  0  0  0  0  0  0
  -16.4850  -29.8140   23.5790 C   0  0  0  0  0  3  0  0  0  0  0  0
  -16.7120  -28.5410   23.0250 C   0  0  0  0  0  3  0  0  0  0  0  0
  -25.8900  -32.4880   23.8570 C   0  0  0  0  0  3  0  0  0  0  0  0
  -25.5850  -33.8860   24.1910 N   0  0  0  0  0  0  0  0  0  0  0  0
  -25.9140  -34.9380   23.4300 C   0  0  0  0  0  0  0  0  0  0  0  0
  -26.5770  -34.8350   22.3950 O   0  0  0  0  0  0  0  0  0  0  0  0
  -24.9970  -34.0410   24.9970 H   0  0  0  0  0  0  0  0  0  0  0  0
  -24.1840  -36.7330   23.0920 C   0  0  0  0  0  1  0  0  0  0  0  0
  -25.4310  -36.3270   23.8930 C   0  0  0  0  0  3  0  0  0  0  0  0
  -27.5740  -37.2090   24.7050 C   0  0  0  0  0  1  0  0  0  0  0  0
  -26.4630  -37.3800   23.7720 N   0  0  0  0  0  0  0  0  0  0  0  0
  -26.0590  -38.2990   23.9250 H   0  0  0  0  0  0  0  0  0  0  0  0
  -26.4090  -31.7130   25.1300 C   0  0  1  0  0  0  0  0  0  0  0  0
  -25.3200  -31.4760   26.2020 C   0  0  0  0  0  1  0  0  0  0  0  0
  -26.9880  -30.3340   24.7340 C   0  0  0  0  0  1  0  0  0  0  0  0
  -27.5640  -32.5030   25.7910 C   0  0  0  0  0  1  0  0  0  0  0  0
  1  2  1  0
  1 55  1  0
  1  8  1  0
  2  4  2  0
  3  2  1  0
  5  3  1  0
  6  3  1  0
  7  8  1  0
  7 15  1  0
  8 10  1  0
  9  7  2  0
 12 11  2  0
 13 11  1  0
 14 15  2  0
 14 16  1  0
 15 12  1  0
 16 13  2  0
 17 25  1  0
 18 23  1  0
 19 20  1  0
 19 18  1  0
 21 20  1  0
 21 30  1  0
 21 22  1  0
 23 17  1  0
 23 22  1  0
 24 17  2  0
 25 26  1  0
 25 16  1  0
 27 28  2  0
 28 47  1  0
 29 28  1  0
 29 32  1  0
 30 27  1  0
 30 31  1  0
 31 29  2  0
 32 33  1  0
 33 34  2  0
 35 38  1  0
 35 34  1  0
 36 35  2  0
 37 36  1  0
 37 32  2  0
 38 39  1  0
 39 40  1  0
 40 41  2  0
 42 41  1  0
 42 46  1  0
 43 42  2  0
 44 39  2  0
 44 43  1  0
 45 44  1  0
 47 48  1  0
 48 51  1  0
 48 50  1  0
 49 47  2  0
 52 53  1  0
 52 27  1  0
 54 52  1  0
 55 56  2  0
 57 55  1  0
 57 58  1  0
 59 70  2  0
 60 58  1  0
 60 65  1  0
 61 69  1  0
 61 71  1  0
 62 68  1  0
 62 64  1  0
 63 69  1  0
 64 65  2  0
 64 63  1  0
 66 67  1  0
 66 60  2  0
 67 62  2  0
 68 61  1  0
 69 59  1  0
 71 73  2  0
 72 71  1  0
 74 72  1  0
 75 84  2  0
 75 80  1  0
 76 72  1  0
 76 80  1  0
 77 76  1  0
 78 79  1  0
 78 77  1  0
 79 75  1  0
 80 81  2  0
 81 82  1  0
 83 82  2  0
 84 83  1  0
 85 59  1  0
 85 86  1  0
 85 95  1  0
 86 89  1  0
 87 91  1  0
 87 86  1  0
 88 87  2  0
 91 90  1  0
 93 91  1  0
 93 94  1  0
 93 92  1  0
 95 98  1  1
 95 96  1  0
 97 95  1  0
M  ISO  4  17 100  25 100  57 101  58 101
M  END
>  <TORSDO>  (31) 
F 21

>  <SCORE>  (31) 
-13.078

>  <name>  (31) 
30

>  <ligand_id>  (31) 
30

>  <original_smiles>  (31) 
[H]c1c([H])c(C(=O)N([H])C([H])(C(=O)N([H])[H])C(=O)C([H])([H])Oc2c([H])c([H])c3c(c2[H])C([H])([H])N(C(=O)C([H])(N([H])C(=O)C([H])(N([H])C([H])([H])[H])C([H])([H])[H])C(C([H])([H])[H])(C([H])([H])[H])C([H])([H])[H])C([H])(C(=O)N([H])C2([H])c4c([H])c([H])c([H])c([H])c4C([H])([H])C([H])([H])C2([H])[H])C3([H])[H])c([H])c(N([H])C(=O)N2C([H])([H])C([H])([H])C([H])([H])C([H])(n3nc(-c4c([H])c([H])c(Oc5c([H])c([H])c(F)c([H])c5F)c([H])c4[H])c(C(=O)N([H])[H])c3N([H])[H])C2([H])[H])c1[H]

>  <smiles>  (31) 
[H]c1c([H])c(C(=O)N([H])C([H])(C(=O)N([H])[H])C(=O)C([H])([H])Oc2c([H])c([H])c3c(c2[H])C([H])([H])N(C(=O)C([H])(N([H])C(=O)C([H])(N([H])C([H])([H])[H])C([H])([H])[H])C(C([H])([H])[H])(C([H])([H])[H])C([H])([H])[H])C([H])(C(=O)N([H])C2([H])c4c([H])c([H])c([H])c([H])c4C([H])([H])C([H])([H])C2([H])[H])C3([H])[H])c([H])c(N([H])C(=O)N2C([H])([H])C([H])([H])C([H])([H])C([H])(n3nc(-c4c([H])c([H])c(Oc5c([H])c([H])c(F)c([H])c5F)c([H])c4[H])c(C(=O)N([H])[H])c3N([H])[H])C2([H])[H])c1[H]

$$$$
31:0:0
     RDKit          3D

 96104  0  0  1  0  0  0  0  0999 V2000
  -29.6940  -18.2900   20.7850 C   0  0  0  0  0  3  0  0  0  0  0  0
  -31.9110  -17.5030   21.3790 C   0  0  0  0  0  3  0  0  0  0  0  0
  -30.0890  -19.6620   20.8900 C   0  0  0  0  0  0  0  0  0  0  0  0
  -30.5840  -17.2040   20.9980 C   0  0  0  0  0  0  0  0  0  0  0  0
  -31.4400  -19.9210   21.2800 C   0  0  0  0  0  0  0  0  0  0  0  0
  -32.3250  -18.8440   21.5190 C   0  0  0  0  0  0  0  0  0  0  0  0
  -33.6020  -19.1050   21.8990 F   0  0  0  0  0  0  0  0  0  0  0  0
  -30.6730  -14.8650   20.1130 C   0  0  0  0  0  0  0  0  0  0  0  0
  -30.3280  -12.6610   19.0280 C   0  0  0  0  0  2  0  0  0  0  0  0
  -29.3360  -12.7730   17.8530 C   0  0  0  0  0  2  0  0  0  0  0  0
  -27.8910  -12.5950   18.3490 C   0  0  0  0  0  2  0  0  0  0  0  0
  -27.5750  -13.5030   19.5690 C   0  0  0  0  0  3  0  0  0  0  0  0
  -28.6770  -13.3880   20.6480 C   0  0  0  0  0  2  0  0  0  0  0  0
  -29.9790  -13.6890   20.0260 N   0  0  0  0  0  0  0  0  0  0  0  0
  -31.7170  -15.0580   19.4860 O   0  0  0  0  0  0  0  0  0  0  0  0
  -30.1270  -15.8440   20.8770 N   0  0  0  0  0  0  0  0  0  0  0  0
  -29.2400  -15.6220   21.3020 H   0  0  0  0  0  0  0  0  0  0  0  0
  -25.2220  -14.1040   20.4280 C   0  0  0  0  0  0  0  0  0  0  0  0
  -24.1730  -13.3320   20.8440 C   0  0  0  0  0  0  0  0  0  0  0  0
  -24.6230  -11.9790   20.7610 C   0  0  0  0  0  0  0  0  0  0  0  0
  -26.2480  -13.2230   20.1200 N   0  0  0  0  0  0  0  0  0  0  0  0
  -25.8920  -11.9380   20.3760 N   0  0  0  0  0  0  0  0  0  0  0  0
  -23.9030  -10.7160   20.9770 C   0  0  0  0  0  0  0  0  0  0  0  0
  -24.3690   -9.7460   21.8920 C   0  0  0  0  0  3  0  0  0  0  0  0
  -23.6470   -8.5490   22.0950 C   0  0  0  0  0  3  0  0  0  0  0  0
  -22.4460   -8.3160   21.3840 C   0  0  0  0  0  0  0  0  0  0  0  0
  -22.0000   -9.2750   20.4600 C   0  0  0  0  0  3  0  0  0  0  0  0
  -22.7220  -10.4640   20.2540 C   0  0  0  0  0  3  0  0  0  0  0  0
  -21.6940   -7.1710   21.4940 O   0  0  0  0  0  0  0  0  0  0  0  0
  -21.6730   -6.4330   22.6520 C   0  0  0  0  0  0  0  0  0  0  0  0
  -21.2310   -6.9800   23.8760 C   0  0  0  0  0  3  0  0  0  0  0  0
  -21.1590   -6.1680   25.0250 C   0  0  0  0  0  3  0  0  0  0  0  0
  -21.5170   -4.8080   24.9510 C   0  0  0  0  0  0  0  0  0  0  0  0
  -21.9520   -4.2590   23.7310 C   0  0  0  0  0  3  0  0  0  0  0  0
  -22.0270   -5.0700   22.5850 C   0  0  0  0  0  0  0  0  0  0  0  0
  -22.4270   -4.5310   21.4070 F   0  0  0  0  0  0  0  0  0  0  0  0
  -21.4400   -4.0280   26.0540 F   0  0  0  0  0  0  0  0  0  0  0  0
  -22.7960  -13.8140   21.2010 C   0  0  0  0  0  0  0  0  0  0  0  0
  -22.1170  -13.1200   22.1080 N   0  0  0  0  0  0  0  0  0  0  0  0
  -22.3320  -14.8440   20.7120 O   0  0  0  0  0  0  0  0  0  0  0  0
  -22.5040  -12.2910   22.5310 H   0  0  0  0  0  0  0  0  0  0  0  0
  -21.1970  -13.4290   22.3900 H   0  0  0  0  0  0  0  0  0  0  0  0
  -25.3830  -15.4790   20.2710 N   0  0  0  0  0  0  0  0  0  0  0  0
  -24.6290  -16.1320   20.4600 H   0  0  0  0  0  0  0  0  0  0  0  0
  -26.2260  -15.9270   19.9360 H   0  0  0  0  0  0  0  0  0  0  0  0
  -29.0350  -20.7330   20.6010 C   0  0  0  0  0  0  0  0  0  0  0  0
  -29.3820  -22.0240   20.3590 N   0  0  0  0  0  0  0  0  0  0  0  0
  -27.8470  -20.3930   20.5450 O   0  0  0  0  0  0  0  0  0  0  0  0
  -30.3730  -22.2450   20.3940 H   0  0  0  0  0  0  0  0  0  0  0  0
  -28.3840  -23.0620   19.9900 C   0  0  0  0  0  2  0  0  0  0  0  0
  -28.8220  -24.5650   19.9340 C   0  0  0  0  0  2  0  0  0  0  0  0
  -27.6250  -25.4670   19.4890 C   0  0  0  0  0  2  0  0  0  0  0  0
  -27.8240  -26.9060   19.4460 O   0  0  0  0  0  0  0  0  0  0  0  0
  -24.4670  -31.9970   23.1520 C   0  0  0  0  0  0  0  0  0  0  0  0
  -26.6810  -27.6960   19.5500 C   0  0  0  0  0  0  0  0  0  0  0  0
  -23.0640  -30.7110   21.5740 C   0  0  0  0  0  3  0  0  0  0  0  0
  -24.3270  -29.2550   19.9000 C   0  0  0  0  0  0  0  0  0  0  0  0
  -25.5600  -31.0550   21.1130 C   0  0  0  0  0  2  0  0  0  0  0  0
  -25.5550  -29.7240   20.3850 C   0  0  0  0  0  0  0  0  0  0  0  0
  -26.7310  -28.9550   20.2040 C   0  0  0  0  0  3  0  0  0  0  0  0
  -25.4280  -27.2640   19.0480 C   0  0  0  0  0  3  0  0  0  0  0  0
  -24.2620  -28.0260   19.2270 C   0  0  0  0  0  3  0  0  0  0  0  0
  -23.1110  -30.1210   20.1390 C   0  0  0  0  0  2  0  0  0  0  0  0
  -24.3900  -31.2670   22.0020 N   0  0  0  0  0  0  0  0  0  0  0  0
  -23.4580  -32.2460   23.8250 O   0  0  0  0  0  0  0  0  0  0  0  0
  -22.5080  -29.6370   22.5350 C   0  0  0  0  0  0  0  0  0  0  0  0
  -21.1920  -29.3840   22.4530 N   0  0  0  0  0  0  0  0  0  0  0  0
  -23.2560  -29.0360   23.3130 O   0  0  0  0  0  0  0  0  0  0  0  0
  -20.6460  -29.9280   21.7990 H   0  0  0  0  0  0  0  0  0  0  0  0
  -17.9340  -27.8960   22.9490 C   0  0  0  0  0  0  0  0  0  0  0  0
  -20.4570  -28.3860   23.2310 C   0  0  0  0  0  3  0  0  0  0  0  0
  -20.6910  -26.9620   22.6780 C   0  0  0  0  0  2  0  0  0  0  0  0
  -19.6300  -26.5270   21.6610 C   0  0  0  0  0  2  0  0  0  0  0  0
  -18.2360  -26.5560   22.2950 C   0  0  0  0  0  2  0  0  0  0  0  0
  -18.9770  -28.7620   23.3740 C   0  0  0  0  0  0  0  0  0  0  0  0
  -18.6410  -30.0090   23.9400 C   0  0  0  0  0  3  0  0  0  0  0  0
  -17.2950  -30.3930   24.0910 C   0  0  0  0  0  3  0  0  0  0  0  0
  -16.2680  -29.5270   23.6820 C   0  0  0  0  0  3  0  0  0  0  0  0
  -16.5870  -28.2800   23.1140 C   0  0  0  0  0  3  0  0  0  0  0  0
  -25.8230  -32.5770   23.6610 C   0  0  0  0  0  3  0  0  0  0  0  0
  -25.5840  -33.9650   24.0750 N   0  0  0  0  0  0  0  0  0  0  0  0
  -25.9100  -35.0430   23.3500 C   0  0  0  0  0  0  0  0  0  0  0  0
  -26.5200  -34.9690   22.2800 O   0  0  0  0  0  0  0  0  0  0  0  0
  -25.0420  -34.0970   24.9160 H   0  0  0  0  0  0  0  0  0  0  0  0
  -24.2440  -36.9160   23.1550 C   0  0  0  0  0  1  0  0  0  0  0  0
  -25.4950  -36.4210   23.8990 C   0  0  0  0  0  3  0  0  0  0  0  0
  -27.6880  -37.1790   24.7000 C   0  0  0  0  0  1  0  0  0  0  0  0
  -26.5670  -37.4380   23.8050 N   0  0  0  0  0  0  0  0  0  0  0  0
  -26.2030  -38.3650   24.0100 H   0  0  0  0  0  0  0  0  0  0  0  0
  -26.4480  -31.7410   24.8450 C   0  0  1  0  0  0  0  0  0  0  0  0
  -25.4620  -31.4730   26.0060 C   0  0  0  0  0  1  0  0  0  0  0  0
  -26.9640  -30.3760   24.3310 C   0  0  0  0  0  1  0  0  0  0  0  0
  -27.6730  -32.4890   25.4210 C   0  0  0  0  0  1  0  0  0  0  0  0
  -31.9780  -21.2040   21.4540 N   0  0  0  0  0  0  0  0  0  0  0  0
  -31.5490  -21.7470   22.1960 H   0  0  0  0  0  0  0  0  0  0  0  0
  -32.9720  -21.1550   21.6510 H   0  0  0  0  0  0  0  0  0  0  0  0
  1  3  2  0
  1  4  1  0
  2  6  1  0
  3  5  1  0
  4  2  2  0
  5 94  1  0
  5  6  2  0
  6  7  1  0
  8 16  1  0
  9 14  1  0
 10 11  1  0
 10  9  1  0
 12 11  1  0
 12 21  1  0
 12 13  1  0
 14  8  1  0
 14 13  1  0
 15  8  2  0
 16  4  1  0
 16 17  1  0
 18 19  2  0
 19 38  1  0
 20 19  1  0
 20 23  1  0
 21 22  1  0
 21 18  1  0
 22 20  2  0
 23 24  1  0
 24 25  2  0
 26 29  1  0
 26 25  1  0
 27 26  2  0
 28 27  1  0
 28 23  2  0
 29 30  1  0
 30 31  1  0
 31 32  2  0
 33 32  1  0
 33 37  1  0
 34 33  2  0
 35 30  2  0
 35 34  1  0
 36 35  1  0
 38 39  1  0
 39 42  1  0
 39 41  1  0
 40 38  2  0
 43 18  1  0
 43 44  1  0
 45 43  1  0
 46  3  1  0
 47 49  1  0
 47 46  1  0
 48 46  2  0
 50 47  1  0
 51 50  1  0
 52 51  1  0
 53 52  1  0
 53 55  1  0
 54 65  2  0
 55 60  1  0
 56 64  1  0
 56 66  1  0
 57 63  1  0
 57 59  1  0
 58 64  1  0
 59 58  1  0
 60 59  2  0
 61 62  1  0
 61 55  2  0
 62 57  2  0
 63 56  1  0
 64 54  1  0
 66 68  2  0
 67 66  1  0
 69 67  1  0
 70 79  2  0
 70 75  1  0
 71 67  1  0
 71 75  1  0
 72 71  1  0
 73 74  1  0
 73 72  1  0
 74 70  1  0
 75 76  2  0
 76 77  1  0
 78 77  2  0
 79 78  1  0
 80 54  1  0
 80 81  1  0
 80 90  1  0
 81 84  1  0
 82 86  1  0
 82 81  1  0
 83 82  2  0
 86 85  1  0
 88 86  1  0
 88 89  1  0
 88 87  1  0
 90 93  1  1
 90 91  1  0
 92 90  1  0
 94 96  1  0
 94 95  1  0
M  ISO  4   8 100  16 100  52 101  53 101
M  END
>  <TORSDO>  (32) 
F 21

>  <SCORE>  (32) 
-13.017

>  <name>  (32) 
31

>  <ligand_id>  (32) 
31

>  <original_smiles>  (32) 
[H]c1c([H])c([H])c2c(c1[H])C([H])([H])C([H])([H])C([H])([H])C2([H])N([H])C(=O)C1([H])N(C(=O)C([H])(N([H])C(=O)C([H])(N([H])C([H])([H])[H])C([H])([H])[H])C(C([H])([H])[H])(C([H])([H])[H])C([H])([H])[H])C([H])([H])c2c([H])c(OC([H])([H])C([H])([H])C([H])([H])N([H])C(=O)c3c([H])c(N([H])C(=O)N4C([H])([H])C([H])([H])C([H])([H])C([H])(n5nc(-c6c([H])c([H])c(Oc7c([H])c([H])c(F)c([H])c7F)c([H])c6[H])c(C(=O)N([H])[H])c5N([H])[H])C4([H])[H])c([H])c(F)c3N([H])[H])c([H])c([H])c2C1([H])[H]

>  <smiles>  (32) 
[H]c1c([H])c([H])c2c(c1[H])C([H])([H])C([H])([H])C([H])([H])C2([H])N([H])C(=O)C1([H])N(C(=O)C([H])(N([H])C(=O)C([H])(N([H])C([H])([H])[H])C([H])([H])[H])C(C([H])([H])[H])(C([H])([H])[H])C([H])([H])[H])C([H])([H])c2c([H])c(OC([H])([H])C([H])([H])C([H])([H])N([H])C(=O)c3c([H])c(N([H])C(=O)N4C([H])([H])C([H])([H])C([H])([H])C([H])(n5nc(-c6c([H])c([H])c(Oc7c([H])c([H])c(F)c([H])c7F)c([H])c6[H])c(C(=O)N([H])[H])c5N([H])[H])C4([H])[H])c([H])c(F)c3N([H])[H])c([H])c([H])c2C1([H])[H]

$$$$
32:0:0
     RDKit          3D

 97106  0  0  1  0  0  0  0  0999 V2000
  -30.5910  -17.9010   22.7540 C   0  0  0  0  0  3  0  0  0  0  0  0
  -30.2520  -16.7250   22.0630 C   0  0  0  0  0  3  0  0  0  0  0  0
  -29.6600  -18.0900   20.1490 C   0  0  0  0  0  3  0  0  0  0  0  0
  -30.5190  -19.1900   22.1660 C   0  0  0  0  0  0  0  0  0  0  0  0
  -29.8360  -16.7530   20.7190 C   0  0  0  0  0  0  0  0  0  0  0  0
  -29.9440  -19.3370   20.8630 C   0  0  0  0  0  0  0  0  0  0  0  0
  -30.2200  -14.3290   19.7610 C   0  0  0  0  0  0  0  0  0  0  0  0
  -29.8600  -12.1820   18.5030 C   0  0  0  0  0  2  0  0  0  0  0  0
  -28.7560  -12.3560   17.4370 C   0  0  0  0  0  2  0  0  0  0  0  0
  -27.3600  -12.1220   18.0490 C   0  0  0  0  0  2  0  0  0  0  0  0
  -27.1600  -12.8800   19.3870 C   0  0  0  0  0  3  0  0  0  0  0  0
  -28.3630  -12.6930   20.3360 C   0  0  0  0  0  2  0  0  0  0  0  0
  -29.5620  -13.1260   19.6040 N   0  0  0  0  0  0  0  0  0  0  0  0
  -31.3740  -14.4550   19.3400 O   0  0  0  0  0  0  0  0  0  0  0  0
  -29.4660  -15.4490   20.1010 N   0  0  0  0  0  0  0  0  0  0  0  0
  -28.4760  -15.2660   20.0930 H   0  0  0  0  0  0  0  0  0  0  0  0
  -24.8450  -13.3640   20.3810 C   0  0  0  0  0  0  0  0  0  0  0  0
  -23.8630  -12.5420   20.8660 C   0  0  0  0  0  0  0  0  0  0  0  0
  -24.3800  -11.2130   20.7770 C   0  0  0  0  0  0  0  0  0  0  0  0
  -25.8950  -12.5330   20.0250 N   0  0  0  0  0  0  0  0  0  0  0  0
  -25.6300  -11.2350   20.3240 N   0  0  0  0  0  0  0  0  0  0  0  0
  -23.7350   -9.9210   21.0390 C   0  0  0  0  0  0  0  0  0  0  0  0
  -24.2520   -9.0180   21.9930 C   0  0  0  0  0  3  0  0  0  0  0  0
  -23.6020   -7.7880   22.2400 C   0  0  0  0  0  3  0  0  0  0  0  0
  -22.4220   -7.4550   21.5320 C   0  0  0  0  0  0  0  0  0  0  0  0
  -21.9250   -8.3480   20.5650 C   0  0  0  0  0  3  0  0  0  0  0  0
  -22.5750   -9.5670   20.3190 C   0  0  0  0  0  3  0  0  0  0  0  0
  -21.7380   -6.2740   21.6890 O   0  0  0  0  0  0  0  0  0  0  0  0
  -21.7200   -5.6030   22.8870 C   0  0  0  0  0  0  0  0  0  0  0  0
  -21.1760   -6.1810   24.0550 C   0  0  0  0  0  3  0  0  0  0  0  0
  -21.1170   -5.4310   25.2480 C   0  0  0  0  0  3  0  0  0  0  0  0
  -21.5880   -4.1050   25.2720 C   0  0  0  0  0  0  0  0  0  0  0  0
  -22.1250   -3.5280   24.1090 C   0  0  0  0  0  3  0  0  0  0  0  0
  -22.1880   -4.2730   22.9170 C   0  0  0  0  0  0  0  0  0  0  0  0
  -22.6870   -3.7050   21.7920 F   0  0  0  0  0  0  0  0  0  0  0  0
  -21.5240   -3.3840   26.4150 F   0  0  0  0  0  0  0  0  0  0  0  0
  -22.4840  -12.9580   21.2930 C   0  0  0  0  0  0  0  0  0  0  0  0
  -21.8830  -12.2240   22.2210 N   0  0  0  0  0  0  0  0  0  0  0  0
  -21.9520  -13.9690   20.8370 O   0  0  0  0  0  0  0  0  0  0  0  0
  -22.3290  -11.4060   22.6100 H   0  0  0  0  0  0  0  0  0  0  0  0
  -20.9640  -12.4830   22.5480 H   0  0  0  0  0  0  0  0  0  0  0  0
  -24.9220  -14.7390   20.1890 N   0  0  0  0  0  0  0  0  0  0  0  0
  -24.1310  -15.3480   20.3690 H   0  0  0  0  0  0  0  0  0  0  0  0
  -25.6930  -15.2200   19.7450 H   0  0  0  0  0  0  0  0  0  0  0  0
  -32.9360  -21.7490   24.9010 C   0  0  0  0  0  2  0  0  0  0  0  0
  -33.4190  -21.4750   23.4690 C   0  0  0  0  0  2  0  0  0  0  0  0
  -31.4020  -21.8600   24.9590 C   0  0  0  0  0  2  0  0  0  0  0  0
  -32.7260  -20.2340   22.8760 C   0  0  0  0  0  2  0  0  0  0  0  0
  -30.7250  -20.6100   24.3620 C   0  0  0  0  0  2  0  0  0  0  0  0
  -31.1900  -20.3700   22.9090 C   0  0  0  0  0  3  0  0  0  0  0  0
  -29.0400  -21.7840   20.7140 C   0  0  0  0  0  0  0  0  0  0  0  0
  -29.8080  -20.7050   20.2770 N   0  0  0  0  0  0  0  0  0  0  0  0
  -28.0400  -21.5790   21.4050 O   0  0  0  0  0  0  0  0  0  0  0  0
  -30.4740  -20.9270   19.5470 H   0  0  0  0  0  0  0  0  0  0  0  0
  -29.4330  -23.3170   20.4340 C   0  0  0  0  0  3  0  0  0  0  0  0
  -28.2870  -24.4530   20.2370 C   0  0  0  0  0  3  0  0  0  0  0  0
  -28.5430  -25.9380   20.3460 O   0  0  0  0  0  0  0  0  0  0  0  0
  -24.8160  -31.4940   23.2170 C   0  0  0  0  0  0  0  0  0  0  0  0
  -27.4550  -26.8490   20.2530 C   0  0  0  0  0  0  0  0  0  0  0  0
  -23.6630  -30.1520   21.4910 C   0  0  0  0  0  3  0  0  0  0  0  0
  -25.1430  -28.5690   20.1250 C   0  0  0  0  0  0  0  0  0  0  0  0
  -26.2190  -30.3800   21.4600 C   0  0  0  0  0  2  0  0  0  0  0  0
  -26.2930  -29.0020   20.7980 C   0  0  0  0  0  0  0  0  0  0  0  0
  -27.4510  -28.1560   20.8480 C   0  0  0  0  0  3  0  0  0  0  0  0
  -26.2760  -26.4820   19.5580 C   0  0  0  0  0  3  0  0  0  0  0  0
  -25.1400  -27.3150   19.4970 C   0  0  0  0  0  3  0  0  0  0  0  0
  -23.9370  -29.4900   20.1150 C   0  0  0  0  0  2  0  0  0  0  0  0
  -24.9150  -30.6960   22.1130 N   0  0  0  0  0  0  0  0  0  0  0  0
  -23.7150  -31.8020   23.6950 O   0  0  0  0  0  0  0  0  0  0  0  0
  -22.9120  -29.1500   22.4010 C   0  0  0  0  0  0  0  0  0  0  0  0
  -21.5770  -29.0750   22.2510 N   0  0  0  0  0  0  0  0  0  0  0  0
  -23.5290  -28.4450   23.2010 O   0  0  0  0  0  0  0  0  0  0  0  0
  -21.1420  -29.6970   21.5830 H   0  0  0  0  0  0  0  0  0  0  0  0
  -18.1030  -28.1950   22.7650 C   0  0  0  0  0  0  0  0  0  0  0  0
  -20.6800  -28.1650   22.9680 C   0  0  0  0  0  3  0  0  0  0  0  0
  -20.6170  -26.7850   22.2760 C   0  0  0  0  0  2  0  0  0  0  0  0
  -19.4660  -26.6650   21.2740 C   0  0  0  0  0  2  0  0  0  0  0  0
  -18.1210  -26.8960   21.9730 C   0  0  0  0  0  2  0  0  0  0  0  0
  -19.3070  -28.7980   23.2170 C   0  0  0  0  0  0  0  0  0  0  0  0
  -19.2380  -30.0210   23.9180 C   0  0  0  0  0  3  0  0  0  0  0  0
  -17.9980  -30.6380   24.1700 C   0  0  0  0  0  3  0  0  0  0  0  0
  -16.8090  -30.0300   23.7340 C   0  0  0  0  0  3  0  0  0  0  0  0
  -16.8620  -28.8080   23.0380 C   0  0  0  0  0  3  0  0  0  0  0  0
  -26.0810  -32.0790   23.9200 C   0  0  0  0  0  3  0  0  0  0  0  0
  -26.5220  -31.2510   25.1920 C   0  0  1  0  0  0  0  0  0  0  0  0
  -25.3790  -31.0050   26.2050 C   0  0  0  0  0  1  0  0  0  0  0  0
  -27.0890  -29.8720   24.7790 C   0  0  0  0  0  1  0  0  0  0  0  0
  -27.6640  -31.9920   25.9300 C   0  0  0  0  0  1  0  0  0  0  0  0
  -25.7840  -33.4690   24.2880 N   0  0  0  0  0  0  0  0  0  0  0  0
  -26.1370  -34.5410   23.5670 C   0  0  0  0  0  0  0  0  0  0  0  0
  -26.8220  -34.4630   22.5430 O   0  0  0  0  0  0  0  0  0  0  0  0
  -25.1780  -33.6020   25.0860 H   0  0  0  0  0  0  0  0  0  0  0  0
  -24.4230  -36.3600   23.2690 C   0  0  0  0  0  1  0  0  0  0  0  0
  -25.6630  -35.9220   24.0640 C   0  0  0  0  0  3  0  0  0  0  0  0
  -27.8000  -36.7770   24.9210 C   0  0  0  0  0  1  0  0  0  0  0  0
  -26.7040  -36.9710   23.9750 N   0  0  0  0  0  0  0  0  0  0  0  0
  -26.3050  -37.8900   24.1420 H   0  0  0  0  0  0  0  0  0  0  0  0
  2  1  2  0
  3  5  2  0
  3  6  1  0
  4  1  1  0
  4 50  1  0
  5  2  1  0
  6  4  2  0
  7 15  1  0
  8 13  1  0
  9 10  1  0
  9  8  1  0
 11 10  1  0
 11 20  1  0
 11 12  1  0
 13  7  1  0
 13 12  1  0
 14  7  2  0
 15  5  1  0
 16 15  1  0
 17 18  2  0
 18 37  1  0
 19 18  1  0
 19 22  1  0
 20 21  1  0
 20 17  1  0
 21 19  2  0
 22 23  1  0
 23 24  2  0
 25 28  1  0
 25 24  1  0
 26 25  2  0
 27 26  1  0
 27 22  2  0
 28 29  1  0
 29 34  2  0
 29 30  1  0
 30 31  2  0
 31 32  1  0
 32 36  1  0
 33 32  2  0
 34 33  1  0
 35 34  1  0
 37 38  1  0
 38 41  1  0
 38 40  1  0
 39 37  2  0
 42 43  1  0
 42 17  1  0
 44 42  1  0
 45 47  1  0
 46 45  1  0
 48 50  1  0
 48 46  1  0
 49 47  1  0
 50 49  1  0
 51 53  2  0
 52 51  1  0
 52  6  1  0
 54 52  1  0
 55 51  1  0
 56 57  1  0
 56 55  2  0
 58 69  2  0
 59 57  1  0
 59 64  1  0
 60 68  1  0
 60 70  1  0
 61 63  1  0
 62 68  1  0
 63 64  2  0
 63 62  1  0
 65 59  2  0
 66 65  1  0
 66 61  2  0
 67 61  1  0
 67 60  1  0
 68 58  1  0
 70 72  2  0
 71 70  1  0
 73 71  1  0
 74 83  2  0
 74 79  1  0
 75 71  1  0
 75 79  1  0
 76 75  1  0
 77 78  1  0
 77 76  1  0
 78 74  1  0
 79 80  2  0
 80 81  1  0
 82 81  2  0
 83 82  1  0
 84 58  1  0
 84 89  1  0
 84 85  1  0
 85 88  1  1
 85 86  1  0
 87 85  1  0
 89 92  1  0
 90 94  1  0
 90 89  1  0
 91 90  2  0
 94 93  1  0
 96 94  1  0
 96 97  1  0
 96 95  1  0
M  ISO  4   7 100  15 100  56 101  57 101
M  END
>  <TORSDO>  (33) 
F 20

>  <SCORE>  (33) 
-9.945

>  <name>  (33) 
32

>  <ligand_id>  (33) 
32

>  <original_smiles>  (33) 
[H]c1c([H])c([H])c2c(c1[H])C([H])([H])C([H])([H])C([H])([H])C2([H])N([H])C(=O)C1([H])N(C(=O)C([H])(N([H])C(=O)C([H])(N([H])C([H])([H])[H])C([H])([H])[H])C(C([H])([H])[H])(C([H])([H])[H])C([H])([H])[H])C([H])([H])c2c([H])c(OC([H])([H])C([H])([H])C(=O)N([H])c3c([H])c(N([H])C(=O)N4C([H])([H])C([H])([H])C([H])([H])C([H])(n5nc(-c6c([H])c([H])c(Oc7c([H])c([H])c(F)c([H])c7F)c([H])c6[H])c(C(=O)N([H])[H])c5N([H])[H])C4([H])[H])c([H])c([H])c3C3([H])C([H])([H])C([H])([H])C([H])([H])C([H])([H])C3([H])[H])c([H])c([H])c2C1([H])[H]

>  <smiles>  (33) 
[H]c1c([H])c([H])c2c(c1[H])C([H])([H])C([H])([H])C([H])([H])C2([H])N([H])C(=O)C1([H])N(C(=O)C([H])(N([H])C(=O)C([H])(N([H])C([H])([H])[H])C([H])([H])[H])C(C([H])([H])[H])(C([H])([H])[H])C([H])([H])[H])C([H])([H])c2c([H])c(OC([H])([H])C([H])([H])C(=O)N([H])c3c([H])c(N([H])C(=O)N4C([H])([H])C([H])([H])C([H])([H])C([H])(n5nc(-c6c([H])c([H])c(Oc7c([H])c([H])c(F)c([H])c7F)c([H])c6[H])c(C(=O)N([H])[H])c5N([H])[H])C4([H])[H])c([H])c([H])c3C3([H])C([H])([H])C([H])([H])C([H])([H])C([H])([H])C3([H])[H])c([H])c([H])c2C1([H])[H]

$$$$
33:0:0
     RDKit          3D

 98107  0  0  1  0  0  0  0  0999 V2000
  -30.8710  -18.1220   21.3850 C   0  0  0  0  0  3  0  0  0  0  0  0
  -29.1270  -18.9230   19.9180 C   0  0  0  0  0  3  0  0  0  0  0  0
  -31.2150  -19.4600   21.6870 C   0  0  0  0  0  0  0  0  0  0  0  0
  -30.5630  -20.5560   21.0360 C   0  0  0  0  0  0  0  0  0  0  0  0
  -29.4660  -20.3400   20.1440 C   0  0  0  0  0  0  0  0  0  0  0  0
  -29.8450  -17.7810   20.4870 C   0  0  0  0  0  0  0  0  0  0  0  0
  -31.1240  -21.9630   21.2300 C   0  0  0  0  0  1  0  0  0  0  0  0
  -30.3790  -15.1990   20.2390 C   0  0  0  0  0  0  0  0  0  0  0  0
  -30.2990  -12.8570   19.3330 C   0  0  0  0  0  2  0  0  0  0  0  0
  -29.3460  -12.7860   18.1210 C   0  0  0  0  0  2  0  0  0  0  0  0
  -27.8960  -12.5440   18.5840 C   0  0  0  0  0  2  0  0  0  0  0  0
  -27.4770  -13.4770   19.7510 C   0  0  0  0  0  3  0  0  0  0  0  0
  -28.5520  -13.5360   20.8580 C   0  0  0  0  0  2  0  0  0  0  0  0
  -29.8070  -13.9420   20.2150 N   0  0  0  0  0  0  0  0  0  0  0  0
  -31.5770  -15.3160   19.9670 O   0  0  0  0  0  0  0  0  0  0  0  0
  -29.5460  -16.3250   20.2810 N   0  0  0  0  0  0  0  0  0  0  0  0
  -28.5660  -16.1010   20.2080 H   0  0  0  0  0  0  0  0  0  0  0  0
  -25.1020  -13.9830   20.5750 C   0  0  0  0  0  0  0  0  0  0  0  0
  -24.0680  -13.1700   20.9490 C   0  0  0  0  0  0  0  0  0  0  0  0
  -24.5620  -11.8330   20.8600 C   0  0  0  0  0  0  0  0  0  0  0  0
  -26.1590  -13.1370   20.2770 N   0  0  0  0  0  0  0  0  0  0  0  0
  -25.8440  -11.8380   20.5140 N   0  0  0  0  0  0  0  0  0  0  0  0
  -23.8700  -10.5480   21.0270 C   0  0  0  0  0  0  0  0  0  0  0  0
  -24.3230   -9.5800   21.9500 C   0  0  0  0  0  3  0  0  0  0  0  0
  -23.6290   -8.3600   22.1070 C   0  0  0  0  0  3  0  0  0  0  0  0
  -22.4690   -8.1000   21.3390 C   0  0  0  0  0  0  0  0  0  0  0  0
  -22.0350   -9.0570   20.4050 C   0  0  0  0  0  3  0  0  0  0  0  0
  -22.7300  -10.2680   20.2470 C   0  0  0  0  0  3  0  0  0  0  0  0
  -21.7450   -6.9340   21.4050 O   0  0  0  0  0  0  0  0  0  0  0  0
  -21.6690   -6.1990   22.5620 C   0  0  0  0  0  0  0  0  0  0  0  0
  -21.1320   -6.7370   23.7510 C   0  0  0  0  0  3  0  0  0  0  0  0
  -21.0080   -5.9260   24.8970 C   0  0  0  0  0  3  0  0  0  0  0  0
  -21.4090   -4.5780   24.8540 C   0  0  0  0  0  0  0  0  0  0  0  0
  -21.9380   -4.0390   23.6670 C   0  0  0  0  0  3  0  0  0  0  0  0
  -22.0640   -4.8470   22.5240 C   0  0  0  0  0  0  0  0  0  0  0  0
  -22.5550   -4.3170   21.3770 F   0  0  0  0  0  0  0  0  0  0  0  0
  -21.2830   -3.7960   25.9510 F   0  0  0  0  0  0  0  0  0  0  0  0
  -22.6670  -13.6040   21.2730 C   0  0  0  0  0  0  0  0  0  0  0  0
  -21.9830  -12.8680   22.1410 N   0  0  0  0  0  0  0  0  0  0  0  0
  -22.1890  -14.6310   20.7920 O   0  0  0  0  0  0  0  0  0  0  0  0
  -22.3830  -12.0370   22.5510 H   0  0  0  0  0  0  0  0  0  0  0  0
  -21.0450  -13.1400   22.4000 H   0  0  0  0  0  0  0  0  0  0  0  0
  -25.2250  -15.3620   20.4370 N   0  0  0  0  0  0  0  0  0  0  0  0
  -24.4430  -15.9880   20.5900 H   0  0  0  0  0  0  0  0  0  0  0  0
  -26.0400  -15.8360   20.0700 H   0  0  0  0  0  0  0  0  0  0  0  0
  -27.8720  -24.0320   18.8880 C   0  0  0  0  0  0  0  0  0  0  0  0
  -28.8610  -21.3060   18.0040 C   0  0  0  0  0  0  0  0  0  0  0  0
  -27.6670  -25.4250   18.8150 C   0  0  0  0  0  3  0  0  0  0  0  0
  -27.2810  -23.2660   17.7220 C   0  0  0  0  0  2  0  0  0  0  0  0
  -28.5390  -22.9530   19.8810 C   0  0  0  0  0  2  0  0  0  0  0  0
  -28.3380  -22.3930   17.0680 C   0  0  0  0  0  2  0  0  0  0  0  0
  -28.8790  -21.5020   19.3560 N   0  0  0  0  0  0  0  0  0  0  0  0
  -29.2630  -20.2720   17.4550 O   0  0  0  0  0  0  0  0  0  0  0  0
  -27.8660  -26.6150   19.5840 O   0  0  0  0  0  0  0  0  0  0  0  0
  -24.4640  -32.0240   23.1730 C   0  0  0  0  0  0  0  0  0  0  0  0
  -26.8050  -27.5730   19.6610 C   0  0  0  0  0  0  0  0  0  0  0  0
  -23.1370  -30.7230   21.5550 C   0  0  0  0  0  3  0  0  0  0  0  0
  -24.4680  -29.2560   19.9350 C   0  0  0  0  0  0  0  0  0  0  0  0
  -25.6680  -31.0270   21.2030 C   0  0  0  0  0  2  0  0  0  0  0  0
  -25.6910  -29.6830   20.4670 C   0  0  0  0  0  0  0  0  0  0  0  0
  -26.8620  -28.8570   20.3200 C   0  0  0  0  0  3  0  0  0  0  0  0
  -25.5360  -27.2210   19.1340 C   0  0  0  0  0  3  0  0  0  0  0  0
  -24.3970  -28.0340   19.2590 C   0  0  0  0  0  3  0  0  0  0  0  0
  -23.2470  -30.1350   20.1260 C   0  0  0  0  0  2  0  0  0  0  0  0
  -24.4470  -31.2740   22.0320 N   0  0  0  0  0  0  0  0  0  0  0  0
  -23.4230  -32.2730   23.8000 O   0  0  0  0  0  0  0  0  0  0  0  0
  -22.5400  -29.6530   22.5020 C   0  0  0  0  0  0  0  0  0  0  0  0
  -21.2170  -29.4300   22.4140 N   0  0  0  0  0  0  0  0  0  0  0  0
  -23.2660  -29.0280   23.2800 O   0  0  0  0  0  0  0  0  0  0  0  0
  -20.6850  -29.9880   21.7610 H   0  0  0  0  0  0  0  0  0  0  0  0
  -17.9180  -28.0270   22.9300 C   0  0  0  0  0  0  0  0  0  0  0  0
  -20.4590  -28.4400   23.1830 C   0  0  0  0  0  3  0  0  0  0  0  0
  -20.6420  -27.0210   22.5960 C   0  0  0  0  0  2  0  0  0  0  0  0
  -19.5540  -26.6400   21.5870 C   0  0  0  0  0  2  0  0  0  0  0  0
  -18.1710  -26.6960   22.2410 C   0  0  0  0  0  2  0  0  0  0  0  0
  -18.9930  -28.8520   23.3580 C   0  0  0  0  0  0  0  0  0  0  0  0
  -18.7010  -30.0940   23.9630 C   0  0  0  0  0  3  0  0  0  0  0  0
  -17.3700  -30.5130   24.1440 C   0  0  0  0  0  3  0  0  0  0  0  0
  -16.3110  -29.6850   23.7310 C   0  0  0  0  0  3  0  0  0  0  0  0
  -16.5860  -28.4440   23.1290 C   0  0  0  0  0  3  0  0  0  0  0  0
  -25.7880  -32.6260   23.7320 C   0  0  0  0  0  3  0  0  0  0  0  0
  -26.3740  -31.8080   24.9480 C   0  0  1  0  0  0  0  0  0  0  0  0
  -25.3490  -31.5520   26.0780 C   0  0  0  0  0  1  0  0  0  0  0  0
  -26.9110  -30.4350   24.4810 C   0  0  0  0  0  1  0  0  0  0  0  0
  -27.5770  -32.5660   25.5570 C   0  0  0  0  0  1  0  0  0  0  0  0
  -25.5140  -34.0150   24.1300 N   0  0  0  0  0  0  0  0  0  0  0  0
  -25.8670  -35.0950   23.4200 C   0  0  0  0  0  0  0  0  0  0  0  0
  -26.5250  -35.0250   22.3790 O   0  0  0  0  0  0  0  0  0  0  0  0
  -24.9290  -34.1440   24.9420 H   0  0  0  0  0  0  0  0  0  0  0  0
  -24.1920  -36.9560   23.1600 C   0  0  0  0  0  1  0  0  0  0  0  0
  -25.4190  -36.4730   23.9500 C   0  0  0  0  0  3  0  0  0  0  0  0
  -27.5730  -37.2540   24.8340 C   0  0  0  0  0  1  0  0  0  0  0  0
  -26.4830  -37.4990   23.8930 N   0  0  0  0  0  0  0  0  0  0  0  0
  -26.1020  -38.4220   24.0830 H   0  0  0  0  0  0  0  0  0  0  0  0
  -32.3390  -19.6790   22.7080 C   0  0  1  0  0  0  0  0  0  0  0  0
  -32.5000  -18.6220   23.5070 F   0  0  0  0  0  0  0  0  0  0  0  0
  -33.4960  -19.8860   22.0780 F   0  0  0  0  0  0  0  0  0  0  0  0
  -32.0780  -20.7210   23.4990 F   0  0  0  0  0  0  0  0  0  0  0  0
  1  3  1  0
  2  5  2  0
  2  6  1  0
  3 95  1  0
  4  7  1  0
  4  3  2  0
  5  4  1  0
  6  1  2  0
  8 16  1  0
  9 14  1  0
 10 11  1  0
 10  9  1  0
 12 11  1  0
 12 21  1  0
 12 13  1  0
 14  8  1  0
 14 13  1  0
 15  8  2  0
 16  6  1  0
 17 16  1  0
 18 19  2  0
 19 38  1  0
 20 19  1  0
 20 23  1  0
 21 22  1  0
 21 18  1  0
 22 20  2  0
 23 24  1  0
 24 25  2  0
 26 29  1  0
 26 25  1  0
 27 26  2  0
 28 27  1  0
 28 23  2  0
 29 30  1  0
 30 31  1  0
 31 32  2  0
 33 32  1  0
 33 37  1  0
 34 33  2  0
 35 30  2  0
 35 34  1  0
 36 35  1  0
 38 39  1  0
 39 42  1  0
 39 41  1  0
 40 38  2  0
 43 18  1  0
 43 44  1  0
 45 43  1  0
 46 50  1  0
 47 52  1  0
 48 46  2  0
 48 54  1  0
 49 46  1  0
 51 49  1  0
 51 47  1  0
 52 50  1  0
 52  5  1  0
 53 47  2  0
 54 56  1  0
 55 66  2  0
 56 61  1  0
 57 65  1  0
 57 67  1  0
 58 64  1  0
 58 60  1  0
 59 65  1  0
 60 59  1  0
 61 60  2  0
 62 63  1  0
 62 56  2  0
 63 58  2  0
 64 57  1  0
 65 55  1  0
 67 69  2  0
 68 67  1  0
 70 68  1  0
 71 80  2  0
 71 76  1  0
 72 68  1  0
 72 76  1  0
 73 72  1  0
 74 75  1  0
 74 73  1  0
 75 71  1  0
 76 77  2  0
 77 78  1  0
 79 78  2  0
 80 79  1  0
 81 55  1  0
 81 86  1  0
 81 82  1  0
 82 85  1  1
 82 83  1  0
 84 82  1  0
 86 89  1  0
 87 91  1  0
 87 86  1  0
 88 87  2  0
 91 90  1  0
 93 91  1  0
 93 94  1  0
 93 92  1  0
 95 98  1  1
 95 96  1  0
 97 95  1  0
M  ISO  4   8 100  16 100  48 101  54 101
M  END
>  <TORSDO>  (34) 
F 18

>  <SCORE>  (34) 
-13.705

>  <name>  (34) 
33

>  <ligand_id>  (34) 
33

>  <original_smiles>  (34) 
[H]C(Oc1c([H])c([H])c2c(c1[H])C([H])([H])N(C(=O)C([H])(N([H])C(=O)C([H])(N([H])C([H])([H])[H])C([H])([H])[H])C(C([H])([H])[H])(C([H])([H])[H])C([H])([H])[H])C([H])(C(=O)N([H])C1([H])c3c([H])c([H])c([H])c([H])c3C([H])([H])C([H])([H])C1([H])[H])C2([H])[H])=C1C([H])([H])N(c2c([H])c(N([H])C(=O)N3C([H])([H])C([H])([H])C([H])([H])C([H])(n4nc(-c5c([H])c([H])c(Oc6c([H])c([H])c(F)c([H])c6F)c([H])c5[H])c(C(=O)N([H])[H])c4N([H])[H])C3([H])[H])c([H])c(C(F)(F)F)c2C([H])([H])[H])C(=O)C([H])([H])C1([H])[H]

>  <smiles>  (34) 
[H]C(Oc1c([H])c([H])c2c(c1[H])C([H])([H])N(C(=O)C([H])(N([H])C(=O)C([H])(N([H])C([H])([H])[H])C([H])([H])[H])C(C([H])([H])[H])(C([H])([H])[H])C([H])([H])[H])C([H])(C(=O)N([H])C1([H])c3c([H])c([H])c([H])c([H])c3C([H])([H])C([H])([H])C1([H])[H])C2([H])[H])=C1C([H])([H])N(c2c([H])c(N([H])C(=O)N3C([H])([H])C([H])([H])C([H])([H])C([H])(n4nc(-c5c([H])c([H])c(Oc6c([H])c([H])c(F)c([H])c6F)c([H])c5[H])c(C(=O)N([H])[H])c4N([H])[H])C3([H])[H])c([H])c(C(F)(F)F)c2C([H])([H])[H])C(=O)C([H])([H])C1([H])[H]

$$$$
34:0:0
     RDKit          3D

 97106  0  0  1  0  0  0  0  0999 V2000
  -27.2010  -20.7410   20.2210 C   0  0  0  0  0  0  0  0  0  0  0  0
  -26.2490  -21.9630   20.2140 C   0  0  0  0  0  2  0  0  0  0  0  0
  -26.8580  -23.2820   19.6880 C   0  0  0  0  0  2  0  0  0  0  0  0
  -29.0790  -22.2840   20.1800 C   0  0  0  0  0  2  0  0  0  0  0  0
  -28.1830  -23.6190   20.3770 C   0  0  0  0  0  3  0  0  0  0  0  0
  -28.5200  -20.9070   20.5600 N   0  0  0  0  0  0  0  0  0  0  0  0
  -26.7020  -19.6550   19.9210 O   0  0  0  0  0  0  0  0  0  0  0  0
  -30.9250  -18.7750   22.7120 C   0  0  0  0  0  3  0  0  0  0  0  0
  -30.7890  -17.4750   22.1740 C   0  0  0  0  0  3  0  0  0  0  0  0
  -29.2120  -18.3770   20.5940 C   0  0  0  0  0  3  0  0  0  0  0  0
  -30.2440  -19.9230   22.2080 C   0  0  0  0  0  0  0  0  0  0  0  0
  -29.3450  -19.7490   21.0900 C   0  0  0  0  0  0  0  0  0  0  0  0
  -29.8910  -17.2010   21.1160 C   0  0  0  0  0  0  0  0  0  0  0  0
  -30.3730  -14.6890   20.3850 C   0  0  0  0  0  0  0  0  0  0  0  0
  -30.1830  -12.4930   19.1690 C   0  0  0  0  0  2  0  0  0  0  0  0
  -29.1720  -12.5720   18.0040 C   0  0  0  0  0  2  0  0  0  0  0  0
  -27.7340  -12.3210   18.4990 C   0  0  0  0  0  2  0  0  0  0  0  0
  -27.3980  -13.1190   19.7820 C   0  0  0  0  0  3  0  0  0  0  0  0
  -28.5150  -13.0090   20.8430 C   0  0  0  0  0  2  0  0  0  0  0  0
  -29.7600  -13.4600   20.2110 N   0  0  0  0  0  0  0  0  0  0  0  0
  -31.5450  -14.8260   20.0270 O   0  0  0  0  0  0  0  0  0  0  0  0
  -29.5770  -15.7920   20.7100 N   0  0  0  0  0  0  0  0  0  0  0  0
  -28.5930  -15.5640   20.7550 H   0  0  0  0  0  0  0  0  0  0  0  0
  -25.0330  -13.5990   20.6610 C   0  0  0  0  0  0  0  0  0  0  0  0
  -24.0070  -12.7690   21.0300 C   0  0  0  0  0  0  0  0  0  0  0  0
  -24.5000  -11.4390   20.8920 C   0  0  0  0  0  0  0  0  0  0  0  0
  -26.0860  -12.7610   20.3180 N   0  0  0  0  0  0  0  0  0  0  0  0
  -25.7760  -11.4550   20.5230 N   0  0  0  0  0  0  0  0  0  0  0  0
  -23.8160  -10.1470   21.0330 C   0  0  0  0  0  0  0  0  0  0  0  0
  -24.2390   -9.1910   21.9800 C   0  0  0  0  0  3  0  0  0  0  0  0
  -23.5550   -7.9620   22.1170 C   0  0  0  0  0  3  0  0  0  0  0  0
  -22.4320   -7.6850   21.3020 C   0  0  0  0  0  0  0  0  0  0  0  0
  -22.0260   -8.6300   20.3440 C   0  0  0  0  0  3  0  0  0  0  0  0
  -22.7140   -9.8490   20.2060 C   0  0  0  0  0  3  0  0  0  0  0  0
  -21.7220   -6.5060   21.3440 O   0  0  0  0  0  0  0  0  0  0  0  0
  -21.5640   -5.8030   22.5090 C   0  0  0  0  0  0  0  0  0  0  0  0
  -20.9160   -6.3570   23.6380 C   0  0  0  0  0  3  0  0  0  0  0  0
  -20.7130   -5.5730   24.7900 C   0  0  0  0  0  3  0  0  0  0  0  0
  -21.1470   -4.2340   24.8180 C   0  0  0  0  0  0  0  0  0  0  0  0
  -21.7870   -3.6790   23.6960 C   0  0  0  0  0  3  0  0  0  0  0  0
  -21.9930   -4.4590   22.5470 C   0  0  0  0  0  0  0  0  0  0  0  0
  -22.5900   -3.9110   21.4590 F   0  0  0  0  0  0  0  0  0  0  0  0
  -20.9470   -3.4790   25.9230 F   0  0  0  0  0  0  0  0  0  0  0  0
  -22.6110  -13.1920   21.3900 C   0  0  0  0  0  0  0  0  0  0  0  0
  -21.9420  -12.4180   22.2410 N   0  0  0  0  0  0  0  0  0  0  0  0
  -22.1210  -14.2290   20.9550 O   0  0  0  0  0  0  0  0  0  0  0  0
  -22.3520  -11.5750   22.6120 H   0  0  0  0  0  0  0  0  0  0  0  0
  -21.0050  -12.6710   22.5150 H   0  0  0  0  0  0  0  0  0  0  0  0
  -25.1520  -14.9830   20.5710 N   0  0  0  0  0  0  0  0  0  0  0  0
  -24.3780  -15.6080   20.7790 H   0  0  0  0  0  0  0  0  0  0  0  0
  -25.9610  -15.4760   20.2140 H   0  0  0  0  0  0  0  0  0  0  0  0
  -30.4480  -21.2710   22.8520 C   0  0  0  0  0  3  0  0  0  0  0  0
  -31.2550  -21.7410   23.8440 C   0  0  0  0  0  0  0  0  0  0  0  0
  -31.1970  -23.2160   24.2300 C   0  0  0  0  0  1  0  0  0  0  0  0
  -32.2850  -20.9660   24.6630 C   0  0  0  0  0  1  0  0  0  0  0  0
  -28.8170  -24.9900   19.7900 C   0  0  0  0  0  2  0  0  0  0  0  0
  -28.6280  -26.3660   20.3290 O   0  0  0  0  0  0  0  0  0  0  0  0
  -24.6080  -31.6680   23.0150 C   0  0  0  0  0  0  0  0  0  0  0  0
  -27.4950  -27.1740   20.1340 C   0  0  0  0  0  0  0  0  0  0  0  0
  -23.5450  -30.2560   21.2780 C   0  0  0  0  0  3  0  0  0  0  0  0
  -25.1210  -28.7570   19.9350 C   0  0  0  0  0  0  0  0  0  0  0  0
  -26.0760  -30.6410   21.2610 C   0  0  0  0  0  2  0  0  0  0  0  0
  -26.2290  -29.2630   20.6200 C   0  0  0  0  0  0  0  0  0  0  0  0
  -27.4150  -28.4790   20.7190 C   0  0  0  0  0  3  0  0  0  0  0  0
  -26.3680  -26.7180   19.4170 C   0  0  0  0  0  3  0  0  0  0  0  0
  -25.1900  -27.4890   19.3320 C   0  0  0  0  0  3  0  0  0  0  0  0
  -23.8730  -29.6140   19.9030 C   0  0  0  0  0  2  0  0  0  0  0  0
  -24.7560  -30.8750   21.9110 N   0  0  0  0  0  0  0  0  0  0  0  0
  -23.4900  -31.9140   23.4890 O   0  0  0  0  0  0  0  0  0  0  0  0
  -22.8570  -29.2090   22.1860 C   0  0  0  0  0  0  0  0  0  0  0  0
  -21.5260  -29.0760   22.0650 N   0  0  0  0  0  0  0  0  0  0  0  0
  -23.5230  -28.5210   22.9670 O   0  0  0  0  0  0  0  0  0  0  0  0
  -21.0480  -29.7120   21.4410 H   0  0  0  0  0  0  0  0  0  0  0  0
  -18.1000  -28.0600   22.6310 C   0  0  0  0  0  0  0  0  0  0  0  0
  -20.6800  -28.1240   22.7910 C   0  0  0  0  0  3  0  0  0  0  0  0
  -20.6570  -26.7450   22.0900 C   0  0  0  0  0  2  0  0  0  0  0  0
  -19.4930  -26.5910   21.1070 C   0  0  0  0  0  2  0  0  0  0  0  0
  -18.1530  -26.7680   21.8320 C   0  0  0  0  0  2  0  0  0  0  0  0
  -19.2910  -28.7020   23.0700 C   0  0  0  0  0  0  0  0  0  0  0  0
  -19.1890  -29.9140   23.7800 C   0  0  0  0  0  3  0  0  0  0  0  0
  -17.9340  -30.4810   24.0660 C   0  0  0  0  0  3  0  0  0  0  0  0
  -16.7570  -29.8320   23.6480 C   0  0  0  0  0  3  0  0  0  0  0  0
  -16.8450  -28.6270   22.9310 C   0  0  0  0  0  3  0  0  0  0  0  0
  -25.8340  -32.3270   23.7180 C   0  0  0  0  0  3  0  0  0  0  0  0
  -26.3270  -31.5280   24.9870 C   0  0  1  0  0  0  0  0  0  0  0  0
  -25.2000  -31.2200   26.0040 C   0  0  0  0  0  1  0  0  0  0  0  0
  -26.9740  -30.1860   24.5660 C   0  0  0  0  0  1  0  0  0  0  0  0
  -27.4160  -32.3420   25.7250 C   0  0  0  0  0  1  0  0  0  0  0  0
  -25.4460  -33.6930   24.0900 N   0  0  0  0  0  0  0  0  0  0  0  0
  -25.7510  -34.7900   23.3840 C   0  0  0  0  0  0  0  0  0  0  0  0
  -26.4500  -34.7570   22.3670 O   0  0  0  0  0  0  0  0  0  0  0  0
  -24.8240  -33.7890   24.8810 H   0  0  0  0  0  0  0  0  0  0  0  0
  -23.9450  -36.5140   23.0540 C   0  0  0  0  0  1  0  0  0  0  0  0
  -25.1900  -36.1370   23.8740 C   0  0  0  0  0  3  0  0  0  0  0  0
  -27.2530  -37.1170   24.7830 C   0  0  0  0  0  1  0  0  0  0  0  0
  -26.1680  -37.2460   23.8140 N   0  0  0  0  0  0  0  0  0  0  0  0
  -25.7080  -38.1360   23.9720 H   0  0  0  0  0  0  0  0  0  0  0  0
  1  6  1  0
  2  1  1  0
  3  2  1  0
  3  5  1  0
  4  5  1  0
  4  6  1  0
  5 56  1  0
  6 12  1  0
  7  1  2  0
  9  8  2  0
 10 12  1  0
 10 13  2  0
 11  8  1  0
 11 52  1  0
 12 11  2  0
 13  9  1  0
 14 22  1  0
 15 20  1  0
 16 17  1  0
 16 15  1  0
 18 17  1  0
 18 27  1  0
 18 19  1  0
 20 14  1  0
 20 19  1  0
 21 14  2  0
 22 23  1  0
 22 13  1  0
 24 25  2  0
 25 44  1  0
 26 25  1  0
 26 29  1  0
 27 28  1  0
 27 24  1  0
 28 26  2  0
 29 30  1  0
 30 31  2  0
 32 35  1  0
 32 31  1  0
 33 32  2  0
 34 33  1  0
 34 29  2  0
 35 36  1  0
 36 41  2  0
 36 37  1  0
 37 38  2  0
 38 39  1  0
 39 43  1  0
 40 39  2  0
 41 40  1  0
 42 41  1  0
 44 45  1  0
 45 48  1  0
 45 47  1  0
 46 44  2  0
 49 24  1  0
 49 50  1  0
 51 49  1  0
 52 53  2  0
 53 54  1  0
 53 55  1  0
 56 57  1  0
 58 69  2  0
 59 57  1  0
 59 64  1  0
 60 68  1  0
 60 70  1  0
 61 63  1  0
 62 68  1  0
 63 64  2  0
 63 62  1  0
 65 59  2  0
 66 65  1  0
 66 61  2  0
 67 61  1  0
 67 60  1  0
 68 58  1  0
 70 72  2  0
 71 70  1  0
 73 71  1  0
 74 83  2  0
 74 79  1  0
 75 71  1  0
 75 79  1  0
 76 75  1  0
 77 78  1  0
 77 76  1  0
 78 74  1  0
 79 80  2  0
 80 81  1  0
 82 81  2  0
 83 82  1  0
 84 58  1  0
 84 89  1  0
 84 85  1  0
 85 88  1  1
 85 86  1  0
 87 85  1  0
 89 92  1  0
 90 94  1  0
 90 89  1  0
 91 90  2  0
 94 93  1  0
 96 94  1  0
 96 97  1  0
 96 95  1  0
M  ISO  4  14 100  22 100  56 101  57 101
M  END
>  <TORSDO>  (35) 
F 19

>  <SCORE>  (35) 
-9.475

>  <name>  (35) 
34

>  <ligand_id>  (35) 
34

>  <original_smiles>  (35) 
[H]C(=C(C([H])([H])[H])C([H])([H])[H])c1c([H])c([H])c(N([H])C(=O)N2C([H])([H])C([H])([H])C([H])([H])C([H])(n3nc(-c4c([H])c([H])c(Oc5c([H])c([H])c(F)c([H])c5F)c([H])c4[H])c(C(=O)N([H])[H])c3N([H])[H])C2([H])[H])c([H])c1N1C(=O)C([H])([H])C([H])([H])C([H])(C([H])([H])Oc2c([H])c([H])c3c(c2[H])C([H])([H])N(C(=O)C([H])(N([H])C(=O)C([H])(N([H])C([H])([H])[H])C([H])([H])[H])C(C([H])([H])[H])(C([H])([H])[H])C([H])([H])[H])C([H])(C(=O)N([H])C2([H])c4c([H])c([H])c([H])c([H])c4C([H])([H])C([H])([H])C2([H])[H])C3([H])[H])C1([H])[H]

>  <smiles>  (35) 
[H]C(=C(C([H])([H])[H])C([H])([H])[H])c1c([H])c([H])c(N([H])C(=O)N2C([H])([H])C([H])([H])C([H])([H])C([H])(n3nc(-c4c([H])c([H])c(Oc5c([H])c([H])c(F)c([H])c5F)c([H])c4[H])c(C(=O)N([H])[H])c3N([H])[H])C2([H])[H])c([H])c1N1C(=O)C([H])([H])C([H])([H])C([H])(C([H])([H])Oc2c([H])c([H])c3c(c2[H])C([H])([H])N(C(=O)C([H])(N([H])C(=O)C([H])(N([H])C([H])([H])[H])C([H])([H])[H])C(C([H])([H])[H])(C([H])([H])[H])C([H])([H])[H])C([H])(C(=O)N([H])C2([H])c4c([H])c([H])c([H])c([H])c4C([H])([H])C([H])([H])C2([H])[H])C3([H])[H])C1([H])[H]

$$$$
35:0:0
     RDKit          3D

 93101  0  0  1  0  0  0  0  0999 V2000
  -28.6180  -22.4970   20.7120 C   0  0  0  0  0  0  0  0  0  0  0  0
  -29.2530  -21.4050   20.1100 N   0  0  0  0  0  0  0  0  0  0  0  0
  -27.9470  -22.3030   21.7290 O   0  0  0  0  0  0  0  0  0  0  0  0
  -29.5890  -21.5970   19.1760 H   0  0  0  0  0  0  0  0  0  0  0  0
  -29.4610  -18.7420   20.1860 C   0  0  0  0  0  3  0  0  0  0  0  0
  -31.0210  -17.7010   21.7320 C   0  0  0  0  0  3  0  0  0  0  0  0
  -30.7060  -20.1560   21.7430 C   0  0  0  0  0  0  0  0  0  0  0  0
  -30.0880  -17.5090   20.6940 C   0  0  0  0  0  0  0  0  0  0  0  0
  -29.7440  -20.0980   20.6900 C   0  0  0  0  0  0  0  0  0  0  0  0
  -31.3130  -18.9790   22.2450 C   0  0  0  0  0  0  0  0  0  0  0  0
  -31.1480  -21.4840   22.3480 C   0  0  0  0  0  1  0  0  0  0  0  0
  -32.2170  -19.0640   23.2520 F   0  0  0  0  0  0  0  0  0  0  0  0
  -30.5730  -14.9330   20.2420 C   0  0  0  0  0  0  0  0  0  0  0  0
  -30.4090  -12.6380   19.2270 C   0  0  0  0  0  2  0  0  0  0  0  0
  -29.4540  -12.6490   18.0130 C   0  0  0  0  0  2  0  0  0  0  0  0
  -27.9950  -12.4430   18.4670 C   0  0  0  0  0  2  0  0  0  0  0  0
  -27.6120  -13.3470   19.6690 C   0  0  0  0  0  3  0  0  0  0  0  0
  -28.6850  -13.3130   20.7770 C   0  0  0  0  0  2  0  0  0  0  0  0
  -29.9560  -13.7010   20.1540 N   0  0  0  0  0  0  0  0  0  0  0  0
  -31.7780  -15.0170   19.9860 O   0  0  0  0  0  0  0  0  0  0  0  0
  -29.7780  -16.0870   20.3130 N   0  0  0  0  0  0  0  0  0  0  0  0
  -28.7960  -15.8980   20.1810 H   0  0  0  0  0  0  0  0  0  0  0  0
  -25.2290  -13.9090   20.4260 C   0  0  0  0  0  0  0  0  0  0  0  0
  -24.1770  -13.1230   20.8080 C   0  0  0  0  0  0  0  0  0  0  0  0
  -24.6560  -11.7780   20.7770 C   0  0  0  0  0  0  0  0  0  0  0  0
  -26.2810  -13.0420   20.1800 N   0  0  0  0  0  0  0  0  0  0  0  0
  -25.9450  -11.7550   20.4580 N   0  0  0  0  0  0  0  0  0  0  0  0
  -23.9470  -10.5080   20.9750 C   0  0  0  0  0  0  0  0  0  0  0  0
  -24.3810   -9.5580   21.9260 C   0  0  0  0  0  3  0  0  0  0  0  0
  -23.6700   -8.3530   22.1110 C   0  0  0  0  0  3  0  0  0  0  0  0
  -22.5100   -8.0890   21.3450 C   0  0  0  0  0  0  0  0  0  0  0  0
  -22.0930   -9.0280   20.3850 C   0  0  0  0  0  3  0  0  0  0  0  0
  -22.8060  -10.2240   20.1980 C   0  0  0  0  0  3  0  0  0  0  0  0
  -21.7700   -6.9350   21.4400 O   0  0  0  0  0  0  0  0  0  0  0  0
  -21.7050   -6.2150   22.6060 C   0  0  0  0  0  0  0  0  0  0  0  0
  -21.2170   -6.7800   23.8040 C   0  0  0  0  0  3  0  0  0  0  0  0
  -21.1020   -5.9850   24.9610 C   0  0  0  0  0  3  0  0  0  0  0  0
  -21.4650   -4.6250   24.9220 C   0  0  0  0  0  0  0  0  0  0  0  0
  -21.9460   -4.0590   23.7280 C   0  0  0  0  0  3  0  0  0  0  0  0
  -22.0620   -4.8520   22.5720 C   0  0  0  0  0  0  0  0  0  0  0  0
  -22.5060   -4.2970   21.4190 F   0  0  0  0  0  0  0  0  0  0  0  0
  -21.3480   -3.8580   26.0310 F   0  0  0  0  0  0  0  0  0  0  0  0
  -22.7760  -13.5850   21.0880 C   0  0  0  0  0  0  0  0  0  0  0  0
  -22.0590  -12.8770   21.9540 N   0  0  0  0  0  0  0  0  0  0  0  0
  -22.3250  -14.6070   20.5730 O   0  0  0  0  0  0  0  0  0  0  0  0
  -22.4350  -12.0490   22.3890 H   0  0  0  0  0  0  0  0  0  0  0  0
  -21.1190  -13.1670   22.1840 H   0  0  0  0  0  0  0  0  0  0  0  0
  -25.3730  -15.2820   20.2400 N   0  0  0  0  0  0  0  0  0  0  0  0
  -24.5940  -15.9220   20.3470 H   0  0  0  0  0  0  0  0  0  0  0  0
  -26.2020  -15.7280   19.8720 H   0  0  0  0  0  0  0  0  0  0  0  0
  -28.7650  -23.8940   20.1180 C   0  0  0  0  0  3  0  0  0  0  0  0
  -28.0920  -25.0400   20.5580 C   0  0  0  0  0  3  0  0  0  0  0  0
  -28.2550  -26.4150   20.1590 O   0  0  0  0  0  0  0  0  0  0  0  0
  -24.5730  -31.9440   23.2400 C   0  0  0  0  0  0  0  0  0  0  0  0
  -27.1640  -27.3240   20.1840 C   0  0  0  0  0  0  0  0  0  0  0  0
  -23.3630  -30.5410   21.6100 C   0  0  0  0  0  3  0  0  0  0  0  0
  -24.8090  -28.9820   20.1770 C   0  0  0  0  0  0  0  0  0  0  0  0
  -25.9050  -30.8480   21.4140 C   0  0  0  0  0  2  0  0  0  0  0  0
  -25.9850  -29.4600   20.7700 C   0  0  0  0  0  0  0  0  0  0  0  0
  -27.1670  -28.6440   20.7610 C   0  0  0  0  0  3  0  0  0  0  0  0
  -25.9640  -26.9170   19.5660 C   0  0  0  0  0  3  0  0  0  0  0  0
  -24.8030  -27.7190   19.5640 C   0  0  0  0  0  3  0  0  0  0  0  0
  -23.5730  -29.8620   20.2310 C   0  0  0  0  0  2  0  0  0  0  0  0
  -24.6340  -31.1310   22.1440 N   0  0  0  0  0  0  0  0  0  0  0  0
  -23.4920  -32.2200   23.7800 O   0  0  0  0  0  0  0  0  0  0  0  0
  -22.7040  -29.5270   22.5770 C   0  0  0  0  0  0  0  0  0  0  0  0
  -21.3790  -29.3370   22.4520 N   0  0  0  0  0  0  0  0  0  0  0  0
  -23.3870  -28.9140   23.4020 O   0  0  0  0  0  0  0  0  0  0  0  0
  -20.8840  -29.8830   21.7610 H   0  0  0  0  0  0  0  0  0  0  0  0
  -18.0140  -28.1000   22.9540 C   0  0  0  0  0  0  0  0  0  0  0  0
  -20.5690  -28.3960   23.2300 C   0  0  0  0  0  3  0  0  0  0  0  0
  -20.6920  -26.9610   22.6660 C   0  0  0  0  0  2  0  0  0  0  0  0
  -19.5970  -26.6160   21.6520 C   0  0  0  0  0  2  0  0  0  0  0  0
  -18.2100  -26.7470   22.2900 C   0  0  0  0  0  2  0  0  0  0  0  0
  -19.1220  -28.8800   23.3820 C   0  0  0  0  0  0  0  0  0  0  0  0
  -18.8830  -30.1430   23.9640 C   0  0  0  0  0  3  0  0  0  0  0  0
  -17.5710  -30.6280   24.1220 C   0  0  0  0  0  3  0  0  0  0  0  0
  -16.4790  -29.8450   23.7100 C   0  0  0  0  0  3  0  0  0  0  0  0
  -16.7010  -28.5830   23.1320 C   0  0  0  0  0  3  0  0  0  0  0  0
  -25.8570  -32.5820   23.8550 C   0  0  0  0  0  3  0  0  0  0  0  0
  -26.3750  -31.8220   25.1370 C   0  0  1  0  0  0  0  0  0  0  0  0
  -25.2830  -31.5920   26.2080 C   0  0  0  0  0  1  0  0  0  0  0  0
  -26.9590  -30.4410   24.7570 C   0  0  0  0  0  1  0  0  0  0  0  0
  -27.5260  -32.6210   25.7900 C   0  0  0  0  0  1  0  0  0  0  0  0
  -25.5470  -33.9840   24.1770 N   0  0  0  0  0  0  0  0  0  0  0  0
  -25.8880  -35.0340   23.4170 C   0  0  0  0  0  0  0  0  0  0  0  0
  -26.5620  -34.9240   22.3900 O   0  0  0  0  0  0  0  0  0  0  0  0
  -24.9510  -34.1430   24.9770 H   0  0  0  0  0  0  0  0  0  0  0  0
  -24.1830  -36.8410   23.0310 C   0  0  0  0  0  1  0  0  0  0  0  0
  -25.4040  -36.4270   23.8670 C   0  0  0  0  0  3  0  0  0  0  0  0
  -27.5300  -37.2920   24.7410 C   0  0  0  0  0  1  0  0  0  0  0  0
  -26.4490  -37.4700   23.7750 N   0  0  0  0  0  0  0  0  0  0  0  0
  -26.0480  -38.3940   23.9140 H   0  0  0  0  0  0  0  0  0  0  0  0
  1  3  2  0
  2  9  1  0
  2  1  1  0
  4  2  1  0
  5  9  2  0
  5  8  1  0
  6 10  1  0
  7 10  2  0
  7 11  1  0
  8  6  2  0
  9  7  1  0
 10 12  1  0
 13 21  1  0
 14 19  1  0
 15 16  1  0
 15 14  1  0
 17 16  1  0
 17 26  1  0
 17 18  1  0
 19 13  1  0
 19 18  1  0
 20 13  2  0
 21  8  1  0
 22 21  1  0
 23 24  2  0
 24 43  1  0
 25 24  1  0
 25 28  1  0
 26 23  1  0
 26 27  1  0
 27 25  2  0
 28 29  1  0
 29 30  2  0
 31 34  1  0
 31 30  1  0
 32 31  2  0
 33 32  1  0
 33 28  2  0
 34 35  1  0
 35 36  1  0
 36 37  2  0
 38 37  1  0
 38 42  1  0
 39 38  2  0
 40 35  2  0
 40 39  1  0
 41 40  1  0
 43 44  1  0
 44 47  1  0
 44 46  1  0
 45 43  2  0
 48 49  1  0
 48 23  1  0
 50 48  1  0
 51 52  2  0
 51  1  1  0
 53 55  1  0
 53 52  1  0
 54 65  2  0
 55 60  1  0
 56 64  1  0
 56 66  1  0
 57 63  1  0
 57 59  1  0
 58 64  1  0
 59 58  1  0
 60 59  2  0
 61 55  2  0
 62 61  1  0
 62 57  2  0
 63 56  1  0
 64 54  1  0
 66 68  2  0
 67 66  1  0
 69 67  1  0
 70 79  2  0
 70 75  1  0
 71 67  1  0
 71 75  1  0
 72 71  1  0
 73 74  1  0
 73 72  1  0
 74 70  1  0
 75 76  2  0
 76 77  1  0
 78 77  2  0
 79 78  1  0
 80 54  1  0
 80 85  1  0
 80 81  1  0
 81 84  1  1
 81 82  1  0
 83 81  1  0
 85 88  1  0
 86 90  1  0
 86 85  1  0
 87 86  2  0
 90 89  1  0
 92 90  1  0
 92 93  1  0
 92 91  1  0
M  ISO  4  13 100  21 100  52 101  53 101
M  END
>  <TORSDO>  (36) 
F 18

>  <SCORE>  (36) 
-14.864

>  <name>  (36) 
35

>  <ligand_id>  (36) 
35

>  <original_smiles>  (36) 
[H]C(Oc1c([H])c([H])c2c(c1[H])C([H])([H])N(C(=O)C([H])(N([H])C(=O)C([H])(N([H])C([H])([H])[H])C([H])([H])[H])C(C([H])([H])[H])(C([H])([H])[H])C([H])([H])[H])C([H])(C(=O)N([H])C1([H])c3c([H])c([H])c([H])c([H])c3C([H])([H])C([H])([H])C1([H])[H])C2([H])[H])=C([H])C(=O)N([H])c1c([H])c(N([H])C(=O)N2C([H])([H])C([H])([H])C([H])([H])C([H])(n3nc(-c4c([H])c([H])c(Oc5c([H])c([H])c(F)c([H])c5F)c([H])c4[H])c(C(=O)N([H])[H])c3N([H])[H])C2([H])[H])c([H])c(F)c1C([H])([H])[H]

>  <smiles>  (36) 
[H]C(Oc1c([H])c([H])c2c(c1[H])C([H])([H])N(C(=O)C([H])(N([H])C(=O)C([H])(N([H])C([H])([H])[H])C([H])([H])[H])C(C([H])([H])[H])(C([H])([H])[H])C([H])([H])[H])C([H])(C(=O)N([H])C1([H])c3c([H])c([H])c([H])c([H])c3C([H])([H])C([H])([H])C1([H])[H])C2([H])[H])=C([H])C(=O)N([H])c1c([H])c(N([H])C(=O)N2C([H])([H])C([H])([H])C([H])([H])C([H])(n3nc(-c4c([H])c([H])c(Oc5c([H])c([H])c(F)c([H])c5F)c([H])c4[H])c(C(=O)N([H])[H])c3N([H])[H])C2([H])[H])c([H])c(F)c1C([H])([H])[H]

$$$$
36:0:0
     RDKit          3D

 93101  0  0  1  0  0  0  0  0999 V2000
  -29.0980  -21.6170   20.2210 C   0  0  0  0  0  0  0  0  0  0  0  0
  -29.5330  -20.8050   21.2170 N   0  0  0  0  0  0  0  0  0  0  0  0
  -28.7740  -21.1900   19.1100 O   0  0  0  0  0  0  0  0  0  0  0  0
  -29.7110  -21.3300   22.0610 H   0  0  0  0  0  0  0  0  0  0  0  0
  -32.2580  -18.3410   21.9060 C   0  0  0  0  0  3  0  0  0  0  0  0
  -31.7190  -17.1190   21.4790 C   0  0  0  0  0  3  0  0  0  0  0  0
  -29.6920  -18.2730   20.7510 C   0  0  0  0  0  3  0  0  0  0  0  0
  -31.5330  -19.5380   21.7650 C   0  0  0  0  0  0  0  0  0  0  0  0
  -30.4370  -17.0460   20.8890 C   0  0  0  0  0  0  0  0  0  0  0  0
  -30.2360  -19.5340   21.1830 C   0  0  0  0  0  0  0  0  0  0  0  0
  -32.1780  -20.8260   22.2670 C   0  0  0  0  0  1  0  0  0  0  0  0
  -30.6110  -14.6450   20.0840 C   0  0  0  0  0  0  0  0  0  0  0  0
  -30.2910  -12.4660   18.9460 C   0  0  0  0  0  2  0  0  0  0  0  0
  -29.2830  -12.6180   17.7870 C   0  0  0  0  0  2  0  0  0  0  0  0
  -27.8400  -12.4460   18.2990 C   0  0  0  0  0  2  0  0  0  0  0  0
  -27.5500  -13.2820   19.5720 C   0  0  0  0  0  3  0  0  0  0  0  0
  -28.6690  -13.1190   20.6250 C   0  0  0  0  0  2  0  0  0  0  0  0
  -29.9370  -13.4620   19.9750 N   0  0  0  0  0  0  0  0  0  0  0  0
  -31.7460  -14.7740   19.6140 O   0  0  0  0  0  0  0  0  0  0  0  0
  -29.9130  -15.7350   20.5320 N   0  0  0  0  0  0  0  0  0  0  0  0
  -28.9240  -15.5910   20.6710 H   0  0  0  0  0  0  0  0  0  0  0  0
  -25.1980  -13.8460   20.4420 C   0  0  0  0  0  0  0  0  0  0  0  0
  -24.1600  -13.0540   20.8510 C   0  0  0  0  0  0  0  0  0  0  0  0
  -24.6310  -11.7090   20.7630 C   0  0  0  0  0  0  0  0  0  0  0  0
  -26.2330  -12.9800   20.1270 N   0  0  0  0  0  0  0  0  0  0  0  0
  -25.9010  -11.6890   20.3810 N   0  0  0  0  0  0  0  0  0  0  0  0
  -23.9260  -10.4360   20.9610 C   0  0  0  0  0  0  0  0  0  0  0  0
  -24.3810   -9.4780   21.8930 C   0  0  0  0  0  3  0  0  0  0  0  0
  -23.6750   -8.2680   22.0780 C   0  0  0  0  0  3  0  0  0  0  0  0
  -22.5000   -8.0100   21.3330 C   0  0  0  0  0  0  0  0  0  0  0  0
  -22.0670   -8.9580   20.3880 C   0  0  0  0  0  3  0  0  0  0  0  0
  -22.7720  -10.1590   20.2020 C   0  0  0  0  0  3  0  0  0  0  0  0
  -21.7640   -6.8540   21.4260 O   0  0  0  0  0  0  0  0  0  0  0  0
  -21.7060   -6.1340   22.5920 C   0  0  0  0  0  0  0  0  0  0  0  0
  -21.2160   -6.6930   23.7920 C   0  0  0  0  0  3  0  0  0  0  0  0
  -21.1080   -5.8950   24.9490 C   0  0  0  0  0  3  0  0  0  0  0  0
  -21.4800   -4.5370   24.9060 C   0  0  0  0  0  0  0  0  0  0  0  0
  -21.9620   -3.9770   23.7100 C   0  0  0  0  0  3  0  0  0  0  0  0
  -22.0720   -4.7720   22.5560 C   0  0  0  0  0  0  0  0  0  0  0  0
  -22.5170   -4.2200   21.4010 F   0  0  0  0  0  0  0  0  0  0  0  0
  -21.3690   -3.7680   26.0150 F   0  0  0  0  0  0  0  0  0  0  0  0
  -22.7760  -13.5140   21.2100 C   0  0  0  0  0  0  0  0  0  0  0  0
  -22.0990  -12.7880   22.0930 N   0  0  0  0  0  0  0  0  0  0  0  0
  -22.3040  -14.5490   20.7420 O   0  0  0  0  0  0  0  0  0  0  0  0
  -22.4920  -11.9490   22.4920 H   0  0  0  0  0  0  0  0  0  0  0  0
  -21.1740  -13.0790   22.3750 H   0  0  0  0  0  0  0  0  0  0  0  0
  -25.3420  -15.2210   20.2860 N   0  0  0  0  0  0  0  0  0  0  0  0
  -24.5790  -15.8670   20.4540 H   0  0  0  0  0  0  0  0  0  0  0  0
  -26.1570  -15.6710   19.8880 H   0  0  0  0  0  0  0  0  0  0  0  0
  -29.0170  -23.1530   20.5480 C   0  0  0  0  0  2  0  0  0  0  0  0
  -27.9760  -24.0690   19.7950 C   0  0  0  0  0  2  0  0  0  0  0  0
  -28.4630  -25.4920   19.3090 C   0  0  0  0  0  2  0  0  0  0  0  0
  -28.3180  -26.6720   20.1580 O   0  0  0  0  0  0  0  0  0  0  0  0
  -24.5920  -31.9850   23.2290 C   0  0  0  0  0  0  0  0  0  0  0  0
  -27.1580  -27.4470   20.1310 C   0  0  0  0  0  0  0  0  0  0  0  0
  -23.3550  -30.5710   21.6210 C   0  0  0  0  0  3  0  0  0  0  0  0
  -24.7800  -29.0140   20.1800 C   0  0  0  0  0  0  0  0  0  0  0  0
  -25.8850  -30.9030   21.3830 C   0  0  0  0  0  2  0  0  0  0  0  0
  -25.9550  -29.5210   20.7480 C   0  0  0  0  0  0  0  0  0  0  0  0
  -27.1430  -28.7420   20.7250 C   0  0  0  0  0  3  0  0  0  0  0  0
  -25.9540  -26.9710   19.5630 C   0  0  0  0  0  3  0  0  0  0  0  0
  -24.7780  -27.7410   19.5860 C   0  0  0  0  0  3  0  0  0  0  0  0
  -23.5430  -29.8860   20.2420 C   0  0  0  0  0  2  0  0  0  0  0  0
  -24.6300  -31.1720   22.1340 N   0  0  0  0  0  0  0  0  0  0  0  0
  -23.5200  -32.2620   23.7870 O   0  0  0  0  0  0  0  0  0  0  0  0
  -22.7180  -29.5580   22.6020 C   0  0  0  0  0  0  0  0  0  0  0  0
  -21.3940  -29.3590   22.4910 N   0  0  0  0  0  0  0  0  0  0  0  0
  -23.4160  -28.9540   23.4210 O   0  0  0  0  0  0  0  0  0  0  0  0
  -20.8930  -29.9030   21.8020 H   0  0  0  0  0  0  0  0  0  0  0  0
  -18.0390  -28.1190   23.0200 C   0  0  0  0  0  0  0  0  0  0  0  0
  -20.5930  -28.4220   23.2810 C   0  0  0  0  0  3  0  0  0  0  0  0
  -20.7160  -26.9800   22.7320 C   0  0  0  0  0  2  0  0  0  0  0  0
  -19.6160  -26.6220   21.7250 C   0  0  0  0  0  2  0  0  0  0  0  0
  -18.2340  -26.7570   22.3710 C   0  0  0  0  0  2  0  0  0  0  0  0
  -19.1460  -28.9060   23.4340 C   0  0  0  0  0  0  0  0  0  0  0  0
  -18.9110  -30.1770   24.0010 C   0  0  0  0  0  3  0  0  0  0  0  0
  -17.6000  -30.6630   24.1570 C   0  0  0  0  0  3  0  0  0  0  0  0
  -16.5050  -29.8740   23.7620 C   0  0  0  0  0  3  0  0  0  0  0  0
  -16.7260  -28.6030   23.2000 C   0  0  0  0  0  3  0  0  0  0  0  0
  -25.8880  -32.6230   23.8190 C   0  0  0  0  0  3  0  0  0  0  0  0
  -26.4440  -31.8480   25.0770 C   0  0  1  0  0  0  0  0  0  0  0  0
  -25.3760  -31.5810   26.1650 C   0  0  0  0  0  1  0  0  0  0  0  0
  -27.0390  -30.4830   24.6590 C   0  0  0  0  0  1  0  0  0  0  0  0
  -27.6000  -32.6530   25.7190 C   0  0  0  0  0  1  0  0  0  0  0  0
  -25.5770  -34.0160   24.1640 N   0  0  0  0  0  0  0  0  0  0  0  0
  -25.8850  -35.0740   23.4000 C   0  0  0  0  0  0  0  0  0  0  0  0
  -26.5310  -34.9780   22.3530 O   0  0  0  0  0  0  0  0  0  0  0  0
  -24.9960  -34.1620   24.9760 H   0  0  0  0  0  0  0  0  0  0  0  0
  -24.1430  -36.8620   23.0910 C   0  0  0  0  0  1  0  0  0  0  0  0
  -25.4030  -36.4580   23.8730 C   0  0  0  0  0  3  0  0  0  0  0  0
  -27.5510  -37.3510   24.6640 C   0  0  0  0  0  1  0  0  0  0  0  0
  -26.4300  -37.5150   23.7420 N   0  0  0  0  0  0  0  0  0  0  0  0
  -26.0250  -38.4330   23.8980 H   0  0  0  0  0  0  0  0  0  0  0  0
  1 50  1  0
  1  2  1  0
  2  4  1  0
  3  1  2  0
  6  5  2  0
  7  9  2  0
  7 10  1  0
  8  5  1  0
  8 11  1  0
  9  6  1  0
 10  2  1  0
 10  8  2  0
 12 20  1  0
 13 18  1  0
 14 15  1  0
 14 13  1  0
 16 15  1  0
 16 25  1  0
 16 17  1  0
 18 12  1  0
 18 17  1  0
 19 12  2  0
 20 21  1  0
 20  9  1  0
 22 23  2  0
 23 42  1  0
 24 23  1  0
 24 27  1  0
 25 26  1  0
 25 22  1  0
 26 24  2  0
 27 28  1  0
 28 29  2  0
 30 33  1  0
 30 29  1  0
 31 30  2  0
 32 31  1  0
 32 27  2  0
 33 34  1  0
 34 35  1  0
 35 36  2  0
 37 36  1  0
 37 41  1  0
 38 37  2  0
 39 34  2  0
 39 38  1  0
 40 39  1  0
 42 43  1  0
 43 46  1  0
 43 45  1  0
 44 42  2  0
 47 22  1  0
 47 48  1  0
 49 47  1  0
 51 50  1  0
 52 51  1  0
 52 53  1  0
 54 65  2  0
 55 53  1  0
 55 60  1  0
 56 64  1  0
 56 66  1  0
 57 63  1  0
 57 59  1  0
 58 64  1  0
 59 58  1  0
 60 59  2  0
 61 62  1  0
 61 55  2  0
 62 57  2  0
 63 56  1  0
 64 54  1  0
 66 68  2  0
 67 66  1  0
 69 67  1  0
 70 79  2  0
 70 75  1  0
 71 67  1  0
 71 75  1  0
 72 71  1  0
 73 74  1  0
 73 72  1  0
 74 70  1  0
 75 76  2  0
 76 77  1  0
 78 77  2  0
 79 78  1  0
 80 54  1  0
 80 85  1  0
 80 81  1  0
 81 84  1  1
 81 82  1  0
 83 81  1  0
 85 88  1  0
 86 90  1  0
 86 85  1  0
 87 86  2  0
 90 89  1  0
 92 90  1  0
 92 93  1  0
 92 91  1  0
M  ISO  4  12 100  20 100  52 101  53 101
M  END
>  <TORSDO>  (37) 
F 20

>  <SCORE>  (37) 
-13.386

>  <name>  (37) 
36

>  <ligand_id>  (37) 
36

>  <original_smiles>  (37) 
[H]c1c([H])c([H])c2c(c1[H])C([H])([H])C([H])([H])C([H])([H])C2([H])N([H])C(=O)C1([H])N(C(=O)C([H])(N([H])C(=O)C([H])(N([H])C([H])([H])[H])C([H])([H])[H])C(C([H])([H])[H])(C([H])([H])[H])C([H])([H])[H])C([H])([H])c2c([H])c(OC([H])([H])C([H])([H])C([H])([H])C(=O)N([H])c3c([H])c(N([H])C(=O)N4C([H])([H])C([H])([H])C([H])([H])C([H])(n5nc(-c6c([H])c([H])c(Oc7c([H])c([H])c(F)c([H])c7F)c([H])c6[H])c(C(=O)N([H])[H])c5N([H])[H])C4([H])[H])c([H])c([H])c3C([H])([H])[H])c([H])c([H])c2C1([H])[H]

>  <smiles>  (37) 
[H]c1c([H])c([H])c2c(c1[H])C([H])([H])C([H])([H])C([H])([H])C2([H])N([H])C(=O)C1([H])N(C(=O)C([H])(N([H])C(=O)C([H])(N([H])C([H])([H])[H])C([H])([H])[H])C(C([H])([H])[H])(C([H])([H])[H])C([H])([H])[H])C([H])([H])c2c([H])c(OC([H])([H])C([H])([H])C([H])([H])C(=O)N([H])c3c([H])c(N([H])C(=O)N4C([H])([H])C([H])([H])C([H])([H])C([H])(n5nc(-c6c([H])c([H])c(Oc7c([H])c([H])c(F)c([H])c7F)c([H])c6[H])c(C(=O)N([H])[H])c5N([H])[H])C4([H])[H])c([H])c([H])c3C([H])([H])[H])c([H])c([H])c2C1([H])[H]

$$$$
37:0:0
     RDKit          3D

 98106  0  0  1  0  0  0  0  0999 V2000
  -30.1400  -20.4630   21.5850 C   0  0  0  0  0  0  0  0  0  0  0  0
  -29.3440  -20.2850   22.6380 N   0  0  0  0  0  4  0  0  0  0  0  0
  -30.1520  -21.6450   20.9510 N   0  0  0  0  0  0  0  0  0  0  0  0
  -29.3870  -19.4150   23.1480 H   0  0  0  0  0  0  0  0  0  0  0  0
  -28.6950  -20.9880   22.9490 H   0  0  0  0  0  0  0  0  0  0  0  0
  -30.7310  -21.6710   20.1200 H   0  0  0  0  0  0  0  0  0  0  0  0
  -33.2070  -18.4970   20.4680 C   0  0  0  0  0  3  0  0  0  0  0  0
  -32.6480  -17.2220   20.2930 C   0  0  0  0  0  3  0  0  0  0  0  0
  -30.4680  -18.0850   20.9570 C   0  0  0  0  0  3  0  0  0  0  0  0
  -31.0200  -19.3770   21.1320 C   0  0  0  0  0  0  0  0  0  0  0  0
  -32.4100  -19.5820   20.8880 C   0  0  0  0  0  0  0  0  0  0  0  0
  -31.2710  -17.0090   20.5200 C   0  0  0  0  0  0  0  0  0  0  0  0
  -33.1080  -20.9220   21.0910 C   0  0  0  0  0  1  0  0  0  0  0  0
  -31.2020  -14.7320   19.5960 C   0  0  0  0  0  0  0  0  0  0  0  0
  -30.8850  -12.4330   18.7740 C   0  0  0  0  0  2  0  0  0  0  0  0
  -29.8600  -12.4030   17.6250 C   0  0  0  0  0  2  0  0  0  0  0  0
  -28.4260  -12.2860   18.1750 C   0  0  0  0  0  2  0  0  0  0  0  0
  -28.1320  -13.3140   19.3020 C   0  0  0  0  0  3  0  0  0  0  0  0
  -29.2600  -13.3080   20.3560 C   0  0  0  0  0  2  0  0  0  0  0  0
  -30.5370  -13.5510   19.6620 N   0  0  0  0  0  0  0  0  0  0  0  0
  -32.1900  -14.9040   18.8740 O   0  0  0  0  0  0  0  0  0  0  0  0
  -30.6930  -15.7250   20.3430 N   0  0  0  0  0  0  0  0  0  0  0  0
  -29.8070  -15.5420   20.7910 H   0  0  0  0  0  0  0  0  0  0  0  0
  -25.8580  -13.9880   20.3040 C   0  0  0  0  0  0  0  0  0  0  0  0
  -24.7990  -13.2450   20.7490 C   0  0  0  0  0  0  0  0  0  0  0  0
  -25.1810  -11.8780   20.5900 C   0  0  0  0  0  0  0  0  0  0  0  0
  -26.8250  -13.0760   19.9100 N   0  0  0  0  0  0  0  0  0  0  0  0
  -26.4250  -11.7980   20.1340 N   0  0  0  0  0  0  0  0  0  0  0  0
  -24.4160  -10.6410   20.7910 C   0  0  0  0  0  0  0  0  0  0  0  0
  -24.7570   -9.7180   21.8050 C   0  0  0  0  0  3  0  0  0  0  0  0
  -23.9960   -8.5440   21.9890 C   0  0  0  0  0  3  0  0  0  0  0  0
  -22.8790   -8.2850   21.1590 C   0  0  0  0  0  0  0  0  0  0  0  0
  -22.5590   -9.1940   20.1360 C   0  0  0  0  0  3  0  0  0  0  0  0
  -23.3200  -10.3610   19.9500 C   0  0  0  0  0  3  0  0  0  0  0  0
  -22.0970   -7.1590   21.2480 O   0  0  0  0  0  0  0  0  0  0  0  0
  -21.7670   -6.6050   22.4590 C   0  0  0  0  0  0  0  0  0  0  0  0
  -21.0320   -7.3210   23.4290 C   0  0  0  0  0  3  0  0  0  0  0  0
  -20.6550   -6.6900   24.6330 C   0  0  0  0  0  3  0  0  0  0  0  0
  -21.0030   -5.3450   24.8630 C   0  0  0  0  0  0  0  0  0  0  0  0
  -21.7310   -4.6300   23.8950 C   0  0  0  0  0  3  0  0  0  0  0  0
  -22.1090   -5.2580   22.6950 C   0  0  0  0  0  0  0  0  0  0  0  0
  -22.7920   -4.5590   21.7570 F   0  0  0  0  0  0  0  0  0  0  0  0
  -20.6350   -4.7370   26.0140 F   0  0  0  0  0  0  0  0  0  0  0  0
  -23.4670  -13.7670   21.2080 C   0  0  0  0  0  0  0  0  0  0  0  0
  -22.8120  -13.0600   22.1220 N   0  0  0  0  0  0  0  0  0  0  0  0
  -23.0220  -14.8360   20.7910 O   0  0  0  0  0  0  0  0  0  0  0  0
  -23.1880  -12.1950   22.4820 H   0  0  0  0  0  0  0  0  0  0  0  0
  -21.9220  -13.3890   22.4690 H   0  0  0  0  0  0  0  0  0  0  0  0
  -26.0740  -15.3580   20.1860 N   0  0  0  0  0  0  0  0  0  0  0  0
  -25.3560  -16.0390   20.4100 H   0  0  0  0  0  0  0  0  0  0  0  0
  -26.9020  -15.7770   19.7830 H   0  0  0  0  0  0  0  0  0  0  0  0
  -29.6020  -22.9420   21.3880 C   0  0  0  0  0  2  0  0  0  0  0  0
  -28.7260  -23.6210   20.3160 C   0  0  0  0  0  2  0  0  0  0  0  0
  -28.1620  -25.7360   21.6340 C   0  0  0  0  0  1  0  0  0  0  0  0
  -30.2040  -25.6800   20.1440 C   0  0  0  0  0  1  0  0  0  0  0  0
  -28.7540  -25.1770   20.3220 C   0  0  1  0  0  0  0  0  0  0  0  0
  -27.8930  -25.6850   19.1400 C   0  0  0  0  0  2  0  0  0  0  0  0
  -27.8670  -27.1170   19.1300 O   0  0  0  0  0  0  0  0  0  0  0  0
  -24.4500  -31.7810   23.2690 C   0  0  0  0  0  0  0  0  0  0  0  0
  -26.6780  -27.7670   19.3760 C   0  0  0  0  0  0  0  0  0  0  0  0
  -23.0440  -30.5460   21.6530 C   0  0  0  0  0  3  0  0  0  0  0  0
  -24.2990  -29.2040   19.8890 C   0  0  0  0  0  0  0  0  0  0  0  0
  -25.5210  -30.9690   21.1730 C   0  0  0  0  0  2  0  0  0  0  0  0
  -25.5220  -29.6820   20.3730 C   0  0  0  0  0  0  0  0  0  0  0  0
  -26.7130  -28.9720   20.1110 C   0  0  0  0  0  3  0  0  0  0  0  0
  -25.4360  -27.3060   18.8840 C   0  0  0  0  0  3  0  0  0  0  0  0
  -24.2490  -28.0120   19.1470 C   0  0  0  0  0  3  0  0  0  0  0  0
  -23.0690  -30.0260   20.1920 C   0  0  0  0  0  2  0  0  0  0  0  0
  -24.3640  -31.1090   22.0870 N   0  0  0  0  0  0  0  0  0  0  0  0
  -23.4490  -31.9740   23.9710 O   0  0  0  0  0  0  0  0  0  0  0  0
  -22.5320  -29.4120   22.5700 C   0  0  0  0  0  0  0  0  0  0  0  0
  -21.2810  -28.9820   22.3440 N   0  0  0  0  0  0  0  0  0  0  0  0
  -23.2600  -28.9210   23.4380 O   0  0  0  0  0  0  0  0  0  0  0  0
  -20.7480  -29.4360   21.6160 H   0  0  0  0  0  0  0  0  0  0  0  0
  -18.2810  -26.9730   22.3970 C   0  0  0  0  0  0  0  0  0  0  0  0
  -20.6000  -27.9010   23.0570 C   0  0  0  0  0  3  0  0  0  0  0  0
  -21.1600  -26.5220   22.6390 C   0  0  0  0  0  2  0  0  0  0  0  0
  -20.3750  -25.8750   21.4950 C   0  0  0  0  0  2  0  0  0  0  0  0
  -18.9080  -25.6850   21.8900 C   0  0  0  0  0  2  0  0  0  0  0  0
  -19.0780  -28.0210   22.9300 C   0  0  0  0  0  0  0  0  0  0  0  0
  -18.4490  -29.2110   23.3540 C   0  0  0  0  0  3  0  0  0  0  0  0
  -17.0510  -29.3600   23.2600 C   0  0  0  0  0  3  0  0  0  0  0  0
  -16.2660  -28.3120   22.7480 C   0  0  0  0  0  3  0  0  0  0  0  0
  -16.8810  -27.1220   22.3200 C   0  0  0  0  0  3  0  0  0  0  0  0
  -25.8050  -32.3620   23.7820 C   0  0  0  0  0  3  0  0  0  0  0  0
  -25.5700  -33.7630   24.1530 N   0  0  0  0  0  0  0  0  0  0  0  0
  -25.8920  -34.8160   23.3900 C   0  0  0  0  0  0  0  0  0  0  0  0
  -26.4900  -34.7070   22.3160 O   0  0  0  0  0  0  0  0  0  0  0  0
  -25.0310  -33.9250   24.9910 H   0  0  0  0  0  0  0  0  0  0  0  0
  -24.2220  -36.6820   23.1610 C   0  0  0  0  0  1  0  0  0  0  0  0
  -25.4840  -36.2110   23.9000 C   0  0  0  0  0  3  0  0  0  0  0  0
  -27.6860  -36.9990   24.6510 C   0  0  0  0  0  1  0  0  0  0  0  0
  -26.5510  -37.2250   23.7580 N   0  0  0  0  0  0  0  0  0  0  0  0
  -26.1890  -38.1580   23.9360 H   0  0  0  0  0  0  0  0  0  0  0  0
  -26.4090  -31.5550   24.9970 C   0  0  1  0  0  0  0  0  0  0  0  0
  -25.3870  -31.2690   26.1210 C   0  0  0  0  0  1  0  0  0  0  0  0
  -26.9810  -30.2010   24.5200 C   0  0  0  0  0  1  0  0  0  0  0  0
  -27.5880  -32.3440   25.6150 C   0  0  0  0  0  1  0  0  0  0  0  0
  1  2  2  0
  2  5  1  0
  2  4  1  0
  3 52  1  0
  3  1  1  0
  6  3  1  0
  7 11  1  0
  8  7  2  0
  8 12  1  0
  9 10  1  0
 10  1  1  0
 11 13  1  0
 11 10  2  0
 12  9  2  0
 14 20  1  0
 14 22  1  0
 15 20  1  0
 16 17  1  0
 16 15  1  0
 18 17  1  0
 18 27  1  0
 18 19  1  0
 20 19  1  0
 21 14  2  0
 22 12  1  0
 22 23  1  0
 24 25  2  0
 25 44  1  0
 26 25  1  0
 26 29  1  0
 27 28  1  0
 27 24  1  0
 28 26  2  0
 29 30  1  0
 30 31  2  0
 32 35  1  0
 32 31  1  0
 33 32  2  0
 34 33  1  0
 34 29  2  0
 35 36  1  0
 36 41  2  0
 36 37  1  0
 37 38  2  0
 38 39  1  0
 39 43  1  0
 40 39  2  0
 41 40  1  0
 42 41  1  0
 44 45  1  0
 45 48  1  0
 45 47  1  0
 46 44  2  0
 49 24  1  0
 49 50  1  0
 51 49  1  0
 53 56  1  0
 53 52  1  0
 56 55  1  6
 56 54  1  0
 57 56  1  0
 58 57  1  0
 58 60  1  0
 59 70  2  0
 60 65  1  0
 61 69  1  0
 61 71  1  0
 62 68  1  0
 62 64  1  0
 63 69  1  0
 64 63  1  0
 65 64  2  0
 66 67  1  0
 66 60  2  0
 67 62  2  0
 68 61  1  0
 69 59  1  0
 71 73  2  0
 72 71  1  0
 74 72  1  0
 75 80  1  0
 76 72  1  0
 77 76  1  0
 78 79  1  0
 78 77  1  0
 79 75  1  0
 80 76  1  0
 80 81  2  0
 82 81  1  0
 83 82  2  0
 84 75  2  0
 84 83  1  0
 85 59  1  0
 85 86  1  0
 85 95  1  0
 86 89  1  0
 87 91  1  0
 87 86  1  0
 88 87  2  0
 91 90  1  0
 93 91  1  0
 93 94  1  0
 93 92  1  0
 95 98  1  1
 95 96  1  0
 97 95  1  0
M  ISO  4  14 100  22 100  57 101  58 101
M  END
>  <TORSDO>  (38) 
F 21

>  <SCORE>  (38) 
-11.021

>  <name>  (38) 
37

>  <ligand_id>  (38) 
37

>  <original_smiles>  (38) 
[H]c1c([H])c([H])c2c(c1[H])C([H])([H])C([H])([H])C([H])([H])C2([H])N([H])C(=O)C1([H])N(C(=O)C([H])(N([H])C(=O)C([H])(N([H])C([H])([H])[H])C([H])([H])[H])C(C([H])([H])[H])(C([H])([H])[H])C([H])([H])[H])C([H])([H])c2c([H])c(OC([H])([H])C(C([H])([H])[H])(C([H])([H])[H])C([H])([H])C([H])([H])[N+]([H])=C(c3c([H])c(N([H])C(=O)N4C([H])([H])C([H])([H])C([H])([H])C([H])(n5nc(-c6c([H])c([H])c(Oc7c([H])c([H])c(F)c([H])c7F)c([H])c6[H])c(C(=O)N([H])[H])c5N([H])[H])C4([H])[H])c([H])c([H])c3C([H])([H])[H])N([H])[H])c([H])c([H])c2C1([H])[H]

>  <smiles>  (38) 
[H]c1c([H])c([H])c2c(c1[H])C([H])([H])C([H])([H])C([H])([H])C2([H])N([H])C(=O)C1([H])N(C(=O)C([H])(N([H])C(=O)C([H])(N([H])C([H])([H])[H])C([H])([H])[H])C(C([H])([H])[H])(C([H])([H])[H])C([H])([H])[H])C([H])([H])c2c([H])c(OC([H])([H])C(C([H])([H])[H])(C([H])([H])[H])C([H])([H])C([H])([H])[N+]([H])=C(c3c([H])c(N([H])C(=O)N4C([H])([H])C([H])([H])C([H])([H])C([H])(n5nc(-c6c([H])c([H])c(Oc7c([H])c([H])c(F)c([H])c7F)c([H])c6[H])c(C(=O)N([H])[H])c5N([H])[H])C4([H])[H])c([H])c([H])c3C([H])([H])[H])N([H])[H])c([H])c([H])c2C1([H])[H]

$$$$
38:0:0
     RDKit          3D

106115  0  0  1  0  0  0  0  0999 V2000
  -31.6290  -20.1940   20.4930 C   0  0  0  0  0  3  0  0  0  0  0  0
  -32.1360  -17.8380   20.8520 C   0  0  0  0  0  3  0  0  0  0  0  0
  -29.8520  -18.5260   20.3780 C   0  0  0  0  0  3  0  0  0  0  0  0
  -32.5630  -19.1750   20.7480 C   0  0  0  0  0  0  0  0  0  0  0  0
  -30.2560  -19.9040   20.3050 C   0  0  0  0  0  0  0  0  0  0  0  0
  -30.7820  -17.4680   20.6410 C   0  0  0  0  0  0  0  0  0  0  0  0
  -31.0200  -14.9600   20.2940 C   0  0  0  0  0  0  0  0  0  0  0  0
  -30.7090  -12.7330   19.2740 C   0  0  0  0  0  2  0  0  0  0  0  0
  -29.7990  -12.8790   18.0380 C   0  0  0  0  0  2  0  0  0  0  0  0
  -28.3200  -12.7530   18.4440 C   0  0  0  0  0  2  0  0  0  0  0  0
  -27.9550  -13.6400   19.6660 C   0  0  0  0  0  3  0  0  0  0  0  0
  -28.9980  -13.5150   20.8030 C   0  0  0  0  0  2  0  0  0  0  0  0
  -30.3220  -13.7880   20.2300 N   0  0  0  0  0  0  0  0  0  0  0  0
  -32.1650  -15.0250   19.8460 O   0  0  0  0  0  0  0  0  0  0  0  0
  -30.3500  -16.0770   20.7010 N   0  0  0  0  0  0  0  0  0  0  0  0
  -29.3950  -15.9140   20.9780 H   0  0  0  0  0  0  0  0  0  0  0  0
  -25.5760  -14.2570   20.4100 C   0  0  0  0  0  0  0  0  0  0  0  0
  -24.4920  -13.4920   20.7440 C   0  0  0  0  0  0  0  0  0  0  0  0
  -24.9250  -12.1330   20.6560 C   0  0  0  0  0  0  0  0  0  0  0  0
  -26.6010  -13.3660   20.1400 N   0  0  0  0  0  0  0  0  0  0  0  0
  -26.2140  -12.0800   20.3450 N   0  0  0  0  0  0  0  0  0  0  0  0
  -24.1720  -10.8800   20.7930 C   0  0  0  0  0  0  0  0  0  0  0  0
  -24.6120   -9.8430   21.6460 C   0  0  0  0  0  3  0  0  0  0  0  0
  -23.8600   -8.6560   21.7770 C   0  0  0  0  0  3  0  0  0  0  0  0
  -22.6540   -8.4960   21.0540 C   0  0  0  0  0  0  0  0  0  0  0  0
  -22.2320   -9.5200   20.1880 C   0  0  0  0  0  3  0  0  0  0  0  0
  -22.9830  -10.7010   20.0560 C   0  0  0  0  0  3  0  0  0  0  0  0
  -21.8710   -7.3680   21.0970 O   0  0  0  0  0  0  0  0  0  0  0  0
  -21.8870   -6.5240   22.1780 C   0  0  0  0  0  0  0  0  0  0  0  0
  -21.5910   -6.9760   23.4820 C   0  0  0  0  0  3  0  0  0  0  0  0
  -21.5510   -6.0600   24.5520 C   0  0  0  0  0  3  0  0  0  0  0  0
  -21.7960   -4.6930   24.3200 C   0  0  0  0  0  0  0  0  0  0  0  0
  -22.0830   -4.2410   23.0210 C   0  0  0  0  0  3  0  0  0  0  0  0
  -22.1260   -5.1540   21.9530 C   0  0  0  0  0  0  0  0  0  0  0  0
  -22.3830   -4.7090   20.6980 F   0  0  0  0  0  0  0  0  0  0  0  0
  -21.7490   -3.8110   25.3460 F   0  0  0  0  0  0  0  0  0  0  0  0
  -23.1060  -13.9890   21.0350 C   0  0  0  0  0  0  0  0  0  0  0  0
  -22.3710  -13.2830   21.8880 N   0  0  0  0  0  0  0  0  0  0  0  0
  -22.6840  -15.0350   20.5460 O   0  0  0  0  0  0  0  0  0  0  0  0
  -22.7260  -12.4340   22.3020 H   0  0  0  0  0  0  0  0  0  0  0  0
  -21.4400  -13.5960   22.1280 H   0  0  0  0  0  0  0  0  0  0  0  0
  -25.7730  -15.6300   20.2920 N   0  0  0  0  0  0  0  0  0  0  0  0
  -25.0240  -16.2970   20.4390 H   0  0  0  0  0  0  0  0  0  0  0  0
  -26.6310  -16.0620   19.9760 H   0  0  0  0  0  0  0  0  0  0  0  0
  -33.9820  -19.4970   20.8980 C   0  0  0  0  0  0  0  0  0  0  0  0
  -35.9760  -20.5840   19.8410 C   0  0  0  0  0  0  0  0  0  0  0  0
  -36.3620  -21.3700   18.5930 C   0  0  0  0  0  1  0  0  0  0  0  0
  -34.5970  -20.1970   19.9210 N   0  0  0  0  0  0  0  0  0  0  0  0
  -34.6260  -19.0730   21.9900 N   0  0  0  0  0  4  0  0  0  0  0  0
  -36.8030  -20.3000   20.7150 O   0  0  0  0  0  0  0  0  0  0  0  0
  -33.9560  -20.4210   19.1750 H   0  0  0  0  0  0  0  0  0  0  0  0
  -34.1330  -18.6130   22.7390 H   0  0  0  0  0  0  0  0  0  0  0  0
  -35.6090  -19.2910   22.0860 H   0  0  0  0  0  0  0  0  0  0  0  0
  -27.5230  -23.1500   20.2310 C   0  0  0  0  0  3  0  0  0  0  0  0
  -28.0730  -20.8800   20.7720 C   0  0  0  0  0  3  0  0  0  0  0  0
  -28.6970  -23.3290   19.5850 C   0  0  0  0  0  0  0  0  0  0  0  0
  -27.1780  -21.8790   20.8300 C   0  0  0  0  0  0  0  0  0  0  0  0
  -29.6440  -22.1860   19.4680 C   0  0  0  0  0  0  0  0  0  0  0  0
  -29.3230  -21.0120   20.1340 N   0  0  0  0  0  0  0  0  0  0  0  0
  -30.6710  -22.2940   18.7880 O   0  0  0  0  0  0  0  0  0  0  0  0
  -29.1020  -24.5610   19.0340 N   0  0  0  0  0  0  0  0  0  0  0  0
  -29.9930  -24.4500   18.5570 H   0  0  0  0  0  0  0  0  0  0  0  0
  -28.9290  -25.8940   19.6450 C   0  0  0  0  0  2  0  0  0  0  0  0
  -28.6450  -26.9530   18.7480 O   0  0  0  0  0  0  0  0  0  0  0  0
  -24.6290  -31.3540   22.7190 C   0  0  0  0  0  0  0  0  0  0  0  0
  -27.4390  -27.6020   18.9330 C   0  0  0  0  0  0  0  0  0  0  0  0
  -23.4460  -30.0760   20.9620 C   0  0  0  0  0  3  0  0  0  0  0  0
  -24.9350  -28.8770   19.2690 C   0  0  0  0  0  0  0  0  0  0  0  0
  -25.9140  -30.6910   20.6840 C   0  0  0  0  0  2  0  0  0  0  0  0
  -26.0800  -29.4250   19.8610 C   0  0  0  0  0  0  0  0  0  0  0  0
  -27.3400  -28.7990   19.6850 C   0  0  0  0  0  3  0  0  0  0  0  0
  -26.2770  -27.0680   18.3440 C   0  0  0  0  0  3  0  0  0  0  0  0
  -25.0290  -27.6990   18.5070 C   0  0  0  0  0  3  0  0  0  0  0  0
  -23.6270  -29.6030   19.4940 C   0  0  0  0  0  2  0  0  0  0  0  0
  -24.6840  -30.7160   21.5150 N   0  0  0  0  0  0  0  0  0  0  0  0
  -23.5630  -31.4510   23.3460 O   0  0  0  0  0  0  0  0  0  0  0  0
  -22.9430  -28.8840   21.8060 C   0  0  0  0  0  0  0  0  0  0  0  0
  -21.6320  -28.5980   21.7200 N   0  0  0  0  0  0  0  0  0  0  0  0
  -23.7260  -28.2220   22.4920 O   0  0  0  0  0  0  0  0  0  0  0  0
  -21.0560  -29.1940   21.1420 H   0  0  0  0  0  0  0  0  0  0  0  0
  -18.4130  -27.0320   22.2080 C   0  0  0  0  0  0  0  0  0  0  0  0
  -20.9490  -27.4940   22.3930 C   0  0  0  0  0  3  0  0  0  0  0  0
  -21.1430  -26.1680   21.6230 C   0  0  0  0  0  2  0  0  0  0  0  0
  -20.0170  -25.8770   20.6270 C   0  0  0  0  0  2  0  0  0  0  0  0
  -18.6670  -25.8060   21.3480 C   0  0  0  0  0  2  0  0  0  0  0  0
  -19.4830  -27.8340   22.6850 C   0  0  0  0  0  0  0  0  0  0  0  0
  -19.1890  -28.9840   23.4500 C   0  0  0  0  0  3  0  0  0  0  0  0
  -17.8570  -29.3320   23.7430 C   0  0  0  0  0  3  0  0  0  0  0  0
  -16.8020  -28.5260   23.2820 C   0  0  0  0  0  3  0  0  0  0  0  0
  -17.0810  -27.3770   22.5200 C   0  0  0  0  0  3  0  0  0  0  0  0
  -25.8920  -32.0130   23.3540 C   0  0  0  0  0  3  0  0  0  0  0  0
  -25.4840  -33.3100   23.9130 N   0  0  0  0  0  0  0  0  0  0  0  0
  -25.6970  -34.4930   23.3230 C   0  0  0  0  0  0  0  0  0  0  0  0
  -26.3310  -34.6120   22.2710 O   0  0  0  0  0  0  0  0  0  0  0  0
  -24.9130  -33.2840   24.7460 H   0  0  0  0  0  0  0  0  0  0  0  0
  -23.8130  -36.1590   23.2980 C   0  0  0  0  0  1  0  0  0  0  0  0
  -25.1130  -35.7440   24.0080 C   0  0  0  0  0  3  0  0  0  0  0  0
  -27.2010  -36.6660   24.9130 C   0  0  0  0  0  1  0  0  0  0  0  0
  -26.0490  -36.8890   24.0420 N   0  0  0  0  0  0  0  0  0  0  0  0
  -25.5760  -37.7320   24.3580 H   0  0  0  0  0  0  0  0  0  0  0  0
  -26.5710  -31.1170   24.4630 C   0  0  1  0  0  0  0  0  0  0  0  0
  -25.5890  -30.6150   25.5450 C   0  0  0  0  0  1  0  0  0  0  0  0
  -27.2400  -29.8780   23.8250 C   0  0  0  0  0  1  0  0  0  0  0  0
  -27.6970  -31.9120   25.1640 C   0  0  0  0  0  1  0  0  0  0  0  0
  -26.0150  -21.7100   21.4690 O   0  0  0  0  0  0  0  0  0  0  0  0
  -25.5500  -22.5390   21.4530 H   0  0  0  0  0  0  0  0  0  0  0  0
  1  4  1  0
  3  6  2  0
  4  2  2  0
  4 45  1  0
  5  3  1  0
  5  1  2  0
  6 15  1  0
  6  2  1  0
  7 15  1  0
  8 13  1  0
  9 10  1  0
  9  8  1  0
 11 10  1  0
 11 20  1  0
 11 12  1  0
 13  7  1  0
 13 12  1  0
 14  7  2  0
 15 16  1  0
 17 18  2  0
 18 37  1  0
 19 18  1  0
 19 22  1  0
 20 21  1  0
 20 17  1  0
 21 19  2  0
 22 23  1  0
 23 24  2  0
 25 28  1  0
 25 24  1  0
 26 25  2  0
 27 26  1  0
 27 22  2  0
 28 29  1  0
 29 30  1  0
 30 31  2  0
 32 31  1  0
 32 36  1  0
 33 32  2  0
 34 29  2  0
 34 33  1  0
 35 34  1  0
 37 38  1  0
 38 41  1  0
 38 40  1  0
 39 37  2  0
 42 17  1  0
 42 43  1  0
 44 42  1  0
 45 49  2  0
 46 48  1  0
 46 50  2  0
 47 46  1  0
 48 45  1  0
 49 53  1  0
 49 52  1  0
 51 48  1  0
 54 57  1  0
 55 57  2  0
 56 54  2  0
 57105  1  0
 58 56  1  0
 58 59  1  0
 59  5  1  0
 59 55  1  0
 60 58  2  0
 61 56  1  0
 61 63  1  0
 62 61  1  0
 64 66  1  0
 64 63  1  0
 65 76  2  0
 66 71  1  0
 67 75  1  0
 67 77  1  0
 68 74  1  0
 68 70  1  0
 69 75  1  0
 70 69  1  0
 71 70  2  0
 72 73  1  0
 72 66  2  0
 73 68  2  0
 74 67  1  0
 75 65  1  0
 77 79  2  0
 78 77  1  0
 80 78  1  0
 81 90  2  0
 81 86  1  0
 82 78  1  0
 82 86  1  0
 83 82  1  0
 84 85  1  0
 84 83  1  0
 85 81  1  0
 86 87  2  0
 87 88  1  0
 89 88  2  0
 90 89  1  0
 91 65  1  0
 91 92  1  0
 91101  1  0
 92 95  1  0
 93 92  1  0
 93 97  1  0
 94 93  2  0
 97 96  1  0
 97 99  1  0
 99100  1  0
 99 98  1  0
101104  1  1
101102  1  0
103101  1  0
106105  1  0
M  ISO  4   7 100  15 100  63 101  64 101
M  END
>  <TORSDO>  (39) 
F 21

>  <SCORE>  (39) 
-9.384

>  <name>  (39) 
38

>  <ligand_id>  (39) 
38

>  <original_smiles>  (39) 
[H]Oc1c([H])c(N([H])C([H])([H])Oc2c([H])c([H])c3c(c2[H])C([H])([H])N(C(=O)C([H])(N([H])C(=O)C([H])(N([H])C([H])([H])[H])C([H])([H])[H])C(C([H])([H])[H])(C([H])([H])[H])C([H])([H])[H])C([H])(C(=O)N([H])C2([H])c4c([H])c([H])c([H])c([H])c4C([H])([H])C([H])([H])C2([H])[H])C3([H])[H])c(=O)n(-c2c([H])c(C(N([H])C(=O)C([H])([H])[H])=[N+]([H])[H])c([H])c(N([H])C(=O)N3C([H])([H])C([H])([H])C([H])([H])C([H])(n4nc(-c5c([H])c([H])c(Oc6c([H])c([H])c(F)c([H])c6F)c([H])c5[H])c(C(=O)N([H])[H])c4N([H])[H])C3([H])[H])c2[H])c1[H]

>  <smiles>  (39) 
[H]Oc1c([H])c(N([H])C([H])([H])Oc2c([H])c([H])c3c(c2[H])C([H])([H])N(C(=O)C([H])(N([H])C(=O)C([H])(N([H])C([H])([H])[H])C([H])([H])[H])C(C([H])([H])[H])(C([H])([H])[H])C([H])([H])[H])C([H])(C(=O)N([H])C2([H])c4c([H])c([H])c([H])c([H])c4C([H])([H])C([H])([H])C2([H])[H])C3([H])[H])c(=O)n(-c2c([H])c(C(N([H])C(=O)C([H])([H])[H])=[N+]([H])[H])c([H])c(N([H])C(=O)N3C([H])([H])C([H])([H])C([H])([H])C([H])(n4nc(-c5c([H])c([H])c(Oc6c([H])c([H])c(F)c([H])c6F)c([H])c5[H])c(C(=O)N([H])[H])c4N([H])[H])C3([H])[H])c2[H])c1[H]

$$$$
39:0:0
     RDKit          3D

 96104  0  0  1  0  0  0  0  0999 V2000
  -29.1350  -18.0130   19.7050 C   0  0  0  0  0  3  0  0  0  0  0  0
  -29.0640  -19.4350   19.5820 C   0  0  0  0  0  3  0  0  0  0  0  0
  -30.7840  -18.2250   21.4400 C   0  0  0  0  0  3  0  0  0  0  0  0
  -30.0090  -17.3690   20.6210 C   0  0  0  0  0  0  0  0  0  0  0  0
  -29.8450  -20.3050   20.3970 C   0  0  0  0  0  0  0  0  0  0  0  0
  -30.7090  -19.6490   21.3350 C   0  0  0  0  0  0  0  0  0  0  0  0
  -30.8180  -14.9070   20.6090 C   0  0  0  0  0  0  0  0  0  0  0  0
  -30.7680  -12.5760   19.7260 C   0  0  0  0  0  2  0  0  0  0  0  0
  -29.8800  -12.5590   18.4600 C   0  0  0  0  0  2  0  0  0  0  0  0
  -28.3910  -12.3800   18.8260 C   0  0  0  0  0  2  0  0  0  0  0  0
  -27.9430  -13.3320   19.9670 C   0  0  0  0  0  3  0  0  0  0  0  0
  -28.9460  -13.2960   21.1400 C   0  0  0  0  0  2  0  0  0  0  0  0
  -30.2680  -13.6510   20.6060 N   0  0  0  0  0  0  0  0  0  0  0  0
  -31.9860  -15.1010   20.2600 O   0  0  0  0  0  0  0  0  0  0  0  0
  -29.9350  -15.9280   20.8510 N   0  0  0  0  0  0  0  0  0  0  0  0
  -29.0130  -15.5880   21.0780 H   0  0  0  0  0  0  0  0  0  0  0  0
  -25.5300  -13.9410   20.6140 C   0  0  0  0  0  0  0  0  0  0  0  0
  -24.4510  -13.1690   20.9530 C   0  0  0  0  0  0  0  0  0  0  0  0
  -24.9120  -11.8170   20.9330 C   0  0  0  0  0  0  0  0  0  0  0  0
  -26.5780  -13.0570   20.4080 N   0  0  0  0  0  0  0  0  0  0  0  0
  -26.2100  -11.7750   20.6600 N   0  0  0  0  0  0  0  0  0  0  0  0
  -24.1770  -10.5570   21.1010 C   0  0  0  0  0  0  0  0  0  0  0  0
  -24.5600   -9.6020   22.0700 C   0  0  0  0  0  3  0  0  0  0  0  0
  -23.8290   -8.4060   22.2230 C   0  0  0  0  0  3  0  0  0  0  0  0
  -22.7000   -8.1540   21.4080 C   0  0  0  0  0  0  0  0  0  0  0  0
  -22.3360   -9.0970   20.4300 C   0  0  0  0  0  3  0  0  0  0  0  0
  -23.0690  -10.2860   20.2750 C   0  0  0  0  0  3  0  0  0  0  0  0
  -21.9430   -7.0090   21.4690 O   0  0  0  0  0  0  0  0  0  0  0  0
  -21.7910   -6.3050   22.6360 C   0  0  0  0  0  0  0  0  0  0  0  0
  -21.2080   -6.8860   23.7840 C   0  0  0  0  0  3  0  0  0  0  0  0
  -21.0080   -6.1080   24.9410 C   0  0  0  0  0  3  0  0  0  0  0  0
  -21.3810   -4.7500   24.9520 C   0  0  0  0  0  0  0  0  0  0  0  0
  -21.9560   -4.1690   23.8080 C   0  0  0  0  0  3  0  0  0  0  0  0
  -22.1580   -4.9450   22.6530 C   0  0  0  0  0  0  0  0  0  0  0  0
  -22.6930   -4.3740   21.5460 F   0  0  0  0  0  0  0  0  0  0  0  0
  -21.1830   -4.0010   26.0610 F   0  0  0  0  0  0  0  0  0  0  0  0
  -23.0480  -13.6480   21.1860 C   0  0  0  0  0  0  0  0  0  0  0  0
  -22.2950  -12.9560   22.0330 N   0  0  0  0  0  0  0  0  0  0  0  0
  -22.6260  -14.6750   20.6520 O   0  0  0  0  0  0  0  0  0  0  0  0
  -22.6460  -12.1290   22.4910 H   0  0  0  0  0  0  0  0  0  0  0  0
  -21.3510  -13.2590   22.2260 H   0  0  0  0  0  0  0  0  0  0  0  0
  -25.7010  -15.3120   20.4460 N   0  0  0  0  0  0  0  0  0  0  0  0
  -24.9270  -15.9620   20.5330 H   0  0  0  0  0  0  0  0  0  0  0  0
  -26.5530  -15.7530   20.1280 H   0  0  0  0  0  0  0  0  0  0  0  0
  -30.4730  -21.1470   23.7800 C   0  0  0  0  0  1  0  0  0  0  0  0
  -32.6430  -19.7070   23.2020 O   0  0  0  0  0  0  0  0  0  0  0  0
  -32.1990  -21.8140   21.8690 O   0  0  0  0  0  0  0  0  0  0  0  0
  -31.6820  -20.6010   22.5290 S   0  0  1  0  0  0  0  0  0  0  0  0
  -29.0160  -22.6750   19.6760 C   0  0  0  0  0  0  0  0  0  0  0  0
  -29.8180  -21.7720   20.3160 N   0  0  0  0  0  0  0  0  0  0  0  0
  -28.0610  -22.3270   18.9800 O   0  0  0  0  0  0  0  0  0  0  0  0
  -30.5670  -22.2150   20.8410 H   0  0  0  0  0  0  0  0  0  0  0  0
  -30.5260  -24.5830   18.9240 C   0  0  0  0  0  1  0  0  0  0  0  0
  -29.3340  -24.2220   19.8290 C   0  0  0  0  0  3  0  0  0  0  0  0
  -28.1210  -25.2110   19.5500 C   0  0  0  0  0  2  0  0  0  0  0  0
  -28.2920  -26.6640   19.7690 O   0  0  0  0  0  0  0  0  0  0  0  0
  -24.5280  -31.8140   23.1050 C   0  0  0  0  0  0  0  0  0  0  0  0
  -27.1440  -27.4720   19.7720 C   0  0  0  0  0  0  0  0  0  0  0  0
  -23.3050  -30.4710   21.4350 C   0  0  0  0  0  3  0  0  0  0  0  0
  -24.7430  -29.0200   19.9000 C   0  0  0  0  0  0  0  0  0  0  0  0
  -25.8290  -30.8540   21.1940 C   0  0  0  0  0  2  0  0  0  0  0  0
  -25.9180  -29.5110   20.4830 C   0  0  0  0  0  0  0  0  0  0  0  0
  -27.1210  -28.7510   20.4100 C   0  0  0  0  0  3  0  0  0  0  0  0
  -25.9400  -27.0300   19.1750 C   0  0  0  0  0  3  0  0  0  0  0  0
  -24.7560  -27.7840   19.2380 C   0  0  0  0  0  3  0  0  0  0  0  0
  -23.4910  -29.8620   20.0200 C   0  0  0  0  0  2  0  0  0  0  0  0
  -24.5740  -31.0610   21.9680 N   0  0  0  0  0  0  0  0  0  0  0  0
  -23.4560  -32.0410   23.6870 O   0  0  0  0  0  0  0  0  0  0  0  0
  -22.6890  -29.3960   22.3630 C   0  0  0  0  0  0  0  0  0  0  0  0
  -21.3690  -29.1780   22.2450 N   0  0  0  0  0  0  0  0  0  0  0  0
  -23.4000  -28.7620   23.1490 O   0  0  0  0  0  0  0  0  0  0  0  0
  -20.8560  -29.7430   21.5830 H   0  0  0  0  0  0  0  0  0  0  0  0
  -18.0450  -27.8290   22.7040 C   0  0  0  0  0  0  0  0  0  0  0  0
  -20.5900  -28.1880   22.9900 C   0  0  0  0  0  3  0  0  0  0  0  0
  -20.7540  -26.7770   22.3790 C   0  0  0  0  0  2  0  0  0  0  0  0
  -19.6690  -26.4350   21.3540 C   0  0  0  0  0  2  0  0  0  0  0  0
  -18.2800  -26.5060   21.9960 C   0  0  0  0  0  2  0  0  0  0  0  0
  -19.1290  -28.6260   23.1560 C   0  0  0  0  0  0  0  0  0  0  0  0
  -18.8530  -29.8640   23.7780 C   0  0  0  0  0  3  0  0  0  0  0  0
  -17.5280  -30.3050   23.9500 C   0  0  0  0  0  3  0  0  0  0  0  0
  -16.4580  -29.5040   23.5130 C   0  0  0  0  0  3  0  0  0  0  0  0
  -16.7180  -28.2680   22.8960 C   0  0  0  0  0  3  0  0  0  0  0  0
  -25.8160  -32.4440   23.7200 C   0  0  0  0  0  3  0  0  0  0  0  0
  -26.3640  -31.6420   24.9640 C   0  0  1  0  0  0  0  0  0  0  0  0
  -25.2950  -31.3670   26.0480 C   0  0  0  0  0  1  0  0  0  0  0  0
  -26.9470  -30.2790   24.5220 C   0  0  0  0  0  1  0  0  0  0  0  0
  -27.5220  -32.4270   25.6230 C   0  0  0  0  0  1  0  0  0  0  0  0
  -25.4970  -33.8270   24.0970 N   0  0  0  0  0  0  0  0  0  0  0  0
  -25.8000  -34.9060   23.3630 C   0  0  0  0  0  0  0  0  0  0  0  0
  -26.4460  -34.8410   22.3140 O   0  0  0  0  0  0  0  0  0  0  0  0
  -24.9220  -33.9480   24.9180 H   0  0  0  0  0  0  0  0  0  0  0  0
  -24.0490  -36.6900   23.0970 C   0  0  0  0  0  1  0  0  0  0  0  0
  -25.3070  -36.2740   23.8730 C   0  0  0  0  0  3  0  0  0  0  0  0
  -27.4450  -37.1570   24.7010 C   0  0  0  0  0  1  0  0  0  0  0  0
  -26.3270  -37.3410   23.7790 N   0  0  0  0  0  0  0  0  0  0  0  0
  -25.9150  -38.2520   23.9590 H   0  0  0  0  0  0  0  0  0  0  0  0
  1  4  1  0
  2  1  2  0
  2  5  1  0
  4 15  1  0
  4  3  2  0
  5  6  2  0
  6  3  1  0
  6 48  1  0
  7 15  1  0
  8 13  1  0
  9 10  1  0
  9  8  1  0
 11 10  1  0
 11 20  1  0
 11 12  1  0
 13  7  1  0
 13 12  1  0
 14  7  2  0
 15 16  1  0
 17 18  2  0
 18 37  1  0
 19 18  1  0
 19 22  1  0
 20 17  1  0
 20 21  1  0
 21 19  2  0
 22 23  1  0
 23 24  2  0
 25 28  1  0
 25 24  1  0
 26 25  2  0
 27 26  1  0
 27 22  2  0
 28 29  1  0
 29 34  2  0
 29 30  1  0
 30 31  2  0
 31 32  1  0
 32 36  1  0
 33 32  2  0
 34 33  1  0
 35 34  1  0
 37 38  1  0
 38 41  1  0
 38 40  1  0
 39 37  2  0
 42 43  1  0
 42 17  1  0
 44 42  1  0
 47 48  2  0
 48 46  2  0
 48 45  1  1
 49 54  1  0
 49 50  1  0
 50  5  1  0
 50 52  1  0
 51 49  2  0
 54 53  1  0
 55 56  1  0
 55 54  1  0
 56 58  1  0
 57 68  2  0
 58 63  1  0
 59 67  1  0
 59 69  1  0
 60 66  1  0
 60 62  1  0
 61 67  1  0
 62 61  1  0
 63 62  2  0
 64 65  1  0
 64 58  2  0
 65 60  2  0
 66 59  1  0
 67 57  1  0
 69 71  2  0
 70 69  1  0
 72 70  1  0
 73 82  2  0
 73 78  1  0
 74 70  1  0
 74 78  1  0
 75 74  1  0
 76 77  1  0
 76 75  1  0
 77 73  1  0
 78 79  2  0
 79 80  1  0
 81 80  2  0
 82 81  1  0
 83 57  1  0
 83 88  1  0
 83 84  1  0
 84 87  1  1
 84 85  1  0
 86 84  1  0
 88 91  1  0
 89 93  1  0
 89 88  1  0
 90 89  2  0
 93 92  1  0
 95 93  1  0
 95 96  1  0
 95 94  1  0
M  ISO  4   7 100  15 100  55 101  56 101
M  END
>  <TORSDO>  (40) 
F 20

>  <SCORE>  (40) 
-13.644

>  <name>  (40) 
39

>  <ligand_id>  (40) 
39

>  <original_smiles>  (40) 
[H]c1c([H])c([H])c2c(c1[H])C([H])([H])C([H])([H])C([H])([H])C2([H])N([H])C(=O)C1([H])N(C(=O)C([H])(N([H])C(=O)C([H])(N([H])C([H])([H])[H])C([H])([H])[H])C(C([H])([H])[H])(C([H])([H])[H])C([H])([H])[H])C([H])([H])c2c([H])c(OC([H])([H])C([H])(C(=O)N([H])c3c([H])c([H])c(N([H])C(=O)N4C([H])([H])C([H])([H])C([H])([H])C([H])(n5nc(-c6c([H])c([H])c(Oc7c([H])c([H])c(F)c([H])c7F)c([H])c6[H])c(C(=O)N([H])[H])c5N([H])[H])C4([H])[H])c([H])c3S(=O)(=O)C([H])([H])[H])C([H])([H])[H])c([H])c([H])c2C1([H])[H]

>  <smiles>  (40) 
[H]c1c([H])c([H])c2c(c1[H])C([H])([H])C([H])([H])C([H])([H])C2([H])N([H])C(=O)C1([H])N(C(=O)C([H])(N([H])C(=O)C([H])(N([H])C([H])([H])[H])C([H])([H])[H])C(C([H])([H])[H])(C([H])([H])[H])C([H])([H])[H])C([H])([H])c2c([H])c(OC([H])([H])C([H])(C(=O)N([H])c3c([H])c([H])c(N([H])C(=O)N4C([H])([H])C([H])([H])C([H])([H])C([H])(n5nc(-c6c([H])c([H])c(Oc7c([H])c([H])c(F)c([H])c7F)c([H])c6[H])c(C(=O)N([H])[H])c5N([H])[H])C4([H])[H])c([H])c3S(=O)(=O)C([H])([H])[H])C([H])([H])[H])c([H])c([H])c2C1([H])[H]

$$$$
40:0:0
     RDKit          3D

 96104  0  0  1  0  0  0  0  0999 V2000
  -29.1480  -16.7050   19.0840 C   0  0  0  0  0  3  0  0  0  0  0  0
  -29.5880  -18.0520   21.0580 C   0  0  0  0  0  3  0  0  0  0  0  0
  -28.4260  -19.0480   19.1420 C   0  0  0  0  0  0  0  0  0  0  0  0
  -29.6510  -16.7900   20.4010 C   0  0  0  0  0  0  0  0  0  0  0  0
  -28.5330  -17.8080   18.4650 C   0  0  0  0  0  0  0  0  0  0  0  0
  -29.0220  -19.2000   20.4290 C   0  0  0  0  0  0  0  0  0  0  0  0
  -27.6370  -20.1820   18.4900 C   0  0  0  0  0  1  0  0  0  0  0  0
  -30.8210  -14.6040   20.4480 C   0  0  0  0  0  0  0  0  0  0  0  0
  -30.4180  -12.5560   19.1180 C   0  0  0  0  0  2  0  0  0  0  0  0
  -29.4480  -12.8460   17.9550 C   0  0  0  0  0  2  0  0  0  0  0  0
  -27.9840  -12.7200   18.4200 C   0  0  0  0  0  2  0  0  0  0  0  0
  -27.6970  -13.4550   19.7580 C   0  0  0  0  0  3  0  0  0  0  0  0
  -28.7830  -13.1530   20.8120 C   0  0  0  0  0  2  0  0  0  0  0  0
  -30.0870  -13.4790   20.2160 N   0  0  0  0  0  0  0  0  0  0  0  0
  -31.9600  -14.7560   20.0030 O   0  0  0  0  0  0  0  0  0  0  0  0
  -30.2040  -15.6370   21.0660 N   0  0  0  0  0  0  0  0  0  0  0  0
  -30.6420  -15.8600   21.9480 H   0  0  0  0  0  0  0  0  0  0  0  0
  -25.3070  -14.0400   20.5010 C   0  0  0  0  0  0  0  0  0  0  0  0
  -24.2490  -13.2570   20.8750 C   0  0  0  0  0  0  0  0  0  0  0  0
  -24.7210  -11.9100   20.8330 C   0  0  0  0  0  0  0  0  0  0  0  0
  -26.3560  -13.1670   20.2550 N   0  0  0  0  0  0  0  0  0  0  0  0
  -26.0090  -11.8810   20.5150 N   0  0  0  0  0  0  0  0  0  0  0  0
  -24.0080  -10.6400   21.0210 C   0  0  0  0  0  0  0  0  0  0  0  0
  -24.4420   -9.6830   21.9630 C   0  0  0  0  0  3  0  0  0  0  0  0
  -23.7300   -8.4770   22.1390 C   0  0  0  0  0  3  0  0  0  0  0  0
  -22.5680   -8.2220   21.3710 C   0  0  0  0  0  0  0  0  0  0  0  0
  -22.1540   -9.1680   20.4170 C   0  0  0  0  0  3  0  0  0  0  0  0
  -22.8670  -10.3650   20.2400 C   0  0  0  0  0  3  0  0  0  0  0  0
  -21.8270   -7.0670   21.4560 O   0  0  0  0  0  0  0  0  0  0  0  0
  -21.7640   -6.3360   22.6150 C   0  0  0  0  0  0  0  0  0  0  0  0
  -21.2880   -6.8920   23.8220 C   0  0  0  0  0  3  0  0  0  0  0  0
  -21.1760   -6.0850   24.9720 C   0  0  0  0  0  3  0  0  0  0  0  0
  -21.5280   -4.7230   24.9150 C   0  0  0  0  0  0  0  0  0  0  0  0
  -21.9960   -4.1660   23.7110 C   0  0  0  0  0  3  0  0  0  0  0  0
  -22.1110   -4.9710   22.5640 C   0  0  0  0  0  0  0  0  0  0  0  0
  -22.5430   -4.4250   21.4020 F   0  0  0  0  0  0  0  0  0  0  0  0
  -21.4120   -3.9450   26.0160 F   0  0  0  0  0  0  0  0  0  0  0  0
  -22.8510  -13.7210   21.1610 C   0  0  0  0  0  0  0  0  0  0  0  0
  -22.1340  -13.0140   22.0280 N   0  0  0  0  0  0  0  0  0  0  0  0
  -22.4010  -14.7480   20.6530 O   0  0  0  0  0  0  0  0  0  0  0  0
  -22.5110  -12.1830   22.4620 H   0  0  0  0  0  0  0  0  0  0  0  0
  -21.1960  -13.3050   22.2610 H   0  0  0  0  0  0  0  0  0  0  0  0
  -25.4610  -15.4120   20.3290 N   0  0  0  0  0  0  0  0  0  0  0  0
  -24.6920  -16.0640   20.4470 H   0  0  0  0  0  0  0  0  0  0  0  0
  -26.3090  -15.8550   19.9990 H   0  0  0  0  0  0  0  0  0  0  0  0
  -29.5140  -21.6430   20.7770 C   0  0  0  0  0  0  0  0  0  0  0  0
  -28.9830  -20.4510   21.1460 N   0  0  0  0  0  0  0  0  0  0  0  0
  -30.2600  -21.7670   19.8030 O   0  0  0  0  0  0  0  0  0  0  0  0
  -28.5260  -20.4340   22.0490 H   0  0  0  0  0  0  0  0  0  0  0  0
  -29.1840  -22.8850   21.6410 C   0  0  0  0  0  2  0  0  0  0  0  0
  -29.4090  -24.2730   20.9560 C   0  0  0  0  0  2  0  0  0  0  0  0
  -28.9290  -25.4790   21.8100 C   0  0  0  0  0  2  0  0  0  0  0  0
  -29.0720  -26.7690   21.1740 O   0  0  0  0  0  0  0  0  0  0  0  0
  -24.8540  -32.0240   23.5380 C   0  0  0  0  0  0  0  0  0  0  0  0
  -27.9010  -27.4840   21.0180 C   0  0  0  0  0  0  0  0  0  0  0  0
  -23.8440  -30.4710   21.9010 C   0  0  0  0  0  3  0  0  0  0  0  0
  -25.4690  -28.8980   20.7120 C   0  0  0  0  0  0  0  0  0  0  0  0
  -26.3640  -30.9140   21.8900 C   0  0  0  0  0  2  0  0  0  0  0  0
  -26.5540  -29.5060   21.3590 C   0  0  0  0  0  0  0  0  0  0  0  0
  -27.7770  -28.8090   21.5020 C   0  0  0  0  0  3  0  0  0  0  0  0
  -26.8040  -26.8930   20.3580 C   0  0  0  0  0  3  0  0  0  0  0  0
  -25.5910  -27.5930   20.2040 C   0  0  0  0  0  3  0  0  0  0  0  0
  -24.1970  -29.7080   20.5940 C   0  0  0  0  0  2  0  0  0  0  0  0
  -25.0330  -31.1560   22.5020 N   0  0  0  0  0  0  0  0  0  0  0  0
  -23.7210  -32.2870   23.9650 O   0  0  0  0  0  0  0  0  0  0  0  0
  -23.1460  -29.4910   22.8720 C   0  0  0  0  0  0  0  0  0  0  0  0
  -21.8430  -29.2510   22.6480 N   0  0  0  0  0  0  0  0  0  0  0  0
  -23.7760  -28.9450   23.7810 O   0  0  0  0  0  0  0  0  0  0  0  0
  -21.3970  -29.7460   21.8880 H   0  0  0  0  0  0  0  0  0  0  0  0
  -18.4730  -27.9820   22.9510 C   0  0  0  0  0  0  0  0  0  0  0  0
  -20.9930  -28.3340   23.4060 C   0  0  0  0  0  3  0  0  0  0  0  0
  -21.1780  -26.8750   22.9240 C   0  0  0  0  0  2  0  0  0  0  0  0
  -20.1690  -26.4630   21.8480 C   0  0  0  0  0  2  0  0  0  0  0  0
  -18.7370  -26.6020   22.3720 C   0  0  0  0  0  2  0  0  0  0  0  0
  -19.5330  -28.8010   23.4210 C   0  0  0  0  0  0  0  0  0  0  0  0
  -19.2360  -30.0900   23.9140 C   0  0  0  0  0  3  0  0  0  0  0  0
  -17.9090  -30.5590   23.9490 C   0  0  0  0  0  3  0  0  0  0  0  0
  -16.8620  -29.7380   23.4960 C   0  0  0  0  0  3  0  0  0  0  0  0
  -17.1440  -28.4510   23.0020 C   0  0  0  0  0  3  0  0  0  0  0  0
  -26.0580  -32.7440   24.2220 C   0  0  0  0  0  3  0  0  0  0  0  0
  -25.6810  -34.1500   24.4160 N   0  0  0  0  0  0  0  0  0  0  0  0
  -26.0340  -35.1520   23.6000 C   0  0  0  0  0  0  0  0  0  0  0  0
  -26.7830  -34.9940   22.6320 O   0  0  0  0  0  0  0  0  0  0  0  0
  -25.0230  -34.3430   25.1580 H   0  0  0  0  0  0  0  0  0  0  0  0
  -24.2650  -36.8340   22.9940 C   0  0  0  0  0  1  0  0  0  0  0  0
  -25.4690  -36.5520   23.9080 C   0  0  0  0  0  3  0  0  0  0  0  0
  -27.5120  -37.5970   24.7840 C   0  0  0  0  0  1  0  0  0  0  0  0
  -26.4660  -37.6350   23.7630 N   0  0  0  0  0  0  0  0  0  0  0  0
  -26.0180  -38.5460   23.8020 H   0  0  0  0  0  0  0  0  0  0  0  0
  -26.4810  -32.0850   25.5920 C   0  0  1  0  0  0  0  0  0  0  0  0
  -25.3000  -31.8550   26.5630 C   0  0  0  0  0  1  0  0  0  0  0  0
  -27.1660  -30.7190   25.3510 C   0  0  0  0  0  1  0  0  0  0  0  0
  -27.5200  -32.9820   26.3070 C   0  0  0  0  0  1  0  0  0  0  0  0
  -28.0200  -17.6400   17.1770 N   0  0  0  0  0  0  0  0  0  0  0  0
  -27.8820  -16.7060   16.8020 H   0  0  0  0  0  0  0  0  0  0  0  0
  -27.3780  -18.3290   16.8000 H   0  0  0  0  0  0  0  0  0  0  0  0
  1  4  1  0
  3  6  2  0
  4  2  2  0
  4 16  1  0
  5  1  2  0
  5  3  1  0
  6  2  1  0
  6 47  1  0
  7  3  1  0
  8 16  1  0
  9 14  1  0
 10 11  1  0
 10  9  1  0
 12 11  1  0
 12 21  1  0
 12 13  1  0
 14  8  1  0
 14 13  1  0
 15  8  2  0
 16 17  1  0
 18 19  2  0
 19 38  1  0
 20 19  1  0
 20 23  1  0
 21 18  1  0
 21 22  1  0
 22 20  2  0
 23 24  1  0
 24 25  2  0
 26 29  1  0
 26 25  1  0
 27 26  2  0
 28 27  1  0
 28 23  2  0
 29 30  1  0
 30 31  1  0
 31 32  2  0
 33 32  1  0
 33 37  1  0
 34 33  2  0
 35 30  2  0
 35 34  1  0
 36 35  1  0
 38 39  1  0
 39 42  1  0
 39 41  1  0
 40 38  2  0
 43 44  1  0
 43 18  1  0
 45 43  1  0
 46 47  1  0
 46 50  1  0
 47 49  1  0
 48 46  2  0
 51 50  1  0
 51 52  1  0
 53 52  1  0
 54 65  2  0
 55 53  1  0
 55 60  1  0
 56 64  1  0
 56 66  1  0
 57 59  1  0
 58 64  1  0
 59 60  2  0
 59 58  1  0
 61 55  2  0
 62 61  1  0
 62 57  2  0
 63 57  1  0
 63 56  1  0
 64 54  1  0
 66 68  2  0
 67 66  1  0
 69 67  1  0
 70 79  2  0
 70 75  1  0
 71 67  1  0
 71 75  1  0
 72 71  1  0
 73 74  1  0
 73 72  1  0
 74 70  1  0
 75 76  2  0
 76 77  1  0
 78 77  2  0
 79 78  1  0
 80 54  1  0
 80 81  1  0
 80 90  1  0
 81 84  1  0
 82 86  1  0
 82 81  1  0
 83 82  2  0
 86 85  1  0
 88 89  1  0
 88 86  1  0
 88 87  1  0
 90 93  1  1
 90 91  1  0
 92 90  1  0
 94  5  1  0
 95 94  1  0
 96 94  1  0
M  ISO  4   8 100  16 100  52 101  53 101
M  END
>  <TORSDO>  (41) 
F 21

>  <SCORE>  (41) 
-13.134

>  <name>  (41) 
40

>  <ligand_id>  (41) 
40

>  <original_smiles>  (41) 
[H]c1c([H])c([H])c2c(c1[H])C([H])([H])C([H])([H])C([H])([H])C2([H])N([H])C(=O)C1([H])N(C(=O)C([H])(N([H])C(=O)C([H])(N([H])C([H])([H])[H])C([H])([H])[H])C(C([H])([H])[H])(C([H])([H])[H])C([H])([H])[H])C([H])([H])c2c([H])c(OC([H])([H])C([H])([H])C([H])([H])C(=O)N([H])c3c([H])c(N([H])C(=O)N4C([H])([H])C([H])([H])C([H])([H])C([H])(n5nc(-c6c([H])c([H])c(Oc7c([H])c([H])c(F)c([H])c7F)c([H])c6[H])c(C(=O)N([H])[H])c5N([H])[H])C4([H])[H])c([H])c(N([H])[H])c3C([H])([H])[H])c([H])c([H])c2C1([H])[H]

>  <smiles>  (41) 
[H]c1c([H])c([H])c2c(c1[H])C([H])([H])C([H])([H])C([H])([H])C2([H])N([H])C(=O)C1([H])N(C(=O)C([H])(N([H])C(=O)C([H])(N([H])C([H])([H])[H])C([H])([H])[H])C(C([H])([H])[H])(C([H])([H])[H])C([H])([H])[H])C([H])([H])c2c([H])c(OC([H])([H])C([H])([H])C([H])([H])C(=O)N([H])c3c([H])c(N([H])C(=O)N4C([H])([H])C([H])([H])C([H])([H])C([H])(n5nc(-c6c([H])c([H])c(Oc7c([H])c([H])c(F)c([H])c7F)c([H])c6[H])c(C(=O)N([H])[H])c5N([H])[H])C4([H])[H])c([H])c(N([H])[H])c3C([H])([H])[H])c([H])c([H])c2C1([H])[H]

$$$$
41:0:0
     RDKit          3D

 98106  0  0  1  0  0  0  0  0999 V2000
  -32.6270  -18.2890   18.9120 C   0  0  0  0  0  3  0  0  0  0  0  0
  -30.8010  -19.7600   18.3090 C   0  0  0  0  0  3  0  0  0  0  0  0
  -32.9760  -18.0820   17.5530 C   0  0  0  0  0  0  0  0  0  0  0  0
  -32.2140  -18.7840   16.5510 C   0  0  0  0  0  0  0  0  0  0  0  0
  -31.5870  -19.1380   19.3070 C   0  0  0  0  0  0  0  0  0  0  0  0
  -31.0830  -19.5830   16.9260 C   0  0  0  0  0  0  0  0  0  0  0  0
  -32.6470  -18.7630   15.0850 C   0  0  0  0  0  1  0  0  0  0  0  0
  -32.6070  -20.0130   21.4510 C   0  0  0  0  0  0  0  0  0  0  0  0
  -32.2940  -21.0740   23.6510 C   0  0  0  0  0  2  0  0  0  0  0  0
  -30.8820  -20.6870   24.1440 C   0  0  0  0  0  2  0  0  0  0  0  0
  -29.8080  -21.6540   23.6000 C   0  0  0  0  0  2  0  0  0  0  0  0
  -29.9340  -21.8970   22.0720 C   0  0  0  0  0  3  0  0  0  0  0  0
  -31.4010  -22.1980   21.6830 C   0  0  0  0  0  2  0  0  0  0  0  0
  -32.2370  -21.0950   22.1860 N   0  0  0  0  0  0  0  0  0  0  0  0
  -33.5260  -19.2520   21.7670 O   0  0  0  0  0  0  0  0  0  0  0  0
  -31.5980  -19.5830   20.6630 N   0  0  0  0  0  0  0  0  0  0  0  0
  -30.7820  -20.1330   20.8730 H   0  0  0  0  0  0  0  0  0  0  0  0
  -29.1800  -24.3050   21.5760 C   0  0  0  0  0  0  0  0  0  0  0  0
  -28.0640  -24.8030   20.9630 C   0  0  0  0  0  0  0  0  0  0  0  0
  -27.2550  -23.6720   20.6360 C   0  0  0  0  0  0  0  0  0  0  0  0
  -29.0160  -22.9280   21.6010 N   0  0  0  0  0  0  0  0  0  0  0  0
  -27.8200  -22.5570   21.0810 N   0  0  0  0  0  0  0  0  0  0  0  0
  -26.0050  -23.5790   19.8720 C   0  0  0  0  0  0  0  0  0  0  0  0
  -24.7590  -23.4070   20.5130 C   0  0  0  0  0  3  0  0  0  0  0  0
  -23.5690  -23.3370   19.7600 C   0  0  0  0  0  3  0  0  0  0  0  0
  -23.6160  -23.4440   18.3490 C   0  0  0  0  0  0  0  0  0  0  0  0
  -24.8610  -23.5920   17.7120 C   0  0  0  0  0  3  0  0  0  0  0  0
  -26.0460  -23.6560   18.4650 C   0  0  0  0  0  3  0  0  0  0  0  0
  -22.5140  -23.3620   17.5320 O   0  0  0  0  0  0  0  0  0  0  0  0
  -21.5210  -24.3070   17.5700 C   0  0  0  0  0  0  0  0  0  0  0  0
  -21.8040  -25.6910   17.5300 C   0  0  0  0  0  3  0  0  0  0  0  0
  -20.7500  -26.6250   17.5000 C   0  0  0  0  0  3  0  0  0  0  0  0
  -19.4140  -26.1800   17.5000 C   0  0  0  0  0  0  0  0  0  0  0  0
  -19.1290  -24.8030   17.5350 C   0  0  0  0  0  3  0  0  0  0  0  0
  -20.1800  -23.8700   17.5660 C   0  0  0  0  0  0  0  0  0  0  0  0
  -19.9010  -22.5440   17.5760 F   0  0  0  0  0  0  0  0  0  0  0  0
  -18.4020  -27.0760   17.4620 F   0  0  0  0  0  0  0  0  0  0  0  0
  -27.8020  -26.2380   20.6070 C   0  0  0  0  0  0  0  0  0  0  0  0
  -26.6290  -26.7540   20.9540 N   0  0  0  0  0  0  0  0  0  0  0  0
  -28.6630  -26.9270   20.0600 O   0  0  0  0  0  0  0  0  0  0  0  0
  -25.9310  -26.1950   21.4220 H   0  0  0  0  0  0  0  0  0  0  0  0
  -26.4260  -27.7220   20.7480 H   0  0  0  0  0  0  0  0  0  0  0  0
  -30.3260  -24.9050   22.0890 N   0  0  0  0  0  0  0  0  0  0  0  0
  -30.4830  -25.9040   22.0170 H   0  0  0  0  0  0  0  0  0  0  0  0
  -31.1210  -24.4130   22.4750 H   0  0  0  0  0  0  0  0  0  0  0  0
  -33.9440  -15.9830   16.3350 C   0  0  0  0  0  1  0  0  0  0  0  0
  -34.8090  -16.5390   18.5440 C   0  0  0  0  0  1  0  0  0  0  0  0
  -35.3730  -18.0780   16.7060 C   0  0  0  0  0  1  0  0  0  0  0  0
  -34.2310  -17.1950   17.2610 C   0  0  2  0  0  0  0  0  0  0  0  0
  -30.2650  -20.3120   16.0180 N   0  0  0  0  0  0  0  0  0  0  0  0
  -29.8650  -19.8040   15.2340 H   0  0  0  0  0  0  0  0  0  0  0  0
  -29.2780  -22.4460   16.6740 C   0  0  0  0  0  0  0  0  0  0  0  0
  -30.1530  -21.7340   15.9240 N   0  0  0  0  0  0  0  0  0  0  0  0
  -28.4380  -21.8810   17.3820 O   0  0  0  0  0  0  0  0  0  0  0  0
  -30.8030  -22.1900   15.2930 H   0  0  0  0  0  0  0  0  0  0  0  0
  -29.3620  -23.9960   16.6480 C   0  0  0  0  0  2  0  0  0  0  0  0
  -30.2170  -24.6480   17.7810 C   0  0  0  0  0  2  0  0  0  0  0  0
  -31.5140  -25.1360   17.3400 O   0  0  0  0  0  0  0  0  0  0  0  0
  -37.8840  -22.2240   18.7710 C   0  0  0  0  0  0  0  0  0  0  0  0
  -32.5200  -24.2890   16.8880 C   0  0  0  0  0  0  0  0  0  0  0  0
  -37.0440  -21.8910   16.4710 C   0  0  0  0  0  3  0  0  0  0  0  0
  -34.6060  -22.5270   16.0770 C   0  0  0  0  0  0  0  0  0  0  0  0
  -35.4120  -22.2100   18.4200 C   0  0  0  0  0  2  0  0  0  0  0  0
  -34.4420  -22.8340   17.4330 C   0  0  0  0  0  0  0  0  0  0  0  0
  -33.4000  -23.7060   17.8390 C   0  0  0  0  0  3  0  0  0  0  0  0
  -32.7240  -23.9730   15.5230 C   0  0  0  0  0  3  0  0  0  0  0  0
  -33.7510  -23.0970   15.1200 C   0  0  0  0  0  3  0  0  0  0  0  0
  -35.7290  -21.5800   15.7120 C   0  0  0  0  0  2  0  0  0  0  0  0
  -36.8130  -22.1390   17.9310 N   0  0  0  0  0  0  0  0  0  0  0  0
  -39.0400  -22.0640   18.3560 O   0  0  0  0  0  0  0  0  0  0  0  0
  -37.7660  -23.0570   15.7570 C   0  0  0  0  0  0  0  0  0  0  0  0
  -38.6760  -22.7220   14.8290 N   0  0  0  0  0  0  0  0  0  0  0  0
  -37.4860  -24.2290   16.0240 O   0  0  0  0  0  0  0  0  0  0  0  0
  -38.8570  -21.7400   14.6740 H   0  0  0  0  0  0  0  0  0  0  0  0
  -41.6970  -23.0700   12.8800 C   0  0  0  0  0  0  0  0  0  0  0  0
  -39.4470  -23.6550   14.0100 C   0  0  0  0  0  3  0  0  0  0  0  0
  -38.8690  -23.7480   12.5790 C   0  0  0  0  0  2  0  0  0  0  0  0
  -39.5370  -22.7820   11.5950 C   0  0  0  0  0  2  0  0  0  0  0  0
  -41.0410  -23.0550   11.5090 C   0  0  0  0  0  2  0  0  0  0  0  0
  -40.9460  -23.3380   14.0560 C   0  0  0  0  0  0  0  0  0  0  0  0
  -41.6000  -23.3060   15.3080 C   0  0  0  0  0  3  0  0  0  0  0  0
  -42.9740  -23.0170   15.3950 C   0  0  0  0  0  3  0  0  0  0  0  0
  -43.7160  -22.7680   14.2270 C   0  0  0  0  0  3  0  0  0  0  0  0
  -43.0780  -22.7980   12.9740 C   0  0  0  0  0  3  0  0  0  0  0  0
  -37.7060  -22.5010   20.2960 C   0  0  0  0  0  3  0  0  0  0  0  0
  -38.4340  -21.4530   21.0240 N   0  0  0  0  0  0  0  0  0  0  0  0
  -37.8520  -20.4390   21.6800 C   0  0  0  0  0  0  0  0  0  0  0  0
  -36.6280  -20.3300   21.7930 O   0  0  0  0  0  0  0  0  0  0  0  0
  -39.4380  -21.4500   20.9290 H   0  0  0  0  0  0  0  0  0  0  0  0
  -38.3310  -17.9760   21.8630 C   0  0  0  0  0  1  0  0  0  0  0  0
  -38.7750  -19.3790   22.3090 C   0  0  0  0  0  3  0  0  0  0  0  0
  -39.1880  -20.7560   24.2990 C   0  0  0  0  0  1  0  0  0  0  0  0
  -38.8210  -19.4390   23.7860 N   0  0  0  0  0  0  0  0  0  0  0  0
  -39.4830  -18.7600   24.1520 H   0  0  0  0  0  0  0  0  0  0  0  0
  -38.2100  -23.9330   20.7300 C   0  0  1  0  0  0  0  0  0  0  0  0
  -39.6950  -23.9660   21.1610 C   0  0  0  0  0  1  0  0  0  0  0  0
  -38.0330  -24.9470   19.5760 C   0  0  0  0  0  1  0  0  0  0  0  0
  -37.3570  -24.4540   21.9120 C   0  0  0  0  0  1  0  0  0  0  0  0
  1  5  1  0
  2  5  2  0
  3  1  2  0
  4  6  2  0
  4  3  1  0
  5 16  1  0
  6  2  1  0
  7  4  1  0
  8 15  2  0
  8 14  1  0
  9 10  1  0
 11 10  1  0
 12 21  1  0
 12 11  1  0
 13 12  1  0
 13 14  1  0
 14  9  1  0
 16 17  1  0
 16  8  1  0
 18 21  1  0
 18 43  1  0
 19 18  2  0
 20 19  1  0
 20 22  2  0
 22 21  1  0
 23 24  1  0
 23 20  1  0
 25 24  2  0
 26 25  1  0
 27 26  2  0
 27 28  1  0
 28 23  2  0
 29 30  1  0
 29 26  1  0
 31 30  2  0
 32 33  2  0
 32 31  1  0
 33 34  1  0
 34 35  2  0
 35 30  1  0
 35 36  1  0
 37 33  1  0
 38 39  1  0
 38 19  1  0
 39 41  1  0
 40 38  2  0
 42 39  1  0
 43 45  1  0
 44 43  1  0
 49 46  1  6
 48 49  1  0
 49  3  1  0
 49 47  1  0
 50  6  1  0
 51 50  1  0
 52 54  2  0
 53 50  1  0
 53 52  1  0
 55 53  1  0
 56 52  1  0
 56 57  1  0
 58 57  1  0
 60 58  1  0
 60 65  1  0
 61 71  1  0
 61 69  1  0
 62 64  1  0
 64 65  2  0
 64 63  1  0
 66 60  2  0
 67 66  1  0
 67 62  2  0
 68 62  1  0
 68 61  1  0
 69 63  1  0
 69 59  1  0
 70 59  2  0
 71 73  2  0
 72 71  1  0
 74 72  1  0
 75 84  2  0
 75 80  1  0
 76 80  1  0
 76 72  1  0
 77 76  1  0
 78 77  1  0
 79 78  1  0
 79 75  1  0
 80 81  2  0
 81 82  1  0
 83 82  2  0
 84 83  1  0
 85 59  1  0
 85 95  1  0
 85 86  1  0
 86 87  1  0
 87 88  2  0
 87 91  1  0
 89 86  1  0
 91 90  1  0
 91 93  1  0
 93 94  1  0
 93 92  1  0
 95 96  1  1
 95 98  1  0
 97 95  1  0
M  ISO  4   8 100  16 100  57 101  58 101
M  END
>  <TORSDO>  (42) 
F 21

>  <SCORE>  (42) 
-4.605

>  <name>  (42) 
41

>  <ligand_id>  (42) 
41

>  <original_smiles>  (42) 
[H]c1c([H])c([H])c2c(c1[H])C([H])([H])C([H])([H])C([H])([H])C2([H])N([H])C(=O)C1([H])N(C(=O)C([H])(N([H])C(=O)C([H])(N([H])C([H])([H])[H])C([H])([H])[H])C(C([H])([H])[H])(C([H])([H])[H])C([H])([H])[H])C([H])([H])c2c([H])c(OC([H])([H])C([H])([H])C(=O)N([H])N([H])c3c([H])c(N([H])C(=O)N4C([H])([H])C([H])([H])C([H])([H])C([H])(n5nc(-c6c([H])c([H])c(Oc7c([H])c([H])c(F)c([H])c7F)c([H])c6[H])c(C(=O)N([H])[H])c5N([H])[H])C4([H])[H])c([H])c(C(C([H])([H])[H])(C([H])([H])[H])C([H])([H])[H])c3C([H])([H])[H])c([H])c([H])c2C1([H])[H]

>  <smiles>  (42) 
[H]c1c([H])c([H])c2c(c1[H])C([H])([H])C([H])([H])C([H])([H])C2([H])N([H])C(=O)C1([H])N(C(=O)C([H])(N([H])C(=O)C([H])(N([H])C([H])([H])[H])C([H])([H])[H])C(C([H])([H])[H])(C([H])([H])[H])C([H])([H])[H])C([H])([H])c2c([H])c(OC([H])([H])C([H])([H])C(=O)N([H])N([H])c3c([H])c(N([H])C(=O)N4C([H])([H])C([H])([H])C([H])([H])C([H])(n5nc(-c6c([H])c([H])c(Oc7c([H])c([H])c(F)c([H])c7F)c([H])c6[H])c(C(=O)N([H])[H])c5N([H])[H])C4([H])[H])c([H])c(C(C([H])([H])[H])(C([H])([H])[H])C([H])([H])[H])c3C([H])([H])[H])c([H])c([H])c2C1([H])[H]

$$$$
42:0:0
     RDKit          3D

 92100  0  0  1  0  0  0  0  0999 V2000
  -29.8100  -21.8560   20.8020 C   0  0  0  0  0  0  0  0  0  0  0  0
  -29.5540  -20.5370   20.6090 N   0  0  0  0  0  0  0  0  0  0  0  0
  -30.7950  -22.2920   21.4000 O   0  0  0  0  0  0  0  0  0  0  0  0
  -28.6930  -20.3530   20.1140 H   0  0  0  0  0  0  0  0  0  0  0  0
  -32.2920  -18.2550   21.9100 C   0  0  0  0  0  3  0  0  0  0  0  0
  -31.5900  -19.4280   21.5810 C   0  0  0  0  0  3  0  0  0  0  0  0
  -31.7390  -16.9920   21.6340 C   0  0  0  0  0  3  0  0  0  0  0  0
  -29.7550  -18.0760   20.7190 C   0  0  0  0  0  3  0  0  0  0  0  0
  -30.3080  -19.3650   20.9790 C   0  0  0  0  0  0  0  0  0  0  0  0
  -30.4710  -16.8850   21.0220 C   0  0  0  0  0  0  0  0  0  0  0  0
  -30.5610  -14.5520   20.1720 C   0  0  0  0  0  0  0  0  0  0  0  0
  -30.1900  -12.4110   19.0000 C   0  0  0  0  0  2  0  0  0  0  0  0
  -29.2030  -12.6220   17.8340 C   0  0  0  0  0  2  0  0  0  0  0  0
  -27.7490  -12.4770   18.3220 C   0  0  0  0  0  2  0  0  0  0  0  0
  -27.4600  -13.3020   19.6050 C   0  0  0  0  0  3  0  0  0  0  0  0
  -28.5610  -13.0890   20.6690 C   0  0  0  0  0  2  0  0  0  0  0  0
  -29.8570  -13.3940   20.0430 N   0  0  0  0  0  0  0  0  0  0  0  0
  -31.6710  -14.7050   19.6530 O   0  0  0  0  0  0  0  0  0  0  0  0
  -29.9160  -15.5900   20.7490 N   0  0  0  0  0  0  0  0  0  0  0  0
  -28.9410  -15.4480   20.9630 H   0  0  0  0  0  0  0  0  0  0  0  0
  -25.0950  -13.8910   20.4270 C   0  0  0  0  0  0  0  0  0  0  0  0
  -24.0430  -13.1110   20.8250 C   0  0  0  0  0  0  0  0  0  0  0  0
  -24.5030  -11.7600   20.7470 C   0  0  0  0  0  0  0  0  0  0  0  0
  -26.1300  -13.0150   20.1360 N   0  0  0  0  0  0  0  0  0  0  0  0
  -25.7780  -11.7280   20.3850 N   0  0  0  0  0  0  0  0  0  0  0  0
  -23.7830  -10.4940   20.9410 C   0  0  0  0  0  0  0  0  0  0  0  0
  -24.2020   -9.5470   21.9020 C   0  0  0  0  0  3  0  0  0  0  0  0
  -23.4830   -8.3440   22.0820 C   0  0  0  0  0  3  0  0  0  0  0  0
  -22.3320   -8.0820   21.3020 C   0  0  0  0  0  0  0  0  0  0  0  0
  -21.9330   -9.0190   20.3310 C   0  0  0  0  0  3  0  0  0  0  0  0
  -22.6530  -10.2120   20.1490 C   0  0  0  0  0  3  0  0  0  0  0  0
  -21.5870   -6.9320   21.3890 O   0  0  0  0  0  0  0  0  0  0  0  0
  -21.4690   -6.2390   22.5680 C   0  0  0  0  0  0  0  0  0  0  0  0
  -20.9180   -6.8270   23.7260 C   0  0  0  0  0  3  0  0  0  0  0  0
  -20.7520   -6.0570   24.8960 C   0  0  0  0  0  3  0  0  0  0  0  0
  -21.1270   -4.7010   24.9060 C   0  0  0  0  0  0  0  0  0  0  0  0
  -21.6720   -4.1120   23.7510 C   0  0  0  0  0  3  0  0  0  0  0  0
  -21.8390   -4.8790   22.5840 C   0  0  0  0  0  0  0  0  0  0  0  0
  -22.3450   -4.3000   21.4680 F   0  0  0  0  0  0  0  0  0  0  0  0
  -20.9610   -3.9590   26.0260 F   0  0  0  0  0  0  0  0  0  0  0  0
  -22.6590  -13.5830   21.1640 C   0  0  0  0  0  0  0  0  0  0  0  0
  -21.9630  -12.8610   22.0360 N   0  0  0  0  0  0  0  0  0  0  0  0
  -22.2040  -14.6240   20.6930 O   0  0  0  0  0  0  0  0  0  0  0  0
  -22.3440  -12.0160   22.4360 H   0  0  0  0  0  0  0  0  0  0  0  0
  -21.0360  -13.1560   22.3070 H   0  0  0  0  0  0  0  0  0  0  0  0
  -25.2530  -15.2650   20.2690 N   0  0  0  0  0  0  0  0  0  0  0  0
  -24.4910  -15.9180   20.4170 H   0  0  0  0  0  0  0  0  0  0  0  0
  -26.0850  -15.7080   19.8970 H   0  0  0  0  0  0  0  0  0  0  0  0
  -28.7830  -22.8580   20.2350 C   0  0  0  0  0  2  0  0  0  0  0  0
  -29.1160  -24.3710   20.4390 C   0  0  0  0  0  2  0  0  0  0  0  0
  -28.0100  -25.2920   19.8740 C   0  0  0  0  0  2  0  0  0  0  0  0
  -28.1880  -26.7090   20.1100 O   0  0  0  0  0  0  0  0  0  0  0  0
  -24.4900  -31.9610   23.2280 C   0  0  0  0  0  0  0  0  0  0  0  0
  -27.0360  -27.4840   20.0860 C   0  0  0  0  0  0  0  0  0  0  0  0
  -23.2410  -30.5640   21.6180 C   0  0  0  0  0  3  0  0  0  0  0  0
  -24.6540  -29.0270   20.1530 C   0  0  0  0  0  0  0  0  0  0  0  0
  -25.7670  -30.9060   21.3620 C   0  0  0  0  0  2  0  0  0  0  0  0
  -25.8310  -29.5350   20.7160 C   0  0  0  0  0  0  0  0  0  0  0  0
  -27.0250  -28.7720   20.6790 C   0  0  0  0  0  3  0  0  0  0  0  0
  -25.8350  -27.0120   19.4980 C   0  0  0  0  0  3  0  0  0  0  0  0
  -24.6520  -27.7670   19.5410 C   0  0  0  0  0  3  0  0  0  0  0  0
  -23.4150  -29.8900   20.2330 C   0  0  0  0  0  2  0  0  0  0  0  0
  -24.5200  -31.1590   22.1270 N   0  0  0  0  0  0  0  0  0  0  0  0
  -23.4230  -32.2370   23.7920 O   0  0  0  0  0  0  0  0  0  0  0  0
  -22.6100  -29.5410   22.5920 C   0  0  0  0  0  0  0  0  0  0  0  0
  -21.2900  -29.3320   22.4700 N   0  0  0  0  0  0  0  0  0  0  0  0
  -23.3070  -28.9410   23.4150 O   0  0  0  0  0  0  0  0  0  0  0  0
  -20.7880  -29.8690   21.7760 H   0  0  0  0  0  0  0  0  0  0  0  0
  -17.9400  -28.0730   22.9820 C   0  0  0  0  0  0  0  0  0  0  0  0
  -20.4910  -28.3920   23.2550 C   0  0  0  0  0  3  0  0  0  0  0  0
  -20.6270  -26.9530   22.7040 C   0  0  0  0  0  2  0  0  0  0  0  0
  -19.5340  -26.5880   21.6940 C   0  0  0  0  0  2  0  0  0  0  0  0
  -18.1480  -26.7160   22.3320 C   0  0  0  0  0  2  0  0  0  0  0  0
  -19.0420  -28.8660   23.4000 C   0  0  0  0  0  0  0  0  0  0  0  0
  -18.7940  -30.1360   23.9650 C   0  0  0  0  0  3  0  0  0  0  0  0
  -17.4780  -30.6130   24.1180 C   0  0  0  0  0  3  0  0  0  0  0  0
  -16.3920  -29.8170   23.7160 C   0  0  0  0  0  3  0  0  0  0  0  0
  -16.6230  -28.5490   23.1530 C   0  0  0  0  0  3  0  0  0  0  0  0
  -25.7920  -32.5890   23.8150 C   0  0  0  0  0  3  0  0  0  0  0  0
  -26.3360  -31.8220   25.0830 C   0  0  1  0  0  0  0  0  0  0  0  0
  -25.2600  -31.5670   26.1630 C   0  0  0  0  0  1  0  0  0  0  0  0
  -26.9320  -30.4540   24.6790 C   0  0  0  0  0  1  0  0  0  0  0  0
  -27.4840  -32.6300   25.7310 C   0  0  0  0  0  1  0  0  0  0  0  0
  -25.4980  -33.9910   24.1420 N   0  0  0  0  0  0  0  0  0  0  0  0
  -25.7940  -35.0340   23.3540 C   0  0  0  0  0  0  0  0  0  0  0  0
  -26.4170  -34.9170   22.2950 O   0  0  0  0  0  0  0  0  0  0  0  0
  -24.9410  -34.1550   24.9680 H   0  0  0  0  0  0  0  0  0  0  0  0
  -24.0370  -36.8100   23.0710 C   0  0  0  0  0  1  0  0  0  0  0  0
  -25.3260  -36.4270   23.8160 C   0  0  0  0  0  3  0  0  0  0  0  0
  -27.4950  -37.3420   24.5130 C   0  0  0  0  0  1  0  0  0  0  0  0
  -26.3440  -37.4830   23.6250 N   0  0  0  0  0  0  0  0  0  0  0  0
  -25.9400  -38.4040   23.7730 H   0  0  0  0  0  0  0  0  0  0  0  0
  1  3  2  0
  2  1  1  0
  2  9  1  0
  4  2  1  0
  6  5  2  0
  7  5  1  0
  8  9  2  0
  8 10  1  0
  9  6  1  0
 10  7  2  0
 11 19  1  0
 12 17  1  0
 13 14  1  0
 13 12  1  0
 15 14  1  0
 15 24  1  0
 15 16  1  0
 17 11  1  0
 17 16  1  0
 18 11  2  0
 19 20  1  0
 19 10  1  0
 21 22  2  0
 22 41  1  0
 23 22  1  0
 23 26  1  0
 24 25  1  0
 24 21  1  0
 25 23  2  0
 26 27  1  0
 27 28  2  0
 29 32  1  0
 29 28  1  0
 30 29  2  0
 31 30  1  0
 31 26  2  0
 32 33  1  0
 33 38  2  0
 33 34  1  0
 34 35  2  0
 35 36  1  0
 36 40  1  0
 37 36  2  0
 38 37  1  0
 39 38  1  0
 41 42  1  0
 42 45  1  0
 42 44  1  0
 43 41  2  0
 46 47  1  0
 46 21  1  0
 48 46  1  0
 49 50  1  0
 49  1  1  0
 51 52  1  0
 51 50  1  0
 53 64  2  0
 54 52  1  0
 54 59  1  0
 55 63  1  0
 55 65  1  0
 56 62  1  0
 56 58  1  0
 57 63  1  0
 58 57  1  0
 59 58  2  0
 60 61  1  0
 60 54  2  0
 61 56  2  0
 62 55  1  0
 63 53  1  0
 65 67  2  0
 66 65  1  0
 68 66  1  0
 69 78  2  0
 69 74  1  0
 70 66  1  0
 70 74  1  0
 71 70  1  0
 72 73  1  0
 72 71  1  0
 73 69  1  0
 74 75  2  0
 75 76  1  0
 77 76  2  0
 78 77  1  0
 79 53  1  0
 79 84  1  0
 79 80  1  0
 80 83  1  1
 80 81  1  0
 82 80  1  0
 84 87  1  0
 85 89  1  0
 85 84  1  0
 86 85  2  0
 89 88  1  0
 91 92  1  0
 91 89  1  0
 91 90  1  0
M  ISO  4  11 100  19 100  51 101  52 101
M  END
>  <TORSDO>  (43) 
F 20

>  <SCORE>  (43) 
-12.886

>  <name>  (43) 
42

>  <ligand_id>  (43) 
42

>  <original_smiles>  (43) 
[H]c1c([H])c(N([H])C(=O)N2C([H])([H])C([H])([H])C([H])([H])C([H])(n3nc(-c4c([H])c([H])c(Oc5c([H])c([H])c(F)c([H])c5F)c([H])c4[H])c(C(=O)N([H])[H])c3N([H])[H])C2([H])[H])c([H])c(N([H])C(=O)C([H])([H])C([H])([H])C([H])([H])Oc2c([H])c([H])c3c(c2[H])C([H])([H])N(C(=O)C([H])(N([H])C(=O)C([H])(N([H])C([H])([H])[H])C([H])([H])[H])C(C([H])([H])[H])(C([H])([H])[H])C([H])([H])[H])C([H])(C(=O)N([H])C2([H])c4c([H])c([H])c([H])c([H])c4C([H])([H])C([H])([H])C2([H])[H])C3([H])[H])c1[H]

>  <smiles>  (43) 
[H]c1c([H])c(N([H])C(=O)N2C([H])([H])C([H])([H])C([H])([H])C([H])(n3nc(-c4c([H])c([H])c(Oc5c([H])c([H])c(F)c([H])c5F)c([H])c4[H])c(C(=O)N([H])[H])c3N([H])[H])C2([H])[H])c([H])c(N([H])C(=O)C([H])([H])C([H])([H])C([H])([H])Oc2c([H])c([H])c3c(c2[H])C([H])([H])N(C(=O)C([H])(N([H])C(=O)C([H])(N([H])C([H])([H])[H])C([H])([H])[H])C(C([H])([H])[H])(C([H])([H])[H])C([H])([H])[H])C([H])(C(=O)N([H])C2([H])c4c([H])c([H])c([H])c([H])c4C([H])([H])C([H])([H])C2([H])[H])C3([H])[H])c1[H]

$$$$
43:0:0
     RDKit          3D

 93102  0  0  1  0  0  0  0  0999 V2000
  -29.2200  -22.5470   20.8550 C   0  0  0  0  0  0  0  0  0  0  0  0
  -28.2480  -22.8910   18.7650 C   0  0  0  0  0  2  0  0  0  0  0  0
  -29.0330  -21.5470   18.8050 C   0  0  0  0  0  2  0  0  0  0  0  0
  -28.8230  -23.7570   19.9050 C   0  0  0  0  0  3  0  0  0  0  0  0
  -29.3780  -21.3260   20.2090 N   0  0  0  0  0  0  0  0  0  0  0  0
  -29.3560  -22.7200   22.0720 O   0  0  0  0  0  0  0  0  0  0  0  0
  -30.6980  -19.9670   21.8600 C   0  0  0  0  0  3  0  0  0  0  0  0
  -30.9200  -17.5200   21.7740 C   0  0  0  0  0  3  0  0  0  0  0  0
  -29.5720  -18.6980   20.1230 C   0  0  0  0  0  3  0  0  0  0  0  0
  -31.2160  -18.7600   22.3800 C   0  0  0  0  0  0  0  0  0  0  0  0
  -29.8560  -19.9990   20.7180 C   0  0  0  0  0  0  0  0  0  0  0  0
  -30.0920  -17.4350   20.6330 C   0  0  0  0  0  0  0  0  0  0  0  0
  -32.1030  -18.8080   23.6170 C   0  0  0  0  0  1  0  0  0  0  0  0
  -30.5150  -14.9310   20.0400 C   0  0  0  0  0  0  0  0  0  0  0  0
  -30.2790  -12.6780   18.9750 C   0  0  0  0  0  2  0  0  0  0  0  0
  -29.2690  -12.7080   17.8110 C   0  0  0  0  0  2  0  0  0  0  0  0
  -27.8330  -12.4870   18.3280 C   0  0  0  0  0  2  0  0  0  0  0  0
  -27.4970  -13.3680   19.5610 C   0  0  0  0  0  3  0  0  0  0  0  0
  -28.6210  -13.3430   20.6180 C   0  0  0  0  0  2  0  0  0  0  0  0
  -29.8680  -13.7190   19.9380 N   0  0  0  0  0  0  0  0  0  0  0  0
  -31.7130  -15.0130   19.7560 O   0  0  0  0  0  0  0  0  0  0  0  0
  -29.7500  -16.0850   20.1240 N   0  0  0  0  0  0  0  0  0  0  0  0
  -28.7860  -15.9590   19.8540 H   0  0  0  0  0  0  0  0  0  0  0  0
  -25.1490  -13.8770   20.4610 C   0  0  0  0  0  0  0  0  0  0  0  0
  -24.1220  -13.0630   20.8620 C   0  0  0  0  0  0  0  0  0  0  0  0
  -24.6180  -11.7280   20.7620 C   0  0  0  0  0  0  0  0  0  0  0  0
  -26.1970  -13.0330   20.1330 N   0  0  0  0  0  0  0  0  0  0  0  0
  -25.8900  -11.7340   20.3840 N   0  0  0  0  0  0  0  0  0  0  0  0
  -23.9340  -10.4400   20.9490 C   0  0  0  0  0  0  0  0  0  0  0  0
  -24.3750   -9.5040   21.9110 C   0  0  0  0  0  3  0  0  0  0  0  0
  -23.6890   -8.2830   22.0870 C   0  0  0  0  0  3  0  0  0  0  0  0
  -22.5510   -7.9880   21.3010 C   0  0  0  0  0  0  0  0  0  0  0  0
  -22.1300   -8.9140   20.3320 C   0  0  0  0  0  3  0  0  0  0  0  0
  -22.8150  -10.1270   20.1530 C   0  0  0  0  0  3  0  0  0  0  0  0
  -21.8390   -6.8170   21.3850 O   0  0  0  0  0  0  0  0  0  0  0  0
  -21.7110   -6.1350   22.5690 C   0  0  0  0  0  0  0  0  0  0  0  0
  -21.1300   -6.7260   23.7120 C   0  0  0  0  0  3  0  0  0  0  0  0
  -20.9530   -5.9680   24.8860 C   0  0  0  0  0  3  0  0  0  0  0  0
  -21.3500   -4.6180   24.9180 C   0  0  0  0  0  0  0  0  0  0  0  0
  -21.9250   -4.0260   23.7800 C   0  0  0  0  0  3  0  0  0  0  0  0
  -22.1050   -4.7830   22.6090 C   0  0  0  0  0  0  0  0  0  0  0  0
  -22.6390   -4.2010   21.5090 F   0  0  0  0  0  0  0  0  0  0  0  0
  -21.1750   -3.8870   26.0430 F   0  0  0  0  0  0  0  0  0  0  0  0
  -22.7340  -13.4980   21.2250 C   0  0  0  0  0  0  0  0  0  0  0  0
  -22.0680  -12.7540   22.1010 N   0  0  0  0  0  0  0  0  0  0  0  0
  -22.2470  -14.5280   20.7640 O   0  0  0  0  0  0  0  0  0  0  0  0
  -22.4730  -11.9160   22.4910 H   0  0  0  0  0  0  0  0  0  0  0  0
  -21.1390  -13.0250   22.3900 H   0  0  0  0  0  0  0  0  0  0  0  0
  -25.2740  -15.2560   20.3250 N   0  0  0  0  0  0  0  0  0  0  0  0
  -24.5150  -15.8900   20.5520 H   0  0  0  0  0  0  0  0  0  0  0  0
  -26.1120  -15.7400   20.0290 H   0  0  0  0  0  0  0  0  0  0  0  0
  -27.9060  -25.0110   20.4260 C   0  0  0  0  0  2  0  0  0  0  0  0
  -28.1310  -26.4730   20.0630 O   0  0  0  0  0  0  0  0  0  0  0  0
  -24.5100  -31.9790   23.2200 C   0  0  0  0  0  0  0  0  0  0  0  0
  -27.0380  -27.3800   20.0810 C   0  0  0  0  0  0  0  0  0  0  0  0
  -23.2720  -30.5910   21.5990 C   0  0  0  0  0  3  0  0  0  0  0  0
  -24.6890  -29.0400   20.1340 C   0  0  0  0  0  0  0  0  0  0  0  0
  -25.8140  -30.8910   21.3690 C   0  0  0  0  0  2  0  0  0  0  0  0
  -25.8760  -29.5110   20.7120 C   0  0  0  0  0  0  0  0  0  0  0  0
  -27.0520  -28.6900   20.6750 C   0  0  0  0  0  3  0  0  0  0  0  0
  -25.8310  -26.9900   19.4590 C   0  0  0  0  0  3  0  0  0  0  0  0
  -24.6720  -27.7890   19.4990 C   0  0  0  0  0  3  0  0  0  0  0  0
  -23.4600  -29.9220   20.2140 C   0  0  0  0  0  2  0  0  0  0  0  0
  -24.5520  -31.1750   22.1160 N   0  0  0  0  0  0  0  0  0  0  0  0
  -23.4370  -32.2570   23.7790 O   0  0  0  0  0  0  0  0  0  0  0  0
  -22.6260  -29.5730   22.5710 C   0  0  0  0  0  0  0  0  0  0  0  0
  -21.3010  -29.3790   22.4570 N   0  0  0  0  0  0  0  0  0  0  0  0
  -23.3170  -28.9590   23.3860 O   0  0  0  0  0  0  0  0  0  0  0  0
  -20.7940  -29.9490   21.7940 H   0  0  0  0  0  0  0  0  0  0  0  0
  -17.9530  -28.0930   22.9750 C   0  0  0  0  0  0  0  0  0  0  0  0
  -20.5020  -28.4200   23.2250 C   0  0  0  0  0  3  0  0  0  0  0  0
  -20.6430  -26.9910   22.6540 C   0  0  0  0  0  2  0  0  0  0  0  0
  -19.5350  -26.6120   21.6660 C   0  0  0  0  0  2  0  0  0  0  0  0
  -18.1580  -26.7380   22.3190 C   0  0  0  0  0  2  0  0  0  0  0  0
  -19.0530  -28.8860   23.3910 C   0  0  0  0  0  0  0  0  0  0  0  0
  -18.8050  -30.1470   23.9770 C   0  0  0  0  0  3  0  0  0  0  0  0
  -17.4900  -30.6170   24.1450 C   0  0  0  0  0  3  0  0  0  0  0  0
  -16.4030  -29.8240   23.7370 C   0  0  0  0  0  3  0  0  0  0  0  0
  -16.6360  -28.5620   23.1610 C   0  0  0  0  0  3  0  0  0  0  0  0
  -25.8020  -32.6120   23.8190 C   0  0  0  0  0  3  0  0  0  0  0  0
  -25.4980  -34.0110   24.1570 N   0  0  0  0  0  0  0  0  0  0  0  0
  -25.8290  -35.0700   23.4050 C   0  0  0  0  0  0  0  0  0  0  0  0
  -26.4900  -34.9690   22.3660 O   0  0  0  0  0  0  0  0  0  0  0  0
  -24.9130  -34.1610   24.9690 H   0  0  0  0  0  0  0  0  0  0  0  0
  -24.1200  -36.8850   23.0650 C   0  0  0  0  0  1  0  0  0  0  0  0
  -25.3530  -36.4590   23.8770 C   0  0  0  0  0  3  0  0  0  0  0  0
  -27.4930  -37.3210   24.7240 C   0  0  0  0  0  1  0  0  0  0  0  0
  -26.3970  -37.5020   23.7760 N   0  0  0  0  0  0  0  0  0  0  0  0
  -25.9990  -38.4260   23.9240 H   0  0  0  0  0  0  0  0  0  0  0  0
  -26.3420  -31.8420   25.0860 C   0  0  1  0  0  0  0  0  0  0  0  0
  -25.2680  -31.6030   26.1730 C   0  0  0  0  0  1  0  0  0  0  0  0
  -26.9200  -30.4650   24.6880 C   0  0  0  0  0  1  0  0  0  0  0  0
  -27.5000  -32.6400   25.7300 C   0  0  0  0  0  1  0  0  0  0  0  0
  1  6  2  0
  2  3  1  0
  2  4  1  0
  3  5  1  0
  4 52  1  0
  4  1  1  0
  5 11  1  0
  5  1  1  0
  7 10  1  0
  8 10  2  0
  9 12  2  0
  9 11  1  0
 10 13  1  0
 11  7  2  0
 12  8  1  0
 14 22  1  0
 15 20  1  0
 16 17  1  0
 16 15  1  0
 18 17  1  0
 18 27  1  0
 18 19  1  0
 20 14  1  0
 20 19  1  0
 21 14  2  0
 22 12  1  0
 23 22  1  0
 24 25  2  0
 25 44  1  0
 26 25  1  0
 26 29  1  0
 27 28  1  0
 27 24  1  0
 28 26  2  0
 29 30  1  0
 30 31  2  0
 32 35  1  0
 32 31  1  0
 33 32  2  0
 34 33  1  0
 34 29  2  0
 35 36  1  0
 36 41  2  0
 36 37  1  0
 37 38  2  0
 38 39  1  0
 39 43  1  0
 40 39  2  0
 41 40  1  0
 42 41  1  0
 44 45  1  0
 45 48  1  0
 45 47  1  0
 46 44  2  0
 49 24  1  0
 49 50  1  0
 51 49  1  0
 53 55  1  0
 53 52  1  0
 54 65  2  0
 55 60  1  0
 56 64  1  0
 56 66  1  0
 57 63  1  0
 57 59  1  0
 58 64  1  0
 59 58  1  0
 60 59  2  0
 61 62  1  0
 61 55  2  0
 62 57  2  0
 63 56  1  0
 64 54  1  0
 66 68  2  0
 67 66  1  0
 69 67  1  0
 70 79  2  0
 70 75  1  0
 71 67  1  0
 71 75  1  0
 72 71  1  0
 73 74  1  0
 73 72  1  0
 74 70  1  0
 75 76  2  0
 76 77  1  0
 78 77  2  0
 79 78  1  0
 80 54  1  0
 80 81  1  0
 80 90  1  0
 81 84  1  0
 82 86  1  0
 82 81  1  0
 83 82  2  0
 86 85  1  0
 88 86  1  0
 88 89  1  0
 88 87  1  0
 90 93  1  1
 90 91  1  0
 92 90  1  0
M  ISO  4  14 100  22 100  52 101  53 101
M  END
>  <TORSDO>  (44) 
F 18

>  <SCORE>  (44) 
-13.373

>  <name>  (44) 
43

>  <ligand_id>  (44) 
43

>  <original_smiles>  (44) 
[H]c1c([H])c([H])c2c(c1[H])C([H])([H])C([H])([H])C([H])([H])C2([H])N([H])C(=O)C1([H])N(C(=O)C([H])(N([H])C(=O)C([H])(N([H])C([H])([H])[H])C([H])([H])[H])C(C([H])([H])[H])(C([H])([H])[H])C([H])([H])[H])C([H])([H])c2c([H])c(OC([H])([H])C3([H])C(=O)N(c4c([H])c(N([H])C(=O)N5C([H])([H])C([H])([H])C([H])([H])C([H])(n6nc(-c7c([H])c([H])c(Oc8c([H])c([H])c(F)c([H])c8F)c([H])c7[H])c(C(=O)N([H])[H])c6N([H])[H])C5([H])[H])c([H])c(C([H])([H])[H])c4[H])C([H])([H])C3([H])[H])c([H])c([H])c2C1([H])[H]

>  <smiles>  (44) 
[H]c1c([H])c([H])c2c(c1[H])C([H])([H])C([H])([H])C([H])([H])C2([H])N([H])C(=O)C1([H])N(C(=O)C([H])(N([H])C(=O)C([H])(N([H])C([H])([H])[H])C([H])([H])[H])C(C([H])([H])[H])(C([H])([H])[H])C([H])([H])[H])C([H])([H])c2c([H])c(OC([H])([H])C3([H])C(=O)N(c4c([H])c(N([H])C(=O)N5C([H])([H])C([H])([H])C([H])([H])C([H])(n6nc(-c7c([H])c([H])c(Oc8c([H])c([H])c(F)c([H])c8F)c([H])c7[H])c(C(=O)N([H])[H])c6N([H])[H])C5([H])[H])c([H])c(C([H])([H])[H])c4[H])C([H])([H])C3([H])[H])c([H])c([H])c2C1([H])[H]

$$$$
44:0:0
     RDKit          3D

101110  0  0  1  0  0  0  0  0999 V2000
  -28.2950  -20.0400   19.2000 C   0  0  0  0  0  3  0  0  0  0  0  0
  -29.9540  -18.9500   20.5990 C   0  0  0  0  0  3  0  0  0  0  0  0
  -28.6010  -17.6100   19.0960 C   0  0  0  0  0  3  0  0  0  0  0  0
  -29.3210  -20.1970   20.1650 C   0  0  0  0  0  0  0  0  0  0  0  0
  -27.9110  -18.7730   18.6900 C   0  0  0  0  0  0  0  0  0  0  0  0
  -29.6010  -17.6380   20.0910 C   0  0  0  0  0  0  0  0  0  0  0  0
  -30.7140  -15.2890   20.2010 C   0  0  0  0  0  0  0  0  0  0  0  0
  -30.5200  -13.0430   19.1380 C   0  0  0  0  0  2  0  0  0  0  0  0
  -29.5620  -13.1790   17.9320 C   0  0  0  0  0  2  0  0  0  0  0  0
  -28.1000  -12.9910   18.3730 C   0  0  0  0  0  2  0  0  0  0  0  0
  -27.7460  -13.8170   19.6360 C   0  0  0  0  0  3  0  0  0  0  0  0
  -28.8210  -13.6770   20.7360 C   0  0  0  0  0  2  0  0  0  0  0  0
  -30.1170  -14.0500   20.1490 N   0  0  0  0  0  0  0  0  0  0  0  0
  -31.8510  -15.4560   19.7510 O   0  0  0  0  0  0  0  0  0  0  0  0
  -29.9790  -16.3450   20.7030 N   0  0  0  0  0  0  0  0  0  0  0  0
  -29.2430  -15.9860   21.2900 H   0  0  0  0  0  0  0  0  0  0  0  0
  -25.3680  -14.4080   20.3920 C   0  0  0  0  0  0  0  0  0  0  0  0
  -24.2980  -13.6280   20.7350 C   0  0  0  0  0  0  0  0  0  0  0  0
  -24.7500  -12.2760   20.6500 C   0  0  0  0  0  0  0  0  0  0  0  0
  -26.4030  -13.5280   20.1200 N   0  0  0  0  0  0  0  0  0  0  0  0
  -26.0370  -12.2390   20.3320 N   0  0  0  0  0  0  0  0  0  0  0  0
  -24.0180  -11.0130   20.7990 C   0  0  0  0  0  0  0  0  0  0  0  0
  -24.4460  -10.0150   21.7030 C   0  0  0  0  0  3  0  0  0  0  0  0
  -23.7160   -8.8160   21.8390 C   0  0  0  0  0  3  0  0  0  0  0  0
  -22.5460   -8.6060   21.0710 C   0  0  0  0  0  0  0  0  0  0  0  0
  -22.1380   -9.5940   20.1570 C   0  0  0  0  0  3  0  0  0  0  0  0
  -22.8690  -10.7850   20.0190 C   0  0  0  0  0  3  0  0  0  0  0  0
  -21.7870   -7.4610   21.1190 O   0  0  0  0  0  0  0  0  0  0  0  0
  -21.7310   -6.6830   22.2470 C   0  0  0  0  0  0  0  0  0  0  0  0
  -21.3060   -7.2020   23.4890 C   0  0  0  0  0  3  0  0  0  0  0  0
  -21.1930   -6.3530   24.6080 C   0  0  0  0  0  3  0  0  0  0  0  0
  -21.4980   -4.9830   24.4840 C   0  0  0  0  0  0  0  0  0  0  0  0
  -21.9140   -4.4620   23.2470 C   0  0  0  0  0  3  0  0  0  0  0  0
  -22.0270   -5.3100   22.1310 C   0  0  0  0  0  0  0  0  0  0  0  0
  -22.4100   -4.8000   20.9350 F   0  0  0  0  0  0  0  0  0  0  0  0
  -21.3820   -4.1630   25.5560 F   0  0  0  0  0  0  0  0  0  0  0  0
  -22.9070  -14.1060   21.0400 C   0  0  0  0  0  0  0  0  0  0  0  0
  -22.1920  -13.4010   21.9120 N   0  0  0  0  0  0  0  0  0  0  0  0
  -22.4630  -15.1390   20.5450 O   0  0  0  0  0  0  0  0  0  0  0  0
  -22.5620  -12.5670   22.3420 H   0  0  0  0  0  0  0  0  0  0  0  0
  -21.2610  -13.7080   22.1520 H   0  0  0  0  0  0  0  0  0  0  0  0
  -25.5450  -15.7840   20.2770 N   0  0  0  0  0  0  0  0  0  0  0  0
  -24.7980  -16.4400   20.4710 H   0  0  0  0  0  0  0  0  0  0  0  0
  -26.4350  -16.2380   20.1240 H   0  0  0  0  0  0  0  0  0  0  0  0
  -30.2420  -21.7880   21.8540 C   0  0  0  0  0  0  0  0  0  0  0  0
  -30.7490  -23.1900   22.2250 C   0  0  0  0  0  2  0  0  0  0  0  0
  -29.7580  -24.3230   21.9280 C   0  0  0  0  0  2  0  0  0  0  0  0
  -28.9400  -22.8290   20.0390 C   0  0  0  0  0  2  0  0  0  0  0  0
  -29.3840  -24.3320   20.4480 C   0  0  0  0  0  3  0  0  0  0  0  0
  -29.5950  -21.5880   20.6700 N   0  0  0  0  0  0  0  0  0  0  0  0
  -30.4540  -20.8940   22.6780 O   0  0  0  0  0  0  0  0  0  0  0  0
  -28.3620  -25.5370   20.1150 C   0  0  0  0  0  2  0  0  0  0  0  0
  -28.5820  -26.9650   20.5300 O   0  0  0  0  0  0  0  0  0  0  0  0
  -24.8510  -32.3260   23.7130 C   0  0  0  0  0  0  0  0  0  0  0  0
  -27.4870  -27.8620   20.4910 C   0  0  0  0  0  0  0  0  0  0  0  0
  -23.6710  -31.0140   21.9890 C   0  0  0  0  0  3  0  0  0  0  0  0
  -25.1380  -29.5220   20.5150 C   0  0  0  0  0  0  0  0  0  0  0  0
  -26.2220  -31.3070   21.8730 C   0  0  0  0  0  2  0  0  0  0  0  0
  -26.3020  -29.9600   21.1600 C   0  0  0  0  0  0  0  0  0  0  0  0
  -27.4790  -29.1440   21.1380 C   0  0  0  0  0  3  0  0  0  0  0  0
  -26.2980  -27.4960   19.8180 C   0  0  0  0  0  3  0  0  0  0  0  0
  -25.1410  -28.2970   19.8350 C   0  0  0  0  0  3  0  0  0  0  0  0
  -23.9070  -30.4060   20.5820 C   0  0  0  0  0  2  0  0  0  0  0  0
  -24.9330  -31.5640   22.5830 N   0  0  0  0  0  0  0  0  0  0  0  0
  -23.7580  -32.5910   24.2340 O   0  0  0  0  0  0  0  0  0  0  0  0
  -22.9790  -29.9600   22.8860 C   0  0  0  0  0  0  0  0  0  0  0  0
  -21.6710  -29.7390   22.6630 N   0  0  0  0  0  0  0  0  0  0  0  0
  -23.6200  -29.3440   23.7420 O   0  0  0  0  0  0  0  0  0  0  0  0
  -21.2130  -30.2890   21.9510 H   0  0  0  0  0  0  0  0  0  0  0  0
  -18.3050  -28.4390   22.9320 C   0  0  0  0  0  0  0  0  0  0  0  0
  -20.8340  -28.7630   23.3640 C   0  0  0  0  0  3  0  0  0  0  0  0
  -21.0110  -27.3470   22.7680 C   0  0  0  0  0  2  0  0  0  0  0  0
  -19.9830  -27.0160   21.6820 C   0  0  0  0  0  2  0  0  0  0  0  0
  -18.5600  -27.1100   22.2420 C   0  0  0  0  0  2  0  0  0  0  0  0
  -19.3730  -29.2220   23.4450 C   0  0  0  0  0  0  0  0  0  0  0  0
  -19.0800  -30.4660   24.0470 C   0  0  0  0  0  3  0  0  0  0  0  0
  -17.7530  -30.9230   24.1460 C   0  0  0  0  0  3  0  0  0  0  0  0
  -16.6990  -30.1370   23.6480 C   0  0  0  0  0  3  0  0  0  0  0  0
  -16.9760  -28.8960   23.0470 C   0  0  0  0  0  3  0  0  0  0  0  0
  -26.1240  -32.9190   24.3910 C   0  0  0  0  0  3  0  0  0  0  0  0
  -26.5680  -32.1240   25.6810 C   0  0  1  0  0  0  0  0  0  0  0  0
  -25.4090  -31.8420   26.6670 C   0  0  0  0  0  1  0  0  0  0  0  0
  -27.2020  -30.7670   25.2970 C   0  0  0  0  0  1  0  0  0  0  0  0
  -27.6580  -32.9220   26.4350 C   0  0  0  0  0  1  0  0  0  0  0  0
  -25.8380  -34.3210   24.7240 N   0  0  0  0  0  0  0  0  0  0  0  0
  -26.1890  -35.3710   23.9690 C   0  0  0  0  0  0  0  0  0  0  0  0
  -26.8570  -35.2570   22.9380 O   0  0  0  0  0  0  0  0  0  0  0  0
  -25.2450  -34.4840   25.5250 H   0  0  0  0  0  0  0  0  0  0  0  0
  -24.4960  -37.1980   23.6140 C   0  0  0  0  0  1  0  0  0  0  0  0
  -25.7270  -36.7670   24.4280 C   0  0  0  0  0  3  0  0  0  0  0  0
  -27.8750  -37.6100   25.2700 C   0  0  0  0  0  1  0  0  0  0  0  0
  -26.7810  -37.7990   24.3210 N   0  0  0  0  0  0  0  0  0  0  0  0
  -26.3950  -38.7280   24.4670 H   0  0  0  0  0  0  0  0  0  0  0  0
  -26.1820  -19.3750   16.9590 C   0  0  0  0  0  0  0  0  0  0  0  0
  -26.7480  -18.5780   17.8850 N   0  0  0  0  0  0  0  0  0  0  0  0
  -26.7860  -20.2870   16.3900 O   0  0  0  0  0  0  0  0  0  0  0  0
  -26.1710  -17.7870   18.1330 H   0  0  0  0  0  0  0  0  0  0  0  0
  -23.9320  -18.3530   17.6900 C   0  0  0  0  0  1  0  0  0  0  0  0
  -24.6990  -18.1980   15.2900 C   0  0  0  0  0  1  0  0  0  0  0  0
  -23.9810  -20.3950   16.2520 C   0  0  0  0  0  1  0  0  0  0  0  0
  -24.7120  -19.0680   16.5590 C   0  0  2  0  0  0  0  0  0  0  0  0
  1  4  1  0
  3  6  2  0
  4  2  2  0
  4 50  1  0
  5  3  1  0
  5  1  2  0
  6  2  1  0
  6 15  1  0
  7 15  1  0
  8 13  1  0
  9 10  1  0
  9  8  1  0
 11 10  1  0
 11 20  1  0
 11 12  1  0
 13  7  1  0
 13 12  1  0
 14  7  2  0
 15 16  1  0
 17 18  2  0
 18 37  1  0
 19 18  1  0
 19 22  1  0
 20 21  1  0
 20 17  1  0
 21 19  2  0
 22 23  1  0
 23 24  2  0
 25 28  1  0
 25 24  1  0
 26 25  2  0
 27 26  1  0
 27 22  2  0
 28 29  1  0
 29 30  1  0
 30 31  2  0
 32 31  1  0
 32 36  1  0
 33 32  2  0
 34 29  2  0
 34 33  1  0
 35 34  1  0
 37 38  1  0
 38 41  1  0
 38 40  1  0
 39 37  2  0
 42 17  1  0
 42 43  1  0
 44 42  1  0
 45 46  1  0
 45 51  2  0
 47 46  1  0
 48 49  1  0
 48 50  1  0
 49 52  1  0
 49 47  1  0
 50 45  1  0
 52 53  1  0
 54 65  2  0
 55 53  1  0
 55 60  1  0
 56 64  1  0
 56 66  1  0
 57 63  1  0
 57 59  1  0
 58 64  1  0
 59 58  1  0
 60 59  2  0
 61 62  1  0
 61 55  2  0
 62 57  2  0
 63 56  1  0
 64 54  1  0
 66 68  2  0
 67 66  1  0
 69 67  1  0
 70 79  2  0
 70 75  1  0
 71 67  1  0
 71 75  1  0
 72 71  1  0
 73 74  1  0
 73 72  1  0
 74 70  1  0
 75 76  2  0
 76 77  1  0
 78 77  2  0
 79 78  1  0
 80 54  1  0
 80 85  1  0
 80 81  1  0
 81 84  1  1
 81 82  1  0
 83 81  1  0
 85 88  1  0
 86 90  1  0
 86 85  1  0
 87 86  2  0
 90 89  1  0
 92 90  1  0
 92 93  1  0
 92 91  1  0
 94 95  1  0
 95 97  1  0
 95  5  1  0
 96 94  2  0
101 99  1  6
100101  1  0
101 94  1  0
101 98  1  0
M  ISO  4   7 100  15 100  52 101  53 101
M  END
>  <TORSDO>  (45) 
F 20

>  <SCORE>  (45) 
-4.688

>  <name>  (45) 
44

>  <ligand_id>  (45) 
44

>  <original_smiles>  (45) 
[H]c1c([H])c([H])c2c(c1[H])C([H])([H])C([H])([H])C([H])([H])C2([H])N([H])C(=O)C1([H])N(C(=O)C([H])(N([H])C(=O)C([H])(N([H])C([H])([H])[H])C([H])([H])[H])C(C([H])([H])[H])(C([H])([H])[H])C([H])([H])[H])C([H])([H])c2c([H])c(OC([H])([H])C3([H])C([H])([H])N(c4c([H])c(N([H])C(=O)N5C([H])([H])C([H])([H])C([H])([H])C([H])(n6nc(-c7c([H])c([H])c(Oc8c([H])c([H])c(F)c([H])c8F)c([H])c7[H])c(C(=O)N([H])[H])c6N([H])[H])C5([H])[H])c([H])c(N([H])C(=O)C(C([H])([H])[H])(C([H])([H])[H])C([H])([H])[H])c4[H])C(=O)C([H])([H])C3([H])[H])c([H])c([H])c2C1([H])[H]

>  <smiles>  (45) 
[H]c1c([H])c([H])c2c(c1[H])C([H])([H])C([H])([H])C([H])([H])C2([H])N([H])C(=O)C1([H])N(C(=O)C([H])(N([H])C(=O)C([H])(N([H])C([H])([H])[H])C([H])([H])[H])C(C([H])([H])[H])(C([H])([H])[H])C([H])([H])[H])C([H])([H])c2c([H])c(OC([H])([H])C3([H])C([H])([H])N(c4c([H])c(N([H])C(=O)N5C([H])([H])C([H])([H])C([H])([H])C([H])(n6nc(-c7c([H])c([H])c(Oc8c([H])c([H])c(F)c([H])c8F)c([H])c7[H])c(C(=O)N([H])[H])c6N([H])[H])C5([H])[H])c([H])c(N([H])C(=O)C(C([H])([H])[H])(C([H])([H])[H])C([H])([H])[H])c4[H])C(=O)C([H])([H])C3([H])[H])c([H])c([H])c2C1([H])[H]

$$$$
45:0:0
     RDKit          3D

 95103  0  0  1  0  0  0  0  0999 V2000
  -28.4330  -20.5310   21.0690 C   0  0  0  0  0  2  0  0  0  0  0  0
  -29.2980  -18.0940   20.7750 C   0  0  0  0  0  3  0  0  0  0  0  0
  -30.8800  -19.9500   20.6750 C   0  0  0  0  0  3  0  0  0  0  0  0
  -31.6700  -17.6350   20.5440 C   0  0  0  0  0  3  0  0  0  0  0  0
  -29.5510  -19.5030   20.7950 C   0  0  0  0  0  0  0  0  0  0  0  0
  -30.3470  -17.1330   20.6360 C   0  0  0  0  0  0  0  0  0  0  0  0
  -31.9300  -19.0210   20.5600 C   0  0  0  0  0  0  0  0  0  0  0  0
  -30.7540  -14.6570   20.1440 C   0  0  0  0  0  0  0  0  0  0  0  0
  -30.4260  -12.4860   19.0030 C   0  0  0  0  0  2  0  0  0  0  0  0
  -29.4300  -12.6840   17.8410 C   0  0  0  0  0  2  0  0  0  0  0  0
  -27.9800  -12.5250   18.3370 C   0  0  0  0  0  2  0  0  0  0  0  0
  -27.6930  -13.3460   19.6240 C   0  0  0  0  0  3  0  0  0  0  0  0
  -28.8020  -13.1410   20.6800 C   0  0  0  0  0  2  0  0  0  0  0  0
  -30.0880  -13.4690   20.0500 N   0  0  0  0  0  0  0  0  0  0  0  0
  -31.8790  -14.7960   19.6570 O   0  0  0  0  0  0  0  0  0  0  0  0
  -30.0420  -15.7110   20.6380 N   0  0  0  0  0  0  0  0  0  0  0  0
  -29.1150  -15.4640   20.9500 H   0  0  0  0  0  0  0  0  0  0  0  0
  -25.3370  -13.9230   20.4720 C   0  0  0  0  0  0  0  0  0  0  0  0
  -24.2900  -13.1380   20.8730 C   0  0  0  0  0  0  0  0  0  0  0  0
  -24.7510  -11.7880   20.7810 C   0  0  0  0  0  0  0  0  0  0  0  0
  -26.3680  -13.0510   20.1630 N   0  0  0  0  0  0  0  0  0  0  0  0
  -26.0230  -11.7600   20.4080 N   0  0  0  0  0  0  0  0  0  0  0  0
  -24.0350  -10.5210   20.9710 C   0  0  0  0  0  0  0  0  0  0  0  0
  -24.4720   -9.5580   21.9070 C   0  0  0  0  0  3  0  0  0  0  0  0
  -23.7570   -8.3550   22.0840 C   0  0  0  0  0  3  0  0  0  0  0  0
  -22.5890   -8.1050   21.3250 C   0  0  0  0  0  0  0  0  0  0  0  0
  -22.1710   -9.0570   20.3780 C   0  0  0  0  0  3  0  0  0  0  0  0
  -22.8870  -10.2520   20.1990 C   0  0  0  0  0  3  0  0  0  0  0  0
  -21.8450   -6.9530   21.4110 O   0  0  0  0  0  0  0  0  0  0  0  0
  -21.7550   -6.2400   22.5790 C   0  0  0  0  0  0  0  0  0  0  0  0
  -21.2010   -6.7970   23.7520 C   0  0  0  0  0  3  0  0  0  0  0  0
  -21.0650   -6.0060   24.9120 C   0  0  0  0  0  3  0  0  0  0  0  0
  -21.4720   -4.6590   24.8970 C   0  0  0  0  0  0  0  0  0  0  0  0
  -22.0190   -4.1010   23.7270 C   0  0  0  0  0  3  0  0  0  0  0  0
  -22.1570   -4.8890   22.5710 C   0  0  0  0  0  0  0  0  0  0  0  0
  -22.6650   -4.3400   21.4410 F   0  0  0  0  0  0  0  0  0  0  0  0
  -21.3350   -3.8970   26.0070 F   0  0  0  0  0  0  0  0  0  0  0  0
  -22.9080  -13.6060   21.2270 C   0  0  0  0  0  0  0  0  0  0  0  0
  -22.2200  -12.8770   22.0990 N   0  0  0  0  0  0  0  0  0  0  0  0
  -22.4490  -14.6500   20.7660 O   0  0  0  0  0  0  0  0  0  0  0  0
  -22.6040  -12.0300   22.4920 H   0  0  0  0  0  0  0  0  0  0  0  0
  -21.2950  -13.1720   22.3800 H   0  0  0  0  0  0  0  0  0  0  0  0
  -25.4920  -15.2990   20.3240 N   0  0  0  0  0  0  0  0  0  0  0  0
  -24.7260  -15.9450   20.4790 H   0  0  0  0  0  0  0  0  0  0  0  0
  -26.3110  -15.7450   19.9320 H   0  0  0  0  0  0  0  0  0  0  0  0
  -33.6000  -19.5920   20.5020 S   0  0  0  0  0  0  0  0  0  0  0  0
  -34.6550  -21.3760   18.7280 C   0  0  0  0  0  2  0  0  0  0  0  0
  -33.5790  -20.6690   19.1030 C   0  0  0  0  0  3  0  0  0  0  0  0
  -28.6070  -23.0470   20.7100 C   0  0  0  0  0  0  0  0  0  0  0  0
  -28.3880  -21.7830   20.2690 N   0  0  0  0  0  0  0  0  0  0  0  0
  -29.3070  -23.2770   21.6980 O   0  0  0  0  0  0  0  0  0  0  0  0
  -27.8670  -21.7040   19.4070 H   0  0  0  0  0  0  0  0  0  0  0  0
  -27.8420  -24.2150   20.0160 C   0  0  0  0  0  2  0  0  0  0  0  0
  -28.6370  -25.4770   19.5230 C   0  0  0  0  0  2  0  0  0  0  0  0
  -28.4830  -26.7450   20.2220 O   0  0  0  0  0  0  0  0  0  0  0  0
  -24.5750  -31.8890   23.2620 C   0  0  0  0  0  0  0  0  0  0  0  0
  -27.3100  -27.4880   20.1450 C   0  0  0  0  0  0  0  0  0  0  0  0
  -23.4150  -30.5120   21.5680 C   0  0  0  0  0  3  0  0  0  0  0  0
  -24.9090  -29.0130   20.1350 C   0  0  0  0  0  0  0  0  0  0  0  0
  -25.9450  -30.8820   21.4330 C   0  0  0  0  0  2  0  0  0  0  0  0
  -26.0520  -29.5220   20.7630 C   0  0  0  0  0  0  0  0  0  0  0  0
  -27.2500  -28.7630   20.7680 C   0  0  0  0  0  3  0  0  0  0  0  0
  -26.1470  -27.0120   19.4980 C   0  0  0  0  0  3  0  0  0  0  0  0
  -24.9540  -27.7620   19.4970 C   0  0  0  0  0  3  0  0  0  0  0  0
  -23.6580  -29.8650   20.1770 C   0  0  0  0  0  2  0  0  0  0  0  0
  -24.6620  -31.1100   22.1450 N   0  0  0  0  0  0  0  0  0  0  0  0
  -23.4810  -32.1410   23.7860 O   0  0  0  0  0  0  0  0  0  0  0  0
  -22.7540  -29.4660   22.4940 C   0  0  0  0  0  0  0  0  0  0  0  0
  -21.4320  -29.2790   22.3410 N   0  0  0  0  0  0  0  0  0  0  0  0
  -23.4280  -28.8270   23.3070 O   0  0  0  0  0  0  0  0  0  0  0  0
  -20.9490  -29.8490   21.6600 H   0  0  0  0  0  0  0  0  0  0  0  0
  -18.0510  -28.0800   22.7900 C   0  0  0  0  0  0  0  0  0  0  0  0
  -20.6090  -28.3170   23.0760 C   0  0  0  0  0  3  0  0  0  0  0  0
  -20.7070  -26.9080   22.4500 C   0  0  0  0  0  2  0  0  0  0  0  0
  -19.6070  -26.6260   21.4210 C   0  0  0  0  0  2  0  0  0  0  0  0
  -18.2240  -26.7540   22.0670 C   0  0  0  0  0  2  0  0  0  0  0  0
  -19.1720  -28.8210   23.2490 C   0  0  0  0  0  0  0  0  0  0  0  0
  -18.9580  -30.0640   23.8850 C   0  0  0  0  0  3  0  0  0  0  0  0
  -17.6550  -30.5660   24.0640 C   0  0  0  0  0  3  0  0  0  0  0  0
  -16.5480  -29.8210   23.6220 C   0  0  0  0  0  3  0  0  0  0  0  0
  -16.7470  -28.5800   22.9890 C   0  0  0  0  0  3  0  0  0  0  0  0
  -25.8420  -32.5190   23.9200 C   0  0  0  0  0  3  0  0  0  0  0  0
  -25.5260  -33.9190   24.2360 N   0  0  0  0  0  0  0  0  0  0  0  0
  -25.8870  -34.9680   23.4860 C   0  0  0  0  0  0  0  0  0  0  0  0
  -26.5920  -34.8600   22.4780 O   0  0  0  0  0  0  0  0  0  0  0  0
  -24.9020  -34.0760   25.0140 H   0  0  0  0  0  0  0  0  0  0  0  0
  -24.1990  -36.7810   23.0490 C   0  0  0  0  0  1  0  0  0  0  0  0
  -25.3920  -36.3600   23.9240 C   0  0  0  0  0  3  0  0  0  0  0  0
  -27.4800  -37.2270   24.8810 C   0  0  0  0  0  1  0  0  0  0  0  0
  -26.4380  -37.4020   23.8710 N   0  0  0  0  0  0  0  0  0  0  0  0
  -26.0320  -38.3270   23.9910 H   0  0  0  0  0  0  0  0  0  0  0  0
  -26.3190  -31.7510   25.2130 C   0  0  1  0  0  0  0  0  0  0  0  0
  -25.1930  -31.5120   26.2450 C   0  0  0  0  0  1  0  0  0  0  0  0
  -26.9190  -30.3740   24.8410 C   0  0  0  0  0  1  0  0  0  0  0  0
  -27.4450  -32.5490   25.9130 C   0  0  0  0  0  1  0  0  0  0  0  0
  2  5  1  0
  3  5  2  0
  4  7  2  0
  4  6  1  0
  5  1  1  0
  6 16  1  0
  6  2  2  0
  7  3  1  0
  8 16  1  0
  9 14  1  0
 10 11  1  0
 10  9  1  0
 12 11  1  0
 12 21  1  0
 12 13  1  0
 14  8  1  0
 14 13  1  0
 15  8  2  0
 16 17  1  0
 18 19  2  0
 19 38  1  0
 20 19  1  0
 20 23  1  0
 21 22  1  0
 21 18  1  0
 22 20  2  0
 23 24  1  0
 24 25  2  0
 26 29  1  0
 26 25  1  0
 27 26  2  0
 28 27  1  0
 28 23  2  0
 29 30  1  0
 30 31  1  0
 31 32  2  0
 33 32  1  0
 33 37  1  0
 34 33  2  0
 35 30  2  0
 35 34  1  0
 36 35  1  0
 38 39  1  0
 39 42  1  0
 39 41  1  0
 40 38  2  0
 43 18  1  0
 43 44  1  0
 45 43  1  0
 46  7  1  0
 47 48  2  0
 48 46  1  0
 49 51  2  0
 50 49  1  0
 50  1  1  0
 52 50  1  0
 53 49  1  0
 54 53  1  0
 54 55  1  0
 56 67  2  0
 57 55  1  0
 57 62  1  0
 58 66  1  0
 58 68  1  0
 59 65  1  0
 59 61  1  0
 60 66  1  0
 61 62  2  0
 61 60  1  0
 63 57  2  0
 64 63  1  0
 64 59  2  0
 65 58  1  0
 66 56  1  0
 68 70  2  0
 69 68  1  0
 71 69  1  0
 72 81  2  0
 72 77  1  0
 73 69  1  0
 73 77  1  0
 74 73  1  0
 75 76  1  0
 75 74  1  0
 76 72  1  0
 77 78  2  0
 78 79  1  0
 80 79  2  0
 81 80  1  0
 82 56  1  0
 82 83  1  0
 82 92  1  0
 83 86  1  0
 84 88  1  0
 84 83  1  0
 85 84  2  0
 88 87  1  0
 90 88  1  0
 90 91  1  0
 90 89  1  0
 92 95  1  1
 92 93  1  0
 94 92  1  0
M  ISO  4   8 100  16 100  54 101  55 101
M  END
>  <TORSDO>  (46) 
F 22

>  <SCORE>  (46) 
-13.187

>  <name>  (46) 
45

>  <ligand_id>  (46) 
45

>  <original_smiles>  (46) 
[H]C([H])=C([H])Sc1c([H])c(N([H])C(=O)N2C([H])([H])C([H])([H])C([H])([H])C([H])(n3nc(-c4c([H])c([H])c(Oc5c([H])c([H])c(F)c([H])c5F)c([H])c4[H])c(C(=O)N([H])[H])c3N([H])[H])C2([H])[H])c([H])c(C([H])([H])N([H])C(=O)C([H])([H])C([H])([H])Oc2c([H])c([H])c3c(c2[H])C([H])([H])N(C(=O)C([H])(N([H])C(=O)C([H])(N([H])C([H])([H])[H])C([H])([H])[H])C(C([H])([H])[H])(C([H])([H])[H])C([H])([H])[H])C([H])(C(=O)N([H])C2([H])c4c([H])c([H])c([H])c([H])c4C([H])([H])C([H])([H])C2([H])[H])C3([H])[H])c1[H]

>  <smiles>  (46) 
[H]C([H])=C([H])Sc1c([H])c(N([H])C(=O)N2C([H])([H])C([H])([H])C([H])([H])C([H])(n3nc(-c4c([H])c([H])c(Oc5c([H])c([H])c(F)c([H])c5F)c([H])c4[H])c(C(=O)N([H])[H])c3N([H])[H])C2([H])[H])c([H])c(C([H])([H])N([H])C(=O)C([H])([H])C([H])([H])Oc2c([H])c([H])c3c(c2[H])C([H])([H])N(C(=O)C([H])(N([H])C(=O)C([H])(N([H])C([H])([H])[H])C([H])([H])[H])C(C([H])([H])[H])(C([H])([H])[H])C([H])([H])[H])C([H])(C(=O)N([H])C2([H])c4c([H])c([H])c([H])c([H])c4C([H])([H])C([H])([H])C2([H])[H])C3([H])[H])c1[H]

$$$$
46:0:0
     RDKit          3D

 95103  0  0  1  0  0  0  0  0999 V2000
  -31.0880  -21.9070   19.7990 C   0  0  0  0  0  0  0  0  0  0  0  0
  -29.8170  -21.7980   20.2710 N   0  0  0  0  0  0  0  0  0  0  0  0
  -31.5470  -21.1150   18.9670 O   0  0  0  0  0  0  0  0  0  0  0  0
  -33.1260  -23.2390   19.9810 C   0  0  0  0  0  2  0  0  0  0  0  0
  -31.8970  -22.9380   20.4390 C   0  0  0  0  0  3  0  0  0  0  0  0
  -29.1440  -20.4670   20.1770 C   0  0  0  0  0  2  0  0  0  0  0  0
  -30.5690  -19.5170   22.1050 C   0  0  0  0  0  3  0  0  0  0  0  0
  -31.1340  -18.4400   22.8130 C   0  0  0  0  0  3  0  0  0  0  0  0
  -29.5530  -17.9400   20.5620 C   0  0  0  0  0  3  0  0  0  0  0  0
  -29.7810  -19.2890   20.9580 C   0  0  0  0  0  0  0  0  0  0  0  0
  -30.9050  -17.1040   22.4210 C   0  0  0  0  0  0  0  0  0  0  0  0
  -30.1040  -16.8420   21.2790 C   0  0  0  0  0  0  0  0  0  0  0  0
  -31.5050  -15.9900   23.2650 C   0  0  0  0  0  1  0  0  0  0  0  0
  -30.3680  -14.5940   20.1790 C   0  0  0  0  0  0  0  0  0  0  0  0
  -30.0290  -12.5080   18.8840 C   0  0  0  0  0  2  0  0  0  0  0  0
  -28.9900  -12.7410   17.7650 C   0  0  0  0  0  2  0  0  0  0  0  0
  -27.5600  -12.5110   18.2960 C   0  0  0  0  0  2  0  0  0  0  0  0
  -27.2890  -13.2790   19.6160 C   0  0  0  0  0  3  0  0  0  0  0  0
  -28.4270  -13.0380   20.6330 C   0  0  0  0  0  2  0  0  0  0  0  0
  -29.7020  -13.4180   19.9940 N   0  0  0  0  0  0  0  0  0  0  0  0
  -31.4360  -14.8500   19.6120 O   0  0  0  0  0  0  0  0  0  0  0  0
  -29.7180  -15.5070   20.9330 N   0  0  0  0  0  0  0  0  0  0  0  0
  -28.8070  -15.2170   21.2540 H   0  0  0  0  0  0  0  0  0  0  0  0
  -24.9170  -13.7790   20.4890 C   0  0  0  0  0  0  0  0  0  0  0  0
  -23.9090  -12.9580   20.9170 C   0  0  0  0  0  0  0  0  0  0  0  0
  -24.4220  -11.6280   20.8370 C   0  0  0  0  0  0  0  0  0  0  0  0
  -25.9800  -12.9450   20.1750 N   0  0  0  0  0  0  0  0  0  0  0  0
  -25.6890  -11.6450   20.4440 N   0  0  0  0  0  0  0  0  0  0  0  0
  -23.7630  -10.3340   21.0590 C   0  0  0  0  0  0  0  0  0  0  0  0
  -24.2600   -9.4030   21.9980 C   0  0  0  0  0  3  0  0  0  0  0  0
  -23.6010   -8.1710   22.2040 C   0  0  0  0  0  3  0  0  0  0  0  0
  -22.4290   -7.8630   21.4730 C   0  0  0  0  0  0  0  0  0  0  0  0
  -21.9520   -8.7840   20.5220 C   0  0  0  0  0  3  0  0  0  0  0  0
  -22.6130  -10.0050   20.3130 C   0  0  0  0  0  3  0  0  0  0  0  0
  -21.7370   -6.6830   21.5870 O   0  0  0  0  0  0  0  0  0  0  0  0
  -21.7130   -5.9750   22.7630 C   0  0  0  0  0  0  0  0  0  0  0  0
  -21.2440   -6.5460   23.9670 C   0  0  0  0  0  3  0  0  0  0  0  0
  -21.1700   -5.7600   25.1360 C   0  0  0  0  0  3  0  0  0  0  0  0
  -21.5550   -4.4060   25.1010 C   0  0  0  0  0  0  0  0  0  0  0  0
  -22.0190   -3.8370   23.9020 C   0  0  0  0  0  3  0  0  0  0  0  0
  -22.0950   -4.6190   22.7370 C   0  0  0  0  0  0  0  0  0  0  0  0
  -22.5210   -4.0610   21.5780 F   0  0  0  0  0  0  0  0  0  0  0  0
  -21.4790   -3.6490   26.2210 F   0  0  0  0  0  0  0  0  0  0  0  0
  -22.5120  -13.3720   21.2850 C   0  0  0  0  0  0  0  0  0  0  0  0
  -21.8740  -12.6440   22.1950 N   0  0  0  0  0  0  0  0  0  0  0  0
  -21.9940  -14.3790   20.8030 O   0  0  0  0  0  0  0  0  0  0  0  0
  -22.3050  -11.8330   22.6130 H   0  0  0  0  0  0  0  0  0  0  0  0
  -20.9400  -12.9060   22.4790 H   0  0  0  0  0  0  0  0  0  0  0  0
  -25.0150  -15.1570   20.3220 N   0  0  0  0  0  0  0  0  0  0  0  0
  -24.2310  -15.7800   20.4940 H   0  0  0  0  0  0  0  0  0  0  0  0
  -25.8270  -15.6370   19.9560 H   0  0  0  0  0  0  0  0  0  0  0  0
  -29.0410  -22.9260   20.8820 C   0  0  0  0  0  3  0  0  0  0  0  0
  -28.9710  -24.2690   20.0620 C   0  0  0  0  0  3  0  0  0  0  0  0
  -28.2480  -25.4490   20.7730 C   0  0  0  0  0  2  0  0  0  0  0  0
  -28.2990  -26.6930   20.0310 O   0  0  0  0  0  0  0  0  0  0  0  0
  -24.5700  -31.8890   23.2100 C   0  0  0  0  0  0  0  0  0  0  0  0
  -27.1480  -27.4570   20.0570 C   0  0  0  0  0  0  0  0  0  0  0  0
  -23.3380  -30.5180   21.5620 C   0  0  0  0  0  3  0  0  0  0  0  0
  -24.7650  -28.9870   20.0990 C   0  0  0  0  0  0  0  0  0  0  0  0
  -25.8590  -30.8670   21.3320 C   0  0  0  0  0  2  0  0  0  0  0  0
  -25.9330  -29.4980   20.6820 C   0  0  0  0  0  0  0  0  0  0  0  0
  -27.1310  -28.7420   20.6540 C   0  0  0  0  0  3  0  0  0  0  0  0
  -25.9680  -26.9680   19.4630 C   0  0  0  0  0  3  0  0  0  0  0  0
  -24.7780  -27.7240   19.4850 C   0  0  0  0  0  3  0  0  0  0  0  0
  -23.5290  -29.8580   20.1700 C   0  0  0  0  0  2  0  0  0  0  0  0
  -24.6090  -31.1060   22.0950 N   0  0  0  0  0  0  0  0  0  0  0  0
  -23.4970  -32.1580   23.7690 O   0  0  0  0  0  0  0  0  0  0  0  0
  -22.6890  -29.4900   22.5170 C   0  0  0  0  0  0  0  0  0  0  0  0
  -21.3640  -29.3050   22.3910 N   0  0  0  0  0  0  0  0  0  0  0  0
  -23.3770  -28.8610   23.3260 O   0  0  0  0  0  0  0  0  0  0  0  0
  -20.8750  -29.8600   21.7030 H   0  0  0  0  0  0  0  0  0  0  0  0
  -18.0000  -28.0810   22.8760 C   0  0  0  0  0  0  0  0  0  0  0  0
  -20.5540  -28.3580   23.1560 C   0  0  0  0  0  3  0  0  0  0  0  0
  -20.6710  -26.9310   22.5740 C   0  0  0  0  0  2  0  0  0  0  0  0
  -19.5750  -26.6040   21.5560 C   0  0  0  0  0  2  0  0  0  0  0  0
  -18.1890  -26.7360   22.1950 C   0  0  0  0  0  2  0  0  0  0  0  0
  -19.1100  -28.8500   23.3140 C   0  0  0  0  0  0  0  0  0  0  0  0
  -18.8810  -30.1070   23.9140 C   0  0  0  0  0  3  0  0  0  0  0  0
  -17.5720  -30.5960   24.0780 C   0  0  0  0  0  3  0  0  0  0  0  0
  -16.4740  -29.8260   23.6530 C   0  0  0  0  0  3  0  0  0  0  0  0
  -16.6900  -28.5710   23.0580 C   0  0  0  0  0  3  0  0  0  0  0  0
  -25.8660  -32.5030   23.8260 C   0  0  0  0  0  3  0  0  0  0  0  0
  -25.5740  -33.9010   24.1700 N   0  0  0  0  0  0  0  0  0  0  0  0
  -25.9180  -34.9560   23.4180 C   0  0  0  0  0  0  0  0  0  0  0  0
  -26.5840  -34.8520   22.3840 O   0  0  0  0  0  0  0  0  0  0  0  0
  -24.9860  -34.0560   24.9740 H   0  0  0  0  0  0  0  0  0  0  0  0
  -24.2130  -36.7720   23.0710 C   0  0  0  0  0  1  0  0  0  0  0  0
  -25.4470  -36.3460   23.8850 C   0  0  0  0  0  3  0  0  0  0  0  0
  -27.5900  -37.1960   24.7300 C   0  0  0  0  0  1  0  0  0  0  0  0
  -26.4930  -37.3870   23.7830 N   0  0  0  0  0  0  0  0  0  0  0  0
  -26.1000  -38.3110   23.9370 H   0  0  0  0  0  0  0  0  0  0  0  0
  -26.3890  -31.7160   25.0890 C   0  0  1  0  0  0  0  0  0  0  0  0
  -25.3070  -31.4760   26.1680 C   0  0  0  0  0  1  0  0  0  0  0  0
  -26.9540  -30.3390   24.6740 C   0  0  0  0  0  1  0  0  0  0  0  0
  -27.5540  -32.4940   25.7450 C   0  0  0  0  0  1  0  0  0  0  0  0
  1  2  1  0
  1  5  1  0
  2 52  1  0
  3  1  2  0
  4  5  2  0
  6  2  1  0
  6 10  1  0
  7  8  1  0
  9 10  1  0
  9 12  2  0
 10  7  2  0
 11  8  2  0
 11 13  1  0
 12 11  1  0
 14 22  1  0
 15 20  1  0
 16 17  1  0
 16 15  1  0
 18 17  1  0
 18 27  1  0
 18 19  1  0
 20 14  1  0
 20 19  1  0
 21 14  2  0
 22 23  1  0
 22 12  1  0
 24 25  2  0
 25 44  1  0
 26 25  1  0
 26 29  1  0
 27 28  1  0
 27 24  1  0
 28 26  2  0
 29 30  1  0
 30 31  2  0
 32 35  1  0
 32 31  1  0
 33 32  2  0
 34 33  1  0
 34 29  2  0
 35 36  1  0
 36 37  1  0
 37 38  2  0
 39 38  1  0
 39 43  1  0
 40 39  2  0
 41 36  2  0
 41 40  1  0
 42 41  1  0
 44 45  1  0
 45 48  1  0
 45 47  1  0
 46 44  2  0
 49 24  1  0
 49 50  1  0
 51 49  1  0
 53 54  1  0
 53 52  2  0
 55 57  1  0
 55 54  1  0
 56 67  2  0
 57 62  1  0
 58 66  1  0
 58 68  1  0
 59 65  1  0
 59 61  1  0
 60 66  1  0
 61 60  1  0
 62 61  2  0
 63 64  1  0
 63 57  2  0
 64 59  2  0
 65 58  1  0
 66 56  1  0
 68 70  2  0
 69 68  1  0
 71 69  1  0
 72 81  2  0
 72 77  1  0
 73 69  1  0
 73 77  1  0
 74 73  1  0
 75 76  1  0
 75 74  1  0
 76 72  1  0
 77 78  2  0
 78 79  1  0
 80 79  2  0
 81 80  1  0
 82 56  1  0
 82 83  1  0
 82 92  1  0
 83 86  1  0
 84 88  1  0
 84 83  1  0
 85 84  2  0
 88 87  1  0
 90 88  1  0
 90 91  1  0
 90 89  1  0
 92 95  1  1
 92 93  1  0
 94 92  1  0
M  ISO  4  14 100  22 100  54 101  55 101
M  END
>  <TORSDO>  (47) 
F 22

>  <SCORE>  (47) 
-10.721

>  <name>  (47) 
46

>  <ligand_id>  (47) 
46

>  <original_smiles>  (47) 
[H]C([H])=C([H])C(=O)N(C([H])([H])c1c([H])c([H])c(C([H])([H])[H])c(N([H])C(=O)N2C([H])([H])C([H])([H])C([H])([H])C([H])(n3nc(-c4c([H])c([H])c(Oc5c([H])c([H])c(F)c([H])c5F)c([H])c4[H])c(C(=O)N([H])[H])c3N([H])[H])C2([H])[H])c1[H])C([H])([H])C([H])([H])C([H])([H])Oc1c([H])c([H])c2c(c1[H])C([H])([H])N(C(=O)C([H])(N([H])C(=O)C([H])(N([H])C([H])([H])[H])C([H])([H])[H])C(C([H])([H])[H])(C([H])([H])[H])C([H])([H])[H])C([H])(C(=O)N([H])C1([H])c3c([H])c([H])c([H])c([H])c3C([H])([H])C([H])([H])C1([H])[H])C2([H])[H]

>  <smiles>  (47) 
[H]C([H])=C([H])C(=O)N(C([H])([H])c1c([H])c([H])c(C([H])([H])[H])c(N([H])C(=O)N2C([H])([H])C([H])([H])C([H])([H])C([H])(n3nc(-c4c([H])c([H])c(Oc5c([H])c([H])c(F)c([H])c5F)c([H])c4[H])c(C(=O)N([H])[H])c3N([H])[H])C2([H])[H])c1[H])C([H])([H])C([H])([H])C([H])([H])Oc1c([H])c([H])c2c(c1[H])C([H])([H])N(C(=O)C([H])(N([H])C(=O)C([H])(N([H])C([H])([H])[H])C([H])([H])[H])C(C([H])([H])[H])(C([H])([H])[H])C([H])([H])[H])C([H])(C(=O)N([H])C1([H])c3c([H])c([H])c([H])c([H])c3C([H])([H])C([H])([H])C1([H])[H])C2([H])[H]

$$$$
47:0:0
     RDKit          3D

101110  0  0  1  0  0  0  0  0999 V2000
  -30.3520  -20.9810   22.1540 C   0  0  0  0  0  0  0  0  0  0  0  0
  -29.6640  -22.3360   22.1550 C   0  0  0  0  0  2  0  0  0  0  0  0
  -29.9880  -21.4680   19.9130 C   0  0  0  0  0  2  0  0  0  0  0  0
  -29.7740  -22.7820   20.6890 C   0  0  0  0  0  3  0  0  0  0  0  0
  -30.5510  -20.5500   20.8980 N   0  0  0  0  0  0  0  0  0  0  0  0
  -30.6580  -20.3880   23.1930 O   0  0  0  0  0  0  0  0  0  0  0  0
  -32.9970  -17.2730   19.8020 C   0  0  0  0  0  3  0  0  0  0  0  0
  -30.8770  -18.1460   20.6250 C   0  0  0  0  0  3  0  0  0  0  0  0
  -32.7150  -19.6870   20.0750 C   0  0  0  0  0  0  0  0  0  0  0  0
  -33.5320  -18.5780   19.7250 C   0  0  0  0  0  0  0  0  0  0  0  0
  -31.3870  -19.4600   20.5340 C   0  0  0  0  0  0  0  0  0  0  0  0
  -31.6780  -17.0470   20.2510 C   0  0  0  0  0  0  0  0  0  0  0  0
  -31.8680  -14.5890   20.2350 C   0  0  0  0  0  0  0  0  0  0  0  0
  -31.7560  -12.1230   20.3010 C   0  0  0  0  0  2  0  0  0  0  0  0
  -30.9390  -11.5810   19.1130 C   0  0  0  0  0  2  0  0  0  0  0  0
  -29.4380  -11.5430   19.4570 C   0  0  0  0  0  2  0  0  0  0  0  0
  -28.9290  -12.8820   20.0540 C   0  0  0  0  0  3  0  0  0  0  0  0
  -29.8650  -13.3720   21.1810 C   0  0  0  0  0  2  0  0  0  0  0  0
  -31.2320  -13.4560   20.6360 N   0  0  0  0  0  0  0  0  0  0  0  0
  -32.9810  -14.5790   19.7000 O   0  0  0  0  0  0  0  0  0  0  0  0
  -31.1720  -15.7270   20.3880 N   0  0  0  0  0  0  0  0  0  0  0  0
  -30.2030  -15.6260   20.6500 H   0  0  0  0  0  0  0  0  0  0  0  0
  -26.6400  -13.7690   20.8330 C   0  0  0  0  0  0  0  0  0  0  0  0
  -25.4660  -13.1310   21.1320 C   0  0  0  0  0  0  0  0  0  0  0  0
  -25.7230  -11.7350   20.9660 C   0  0  0  0  0  0  0  0  0  0  0  0
  -27.5460  -12.7680   20.5110 N   0  0  0  0  0  0  0  0  0  0  0  0
  -26.9940  -11.5350   20.6470 N   0  0  0  0  0  0  0  0  0  0  0  0
  -24.8170  -10.5810   21.0370 C   0  0  0  0  0  0  0  0  0  0  0  0
  -25.0590   -9.5040   21.9190 C   0  0  0  0  0  3  0  0  0  0  0  0
  -24.1640   -8.4150   21.9820 C   0  0  0  0  0  3  0  0  0  0  0  0
  -23.0110   -8.3970   21.1620 C   0  0  0  0  0  0  0  0  0  0  0  0
  -22.7870   -9.4590   20.2700 C   0  0  0  0  0  3  0  0  0  0  0  0
  -23.6820  -10.5400   20.2050 C   0  0  0  0  0  3  0  0  0  0  0  0
  -22.1000   -7.3680   21.1370 O   0  0  0  0  0  0  0  0  0  0  0  0
  -21.7210   -6.7130   22.2810 C   0  0  0  0  0  0  0  0  0  0  0  0
  -21.1570   -7.3970   23.3790 C   0  0  0  0  0  3  0  0  0  0  0  0
  -20.7180   -6.6760   24.5090 C   0  0  0  0  0  3  0  0  0  0  0  0
  -20.8350   -5.2740   24.5380 C   0  0  0  0  0  0  0  0  0  0  0  0
  -21.3920   -4.5910   23.4430 C   0  0  0  0  0  3  0  0  0  0  0  0
  -21.8310   -5.3090   22.3160 C   0  0  0  0  0  0  0  0  0  0  0  0
  -22.3470   -4.6430   21.2550 F   0  0  0  0  0  0  0  0  0  0  0  0
  -20.4060   -4.5800   25.6190 F   0  0  0  0  0  0  0  0  0  0  0  0
  -24.1530  -13.7800   21.4590 C   0  0  0  0  0  0  0  0  0  0  0  0
  -23.3340  -13.1290   22.2780 N   0  0  0  0  0  0  0  0  0  0  0  0
  -23.8650  -14.8960   21.0270 O   0  0  0  0  0  0  0  0  0  0  0  0
  -23.5770  -12.2230   22.6490 H   0  0  0  0  0  0  0  0  0  0  0  0
  -22.4500  -13.5430   22.5380 H   0  0  0  0  0  0  0  0  0  0  0  0
  -27.0080  -15.1100   20.7870 N   0  0  0  0  0  0  0  0  0  0  0  0
  -26.3490  -15.8610   20.9640 H   0  0  0  0  0  0  0  0  0  0  0  0
  -27.9190  -15.4450   20.4980 H   0  0  0  0  0  0  0  0  0  0  0  0
  -34.9450  -19.2830   17.7610 C   0  0  0  0  0  1  0  0  0  0  0  0
  -35.8460  -17.5220   19.3530 C   0  0  0  0  0  1  0  0  0  0  0  0
  -34.9630  -18.7730   19.2090 C   0  0  0  0  0  3  0  0  0  0  0  0
  -33.0240  -21.9270   19.0280 C   0  0  0  0  0  2  0  0  0  0  0  0
  -33.2630  -21.0540   20.0190 C   0  0  0  0  0  3  0  0  0  0  0  0
  -28.5900  -24.7390   19.6720 C   0  0  0  0  0  0  0  0  0  0  0  0
  -28.5910  -23.5270   20.2490 N   0  0  0  0  0  0  0  0  0  0  0  0
  -29.6250  -25.3230   19.3380 O   0  0  0  0  0  0  0  0  0  0  0  0
  -27.6850  -23.1320   20.4700 H   0  0  0  0  0  0  0  0  0  0  0  0
  -27.2150  -25.3960   19.4850 C   0  0  0  0  0  2  0  0  0  0  0  0
  -27.3460  -26.8070   19.2490 O   0  0  0  0  0  0  0  0  0  0  0  0
  -24.5470  -31.7410   23.5260 C   0  0  0  0  0  0  0  0  0  0  0  0
  -26.2490  -27.6040   19.5020 C   0  0  0  0  0  0  0  0  0  0  0  0
  -22.9750  -30.6830   21.9370 C   0  0  0  0  0  3  0  0  0  0  0  0
  -24.0380  -29.2670   20.1060 C   0  0  0  0  0  0  0  0  0  0  0  0
  -25.4650  -30.8750   21.3790 C   0  0  0  0  0  2  0  0  0  0  0  0
  -25.3160  -29.6100   20.5590 C   0  0  0  0  0  0  0  0  0  0  0  0
  -26.4230  -28.7850   20.2590 C   0  0  0  0  0  3  0  0  0  0  0  0
  -24.9510  -27.2880   19.0320 C   0  0  0  0  0  3  0  0  0  0  0  0
  -23.8490  -28.1050   19.3410 C   0  0  0  0  0  3  0  0  0  0  0  0
  -22.9050  -30.1980   20.4650 C   0  0  0  0  0  2  0  0  0  0  0  0
  -24.3570  -31.1040   22.3360 N   0  0  0  0  0  0  0  0  0  0  0  0
  -23.5920  -32.0130   24.2660 O   0  0  0  0  0  0  0  0  0  0  0  0
  -22.3840  -29.5840   22.8490 C   0  0  0  0  0  0  0  0  0  0  0  0
  -21.4020  -28.8350   22.3210 N   0  0  0  0  0  0  0  0  0  0  0  0
  -22.8220  -29.4030   23.9870 O   0  0  0  0  0  0  0  0  0  0  0  0
  -21.0930  -29.0520   21.3830 H   0  0  0  0  0  0  0  0  0  0  0  0
  -19.3350  -25.9310   21.7350 C   0  0  0  0  0  0  0  0  0  0  0  0
  -20.7210  -27.7210   22.9810 C   0  0  0  0  0  3  0  0  0  0  0  0
  -21.7110  -26.5800   23.3100 C   0  0  0  0  0  2  0  0  0  0  0  0
  -21.7840  -25.5110   22.2160 C   0  0  0  0  0  2  0  0  0  0  0  0
  -20.4060  -24.8820   21.9860 C   0  0  0  0  0  2  0  0  0  0  0  0
  -19.4900  -27.2670   22.1890 C   0  0  0  0  0  0  0  0  0  0  0  0
  -18.4800  -28.2100   21.9010 C   0  0  0  0  0  3  0  0  0  0  0  0
  -17.3340  -27.8370   21.1740 C   0  0  0  0  0  3  0  0  0  0  0  0
  -17.1780  -26.5090   20.7410 C   0  0  0  0  0  3  0  0  0  0  0  0
  -18.1740  -25.5590   21.0250 C   0  0  0  0  0  3  0  0  0  0  0  0
  -25.9680  -32.1770   24.0020 C   0  0  0  0  0  3  0  0  0  0  0  0
  -25.8660  -33.5640   24.4740 N   0  0  0  0  0  0  0  0  0  0  0  0
  -26.2050  -34.6410   23.7500 C   0  0  0  0  0  0  0  0  0  0  0  0
  -26.7080  -34.5610   22.6250 O   0  0  0  0  0  0  0  0  0  0  0  0
  -25.4100  -33.7080   25.3620 H   0  0  0  0  0  0  0  0  0  0  0  0
  -24.6500  -36.6150   23.7910 C   0  0  0  0  0  1  0  0  0  0  0  0
  -25.9440  -36.0250   24.3730 C   0  0  0  0  0  3  0  0  0  0  0  0
  -28.2690  -36.6020   24.9040 C   0  0  0  0  0  1  0  0  0  0  0  0
  -27.0580  -36.9770   24.1790 N   0  0  0  0  0  0  0  0  0  0  0  0
  -26.7890  -37.9120   24.4720 H   0  0  0  0  0  0  0  0  0  0  0  0
  -26.5620  -31.2450   25.1270 C   0  0  1  0  0  0  0  0  0  0  0  0
  -25.5690  -30.9510   26.2770 C   0  0  0  0  0  1  0  0  0  0  0  0
  -27.0100  -29.8900   24.5340 C   0  0  0  0  0  1  0  0  0  0  0  0
  -27.8220  -31.8990   25.7380 C   0  0  0  0  0  1  0  0  0  0  0  0
  1  2  1  0
  1  6  2  0
  3  4  1  0
  3  5  1  0
  4 57  1  0
  4  2  1  0
  5  1  1  0
  7 12  1  0
  9 11  2  0
 10  7  2  0
 10  9  1  0
 11  8  1  0
 11  5  1  0
 12 21  1  0
 12  8  2  0
 13 21  1  0
 13 19  1  0
 14 19  1  0
 15 16  1  0
 15 14  1  0
 17 16  1  0
 17 26  1  0
 17 18  1  0
 19 18  1  0
 20 13  2  0
 21 22  1  0
 23 24  2  0
 24 43  1  0
 25 28  1  0
 25 24  1  0
 26 27  1  0
 26 23  1  0
 27 25  2  0
 28 29  1  0
 29 30  2  0
 31 30  1  0
 32 31  2  0
 33 32  1  0
 33 28  2  0
 34 31  1  0
 34 35  1  0
 35 40  2  0
 35 36  1  0
 36 37  2  0
 37 38  1  0
 38 42  1  0
 39 38  2  0
 40 39  1  0
 41 40  1  0
 43 44  1  0
 44 47  1  0
 44 46  1  0
 45 43  2  0
 48 23  1  0
 48 49  1  0
 50 48  1  0
 51 53  1  0
 53 52  1  0
 53 10  1  0
 54 55  2  0
 55  9  1  0
 56 57  1  0
 57 59  1  0
 58 56  2  0
 60 56  1  0
 61 60  1  0
 61 63  1  0
 62 73  2  0
 63 68  1  0
 64 72  1  0
 64 74  1  0
 65 71  1  0
 65 67  1  0
 66 72  1  0
 67 66  1  0
 68 67  2  0
 69 70  1  0
 69 63  2  0
 70 65  2  0
 71 64  1  0
 72 62  1  0
 74 76  2  0
 75 74  1  0
 77 75  1  0
 78 82  1  0
 78 83  1  0
 79 75  1  0
 79 80  1  0
 81 80  1  0
 82 81  1  0
 83 79  1  0
 84 83  2  0
 85 84  1  0
 86 87  1  0
 86 85  2  0
 87 78  2  0
 88 62  1  0
 88 89  1  0
 88 98  1  0
 89 92  1  0
 90 94  1  0
 90 89  1  0
 91 90  2  0
 94 93  1  0
 96 94  1  0
 96 97  1  0
 96 95  1  0
 98101  1  1
 98 99  1  0
100 98  1  0
M  ISO  4  13 100  21 100  60 101  61 101
M  END
>  <TORSDO>  (48) 
F 21

>  <SCORE>  (48) 
-10.435

>  <name>  (48) 
47

>  <ligand_id>  (48) 
47

>  <original_smiles>  (48) 
[H]C([H])=C([H])c1c(N2C(=O)C([H])([H])C([H])(N([H])C(=O)C([H])([H])Oc3c([H])c([H])c4c(c3[H])C([H])([H])N(C(=O)C([H])(N([H])C(=O)C([H])(N([H])C([H])([H])[H])C([H])([H])[H])C(C([H])([H])[H])(C([H])([H])[H])C([H])([H])[H])C([H])(C(=O)N([H])C3([H])c5c([H])c([H])c([H])c([H])c5C([H])([H])C([H])([H])C3([H])[H])C4([H])[H])C2([H])[H])c([H])c(N([H])C(=O)N2C([H])([H])C([H])([H])C([H])([H])C([H])(n3nc(-c4c([H])c([H])c(Oc5c([H])c([H])c(F)c([H])c5F)c([H])c4[H])c(C(=O)N([H])[H])c3N([H])[H])C2([H])[H])c([H])c1C([H])(C([H])([H])[H])C([H])([H])[H]

>  <smiles>  (48) 
[H]C([H])=C([H])c1c(N2C(=O)C([H])([H])C([H])(N([H])C(=O)C([H])([H])Oc3c([H])c([H])c4c(c3[H])C([H])([H])N(C(=O)C([H])(N([H])C(=O)C([H])(N([H])C([H])([H])[H])C([H])([H])[H])C(C([H])([H])[H])(C([H])([H])[H])C([H])([H])[H])C([H])(C(=O)N([H])C3([H])c5c([H])c([H])c([H])c([H])c5C([H])([H])C([H])([H])C3([H])[H])C4([H])[H])C2([H])[H])c([H])c(N([H])C(=O)N2C([H])([H])C([H])([H])C([H])([H])C([H])(n3nc(-c4c([H])c([H])c(Oc5c([H])c([H])c(F)c([H])c5F)c([H])c4[H])c(C(=O)N([H])[H])c3N([H])[H])C2([H])[H])c([H])c1C([H])(C([H])([H])[H])C([H])([H])[H]

$$$$
48:0:0
     RDKit          3D

 95104  0  0  1  0  0  0  0  0999 V2000
  -28.3860  -21.4850   21.1410 C   0  0  0  0  0  0  0  0  0  0  0  0
  -27.8350  -22.9520   21.1710 C   0  0  0  0  0  2  0  0  0  0  0  0
  -29.5900  -23.5310   19.4530 C   0  0  0  0  0  2  0  0  0  0  0  0
  -29.5660  -22.0090   19.0830 C   0  0  0  0  0  2  0  0  0  0  0  0
  -28.2720  -24.0150   20.1010 C   0  0  0  0  0  3  0  0  0  0  0  0
  -29.2900  -21.0810   20.2070 N   0  0  0  0  0  0  0  0  0  0  0  0
  -27.9790  -20.7160   22.0180 O   0  0  0  0  0  0  0  0  0  0  0  0
  -29.6460  -18.5110   20.2780 C   0  0  0  0  0  3  0  0  0  0  0  0
  -31.8900  -17.6460   20.6320 C   0  0  0  0  0  3  0  0  0  0  0  0
  -31.5060  -20.0660   20.6530 C   0  0  0  0  0  0  0  0  0  0  0  0
  -30.1220  -19.8770   20.3740 C   0  0  0  0  0  0  0  0  0  0  0  0
  -30.5260  -17.3670   20.3960 C   0  0  0  0  0  0  0  0  0  0  0  0
  -32.3700  -18.9570   20.7600 C   0  0  0  0  0  0  0  0  0  0  0  0
  -32.0980  -21.4490   20.8930 C   0  0  0  0  0  1  0  0  0  0  0  0
  -33.6890  -19.1470   21.0040 F   0  0  0  0  0  0  0  0  0  0  0  0
  -30.8060  -14.8460   19.9760 C   0  0  0  0  0  0  0  0  0  0  0  0
  -30.5130  -12.6020   18.9610 C   0  0  0  0  0  2  0  0  0  0  0  0
  -29.5110  -12.7120   17.7900 C   0  0  0  0  0  2  0  0  0  0  0  0
  -28.0710  -12.5390   18.3040 C   0  0  0  0  0  2  0  0  0  0  0  0
  -27.7680  -13.4200   19.5460 C   0  0  0  0  0  3  0  0  0  0  0  0
  -28.8860  -13.3070   20.6070 C   0  0  0  0  0  2  0  0  0  0  0  0
  -30.1540  -13.6420   19.9470 N   0  0  0  0  0  0  0  0  0  0  0  0
  -31.9420  -14.9440   19.5080 O   0  0  0  0  0  0  0  0  0  0  0  0
  -30.0830  -15.9650   20.3270 N   0  0  0  0  0  0  0  0  0  0  0  0
  -29.1150  -15.7850   20.5460 H   0  0  0  0  0  0  0  0  0  0  0  0
  -25.4300  -13.9970   20.4380 C   0  0  0  0  0  0  0  0  0  0  0  0
  -24.3870  -13.2130   20.8470 C   0  0  0  0  0  0  0  0  0  0  0  0
  -24.8410  -11.8620   20.7410 C   0  0  0  0  0  0  0  0  0  0  0  0
  -26.4530  -13.1240   20.1060 N   0  0  0  0  0  0  0  0  0  0  0  0
  -26.1090  -11.8340   20.3490 N   0  0  0  0  0  0  0  0  0  0  0  0
  -24.1260  -10.5960   20.9330 C   0  0  0  0  0  0  0  0  0  0  0  0
  -24.5540   -9.6400   21.8800 C   0  0  0  0  0  3  0  0  0  0  0  0
  -23.8370   -8.4380   22.0590 C   0  0  0  0  0  3  0  0  0  0  0  0
  -22.6790   -8.1820   21.2880 C   0  0  0  0  0  0  0  0  0  0  0  0
  -22.2700   -9.1250   20.3290 C   0  0  0  0  0  3  0  0  0  0  0  0
  -22.9880  -10.3190   20.1480 C   0  0  0  0  0  3  0  0  0  0  0  0
  -21.9320   -7.0310   21.3740 O   0  0  0  0  0  0  0  0  0  0  0  0
  -21.8080   -6.3410   22.5530 C   0  0  0  0  0  0  0  0  0  0  0  0
  -21.2390   -6.9300   23.7030 C   0  0  0  0  0  3  0  0  0  0  0  0
  -21.0650   -6.1650   24.8730 C   0  0  0  0  0  3  0  0  0  0  0  0
  -21.4500   -4.8100   24.8930 C   0  0  0  0  0  0  0  0  0  0  0  0
  -22.0110   -4.2210   23.7470 C   0  0  0  0  0  3  0  0  0  0  0  0
  -22.1860   -4.9840   22.5800 C   0  0  0  0  0  0  0  0  0  0  0  0
  -22.7080   -4.4050   21.4700 F   0  0  0  0  0  0  0  0  0  0  0  0
  -21.2770   -4.0720   26.0150 F   0  0  0  0  0  0  0  0  0  0  0  0
  -23.0090  -13.6820   21.2220 C   0  0  0  0  0  0  0  0  0  0  0  0
  -22.3310  -12.9490   22.0980 N   0  0  0  0  0  0  0  0  0  0  0  0
  -22.5490  -14.7320   20.7770 O   0  0  0  0  0  0  0  0  0  0  0  0
  -22.7160  -12.0960   22.4740 H   0  0  0  0  0  0  0  0  0  0  0  0
  -21.4100  -13.2440   22.3950 H   0  0  0  0  0  0  0  0  0  0  0  0
  -25.5880  -15.3740   20.2980 N   0  0  0  0  0  0  0  0  0  0  0  0
  -24.8320  -16.0250   20.4800 H   0  0  0  0  0  0  0  0  0  0  0  0
  -26.4080  -15.8210   19.9080 H   0  0  0  0  0  0  0  0  0  0  0  0
  -28.2960  -25.4820   20.7370 C   0  0  0  0  0  2  0  0  0  0  0  0
  -28.3590  -26.7140   19.9390 O   0  0  0  0  0  0  0  0  0  0  0  0
  -24.6340  -31.9680   23.1900 C   0  0  0  0  0  0  0  0  0  0  0  0
  -27.2340  -27.5330   19.9850 C   0  0  0  0  0  0  0  0  0  0  0  0
  -23.4100  -30.5820   21.5530 C   0  0  0  0  0  3  0  0  0  0  0  0
  -24.8460  -29.0770   20.0700 C   0  0  0  0  0  0  0  0  0  0  0  0
  -25.9330  -30.9530   21.3070 C   0  0  0  0  0  2  0  0  0  0  0  0
  -26.0220  -29.5870   20.6370 C   0  0  0  0  0  0  0  0  0  0  0  0
  -27.2240  -28.8260   20.5830 C   0  0  0  0  0  3  0  0  0  0  0  0
  -26.0380  -27.0550   19.4130 C   0  0  0  0  0  3  0  0  0  0  0  0
  -24.8530  -27.8130   19.4550 C   0  0  0  0  0  3  0  0  0  0  0  0
  -23.6000  -29.9330   20.1580 C   0  0  0  0  0  2  0  0  0  0  0  0
  -24.6790  -31.1830   22.0750 N   0  0  0  0  0  0  0  0  0  0  0  0
  -23.5620  -32.2180   23.7590 O   0  0  0  0  0  0  0  0  0  0  0  0
  -22.7840  -29.5410   22.5120 C   0  0  0  0  0  0  0  0  0  0  0  0
  -21.4600  -29.3400   22.4070 N   0  0  0  0  0  0  0  0  0  0  0  0
  -23.4890  -28.9210   23.3120 O   0  0  0  0  0  0  0  0  0  0  0  0
  -20.9480  -29.8970   21.7370 H   0  0  0  0  0  0  0  0  0  0  0  0
  -18.1230  -28.0500   22.9310 C   0  0  0  0  0  0  0  0  0  0  0  0
  -20.6760  -28.3780   23.1830 C   0  0  0  0  0  3  0  0  0  0  0  0
  -20.8110  -26.9520   22.6010 C   0  0  0  0  0  2  0  0  0  0  0  0
  -19.7100  -26.6020   21.5950 C   0  0  0  0  0  2  0  0  0  0  0  0
  -18.3290  -26.7090   22.2510 C   0  0  0  0  0  2  0  0  0  0  0  0
  -19.2240  -28.8400   23.3560 C   0  0  0  0  0  0  0  0  0  0  0  0
  -18.9780  -30.0920   23.9600 C   0  0  0  0  0  3  0  0  0  0  0  0
  -17.6610  -30.5580   24.1390 C   0  0  0  0  0  3  0  0  0  0  0  0
  -16.5740  -29.7690   23.7260 C   0  0  0  0  0  3  0  0  0  0  0  0
  -16.8060  -28.5170   23.1280 C   0  0  0  0  0  3  0  0  0  0  0  0
  -25.9230  -32.6060   23.7940 C   0  0  0  0  0  3  0  0  0  0  0  0
  -25.6060  -33.9960   24.1470 N   0  0  0  0  0  0  0  0  0  0  0  0
  -25.9210  -35.0630   23.4000 C   0  0  0  0  0  0  0  0  0  0  0  0
  -26.5780  -34.9780   22.3590 O   0  0  0  0  0  0  0  0  0  0  0  0
  -25.0050  -34.1340   24.9470 H   0  0  0  0  0  0  0  0  0  0  0  0
  -24.1830  -36.8570   23.0890 C   0  0  0  0  0  1  0  0  0  0  0  0
  -25.4320  -36.4420   23.8830 C   0  0  0  0  0  3  0  0  0  0  0  0
  -27.5670  -37.3270   24.7120 C   0  0  0  0  0  1  0  0  0  0  0  0
  -26.4600  -37.5000   23.7760 N   0  0  0  0  0  0  0  0  0  0  0  0
  -26.0520  -38.4170   23.9340 H   0  0  0  0  0  0  0  0  0  0  0  0
  -26.4780  -31.8240   25.0490 C   0  0  1  0  0  0  0  0  0  0  0  0
  -25.4120  -31.5540   26.1390 C   0  0  0  0  0  1  0  0  0  0  0  0
  -27.0690  -30.4600   24.6230 C   0  0  0  0  0  1  0  0  0  0  0  0
  -27.6340  -32.6200   25.6990 C   0  0  0  0  0  1  0  0  0  0  0  0
  1  2  1  0
  1  7  2  0
  3  5  1  0
  4  3  1  0
  4  6  1  0
  5 54  1  0
  5  2  1  0
  6 11  1  0
  6  1  1  0
  8 11  2  0
  8 12  1  0
  9 13  1  0
 10 13  2  0
 10 14  1  0
 11 10  1  0
 12  9  2  0
 13 15  1  0
 16 24  1  0
 17 22  1  0
 18 19  1  0
 18 17  1  0
 20 19  1  0
 20 29  1  0
 20 21  1  0
 22 16  1  0
 22 21  1  0
 23 16  2  0
 24 12  1  0
 24 25  1  0
 26 27  2  0
 27 46  1  0
 28 27  1  0
 28 31  1  0
 29 30  1  0
 29 26  1  0
 30 28  2  0
 31 32  1  0
 32 33  2  0
 34 37  1  0
 34 33  1  0
 35 34  2  0
 36 35  1  0
 36 31  2  0
 37 38  1  0
 38 43  2  0
 38 39  1  0
 39 40  2  0
 40 41  1  0
 41 45  1  0
 42 41  2  0
 43 42  1  0
 44 43  1  0
 46 47  1  0
 47 50  1  0
 47 49  1  0
 48 46  2  0
 51 26  1  0
 51 52  1  0
 53 51  1  0
 55 57  1  0
 55 54  1  0
 56 67  2  0
 57 62  1  0
 58 66  1  0
 58 68  1  0
 59 65  1  0
 59 61  1  0
 60 66  1  0
 61 60  1  0
 62 61  2  0
 63 64  1  0
 63 57  2  0
 64 59  2  0
 65 58  1  0
 66 56  1  0
 68 70  2  0
 69 68  1  0
 71 69  1  0
 72 81  2  0
 72 77  1  0
 73 69  1  0
 73 77  1  0
 74 73  1  0
 75 76  1  0
 75 74  1  0
 76 72  1  0
 77 78  2  0
 78 79  1  0
 80 79  2  0
 81 80  1  0
 82 56  1  0
 82 83  1  0
 82 92  1  0
 83 86  1  0
 84 88  1  0
 84 83  1  0
 85 84  2  0
 88 87  1  0
 90 88  1  0
 90 91  1  0
 90 89  1  0
 92 95  1  1
 92 93  1  0
 94 92  1  0
M  ISO  4  16 100  24 100  54 101  55 101
M  END
>  <TORSDO>  (49) 
F 18

>  <SCORE>  (49) 
-13.900

>  <name>  (49) 
48

>  <ligand_id>  (49) 
48

>  <original_smiles>  (49) 
[H]c1c([H])c([H])c2c(c1[H])C([H])([H])C([H])([H])C([H])([H])C2([H])N([H])C(=O)C1([H])N(C(=O)C([H])(N([H])C(=O)C([H])(N([H])C([H])([H])[H])C([H])([H])[H])C(C([H])([H])[H])(C([H])([H])[H])C([H])([H])[H])C([H])([H])c2c([H])c(OC([H])([H])C3([H])C([H])([H])C(=O)N(c4c([H])c(N([H])C(=O)N5C([H])([H])C([H])([H])C([H])([H])C([H])(n6nc(-c7c([H])c([H])c(Oc8c([H])c([H])c(F)c([H])c8F)c([H])c7[H])c(C(=O)N([H])[H])c6N([H])[H])C5([H])[H])c([H])c(F)c4C([H])([H])[H])C([H])([H])C3([H])[H])c([H])c([H])c2C1([H])[H]

>  <smiles>  (49) 
[H]c1c([H])c([H])c2c(c1[H])C([H])([H])C([H])([H])C([H])([H])C2([H])N([H])C(=O)C1([H])N(C(=O)C([H])(N([H])C(=O)C([H])(N([H])C([H])([H])[H])C([H])([H])[H])C(C([H])([H])[H])(C([H])([H])[H])C([H])([H])[H])C([H])([H])c2c([H])c(OC([H])([H])C3([H])C([H])([H])C(=O)N(c4c([H])c(N([H])C(=O)N5C([H])([H])C([H])([H])C([H])([H])C([H])(n6nc(-c7c([H])c([H])c(Oc8c([H])c([H])c(F)c([H])c8F)c([H])c7[H])c(C(=O)N([H])[H])c6N([H])[H])C5([H])[H])c([H])c(F)c4C([H])([H])[H])C([H])([H])C3([H])[H])c([H])c([H])c2C1([H])[H]

$$$$
49:0:0
     RDKit          3D

 95104  0  0  1  0  0  0  0  0999 V2000
  -30.0360  -21.3430   18.7360 C   0  0  0  0  0  0  0  0  0  0  0  0
  -29.9470  -22.7270   18.0660 C   0  0  0  0  0  2  0  0  0  0  0  0
  -29.8580  -23.9120   19.0420 C   0  0  0  0  0  2  0  0  0  0  0  0
  -28.8320  -22.3110   20.6970 C   0  0  0  0  0  2  0  0  0  0  0  0
  -28.6360  -23.7310   19.9320 C   0  0  0  0  0  3  0  0  0  0  0  0
  -29.5330  -21.1370   19.9860 N   0  0  0  0  0  0  0  0  0  0  0  0
  -30.5760  -20.4490   18.0740 O   0  0  0  0  0  0  0  0  0  0  0  0
  -31.5780  -18.8030   22.2120 C   0  0  0  0  0  3  0  0  0  0  0  0
  -31.1890  -17.5120   21.8110 C   0  0  0  0  0  3  0  0  0  0  0  0
  -31.0130  -19.9740   21.6570 C   0  0  0  0  0  0  0  0  0  0  0  0
  -29.9880  -19.8820   20.6700 C   0  0  0  0  0  0  0  0  0  0  0  0
  -30.1950  -17.3150   20.8310 C   0  0  0  0  0  0  0  0  0  0  0  0
  -29.5890  -18.5270   20.2840 C   0  0  0  0  0  0  0  0  0  0  0  0
  -31.6010  -21.3010   22.1240 C   0  0  0  0  0  1  0  0  0  0  0  0
  -28.6070  -18.3820   19.3610 F   0  0  0  0  0  0  0  0  0  0  0  0
  -30.5540  -14.7650   20.3600 C   0  0  0  0  0  0  0  0  0  0  0  0
  -30.3350  -12.5020   19.3070 C   0  0  0  0  0  2  0  0  0  0  0  0
  -29.3760  -12.5560   18.0990 C   0  0  0  0  0  2  0  0  0  0  0  0
  -27.9170  -12.3670   18.5510 C   0  0  0  0  0  2  0  0  0  0  0  0
  -27.5510  -13.2540   19.7690 C   0  0  0  0  0  3  0  0  0  0  0  0
  -28.6240  -13.1860   20.8770 C   0  0  0  0  0  2  0  0  0  0  0  0
  -29.9060  -13.5520   20.2590 N   0  0  0  0  0  0  0  0  0  0  0  0
  -31.7510  -14.8430   20.0670 O   0  0  0  0  0  0  0  0  0  0  0  0
  -29.7910  -15.9170   20.5190 N   0  0  0  0  0  0  0  0  0  0  0  0
  -28.7960  -15.7760   20.4520 H   0  0  0  0  0  0  0  0  0  0  0  0
  -25.1700  -13.8310   20.5290 C   0  0  0  0  0  0  0  0  0  0  0  0
  -24.1130  -13.0500   20.9070 C   0  0  0  0  0  0  0  0  0  0  0  0
  -24.5850  -11.7020   20.8710 C   0  0  0  0  0  0  0  0  0  0  0  0
  -26.2160  -12.9590   20.2790 N   0  0  0  0  0  0  0  0  0  0  0  0
  -25.8720  -11.6730   20.5480 N   0  0  0  0  0  0  0  0  0  0  0  0
  -23.8640  -10.4350   21.0650 C   0  0  0  0  0  0  0  0  0  0  0  0
  -24.3150   -9.4620   21.9840 C   0  0  0  0  0  3  0  0  0  0  0  0
  -23.5970   -8.2610   22.1640 C   0  0  0  0  0  3  0  0  0  0  0  0
  -22.4120   -8.0260   21.4250 C   0  0  0  0  0  0  0  0  0  0  0  0
  -21.9820   -8.9860   20.4920 C   0  0  0  0  0  3  0  0  0  0  0  0
  -22.7020  -10.1790   20.3110 C   0  0  0  0  0  3  0  0  0  0  0  0
  -21.6610   -6.8790   21.5160 O   0  0  0  0  0  0  0  0  0  0  0  0
  -21.6400   -6.1210   22.6590 C   0  0  0  0  0  0  0  0  0  0  0  0
  -21.2490   -6.6610   23.9030 C   0  0  0  0  0  3  0  0  0  0  0  0
  -21.1760   -5.8320   25.0410 C   0  0  0  0  0  3  0  0  0  0  0  0
  -21.4850   -4.4620   24.9330 C   0  0  0  0  0  0  0  0  0  0  0  0
  -21.8690   -3.9210   23.6950 C   0  0  0  0  0  3  0  0  0  0  0  0
  -21.9440   -4.7470   22.5590 C   0  0  0  0  0  0  0  0  0  0  0  0
  -22.2970   -4.2180   21.3630 F   0  0  0  0  0  0  0  0  0  0  0  0
  -21.4070   -3.6610   26.0220 F   0  0  0  0  0  0  0  0  0  0  0  0
  -22.7150  -13.5200   21.1920 C   0  0  0  0  0  0  0  0  0  0  0  0
  -22.0010  -12.8130   22.0610 N   0  0  0  0  0  0  0  0  0  0  0  0
  -22.2670  -14.5440   20.6800 O   0  0  0  0  0  0  0  0  0  0  0  0
  -22.3830  -11.9860   22.4960 H   0  0  0  0  0  0  0  0  0  0  0  0
  -21.0610  -13.1000   22.2960 H   0  0  0  0  0  0  0  0  0  0  0  0
  -25.3220  -15.2040   20.3480 N   0  0  0  0  0  0  0  0  0  0  0  0
  -24.5400  -15.8420   20.4500 H   0  0  0  0  0  0  0  0  0  0  0  0
  -26.1500  -15.6500   19.9780 H   0  0  0  0  0  0  0  0  0  0  0  0
  -28.2700  -25.0730   20.7690 C   0  0  0  0  0  2  0  0  0  0  0  0
  -28.3260  -26.4470   20.1720 O   0  0  0  0  0  0  0  0  0  0  0  0
  -24.5910  -31.8750   23.2270 C   0  0  0  0  0  0  0  0  0  0  0  0
  -27.1960  -27.2870   20.1940 C   0  0  0  0  0  0  0  0  0  0  0  0
  -23.3810  -30.4700   21.5940 C   0  0  0  0  0  3  0  0  0  0  0  0
  -24.8290  -28.9050   20.1740 C   0  0  0  0  0  0  0  0  0  0  0  0
  -25.9190  -30.7890   21.3950 C   0  0  0  0  0  2  0  0  0  0  0  0
  -26.0010  -29.4030   20.7580 C   0  0  0  0  0  0  0  0  0  0  0  0
  -27.1910  -28.6110   20.7440 C   0  0  0  0  0  3  0  0  0  0  0  0
  -26.0000  -26.8370   19.5990 C   0  0  0  0  0  3  0  0  0  0  0  0
  -24.8320  -27.6290   19.5840 C   0  0  0  0  0  3  0  0  0  0  0  0
  -23.5910  -29.7820   20.2190 C   0  0  0  0  0  2  0  0  0  0  0  0
  -24.6510  -31.0620   22.1300 N   0  0  0  0  0  0  0  0  0  0  0  0
  -23.5090  -32.1530   23.7660 O   0  0  0  0  0  0  0  0  0  0  0  0
  -22.7190  -29.4600   22.5610 C   0  0  0  0  0  0  0  0  0  0  0  0
  -21.3900  -29.2910   22.4430 N   0  0  0  0  0  0  0  0  0  0  0  0
  -23.3990  -28.8340   23.3780 O   0  0  0  0  0  0  0  0  0  0  0  0
  -20.9010  -29.8470   21.7550 H   0  0  0  0  0  0  0  0  0  0  0  0
  -18.0100  -28.1060   22.9590 C   0  0  0  0  0  0  0  0  0  0  0  0
  -20.5710  -28.3570   23.2180 C   0  0  0  0  0  3  0  0  0  0  0  0
  -20.6650  -26.9230   22.6440 C   0  0  0  0  0  2  0  0  0  0  0  0
  -19.5560  -26.6040   21.6350 C   0  0  0  0  0  2  0  0  0  0  0  0
  -18.1790  -26.7540   22.2830 C   0  0  0  0  0  2  0  0  0  0  0  0
  -19.1330  -28.8640   23.3840 C   0  0  0  0  0  0  0  0  0  0  0  0
  -18.9200  -30.1280   23.9740 C   0  0  0  0  0  3  0  0  0  0  0  0
  -17.6180  -30.6340   24.1450 C   0  0  0  0  0  3  0  0  0  0  0  0
  -16.5090  -29.8710   23.7380 C   0  0  0  0  0  3  0  0  0  0  0  0
  -16.7060  -28.6090   23.1520 C   0  0  0  0  0  3  0  0  0  0  0  0
  -25.8760  -32.5090   23.8460 C   0  0  0  0  0  3  0  0  0  0  0  0
  -25.5660  -33.9080   24.1750 N   0  0  0  0  0  0  0  0  0  0  0  0
  -25.8990  -34.9610   23.4160 C   0  0  0  0  0  0  0  0  0  0  0  0
  -26.5680  -34.8570   22.3850 O   0  0  0  0  0  0  0  0  0  0  0  0
  -24.9720  -34.0630   24.9760 H   0  0  0  0  0  0  0  0  0  0  0  0
  -24.1740  -36.7580   23.0660 C   0  0  0  0  0  1  0  0  0  0  0  0
  -25.4150  -36.3500   23.8760 C   0  0  0  0  0  3  0  0  0  0  0  0
  -27.5540  -37.2270   24.7050 C   0  0  0  0  0  1  0  0  0  0  0  0
  -26.4490  -37.4030   23.7660 N   0  0  0  0  0  0  0  0  0  0  0  0
  -26.0430  -38.3210   23.9240 H   0  0  0  0  0  0  0  0  0  0  0  0
  -26.3940  -31.7410   25.1230 C   0  0  1  0  0  0  0  0  0  0  0  0
  -25.3050  -31.5080   26.1960 C   0  0  0  0  0  1  0  0  0  0  0  0
  -26.9720  -30.3600   24.7330 C   0  0  0  0  0  1  0  0  0  0  0  0
  -27.5480  -32.5350   25.7810 C   0  0  0  0  0  1  0  0  0  0  0  0
  1  6  1  0
  2  1  1  0
  2  3  1  0
  3  5  1  0
  5  4  1  0
  5 54  1  0
  6 11  1  0
  6  4  1  0
  7  1  2  0
  9  8  1  0
 10 14  1  0
 10  8  2  0
 11 10  1  0
 12  9  2  0
 13 11  2  0
 13 12  1  0
 15 13  1  0
 16 24  1  0
 17 22  1  0
 18 19  1  0
 18 17  1  0
 20 19  1  0
 20 29  1  0
 20 21  1  0
 22 16  1  0
 22 21  1  0
 23 16  2  0
 24 12  1  0
 25 24  1  0
 26 27  2  0
 27 46  1  0
 28 27  1  0
 28 31  1  0
 29 26  1  0
 29 30  1  0
 30 28  2  0
 31 32  1  0
 32 33  2  0
 34 37  1  0
 34 33  1  0
 35 34  2  0
 36 35  1  0
 36 31  2  0
 37 38  1  0
 38 39  1  0
 39 40  2  0
 41 40  1  0
 41 45  1  0
 42 41  2  0
 43 38  2  0
 43 42  1  0
 44 43  1  0
 46 47  1  0
 47 50  1  0
 47 49  1  0
 48 46  2  0
 51 52  1  0
 51 26  1  0
 53 51  1  0
 55 57  1  0
 55 54  1  0
 56 67  2  0
 57 62  1  0
 58 66  1  0
 58 68  1  0
 59 65  1  0
 59 61  1  0
 60 66  1  0
 61 60  1  0
 62 61  2  0
 63 57  2  0
 64 63  1  0
 64 59  2  0
 65 58  1  0
 66 56  1  0
 68 70  2  0
 69 68  1  0
 71 69  1  0
 72 81  2  0
 72 77  1  0
 73 69  1  0
 73 77  1  0
 74 73  1  0
 75 76  1  0
 75 74  1  0
 76 72  1  0
 77 78  2  0
 78 79  1  0
 80 79  2  0
 81 80  1  0
 82 56  1  0
 82 83  1  0
 82 92  1  0
 83 86  1  0
 84 88  1  0
 84 83  1  0
 85 84  2  0
 88 87  1  0
 90 88  1  0
 90 91  1  0
 90 89  1  0
 92 95  1  1
 92 93  1  0
 94 92  1  0
M  ISO  4  16 100  24 100  54 101  55 101
M  END
>  <TORSDO>  (50) 
F 18

>  <SCORE>  (50) 
-15.011

>  <name>  (50) 
49

>  <ligand_id>  (50) 
49

>  <original_smiles>  (50) 
[H]c1c([H])c([H])c2c(c1[H])C([H])([H])C([H])([H])C([H])([H])C2([H])N([H])C(=O)C1([H])N(C(=O)C([H])(N([H])C(=O)C([H])(N([H])C([H])([H])[H])C([H])([H])[H])C(C([H])([H])[H])(C([H])([H])[H])C([H])([H])[H])C([H])([H])c2c([H])c(OC([H])([H])C3([H])C([H])([H])N(c4c(F)c(N([H])C(=O)N5C([H])([H])C([H])([H])C([H])([H])C([H])(n6nc(-c7c([H])c([H])c(Oc8c([H])c([H])c(F)c([H])c8F)c([H])c7[H])c(C(=O)N([H])[H])c6N([H])[H])C5([H])[H])c([H])c([H])c4C([H])([H])[H])C(=O)C([H])([H])C3([H])[H])c([H])c([H])c2C1([H])[H]

>  <smiles>  (50) 
[H]c1c([H])c([H])c2c(c1[H])C([H])([H])C([H])([H])C([H])([H])C2([H])N([H])C(=O)C1([H])N(C(=O)C([H])(N([H])C(=O)C([H])(N([H])C([H])([H])[H])C([H])([H])[H])C(C([H])([H])[H])(C([H])([H])[H])C([H])([H])[H])C([H])([H])c2c([H])c(OC([H])([H])C3([H])C([H])([H])N(c4c(F)c(N([H])C(=O)N5C([H])([H])C([H])([H])C([H])([H])C([H])(n6nc(-c7c([H])c([H])c(Oc8c([H])c([H])c(F)c([H])c8F)c([H])c7[H])c(C(=O)N([H])[H])c6N([H])[H])C5([H])[H])c([H])c([H])c4C([H])([H])[H])C(=O)C([H])([H])C3([H])[H])c([H])c([H])c2C1([H])[H]

$$$$
50:0:0
     RDKit          3D

 98106  0  0  1  0  0  0  0  0999 V2000
  -29.0550  -20.6070   20.6020 C   0  0  0  0  0  0  0  0  0  0  0  0
  -27.7520  -20.4100   20.8080 N   0  0  0  0  0  4  0  0  0  0  0  0
  -29.4600  -21.8630   20.2890 N   0  0  0  0  0  0  0  0  0  0  0  0
  -27.4490  -19.4550   20.9490 H   0  0  0  0  0  0  0  0  0  0  0  0
  -27.0590  -21.0980   20.5710 H   0  0  0  0  0  0  0  0  0  0  0  0
  -30.4600  -21.9850   20.2030 H   0  0  0  0  0  0  0  0  0  0  0  0
  -32.2760  -18.7330   21.3390 C   0  0  0  0  0  3  0  0  0  0  0  0
  -31.3480  -19.7730   21.1380 C   0  0  0  0  0  3  0  0  0  0  0  0
  -31.8840  -17.3910   21.1820 C   0  0  0  0  0  3  0  0  0  0  0  0
  -30.0140  -19.4880   20.7610 C   0  0  0  0  0  0  0  0  0  0  0  0
  -30.5560  -17.0730   20.8100 C   0  0  0  0  0  0  0  0  0  0  0  0
  -29.6280  -18.1230   20.6020 C   0  0  0  0  0  0  0  0  0  0  0  0
  -28.3530  -17.7960   20.2680 F   0  0  0  0  0  0  0  0  0  0  0  0
  -30.7500  -14.7020   20.0960 C   0  0  0  0  0  0  0  0  0  0  0  0
  -30.3830  -12.5370   18.9730 C   0  0  0  0  0  2  0  0  0  0  0  0
  -29.3810  -12.7200   17.8140 C   0  0  0  0  0  2  0  0  0  0  0  0
  -27.9320  -12.5770   18.3240 C   0  0  0  0  0  2  0  0  0  0  0  0
  -27.6540  -13.4320   19.5890 C   0  0  0  0  0  3  0  0  0  0  0  0
  -28.7660  -13.2360   20.6450 C   0  0  0  0  0  2  0  0  0  0  0  0
  -30.0580  -13.5350   20.0040 N   0  0  0  0  0  0  0  0  0  0  0  0
  -31.8410  -14.8680   19.5460 O   0  0  0  0  0  0  0  0  0  0  0  0
  -30.1070  -15.7200   20.6970 N   0  0  0  0  0  0  0  0  0  0  0  0
  -29.1530  -15.5440   20.9690 H   0  0  0  0  0  0  0  0  0  0  0  0
  -25.3070  -14.0360   20.4540 C   0  0  0  0  0  0  0  0  0  0  0  0
  -24.2550  -13.2600   20.8600 C   0  0  0  0  0  0  0  0  0  0  0  0
  -24.7010  -11.9070   20.7620 C   0  0  0  0  0  0  0  0  0  0  0  0
  -26.3290  -13.1550   20.1390 N   0  0  0  0  0  0  0  0  0  0  0  0
  -25.9700  -11.8670   20.3800 N   0  0  0  0  0  0  0  0  0  0  0  0
  -23.9750  -10.6450   20.9540 C   0  0  0  0  0  0  0  0  0  0  0  0
  -24.4370   -9.6560   21.8500 C   0  0  0  0  0  3  0  0  0  0  0  0
  -23.7120   -8.4580   22.0310 C   0  0  0  0  0  3  0  0  0  0  0  0
  -22.5100   -8.2410   21.3170 C   0  0  0  0  0  0  0  0  0  0  0  0
  -22.0670   -9.2190   20.4080 C   0  0  0  0  0  3  0  0  0  0  0  0
  -22.7930  -10.4070   20.2250 C   0  0  0  0  0  3  0  0  0  0  0  0
  -21.7530   -7.0980   21.4090 O   0  0  0  0  0  0  0  0  0  0  0  0
  -21.7280   -6.3430   22.5540 C   0  0  0  0  0  0  0  0  0  0  0  0
  -21.3100   -6.8780   23.7920 C   0  0  0  0  0  3  0  0  0  0  0  0
  -21.2340   -6.0480   24.9280 C   0  0  0  0  0  3  0  0  0  0  0  0
  -21.5640   -4.6840   24.8280 C   0  0  0  0  0  0  0  0  0  0  0  0
  -21.9750   -4.1480   23.5950 C   0  0  0  0  0  3  0  0  0  0  0  0
  -22.0530   -4.9750   22.4610 C   0  0  0  0  0  0  0  0  0  0  0  0
  -22.4290   -4.4480   21.2710 F   0  0  0  0  0  0  0  0  0  0  0  0
  -21.4830   -3.8840   25.9170 F   0  0  0  0  0  0  0  0  0  0  0  0
  -22.8790  -13.7400   21.2260 C   0  0  0  0  0  0  0  0  0  0  0  0
  -22.1980  -13.0260   22.1150 N   0  0  0  0  0  0  0  0  0  0  0  0
  -22.4200  -14.7820   20.7610 O   0  0  0  0  0  0  0  0  0  0  0  0
  -22.5830  -12.1810   22.5130 H   0  0  0  0  0  0  0  0  0  0  0  0
  -21.2780  -13.3280   22.4040 H   0  0  0  0  0  0  0  0  0  0  0  0
  -25.4760  -15.4090   20.3060 N   0  0  0  0  0  0  0  0  0  0  0  0
  -24.7190  -16.0660   20.4720 H   0  0  0  0  0  0  0  0  0  0  0  0
  -26.3090  -15.8550   19.9430 H   0  0  0  0  0  0  0  0  0  0  0  0
  -28.6500  -23.1120   20.3290 C   0  0  0  0  0  3  0  0  0  0  0  0
  -28.5140  -23.5580   21.7980 C   0  0  0  0  0  0  0  0  0  0  0  0
  -27.1110  -23.7830   22.3410 C   0  0  0  0  0  1  0  0  0  0  0  0
  -29.4870  -23.6900   22.5420 O   0  0  0  0  0  0  0  0  0  0  0  0
  -29.2400  -24.2540   19.4410 C   0  0  0  0  0  2  0  0  0  0  0  0
  -28.2350  -25.4110   19.1390 C   0  0  0  0  0  2  0  0  0  0  0  0
  -28.3930  -26.8330   19.2880 O   0  0  0  0  0  0  0  0  0  0  0  0
  -24.6340  -31.6190   23.0030 C   0  0  0  0  0  0  0  0  0  0  0  0
  -27.2110  -27.5530   19.3810 C   0  0  0  0  0  0  0  0  0  0  0  0
  -23.3780  -30.3460   21.2970 C   0  0  0  0  0  3  0  0  0  0  0  0
  -24.7880  -28.9950   19.6580 C   0  0  0  0  0  0  0  0  0  0  0  0
  -25.8840  -30.7870   21.0130 C   0  0  0  0  0  2  0  0  0  0  0  0
  -25.9660  -29.4890   20.2330 C   0  0  0  0  0  0  0  0  0  0  0  0
  -27.1810  -28.7800   20.0860 C   0  0  0  0  0  3  0  0  0  0  0  0
  -26.0110  -27.0760   18.8030 C   0  0  0  0  0  3  0  0  0  0  0  0
  -24.8050  -27.7870   18.9390 C   0  0  0  0  0  3  0  0  0  0  0  0
  -23.5320  -29.8120   19.8490 C   0  0  0  0  0  2  0  0  0  0  0  0
  -24.6530  -30.9260   21.8300 N   0  0  0  0  0  0  0  0  0  0  0  0
  -23.5750  -31.8100   23.6160 O   0  0  0  0  0  0  0  0  0  0  0  0
  -22.8010  -29.2180   22.1840 C   0  0  0  0  0  0  0  0  0  0  0  0
  -21.4780  -29.0060   22.0930 N   0  0  0  0  0  0  0  0  0  0  0  0
  -23.5370  -28.5450   22.9080 O   0  0  0  0  0  0  0  0  0  0  0  0
  -20.9430  -29.6100   21.4850 H   0  0  0  0  0  0  0  0  0  0  0  0
  -18.1640  -27.6590   22.6120 C   0  0  0  0  0  0  0  0  0  0  0  0
  -20.7220  -27.9750   22.8050 C   0  0  0  0  0  3  0  0  0  0  0  0
  -20.8410  -26.6060   22.0990 C   0  0  0  0  0  2  0  0  0  0  0  0
  -19.7070  -26.3370   21.1030 C   0  0  0  0  0  2  0  0  0  0  0  0
  -18.3500  -26.3800   21.8120 C   0  0  0  0  0  2  0  0  0  0  0  0
  -19.2770  -28.4160   23.0650 C   0  0  0  0  0  0  0  0  0  0  0  0
  -19.0480  -29.6150   23.7750 C   0  0  0  0  0  3  0  0  0  0  0  0
  -17.7390  -30.0580   24.0360 C   0  0  0  0  0  3  0  0  0  0  0  0
  -16.6400  -29.2960   23.6000 C   0  0  0  0  0  3  0  0  0  0  0  0
  -16.8540  -28.0990   22.8940 C   0  0  0  0  0  3  0  0  0  0  0  0
  -25.9350  -32.2230   23.6160 C   0  0  0  0  0  3  0  0  0  0  0  0
  -25.6220  -33.5880   24.0600 N   0  0  0  0  0  0  0  0  0  0  0  0
  -25.8880  -34.6960   23.3560 C   0  0  0  0  0  0  0  0  0  0  0  0
  -26.4970  -34.6770   22.2810 O   0  0  0  0  0  0  0  0  0  0  0  0
  -25.0780  -33.6760   24.9060 H   0  0  0  0  0  0  0  0  0  0  0  0
  -24.0980  -36.4570   23.2350 C   0  0  0  0  0  1  0  0  0  0  0  0
  -25.4030  -36.0390   23.9330 C   0  0  0  0  0  3  0  0  0  0  0  0
  -27.5660  -36.9310   24.6750 C   0  0  0  0  0  1  0  0  0  0  0  0
  -26.4000  -37.1240   23.8170 N   0  0  0  0  0  0  0  0  0  0  0  0
  -25.9840  -38.0230   24.0440 H   0  0  0  0  0  0  0  0  0  0  0  0
  -26.5170  -31.3680   24.8080 C   0  0  1  0  0  0  0  0  0  0  0  0
  -25.4770  -31.0340   25.9040 C   0  0  0  0  0  1  0  0  0  0  0  0
  -27.0960  -30.0330   24.2870 C   0  0  0  0  0  1  0  0  0  0  0  0
  -27.6890  -32.1280   25.4730 C   0  0  0  0  0  1  0  0  0  0  0  0
  1 10  1  0
  1  2  2  0
  2  4  1  0
  3 52  1  0
  3  1  1  0
  5  2  1  0
  6  3  1  0
  8  7  2  0
  9  7  1  0
 10  8  1  0
 11  9  2  0
 12 10  2  0
 12 11  1  0
 13 12  1  0
 14 22  1  0
 15 20  1  0
 16 17  1  0
 16 15  1  0
 18 17  1  0
 18 27  1  0
 18 19  1  0
 20 14  1  0
 20 19  1  0
 21 14  2  0
 22 11  1  0
 22 23  1  0
 24 25  2  0
 25 44  1  0
 26 25  1  0
 26 29  1  0
 27 28  1  0
 27 24  1  0
 28 26  2  0
 29 30  1  0
 30 31  2  0
 32 35  1  0
 32 31  1  0
 33 32  2  0
 34 33  1  0
 34 29  2  0
 35 36  1  0
 36 37  1  0
 37 38  2  0
 39 38  1  0
 39 43  1  0
 40 39  2  0
 41 36  2  0
 41 40  1  0
 42 41  1  0
 44 45  1  0
 45 48  1  0
 45 47  1  0
 46 44  2  0
 49 24  1  0
 49 50  1  0
 51 49  1  0
 52 56  1  0
 52 53  1  0
 53 54  1  0
 53 55  2  0
 57 58  1  0
 57 56  1  0
 58 60  1  0
 59 70  2  0
 60 65  1  0
 61 69  1  0
 61 71  1  0
 62 68  1  0
 62 64  1  0
 63 69  1  0
 64 63  1  0
 65 64  2  0
 66 67  1  0
 66 60  2  0
 67 62  2  0
 68 61  1  0
 69 59  1  0
 71 73  2  0
 72 71  1  0
 74 72  1  0
 75 84  2  0
 75 80  1  0
 76 72  1  0
 76 80  1  0
 77 76  1  0
 78 79  1  0
 78 77  1  0
 79 75  1  0
 80 81  2  0
 81 82  1  0
 83 82  2  0
 84 83  1  0
 85 59  1  0
 85 86  1  0
 85 95  1  0
 86 89  1  0
 87 91  1  0
 87 86  1  0
 88 87  2  0
 91 90  1  0
 93 91  1  0
 93 94  1  0
 93 92  1  0
 95 98  1  1
 95 96  1  0
 97 95  1  0
M  ISO  4  14 100  22 100  57 101  58 101
M  END
>  <TORSDO>  (51) 
F 21

>  <SCORE>  (51) 
-12.661

>  <name>  (51) 
50

>  <ligand_id>  (51) 
50

>  <original_smiles>  (51) 
[H]c1c([H])c(C(N([H])[H])=[N+]([H])C([H])(C(=O)C([H])([H])[H])C([H])([H])C([H])([H])Oc2c([H])c([H])c3c(c2[H])C([H])([H])N(C(=O)C([H])(N([H])C(=O)C([H])(N([H])C([H])([H])[H])C([H])([H])[H])C(C([H])([H])[H])(C([H])([H])[H])C([H])([H])[H])C([H])(C(=O)N([H])C2([H])c4c([H])c([H])c([H])c([H])c4C([H])([H])C([H])([H])C2([H])[H])C3([H])[H])c(F)c(N([H])C(=O)N2C([H])([H])C([H])([H])C([H])([H])C([H])(n3nc(-c4c([H])c([H])c(Oc5c([H])c([H])c(F)c([H])c5F)c([H])c4[H])c(C(=O)N([H])[H])c3N([H])[H])C2([H])[H])c1[H]

>  <smiles>  (51) 
[H]c1c([H])c(C(N([H])[H])=[N+]([H])C([H])(C(=O)C([H])([H])[H])C([H])([H])C([H])([H])Oc2c([H])c([H])c3c(c2[H])C([H])([H])N(C(=O)C([H])(N([H])C(=O)C([H])(N([H])C([H])([H])[H])C([H])([H])[H])C(C([H])([H])[H])(C([H])([H])[H])C([H])([H])[H])C([H])(C(=O)N([H])C2([H])c4c([H])c([H])c([H])c([H])c4C([H])([H])C([H])([H])C2([H])[H])C3([H])[H])c(F)c(N([H])C(=O)N2C([H])([H])C([H])([H])C([H])([H])C([H])(n3nc(-c4c([H])c([H])c(Oc5c([H])c([H])c(F)c([H])c5F)c([H])c4[H])c(C(=O)N([H])[H])c3N([H])[H])C2([H])[H])c1[H]

$$$$
51:0:0
     RDKit          3D

 96105  0  0  1  0  0  0  0  0999 V2000
  -31.5770  -22.8080   19.3080 C   0  0  0  0  0  3  0  0  0  0  0  0
  -30.6790  -23.7880   19.5720 C   0  0  0  0  0  0  0  0  0  0  0  0
  -31.3370  -21.3650   19.3760 C   0  0  0  0  0  0  0  0  0  0  0  0
  -29.2820  -21.9790   20.6300 C   0  0  0  0  0  2  0  0  0  0  0  0
  -29.2450  -23.4420   19.9500 C   0  0  0  0  0  3  0  0  0  0  0  0
  -30.2890  -20.9340   20.1380 N   0  0  0  0  0  0  0  0  0  0  0  0
  -32.0860  -20.5910   18.7750 O   0  0  0  0  0  0  0  0  0  0  0  0
  -30.3860  -19.4340   22.1260 C   0  0  0  0  0  3  0  0  0  0  0  0
  -30.7100  -16.9990   22.0390 C   0  0  0  0  0  3  0  0  0  0  0  0
  -30.4810  -18.2830   19.9860 C   0  0  0  0  0  3  0  0  0  0  0  0
  -30.5650  -18.1920   22.7750 C   0  0  0  0  0  0  0  0  0  0  0  0
  -30.3600  -19.5480   20.7140 C   0  0  0  0  0  0  0  0  0  0  0  0
  -30.6770  -16.9930   20.6310 C   0  0  0  0  0  0  0  0  0  0  0  0
  -30.5750  -18.1400   24.2930 C   0  0  0  0  0  1  0  0  0  0  0  0
  -31.3550  -14.5220   20.0150 C   0  0  0  0  0  0  0  0  0  0  0  0
  -30.9870  -12.2860   18.9480 C   0  0  0  0  0  2  0  0  0  0  0  0
  -30.0130  -12.4610   17.7610 C   0  0  0  0  0  2  0  0  0  0  0  0
  -28.5450  -12.4060   18.2370 C   0  0  0  0  0  2  0  0  0  0  0  0
  -28.2830  -13.2930   19.4840 C   0  0  0  0  0  3  0  0  0  0  0  0
  -29.3630  -13.0760   20.5650 C   0  0  0  0  0  2  0  0  0  0  0  0
  -30.6610  -13.3390   19.9310 N   0  0  0  0  0  0  0  0  0  0  0  0
  -32.5620  -14.5650   19.7570 O   0  0  0  0  0  0  0  0  0  0  0  0
  -30.5720  -15.6640   20.0010 N   0  0  0  0  0  0  0  0  0  0  0  0
  -29.6080  -15.3960   19.8740 H   0  0  0  0  0  0  0  0  0  0  0  0
  -25.9770  -14.0820   20.2860 C   0  0  0  0  0  0  0  0  0  0  0  0
  -24.8590  -13.3980   20.6750 C   0  0  0  0  0  0  0  0  0  0  0  0
  -25.2010  -12.0130   20.6150 C   0  0  0  0  0  0  0  0  0  0  0  0
  -26.9330  -13.1180   20.0090 N   0  0  0  0  0  0  0  0  0  0  0  0
  -26.4750  -11.8670   20.2690 N   0  0  0  0  0  0  0  0  0  0  0  0
  -24.3730  -10.8160   20.8090 C   0  0  0  0  0  0  0  0  0  0  0  0
  -24.7380   -9.8040   21.7230 C   0  0  0  0  0  3  0  0  0  0  0  0
  -23.9150   -8.6720   21.9040 C   0  0  0  0  0  3  0  0  0  0  0  0
  -22.7130   -8.5440   21.1690 C   0  0  0  0  0  0  0  0  0  0  0  0
  -22.3650   -9.5420   20.2420 C   0  0  0  0  0  3  0  0  0  0  0  0
  -23.1890  -10.6660   20.0600 C   0  0  0  0  0  3  0  0  0  0  0  0
  -21.8640   -7.4670   21.2620 O   0  0  0  0  0  0  0  0  0  0  0  0
  -21.7550   -6.7340   22.4150 C   0  0  0  0  0  0  0  0  0  0  0  0
  -21.3920   -7.3280   23.6440 C   0  0  0  0  0  3  0  0  0  0  0  0
  -21.2230   -6.5270   24.7910 C   0  0  0  0  0  3  0  0  0  0  0  0
  -21.4060   -5.1340   24.7100 C   0  0  0  0  0  0  0  0  0  0  0  0
  -21.7600   -4.5400   23.4880 C   0  0  0  0  0  3  0  0  0  0  0  0
  -21.9320   -5.3370   22.3430 C   0  0  0  0  0  0  0  0  0  0  0  0
  -22.2550   -4.7580   21.1620 F   0  0  0  0  0  0  0  0  0  0  0  0
  -21.2350   -4.3630   25.8090 F   0  0  0  0  0  0  0  0  0  0  0  0
  -23.5150  -13.9910   20.9900 C   0  0  0  0  0  0  0  0  0  0  0  0
  -22.7620  -13.3630   21.8860 N   0  0  0  0  0  0  0  0  0  0  0  0
  -23.1450  -15.0450   20.4750 O   0  0  0  0  0  0  0  0  0  0  0  0
  -23.0710  -12.5070   22.3210 H   0  0  0  0  0  0  0  0  0  0  0  0
  -21.8620  -13.7450   22.1410 H   0  0  0  0  0  0  0  0  0  0  0  0
  -26.2500  -15.4370   20.1210 N   0  0  0  0  0  0  0  0  0  0  0  0
  -25.5360  -16.1440   20.2640 H   0  0  0  0  0  0  0  0  0  0  0  0
  -27.1080  -15.8200   19.7470 H   0  0  0  0  0  0  0  0  0  0  0  0
  -31.8070  -25.6260   18.3650 C   0  0  0  0  0  2  0  0  0  0  0  0
  -31.1020  -25.1710   19.4140 C   0  0  0  0  0  3  0  0  0  0  0  0
  -28.4170  -24.6170   20.7230 C   0  0  0  0  0  2  0  0  0  0  0  0
  -28.6120  -26.0900   20.4980 O   0  0  0  0  0  0  0  0  0  0  0  0
  -24.7370  -31.6100   23.2340 C   0  0  0  0  0  0  0  0  0  0  0  0
  -27.4930  -26.9470   20.4350 C   0  0  0  0  0  0  0  0  0  0  0  0
  -23.6180  -30.1780   21.5620 C   0  0  0  0  0  3  0  0  0  0  0  0
  -25.1350  -28.5790   20.2610 C   0  0  0  0  0  0  0  0  0  0  0  0
  -26.1660  -30.4760   21.5110 C   0  0  0  0  0  2  0  0  0  0  0  0
  -26.2770  -29.0780   20.9020 C   0  0  0  0  0  0  0  0  0  0  0  0
  -27.4610  -28.2770   20.9700 C   0  0  0  0  0  3  0  0  0  0  0  0
  -26.3260  -26.5010   19.7770 C   0  0  0  0  0  3  0  0  0  0  0  0
  -25.1630  -27.2950   19.6900 C   0  0  0  0  0  3  0  0  0  0  0  0
  -23.9080  -29.4670   20.2140 C   0  0  0  0  0  2  0  0  0  0  0  0
  -24.8570  -30.7750   22.1590 N   0  0  0  0  0  0  0  0  0  0  0  0
  -23.6270  -31.9040   23.7030 O   0  0  0  0  0  0  0  0  0  0  0  0
  -22.8960  -29.1900   22.5110 C   0  0  0  0  0  0  0  0  0  0  0  0
  -21.5720  -29.0420   22.3380 N   0  0  0  0  0  0  0  0  0  0  0  0
  -23.5290  -28.5560   23.3600 O   0  0  0  0  0  0  0  0  0  0  0  0
  -21.1230  -29.6050   21.6310 H   0  0  0  0  0  0  0  0  0  0  0  0
  -18.1520  -27.9330   22.7410 C   0  0  0  0  0  0  0  0  0  0  0  0
  -20.7070  -28.1280   23.0870 C   0  0  0  0  0  3  0  0  0  0  0  0
  -20.7890  -26.6930   22.5190 C   0  0  0  0  0  2  0  0  0  0  0  0
  -19.7110  -26.3930   21.4730 C   0  0  0  0  0  2  0  0  0  0  0  0
  -18.3150  -26.5770   22.0740 C   0  0  0  0  0  2  0  0  0  0  0  0
  -19.2760  -28.6680   23.2020 C   0  0  0  0  0  0  0  0  0  0  0  0
  -19.0750  -29.9370   23.7870 C   0  0  0  0  0  3  0  0  0  0  0  0
  -17.7790  -30.4720   23.9140 C   0  0  0  0  0  3  0  0  0  0  0  0
  -16.6680  -29.7370   23.4680 C   0  0  0  0  0  3  0  0  0  0  0  0
  -16.8550  -28.4680   22.8880 C   0  0  0  0  0  3  0  0  0  0  0  0
  -25.9870  -32.2490   23.9130 C   0  0  0  0  0  3  0  0  0  0  0  0
  -26.4330  -31.4970   25.2280 C   0  0  1  0  0  0  0  0  0  0  0  0
  -25.2800  -31.2760   26.2350 C   0  0  0  0  0  1  0  0  0  0  0  0
  -27.0370  -30.1150   24.8890 C   0  0  0  0  0  1  0  0  0  0  0  0
  -27.5440  -32.3050   25.9400 C   0  0  0  0  0  1  0  0  0  0  0  0
  -25.6640  -33.6540   24.2060 N   0  0  0  0  0  0  0  0  0  0  0  0
  -26.0560  -34.6970   23.4620 C   0  0  0  0  0  0  0  0  0  0  0  0
  -26.7950  -34.5780   22.4800 O   0  0  0  0  0  0  0  0  0  0  0  0
  -25.0170  -33.8210   24.9620 H   0  0  0  0  0  0  0  0  0  0  0  0
  -24.3550  -36.4880   22.9940 C   0  0  0  0  0  1  0  0  0  0  0  0
  -25.5510  -36.0930   23.8750 C   0  0  0  0  0  3  0  0  0  0  0  0
  -27.6430  -36.9850   24.7990 C   0  0  0  0  0  1  0  0  0  0  0  0
  -26.5930  -37.1400   23.7980 N   0  0  0  0  0  0  0  0  0  0  0  0
  -26.1840  -38.0650   23.9110 H   0  0  0  0  0  0  0  0  0  0  0  0
  1  3  1  0
  1  2  2  0
  2  5  1  0
  3  6  1  0
  5  4  1  0
  5 55  1  0
  6  4  1  0
  6 12  1  0
  7  3  2  0
  8 11  1  0
  9 11  2  0
 10 13  2  0
 10 12  1  0
 11 14  1  0
 12  8  2  0
 13  9  1  0
 16 21  1  0
 17 18  1  0
 17 16  1  0
 19 18  1  0
 19 28  1  0
 19 20  1  0
 21 15  1  0
 21 20  1  0
 22 15  2  0
 23 15  1  0
 23 13  1  0
 24 23  1  0
 25 26  2  0
 26 45  1  0
 27 26  1  0
 27 30  1  0
 28 29  1  0
 28 25  1  0
 29 27  2  0
 30 31  1  0
 31 32  2  0
 33 36  1  0
 33 32  1  0
 34 33  2  0
 35 34  1  0
 35 30  2  0
 36 37  1  0
 37 38  1  0
 38 39  2  0
 40 39  1  0
 40 44  1  0
 41 40  2  0
 42 37  2  0
 42 41  1  0
 43 42  1  0
 45 46  1  0
 46 49  1  0
 46 48  1  0
 47 45  2  0
 50 51  1  0
 50 25  1  0
 52 50  1  0
 53 54  2  0
 54  2  1  0
 56 55  1  0
 57 68  2  0
 58 56  1  0
 58 63  1  0
 59 67  1  0
 59 69  1  0
 60 62  1  0
 61 67  1  0
 62 63  2  0
 62 61  1  0
 64 58  2  0
 65 64  1  0
 65 60  2  0
 66 60  1  0
 66 59  1  0
 67 57  1  0
 69 71  2  0
 70 69  1  0
 72 70  1  0
 73 82  2  0
 73 78  1  0
 74 70  1  0
 74 78  1  0
 75 74  1  0
 76 77  1  0
 76 75  1  0
 77 73  1  0
 78 79  2  0
 79 80  1  0
 81 80  2  0
 82 81  1  0
 83 57  1  0
 83 88  1  0
 83 84  1  0
 84 87  1  1
 84 85  1  0
 86 84  1  0
 88 91  1  0
 89 93  1  0
 89 88  1  0
 90 89  2  0
 93 92  1  0
 95 93  1  0
 95 96  1  0
 95 94  1  0
M  ISO  4  15 100  23 100  55 101  56 101
M  END
>  <TORSDO>  (52) 
F 19

>  <SCORE>  (52) 
-12.187

>  <name>  (52) 
51

>  <ligand_id>  (52) 
51

>  <original_smiles>  (52) 
[H]C([H])=C([H])C1=C([H])C(=O)N(c2c([H])c(N([H])C(=O)N3C([H])([H])C([H])([H])C([H])([H])C([H])(n4nc(-c5c([H])c([H])c(Oc6c([H])c([H])c(F)c([H])c6F)c([H])c5[H])c(C(=O)N([H])[H])c4N([H])[H])C3([H])[H])c([H])c(C([H])([H])[H])c2[H])C([H])([H])C1([H])C([H])([H])Oc1c([H])c([H])c2c(c1[H])C([H])([H])N(C(=O)C([H])(N([H])C(=O)C([H])(N([H])C([H])([H])[H])C([H])([H])[H])C(C([H])([H])[H])(C([H])([H])[H])C([H])([H])[H])C([H])(C(=O)N([H])C1([H])c3c([H])c([H])c([H])c([H])c3C([H])([H])C([H])([H])C1([H])[H])C2([H])[H]

>  <smiles>  (52) 
[H]C([H])=C([H])C1=C([H])C(=O)N(c2c([H])c(N([H])C(=O)N3C([H])([H])C([H])([H])C([H])([H])C([H])(n4nc(-c5c([H])c([H])c(Oc6c([H])c([H])c(F)c([H])c6F)c([H])c5[H])c(C(=O)N([H])[H])c4N([H])[H])C3([H])[H])c([H])c(C([H])([H])[H])c2[H])C([H])([H])C1([H])C([H])([H])Oc1c([H])c([H])c2c(c1[H])C([H])([H])N(C(=O)C([H])(N([H])C(=O)C([H])(N([H])C([H])([H])[H])C([H])([H])[H])C(C([H])([H])[H])(C([H])([H])[H])C([H])([H])[H])C([H])(C(=O)N([H])C1([H])c3c([H])c([H])c([H])c([H])c3C([H])([H])C([H])([H])C1([H])[H])C2([H])[H]

$$$$
52:0:0
     RDKit          3D

 95103  0  0  1  0  0  0  0  0999 V2000
  -30.7620  -21.1810   20.6880 C   0  0  0  0  0  0  0  0  0  0  0  0
  -29.8640  -21.9450   20.0410 N   0  0  0  0  0  0  0  0  0  0  0  0
  -31.7870  -21.6540   21.1850 O   0  0  0  0  0  0  0  0  0  0  0  0
  -29.0390  -21.4680   19.7060 H   0  0  0  0  0  0  0  0  0  0  0  0
  -30.9630  -18.9770   21.9260 C   0  0  0  0  0  3  0  0  0  0  0  0
  -30.8140  -17.5750   22.0230 C   0  0  0  0  0  3  0  0  0  0  0  0
  -29.7220  -17.5520   19.8540 C   0  0  0  0  0  3  0  0  0  0  0  0
  -30.4890  -19.6920   20.7990 C   0  0  0  0  0  0  0  0  0  0  0  0
  -30.2070  -16.8460   20.9800 C   0  0  0  0  0  0  0  0  0  0  0  0
  -29.8620  -18.9570   19.7600 C   0  0  0  0  0  0  0  0  0  0  0  0
  -29.3920  -19.5840   18.6520 F   0  0  0  0  0  0  0  0  0  0  0  0
  -30.6650  -14.4810   20.4180 C   0  0  0  0  0  0  0  0  0  0  0  0
  -30.3480  -12.3480   19.2180 C   0  0  0  0  0  2  0  0  0  0  0  0
  -29.3870  -12.5850   18.0330 C   0  0  0  0  0  2  0  0  0  0  0  0
  -27.9180  -12.4450   18.4830 C   0  0  0  0  0  2  0  0  0  0  0  0
  -27.6060  -13.2550   19.7700 C   0  0  0  0  0  3  0  0  0  0  0  0
  -28.6750  -12.9920   20.8540 C   0  0  0  0  0  2  0  0  0  0  0  0
  -29.9960  -13.3030   20.2800 N   0  0  0  0  0  0  0  0  0  0  0  0
  -31.7590  -14.6990   19.8880 O   0  0  0  0  0  0  0  0  0  0  0  0
  -30.0130  -15.4380   21.1060 N   0  0  0  0  0  0  0  0  0  0  0  0
  -29.1660  -15.1400   21.5640 H   0  0  0  0  0  0  0  0  0  0  0  0
  -25.2130  -13.8630   20.5010 C   0  0  0  0  0  0  0  0  0  0  0  0
  -24.1470  -13.0900   20.8780 C   0  0  0  0  0  0  0  0  0  0  0  0
  -24.6070  -11.7390   20.8390 C   0  0  0  0  0  0  0  0  0  0  0  0
  -26.2550  -12.9820   20.2590 N   0  0  0  0  0  0  0  0  0  0  0  0
  -25.8940  -11.6990   20.5190 N   0  0  0  0  0  0  0  0  0  0  0  0
  -23.8820  -10.4770   21.0340 C   0  0  0  0  0  0  0  0  0  0  0  0
  -24.3270   -9.5050   21.9570 C   0  0  0  0  0  3  0  0  0  0  0  0
  -23.6030   -8.3060   22.1390 C   0  0  0  0  0  3  0  0  0  0  0  0
  -22.4210   -8.0720   21.4000 C   0  0  0  0  0  0  0  0  0  0  0  0
  -21.9930   -9.0330   20.4670 C   0  0  0  0  0  3  0  0  0  0  0  0
  -22.7180  -10.2230   20.2820 C   0  0  0  0  0  3  0  0  0  0  0  0
  -21.6670   -6.9270   21.4930 O   0  0  0  0  0  0  0  0  0  0  0  0
  -21.6390   -6.1740   22.6400 C   0  0  0  0  0  0  0  0  0  0  0  0
  -21.2330   -6.7180   23.8770 C   0  0  0  0  0  3  0  0  0  0  0  0
  -21.1520   -5.8920   25.0160 C   0  0  0  0  0  3  0  0  0  0  0  0
  -21.4670   -4.5230   24.9180 C   0  0  0  0  0  0  0  0  0  0  0  0
  -21.8680   -3.9790   23.6850 C   0  0  0  0  0  3  0  0  0  0  0  0
  -21.9510   -4.8020   22.5490 C   0  0  0  0  0  0  0  0  0  0  0  0
  -22.3150   -4.2690   21.3580 F   0  0  0  0  0  0  0  0  0  0  0  0
  -21.3830   -3.7290   26.0100 F   0  0  0  0  0  0  0  0  0  0  0  0
  -22.7530  -13.5680   21.1670 C   0  0  0  0  0  0  0  0  0  0  0  0
  -22.0340  -12.8700   22.0380 N   0  0  0  0  0  0  0  0  0  0  0  0
  -22.3100  -14.5970   20.6580 O   0  0  0  0  0  0  0  0  0  0  0  0
  -22.4040  -12.0380   22.4730 H   0  0  0  0  0  0  0  0  0  0  0  0
  -21.0990  -13.1730   22.2750 H   0  0  0  0  0  0  0  0  0  0  0  0
  -25.3780  -15.2340   20.3270 N   0  0  0  0  0  0  0  0  0  0  0  0
  -24.6170  -15.8920   20.4510 H   0  0  0  0  0  0  0  0  0  0  0  0
  -26.2310  -15.6720   20.0010 H   0  0  0  0  0  0  0  0  0  0  0  0
  -29.6460  -23.3110   18.0390 C   0  0  0  0  0  1  0  0  0  0  0  0
  -30.1180  -23.2990   19.5070 C   0  0  0  0  0  3  0  0  0  0  0  0
  -29.4720  -24.4400   20.3600 C   0  0  0  0  0  0  0  0  0  0  0  0
  -29.8710  -24.6710   21.5070 O   0  0  0  0  0  0  0  0  0  0  0  0
  -28.3080  -25.2950   19.7970 C   0  0  0  0  0  2  0  0  0  0  0  0
  -28.3800  -26.6750   20.2170 O   0  0  0  0  0  0  0  0  0  0  0  0
  -24.5840  -31.8920   23.2490 C   0  0  0  0  0  0  0  0  0  0  0  0
  -27.2110  -27.4190   20.1730 C   0  0  0  0  0  0  0  0  0  0  0  0
  -23.3740  -30.4920   21.6090 C   0  0  0  0  0  3  0  0  0  0  0  0
  -24.8210  -28.9530   20.1820 C   0  0  0  0  0  0  0  0  0  0  0  0
  -25.9030  -30.8370   21.4120 C   0  0  0  0  0  2  0  0  0  0  0  0
  -25.9820  -29.4650   20.7720 C   0  0  0  0  0  0  0  0  0  0  0  0
  -27.1780  -28.7060   20.7660 C   0  0  0  0  0  3  0  0  0  0  0  0
  -26.0270  -26.9330   19.5660 C   0  0  0  0  0  3  0  0  0  0  0  0
  -24.8400  -27.6870   19.5750 C   0  0  0  0  0  3  0  0  0  0  0  0
  -23.5800  -29.8150   20.2290 C   0  0  0  0  0  2  0  0  0  0  0  0
  -24.6380  -31.0890   22.1470 N   0  0  0  0  0  0  0  0  0  0  0  0
  -23.5030  -32.1680   23.7890 O   0  0  0  0  0  0  0  0  0  0  0  0
  -22.7200  -29.4720   22.5700 C   0  0  0  0  0  0  0  0  0  0  0  0
  -21.3960  -29.2920   22.4420 N   0  0  0  0  0  0  0  0  0  0  0  0
  -23.4020  -28.8480   23.3860 O   0  0  0  0  0  0  0  0  0  0  0  0
  -20.9070  -29.8480   21.7550 H   0  0  0  0  0  0  0  0  0  0  0  0
  -18.0170  -28.1090   22.9430 C   0  0  0  0  0  0  0  0  0  0  0  0
  -20.5760  -28.3570   23.2140 C   0  0  0  0  0  3  0  0  0  0  0  0
  -20.6740  -26.9260   22.6370 C   0  0  0  0  0  2  0  0  0  0  0  0
  -19.5690  -26.6070   21.6240 C   0  0  0  0  0  2  0  0  0  0  0  0
  -18.1890  -26.7580   22.2690 C   0  0  0  0  0  2  0  0  0  0  0  0
  -19.1390  -28.8670   23.3720 C   0  0  0  0  0  0  0  0  0  0  0  0
  -18.9260  -30.1310   23.9610 C   0  0  0  0  0  3  0  0  0  0  0  0
  -17.6230  -30.6380   24.1280 C   0  0  0  0  0  3  0  0  0  0  0  0
  -16.5150  -29.8770   23.7160 C   0  0  0  0  0  3  0  0  0  0  0  0
  -16.7140  -28.6140   23.1280 C   0  0  0  0  0  3  0  0  0  0  0  0
  -25.8720  -32.5200   23.8660 C   0  0  0  0  0  3  0  0  0  0  0  0
  -26.3890  -31.7510   25.1430 C   0  0  1  0  0  0  0  0  0  0  0  0
  -25.2980  -31.5180   26.2130 C   0  0  0  0  0  1  0  0  0  0  0  0
  -26.9690  -30.3720   24.7520 C   0  0  0  0  0  1  0  0  0  0  0  0
  -27.5420  -32.5460   25.8010 C   0  0  0  0  0  1  0  0  0  0  0  0
  -25.5670  -33.9200   24.1900 N   0  0  0  0  0  0  0  0  0  0  0  0
  -25.9040  -34.9690   23.4280 C   0  0  0  0  0  0  0  0  0  0  0  0
  -26.5740  -34.8610   22.3980 O   0  0  0  0  0  0  0  0  0  0  0  0
  -24.9720  -34.0790   24.9900 H   0  0  0  0  0  0  0  0  0  0  0  0
  -24.1830  -36.7670   23.0610 C   0  0  0  0  0  1  0  0  0  0  0  0
  -25.4180  -36.3600   23.8800 C   0  0  0  0  0  3  0  0  0  0  0  0
  -27.5530  -37.2370   24.7180 C   0  0  0  0  0  1  0  0  0  0  0  0
  -26.4550  -37.4100   23.7700 N   0  0  0  0  0  0  0  0  0  0  0  0
  -26.0520  -38.3310   23.9180 H   0  0  0  0  0  0  0  0  0  0  0  0
  1  8  1  0
  1  3  2  0
  2  1  1  0
  4  2  1  0
  5  6  1  0
  7  9  1  0
  8  5  2  0
  9 20  1  0
  9  6  2  0
 10  7  2  0
 10  8  1  0
 11 10  1  0
 12 20  1  0
 13 18  1  0
 14 15  1  0
 14 13  1  0
 16 15  1  0
 16 25  1  0
 16 17  1  0
 18 12  1  0
 18 17  1  0
 19 12  2  0
 20 21  1  0
 22 23  2  0
 23 42  1  0
 24 23  1  0
 24 27  1  0
 25 22  1  0
 25 26  1  0
 26 24  2  0
 27 28  1  0
 28 29  2  0
 30 33  1  0
 30 29  1  0
 31 30  2  0
 32 31  1  0
 32 27  2  0
 33 34  1  0
 34 35  1  0
 35 36  2  0
 37 36  1  0
 37 41  1  0
 38 37  2  0
 39 34  2  0
 39 38  1  0
 40 39  1  0
 42 43  1  0
 43 46  1  0
 43 45  1  0
 44 42  2  0
 47 48  1  0
 47 22  1  0
 49 47  1  0
 51 50  1  0
 51  2  1  0
 51 52  1  0
 52 53  2  0
 54 55  1  0
 54 52  1  0
 56 67  2  0
 57 55  1  0
 57 62  1  0
 58 66  1  0
 58 68  1  0
 59 65  1  0
 59 61  1  0
 60 66  1  0
 61 60  1  0
 62 61  2  0
 63 64  1  0
 63 57  2  0
 64 59  2  0
 65 58  1  0
 66 56  1  0
 68 70  2  0
 69 68  1  0
 71 69  1  0
 72 81  2  0
 72 77  1  0
 73 69  1  0
 73 77  1  0
 74 73  1  0
 75 76  1  0
 75 74  1  0
 76 72  1  0
 77 78  2  0
 78 79  1  0
 80 79  2  0
 81 80  1  0
 82 56  1  0
 82 87  1  0
 82 83  1  0
 83 86  1  1
 83 84  1  0
 85 83  1  0
 87 90  1  0
 88 92  1  0
 88 87  1  0
 89 88  2  0
 92 91  1  0
 94 92  1  0
 94 95  1  0
 94 93  1  0
M  ISO  4  12 100  20 100  54 101  55 101
M  END
>  <TORSDO>  (53) 
F 20

>  <SCORE>  (53) 
-14.218

>  <name>  (53) 
52

>  <ligand_id>  (53) 
52

>  <original_smiles>  (53) 
[H]c1c([H])c([H])c2c(c1[H])C([H])([H])C([H])([H])C([H])([H])C2([H])N([H])C(=O)C1([H])N(C(=O)C([H])(N([H])C(=O)C([H])(N([H])C([H])([H])[H])C([H])([H])[H])C(C([H])([H])[H])(C([H])([H])[H])C([H])([H])[H])C([H])([H])c2c([H])c(OC([H])([H])C(=O)C([H])(N([H])C(=O)c3c([H])c([H])c(N([H])C(=O)N4C([H])([H])C([H])([H])C([H])([H])C([H])(n5nc(-c6c([H])c([H])c(Oc7c([H])c([H])c(F)c([H])c7F)c([H])c6[H])c(C(=O)N([H])[H])c5N([H])[H])C4([H])[H])c([H])c3F)C([H])([H])[H])c([H])c([H])c2C1([H])[H]

>  <smiles>  (53) 
[H]c1c([H])c([H])c2c(c1[H])C([H])([H])C([H])([H])C([H])([H])C2([H])N([H])C(=O)C1([H])N(C(=O)C([H])(N([H])C(=O)C([H])(N([H])C([H])([H])[H])C([H])([H])[H])C(C([H])([H])[H])(C([H])([H])[H])C([H])([H])[H])C([H])([H])c2c([H])c(OC([H])([H])C(=O)C([H])(N([H])C(=O)c3c([H])c([H])c(N([H])C(=O)N4C([H])([H])C([H])([H])C([H])([H])C([H])(n5nc(-c6c([H])c([H])c(Oc7c([H])c([H])c(F)c([H])c7F)c([H])c6[H])c(C(=O)N([H])[H])c5N([H])[H])C4([H])[H])c([H])c3F)C([H])([H])[H])c([H])c([H])c2C1([H])[H]

$$$$
53:0:0
     RDKit          3D

 98107  0  0  1  0  0  0  0  0999 V2000
  -28.8860  -20.6130   20.7310 C   0  0  0  0  0  0  0  0  0  0  0  0
  -27.6820  -21.5120   21.0350 C   0  0  0  0  0  2  0  0  0  0  0  0
  -27.9160  -22.9780   20.6740 C   0  0  0  0  0  2  0  0  0  0  0  0
  -29.7030  -22.2430   19.0610 C   0  0  0  0  0  2  0  0  0  0  0  0
  -28.4220  -23.0870   19.2360 C   0  0  0  0  0  3  0  0  0  0  0  0
  -29.6660  -20.8810   19.6430 N   0  0  0  0  0  0  0  0  0  0  0  0
  -29.0840  -19.6620   21.4940 O   0  0  0  0  0  0  0  0  0  0  0  0
  -31.7600  -20.3480   18.4230 C   0  0  0  0  0  3  0  0  0  0  0  0
  -32.5030  -18.0380   18.1440 C   0  0  0  0  0  3  0  0  0  0  0  0
  -30.4370  -18.5250   19.3400 C   0  0  0  0  0  3  0  0  0  0  0  0
  -32.6950  -19.4170   17.9270 C   0  0  0  0  0  0  0  0  0  0  0  0
  -30.6200  -19.9190   19.1470 C   0  0  0  0  0  0  0  0  0  0  0  0
  -31.3660  -17.5830   18.8500 C   0  0  0  0  0  0  0  0  0  0  0  0
  -33.9180  -19.8920   17.1680 C   0  0  0  0  0  1  0  0  0  0  0  0
  -31.7780  -15.1270   18.6760 C   0  0  0  0  0  0  0  0  0  0  0  0
  -31.5940  -12.6790   18.4170 C   0  0  0  0  0  2  0  0  0  0  0  0
  -30.4870  -12.3370   17.4020 C   0  0  0  0  0  2  0  0  0  0  0  0
  -29.1090  -12.2720   18.0900 C   0  0  0  0  0  2  0  0  0  0  0  0
  -28.8290  -13.5080   18.9850 C   0  0  0  0  0  3  0  0  0  0  0  0
  -30.0330  -13.7890   19.9130 C   0  0  0  0  0  2  0  0  0  0  0  0
  -31.2330  -13.9470   19.0690 N   0  0  0  0  0  0  0  0  0  0  0  0
  -32.7330  -15.1990   17.8960 O   0  0  0  0  0  0  0  0  0  0  0  0
  -31.1420  -16.2120   19.1480 N   0  0  0  0  0  0  0  0  0  0  0  0
  -30.3200  -16.0050   19.6940 H   0  0  0  0  0  0  0  0  0  0  0  0
  -26.8070  -14.3120   20.3630 C   0  0  0  0  0  0  0  0  0  0  0  0
  -25.7210  -13.6470   20.8650 C   0  0  0  0  0  0  0  0  0  0  0  0
  -25.8970  -12.2760   20.5040 C   0  0  0  0  0  0  0  0  0  0  0  0
  -27.5870  -13.3510   19.7390 N   0  0  0  0  0  0  0  0  0  0  0  0
  -27.0530  -12.1100   19.8740 N   0  0  0  0  0  0  0  0  0  0  0  0
  -25.0050  -11.1210   20.6710 C   0  0  0  0  0  0  0  0  0  0  0  0
  -25.3560  -10.0310   21.4970 C   0  0  0  0  0  3  0  0  0  0  0  0
  -24.4750   -8.9400   21.6550 C   0  0  0  0  0  3  0  0  0  0  0  0
  -23.2280   -8.9330   20.9880 C   0  0  0  0  0  0  0  0  0  0  0  0
  -22.8930  -10.0100   20.1490 C   0  0  0  0  0  3  0  0  0  0  0  0
  -23.7730  -11.0940   19.9870 C   0  0  0  0  0  3  0  0  0  0  0  0
  -22.3200   -7.9050   21.0610 O   0  0  0  0  0  0  0  0  0  0  0  0
  -22.0570   -7.2600   22.2420 C   0  0  0  0  0  0  0  0  0  0  0  0
  -21.5390   -7.9430   23.3650 C   0  0  0  0  0  3  0  0  0  0  0  0
  -21.2190   -7.2290   24.5370 C   0  0  0  0  0  3  0  0  0  0  0  0
  -21.4060   -5.8340   24.5860 C   0  0  0  0  0  0  0  0  0  0  0  0
  -21.9150   -5.1520   23.4670 C   0  0  0  0  0  3  0  0  0  0  0  0
  -22.2370   -5.8630   22.2980 C   0  0  0  0  0  0  0  0  0  0  0  0
  -22.7090   -5.1970   21.2160 F   0  0  0  0  0  0  0  0  0  0  0  0
  -21.0900   -5.1470   25.7080 F   0  0  0  0  0  0  0  0  0  0  0  0
  -24.5380  -14.2580   21.5570 C   0  0  0  0  0  0  0  0  0  0  0  0
  -23.9180  -13.5250   22.4750 N   0  0  0  0  0  0  0  0  0  0  0  0
  -24.1850  -15.4130   21.3220 O   0  0  0  0  0  0  0  0  0  0  0  0
  -24.2200  -12.5840   22.6810 H   0  0  0  0  0  0  0  0  0  0  0  0
  -23.1310  -13.9100   22.9790 H   0  0  0  0  0  0  0  0  0  0  0  0
  -27.1860  -15.6520   20.3670 N   0  0  0  0  0  0  0  0  0  0  0  0
  -26.6030  -16.3780   20.7680 H   0  0  0  0  0  0  0  0  0  0  0  0
  -28.0060  -16.0160   19.8970 H   0  0  0  0  0  0  0  0  0  0  0  0
  -28.2300  -25.1710   17.8600 C   0  0  0  0  0  0  0  0  0  0  0  0
  -28.6770  -24.4950   18.9270 N   0  0  0  0  0  0  0  0  0  0  0  0
  -27.5630  -24.6400   16.9680 O   0  0  0  0  0  0  0  0  0  0  0  0
  -29.2240  -25.0190   19.5980 H   0  0  0  0  0  0  0  0  0  0  0  0
  -28.5920  -26.6660   17.7890 C   0  0  0  0  0  2  0  0  0  0  0  0
  -27.7150  -27.3600   16.8990 O   0  0  0  0  0  0  0  0  0  0  0  0
  -24.7260  -30.3020   22.6510 C   0  0  0  0  0  0  0  0  0  0  0  0
  -26.5850  -27.8640   17.4910 C   0  0  0  0  0  0  0  0  0  0  0  0
  -23.1680  -29.5900   20.8630 C   0  0  0  0  0  3  0  0  0  0  0  0
  -24.2510  -28.9390   18.6480 C   0  0  0  0  0  0  0  0  0  0  0  0
  -25.5700  -30.2660   20.3100 C   0  0  0  0  0  2  0  0  0  0  0  0
  -25.5100  -29.2980   19.1480 C   0  0  0  0  0  0  0  0  0  0  0  0
  -26.6820  -28.7640   18.5730 C   0  0  0  0  0  3  0  0  0  0  0  0
  -25.3170  -27.5110   16.9910 C   0  0  0  0  0  3  0  0  0  0  0  0
  -24.1470  -28.0410   17.5690 C   0  0  0  0  0  3  0  0  0  0  0  0
  -23.0480  -29.5670   19.3150 C   0  0  0  0  0  2  0  0  0  0  0  0
  -24.5190  -30.0440   21.3280 N   0  0  0  0  0  0  0  0  0  0  0  0
  -23.8030  -30.2130   23.4710 O   0  0  0  0  0  0  0  0  0  0  0  0
  -22.7660  -28.2030   21.4090 C   0  0  0  0  0  0  0  0  0  0  0  0
  -21.4780  -27.8560   21.2680 N   0  0  0  0  0  0  0  0  0  0  0  0
  -23.6060  -27.4560   21.9180 O   0  0  0  0  0  0  0  0  0  0  0  0
  -20.8500  -28.5280   20.8470 H   0  0  0  0  0  0  0  0  0  0  0  0
  -18.4480  -25.8920   21.1320 C   0  0  0  0  0  0  0  0  0  0  0  0
  -20.8800  -26.5830   21.6710 C   0  0  0  0  0  3  0  0  0  0  0  0
  -21.3070  -25.4420   20.7200 C   0  0  0  0  0  2  0  0  0  0  0  0
  -20.3200  -25.2120   19.5710 C   0  0  0  0  0  2  0  0  0  0  0  0
  -18.9310  -24.8700   20.1170 C   0  0  0  0  0  2  0  0  0  0  0  0
  -19.3620  -26.7080   21.8500 C   0  0  0  0  0  0  0  0  0  0  0  0
  -18.8590  -27.6680   22.7540 C   0  0  0  0  0  3  0  0  0  0  0  0
  -17.4730  -27.8160   22.9500 C   0  0  0  0  0  3  0  0  0  0  0  0
  -16.5740  -26.9930   22.2510 C   0  0  0  0  0  3  0  0  0  0  0  0
  -17.0620  -26.0330   21.3470 C   0  0  0  0  0  3  0  0  0  0  0  0
  -26.1220  -30.7460   23.1900 C   0  0  0  0  0  3  0  0  0  0  0  0
  -26.7780  -29.6930   24.1660 C   0  0  1  0  0  0  0  0  0  0  0  0
  -25.8470  -29.2510   25.3200 C   0  0  0  0  0  1  0  0  0  0  0  0
  -27.2050  -28.4240   23.3930 C   0  0  0  0  0  1  0  0  0  0  0  0
  -28.0630  -30.2850   24.7890 C   0  0  0  0  0  1  0  0  0  0  0  0
  -25.9450  -32.0400   23.8620 N   0  0  0  0  0  0  0  0  0  0  0  0
  -26.3760  -33.2130   23.3780 C   0  0  0  0  0  0  0  0  0  0  0  0
  -27.0360  -33.3070   22.3390 O   0  0  0  0  0  0  0  0  0  0  0  0
  -25.3660  -32.0450   24.6880 H   0  0  0  0  0  0  0  0  0  0  0  0
  -24.9110  -35.2560   23.4360 C   0  0  0  0  0  1  0  0  0  0  0  0
  -26.0160  -34.4820   24.1720 C   0  0  0  0  0  3  0  0  0  0  0  0
  -28.1520  -34.8110   25.3390 C   0  0  0  0  0  1  0  0  0  0  0  0
  -27.1710  -35.3730   24.4140 N   0  0  0  0  0  0  0  0  0  0  0  0
  -26.8640  -36.2680   24.7860 H   0  0  0  0  0  0  0  0  0  0  0  0
  1  2  1  0
  1  7  2  0
  3  2  1  0
  4  5  1  0
  4  6  1  0
  5 54  1  0
  5  3  1  0
  6  1  1  0
  8 12  1  0
  9 13  2  0
 11  9  1  0
 11  8  2  0
 12 10  2  0
 12  6  1  0
 13 23  1  0
 13 10  1  0
 14 11  1  0
 15 21  1  0
 15 23  1  0
 16 21  1  0
 17 18  1  0
 17 16  1  0
 19 18  1  0
 19 28  1  0
 19 20  1  0
 21 20  1  0
 22 15  2  0
 23 24  1  0
 25 50  1  0
 25 26  2  0
 26 45  1  0
 27 30  1  0
 27 26  1  0
 28 29  1  0
 28 25  1  0
 29 27  2  0
 30 31  1  0
 31 32  2  0
 33 36  1  0
 33 32  1  0
 34 33  2  0
 35 34  1  0
 35 30  2  0
 36 37  1  0
 37 42  2  0
 37 38  1  0
 38 39  2  0
 39 40  1  0
 40 44  1  0
 41 40  2  0
 42 41  1  0
 43 42  1  0
 45 46  1  0
 46 48  1  0
 46 49  1  0
 47 45  2  0
 50 51  1  0
 52 50  1  0
 53 54  1  0
 54 56  1  0
 55 53  2  0
 57 53  1  0
 58 60  1  0
 58 57  1  0
 59 70  2  0
 60 65  1  0
 61 69  1  0
 61 71  1  0
 62 64  1  0
 62 68  1  0
 63 69  1  0
 64 63  1  0
 65 64  2  0
 66 60  2  0
 66 67  1  0
 67 62  2  0
 68 61  1  0
 69 59  1  0
 71 73  2  0
 72 71  1  0
 74 72  1  0
 75 84  2  0
 75 80  1  0
 76 72  1  0
 76 80  1  0
 77 76  1  0
 78 79  1  0
 78 77  1  0
 79 75  1  0
 80 81  2  0
 81 82  1  0
 83 82  2  0
 84 83  1  0
 85 59  1  0
 85 90  1  0
 85 86  1  0
 86 89  1  1
 86 87  1  0
 88 86  1  0
 90 93  1  0
 91 90  1  0
 91 95  1  0
 92 91  2  0
 95 94  1  0
 95 97  1  0
 97 98  1  0
 97 96  1  0
M  ISO  4  15 100  23 100  57 101  58 101
M  END
>  <TORSDO>  (54) 
F 19

>  <SCORE>  (54) 
-7.956

>  <name>  (54) 
53

>  <ligand_id>  (54) 
53

>  <original_smiles>  (54) 
[H]c1c([H])c([H])c2c(c1[H])C([H])([H])C([H])([H])C([H])([H])C2([H])N([H])C(=O)C1([H])N(C(=O)C([H])(N([H])C(=O)C([H])(N([H])C([H])([H])[H])C([H])([H])[H])C(C([H])([H])[H])(C([H])([H])[H])C([H])([H])[H])C([H])([H])c2c([H])c(OC([H])([H])C(=O)N([H])C3([H])C([H])([H])N(c4c([H])c(N([H])C(=O)N5C([H])([H])C([H])([H])C([H])([H])C([H])(n6nc(-c7c([H])c([H])c(Oc8c([H])c([H])c(F)c([H])c8F)c([H])c7[H])c(C(=O)N([H])[H])c6N([H])[H])C5([H])[H])c([H])c(C([H])([H])[H])c4[H])C(=O)C([H])([H])C3([H])[H])c([H])c([H])c2C1([H])[H]

>  <smiles>  (54) 
[H]c1c([H])c([H])c2c(c1[H])C([H])([H])C([H])([H])C([H])([H])C2([H])N([H])C(=O)C1([H])N(C(=O)C([H])(N([H])C(=O)C([H])(N([H])C([H])([H])[H])C([H])([H])[H])C(C([H])([H])[H])(C([H])([H])[H])C([H])([H])[H])C([H])([H])c2c([H])c(OC([H])([H])C(=O)N([H])C3([H])C([H])([H])N(c4c([H])c(N([H])C(=O)N5C([H])([H])C([H])([H])C([H])([H])C([H])(n6nc(-c7c([H])c([H])c(Oc8c([H])c([H])c(F)c([H])c8F)c([H])c7[H])c(C(=O)N([H])[H])c6N([H])[H])C5([H])[H])c([H])c(C([H])([H])[H])c4[H])C(=O)C([H])([H])C3([H])[H])c([H])c([H])c2C1([H])[H]

$$$$
54:0:0
     RDKit          3D

 94102  0  0  1  0  0  0  0  0999 V2000
  -29.7090  -19.4300   22.5060 C   0  0  0  0  0  3  0  0  0  0  0  0
  -29.4750  -20.6290   21.8140 C   0  0  0  0  0  3  0  0  0  0  0  0
  -30.3110  -19.5970   19.7870 C   0  0  0  0  0  3  0  0  0  0  0  0
  -30.5140  -18.3530   20.4590 C   0  0  0  0  0  0  0  0  0  0  0  0
  -30.2420  -18.2960   21.8590 C   0  0  0  0  0  0  0  0  0  0  0  0
  -29.7820  -20.7420   20.4390 C   0  0  0  0  0  0  0  0  0  0  0  0
  -30.5580  -17.0920   22.7380 C   0  0  0  0  0  1  0  0  0  0  0  0
  -31.3230  -14.8040   19.3920 C   0  0  0  0  0  0  0  0  0  0  0  0
  -30.8210  -12.5970   18.4190 C   0  0  0  0  0  2  0  0  0  0  0  0
  -29.7330  -12.7940   17.3450 C   0  0  0  0  0  2  0  0  0  0  0  0
  -28.3360  -12.6610   17.9800 C   0  0  0  0  0  2  0  0  0  0  0  0
  -28.1780  -13.5230   19.2610 C   0  0  0  0  0  3  0  0  0  0  0  0
  -29.3870  -13.3580   20.2140 C   0  0  0  0  0  2  0  0  0  0  0  0
  -30.6150  -13.6360   19.4500 N   0  0  0  0  0  0  0  0  0  0  0  0
  -32.3900  -14.8530   18.7720 O   0  0  0  0  0  0  0  0  0  0  0  0
  -31.1350  -17.2060   19.6720 C   0  0  0  0  0  0  0  0  0  0  0  0
  -30.7490  -15.9220   19.9160 N   0  0  0  0  0  0  0  0  0  0  0  0
  -31.9270  -17.5300   18.7760 O   0  0  0  0  0  0  0  0  0  0  0  0
  -29.9710  -15.7950   20.5420 H   0  0  0  0  0  0  0  0  0  0  0  0
  -25.9830  -14.1380   20.4500 C   0  0  0  0  0  0  0  0  0  0  0  0
  -24.9470  -13.3700   20.9160 C   0  0  0  0  0  0  0  0  0  0  0  0
  -25.3100  -12.0140   20.6520 C   0  0  0  0  0  0  0  0  0  0  0  0
  -26.9140  -13.2460   19.9400 N   0  0  0  0  0  0  0  0  0  0  0  0
  -26.5230  -11.9570   20.1160 N   0  0  0  0  0  0  0  0  0  0  0  0
  -24.5470  -10.7690   20.8230 C   0  0  0  0  0  0  0  0  0  0  0  0
  -24.9760   -9.7550   21.7070 C   0  0  0  0  0  3  0  0  0  0  0  0
  -24.2120   -8.5770   21.8680 C   0  0  0  0  0  3  0  0  0  0  0  0
  -23.0070   -8.4080   21.1470 C   0  0  0  0  0  0  0  0  0  0  0  0
  -22.6000   -9.4090   20.2490 C   0  0  0  0  0  3  0  0  0  0  0  0
  -23.3630  -10.5790   20.0850 C   0  0  0  0  0  3  0  0  0  0  0  0
  -22.2170   -7.2860   21.2190 O   0  0  0  0  0  0  0  0  0  0  0  0
  -22.0240   -6.6170   22.4010 C   0  0  0  0  0  0  0  0  0  0  0  0
  -21.4690   -7.2530   23.5340 C   0  0  0  0  0  3  0  0  0  0  0  0
  -21.2220   -6.5130   24.7070 C   0  0  0  0  0  3  0  0  0  0  0  0
  -21.5220   -5.1380   24.7490 C   0  0  0  0  0  0  0  0  0  0  0  0
  -22.0710   -4.5010   23.6210 C   0  0  0  0  0  3  0  0  0  0  0  0
  -22.3180   -5.2390   22.4510 C   0  0  0  0  0  0  0  0  0  0  0  0
  -22.8270   -4.6180   21.3600 F   0  0  0  0  0  0  0  0  0  0  0  0
  -21.2770   -4.4230   25.8730 F   0  0  0  0  0  0  0  0  0  0  0  0
  -23.6530  -13.8710   21.4850 C   0  0  0  0  0  0  0  0  0  0  0  0
  -23.0500  -13.1150   22.3980 N   0  0  0  0  0  0  0  0  0  0  0  0
  -23.1900  -14.9620   21.1560 O   0  0  0  0  0  0  0  0  0  0  0  0
  -23.4420  -12.2310   22.6840 H   0  0  0  0  0  0  0  0  0  0  0  0
  -22.1860  -13.4260   22.8200 H   0  0  0  0  0  0  0  0  0  0  0  0
  -26.2020  -15.5100   20.3970 N   0  0  0  0  0  0  0  0  0  0  0  0
  -25.5010  -16.1840   20.6860 H   0  0  0  0  0  0  0  0  0  0  0  0
  -27.0050  -15.9410   19.9540 H   0  0  0  0  0  0  0  0  0  0  0  0
  -28.8210  -23.0320   19.9880 C   0  0  0  0  0  0  0  0  0  0  0  0
  -29.6410  -21.9850   19.7260 N   0  0  0  0  0  0  0  0  0  0  0  0
  -27.9160  -22.9760   20.8270 O   0  0  0  0  0  0  0  0  0  0  0  0
  -30.2470  -22.1110   18.9270 H   0  0  0  0  0  0  0  0  0  0  0  0
  -28.9860  -24.3320   19.1600 C   0  0  0  0  0  2  0  0  0  0  0  0
  -28.6010  -25.6080   19.9670 C   0  0  0  0  0  2  0  0  0  0  0  0
  -28.5650  -26.8450   19.2260 O   0  0  0  0  0  0  0  0  0  0  0  0
  -24.6270  -31.4930   22.9530 C   0  0  0  0  0  0  0  0  0  0  0  0
  -27.3780  -27.5360   19.3460 C   0  0  0  0  0  0  0  0  0  0  0  0
  -23.4290  -30.1840   21.2290 C   0  0  0  0  0  3  0  0  0  0  0  0
  -24.9030  -28.8830   19.6030 C   0  0  0  0  0  0  0  0  0  0  0  0
  -25.9180  -30.7130   20.9690 C   0  0  0  0  0  2  0  0  0  0  0  0
  -26.0550  -29.4170   20.1950 C   0  0  0  0  0  0  0  0  0  0  0  0
  -27.2970  -28.7500   20.0660 C   0  0  0  0  0  3  0  0  0  0  0  0
  -26.2110  -27.0200   18.7450 C   0  0  0  0  0  3  0  0  0  0  0  0
  -24.9760  -27.6830   18.8750 C   0  0  0  0  0  3  0  0  0  0  0  0
  -23.6160  -29.6540   19.7830 C   0  0  0  0  0  2  0  0  0  0  0  0
  -24.6770  -30.8100   21.7760 N   0  0  0  0  0  0  0  0  0  0  0  0
  -23.5580  -31.6440   23.5620 O   0  0  0  0  0  0  0  0  0  0  0  0
  -22.8850  -29.0370   22.1120 C   0  0  0  0  0  0  0  0  0  0  0  0
  -21.5800  -28.7550   21.9870 N   0  0  0  0  0  0  0  0  0  0  0  0
  -23.6330  -28.4100   22.8670 O   0  0  0  0  0  0  0  0  0  0  0  0
  -21.0420  -29.3300   21.3540 H   0  0  0  0  0  0  0  0  0  0  0  0
  -18.3350  -27.2080   22.3880 C   0  0  0  0  0  0  0  0  0  0  0  0
  -20.8580  -27.6880   22.6820 C   0  0  0  0  0  3  0  0  0  0  0  0
  -21.0910  -26.3200   21.9960 C   0  0  0  0  0  2  0  0  0  0  0  0
  -20.0180  -25.9680   20.9630 C   0  0  0  0  0  2  0  0  0  0  0  0
  -18.6320  -25.9380   21.6130 C   0  0  0  0  0  2  0  0  0  0  0  0
  -19.3790  -28.0410   22.8750 C   0  0  0  0  0  0  0  0  0  0  0  0
  -19.0460  -29.2290   23.5540 C   0  0  0  0  0  3  0  0  0  0  0  0
  -17.7000  -29.5960   23.7480 C   0  0  0  0  0  3  0  0  0  0  0  0
  -16.6720  -28.7630   23.2780 C   0  0  0  0  0  3  0  0  0  0  0  0
  -16.9890  -27.5680   22.6100 C   0  0  0  0  0  3  0  0  0  0  0  0
  -25.9020  -32.1380   23.5810 C   0  0  0  0  0  3  0  0  0  0  0  0
  -26.4870  -31.3160   24.7950 C   0  0  1  0  0  0  0  0  0  0  0  0
  -25.4340  -30.9630   25.8700 C   0  0  0  0  0  1  0  0  0  0  0  0
  -27.1220  -29.9950   24.3040 C   0  0  0  0  0  1  0  0  0  0  0  0
  -27.6190  -32.1210   25.4790 C   0  0  0  0  0  1  0  0  0  0  0  0
  -25.5480  -33.5010   23.9990 N   0  0  0  0  0  0  0  0  0  0  0  0
  -25.8430  -34.6100   23.3060 C   0  0  0  0  0  0  0  0  0  0  0  0
  -26.5120  -34.5940   22.2690 O   0  0  0  0  0  0  0  0  0  0  0  0
  -24.9550  -33.5870   24.8120 H   0  0  0  0  0  0  0  0  0  0  0  0
  -24.0560  -36.3650   23.0560 C   0  0  0  0  0  1  0  0  0  0  0  0
  -25.3080  -35.9500   23.8480 C   0  0  0  0  0  3  0  0  0  0  0  0
  -27.4080  -36.8510   24.7500 C   0  0  0  0  0  1  0  0  0  0  0  0
  -26.3070  -37.0400   23.8080 N   0  0  0  0  0  0  0  0  0  0  0  0
  -25.8700  -37.9350   24.0080 H   0  0  0  0  0  0  0  0  0  0  0  0
  2  1  2  0
  3  6  2  0
  3  4  1  0
  4  5  2  0
  5  1  1  0
  5  7  1  0
  6  2  1  0
  8 14  1  0
  8 17  1  0
  9 14  1  0
 10 11  1  0
 10  9  1  0
 12 11  1  0
 12 23  1  0
 12 13  1  0
 14 13  1  0
 15  8  2  0
 16 17  1  0
 16  4  1  0
 17 19  1  0
 18 16  2  0
 20 21  2  0
 21 40  1  0
 22 25  1  0
 22 21  1  0
 23 24  1  0
 23 20  1  0
 24 22  2  0
 25 26  1  0
 26 27  2  0
 28 31  1  0
 28 27  1  0
 29 28  2  0
 30 29  1  0
 30 25  2  0
 31 32  1  0
 32 37  2  0
 32 33  1  0
 33 34  2  0
 34 35  1  0
 35 39  1  0
 36 35  2  0
 37 36  1  0
 38 37  1  0
 40 41  1  0
 41 43  1  0
 41 44  1  0
 42 40  2  0
 45 20  1  0
 45 46  1  0
 47 45  1  0
 48 50  2  0
 49 48  1  0
 49  6  1  0
 51 49  1  0
 52 53  1  0
 52 48  1  0
 54 56  1  0
 54 53  1  0
 55 66  2  0
 56 61  1  0
 57 65  1  0
 57 67  1  0
 58 64  1  0
 58 60  1  0
 59 65  1  0
 60 59  1  0
 61 60  2  0
 62 63  1  0
 62 56  2  0
 63 58  2  0
 64 57  1  0
 65 55  1  0
 67 69  2  0
 68 67  1  0
 70 68  1  0
 71 80  2  0
 71 76  1  0
 72 68  1  0
 72 76  1  0
 73 72  1  0
 74 75  1  0
 74 73  1  0
 75 71  1  0
 76 77  2  0
 77 78  1  0
 79 78  2  0
 80 79  1  0
 81 55  1  0
 81 86  1  0
 81 82  1  0
 82 85  1  1
 82 83  1  0
 84 82  1  0
 86 89  1  0
 87 91  1  0
 87 86  1  0
 88 87  2  0
 91 90  1  0
 93 91  1  0
 93 94  1  0
 93 92  1  0
M  ISO  4   8 100  17 100  53 101  54 101
M  END
>  <TORSDO>  (55) 
F 19

>  <SCORE>  (55) 
-9.536

>  <name>  (55) 
54

>  <ligand_id>  (55) 
54

>  <original_smiles>  (55) 
[H]c1c([H])c([H])c2c(c1[H])C([H])([H])C([H])([H])C([H])([H])C2([H])N([H])C(=O)C1([H])N(C(=O)C([H])(N([H])C(=O)C([H])(N([H])C([H])([H])[H])C([H])([H])[H])C(C([H])([H])[H])(C([H])([H])[H])C([H])([H])[H])C([H])([H])c2c([H])c(OC([H])([H])C([H])([H])C(=O)N([H])c3c([H])c([H])c(C([H])([H])[H])c(C(=O)N([H])C(=O)N4C([H])([H])C([H])([H])C([H])([H])C([H])(n5nc(-c6c([H])c([H])c(Oc7c([H])c([H])c(F)c([H])c7F)c([H])c6[H])c(C(=O)N([H])[H])c5N([H])[H])C4([H])[H])c3[H])c([H])c([H])c2C1([H])[H]

>  <smiles>  (55) 
[H]c1c([H])c([H])c2c(c1[H])C([H])([H])C([H])([H])C([H])([H])C2([H])N([H])C(=O)C1([H])N(C(=O)C([H])(N([H])C(=O)C([H])(N([H])C([H])([H])[H])C([H])([H])[H])C(C([H])([H])[H])(C([H])([H])[H])C([H])([H])[H])C([H])([H])c2c([H])c(OC([H])([H])C([H])([H])C(=O)N([H])c3c([H])c([H])c(C([H])([H])[H])c(C(=O)N([H])C(=O)N4C([H])([H])C([H])([H])C([H])([H])C([H])(n5nc(-c6c([H])c([H])c(Oc7c([H])c([H])c(F)c([H])c7F)c([H])c6[H])c(C(=O)N([H])[H])c5N([H])[H])C4([H])[H])c3[H])c([H])c([H])c2C1([H])[H]

$$$$
55:0:0
     RDKit          3D

 95103  0  0  1  0  0  0  0  0999 V2000
  -30.1840  -22.7860   20.0990 C   0  0  0  0  0  0  0  0  0  0  0  0
  -29.7000  -21.5040   20.4370 N   0  0  0  0  0  0  0  0  0  0  0  0
  -31.1190  -22.8730   19.2990 O   0  0  0  0  0  0  0  0  0  0  0  0
  -28.9920  -21.5530   21.1550 H   0  0  0  0  0  0  0  0  0  0  0  0
  -30.3700  -18.5460   18.0200 C   0  0  0  0  0  3  0  0  0  0  0  0
  -29.8460  -18.8500   20.7070 C   0  0  0  0  0  3  0  0  0  0  0  0
  -30.2330  -19.8610   18.5160 C   0  0  0  0  0  0  0  0  0  0  0  0
  -30.2480  -17.3880   18.8070 C   0  0  0  0  0  0  0  0  0  0  0  0
  -29.9590  -20.0970   19.9020 C   0  0  0  0  0  0  0  0  0  0  0  0
  -30.0410  -17.4670   20.2080 C   0  0  0  0  0  0  0  0  0  0  0  0
  -30.3550  -20.9370   17.4380 C   0  0  0  0  0  1  0  0  0  0  0  0
  -30.2670  -16.0660   18.0580 C   0  0  0  0  0  1  0  0  0  0  0  0
  -30.7040  -15.0070   21.0350 C   0  0  0  0  0  0  0  0  0  0  0  0
  -30.7310  -12.6030   20.3090 C   0  0  0  0  0  2  0  0  0  0  0  0
  -29.9590  -12.4560   18.9770 C   0  0  0  0  0  2  0  0  0  0  0  0
  -28.4450  -12.2840   19.2230 C   0  0  0  0  0  2  0  0  0  0  0  0
  -27.8810  -13.2650   20.2850 C   0  0  0  0  0  3  0  0  0  0  0  0
  -28.7980  -13.3580   21.5250 C   0  0  0  0  0  2  0  0  0  0  0  0
  -30.1320  -13.7440   21.0520 N   0  0  0  0  0  0  0  0  0  0  0  0
  -31.9260  -15.0960   20.9030 O   0  0  0  0  0  0  0  0  0  0  0  0
  -29.8870  -16.1600   20.9750 N   0  0  0  0  0  0  0  0  0  0  0  0
  -28.9380  -15.9760   21.2520 H   0  0  0  0  0  0  0  0  0  0  0  0
  -25.4190  -13.8150   20.7440 C   0  0  0  0  0  0  0  0  0  0  0  0
  -24.3350  -13.0300   21.0210 C   0  0  0  0  0  0  0  0  0  0  0  0
  -24.8230  -11.6880   21.0730 C   0  0  0  0  0  0  0  0  0  0  0  0
  -26.4990  -12.9540   20.6430 N   0  0  0  0  0  0  0  0  0  0  0  0
  -26.1400  -11.6710   20.9090 N   0  0  0  0  0  0  0  0  0  0  0  0
  -24.1030  -10.4160   21.2140 C   0  0  0  0  0  0  0  0  0  0  0  0
  -24.4560   -9.4700   22.1990 C   0  0  0  0  0  3  0  0  0  0  0  0
  -23.7310   -8.2650   22.3300 C   0  0  0  0  0  3  0  0  0  0  0  0
  -22.6430   -7.9950   21.4670 C   0  0  0  0  0  0  0  0  0  0  0  0
  -22.3110   -8.9310   20.4720 C   0  0  0  0  0  3  0  0  0  0  0  0
  -23.0370  -10.1280   20.3410 C   0  0  0  0  0  3  0  0  0  0  0  0
  -21.8990   -6.8390   21.4990 O   0  0  0  0  0  0  0  0  0  0  0  0
  -21.7560   -6.1060   22.6490 C   0  0  0  0  0  0  0  0  0  0  0  0
  -21.2020   -6.6630   23.8220 C   0  0  0  0  0  3  0  0  0  0  0  0
  -21.0050   -5.8560   24.9600 C   0  0  0  0  0  3  0  0  0  0  0  0
  -21.3630   -4.4960   24.9270 C   0  0  0  0  0  0  0  0  0  0  0  0
  -21.9090   -3.9370   23.7590 C   0  0  0  0  0  3  0  0  0  0  0  0
  -22.1060   -4.7410   22.6250 C   0  0  0  0  0  0  0  0  0  0  0  0
  -22.6120   -4.1940   21.4920 F   0  0  0  0  0  0  0  0  0  0  0  0
  -21.1680   -3.7170   26.0200 F   0  0  0  0  0  0  0  0  0  0  0  0
  -22.9080  -13.4820   21.1220 C   0  0  0  0  0  0  0  0  0  0  0  0
  -22.0980  -12.8010   21.9220 N   0  0  0  0  0  0  0  0  0  0  0  0
  -22.5160  -14.4860   20.5260 O   0  0  0  0  0  0  0  0  0  0  0  0
  -22.4200  -11.9900   22.4300 H   0  0  0  0  0  0  0  0  0  0  0  0
  -21.1380  -13.1000   22.0310 H   0  0  0  0  0  0  0  0  0  0  0  0
  -25.5800  -15.1840   20.5440 N   0  0  0  0  0  0  0  0  0  0  0  0
  -24.7990  -15.8290   20.5360 H   0  0  0  0  0  0  0  0  0  0  0  0
  -26.4470  -15.6160   20.2500 H   0  0  0  0  0  0  0  0  0  0  0  0
  -30.9870  -25.1180   20.9920 C   0  0  0  0  0  1  0  0  0  0  0  0
  -29.1240  -24.0050   22.1720 C   0  0  0  0  0  1  0  0  0  0  0  0
  -29.7030  -24.2200   20.7470 C   0  0  2  0  0  0  0  0  0  0  0  0
  -28.6510  -25.1160   19.8590 C   0  0  0  0  0  2  0  0  0  0  0  0
  -28.5420  -26.6030   20.0530 O   0  0  0  0  0  0  0  0  0  0  0  0
  -24.6050  -31.8720   23.0520 C   0  0  0  0  0  0  0  0  0  0  0  0
  -27.3430  -27.3610   19.9790 C   0  0  0  0  0  0  0  0  0  0  0  0
  -23.4170  -30.4560   21.4080 C   0  0  0  0  0  3  0  0  0  0  0  0
  -24.9000  -28.9140   19.9760 C   0  0  0  0  0  0  0  0  0  0  0  0
  -25.9510  -30.8100   21.2180 C   0  0  0  0  0  2  0  0  0  0  0  0
  -26.0570  -29.4310   20.5710 C   0  0  0  0  0  0  0  0  0  0  0  0
  -27.2660  -28.6700   20.5540 C   0  0  0  0  0  3  0  0  0  0  0  0
  -26.1580  -26.8920   19.3590 C   0  0  0  0  0  3  0  0  0  0  0  0
  -24.9560  -27.6490   19.3580 C   0  0  0  0  0  3  0  0  0  0  0  0
  -23.6360  -29.7630   20.0340 C   0  0  0  0  0  2  0  0  0  0  0  0
  -24.6760  -31.0650   21.9470 N   0  0  0  0  0  0  0  0  0  0  0  0
  -23.5210  -32.1330   23.5920 O   0  0  0  0  0  0  0  0  0  0  0  0
  -22.7680  -29.4400   22.3790 C   0  0  0  0  0  0  0  0  0  0  0  0
  -21.4370  -29.2780   22.2820 N   0  0  0  0  0  0  0  0  0  0  0  0
  -23.4620  -28.7970   23.1710 O   0  0  0  0  0  0  0  0  0  0  0  0
  -20.9380  -29.8520   21.6170 H   0  0  0  0  0  0  0  0  0  0  0  0
  -18.0570  -28.1300   22.8760 C   0  0  0  0  0  0  0  0  0  0  0  0
  -20.6280  -28.3340   23.0560 C   0  0  0  0  0  3  0  0  0  0  0  0
  -20.6800  -26.9200   22.4360 C   0  0  0  0  0  2  0  0  0  0  0  0
  -19.5360  -26.6450   21.4560 C   0  0  0  0  0  2  0  0  0  0  0  0
  -18.1820  -26.7980   22.1560 C   0  0  0  0  0  2  0  0  0  0  0  0
  -19.2060  -28.8580   23.2840 C   0  0  0  0  0  0  0  0  0  0  0  0
  -19.0370  -30.1060   23.9200 C   0  0  0  0  0  3  0  0  0  0  0  0
  -17.7490  -30.6250   24.1560 C   0  0  0  0  0  3  0  0  0  0  0  0
  -16.6150  -29.8930   23.7630 C   0  0  0  0  0  3  0  0  0  0  0  0
  -16.7710  -28.6480   23.1290 C   0  0  0  0  0  3  0  0  0  0  0  0
  -25.8820  -32.5190   23.6780 C   0  0  0  0  0  3  0  0  0  0  0  0
  -26.4310  -31.7280   24.9300 C   0  0  1  0  0  0  0  0  0  0  0  0
  -25.3580  -31.4510   26.0100 C   0  0  0  0  0  1  0  0  0  0  0  0
  -27.0270  -30.3680   24.4990 C   0  0  0  0  0  1  0  0  0  0  0  0
  -27.5750  -32.5300   25.5940 C   0  0  0  0  0  1  0  0  0  0  0  0
  -25.5430  -33.9000   24.0480 N   0  0  0  0  0  0  0  0  0  0  0  0
  -25.8890  -34.9870   23.3430 C   0  0  0  0  0  0  0  0  0  0  0  0
  -26.5920  -34.9310   22.3300 O   0  0  0  0  0  0  0  0  0  0  0  0
  -24.9230  -34.0180   24.8350 H   0  0  0  0  0  0  0  0  0  0  0  0
  -24.1670  -36.7900   22.9900 C   0  0  0  0  0  1  0  0  0  0  0  0
  -25.3700  -36.3520   23.8390 C   0  0  0  0  0  3  0  0  0  0  0  0
  -27.4590  -37.2070   24.8130 C   0  0  0  0  0  1  0  0  0  0  0  0
  -26.4030  -37.4130   23.8250 N   0  0  0  0  0  0  0  0  0  0  0  0
  -25.9840  -38.3250   23.9900 H   0  0  0  0  0  0  0  0  0  0  0  0
  1  2  1  0
  1 53  1  0
  2  4  1  0
  3  1  2  0
  5  7  2  0
  5  8  1  0
  7  9  1  0
  8 10  2  0
  9  2  1  0
  9  6  2  0
 10  6  1  0
 10 21  1  0
 11  7  1  0
 12  8  1  0
 13 19  1  0
 14 19  1  0
 15 16  1  0
 15 14  1  0
 17 16  1  0
 17 26  1  0
 17 18  1  0
 19 18  1  0
 20 13  2  0
 21 13  1  0
 21 22  1  0
 23 24  2  0
 24 25  1  0
 24 43  1  0
 25 28  1  0
 26 23  1  0
 26 27  1  0
 27 25  2  0
 28 29  1  0
 29 30  2  0
 31 34  1  0
 31 30  1  0
 32 31  2  0
 33 32  1  0
 33 28  2  0
 34 35  1  0
 35 36  1  0
 36 37  2  0
 38 37  1  0
 38 42  1  0
 39 38  2  0
 40 35  2  0
 40 39  1  0
 41 40  1  0
 43 44  1  0
 44 47  1  0
 44 46  1  0
 45 43  2  0
 48 23  1  0
 49 48  1  0
 50 48  1  0
 53 51  1  1
 53 52  1  0
 54 55  1  0
 54 53  1  0
 56 67  2  0
 57 55  1  0
 57 62  1  0
 58 66  1  0
 58 68  1  0
 59 65  1  0
 59 61  1  0
 60 66  1  0
 61 60  1  0
 62 61  2  0
 63 57  2  0
 64 63  1  0
 64 59  2  0
 65 58  1  0
 66 56  1  0
 68 70  2  0
 69 68  1  0
 71 69  1  0
 72 81  2  0
 72 77  1  0
 73 69  1  0
 73 77  1  0
 74 73  1  0
 75 76  1  0
 75 74  1  0
 76 72  1  0
 77 78  2  0
 78 79  1  0
 80 79  2  0
 81 80  1  0
 82 56  1  0
 82 87  1  0
 82 83  1  0
 83 86  1  1
 83 84  1  0
 85 83  1  0
 87 90  1  0
 88 92  1  0
 88 87  1  0
 89 88  2  0
 92 91  1  0
 94 92  1  0
 94 95  1  0
 94 93  1  0
M  ISO  4  13 100  21 100  54 101  55 101
M  END
>  <TORSDO>  (56) 
F 19

>  <SCORE>  (56) 
-13.285

>  <name>  (56) 
55

>  <ligand_id>  (56) 
55

>  <original_smiles>  (56) 
[H]c1c([H])c([H])c2c(c1[H])C([H])([H])C([H])([H])C([H])([H])C2([H])N([H])C(=O)C1([H])N(C(=O)C([H])(N([H])C(=O)C([H])(N([H])C([H])([H])[H])C([H])([H])[H])C(C([H])([H])[H])(C([H])([H])[H])C([H])([H])[H])C([H])([H])c2c([H])c(OC([H])([H])C(C(=O)N([H])c3c([H])c(N([H])C(=O)N4C([H])([H])C([H])([H])C([H])([H])C([H])(n5nc(-c6c([H])c([H])c(Oc7c([H])c([H])c(F)c([H])c7F)c([H])c6[H])c(C(=O)N([H])[H])c5N([H])[H])C4([H])[H])c(C([H])([H])[H])c([H])c3C([H])([H])[H])(C([H])([H])[H])C([H])([H])[H])c([H])c([H])c2C1([H])[H]

>  <smiles>  (56) 
[H]c1c([H])c([H])c2c(c1[H])C([H])([H])C([H])([H])C([H])([H])C2([H])N([H])C(=O)C1([H])N(C(=O)C([H])(N([H])C(=O)C([H])(N([H])C([H])([H])[H])C([H])([H])[H])C(C([H])([H])[H])(C([H])([H])[H])C([H])([H])[H])C([H])([H])c2c([H])c(OC([H])([H])C(C(=O)N([H])c3c([H])c(N([H])C(=O)N4C([H])([H])C([H])([H])C([H])([H])C([H])(n5nc(-c6c([H])c([H])c(Oc7c([H])c([H])c(F)c([H])c7F)c([H])c6[H])c(C(=O)N([H])[H])c5N([H])[H])C4([H])[H])c(C([H])([H])[H])c([H])c3C([H])([H])[H])(C([H])([H])[H])C([H])([H])[H])c([H])c([H])c2C1([H])[H]

$$$$
56:0:0
     RDKit          3D

 97106  0  0  1  0  0  0  0  0999 V2000
  -30.2720  -21.8360   21.0430 C   0  0  0  0  0  0  0  0  0  0  0  0
  -28.2320  -22.2670   20.1050 C   0  0  0  0  0  2  0  0  0  0  0  0
  -28.8820  -23.7140   20.2000 C   0  0  0  0  0  3  0  0  0  0  0  0
  -30.1210  -23.3930   21.0850 C   0  0  1  0  0  0  0  0  0  0  0  0
  -29.9130  -23.8250   22.5520 C   0  0  0  0  0  1  0  0  0  0  0  0
  -29.2460  -21.2030   20.4330 N   0  0  0  0  0  0  0  0  0  0  0  0
  -31.2450  -21.2660   21.5510 O   0  0  0  0  0  0  0  0  0  0  0  0
  -28.7490  -19.5510   18.6560 C   0  0  0  0  0  3  0  0  0  0  0  0
  -29.1430  -17.1320   18.8060 C   0  0  0  0  0  3  0  0  0  0  0  0
  -29.6660  -18.5840   20.6940 C   0  0  0  0  0  3  0  0  0  0  0  0
  -28.7080  -18.2620   18.0840 C   0  0  0  0  0  0  0  0  0  0  0  0
  -29.2300  -19.7790   19.9680 C   0  0  0  0  0  0  0  0  0  0  0  0
  -29.6280  -17.2360   20.1270 C   0  0  0  0  0  0  0  0  0  0  0  0
  -28.1620  -18.0930   16.6760 C   0  0  0  0  0  1  0  0  0  0  0  0
  -30.5940  -14.8380   20.4080 C   0  0  0  0  0  0  0  0  0  0  0  0
  -30.4040  -12.5550   19.4110 C   0  0  0  0  0  2  0  0  0  0  0  0
  -29.4960  -12.6590   18.1640 C   0  0  0  0  0  2  0  0  0  0  0  0
  -28.0160  -12.4920   18.5550 C   0  0  0  0  0  2  0  0  0  0  0  0
  -27.6260  -13.3570   19.7850 C   0  0  0  0  0  3  0  0  0  0  0  0
  -28.6630  -13.2560   20.9260 C   0  0  0  0  0  2  0  0  0  0  0  0
  -29.9780  -13.6030   20.3710 N   0  0  0  0  0  0  0  0  0  0  0  0
  -31.7480  -14.9600   19.9860 O   0  0  0  0  0  0  0  0  0  0  0  0
  -29.8770  -15.9500   20.8320 N   0  0  0  0  0  0  0  0  0  0  0  0
  -29.1290  -15.6950   21.4590 H   0  0  0  0  0  0  0  0  0  0  0  0
  -25.2240  -13.9360   20.4640 C   0  0  0  0  0  0  0  0  0  0  0  0
  -24.1580  -13.1600   20.8240 C   0  0  0  0  0  0  0  0  0  0  0  0
  -24.6290  -11.8100   20.8160 C   0  0  0  0  0  0  0  0  0  0  0  0
  -26.2760  -13.0610   20.2520 N   0  0  0  0  0  0  0  0  0  0  0  0
  -25.9250  -11.7780   20.5260 N   0  0  0  0  0  0  0  0  0  0  0  0
  -23.9070  -10.5460   21.0090 C   0  0  0  0  0  0  0  0  0  0  0  0
  -24.3290   -9.5900   21.9620 C   0  0  0  0  0  3  0  0  0  0  0  0
  -23.6030   -8.3910   22.1370 C   0  0  0  0  0  3  0  0  0  0  0  0
  -22.4460   -8.1390   21.3640 C   0  0  0  0  0  0  0  0  0  0  0  0
  -22.0460   -9.0840   20.4040 C   0  0  0  0  0  3  0  0  0  0  0  0
  -22.7690  -10.2750   20.2230 C   0  0  0  0  0  3  0  0  0  0  0  0
  -21.6940   -6.9920   21.4500 O   0  0  0  0  0  0  0  0  0  0  0  0
  -21.6270   -6.2600   22.6100 C   0  0  0  0  0  0  0  0  0  0  0  0
  -21.1810   -6.8280   23.8230 C   0  0  0  0  0  3  0  0  0  0  0  0
  -21.0620   -6.0240   24.9750 C   0  0  0  0  0  3  0  0  0  0  0  0
  -21.3780   -4.6530   24.9150 C   0  0  0  0  0  0  0  0  0  0  0  0
  -21.8160   -4.0850   23.7050 C   0  0  0  0  0  3  0  0  0  0  0  0
  -21.9380   -4.8860   22.5550 C   0  0  0  0  0  0  0  0  0  0  0  0
  -22.3420   -4.3310   21.3880 F   0  0  0  0  0  0  0  0  0  0  0  0
  -21.2570   -3.8760   26.0170 F   0  0  0  0  0  0  0  0  0  0  0  0
  -22.7540  -13.6310   21.0680 C   0  0  0  0  0  0  0  0  0  0  0  0
  -22.0130  -12.9380   21.9250 N   0  0  0  0  0  0  0  0  0  0  0  0
  -22.3220  -14.6510   20.5330 O   0  0  0  0  0  0  0  0  0  0  0  0
  -22.3690  -12.1090   22.3790 H   0  0  0  0  0  0  0  0  0  0  0  0
  -21.0720  -13.2410   22.1310 H   0  0  0  0  0  0  0  0  0  0  0  0
  -25.3900  -15.3080   20.2800 N   0  0  0  0  0  0  0  0  0  0  0  0
  -24.6350  -15.9720   20.4100 H   0  0  0  0  0  0  0  0  0  0  0  0
  -26.2500  -15.7410   19.9660 H   0  0  0  0  0  0  0  0  0  0  0  0
  -27.9360  -24.9860   20.5600 C   0  0  0  0  0  2  0  0  0  0  0  0
  -28.2710  -26.4310   20.2740 O   0  0  0  0  0  0  0  0  0  0  0  0
  -24.6070  -31.9810   23.2370 C   0  0  0  0  0  0  0  0  0  0  0  0
  -27.1950  -27.3510   20.2180 C   0  0  0  0  0  0  0  0  0  0  0  0
  -23.4010  -30.5670   21.6130 C   0  0  0  0  0  3  0  0  0  0  0  0
  -24.8480  -29.0070   20.1940 C   0  0  0  0  0  0  0  0  0  0  0  0
  -25.9450  -30.8700   21.4290 C   0  0  0  0  0  2  0  0  0  0  0  0
  -26.0220  -29.4820   20.7930 C   0  0  0  0  0  0  0  0  0  0  0  0
  -27.1990  -28.6660   20.8000 C   0  0  0  0  0  3  0  0  0  0  0  0
  -26.0100  -26.9700   19.5510 C   0  0  0  0  0  3  0  0  0  0  0  0
  -24.8470  -27.7590   19.5600 C   0  0  0  0  0  3  0  0  0  0  0  0
  -23.6130  -29.8850   20.2380 C   0  0  0  0  0  2  0  0  0  0  0  0
  -24.6700  -31.1580   22.1480 N   0  0  0  0  0  0  0  0  0  0  0  0
  -23.5240  -32.2630   23.7700 O   0  0  0  0  0  0  0  0  0  0  0  0
  -22.7410  -29.5570   22.5840 C   0  0  0  0  0  0  0  0  0  0  0  0
  -21.4150  -29.3720   22.4600 N   0  0  0  0  0  0  0  0  0  0  0  0
  -23.4220  -28.9430   23.4100 O   0  0  0  0  0  0  0  0  0  0  0  0
  -20.9250  -29.9220   21.7680 H   0  0  0  0  0  0  0  0  0  0  0  0
  -18.0420  -28.1660   22.9780 C   0  0  0  0  0  0  0  0  0  0  0  0
  -20.6000  -28.4410   23.2420 C   0  0  0  0  0  3  0  0  0  0  0  0
  -20.7070  -27.0020   22.6840 C   0  0  0  0  0  2  0  0  0  0  0  0
  -19.6050  -26.6620   21.6750 C   0  0  0  0  0  2  0  0  0  0  0  0
  -18.2240  -26.8090   22.3180 C   0  0  0  0  0  2  0  0  0  0  0  0
  -19.1580  -28.9390   23.3980 C   0  0  0  0  0  0  0  0  0  0  0  0
  -18.9340  -30.2070   23.9760 C   0  0  0  0  0  3  0  0  0  0  0  0
  -17.6260  -30.7040   24.1370 C   0  0  0  0  0  3  0  0  0  0  0  0
  -16.5260  -29.9290   23.7320 C   0  0  0  0  0  3  0  0  0  0  0  0
  -16.7340  -28.6620   23.1590 C   0  0  0  0  0  3  0  0  0  0  0  0
  -25.8900  -32.6210   23.8500 C   0  0  0  0  0  3  0  0  0  0  0  0
  -26.4180  -31.8520   25.1220 C   0  0  1  0  0  0  0  0  0  0  0  0
  -25.3320  -31.6030   26.1950 C   0  0  0  0  0  1  0  0  0  0  0  0
  -27.0130  -30.4810   24.7280 C   0  0  0  0  0  1  0  0  0  0  0  0
  -27.5670  -32.6540   25.7780 C   0  0  0  0  0  1  0  0  0  0  0  0
  -25.5730  -34.0180   24.1840 N   0  0  0  0  0  0  0  0  0  0  0  0
  -25.8990  -35.0750   23.4270 C   0  0  0  0  0  0  0  0  0  0  0  0
  -26.5670  -34.9770   22.3940 O   0  0  0  0  0  0  0  0  0  0  0  0
  -24.9810  -34.1670   24.9870 H   0  0  0  0  0  0  0  0  0  0  0  0
  -24.1670  -36.8660   23.0730 C   0  0  0  0  0  1  0  0  0  0  0  0
  -25.4050  -36.4600   23.8880 C   0  0  0  0  0  3  0  0  0  0  0  0
  -27.5370  -37.3430   24.7270 C   0  0  0  0  0  1  0  0  0  0  0  0
  -26.4350  -37.5170   23.7840 N   0  0  0  0  0  0  0  0  0  0  0  0
  -26.0270  -38.4350   23.9410 H   0  0  0  0  0  0  0  0  0  0  0  0
  -31.3930  -24.0860   20.5350 C   0  0  0  0  0  2  0  0  0  0  0  0
  -32.6770  -24.4800   18.5740 C   0  0  0  0  0  1  0  0  0  0  0  0
  -31.5920  -23.7760   19.1590 O   0  0  0  0  0  0  0  0  0  0  0  0
  1  4  1  0
  1  7  2  0
  2  3  1  0
  2  6  1  0
  3 53  1  0
  3  4  1  0
  4  5  1  1
  6  1  1  0
  8 12  1  0
  9 13  2  0
 11  8  2  0
 11  9  1  0
 12  6  1  0
 12 10  2  0
 13 10  1  0
 13 23  1  0
 14 11  1  0
 15 23  1  0
 16 21  1  0
 17 18  1  0
 17 16  1  0
 19 18  1  0
 19 28  1  0
 19 20  1  0
 21 15  1  0
 21 20  1  0
 22 15  2  0
 23 24  1  0
 25 26  2  0
 26 45  1  0
 27 26  1  0
 27 30  1  0
 28 25  1  0
 28 29  1  0
 29 27  2  0
 30 31  1  0
 31 32  2  0
 33 36  1  0
 33 32  1  0
 34 33  2  0
 35 34  1  0
 35 30  2  0
 36 37  1  0
 37 38  1  0
 38 39  2  0
 40 39  1  0
 40 44  1  0
 41 40  2  0
 42 37  2  0
 42 41  1  0
 43 42  1  0
 45 46  1  0
 46 49  1  0
 46 48  1  0
 47 45  2  0
 50 51  1  0
 50 25  1  0
 52 50  1  0
 54 53  1  0
 55 66  2  0
 56 54  1  0
 56 61  1  0
 57 65  1  0
 57 67  1  0
 58 64  1  0
 58 60  1  0
 59 65  1  0
 60 61  2  0
 60 59  1  0
 62 63  1  0
 62 56  2  0
 63 58  2  0
 64 57  1  0
 65 55  1  0
 67 69  2  0
 68 67  1  0
 70 68  1  0
 71 80  2  0
 71 76  1  0
 72 68  1  0
 72 76  1  0
 73 72  1  0
 74 75  1  0
 74 73  1  0
 75 71  1  0
 76 77  2  0
 77 78  1  0
 79 78  2  0
 80 79  1  0
 81 55  1  0
 81 86  1  0
 81 82  1  0
 82 85  1  1
 82 83  1  0
 84 82  1  0
 86 89  1  0
 87 91  1  0
 87 86  1  0
 88 87  2  0
 91 90  1  0
 93 91  1  0
 93 94  1  0
 93 92  1  0
 95  4  1  0
 96 97  1  0
 97 95  1  0
M  ISO  4  15 100  23 100  53 101  54 101
M  END
>  <TORSDO>  (57) 
F 20

>  <SCORE>  (57) 
-13.833

>  <name>  (57) 
56

>  <ligand_id>  (57) 
56

>  <original_smiles>  (57) 
[H]c1c([H])c([H])c2c(c1[H])C([H])([H])C([H])([H])C([H])([H])C2([H])N([H])C(=O)C1([H])N(C(=O)C([H])(N([H])C(=O)C([H])(N([H])C([H])([H])[H])C([H])([H])[H])C(C([H])([H])[H])(C([H])([H])[H])C([H])([H])[H])C([H])([H])c2c([H])c(OC([H])([H])C3([H])C([H])([H])N(c4c([H])c(N([H])C(=O)N5C([H])([H])C([H])([H])C([H])([H])C([H])(n6nc(-c7c([H])c([H])c(Oc8c([H])c([H])c(F)c([H])c8F)c([H])c7[H])c(C(=O)N([H])[H])c6N([H])[H])C5([H])[H])c([H])c(C([H])([H])[H])c4[H])C(=O)C3(C([H])([H])[H])C([H])([H])OC([H])([H])[H])c([H])c([H])c2C1([H])[H]

>  <smiles>  (57) 
[H]c1c([H])c([H])c2c(c1[H])C([H])([H])C([H])([H])C([H])([H])C2([H])N([H])C(=O)C1([H])N(C(=O)C([H])(N([H])C(=O)C([H])(N([H])C([H])([H])[H])C([H])([H])[H])C(C([H])([H])[H])(C([H])([H])[H])C([H])([H])[H])C([H])([H])c2c([H])c(OC([H])([H])C3([H])C([H])([H])N(c4c([H])c(N([H])C(=O)N5C([H])([H])C([H])([H])C([H])([H])C([H])(n6nc(-c7c([H])c([H])c(Oc8c([H])c([H])c(F)c([H])c8F)c([H])c7[H])c(C(=O)N([H])[H])c6N([H])[H])C5([H])[H])c([H])c(C([H])([H])[H])c4[H])C(=O)C3(C([H])([H])[H])C([H])([H])OC([H])([H])[H])c([H])c([H])c2C1([H])[H]

$$$$
57:0:0
     RDKit          3D

 94103  0  0  1  0  0  0  0  0999 V2000
  -28.2530  -22.5150   19.9080 C   0  0  0  0  0  0  0  0  0  0  0  0
  -27.3270  -20.5700   19.1580 C   0  0  0  0  0  0  0  0  0  0  0  0
  -28.8930  -23.6010   20.5130 C   0  0  0  0  0  3  0  0  0  0  0  0
  -26.8370  -22.7880   19.4140 C   0  0  0  0  0  2  0  0  0  0  0  0
  -26.4370  -21.6220   18.5620 C   0  0  0  0  0  2  0  0  0  0  0  0
  -28.5130  -21.0640   19.6050 N   0  0  0  0  0  0  0  0  0  0  0  0
  -26.8900  -19.4230   19.2980 O   0  0  0  0  0  0  0  0  0  0  0  0
  -31.5380  -19.4590   21.3390 C   0  0  0  0  0  3  0  0  0  0  0  0
  -30.6440  -20.4160   20.8000 C   0  0  0  0  0  3  0  0  0  0  0  0
  -31.3810  -18.0670   21.1330 C   0  0  0  0  0  3  0  0  0  0  0  0
  -29.5240  -18.5740   19.6600 C   0  0  0  0  0  0  0  0  0  0  0  0
  -29.5670  -20.0300   19.9730 C   0  0  0  0  0  0  0  0  0  0  0  0
  -30.3590  -17.5590   20.3050 C   0  0  0  0  0  0  0  0  0  0  0  0
  -28.6240  -18.0310   18.5530 C   0  0  0  0  0  1  0  0  0  0  0  0
  -30.9340  -14.9500   20.0660 C   0  0  0  0  0  0  0  0  0  0  0  0
  -30.7050  -12.6540   19.0740 C   0  0  0  0  0  2  0  0  0  0  0  0
  -29.7130  -12.7090   17.8910 C   0  0  0  0  0  2  0  0  0  0  0  0
  -28.2620  -12.5410   18.3860 C   0  0  0  0  0  2  0  0  0  0  0  0
  -27.9390  -13.4450   19.6060 C   0  0  0  0  0  3  0  0  0  0  0  0
  -29.0450  -13.3620   20.6800 C   0  0  0  0  0  2  0  0  0  0  0  0
  -30.3120  -13.7180   20.0260 N   0  0  0  0  0  0  0  0  0  0  0  0
  -32.1230  -15.0380   19.7460 O   0  0  0  0  0  0  0  0  0  0  0  0
  -30.1200  -16.0780   20.1960 N   0  0  0  0  0  0  0  0  0  0  0  0
  -29.1470  -15.8220   20.2480 H   0  0  0  0  0  0  0  0  0  0  0  0
  -25.6110  -14.0680   20.4830 C   0  0  0  0  0  0  0  0  0  0  0  0
  -24.5440  -13.3100   20.8770 C   0  0  0  0  0  0  0  0  0  0  0  0
  -24.9650  -11.9490   20.7670 C   0  0  0  0  0  0  0  0  0  0  0  0
  -26.6150  -13.1710   20.1560 N   0  0  0  0  0  0  0  0  0  0  0  0
  -26.2370  -11.8890   20.3910 N   0  0  0  0  0  0  0  0  0  0  0  0
  -24.2110  -10.7000   20.9400 C   0  0  0  0  0  0  0  0  0  0  0  0
  -24.6380   -9.6980   21.8400 C   0  0  0  0  0  3  0  0  0  0  0  0
  -23.8850   -8.5160   22.0030 C   0  0  0  0  0  3  0  0  0  0  0  0
  -22.6920   -8.3270   21.2670 C   0  0  0  0  0  0  0  0  0  0  0  0
  -22.2840   -9.3160   20.3550 C   0  0  0  0  0  3  0  0  0  0  0  0
  -23.0360  -10.4910   20.1900 C   0  0  0  0  0  3  0  0  0  0  0  0
  -21.9100   -7.2000   21.3420 O   0  0  0  0  0  0  0  0  0  0  0  0
  -21.8300   -6.4540   22.4900 C   0  0  0  0  0  0  0  0  0  0  0  0
  -21.3730   -7.0080   23.7060 C   0  0  0  0  0  3  0  0  0  0  0  0
  -21.2400   -6.1910   24.8460 C   0  0  0  0  0  3  0  0  0  0  0  0
  -21.5520   -4.8200   24.7710 C   0  0  0  0  0  0  0  0  0  0  0  0
  -22.0020   -4.2650   23.5590 C   0  0  0  0  0  3  0  0  0  0  0  0
  -22.1370   -5.0800   22.4210 C   0  0  0  0  0  0  0  0  0  0  0  0
  -22.5490   -4.5370   21.2510 F   0  0  0  0  0  0  0  0  0  0  0  0
  -21.4170   -4.0310   25.8620 F   0  0  0  0  0  0  0  0  0  0  0  0
  -23.1760  -13.8130   21.2350 C   0  0  0  0  0  0  0  0  0  0  0  0
  -22.4770  -13.1150   22.1240 N   0  0  0  0  0  0  0  0  0  0  0  0
  -22.7370  -14.8610   20.7620 O   0  0  0  0  0  0  0  0  0  0  0  0
  -22.8440  -12.2670   22.5280 H   0  0  0  0  0  0  0  0  0  0  0  0
  -21.5620  -13.4370   22.4060 H   0  0  0  0  0  0  0  0  0  0  0  0
  -25.8010  -15.4380   20.3480 N   0  0  0  0  0  0  0  0  0  0  0  0
  -25.0570  -16.1030   20.5300 H   0  0  0  0  0  0  0  0  0  0  0  0
  -26.6230  -15.8670   19.9540 H   0  0  0  0  0  0  0  0  0  0  0  0
  -28.1440  -24.9790   20.9650 C   0  0  0  0  0  2  0  0  0  0  0  0
  -28.5130  -26.3980   20.5870 O   0  0  0  0  0  0  0  0  0  0  0  0
  -24.5660  -31.9380   23.2860 C   0  0  0  0  0  0  0  0  0  0  0  0
  -27.4440  -27.3290   20.4810 C   0  0  0  0  0  0  0  0  0  0  0  0
  -23.5020  -30.5030   21.5810 C   0  0  0  0  0  3  0  0  0  0  0  0
  -25.0770  -28.9560   20.2770 C   0  0  0  0  0  0  0  0  0  0  0  0
  -26.0500  -30.8450   21.5790 C   0  0  0  0  0  2  0  0  0  0  0  0
  -26.2010  -29.4540   20.9530 C   0  0  0  0  0  0  0  0  0  0  0  0
  -27.3920  -28.6560   21.0400 C   0  0  0  0  0  3  0  0  0  0  0  0
  -26.3050  -26.9090   19.7660 C   0  0  0  0  0  3  0  0  0  0  0  0
  -25.1370  -27.6920   19.6700 C   0  0  0  0  0  3  0  0  0  0  0  0
  -23.8280  -29.8170   20.2280 C   0  0  0  0  0  2  0  0  0  0  0  0
  -24.7210  -31.1140   22.2060 N   0  0  0  0  0  0  0  0  0  0  0  0
  -23.4430  -32.2050   23.7390 O   0  0  0  0  0  0  0  0  0  0  0  0
  -22.7860  -29.4880   22.5060 C   0  0  0  0  0  0  0  0  0  0  0  0
  -21.4680  -29.3080   22.3080 N   0  0  0  0  0  0  0  0  0  0  0  0
  -23.4170  -28.8660   23.3630 O   0  0  0  0  0  0  0  0  0  0  0  0
  -21.0150  -29.8620   21.5950 H   0  0  0  0  0  0  0  0  0  0  0  0
  -18.0600  -28.1460   22.6780 C   0  0  0  0  0  0  0  0  0  0  0  0
  -20.6110  -28.3670   23.0340 C   0  0  0  0  0  3  0  0  0  0  0  0
  -20.7150  -26.9440   22.4380 C   0  0  0  0  0  2  0  0  0  0  0  0
  -19.6420  -26.6540   21.3830 C   0  0  0  0  0  2  0  0  0  0  0  0
  -18.2420  -26.8070   21.9840 C   0  0  0  0  0  2  0  0  0  0  0  0
  -19.1730  -28.8860   23.1570 C   0  0  0  0  0  0  0  0  0  0  0  0
  -18.9500  -30.1410   23.7650 C   0  0  0  0  0  3  0  0  0  0  0  0
  -17.6470  -30.6550   23.8970 C   0  0  0  0  0  3  0  0  0  0  0  0
  -16.5480  -29.9130   23.4330 C   0  0  0  0  0  3  0  0  0  0  0  0
  -16.7550  -28.6600   22.8290 C   0  0  0  0  0  3  0  0  0  0  0  0
  -25.7900  -32.6010   23.9880 C   0  0  0  0  0  3  0  0  0  0  0  0
  -25.4480  -34.0090   24.2430 N   0  0  0  0  0  0  0  0  0  0  0  0
  -25.8260  -35.0370   23.4730 C   0  0  0  0  0  0  0  0  0  0  0  0
  -26.5660  -34.9030   22.4950 O   0  0  0  0  0  0  0  0  0  0  0  0
  -24.7990  -34.1860   24.9960 H   0  0  0  0  0  0  0  0  0  0  0  0
  -24.1120  -36.8020   22.9460 C   0  0  0  0  0  1  0  0  0  0  0  0
  -25.3020  -36.4370   23.8480 C   0  0  0  0  0  3  0  0  0  0  0  0
  -27.3700  -37.3760   24.7800 C   0  0  0  0  0  1  0  0  0  0  0  0
  -26.3320  -37.4950   23.7610 N   0  0  0  0  0  0  0  0  0  0  0  0
  -25.9100  -38.4160   23.8420 H   0  0  0  0  0  0  0  0  0  0  0  0
  -26.2010  -31.8790   25.3300 C   0  0  1  0  0  0  0  0  0  0  0  0
  -25.0170  -31.6380   26.2940 C   0  0  0  0  0  1  0  0  0  0  0  0
  -26.8550  -30.5090   25.0390 C   0  0  0  0  0  1  0  0  0  0  0  0
  -27.2600  -32.7240   26.0770 C   0  0  0  0  0  1  0  0  0  0  0  0
  1  3  2  0
  2  7  2  0
  2  6  1  0
  3 53  1  0
  4  1  1  0
  5  2  1  0
  5  4  1  0
  6  1  1  0
  6 12  1  0
  9  8  2  0
 10  8  1  0
 11 12  2  0
 11 13  1  0
 12  9  1  0
 13 10  2  0
 14 11  1  0
 15 23  1  0
 16 21  1  0
 17 18  1  0
 17 16  1  0
 19 18  1  0
 19 28  1  0
 19 20  1  0
 21 15  1  0
 21 20  1  0
 22 15  2  0
 23 24  1  0
 23 13  1  0
 25 26  2  0
 26 45  1  0
 27 26  1  0
 27 30  1  0
 28 29  1  0
 28 25  1  0
 29 27  2  0
 30 31  1  0
 31 32  2  0
 33 36  1  0
 33 32  1  0
 34 33  2  0
 35 34  1  0
 35 30  2  0
 36 37  1  0
 37 38  1  0
 38 39  2  0
 40 39  1  0
 40 44  1  0
 41 40  2  0
 42 37  2  0
 42 41  1  0
 43 42  1  0
 45 46  1  0
 46 49  1  0
 46 48  1  0
 47 45  2  0
 50 25  1  0
 50 51  1  0
 52 50  1  0
 54 53  1  0
 55 66  2  0
 56 54  1  0
 56 61  1  0
 57 65  1  0
 57 67  1  0
 58 60  1  0
 59 65  1  0
 60 61  2  0
 60 59  1  0
 62 56  2  0
 63 62  1  0
 63 58  2  0
 64 58  1  0
 64 57  1  0
 65 55  1  0
 67 69  2  0
 68 67  1  0
 70 68  1  0
 71 80  2  0
 71 76  1  0
 72 68  1  0
 72 76  1  0
 73 72  1  0
 74 75  1  0
 74 73  1  0
 75 71  1  0
 76 77  2  0
 77 78  1  0
 79 78  2  0
 80 79  1  0
 81 55  1  0
 81 82  1  0
 81 91  1  0
 82 85  1  0
 83 87  1  0
 83 82  1  0
 84 83  2  0
 87 86  1  0
 89 90  1  0
 89 87  1  0
 89 88  1  0
 91 94  1  1
 91 92  1  0
 93 91  1  0
M  ISO  4  15 100  23 100  53 101  54 101
M  END
>  <TORSDO>  (58) 
F 18

>  <SCORE>  (58) 
-14.559

>  <name>  (58) 
57

>  <ligand_id>  (58) 
57

>  <original_smiles>  (58) 
[H]C(=C1N(c2c([H])c([H])c([H])c(N([H])C(=O)N3C([H])([H])C([H])([H])C([H])([H])C([H])(n4nc(-c5c([H])c([H])c(Oc6c([H])c([H])c(F)c([H])c6F)c([H])c5[H])c(C(=O)N([H])[H])c4N([H])[H])C3([H])[H])c2C([H])([H])[H])C(=O)C([H])([H])C1([H])[H])C([H])([H])Oc1c([H])c([H])c2c(c1[H])C([H])([H])N(C(=O)C([H])(N([H])C(=O)C([H])(N([H])C([H])([H])[H])C([H])([H])[H])C(C([H])([H])[H])(C([H])([H])[H])C([H])([H])[H])C([H])(C(=O)N([H])C1([H])c3c([H])c([H])c([H])c([H])c3C([H])([H])C([H])([H])C1([H])[H])C2([H])[H]

>  <smiles>  (58) 
[H]C(=C1N(c2c([H])c([H])c([H])c(N([H])C(=O)N3C([H])([H])C([H])([H])C([H])([H])C([H])(n4nc(-c5c([H])c([H])c(Oc6c([H])c([H])c(F)c([H])c6F)c([H])c5[H])c(C(=O)N([H])[H])c4N([H])[H])C3([H])[H])c2C([H])([H])[H])C(=O)C([H])([H])C1([H])[H])C([H])([H])Oc1c([H])c([H])c2c(c1[H])C([H])([H])N(C(=O)C([H])(N([H])C(=O)C([H])(N([H])C([H])([H])[H])C([H])([H])[H])C(C([H])([H])[H])(C([H])([H])[H])C([H])([H])[H])C([H])(C(=O)N([H])C1([H])c3c([H])c([H])c([H])c([H])c3C([H])([H])C([H])([H])C1([H])[H])C2([H])[H]

$$$$
58:0:0
     RDKit          3D

 93101  0  0  1  0  0  0  0  0999 V2000
  -29.2310  -23.1640   20.5280 C   0  0  0  0  0  0  0  0  0  0  0  0
  -29.1330  -21.8950   20.0310 N   0  0  0  0  0  0  0  0  0  0  0  0
  -29.6160  -23.4160   21.6790 O   0  0  0  0  0  0  0  0  0  0  0  0
  -29.1990  -21.8200   19.0190 H   0  0  0  0  0  0  0  0  0  0  0  0
  -29.2660  -20.7110   20.7200 C   0  0  0  0  0  0  0  0  0  0  0  0
  -28.9100  -20.4940   22.3520 S   0  0  0  0  0  0  0  0  0  0  0  0
  -31.2490  -18.8070   18.0810 C   0  0  0  0  0  3  0  0  0  0  0  0
  -30.5800  -19.8310   18.7640 C   0  0  0  0  0  3  0  0  0  0  0  0
  -31.1660  -17.4790   18.5210 C   0  0  0  0  0  3  0  0  0  0  0  0
  -29.6520  -18.1750   20.2890 C   0  0  0  0  0  3  0  0  0  0  0  0
  -29.7800  -19.5520   19.9030 C   0  0  0  0  0  0  0  0  0  0  0  0
  -30.3680  -17.1340   19.6380 C   0  0  0  0  0  0  0  0  0  0  0  0
  -31.0460  -14.7140   19.9070 C   0  0  0  0  0  0  0  0  0  0  0  0
  -30.7450  -12.4740   18.9570 C   0  0  0  0  0  2  0  0  0  0  0  0
  -29.7670  -12.6450   17.7720 C   0  0  0  0  0  2  0  0  0  0  0  0
  -28.2990  -12.5690   18.2470 C   0  0  0  0  0  2  0  0  0  0  0  0
  -28.0120  -13.4190   19.5150 C   0  0  0  0  0  3  0  0  0  0  0  0
  -29.1180  -13.2450   20.5780 C   0  0  0  0  0  2  0  0  0  0  0  0
  -30.4130  -13.5130   19.9370 N   0  0  0  0  0  0  0  0  0  0  0  0
  -32.2120  -14.8330   19.5210 O   0  0  0  0  0  0  0  0  0  0  0  0
  -30.2440  -15.7820   20.1220 N   0  0  0  0  0  0  0  0  0  0  0  0
  -29.3550  -15.5520   20.5330 H   0  0  0  0  0  0  0  0  0  0  0  0
  -25.6800  -14.0360   20.4080 C   0  0  0  0  0  0  0  0  0  0  0  0
  -24.6220  -13.2700   20.8120 C   0  0  0  0  0  0  0  0  0  0  0  0
  -25.0510  -11.9120   20.6950 C   0  0  0  0  0  0  0  0  0  0  0  0
  -26.6860  -13.1440   20.0690 N   0  0  0  0  0  0  0  0  0  0  0  0
  -26.3180  -11.8580   20.3060 N   0  0  0  0  0  0  0  0  0  0  0  0
  -24.3080  -10.6570   20.8810 C   0  0  0  0  0  0  0  0  0  0  0  0
  -24.6550   -9.7330   21.8900 C   0  0  0  0  0  3  0  0  0  0  0  0
  -23.9120   -8.5450   22.0600 C   0  0  0  0  0  3  0  0  0  0  0  0
  -22.8120   -8.2700   21.2160 C   0  0  0  0  0  0  0  0  0  0  0  0
  -22.4810   -9.1830   20.1980 C   0  0  0  0  0  3  0  0  0  0  0  0
  -23.2260  -10.3630   20.0280 C   0  0  0  0  0  3  0  0  0  0  0  0
  -22.0520   -7.1300   21.2860 O   0  0  0  0  0  0  0  0  0  0  0  0
  -21.7430   -6.5430   22.4870 C   0  0  0  0  0  0  0  0  0  0  0  0
  -21.0030   -7.2240   23.4800 C   0  0  0  0  0  3  0  0  0  0  0  0
  -20.6500   -6.5650   24.6720 C   0  0  0  0  0  3  0  0  0  0  0  0
  -21.0210   -5.2200   24.8710 C   0  0  0  0  0  0  0  0  0  0  0  0
  -21.7490   -4.5380   23.8800 C   0  0  0  0  0  3  0  0  0  0  0  0
  -22.1040   -5.1970   22.6900 C   0  0  0  0  0  0  0  0  0  0  0  0
  -22.7900   -4.5260   21.7330 F   0  0  0  0  0  0  0  0  0  0  0  0
  -20.6710   -4.5810   26.0130 F   0  0  0  0  0  0  0  0  0  0  0  0
  -23.2510  -13.7650   21.1790 C   0  0  0  0  0  0  0  0  0  0  0  0
  -22.5650  -13.0600   22.0690 N   0  0  0  0  0  0  0  0  0  0  0  0
  -22.8050  -14.8180   20.7230 O   0  0  0  0  0  0  0  0  0  0  0  0
  -22.9410  -12.2160   22.4730 H   0  0  0  0  0  0  0  0  0  0  0  0
  -21.6490  -13.3730   22.3610 H   0  0  0  0  0  0  0  0  0  0  0  0
  -25.8560  -15.4110   20.2800 N   0  0  0  0  0  0  0  0  0  0  0  0
  -25.1030  -16.0590   20.4830 H   0  0  0  0  0  0  0  0  0  0  0  0
  -26.6710  -15.8620   19.8840 H   0  0  0  0  0  0  0  0  0  0  0  0
  -28.9290  -24.3600   19.5900 C   0  0  0  0  0  2  0  0  0  0  0  0
  -28.6390  -25.6810   20.3790 C   0  0  0  0  0  2  0  0  0  0  0  0
  -28.4460  -26.8730   19.5880 O   0  0  0  0  0  0  0  0  0  0  0  0
  -24.4960  -31.7630   23.0300 C   0  0  0  0  0  0  0  0  0  0  0  0
  -27.2420  -27.5360   19.7240 C   0  0  0  0  0  0  0  0  0  0  0  0
  -23.3060  -30.3790   21.3620 C   0  0  0  0  0  3  0  0  0  0  0  0
  -24.7860  -28.9390   19.8630 C   0  0  0  0  0  0  0  0  0  0  0  0
  -25.8120  -30.8400   21.1190 C   0  0  0  0  0  2  0  0  0  0  0  0
  -25.9400  -29.4950   20.4300 C   0  0  0  0  0  0  0  0  0  0  0  0
  -27.1700  -28.8040   20.3500 C   0  0  0  0  0  3  0  0  0  0  0  0
  -26.0660  -26.9820   19.1730 C   0  0  0  0  0  3  0  0  0  0  0  0
  -24.8470  -27.6820   19.2310 C   0  0  0  0  0  3  0  0  0  0  0  0
  -23.5150  -29.7500   19.9580 C   0  0  0  0  0  2  0  0  0  0  0  0
  -24.5590  -31.0090   21.8960 N   0  0  0  0  0  0  0  0  0  0  0  0
  -23.4200  -31.9690   23.6050 O   0  0  0  0  0  0  0  0  0  0  0  0
  -22.7140  -29.3030   22.3000 C   0  0  0  0  0  0  0  0  0  0  0  0
  -21.3970  -29.0620   22.1820 N   0  0  0  0  0  0  0  0  0  0  0  0
  -23.4370  -28.6870   23.0890 O   0  0  0  0  0  0  0  0  0  0  0  0
  -20.8730  -29.6130   21.5170 H   0  0  0  0  0  0  0  0  0  0  0  0
  -18.0900  -27.6950   22.6790 C   0  0  0  0  0  0  0  0  0  0  0  0
  -20.6360  -28.0650   22.9320 C   0  0  0  0  0  3  0  0  0  0  0  0
  -20.8000  -26.6590   22.3070 C   0  0  0  0  0  2  0  0  0  0  0  0
  -19.7020  -26.3160   21.2960 C   0  0  0  0  0  2  0  0  0  0  0  0
  -18.3220  -26.3760   21.9570 C   0  0  0  0  0  2  0  0  0  0  0  0
  -19.1770  -28.4930   23.1220 C   0  0  0  0  0  0  0  0  0  0  0  0
  -18.9060  -29.7240   23.7570 C   0  0  0  0  0  3  0  0  0  0  0  0
  -17.5810  -30.1570   23.9580 C   0  0  0  0  0  3  0  0  0  0  0  0
  -16.5100  -29.3540   23.5290 C   0  0  0  0  0  3  0  0  0  0  0  0
  -16.7640  -28.1250   22.8960 C   0  0  0  0  0  3  0  0  0  0  0  0
  -25.7720  -32.4180   23.6510 C   0  0  0  0  0  3  0  0  0  0  0  0
  -26.3630  -31.6080   24.8690 C   0  0  1  0  0  0  0  0  0  0  0  0
  -25.3190  -31.2630   25.9550 C   0  0  0  0  0  1  0  0  0  0  0  0
  -26.9980  -30.2810   24.3880 C   0  0  0  0  0  1  0  0  0  0  0  0
  -27.4970  -32.4220   25.5350 C   0  0  0  0  0  1  0  0  0  0  0  0
  -25.4140  -33.7840   24.0570 N   0  0  0  0  0  0  0  0  0  0  0  0
  -25.6960  -34.8860   23.3510 C   0  0  0  0  0  0  0  0  0  0  0  0
  -26.3560  -34.8600   22.3060 O   0  0  0  0  0  0  0  0  0  0  0  0
  -24.8200  -33.8700   24.8720 H   0  0  0  0  0  0  0  0  0  0  0  0
  -23.9050  -36.6360   23.1030 C   0  0  0  0  0  1  0  0  0  0  0  0
  -25.1630  -36.2290   23.8880 C   0  0  0  0  0  3  0  0  0  0  0  0
  -27.2670  -37.1450   24.7670 C   0  0  0  0  0  1  0  0  0  0  0  0
  -26.1590  -37.3210   23.8310 N   0  0  0  0  0  0  0  0  0  0  0  0
  -25.7200  -38.2160   24.0240 H   0  0  0  0  0  0  0  0  0  0  0  0
  1  3  2  0
  2  1  1  0
  2  5  1  0
  4  2  1  0
  5  6  2  0
  7  9  2  0
  7  8  1  0
  8 11  2  0
  9 12  1  0
 11 10  1  0
 11  5  1  0
 12 21  1  0
 12 10  2  0
 13 19  1  0
 13 21  1  0
 14 19  1  0
 15 16  1  0
 15 14  1  0
 17 16  1  0
 17 26  1  0
 17 18  1  0
 19 18  1  0
 20 13  2  0
 21 22  1  0
 23 24  2  0
 24 43  1  0
 25 24  1  0
 25 28  1  0
 26 27  1  0
 26 23  1  0
 27 25  2  0
 28 29  1  0
 29 30  2  0
 31 34  1  0
 31 30  1  0
 32 31  2  0
 33 32  1  0
 33 28  2  0
 34 35  1  0
 35 40  2  0
 35 36  1  0
 36 37  2  0
 37 38  1  0
 38 42  1  0
 39 38  2  0
 40 39  1  0
 41 40  1  0
 43 44  1  0
 44 47  1  0
 44 46  1  0
 45 43  2  0
 48 23  1  0
 48 49  1  0
 50 48  1  0
 51 52  1  0
 51  1  1  0
 53 55  1  0
 53 52  1  0
 54 65  2  0
 55 60  1  0
 56 64  1  0
 56 66  1  0
 57 63  1  0
 57 59  1  0
 58 64  1  0
 59 58  1  0
 60 59  2  0
 61 62  1  0
 61 55  2  0
 62 57  2  0
 63 56  1  0
 64 54  1  0
 66 68  2  0
 67 66  1  0
 69 67  1  0
 70 79  2  0
 70 75  1  0
 71 67  1  0
 71 75  1  0
 72 71  1  0
 73 74  1  0
 73 72  1  0
 74 70  1  0
 75 76  2  0
 76 77  1  0
 78 77  2  0
 79 78  1  0
 80 54  1  0
 80 85  1  0
 80 81  1  0
 81 84  1  1
 81 82  1  0
 83 81  1  0
 85 88  1  0
 86 90  1  0
 86 85  1  0
 87 86  2  0
 90 89  1  0
 92 90  1  0
 92 93  1  0
 92 91  1  0
M  ISO  4  13 100  21 100  52 101  53 101
M  END
>  <TORSDO>  (59) 
F 20

>  <SCORE>  (59) 
-11.415

>  <name>  (59) 
58

>  <ligand_id>  (59) 
58

>  <original_smiles>  (59) 
[H]c1c([H])c(C(=S)N([H])C(=O)C([H])([H])C([H])([H])Oc2c([H])c([H])c3c(c2[H])C([H])([H])N(C(=O)C([H])(N([H])C(=O)C([H])(N([H])C([H])([H])[H])C([H])([H])[H])C(C([H])([H])[H])(C([H])([H])[H])C([H])([H])[H])C([H])(C(=O)N([H])C2([H])c4c([H])c([H])c([H])c([H])c4C([H])([H])C([H])([H])C2([H])[H])C3([H])[H])c([H])c(N([H])C(=O)N2C([H])([H])C([H])([H])C([H])([H])C([H])(n3nc(-c4c([H])c([H])c(Oc5c([H])c([H])c(F)c([H])c5F)c([H])c4[H])c(C(=O)N([H])[H])c3N([H])[H])C2([H])[H])c1[H]

>  <smiles>  (59) 
[H]c1c([H])c(C(=S)N([H])C(=O)C([H])([H])C([H])([H])Oc2c([H])c([H])c3c(c2[H])C([H])([H])N(C(=O)C([H])(N([H])C(=O)C([H])(N([H])C([H])([H])[H])C([H])([H])[H])C(C([H])([H])[H])(C([H])([H])[H])C([H])([H])[H])C([H])(C(=O)N([H])C2([H])c4c([H])c([H])c([H])c([H])c4C([H])([H])C([H])([H])C2([H])[H])C3([H])[H])c([H])c(N([H])C(=O)N2C([H])([H])C([H])([H])C([H])([H])C([H])(n3nc(-c4c([H])c([H])c(Oc5c([H])c([H])c(F)c([H])c5F)c([H])c4[H])c(C(=O)N([H])[H])c3N([H])[H])C2([H])[H])c1[H]

$$$$
59:0:0
     RDKit          3D

 95103  0  0  1  0  0  0  0  0999 V2000
  -30.6100  -20.5630   21.1560 C   0  0  0  0  0  3  0  0  0  0  0  0
  -31.0810  -18.1510   21.2370 C   0  0  0  0  0  3  0  0  0  0  0  0
  -29.1640  -18.9910   19.9940 C   0  0  0  0  0  3  0  0  0  0  0  0
  -31.4000  -19.4780   21.5970 C   0  0  0  0  0  0  0  0  0  0  0  0
  -29.4700  -20.3880   20.3420 C   0  0  0  0  0  0  0  0  0  0  0  0
  -29.9620  -17.8350   20.4360 C   0  0  0  0  0  0  0  0  0  0  0  0
  -30.5060  -15.2550   20.1160 C   0  0  0  0  0  0  0  0  0  0  0  0
  -30.4060  -12.9270   19.1730 C   0  0  0  0  0  2  0  0  0  0  0  0
  -29.4270  -12.8800   17.9800 C   0  0  0  0  0  2  0  0  0  0  0  0
  -27.9840  -12.6410   18.4670 C   0  0  0  0  0  2  0  0  0  0  0  0
  -27.5950  -13.5580   19.6570 C   0  0  0  0  0  3  0  0  0  0  0  0
  -28.6900  -13.5850   20.7430 C   0  0  0  0  0  2  0  0  0  0  0  0
  -29.9340  -13.9980   20.0840 N   0  0  0  0  0  0  0  0  0  0  0  0
  -31.6980  -15.3730   19.8210 O   0  0  0  0  0  0  0  0  0  0  0  0
  -29.6710  -16.3790   20.1960 N   0  0  0  0  0  0  0  0  0  0  0  0
  -28.6910  -16.1520   20.1370 H   0  0  0  0  0  0  0  0  0  0  0  0
  -25.2340  -14.0670   20.5160 C   0  0  0  0  0  0  0  0  0  0  0  0
  -24.2060  -13.2560   20.9090 C   0  0  0  0  0  0  0  0  0  0  0  0
  -24.6990  -11.9180   20.8160 C   0  0  0  0  0  0  0  0  0  0  0  0
  -26.2860  -13.2210   20.2040 N   0  0  0  0  0  0  0  0  0  0  0  0
  -25.9750  -11.9210   20.4490 N   0  0  0  0  0  0  0  0  0  0  0  0
  -24.0110  -10.6340   20.9980 C   0  0  0  0  0  0  0  0  0  0  0  0
  -24.4730   -9.6710   21.9230 C   0  0  0  0  0  3  0  0  0  0  0  0
  -23.7820   -8.4530   22.0920 C   0  0  0  0  0  3  0  0  0  0  0  0
  -22.6150   -8.1870   21.3370 C   0  0  0  0  0  0  0  0  0  0  0  0
  -22.1720   -9.1380   20.4020 C   0  0  0  0  0  3  0  0  0  0  0  0
  -22.8640  -10.3490   20.2300 C   0  0  0  0  0  3  0  0  0  0  0  0
  -21.8930   -7.0210   21.4170 O   0  0  0  0  0  0  0  0  0  0  0  0
  -21.8280   -6.2930   22.5790 C   0  0  0  0  0  0  0  0  0  0  0  0
  -21.2990   -6.8350   23.7690 C   0  0  0  0  0  3  0  0  0  0  0  0
  -21.1870   -6.0300   24.9210 C   0  0  0  0  0  3  0  0  0  0  0  0
  -21.5940   -4.6840   24.8810 C   0  0  0  0  0  0  0  0  0  0  0  0
  -22.1160   -4.1400   23.6940 C   0  0  0  0  0  3  0  0  0  0  0  0
  -22.2300   -4.9410   22.5460 C   0  0  0  0  0  0  0  0  0  0  0  0
  -22.7140   -4.4070   21.3990 F   0  0  0  0  0  0  0  0  0  0  0  0
  -21.4790   -3.9080   25.9850 F   0  0  0  0  0  0  0  0  0  0  0  0
  -22.8110  -13.6910   21.2530 C   0  0  0  0  0  0  0  0  0  0  0  0
  -22.1380  -12.9530   22.1300 N   0  0  0  0  0  0  0  0  0  0  0  0
  -22.3270  -14.7190   20.7810 O   0  0  0  0  0  0  0  0  0  0  0  0
  -22.5440  -12.1220   22.5330 H   0  0  0  0  0  0  0  0  0  0  0  0
  -21.2040  -13.2240   22.4030 H   0  0  0  0  0  0  0  0  0  0  0  0
  -25.3560  -15.4460   20.3740 N   0  0  0  0  0  0  0  0  0  0  0  0
  -24.5740  -16.0700   20.5360 H   0  0  0  0  0  0  0  0  0  0  0  0
  -26.1650  -15.9200   19.9970 H   0  0  0  0  0  0  0  0  0  0  0  0
  -32.6350  -19.7380   22.4490 C   0  0  1  0  0  0  0  0  0  0  0  0
  -32.6020  -20.9490   23.0060 F   0  0  0  0  0  0  0  0  0  0  0  0
  -32.7320  -18.8360   23.4260 F   0  0  0  0  0  0  0  0  0  0  0  0
  -33.7220  -19.6530   21.6830 F   0  0  0  0  0  0  0  0  0  0  0  0
  -28.3190  -22.7160   20.6090 C   0  0  0  0  0  0  0  0  0  0  0  0
  -28.8310  -21.6590   19.8550 N   0  0  0  0  0  0  0  0  0  0  0  0
  -27.8390  -22.4150   21.7120 O   0  0  0  0  0  0  0  0  0  0  0  0
  -28.9930  -21.8790   18.8810 H   0  0  0  0  0  0  0  0  0  0  0  0
  -28.2800  -24.1530   20.0580 C   0  0  0  0  0  3  0  0  0  0  0  0
  -27.9390  -25.4740   20.4200 C   0  0  0  0  0  3  0  0  0  0  0  0
  -27.8470  -26.6780   19.6520 O   0  0  0  0  0  0  0  0  0  0  0  0
  -24.4580  -32.1120   23.2290 C   0  0  0  0  0  0  0  0  0  0  0  0
  -26.7780  -27.5920   19.8270 C   0  0  0  0  0  0  0  0  0  0  0  0
  -23.1260  -30.7950   21.6230 C   0  0  0  0  0  3  0  0  0  0  0  0
  -24.4530  -29.2740   20.0430 C   0  0  0  0  0  0  0  0  0  0  0  0
  -25.6560  -31.0740   21.2790 C   0  0  0  0  0  2  0  0  0  0  0  0
  -25.6720  -29.7130   20.5780 C   0  0  0  0  0  0  0  0  0  0  0  0
  -26.8410  -28.8850   20.4550 C   0  0  0  0  0  3  0  0  0  0  0  0
  -25.5340  -27.2210   19.2790 C   0  0  0  0  0  3  0  0  0  0  0  0
  -24.3880  -28.0360   19.3840 C   0  0  0  0  0  3  0  0  0  0  0  0
  -23.2390  -30.1700   20.2070 C   0  0  0  0  0  2  0  0  0  0  0  0
  -24.4380  -31.3450   22.0990 N   0  0  0  0  0  0  0  0  0  0  0  0
  -23.4180  -32.3790   23.8490 O   0  0  0  0  0  0  0  0  0  0  0  0
  -22.5140  -29.7500   22.5890 C   0  0  0  0  0  0  0  0  0  0  0  0
  -21.1950  -29.5150   22.4740 N   0  0  0  0  0  0  0  0  0  0  0  0
  -23.2250  -29.1530   23.4000 O   0  0  0  0  0  0  0  0  0  0  0  0
  -20.6760  -30.0500   21.7920 H   0  0  0  0  0  0  0  0  0  0  0  0
  -17.8950  -28.1050   22.9450 C   0  0  0  0  0  0  0  0  0  0  0  0
  -20.4260  -28.5400   23.2490 C   0  0  0  0  0  3  0  0  0  0  0  0
  -20.6320  -27.1080   22.7030 C   0  0  0  0  0  2  0  0  0  0  0  0
  -19.5720  -26.6940   21.6780 C   0  0  0  0  0  2  0  0  0  0  0  0
  -18.1730  -26.7580   22.2980 C   0  0  0  0  0  2  0  0  0  0  0  0
  -18.9530  -28.9470   23.3780 C   0  0  0  0  0  0  0  0  0  0  0  0
  -18.6400  -30.2040   23.9430 C   0  0  0  0  0  3  0  0  0  0  0  0
  -17.3010  -30.6170   24.0810 C   0  0  0  0  0  3  0  0  0  0  0  0
  -16.2580  -29.7720   23.6640 C   0  0  0  0  0  3  0  0  0  0  0  0
  -16.5560  -28.5180   23.1010 C   0  0  0  0  0  3  0  0  0  0  0  0
  -25.7870  -32.7070   23.7860 C   0  0  0  0  0  3  0  0  0  0  0  0
  -26.3550  -31.9080   25.0240 C   0  0  1  0  0  0  0  0  0  0  0  0
  -25.3100  -31.6620   26.1380 C   0  0  0  0  0  1  0  0  0  0  0  0
  -26.9040  -30.5320   24.5810 C   0  0  0  0  0  1  0  0  0  0  0  0
  -27.5450  -32.6780   25.6430 C   0  0  0  0  0  1  0  0  0  0  0  0
  -25.5300  -34.1080   24.1530 N   0  0  0  0  0  0  0  0  0  0  0  0
  -25.8670  -35.1670   23.4050 C   0  0  0  0  0  0  0  0  0  0  0  0
  -26.4940  -35.0650   22.3480 O   0  0  0  0  0  0  0  0  0  0  0  0
  -24.9710  -34.2630   24.9790 H   0  0  0  0  0  0  0  0  0  0  0  0
  -24.1900  -37.0250   23.1420 C   0  0  0  0  0  1  0  0  0  0  0  0
  -25.4400  -36.5600   23.9090 C   0  0  0  0  0  3  0  0  0  0  0  0
  -27.6210  -37.3580   24.7050 C   0  0  0  0  0  1  0  0  0  0  0  0
  -26.5030  -37.5810   23.7900 N   0  0  0  0  0  0  0  0  0  0  0  0
  -26.1310  -38.5110   23.9650 H   0  0  0  0  0  0  0  0  0  0  0  0
  1  4  1  0
  2  4  2  0
  3  5  1  0
  3  6  2  0
  4 45  1  0
  5  1  2  0
  6  2  1  0
  7 15  1  0
  8 13  1  0
  9 10  1  0
  9  8  1  0
 11 10  1  0
 11 20  1  0
 11 12  1  0
 13  7  1  0
 13 12  1  0
 14  7  2  0
 15  6  1  0
 16 15  1  0
 17 18  2  0
 18 37  1  0
 19 18  1  0
 19 22  1  0
 20 21  1  0
 20 17  1  0
 21 19  2  0
 22 23  1  0
 23 24  2  0
 25 28  1  0
 25 24  1  0
 26 25  2  0
 27 26  1  0
 27 22  2  0
 28 29  1  0
 29 30  1  0
 30 31  2  0
 32 31  1  0
 32 36  1  0
 33 32  2  0
 34 29  2  0
 34 33  1  0
 35 34  1  0
 37 38  1  0
 38 41  1  0
 38 40  1  0
 39 37  2  0
 42 17  1  0
 42 43  1  0
 44 42  1  0
 45 46  1  1
 45 47  1  0
 48 45  1  0
 49 51  2  0
 50  5  1  0
 50 49  1  0
 52 50  1  0
 53 54  2  0
 53 49  1  0
 55 57  1  0
 55 54  1  0
 56 67  2  0
 57 62  1  0
 58 66  1  0
 58 68  1  0
 59 65  1  0
 59 61  1  0
 60 66  1  0
 61 60  1  0
 62 61  2  0
 63 64  1  0
 63 57  2  0
 64 59  2  0
 65 58  1  0
 66 56  1  0
 68 70  2  0
 69 68  1  0
 71 69  1  0
 72 81  2  0
 72 77  1  0
 73 69  1  0
 73 77  1  0
 74 73  1  0
 75 76  1  0
 75 74  1  0
 76 72  1  0
 77 78  2  0
 78 79  1  0
 80 79  2  0
 81 80  1  0
 82 56  1  0
 82 87  1  0
 82 83  1  0
 83 86  1  1
 83 84  1  0
 85 83  1  0
 87 90  1  0
 88 92  1  0
 88 87  1  0
 89 88  2  0
 92 91  1  0
 94 92  1  0
 94 95  1  0
 94 93  1  0
M  ISO  4   7 100  15 100  54 101  55 101
M  END
>  <TORSDO>  (60) 
F 19

>  <SCORE>  (60) 
-13.554

>  <name>  (60) 
59

>  <ligand_id>  (60) 
59

>  <original_smiles>  (60) 
[H]C(Oc1c([H])c([H])c2c(c1[H])C([H])([H])N(C(=O)C([H])(N([H])C(=O)C([H])(N([H])C([H])([H])[H])C([H])([H])[H])C(C([H])([H])[H])(C([H])([H])[H])C([H])([H])[H])C([H])(C(=O)N([H])C1([H])c3c([H])c([H])c([H])c([H])c3C([H])([H])C([H])([H])C1([H])[H])C2([H])[H])=C([H])C(=O)N([H])c1c([H])c(N([H])C(=O)N2C([H])([H])C([H])([H])C([H])([H])C([H])(n3nc(-c4c([H])c([H])c(Oc5c([H])c([H])c(F)c([H])c5F)c([H])c4[H])c(C(=O)N([H])[H])c3N([H])[H])C2([H])[H])c([H])c(C(F)(F)F)c1[H]

>  <smiles>  (60) 
[H]C(Oc1c([H])c([H])c2c(c1[H])C([H])([H])N(C(=O)C([H])(N([H])C(=O)C([H])(N([H])C([H])([H])[H])C([H])([H])[H])C(C([H])([H])[H])(C([H])([H])[H])C([H])([H])[H])C([H])(C(=O)N([H])C1([H])c3c([H])c([H])c([H])c([H])c3C([H])([H])C([H])([H])C1([H])[H])C2([H])[H])=C([H])C(=O)N([H])c1c([H])c(N([H])C(=O)N2C([H])([H])C([H])([H])C([H])([H])C([H])(n3nc(-c4c([H])c([H])c(Oc5c([H])c([H])c(F)c([H])c5F)c([H])c4[H])c(C(=O)N([H])[H])c3N([H])[H])C2([H])[H])c([H])c(C(F)(F)F)c1[H]

$$$$
60:0:0
     RDKit          3D

 99108  0  0  1  0  0  0  0  0999 V2000
  -32.0610  -20.8500   19.0020 C   0  0  0  0  0  0  0  0  0  0  0  0
  -32.6680  -22.2480   19.1150 C   0  0  0  0  0  2  0  0  0  0  0  0
  -32.4330  -22.8810   20.4860 C   0  0  0  0  0  2  0  0  0  0  0  0
  -30.3130  -21.4450   20.6980 C   0  0  0  0  0  2  0  0  0  0  0  0
  -30.9490  -22.8440   20.8740 C   0  0  0  0  0  3  0  0  0  0  0  0
  -30.9110  -20.5690   19.6720 N   0  0  0  0  0  0  0  0  0  0  0  0
  -32.6310  -20.0330   18.2680 O   0  0  0  0  0  0  0  0  0  0  0  0
  -30.2910  -18.2710   20.2930 C   0  0  0  0  0  3  0  0  0  0  0  0
  -28.8120  -16.9700   18.8580 C   0  0  0  0  0  3  0  0  0  0  0  0
  -29.3690  -19.2660   18.2430 C   0  0  0  0  0  0  0  0  0  0  0  0
  -30.1980  -19.3650   19.3950 C   0  0  0  0  0  0  0  0  0  0  0  0
  -29.6070  -17.0650   20.0200 C   0  0  0  0  0  0  0  0  0  0  0  0
  -28.6970  -18.0570   17.9750 C   0  0  0  0  0  0  0  0  0  0  0  0
  -29.1650  -20.4340   17.2860 C   0  0  0  0  0  1  0  0  0  0  0  0
  -27.9300  -17.9330   16.8660 F   0  0  0  0  0  0  0  0  0  0  0  0
  -30.5230  -14.9370   20.6660 C   0  0  0  0  0  0  0  0  0  0  0  0
  -30.3630  -12.7740   19.5400 C   0  0  0  0  0  2  0  0  0  0  0  0
  -29.4290  -12.9510   18.3240 C   0  0  0  0  0  2  0  0  0  0  0  0
  -27.9520  -12.7570   18.7290 C   0  0  0  0  0  2  0  0  0  0  0  0
  -27.5550  -13.5400   20.0120 C   0  0  0  0  0  3  0  0  0  0  0  0
  -28.6130  -13.3650   21.1260 C   0  0  0  0  0  2  0  0  0  0  0  0
  -29.9280  -13.7230   20.5720 N   0  0  0  0  0  0  0  0  0  0  0  0
  -31.6850  -15.1600   20.3160 O   0  0  0  0  0  0  0  0  0  0  0  0
  -29.6830  -15.9540   20.9070 N   0  0  0  0  0  0  0  0  0  0  0  0
  -28.7940  -15.6450   21.2700 H   0  0  0  0  0  0  0  0  0  0  0  0
  -25.1190  -14.0060   20.6930 C   0  0  0  0  0  0  0  0  0  0  0  0
  -24.0880  -13.1700   21.0300 C   0  0  0  0  0  0  0  0  0  0  0  0
  -24.6240  -11.8460   20.9840 C   0  0  0  0  0  0  0  0  0  0  0  0
  -26.2130  -13.1850   20.4660 N   0  0  0  0  0  0  0  0  0  0  0  0
  -25.9200  -11.8810   20.7000 N   0  0  0  0  0  0  0  0  0  0  0  0
  -23.9640  -10.5440   21.1410 C   0  0  0  0  0  0  0  0  0  0  0  0
  -24.4100   -9.6020   22.0950 C   0  0  0  0  0  3  0  0  0  0  0  0
  -23.7510   -8.3620   22.2360 C   0  0  0  0  0  3  0  0  0  0  0  0
  -22.6330   -8.0560   21.4230 C   0  0  0  0  0  0  0  0  0  0  0  0
  -22.2060   -8.9890   20.4620 C   0  0  0  0  0  3  0  0  0  0  0  0
  -22.8680  -10.2200   20.3190 C   0  0  0  0  0  3  0  0  0  0  0  0
  -21.9470   -6.8670   21.4730 O   0  0  0  0  0  0  0  0  0  0  0  0
  -21.8540   -6.1360   22.6310 C   0  0  0  0  0  0  0  0  0  0  0  0
  -21.2820   -6.6690   23.8060 C   0  0  0  0  0  3  0  0  0  0  0  0
  -21.1410   -5.8620   24.9520 C   0  0  0  0  0  3  0  0  0  0  0  0
  -21.5690   -4.5210   24.9240 C   0  0  0  0  0  0  0  0  0  0  0  0
  -22.1360   -3.9840   23.7550 C   0  0  0  0  0  3  0  0  0  0  0  0
  -22.2750   -4.7890   22.6100 C   0  0  0  0  0  0  0  0  0  0  0  0
  -22.8030   -4.2620   21.4780 F   0  0  0  0  0  0  0  0  0  0  0  0
  -21.4270   -3.7410   26.0230 F   0  0  0  0  0  0  0  0  0  0  0  0
  -22.6630  -13.5660   21.2900 C   0  0  0  0  0  0  0  0  0  0  0  0
  -21.9570  -12.8160   22.1300 N   0  0  0  0  0  0  0  0  0  0  0  0
  -22.1800  -14.5790   20.7880 O   0  0  0  0  0  0  0  0  0  0  0  0
  -22.3530  -11.9950   22.5640 H   0  0  0  0  0  0  0  0  0  0  0  0
  -21.0060  -13.0780   22.3500 H   0  0  0  0  0  0  0  0  0  0  0  0
  -25.2170  -15.3860   20.5420 N   0  0  0  0  0  0  0  0  0  0  0  0
  -24.4190  -16.0060   20.6420 H   0  0  0  0  0  0  0  0  0  0  0  0
  -26.0500  -15.8670   20.2230 H   0  0  0  0  0  0  0  0  0  0  0  0
  -29.9340  -25.1150   20.6070 C   0  0  0  0  0  0  0  0  0  0  0  0
  -30.1480  -23.8590   20.1860 N   0  0  0  0  0  0  0  0  0  0  0  0
  -30.5100  -25.5910   21.5890 O   0  0  0  0  0  0  0  0  0  0  0  0
  -29.6160  -23.5600   19.3790 H   0  0  0  0  0  0  0  0  0  0  0  0
  -28.8870  -25.9320   19.8330 C   0  0  0  0  0  2  0  0  0  0  0  0
  -28.7840  -27.2510   20.3810 O   0  0  0  0  0  0  0  0  0  0  0  0
  -24.7220  -32.1310   23.5560 C   0  0  0  0  0  0  0  0  0  0  0  0
  -27.5630  -27.8950   20.3620 C   0  0  0  0  0  0  0  0  0  0  0  0
  -23.5880  -30.7520   21.8420 C   0  0  0  0  0  3  0  0  0  0  0  0
  -25.1130  -29.3130   20.3890 C   0  0  0  0  0  0  0  0  0  0  0  0
  -26.1030  -31.1950   21.7040 C   0  0  0  0  0  2  0  0  0  0  0  0
  -26.2400  -29.8500   21.0220 C   0  0  0  0  0  0  0  0  0  0  0  0
  -27.4620  -29.1430   21.0140 C   0  0  0  0  0  3  0  0  0  0  0  0
  -26.4160  -27.3750   19.7140 C   0  0  0  0  0  3  0  0  0  0  0  0
  -25.1960  -28.0750   19.7330 C   0  0  0  0  0  3  0  0  0  0  0  0
  -23.8410  -30.1260   20.4420 C   0  0  0  0  0  2  0  0  0  0  0  0
  -24.8210  -31.3720   22.4260 N   0  0  0  0  0  0  0  0  0  0  0  0
  -23.6230  -32.3500   24.0850 O   0  0  0  0  0  0  0  0  0  0  0  0
  -22.9550  -29.6760   22.7530 C   0  0  0  0  0  0  0  0  0  0  0  0
  -21.6460  -29.4400   22.5740 N   0  0  0  0  0  0  0  0  0  0  0  0
  -23.6380  -29.0580   23.5720 O   0  0  0  0  0  0  0  0  0  0  0  0
  -21.1540  -29.9950   21.8870 H   0  0  0  0  0  0  0  0  0  0  0  0
  -18.3150  -28.0830   22.9110 C   0  0  0  0  0  0  0  0  0  0  0  0
  -20.8450  -28.4470   23.2910 C   0  0  0  0  0  3  0  0  0  0  0  0
  -21.0360  -27.0380   22.6840 C   0  0  0  0  0  2  0  0  0  0  0  0
  -19.9890  -26.6910   21.6200 C   0  0  0  0  0  2  0  0  0  0  0  0
  -18.5790  -26.7600   22.2130 C   0  0  0  0  0  2  0  0  0  0  0  0
  -19.3810  -28.8840   23.4030 C   0  0  0  0  0  0  0  0  0  0  0  0
  -19.0830  -30.1220   24.0120 C   0  0  0  0  0  3  0  0  0  0  0  0
  -17.7510  -30.5610   24.1370 C   0  0  0  0  0  3  0  0  0  0  0  0
  -16.7000  -29.7560   23.6640 C   0  0  0  0  0  3  0  0  0  0  0  0
  -16.9820  -28.5200   23.0570 C   0  0  0  0  0  3  0  0  0  0  0  0
  -25.9770  -32.7780   24.2210 C   0  0  0  0  0  3  0  0  0  0  0  0
  -26.4460  -32.0260   25.5270 C   0  0  1  0  0  0  0  0  0  0  0  0
  -25.3090  -31.7820   26.5470 C   0  0  0  0  0  1  0  0  0  0  0  0
  -27.0680  -30.6560   25.1720 C   0  0  0  0  0  1  0  0  0  0  0  0
  -27.5500  -32.8470   26.2360 C   0  0  0  0  0  1  0  0  0  0  0  0
  -25.6470  -34.1770   24.5170 N   0  0  0  0  0  0  0  0  0  0  0  0
  -25.9740  -35.2160   23.7380 C   0  0  0  0  0  0  0  0  0  0  0  0
  -26.6590  -35.1000   22.7180 O   0  0  0  0  0  0  0  0  0  0  0  0
  -25.0450  -34.3420   25.3110 H   0  0  0  0  0  0  0  0  0  0  0  0
  -24.2110  -36.9660   23.3390 C   0  0  0  0  0  1  0  0  0  0  0  0
  -25.4620  -36.6080   24.1580 C   0  0  0  0  0  3  0  0  0  0  0  0
  -27.5790  -37.5600   24.9580 C   0  0  0  0  0  1  0  0  0  0  0  0
  -26.4740  -37.6760   24.0120 N   0  0  0  0  0  0  0  0  0  0  0  0
  -26.0500  -38.5930   24.1290 H   0  0  0  0  0  0  0  0  0  0  0  0
  1  2  1  0
  1  6  1  0
  2  3  1  0
  3  5  1  0
  4  5  1  0
  5 55  1  0
  6  4  1  0
  7  1  2  0
  9 12  2  0
 10 11  1  0
 11  6  1  0
 11  8  2  0
 12  8  1  0
 12 24  1  0
 13 10  2  0
 13  9  1  0
 14 10  1  0
 15 13  1  0
 16 24  1  0
 17 22  1  0
 18 19  1  0
 18 17  1  0
 20 19  1  0
 20 29  1  0
 20 21  1  0
 22 16  1  0
 22 21  1  0
 23 16  2  0
 24 25  1  0
 26 27  2  0
 27 46  1  0
 28 27  1  0
 28 31  1  0
 29 26  1  0
 29 30  1  0
 30 28  2  0
 31 32  1  0
 32 33  2  0
 34 37  1  0
 34 33  1  0
 35 34  2  0
 36 35  1  0
 36 31  2  0
 37 38  1  0
 38 39  1  0
 39 40  2  0
 41 40  1  0
 41 45  1  0
 42 41  2  0
 43 38  2  0
 43 42  1  0
 44 43  1  0
 46 47  1  0
 47 50  1  0
 47 49  1  0
 48 46  2  0
 51 52  1  0
 51 26  1  0
 53 51  1  0
 54 56  2  0
 55 54  1  0
 57 55  1  0
 58 59  1  0
 58 54  1  0
 60 71  2  0
 61 59  1  0
 61 66  1  0
 62 70  1  0
 62 72  1  0
 63 69  1  0
 63 65  1  0
 64 70  1  0
 65 64  1  0
 66 65  2  0
 67 68  1  0
 67 61  2  0
 68 63  2  0
 69 62  1  0
 70 60  1  0
 72 74  2  0
 73 72  1  0
 75 73  1  0
 76 85  2  0
 76 81  1  0
 77 73  1  0
 77 81  1  0
 78 77  1  0
 79 80  1  0
 79 78  1  0
 80 76  1  0
 81 82  2  0
 82 83  1  0
 84 83  2  0
 85 84  1  0
 86 60  1  0
 86 91  1  0
 86 87  1  0
 87 90  1  1
 87 88  1  0
 89 87  1  0
 91 94  1  0
 92 96  1  0
 92 91  1  0
 93 92  2  0
 96 95  1  0
 98 99  1  0
 98 96  1  0
 98 97  1  0
M  ISO  4  16 100  24 100  58 101  59 101
M  END
>  <TORSDO>  (61) 
F 19

>  <SCORE>  (61) 
-13.927

>  <name>  (61) 
60

>  <ligand_id>  (61) 
60

>  <original_smiles>  (61) 
[H]c1c([H])c([H])c2c(c1[H])C([H])([H])C([H])([H])C([H])([H])C2([H])N([H])C(=O)C1([H])N(C(=O)C([H])(N([H])C(=O)C([H])(N([H])C([H])([H])[H])C([H])([H])[H])C(C([H])([H])[H])(C([H])([H])[H])C([H])([H])[H])C([H])([H])c2c([H])c(OC([H])([H])C(=O)N([H])C3([H])C([H])([H])N(c4c([H])c(N([H])C(=O)N5C([H])([H])C([H])([H])C([H])([H])C([H])(n6nc(-c7c([H])c([H])c(Oc8c([H])c([H])c(F)c([H])c8F)c([H])c7[H])c(C(=O)N([H])[H])c6N([H])[H])C5([H])[H])c([H])c(F)c4C([H])([H])[H])C(=O)C([H])([H])C3([H])[H])c([H])c([H])c2C1([H])[H]

>  <smiles>  (61) 
[H]c1c([H])c([H])c2c(c1[H])C([H])([H])C([H])([H])C([H])([H])C2([H])N([H])C(=O)C1([H])N(C(=O)C([H])(N([H])C(=O)C([H])(N([H])C([H])([H])[H])C([H])([H])[H])C(C([H])([H])[H])(C([H])([H])[H])C([H])([H])[H])C([H])([H])c2c([H])c(OC([H])([H])C(=O)N([H])C3([H])C([H])([H])N(c4c([H])c(N([H])C(=O)N5C([H])([H])C([H])([H])C([H])([H])C([H])(n6nc(-c7c([H])c([H])c(Oc8c([H])c([H])c(F)c([H])c8F)c([H])c7[H])c(C(=O)N([H])[H])c6N([H])[H])C5([H])[H])c([H])c(F)c4C([H])([H])[H])C(=O)C([H])([H])C3([H])[H])c([H])c([H])c2C1([H])[H]

$$$$
61:0:0
     RDKit          3D

 96105  0  0  1  0  0  0  0  0999 V2000
  -28.0660  -21.5670   20.9460 C   0  0  0  0  0  0  0  0  0  0  0  0
  -29.7090  -23.2810   20.5540 C   0  0  0  0  0  0  0  0  0  0  0  0
  -26.9320  -22.5920   20.9650 C   0  0  0  0  0  2  0  0  0  0  0  0
  -27.2620  -23.8040   20.1060 C   0  0  0  0  0  2  0  0  0  0  0  0
  -28.6220  -24.4110   20.4780 C   0  0  0  0  0  3  0  0  0  0  0  0
  -29.3670  -21.9750   20.8170 N   0  0  0  0  0  0  0  0  0  0  0  0
  -27.7380  -20.3850   21.0920 O   0  0  0  0  0  0  0  0  0  0  0  0
  -30.8910  -23.6200   20.4140 O   0  0  0  0  0  0  0  0  0  0  0  0
  -30.4260  -20.9680   21.1560 C   0  0  0  0  0  2  0  0  0  0  0  0
  -30.8900  -18.7360   18.0610 C   0  0  0  0  0  3  0  0  0  0  0  0
  -30.7550  -19.8530   18.9030 C   0  0  0  0  0  3  0  0  0  0  0  0
  -30.7960  -17.4370   18.5870 C   0  0  0  0  0  3  0  0  0  0  0  0
  -30.5500  -19.6880   20.2880 C   0  0  0  0  0  0  0  0  0  0  0  0
  -30.5400  -18.3560   20.8340 C   0  0  0  0  0  0  0  0  0  0  0  0
  -30.6140  -17.2090   19.9740 C   0  0  0  0  0  0  0  0  0  0  0  0
  -30.5050  -18.1550   22.3470 C   0  0  0  0  0  1  0  0  0  0  0  0
  -31.0550  -14.7380   19.9610 C   0  0  0  0  0  0  0  0  0  0  0  0
  -30.6990  -12.5260   18.9440 C   0  0  0  0  0  2  0  0  0  0  0  0
  -29.7030  -12.6640   17.7770 C   0  0  0  0  0  2  0  0  0  0  0  0
  -28.2450  -12.5390   18.2660 C   0  0  0  0  0  2  0  0  0  0  0  0
  -27.9460  -13.4060   19.5240 C   0  0  0  0  0  3  0  0  0  0  0  0
  -29.0720  -13.2670   20.5800 C   0  0  0  0  0  2  0  0  0  0  0  0
  -30.3620  -13.5620   19.9360 N   0  0  0  0  0  0  0  0  0  0  0  0
  -32.1760  -14.8360   19.4540 O   0  0  0  0  0  0  0  0  0  0  0  0
  -30.4290  -15.8430   20.4430 N   0  0  0  0  0  0  0  0  0  0  0  0
  -29.6250  -15.6750   21.0260 H   0  0  0  0  0  0  0  0  0  0  0  0
  -25.6100  -13.9780   20.4510 C   0  0  0  0  0  0  0  0  0  0  0  0
  -24.5570  -13.1920   20.8490 C   0  0  0  0  0  0  0  0  0  0  0  0
  -24.9930  -11.8440   20.6950 C   0  0  0  0  0  0  0  0  0  0  0  0
  -26.6250  -13.1060   20.0850 N   0  0  0  0  0  0  0  0  0  0  0  0
  -26.2580  -11.8130   20.2880 N   0  0  0  0  0  0  0  0  0  0  0  0
  -24.2540  -10.5820   20.8600 C   0  0  0  0  0  0  0  0  0  0  0  0
  -24.6390   -9.6220   21.8220 C   0  0  0  0  0  3  0  0  0  0  0  0
  -23.9010   -8.4280   21.9800 C   0  0  0  0  0  3  0  0  0  0  0  0
  -22.7620   -8.1840   21.1760 C   0  0  0  0  0  0  0  0  0  0  0  0
  -22.3920   -9.1330   20.2080 C   0  0  0  0  0  3  0  0  0  0  0  0
  -23.1320  -10.3190   20.0480 C   0  0  0  0  0  3  0  0  0  0  0  0
  -22.0040   -7.0400   21.2410 O   0  0  0  0  0  0  0  0  0  0  0  0
  -21.7730   -6.3960   22.4300 C   0  0  0  0  0  0  0  0  0  0  0  0
  -21.1170   -7.0300   23.5070 C   0  0  0  0  0  3  0  0  0  0  0  0
  -20.8330   -6.3070   24.6820 C   0  0  0  0  0  3  0  0  0  0  0  0
  -21.1960   -4.9520   24.7820 C   0  0  0  0  0  0  0  0  0  0  0  0
  -21.8490   -4.3170   23.7090 C   0  0  0  0  0  3  0  0  0  0  0  0
  -22.1340   -5.0370   22.5360 C   0  0  0  0  0  0  0  0  0  0  0  0
  -22.7360   -4.4130   21.4960 F   0  0  0  0  0  0  0  0  0  0  0  0
  -20.9220   -4.2560   25.9100 F   0  0  0  0  0  0  0  0  0  0  0  0
  -23.1910  -13.6740   21.2490 C   0  0  0  0  0  0  0  0  0  0  0  0
  -22.5080  -12.9430   22.1260 N   0  0  0  0  0  0  0  0  0  0  0  0
  -22.7390  -14.7340   20.8210 O   0  0  0  0  0  0  0  0  0  0  0  0
  -22.8830  -12.0870   22.5050 H   0  0  0  0  0  0  0  0  0  0  0  0
  -21.5910  -13.2460   22.4220 H   0  0  0  0  0  0  0  0  0  0  0  0
  -25.7580  -15.3550   20.3550 N   0  0  0  0  0  0  0  0  0  0  0  0
  -24.9750  -15.9560   20.5910 H   0  0  0  0  0  0  0  0  0  0  0  0
  -26.5620  -15.8690   20.0180 H   0  0  0  0  0  0  0  0  0  0  0  0
  -28.9610  -25.6480   19.5600 C   0  0  0  0  0  2  0  0  0  0  0  0
  -28.7590  -26.9680   20.1330 O   0  0  0  0  0  0  0  0  0  0  0  0
  -24.6680  -31.8880   23.2760 C   0  0  0  0  0  0  0  0  0  0  0  0
  -27.5390  -27.6250   20.1020 C   0  0  0  0  0  0  0  0  0  0  0  0
  -23.5450  -30.5060   21.5610 C   0  0  0  0  0  3  0  0  0  0  0  0
  -25.0790  -29.0450   20.1300 C   0  0  0  0  0  0  0  0  0  0  0  0
  -26.0650  -30.9380   21.4370 C   0  0  0  0  0  2  0  0  0  0  0  0
  -26.2060  -29.5880   20.7580 C   0  0  0  0  0  0  0  0  0  0  0  0
  -27.4290  -28.8820   20.7500 C   0  0  0  0  0  3  0  0  0  0  0  0
  -26.3950  -27.1130   19.4540 C   0  0  0  0  0  3  0  0  0  0  0  0
  -25.1690  -27.8050   19.4750 C   0  0  0  0  0  3  0  0  0  0  0  0
  -23.8150  -29.8680   20.1680 C   0  0  0  0  0  2  0  0  0  0  0  0
  -24.7750  -31.1290   22.1480 N   0  0  0  0  0  0  0  0  0  0  0  0
  -23.5670  -32.1010   23.8040 O   0  0  0  0  0  0  0  0  0  0  0  0
  -22.8960  -29.4430   22.4780 C   0  0  0  0  0  0  0  0  0  0  0  0
  -21.5820  -29.2090   22.3110 N   0  0  0  0  0  0  0  0  0  0  0  0
  -23.5790  -28.8210   23.2960 O   0  0  0  0  0  0  0  0  0  0  0  0
  -21.0760  -29.7810   21.6470 H   0  0  0  0  0  0  0  0  0  0  0  0
  -18.2620  -27.8140   22.6780 C   0  0  0  0  0  0  0  0  0  0  0  0
  -20.7940  -28.2080   23.0330 C   0  0  0  0  0  3  0  0  0  0  0  0
  -20.9870  -26.7940   22.4350 C   0  0  0  0  0  2  0  0  0  0  0  0
  -19.9380  -26.4410   21.3750 C   0  0  0  0  0  2  0  0  0  0  0  0
  -18.5310  -26.4920   21.9790 C   0  0  0  0  0  2  0  0  0  0  0  0
  -19.3260  -28.6240   23.1590 C   0  0  0  0  0  0  0  0  0  0  0  0
  -19.0210  -29.8570   23.7740 C   0  0  0  0  0  3  0  0  0  0  0  0
  -17.6870  -30.2870   23.9070 C   0  0  0  0  0  3  0  0  0  0  0  0
  -16.6390  -29.4780   23.4340 C   0  0  0  0  0  3  0  0  0  0  0  0
  -16.9270  -28.2430   22.8260 C   0  0  0  0  0  3  0  0  0  0  0  0
  -25.9190  -32.5440   23.9380 C   0  0  0  0  0  3  0  0  0  0  0  0
  -26.3890  -31.7920   25.2450 C   0  0  1  0  0  0  0  0  0  0  0  0
  -25.2530  -31.5590   26.2680 C   0  0  0  0  0  1  0  0  0  0  0  0
  -27.0120  -30.4150   24.9030 C   0  0  0  0  0  1  0  0  0  0  0  0
  -27.4970  -32.6130   25.9370 C   0  0  0  0  0  1  0  0  0  0  0  0
  -25.5830  -33.9430   24.2360 N   0  0  0  0  0  0  0  0  0  0  0  0
  -25.9320  -34.9890   23.4730 C   0  0  0  0  0  0  0  0  0  0  0  0
  -26.6390  -34.8760   22.4690 O   0  0  0  0  0  0  0  0  0  0  0  0
  -24.9600  -34.0960   25.0130 H   0  0  0  0  0  0  0  0  0  0  0  0
  -24.2120  -36.7650   23.0150 C   0  0  0  0  0  1  0  0  0  0  0  0
  -25.4150  -36.3800   23.8900 C   0  0  0  0  0  3  0  0  0  0  0  0
  -27.4990  -37.3080   24.8020 C   0  0  0  0  0  1  0  0  0  0  0  0
  -26.4450  -37.4390   23.8010 N   0  0  0  0  0  0  0  0  0  0  0  0
  -26.0260  -38.3600   23.8930 H   0  0  0  0  0  0  0  0  0  0  0  0
  1  3  1  0
  1  7  2  0
  2  6  1  0
  4  5  1  0
  4  3  1  0
  5 55  1  0
  5  2  1  0
  6  1  1  0
  6  9  1  0
  8  2  2  0
 10 12  2  0
 10 11  1  0
 11 13  2  0
 12 15  1  0
 13 14  1  0
 13  9  1  0
 14 16  1  0
 15 25  1  0
 15 14  2  0
 17 25  1  0
 18 23  1  0
 19 20  1  0
 19 18  1  0
 21 20  1  0
 21 30  1  0
 21 22  1  0
 23 17  1  0
 23 22  1  0
 24 17  2  0
 25 26  1  0
 27 28  2  0
 28 47  1  0
 29 28  1  0
 29 32  1  0
 30 31  1  0
 30 27  1  0
 31 29  2  0
 32 33  1  0
 33 34  2  0
 35 38  1  0
 35 34  1  0
 36 35  2  0
 37 36  1  0
 37 32  2  0
 38 39  1  0
 39 44  2  0
 39 40  1  0
 40 41  2  0
 41 42  1  0
 42 46  1  0
 43 42  2  0
 44 43  1  0
 45 44  1  0
 47 48  1  0
 48 51  1  0
 48 50  1  0
 49 47  2  0
 52 27  1  0
 52 53  1  0
 54 52  1  0
 55 56  1  0
 57 68  2  0
 58 56  1  0
 58 63  1  0
 59 67  1  0
 59 69  1  0
 60 66  1  0
 60 62  1  0
 61 67  1  0
 62 61  1  0
 63 62  2  0
 64 65  1  0
 64 58  2  0
 65 60  2  0
 66 59  1  0
 67 57  1  0
 69 71  2  0
 70 69  1  0
 72 70  1  0
 73 82  2  0
 73 78  1  0
 74 70  1  0
 74 78  1  0
 75 74  1  0
 76 77  1  0
 76 75  1  0
 77 73  1  0
 78 79  2  0
 79 80  1  0
 81 80  2  0
 82 81  1  0
 83 57  1  0
 83 88  1  0
 83 84  1  0
 84 87  1  1
 84 85  1  0
 86 84  1  0
 88 91  1  0
 89 93  1  0
 89 88  1  0
 90 89  2  0
 93 92  1  0
 95 93  1  0
 95 96  1  0
 95 94  1  0
M  ISO  4  17 100  25 100  55 101  56 101
M  END
>  <TORSDO>  (62) 
F 19

>  <SCORE>  (62) 
-13.381

>  <name>  (62) 
61

>  <ligand_id>  (62) 
61

>  <original_smiles>  (62) 
[H]c1c([H])c(N([H])C(=O)N2C([H])([H])C([H])([H])C([H])([H])C([H])(n3nc(-c4c([H])c([H])c(Oc5c([H])c([H])c(F)c([H])c5F)c([H])c4[H])c(C(=O)N([H])[H])c3N([H])[H])C2([H])[H])c(C([H])([H])[H])c(C([H])([H])N2C(=O)C([H])([H])C([H])([H])C([H])(C([H])([H])Oc3c([H])c([H])c4c(c3[H])C([H])([H])N(C(=O)C([H])(N([H])C(=O)C([H])(N([H])C([H])([H])[H])C([H])([H])[H])C(C([H])([H])[H])(C([H])([H])[H])C([H])([H])[H])C([H])(C(=O)N([H])C3([H])c5c([H])c([H])c([H])c([H])c5C([H])([H])C([H])([H])C3([H])[H])C4([H])[H])C2=O)c1[H]

>  <smiles>  (62) 
[H]c1c([H])c(N([H])C(=O)N2C([H])([H])C([H])([H])C([H])([H])C([H])(n3nc(-c4c([H])c([H])c(Oc5c([H])c([H])c(F)c([H])c5F)c([H])c4[H])c(C(=O)N([H])[H])c3N([H])[H])C2([H])[H])c(C([H])([H])[H])c(C([H])([H])N2C(=O)C([H])([H])C([H])([H])C([H])(C([H])([H])Oc3c([H])c([H])c4c(c3[H])C([H])([H])N(C(=O)C([H])(N([H])C(=O)C([H])(N([H])C([H])([H])[H])C([H])([H])[H])C(C([H])([H])[H])(C([H])([H])[H])C([H])([H])[H])C([H])(C(=O)N([H])C3([H])c5c([H])c([H])c([H])c([H])c5C([H])([H])C([H])([H])C3([H])[H])C4([H])[H])C2=O)c1[H]

$$$$
62:0:0
     RDKit          3D

 93101  0  0  1  0  0  0  0  0999 V2000
  -29.0320  -22.2970   20.8100 C   0  0  0  0  0  0  0  0  0  0  0  0
  -29.5200  -21.1580   20.1710 N   0  0  0  0  0  0  0  0  0  0  0  0
  -28.4370  -22.1720   21.8820 O   0  0  0  0  0  0  0  0  0  0  0  0
  -29.7730  -21.2780   19.1990 H   0  0  0  0  0  0  0  0  0  0  0  0
  -31.0310  -18.6070   22.5510 C   0  0  0  0  0  3  0  0  0  0  0  0
  -30.5660  -19.8090   21.9820 C   0  0  0  0  0  3  0  0  0  0  0  0
  -30.8130  -17.3530   21.9410 C   0  0  0  0  0  0  0  0  0  0  0  0
  -29.8840  -19.8320   20.7430 C   0  0  0  0  0  0  0  0  0  0  0  0
  -30.1530  -17.2730   20.6830 C   0  0  0  0  0  0  0  0  0  0  0  0
  -29.7030  -18.5330   20.0990 C   0  0  0  0  0  0  0  0  0  0  0  0
  -31.2560  -16.1090   22.7060 C   0  0  0  0  0  1  0  0  0  0  0  0
  -29.0670  -18.4890   18.9040 F   0  0  0  0  0  0  0  0  0  0  0  0
  -30.5750  -14.8160   19.8850 C   0  0  0  0  0  0  0  0  0  0  0  0
  -30.2710  -12.5870   18.7930 C   0  0  0  0  0  2  0  0  0  0  0  0
  -29.2390  -12.7180   17.6530 C   0  0  0  0  0  2  0  0  0  0  0  0
  -27.8000  -12.5460   18.1890 C   0  0  0  0  0  2  0  0  0  0  0  0
  -27.5350  -13.3770   19.4750 C   0  0  0  0  0  3  0  0  0  0  0  0
  -28.6820  -13.2390   20.4990 C   0  0  0  0  0  2  0  0  0  0  0  0
  -29.9250  -13.6080   19.8040 N   0  0  0  0  0  0  0  0  0  0  0  0
  -31.7460  -14.9230   19.5050 O   0  0  0  0  0  0  0  0  0  0  0  0
  -29.8080  -15.9390   20.1360 N   0  0  0  0  0  0  0  0  0  0  0  0
  -28.8150  -15.7760   20.0820 H   0  0  0  0  0  0  0  0  0  0  0  0
  -25.2080  -13.9440   20.4020 C   0  0  0  0  0  0  0  0  0  0  0  0
  -24.1730  -13.1590   20.8360 C   0  0  0  0  0  0  0  0  0  0  0  0
  -24.6350  -11.8100   20.7410 C   0  0  0  0  0  0  0  0  0  0  0  0
  -26.2330  -13.0720   20.0630 N   0  0  0  0  0  0  0  0  0  0  0  0
  -25.8980  -11.7840   20.3300 N   0  0  0  0  0  0  0  0  0  0  0  0
  -23.9260  -10.5430   20.9610 C   0  0  0  0  0  0  0  0  0  0  0  0
  -24.3970   -9.5850   21.8870 C   0  0  0  0  0  3  0  0  0  0  0  0
  -23.6920   -8.3810   22.0940 C   0  0  0  0  0  3  0  0  0  0  0  0
  -22.5000   -8.1270   21.3760 C   0  0  0  0  0  0  0  0  0  0  0  0
  -22.0480   -9.0730   20.4400 C   0  0  0  0  0  3  0  0  0  0  0  0
  -22.7530  -10.2690   20.2290 C   0  0  0  0  0  3  0  0  0  0  0  0
  -21.7590   -6.9750   21.4970 O   0  0  0  0  0  0  0  0  0  0  0  0
  -21.7150   -6.2650   22.6690 C   0  0  0  0  0  0  0  0  0  0  0  0
  -21.2760   -6.8480   23.8780 C   0  0  0  0  0  3  0  0  0  0  0  0
  -21.1840   -6.0610   25.0450 C   0  0  0  0  0  3  0  0  0  0  0  0
  -21.5170   -4.6930   25.0010 C   0  0  0  0  0  0  0  0  0  0  0  0
  -21.9480   -4.1110   23.7950 C   0  0  0  0  0  3  0  0  0  0  0  0
  -22.0450   -4.8930   22.6320 C   0  0  0  0  0  0  0  0  0  0  0  0
  -22.4410   -4.3220   21.4680 F   0  0  0  0  0  0  0  0  0  0  0  0
  -21.4220   -3.9340   26.1180 F   0  0  0  0  0  0  0  0  0  0  0  0
  -22.8000  -13.6290   21.2170 C   0  0  0  0  0  0  0  0  0  0  0  0
  -22.1290  -12.9170   22.1160 N   0  0  0  0  0  0  0  0  0  0  0  0
  -22.3290  -14.6660   20.7520 O   0  0  0  0  0  0  0  0  0  0  0  0
  -22.5190  -12.0810   22.5250 H   0  0  0  0  0  0  0  0  0  0  0  0
  -21.2100  -13.2230   22.4030 H   0  0  0  0  0  0  0  0  0  0  0  0
  -25.3580  -15.3190   20.2500 N   0  0  0  0  0  0  0  0  0  0  0  0
  -24.6080  -15.9680   20.4590 H   0  0  0  0  0  0  0  0  0  0  0  0
  -26.1720  -15.7730   19.8570 H   0  0  0  0  0  0  0  0  0  0  0  0
  -29.1960  -23.7900   20.2220 C   0  0  0  0  0  3  0  0  0  0  0  0
  -28.0880  -24.9530   20.5140 C   0  0  0  0  0  3  0  0  0  0  0  0
  -28.3340  -26.4320   20.2680 O   0  0  0  0  0  0  0  0  0  0  0  0
  -24.6320  -31.9480   23.2380 C   0  0  0  0  0  0  0  0  0  0  0  0
  -27.2320  -27.3250   20.2200 C   0  0  0  0  0  0  0  0  0  0  0  0
  -23.4240  -30.5320   21.6140 C   0  0  0  0  0  3  0  0  0  0  0  0
  -24.8710  -28.9770   20.1880 C   0  0  0  0  0  0  0  0  0  0  0  0
  -25.9680  -30.8470   21.4200 C   0  0  0  0  0  2  0  0  0  0  0  0
  -26.0480  -29.4620   20.7800 C   0  0  0  0  0  0  0  0  0  0  0  0
  -27.2270  -28.6470   20.7850 C   0  0  0  0  0  3  0  0  0  0  0  0
  -26.0370  -26.9210   19.5830 C   0  0  0  0  0  3  0  0  0  0  0  0
  -24.8740  -27.7150   19.5780 C   0  0  0  0  0  3  0  0  0  0  0  0
  -23.6330  -29.8490   20.2380 C   0  0  0  0  0  2  0  0  0  0  0  0
  -24.6920  -31.1300   22.1450 N   0  0  0  0  0  0  0  0  0  0  0  0
  -23.5500  -32.2250   23.7760 O   0  0  0  0  0  0  0  0  0  0  0  0
  -22.7780  -29.5160   22.5880 C   0  0  0  0  0  0  0  0  0  0  0  0
  -21.4520  -29.3260   22.4690 N   0  0  0  0  0  0  0  0  0  0  0  0
  -23.4660  -28.9050   23.4090 O   0  0  0  0  0  0  0  0  0  0  0  0
  -20.9580  -29.8830   21.7860 H   0  0  0  0  0  0  0  0  0  0  0  0
  -18.0910  -28.0840   22.9820 C   0  0  0  0  0  0  0  0  0  0  0  0
  -20.6440  -28.3900   23.2530 C   0  0  0  0  0  3  0  0  0  0  0  0
  -20.7660  -26.9500   22.6990 C   0  0  0  0  0  2  0  0  0  0  0  0
  -19.6710  -26.5920   21.6890 C   0  0  0  0  0  2  0  0  0  0  0  0
  -18.2880  -26.7250   22.3300 C   0  0  0  0  0  2  0  0  0  0  0  0
  -19.1960  -28.8710   23.4010 C   0  0  0  0  0  0  0  0  0  0  0  0
  -18.9560  -30.1400   23.9720 C   0  0  0  0  0  3  0  0  0  0  0  0
  -17.6410  -30.6160   24.1370 C   0  0  0  0  0  3  0  0  0  0  0  0
  -16.5510  -29.8260   23.7330 C   0  0  0  0  0  3  0  0  0  0  0  0
  -16.7770  -28.5630   23.1580 C   0  0  0  0  0  3  0  0  0  0  0  0
  -25.9130  -32.5930   23.8480 C   0  0  0  0  0  3  0  0  0  0  0  0
  -26.4440  -31.8350   25.1280 C   0  0  1  0  0  0  0  0  0  0  0  0
  -25.3600  -31.5950   26.2050 C   0  0  0  0  0  1  0  0  0  0  0  0
  -27.0390  -30.4580   24.7470 C   0  0  0  0  0  1  0  0  0  0  0  0
  -27.5920  -32.6440   25.7750 C   0  0  0  0  0  1  0  0  0  0  0  0
  -25.5950  -33.9900   24.1740 N   0  0  0  0  0  0  0  0  0  0  0  0
  -25.9270  -35.0440   23.4180 C   0  0  0  0  0  0  0  0  0  0  0  0
  -26.6010  -34.9430   22.3890 O   0  0  0  0  0  0  0  0  0  0  0  0
  -24.9990  -34.1420   24.9740 H   0  0  0  0  0  0  0  0  0  0  0  0
  -24.1970  -36.8340   23.0530 C   0  0  0  0  0  1  0  0  0  0  0  0
  -25.4310  -36.4290   23.8750 C   0  0  0  0  0  3  0  0  0  0  0  0
  -27.5590  -37.3140   24.7240 C   0  0  0  0  0  1  0  0  0  0  0  0
  -26.4610  -37.4870   23.7770 N   0  0  0  0  0  0  0  0  0  0  0  0
  -26.0500  -38.4050   23.9240 H   0  0  0  0  0  0  0  0  0  0  0  0
  1  3  2  0
  2  8  1  0
  2  1  1  0
  4  2  1  0
  6  5  1  0
  7  5  2  0
  7 11  1  0
  8  6  2  0
  9  7  1  0
 10  9  2  0
 10  8  1  0
 12 10  1  0
 13 21  1  0
 14 19  1  0
 15 16  1  0
 15 14  1  0
 17 16  1  0
 17 26  1  0
 17 18  1  0
 19 13  1  0
 19 18  1  0
 20 13  2  0
 21  9  1  0
 22 21  1  0
 23 24  2  0
 24 43  1  0
 25 24  1  0
 25 28  1  0
 26 27  1  0
 26 23  1  0
 27 25  2  0
 28 29  1  0
 29 30  2  0
 31 34  1  0
 31 30  1  0
 32 31  2  0
 33 32  1  0
 33 28  2  0
 34 35  1  0
 35 36  1  0
 36 37  2  0
 38 37  1  0
 38 42  1  0
 39 38  2  0
 40 35  2  0
 40 39  1  0
 41 40  1  0
 43 44  1  0
 44 47  1  0
 44 46  1  0
 45 43  2  0
 48 23  1  0
 48 49  1  0
 50 48  1  0
 51 52  2  0
 51  1  1  0
 53 52  1  0
 54 65  2  0
 55 53  1  0
 55 60  1  0
 56 64  1  0
 56 66  1  0
 57 63  1  0
 57 59  1  0
 58 64  1  0
 59 60  2  0
 59 58  1  0
 61 55  2  0
 62 61  1  0
 62 57  2  0
 63 56  1  0
 64 54  1  0
 66 68  2  0
 67 66  1  0
 69 67  1  0
 70 79  2  0
 70 75  1  0
 71 67  1  0
 71 75  1  0
 72 71  1  0
 73 74  1  0
 73 72  1  0
 74 70  1  0
 75 76  2  0
 76 77  1  0
 78 77  2  0
 79 78  1  0
 80 54  1  0
 80 85  1  0
 80 81  1  0
 81 84  1  1
 81 82  1  0
 83 81  1  0
 85 88  1  0
 86 90  1  0
 86 85  1  0
 87 86  2  0
 90 89  1  0
 92 90  1  0
 92 93  1  0
 92 91  1  0
M  ISO  4  13 100  21 100  52 101  53 101
M  END
>  <TORSDO>  (63) 
F 19

>  <SCORE>  (63) 
-13.333

>  <name>  (63) 
62

>  <ligand_id>  (63) 
62

>  <original_smiles>  (63) 
[H]c1c([H])c([H])c2c(c1[H])C([H])([H])C([H])([H])C([H])([H])C2([H])N([H])C(=O)C1([H])N(C(=O)C([H])(N([H])C(=O)C([H])(N([H])C([H])([H])[H])C([H])([H])[H])C(C([H])([H])[H])(C([H])([H])[H])C([H])([H])[H])C([H])([H])c2c([H])c(OC([H])([H])C([H])([H])C(=O)N([H])c3c([H])c([H])c(C([H])([H])[H])c(N([H])C(=O)N4C([H])([H])C([H])([H])C([H])([H])C([H])(n5nc(-c6c([H])c([H])c(Oc7c([H])c([H])c(F)c([H])c7F)c([H])c6[H])c(C(=O)N([H])[H])c5N([H])[H])C4([H])[H])c3F)c([H])c([H])c2C1([H])[H]

>  <smiles>  (63) 
[H]c1c([H])c([H])c2c(c1[H])C([H])([H])C([H])([H])C([H])([H])C2([H])N([H])C(=O)C1([H])N(C(=O)C([H])(N([H])C(=O)C([H])(N([H])C([H])([H])[H])C([H])([H])[H])C(C([H])([H])[H])(C([H])([H])[H])C([H])([H])[H])C([H])([H])c2c([H])c(OC([H])([H])C([H])([H])C(=O)N([H])c3c([H])c([H])c(C([H])([H])[H])c(N([H])C(=O)N4C([H])([H])C([H])([H])C([H])([H])C([H])(n5nc(-c6c([H])c([H])c(Oc7c([H])c([H])c(F)c([H])c7F)c([H])c6[H])c(C(=O)N([H])[H])c5N([H])[H])C4([H])[H])c3F)c([H])c([H])c2C1([H])[H]

$$$$
63:0:0
     RDKit          3D

 94103  0  0  1  0  0  0  0  0999 V2000
  -30.7440  -21.9800   21.8080 C   0  0  0  0  0  0  0  0  0  0  0  0
  -30.8500  -23.4800   22.1220 C   0  0  0  0  0  2  0  0  0  0  0  0
  -29.6480  -24.3120   21.6670 C   0  0  0  0  0  2  0  0  0  0  0  0
  -29.1140  -22.5010   20.0050 C   0  0  0  0  0  2  0  0  0  0  0  0
  -29.3790  -24.0670   20.1860 C   0  0  0  0  0  3  0  0  0  0  0  0
  -30.0230  -21.5390   20.7370 N   0  0  0  0  0  0  0  0  0  0  0  0
  -31.3660  -21.2180   22.5600 O   0  0  0  0  0  0  0  0  0  0  0  0
  -31.1790  -19.3190   20.3440 C   0  0  0  0  0  3  0  0  0  0  0  0
  -31.1850  -17.8920   20.3210 C   0  0  0  0  0  3  0  0  0  0  0  0
  -28.7930  -17.9110   20.5720 C   0  0  0  0  0  3  0  0  0  0  0  0
  -29.9860  -20.0840   20.5090 C   0  0  0  0  0  0  0  0  0  0  0  0
  -29.9860  -17.1450   20.4600 C   0  0  0  0  0  0  0  0  0  0  0  0
  -28.7840  -19.3370   20.5940 C   0  0  0  0  0  0  0  0  0  0  0  0
  -27.6040  -19.9800   20.7630 F   0  0  0  0  0  0  0  0  0  0  0  0
  -30.6690  -14.6580   20.0590 C   0  0  0  0  0  0  0  0  0  0  0  0
  -30.3890  -12.4520   18.9460 C   0  0  0  0  0  2  0  0  0  0  0  0
  -29.3830  -12.6250   17.7850 C   0  0  0  0  0  2  0  0  0  0  0  0
  -27.9310  -12.4740   18.2830 C   0  0  0  0  0  2  0  0  0  0  0  0
  -27.6480  -13.3070   19.5610 C   0  0  0  0  0  3  0  0  0  0  0  0
  -28.7580  -13.0970   20.6160 C   0  0  0  0  0  2  0  0  0  0  0  0
  -30.0440  -13.4400   19.9850 N   0  0  0  0  0  0  0  0  0  0  0  0
  -31.8040  -14.8260   19.6030 O   0  0  0  0  0  0  0  0  0  0  0  0
  -29.8860  -15.6850   20.5130 N   0  0  0  0  0  0  0  0  0  0  0  0
  -29.0060  -15.3440   20.8710 H   0  0  0  0  0  0  0  0  0  0  0  0
  -25.2960  -13.9210   20.3980 C   0  0  0  0  0  0  0  0  0  0  0  0
  -24.2400  -13.1540   20.8090 C   0  0  0  0  0  0  0  0  0  0  0  0
  -24.6870  -11.7990   20.7360 C   0  0  0  0  0  0  0  0  0  0  0  0
  -26.3200  -13.0330   20.1020 N   0  0  0  0  0  0  0  0  0  0  0  0
  -25.9600  -11.7510   20.3660 N   0  0  0  0  0  0  0  0  0  0  0  0
  -23.9570  -10.5410   20.9430 C   0  0  0  0  0  0  0  0  0  0  0  0
  -24.4070   -9.5700   21.8650 C   0  0  0  0  0  3  0  0  0  0  0  0
  -23.6790   -8.3760   22.0590 C   0  0  0  0  0  3  0  0  0  0  0  0
  -22.4860   -8.1460   21.3320 C   0  0  0  0  0  0  0  0  0  0  0  0
  -22.0560   -9.1050   20.4000 C   0  0  0  0  0  3  0  0  0  0  0  0
  -22.7850  -10.2900   20.2030 C   0  0  0  0  0  3  0  0  0  0  0  0
  -21.7280   -7.0050   21.4370 O   0  0  0  0  0  0  0  0  0  0  0  0
  -21.6740   -6.2800   22.6010 C   0  0  0  0  0  0  0  0  0  0  0  0
  -21.2360   -6.8540   23.8150 C   0  0  0  0  0  3  0  0  0  0  0  0
  -21.1300   -6.0550   24.9720 C   0  0  0  0  0  3  0  0  0  0  0  0
  -21.4510   -4.6860   24.9160 C   0  0  0  0  0  0  0  0  0  0  0  0
  -21.8810   -4.1130   23.7060 C   0  0  0  0  0  3  0  0  0  0  0  0
  -21.9900   -4.9080   22.5510 C   0  0  0  0  0  0  0  0  0  0  0  0
  -22.3850   -4.3460   21.3830 F   0  0  0  0  0  0  0  0  0  0  0  0
  -21.3410   -3.9170   26.0240 F   0  0  0  0  0  0  0  0  0  0  0  0
  -22.8630  -13.6400   21.1540 C   0  0  0  0  0  0  0  0  0  0  0  0
  -22.1730  -12.9430   22.0490 N   0  0  0  0  0  0  0  0  0  0  0  0
  -22.4080  -14.6730   20.6640 O   0  0  0  0  0  0  0  0  0  0  0  0
  -22.5540  -12.1070   22.4670 H   0  0  0  0  0  0  0  0  0  0  0  0
  -21.2490  -13.2500   22.3230 H   0  0  0  0  0  0  0  0  0  0  0  0
  -25.4660  -15.2930   20.2270 N   0  0  0  0  0  0  0  0  0  0  0  0
  -24.7030  -15.9460   20.3630 H   0  0  0  0  0  0  0  0  0  0  0  0
  -26.2790  -15.7190   19.8030 H   0  0  0  0  0  0  0  0  0  0  0  0
  -28.2650  -25.0600   19.6450 C   0  0  0  0  0  2  0  0  0  0  0  0
  -28.4280  -26.5120   19.8650 O   0  0  0  0  0  0  0  0  0  0  0  0
  -24.4970  -31.6510   23.0400 C   0  0  0  0  0  0  0  0  0  0  0  0
  -27.2750  -27.3110   19.8340 C   0  0  0  0  0  0  0  0  0  0  0  0
  -23.3470  -30.2760   21.3410 C   0  0  0  0  0  3  0  0  0  0  0  0
  -24.8540  -28.8320   19.8690 C   0  0  0  0  0  0  0  0  0  0  0  0
  -25.8740  -30.6890   21.1840 C   0  0  0  0  0  2  0  0  0  0  0  0
  -26.0020  -29.3400   20.4880 C   0  0  0  0  0  0  0  0  0  0  0  0
  -27.2160  -28.5920   20.4610 C   0  0  0  0  0  3  0  0  0  0  0  0
  -26.1000  -26.8550   19.1900 C   0  0  0  0  0  3  0  0  0  0  0  0
  -24.9040  -27.5940   19.2110 C   0  0  0  0  0  3  0  0  0  0  0  0
  -23.5890  -29.6610   19.9390 C   0  0  0  0  0  2  0  0  0  0  0  0
  -24.5910  -30.8870   21.9130 N   0  0  0  0  0  0  0  0  0  0  0  0
  -23.4030  -31.8730   23.5780 O   0  0  0  0  0  0  0  0  0  0  0  0
  -22.7130  -29.2040   22.2580 C   0  0  0  0  0  0  0  0  0  0  0  0
  -21.3890  -29.0100   22.1370 N   0  0  0  0  0  0  0  0  0  0  0  0
  -23.4110  -28.5510   23.0380 O   0  0  0  0  0  0  0  0  0  0  0  0
  -20.8840  -29.5920   21.4820 H   0  0  0  0  0  0  0  0  0  0  0  0
  -18.0280  -27.7790   22.6540 C   0  0  0  0  0  0  0  0  0  0  0  0
  -20.5930  -28.0260   22.8700 C   0  0  0  0  0  3  0  0  0  0  0  0
  -20.6790  -26.6320   22.2050 C   0  0  0  0  0  2  0  0  0  0  0  0
  -19.5500  -26.3710   21.2030 C   0  0  0  0  0  2  0  0  0  0  0  0
  -18.1860  -26.4740   21.8930 C   0  0  0  0  0  2  0  0  0  0  0  0
  -19.1580  -28.5150   23.1000 C   0  0  0  0  0  0  0  0  0  0  0  0
  -18.9550  -29.7390   23.7730 C   0  0  0  0  0  3  0  0  0  0  0  0
  -17.6550  -30.2270   24.0040 C   0  0  0  0  0  3  0  0  0  0  0  0
  -16.5400  -29.4870   23.5740 C   0  0  0  0  0  3  0  0  0  0  0  0
  -16.7270  -28.2650   22.9050 C   0  0  0  0  0  3  0  0  0  0  0  0
  -25.7560  -32.2990   23.6930 C   0  0  0  0  0  3  0  0  0  0  0  0
  -25.4080  -33.6800   24.0540 N   0  0  0  0  0  0  0  0  0  0  0  0
  -25.7030  -34.7580   23.3150 C   0  0  0  0  0  0  0  0  0  0  0  0
  -26.3660  -34.6950   22.2770 O   0  0  0  0  0  0  0  0  0  0  0  0
  -24.8150  -33.8010   24.8620 H   0  0  0  0  0  0  0  0  0  0  0  0
  -23.9080  -36.4960   23.0240 C   0  0  0  0  0  1  0  0  0  0  0  0
  -25.1780  -36.1210   23.8040 C   0  0  0  0  0  3  0  0  0  0  0  0
  -27.2940  -37.0690   24.6130 C   0  0  0  0  0  1  0  0  0  0  0  0
  -26.1720  -37.2100   23.6880 N   0  0  0  0  0  0  0  0  0  0  0  0
  -25.7380  -38.1140   23.8540 H   0  0  0  0  0  0  0  0  0  0  0  0
  -26.2770  -31.5090   24.9560 C   0  0  1  0  0  0  0  0  0  0  0  0
  -25.1770  -31.2180   26.0050 C   0  0  0  0  0  1  0  0  0  0  0  0
  -26.8970  -30.1560   24.5380 C   0  0  0  0  0  1  0  0  0  0  0  0
  -27.3990  -32.3130   25.6530 C   0  0  0  0  0  1  0  0  0  0  0  0
  1  2  1  0
  1  7  2  0
  3  2  1  0
  4  5  1  0
  4  6  1  0
  5 53  1  0
  5  3  1  0
  6  1  1  0
  8 11  1  0
  9  8  2  0
  9 12  1  0
 10 13  1  0
 11 13  2  0
 11  6  1  0
 12 23  1  0
 12 10  2  0
 13 14  1  0
 15 23  1  0
 16 21  1  0
 17 18  1  0
 17 16  1  0
 19 18  1  0
 19 28  1  0
 19 20  1  0
 21 15  1  0
 21 20  1  0
 22 15  2  0
 23 24  1  0
 25 26  2  0
 26 45  1  0
 27 26  1  0
 27 30  1  0
 28 29  1  0
 28 25  1  0
 29 27  2  0
 30 31  1  0
 31 32  2  0
 33 36  1  0
 33 32  1  0
 34 33  2  0
 35 34  1  0
 35 30  2  0
 36 37  1  0
 37 38  1  0
 38 39  2  0
 40 39  1  0
 40 44  1  0
 41 40  2  0
 42 37  2  0
 42 41  1  0
 43 42  1  0
 45 46  1  0
 46 49  1  0
 46 48  1  0
 47 45  2  0
 50 51  1  0
 50 25  1  0
 52 50  1  0
 53 54  1  0
 55 66  2  0
 56 54  1  0
 56 61  1  0
 57 65  1  0
 57 67  1  0
 58 64  1  0
 58 60  1  0
 59 65  1  0
 60 59  1  0
 61 60  2  0
 62 63  1  0
 62 56  2  0
 63 58  2  0
 64 57  1  0
 65 55  1  0
 67 69  2  0
 68 67  1  0
 70 68  1  0
 71 80  2  0
 71 76  1  0
 72 68  1  0
 72 76  1  0
 73 72  1  0
 74 75  1  0
 74 73  1  0
 75 71  1  0
 76 77  2  0
 77 78  1  0
 79 78  2  0
 80 79  1  0
 81 55  1  0
 81 82  1  0
 81 91  1  0
 82 85  1  0
 83 87  1  0
 83 82  1  0
 84 83  2  0
 87 86  1  0
 89 87  1  0
 89 90  1  0
 89 88  1  0
 91 94  1  1
 91 92  1  0
 93 91  1  0
M  ISO  4  15 100  23 100  53 101  54 101
M  END
>  <TORSDO>  (64) 
F 18

>  <SCORE>  (64) 
-14.268

>  <name>  (64) 
63

>  <ligand_id>  (64) 
63

>  <original_smiles>  (64) 
[H]c1c([H])c([H])c2c(c1[H])C([H])([H])C([H])([H])C([H])([H])C2([H])N([H])C(=O)C1([H])N(C(=O)C([H])(N([H])C(=O)C([H])(N([H])C([H])([H])[H])C([H])([H])[H])C(C([H])([H])[H])(C([H])([H])[H])C([H])([H])[H])C([H])([H])c2c([H])c(OC([H])([H])C3([H])C([H])([H])N(c4c([H])c([H])c(N([H])C(=O)N5C([H])([H])C([H])([H])C([H])([H])C([H])(n6nc(-c7c([H])c([H])c(Oc8c([H])c([H])c(F)c([H])c8F)c([H])c7[H])c(C(=O)N([H])[H])c6N([H])[H])C5([H])[H])c([H])c4F)C(=O)C([H])([H])C3([H])[H])c([H])c([H])c2C1([H])[H]

>  <smiles>  (64) 
[H]c1c([H])c([H])c2c(c1[H])C([H])([H])C([H])([H])C([H])([H])C2([H])N([H])C(=O)C1([H])N(C(=O)C([H])(N([H])C(=O)C([H])(N([H])C([H])([H])[H])C([H])([H])[H])C(C([H])([H])[H])(C([H])([H])[H])C([H])([H])[H])C([H])([H])c2c([H])c(OC([H])([H])C3([H])C([H])([H])N(c4c([H])c([H])c(N([H])C(=O)N5C([H])([H])C([H])([H])C([H])([H])C([H])(n6nc(-c7c([H])c([H])c(Oc8c([H])c([H])c(F)c([H])c8F)c([H])c7[H])c(C(=O)N([H])[H])c6N([H])[H])C5([H])[H])c([H])c4F)C(=O)C([H])([H])C3([H])[H])c([H])c([H])c2C1([H])[H]

$$$$
64:0:0
     RDKit          3D

 97106  0  0  1  0  0  0  0  0999 V2000
  -27.8180  -22.3940   20.8680 C   0  0  0  0  0  0  0  0  0  0  0  0
  -27.5400  -23.6540   20.0210 C   0  0  0  0  0  2  0  0  0  0  0  0
  -29.8480  -23.5010   19.0820 C   0  0  0  0  0  2  0  0  0  0  0  0
  -30.0860  -22.1970   19.8780 C   0  0  0  0  0  2  0  0  0  0  0  0
  -28.8110  -24.4540   19.7020 C   0  0  0  0  0  3  0  0  0  0  0  0
  -28.9640  -21.6810   20.6810 N   0  0  0  0  0  0  0  0  0  0  0  0
  -26.9570  -22.0730   21.6930 O   0  0  0  0  0  0  0  0  0  0  0  0
  -29.2450  -20.4840   21.5330 C   0  0  0  0  0  2  0  0  0  0  0  0
  -32.5670  -18.7120   20.6720 C   0  0  0  0  0  3  0  0  0  0  0  0
  -31.6080  -19.6880   20.9910 C   0  0  0  0  0  3  0  0  0  0  0  0
  -32.1790  -17.3780   20.4730 C   0  0  0  0  0  3  0  0  0  0  0  0
  -30.2330  -19.3700   21.0730 C   0  0  0  0  0  0  0  0  0  0  0  0
  -29.8400  -18.0030   20.8560 C   0  0  0  0  0  0  0  0  0  0  0  0
  -30.8200  -16.9970   20.5630 C   0  0  0  0  0  0  0  0  0  0  0  0
  -31.0480  -14.6020   19.7680 C   0  0  0  0  0  0  0  0  0  0  0  0
  -30.6730  -12.3760   18.7530 C   0  0  0  0  0  2  0  0  0  0  0  0
  -29.6220  -12.4720   17.6280 C   0  0  0  0  0  2  0  0  0  0  0  0
  -28.1940  -12.3470   18.1940 C   0  0  0  0  0  2  0  0  0  0  0  0
  -27.9540  -13.2670   19.4200 C   0  0  0  0  0  3  0  0  0  0  0  0
  -29.1020  -13.1340   20.4440 C   0  0  0  0  0  2  0  0  0  0  0  0
  -30.3720  -13.4180   19.7510 N   0  0  0  0  0  0  0  0  0  0  0  0
  -32.0910  -14.7670   19.1270 O   0  0  0  0  0  0  0  0  0  0  0  0
  -30.4450  -15.6090   20.4420 N   0  0  0  0  0  0  0  0  0  0  0  0
  -29.5600  -15.3560   20.8540 H   0  0  0  0  0  0  0  0  0  0  0  0
  -25.6860  -13.9220   20.4430 C   0  0  0  0  0  0  0  0  0  0  0  0
  -24.6290  -13.1710   20.8860 C   0  0  0  0  0  0  0  0  0  0  0  0
  -25.0120  -11.8070   20.7070 C   0  0  0  0  0  0  0  0  0  0  0  0
  -26.6510  -13.0150   20.0310 N   0  0  0  0  0  0  0  0  0  0  0  0
  -26.2550  -11.7330   20.2450 N   0  0  0  0  0  0  0  0  0  0  0  0
  -24.2470  -10.5670   20.8950 C   0  0  0  0  0  0  0  0  0  0  0  0
  -24.6640   -9.5730   21.8080 C   0  0  0  0  0  3  0  0  0  0  0  0
  -23.8990   -8.3990   21.9840 C   0  0  0  0  0  3  0  0  0  0  0  0
  -22.7070   -8.2110   21.2460 C   0  0  0  0  0  0  0  0  0  0  0  0
  -22.3100   -9.1930   20.3220 C   0  0  0  0  0  3  0  0  0  0  0  0
  -23.0730  -10.3580   20.1440 C   0  0  0  0  0  3  0  0  0  0  0  0
  -21.9170   -7.0890   21.3320 O   0  0  0  0  0  0  0  0  0  0  0  0
  -21.7800   -6.3930   22.5050 C   0  0  0  0  0  0  0  0  0  0  0  0
  -21.2840   -7.0000   23.6790 C   0  0  0  0  0  3  0  0  0  0  0  0
  -21.0960   -6.2300   24.8450 C   0  0  0  0  0  3  0  0  0  0  0  0
  -21.3910   -4.8540   24.8340 C   0  0  0  0  0  0  0  0  0  0  0  0
  -21.8800   -4.2450   23.6650 C   0  0  0  0  0  3  0  0  0  0  0  0
  -22.0700   -5.0130   22.5030 C   0  0  0  0  0  0  0  0  0  0  0  0
  -22.5200   -4.4180   21.3730 F   0  0  0  0  0  0  0  0  0  0  0  0
  -21.2030   -4.1130   25.9510 F   0  0  0  0  0  0  0  0  0  0  0  0
  -23.2990  -13.6890   21.3510 C   0  0  0  0  0  0  0  0  0  0  0  0
  -22.6470  -12.9690   22.2580 N   0  0  0  0  0  0  0  0  0  0  0  0
  -22.8520  -14.7630   20.9510 O   0  0  0  0  0  0  0  0  0  0  0  0
  -23.0220  -12.0980   22.6010 H   0  0  0  0  0  0  0  0  0  0  0  0
  -21.7590  -13.2920   22.6140 H   0  0  0  0  0  0  0  0  0  0  0  0
  -25.8980  -15.2920   20.3360 N   0  0  0  0  0  0  0  0  0  0  0  0
  -25.1810  -15.9680   20.5810 H   0  0  0  0  0  0  0  0  0  0  0  0
  -26.6980  -15.7160   19.8840 H   0  0  0  0  0  0  0  0  0  0  0  0
  -28.3630  -17.6190   20.9130 C   0  0  0  0  0  2  0  0  0  0  0  0
  -26.6380  -18.6960   19.4080 C   0  0  0  0  0  2  0  0  0  0  0  0
  -27.6660  -17.8530   19.5880 C   0  0  0  0  0  3  0  0  0  0  0  0
  -28.5650  -25.6820   18.7790 C   0  0  0  0  0  2  0  0  0  0  0  0
  -28.3570  -26.8950   19.5110 O   0  0  0  0  0  0  0  0  0  0  0  0
  -24.5130  -31.6880   23.0630 C   0  0  0  0  0  0  0  0  0  0  0  0
  -27.1250  -27.5140   19.5870 C   0  0  0  0  0  0  0  0  0  0  0  0
  -23.2610  -30.3470   21.4020 C   0  0  0  0  0  3  0  0  0  0  0  0
  -24.6840  -28.9320   19.8240 C   0  0  0  0  0  0  0  0  0  0  0  0
  -25.7630  -30.7890   21.1050 C   0  0  0  0  0  2  0  0  0  0  0  0
  -25.8510  -29.4570   20.3880 C   0  0  0  0  0  0  0  0  0  0  0  0
  -27.0680  -28.7480   20.2730 C   0  0  0  0  0  3  0  0  0  0  0  0
  -25.9360  -26.9970   19.0230 C   0  0  0  0  0  3  0  0  0  0  0  0
  -24.7180  -27.6990   19.1480 C   0  0  0  0  0  3  0  0  0  0  0  0
  -23.4230  -29.7560   19.9750 C   0  0  0  0  0  2  0  0  0  0  0  0
  -24.5320  -30.9530   21.9150 N   0  0  0  0  0  0  0  0  0  0  0  0
  -23.4560  -31.8950   23.6760 O   0  0  0  0  0  0  0  0  0  0  0  0
  -22.6960  -29.2490   22.3340 C   0  0  0  0  0  0  0  0  0  0  0  0
  -21.3860  -28.9770   22.2160 N   0  0  0  0  0  0  0  0  0  0  0  0
  -23.4320  -28.6510   23.1230 O   0  0  0  0  0  0  0  0  0  0  0  0
  -20.8430  -29.5210   21.5600 H   0  0  0  0  0  0  0  0  0  0  0  0
  -18.1330  -27.4610   22.6300 C   0  0  0  0  0  0  0  0  0  0  0  0
  -20.6490  -27.9570   22.9660 C   0  0  0  0  0  3  0  0  0  0  0  0
  -20.9010  -26.5470   22.3860 C   0  0  0  0  0  2  0  0  0  0  0  0
  -19.8580  -26.1280   21.3440 C   0  0  0  0  0  2  0  0  0  0  0  0
  -18.4520  -26.1400   21.9510 C   0  0  0  0  0  2  0  0  0  0  0  0
  -19.1640  -28.3210   23.0940 C   0  0  0  0  0  0  0  0  0  0  0  0
  -18.8150  -29.5550   23.6830 C   0  0  0  0  0  3  0  0  0  0  0  0
  -17.4660  -29.9330   23.8150 C   0  0  0  0  0  3  0  0  0  0  0  0
  -16.4480  -29.0710   23.3710 C   0  0  0  0  0  3  0  0  0  0  0  0
  -16.7820  -27.8380   22.7820 C   0  0  0  0  0  3  0  0  0  0  0  0
  -25.8140  -32.3240   23.6460 C   0  0  0  0  0  3  0  0  0  0  0  0
  -25.4950  -33.6990   24.0500 N   0  0  0  0  0  0  0  0  0  0  0  0
  -25.7840  -34.7880   23.3260 C   0  0  0  0  0  0  0  0  0  0  0  0
  -26.4240  -34.7440   22.2720 O   0  0  0  0  0  0  0  0  0  0  0  0
  -24.9330  -33.8100   24.8810 H   0  0  0  0  0  0  0  0  0  0  0  0
  -24.0230  -36.5640   23.0960 C   0  0  0  0  0  1  0  0  0  0  0  0
  -25.2870  -36.1430   23.8610 C   0  0  0  0  0  3  0  0  0  0  0  0
  -27.4200  -37.0290   24.6930 C   0  0  0  0  0  1  0  0  0  0  0  0
  -26.2970  -37.2180   23.7770 N   0  0  0  0  0  0  0  0  0  0  0  0
  -25.8770  -38.1210   23.9800 H   0  0  0  0  0  0  0  0  0  0  0  0
  -26.4150  -31.5100   24.8590 C   0  0  1  0  0  0  0  0  0  0  0  0
  -25.3850  -31.1970   25.9660 C   0  0  0  0  0  1  0  0  0  0  0  0
  -27.0170  -30.1700   24.3720 C   0  0  0  0  0  1  0  0  0  0  0  0
  -27.5730  -32.3070   25.5040 C   0  0  0  0  0  1  0  0  0  0  0  0
  1  7  2  0
  2  1  1  0
  3  5  1  0
  3  4  1  0
  4  6  1  0
  5 56  1  0
  5  2  1  0
  6  1  1  0
  6  8  1  0
  9 10  1  0
 10 12  2  0
 11 14  1  0
 11  9  2  0
 12  8  1  0
 13 53  1  0
 13 12  1  0
 14 13  2  0
 15 23  1  0
 16 21  1  0
 17 18  1  0
 17 16  1  0
 19 18  1  0
 19 28  1  0
 19 20  1  0
 21 15  1  0
 21 20  1  0
 22 15  2  0
 23 14  1  0
 23 24  1  0
 25 26  2  0
 26 45  1  0
 27 26  1  0
 27 30  1  0
 28 29  1  0
 28 25  1  0
 29 27  2  0
 30 31  1  0
 31 32  2  0
 33 36  1  0
 33 32  1  0
 34 33  2  0
 35 34  1  0
 35 30  2  0
 36 37  1  0
 37 38  1  0
 38 39  2  0
 40 39  1  0
 40 44  1  0
 41 40  2  0
 42 37  2  0
 42 41  1  0
 43 42  1  0
 45 46  1  0
 46 48  1  0
 46 49  1  0
 47 45  2  0
 50 25  1  0
 50 51  1  0
 52 50  1  0
 54 55  2  0
 55 53  1  0
 56 57  1  0
 57 59  1  0
 58 69  2  0
 59 64  1  0
 60 68  1  0
 60 70  1  0
 61 67  1  0
 61 63  1  0
 62 68  1  0
 63 62  1  0
 64 63  2  0
 65 66  1  0
 65 59  2  0
 66 61  2  0
 67 60  1  0
 68 58  1  0
 70 72  2  0
 71 70  1  0
 73 71  1  0
 74 83  2  0
 74 79  1  0
 75 71  1  0
 75 79  1  0
 76 75  1  0
 77 78  1  0
 77 76  1  0
 78 74  1  0
 79 80  2  0
 80 81  1  0
 82 81  2  0
 83 82  1  0
 84 58  1  0
 84 85  1  0
 84 94  1  0
 85 88  1  0
 86 90  1  0
 86 85  1  0
 87 86  2  0
 90 89  1  0
 92 90  1  0
 92 93  1  0
 92 91  1  0
 94 97  1  1
 94 95  1  0
 96 94  1  0
M  ISO  4  15 100  23 100  56 101  57 101
M  END
>  <TORSDO>  (65) 
F 21

>  <SCORE>  (65) 
-12.203

>  <name>  (65) 
64

>  <ligand_id>  (65) 
64

>  <original_smiles>  (65) 
[H]C([H])=C([H])C([H])([H])c1c(N([H])C(=O)N2C([H])([H])C([H])([H])C([H])([H])C([H])(n3nc(-c4c([H])c([H])c(Oc5c([H])c([H])c(F)c([H])c5F)c([H])c4[H])c(C(=O)N([H])[H])c3N([H])[H])C2([H])[H])c([H])c([H])c([H])c1C([H])([H])N1C(=O)C([H])([H])C([H])(C([H])([H])Oc2c([H])c([H])c3c(c2[H])C([H])([H])N(C(=O)C([H])(N([H])C(=O)C([H])(N([H])C([H])([H])[H])C([H])([H])[H])C(C([H])([H])[H])(C([H])([H])[H])C([H])([H])[H])C([H])(C(=O)N([H])C2([H])c4c([H])c([H])c([H])c([H])c4C([H])([H])C([H])([H])C2([H])[H])C3([H])[H])C([H])([H])C1([H])[H]

>  <smiles>  (65) 
[H]C([H])=C([H])C([H])([H])c1c(N([H])C(=O)N2C([H])([H])C([H])([H])C([H])([H])C([H])(n3nc(-c4c([H])c([H])c(Oc5c([H])c([H])c(F)c([H])c5F)c([H])c4[H])c(C(=O)N([H])[H])c3N([H])[H])C2([H])[H])c([H])c([H])c([H])c1C([H])([H])N1C(=O)C([H])([H])C([H])(C([H])([H])Oc2c([H])c([H])c3c(c2[H])C([H])([H])N(C(=O)C([H])(N([H])C(=O)C([H])(N([H])C([H])([H])[H])C([H])([H])[H])C(C([H])([H])[H])(C([H])([H])[H])C([H])([H])[H])C([H])(C(=O)N([H])C2([H])c4c([H])c([H])c([H])c([H])c4C([H])([H])C([H])([H])C2([H])[H])C3([H])[H])C([H])([H])C1([H])[H]

$$$$
65:0:0
     RDKit          3D

 92100  0  0  1  0  0  0  0  0999 V2000
  -29.2050  -22.3760   19.9710 C   0  0  0  0  0  0  0  0  0  0  0  0
  -29.4770  -21.2170   20.6870 N   0  0  0  0  0  0  0  0  0  0  0  0
  -29.1430  -22.3320   18.7400 O   0  0  0  0  0  0  0  0  0  0  0  0
  -29.2860  -21.2770   21.6800 H   0  0  0  0  0  0  0  0  0  0  0  0
  -32.0820  -18.9030   19.1490 C   0  0  0  0  0  3  0  0  0  0  0  0
  -31.5730  -17.6150   19.3900 C   0  0  0  0  0  3  0  0  0  0  0  0
  -29.6950  -18.6140   20.5500 C   0  0  0  0  0  3  0  0  0  0  0  0
  -31.4300  -20.0610   19.6130 C   0  0  0  0  0  0  0  0  0  0  0  0
  -30.4010  -17.3960   20.1570 C   0  0  0  0  0  0  0  0  0  0  0  0
  -30.1590  -19.9690   20.2520 C   0  0  0  0  0  0  0  0  0  0  0  0
  -32.1860  -21.3770   19.4520 C   0  0  0  0  0  1  0  0  0  0  0  0
  -30.6450  -14.7840   20.3110 C   0  0  0  0  0  0  0  0  0  0  0  0
  -30.3410  -12.5210   19.3160 C   0  0  0  0  0  2  0  0  0  0  0  0
  -29.4000  -12.6130   18.0980 C   0  0  0  0  0  2  0  0  0  0  0  0
  -27.9340  -12.4550   18.5440 C   0  0  0  0  0  2  0  0  0  0  0  0
  -27.5800  -13.3440   19.7650 C   0  0  0  0  0  3  0  0  0  0  0  0
  -28.6550  -13.2780   20.8740 C   0  0  0  0  0  2  0  0  0  0  0  0
  -29.9470  -13.5970   20.2560 N   0  0  0  0  0  0  0  0  0  0  0  0
  -31.8460  -14.7670   20.0440 O   0  0  0  0  0  0  0  0  0  0  0  0
  -29.9640  -15.9940   20.4590 N   0  0  0  0  0  0  0  0  0  0  0  0
  -29.0010  -15.8940   20.7400 H   0  0  0  0  0  0  0  0  0  0  0  0
  -25.2020  -13.9360   20.5200 C   0  0  0  0  0  0  0  0  0  0  0  0
  -24.1360  -13.1640   20.8950 C   0  0  0  0  0  0  0  0  0  0  0  0
  -24.5960  -11.8110   20.8590 C   0  0  0  0  0  0  0  0  0  0  0  0
  -26.2420  -13.0550   20.2740 N   0  0  0  0  0  0  0  0  0  0  0  0
  -25.8860  -11.7720   20.5420 N   0  0  0  0  0  0  0  0  0  0  0  0
  -23.8640  -10.5490   21.0470 C   0  0  0  0  0  0  0  0  0  0  0  0
  -24.2940   -9.5780   21.9770 C   0  0  0  0  0  3  0  0  0  0  0  0
  -23.5620   -8.3830   22.1550 C   0  0  0  0  0  3  0  0  0  0  0  0
  -22.3840   -8.1540   21.4040 C   0  0  0  0  0  0  0  0  0  0  0  0
  -21.9740   -9.1150   20.4640 C   0  0  0  0  0  3  0  0  0  0  0  0
  -22.7060  -10.3000   20.2830 C   0  0  0  0  0  3  0  0  0  0  0  0
  -21.6240   -7.0130   21.4930 O   0  0  0  0  0  0  0  0  0  0  0  0
  -21.5760   -6.2680   22.6420 C   0  0  0  0  0  0  0  0  0  0  0  0
  -21.1490   -6.8200   23.8710 C   0  0  0  0  0  3  0  0  0  0  0  0
  -21.0480   -5.9990   25.0130 C   0  0  0  0  0  3  0  0  0  0  0  0
  -21.3630   -4.6290   24.9270 C   0  0  0  0  0  0  0  0  0  0  0  0
  -21.7840   -4.0790   23.7040 C   0  0  0  0  0  3  0  0  0  0  0  0
  -21.8860   -4.8950   22.5640 C   0  0  0  0  0  0  0  0  0  0  0  0
  -22.2700   -4.3540   21.3840 F   0  0  0  0  0  0  0  0  0  0  0  0
  -21.2590   -3.8400   26.0230 F   0  0  0  0  0  0  0  0  0  0  0  0
  -22.7420  -13.6450   21.1740 C   0  0  0  0  0  0  0  0  0  0  0  0
  -22.0140  -12.9460   22.0380 N   0  0  0  0  0  0  0  0  0  0  0  0
  -22.3070  -14.6750   20.6610 O   0  0  0  0  0  0  0  0  0  0  0  0
  -22.3780  -12.1120   22.4730 H   0  0  0  0  0  0  0  0  0  0  0  0
  -21.0790  -13.2500   22.2680 H   0  0  0  0  0  0  0  0  0  0  0  0
  -25.3690  -15.3060   20.3430 N   0  0  0  0  0  0  0  0  0  0  0  0
  -24.6020  -15.9600   20.4470 H   0  0  0  0  0  0  0  0  0  0  0  0
  -26.2120  -15.7390   19.9880 H   0  0  0  0  0  0  0  0  0  0  0  0
  -28.9520  -23.7940   20.6690 C   0  0  0  0  0  3  0  0  0  0  0  0
  -28.2140  -24.9770   19.8490 C   0  0  0  0  0  3  0  0  0  0  0  0
  -28.3060  -26.4270   20.2450 O   0  0  0  0  0  0  0  0  0  0  0  0
  -24.6060  -31.8890   23.2230 C   0  0  0  0  0  0  0  0  0  0  0  0
  -27.1950  -27.3010   20.1530 C   0  0  0  0  0  0  0  0  0  0  0  0
  -23.3940  -30.4940   21.5870 C   0  0  0  0  0  3  0  0  0  0  0  0
  -24.8370  -28.9480   20.1470 C   0  0  0  0  0  0  0  0  0  0  0  0
  -25.9370  -30.7990   21.3990 C   0  0  0  0  0  2  0  0  0  0  0  0
  -26.0090  -29.4200   20.7500 C   0  0  0  0  0  0  0  0  0  0  0  0
  -27.1860  -28.6060   20.7490 C   0  0  0  0  0  3  0  0  0  0  0  0
  -26.0040  -26.9080   19.4950 C   0  0  0  0  0  3  0  0  0  0  0  0
  -24.8400  -27.6990   19.5100 C   0  0  0  0  0  3  0  0  0  0  0  0
  -23.6030  -29.8250   20.2040 C   0  0  0  0  0  2  0  0  0  0  0  0
  -24.6650  -31.0800   22.1240 N   0  0  0  0  0  0  0  0  0  0  0  0
  -23.5240  -32.1670   23.7620 O   0  0  0  0  0  0  0  0  0  0  0  0
  -22.7360  -29.4750   22.5470 C   0  0  0  0  0  0  0  0  0  0  0  0
  -21.4080  -29.2990   22.4280 N   0  0  0  0  0  0  0  0  0  0  0  0
  -23.4170  -28.8480   23.3630 O   0  0  0  0  0  0  0  0  0  0  0  0
  -20.9180  -29.8580   21.7440 H   0  0  0  0  0  0  0  0  0  0  0  0
  -18.0320  -28.1010   22.9370 C   0  0  0  0  0  0  0  0  0  0  0  0
  -20.5910  -28.3600   23.2000 C   0  0  0  0  0  3  0  0  0  0  0  0
  -20.6910  -26.9290   22.6250 C   0  0  0  0  0  2  0  0  0  0  0  0
  -19.5850  -26.6080   21.6140 C   0  0  0  0  0  2  0  0  0  0  0  0
  -18.2050  -26.7530   22.2620 C   0  0  0  0  0  2  0  0  0  0  0  0
  -19.1520  -28.8630   23.3640 C   0  0  0  0  0  0  0  0  0  0  0  0
  -18.9360  -30.1260   23.9570 C   0  0  0  0  0  3  0  0  0  0  0  0
  -17.6290  -30.6250   24.1290 C   0  0  0  0  0  3  0  0  0  0  0  0
  -16.5240  -29.8600   23.7190 C   0  0  0  0  0  3  0  0  0  0  0  0
  -16.7270  -28.6000   23.1280 C   0  0  0  0  0  3  0  0  0  0  0  0
  -25.8890  -32.5210   23.8420 C   0  0  0  0  0  3  0  0  0  0  0  0
  -26.4090  -31.7500   25.1170 C   0  0  1  0  0  0  0  0  0  0  0  0
  -25.3190  -31.5150   26.1880 C   0  0  0  0  0  1  0  0  0  0  0  0
  -26.9900  -30.3710   24.7240 C   0  0  0  0  0  1  0  0  0  0  0  0
  -27.5600  -32.5460   25.7750 C   0  0  0  0  0  1  0  0  0  0  0  0
  -25.5800  -33.9200   24.1760 N   0  0  0  0  0  0  0  0  0  0  0  0
  -25.9060  -34.9750   23.4160 C   0  0  0  0  0  0  0  0  0  0  0  0
  -26.5670  -34.8720   22.3800 O   0  0  0  0  0  0  0  0  0  0  0  0
  -24.9940  -34.0730   24.9820 H   0  0  0  0  0  0  0  0  0  0  0  0
  -24.1770  -36.7720   23.0730 C   0  0  0  0  0  1  0  0  0  0  0  0
  -25.4200  -36.3630   23.8800 C   0  0  0  0  0  3  0  0  0  0  0  0
  -27.5580  -37.2450   24.7080 C   0  0  0  0  0  1  0  0  0  0  0  0
  -26.4530  -37.4150   23.7660 N   0  0  0  0  0  0  0  0  0  0  0  0
  -26.0480  -38.3360   23.9140 H   0  0  0  0  0  0  0  0  0  0  0  0
  1 50  1  0
  1  2  1  0
  2  4  1  0
  3  1  2  0
  5  6  2  0
  5  8  1  0
  6  9  1  0
  8 10  2  0
  9 20  1  0
  9  7  2  0
 10  7  1  0
 10  2  1  0
 11  8  1  0
 12 20  1  0
 13 18  1  0
 14 15  1  0
 14 13  1  0
 16 15  1  0
 16 25  1  0
 16 17  1  0
 18 12  1  0
 18 17  1  0
 19 12  2  0
 20 21  1  0
 22 23  2  0
 23 42  1  0
 24 23  1  0
 24 27  1  0
 25 22  1  0
 25 26  1  0
 26 24  2  0
 27 28  1  0
 28 29  2  0
 30 33  1  0
 30 29  1  0
 31 30  2  0
 32 31  1  0
 32 27  2  0
 33 34  1  0
 34 35  1  0
 35 36  2  0
 37 36  1  0
 37 41  1  0
 38 37  2  0
 39 34  2  0
 39 38  1  0
 40 39  1  0
 42 43  1  0
 43 46  1  0
 43 45  1  0
 44 42  2  0
 47 48  1  0
 47 22  1  0
 49 47  1  0
 51 52  1  0
 51 50  2  0
 53 64  2  0
 54 52  1  0
 54 59  1  0
 55 63  1  0
 55 65  1  0
 56 62  1  0
 56 58  1  0
 57 63  1  0
 58 57  1  0
 59 58  2  0
 60 61  1  0
 60 54  2  0
 61 56  2  0
 62 55  1  0
 63 53  1  0
 65 67  2  0
 66 65  1  0
 68 66  1  0
 69 78  2  0
 69 74  1  0
 70 66  1  0
 70 74  1  0
 71 70  1  0
 72 73  1  0
 72 71  1  0
 73 69  1  0
 74 75  2  0
 75 76  1  0
 77 76  2  0
 78 77  1  0
 79 53  1  0
 79 84  1  0
 79 80  1  0
 80 83  1  1
 80 81  1  0
 82 80  1  0
 84 87  1  0
 85 89  1  0
 85 84  1  0
 86 85  2  0
 89 88  1  0
 91 89  1  0
 91 92  1  0
 91 90  1  0
M  ISO  4  12 100  20 100  51 101  52 101
M  END
>  <TORSDO>  (66) 
F 19

>  <SCORE>  (66) 
-14.267

>  <name>  (66) 
65

>  <ligand_id>  (66) 
65

>  <original_smiles>  (66) 
[H]c1c([H])c([H])c2c(c1[H])C([H])([H])C([H])([H])C([H])([H])C2([H])N([H])C(=O)C1([H])N(C(=O)C([H])(N([H])C(=O)C([H])(N([H])C([H])([H])[H])C([H])([H])[H])C(C([H])([H])[H])(C([H])([H])[H])C([H])([H])[H])C([H])([H])c2c([H])c(OC([H])([H])C([H])([H])C(=O)N([H])c3c([H])c(N([H])C(=O)N4C([H])([H])C([H])([H])C([H])([H])C([H])(n5nc(-c6c([H])c([H])c(Oc7c([H])c([H])c(F)c([H])c7F)c([H])c6[H])c(C(=O)N([H])[H])c5N([H])[H])C4([H])[H])c([H])c([H])c3C([H])([H])[H])c([H])c([H])c2C1([H])[H]

>  <smiles>  (66) 
[H]c1c([H])c([H])c2c(c1[H])C([H])([H])C([H])([H])C([H])([H])C2([H])N([H])C(=O)C1([H])N(C(=O)C([H])(N([H])C(=O)C([H])(N([H])C([H])([H])[H])C([H])([H])[H])C(C([H])([H])[H])(C([H])([H])[H])C([H])([H])[H])C([H])([H])c2c([H])c(OC([H])([H])C([H])([H])C(=O)N([H])c3c([H])c(N([H])C(=O)N4C([H])([H])C([H])([H])C([H])([H])C([H])(n5nc(-c6c([H])c([H])c(Oc7c([H])c([H])c(F)c([H])c7F)c([H])c6[H])c(C(=O)N([H])[H])c5N([H])[H])C4([H])[H])c([H])c([H])c3C([H])([H])[H])c([H])c([H])c2C1([H])[H]

$$$$
66:0:0
     RDKit          3D

 93101  0  0  1  0  0  0  0  0999 V2000
  -29.0980  -21.6170   20.2210 C   0  0  0  0  0  0  0  0  0  0  0  0
  -29.5330  -20.8050   21.2170 N   0  0  0  0  0  0  0  0  0  0  0  0
  -28.7740  -21.1900   19.1100 O   0  0  0  0  0  0  0  0  0  0  0  0
  -29.7110  -21.3300   22.0610 H   0  0  0  0  0  0  0  0  0  0  0  0
  -32.2580  -18.3410   21.9060 C   0  0  0  0  0  3  0  0  0  0  0  0
  -31.7190  -17.1190   21.4790 C   0  0  0  0  0  3  0  0  0  0  0  0
  -29.6920  -18.2730   20.7510 C   0  0  0  0  0  3  0  0  0  0  0  0
  -31.5330  -19.5380   21.7650 C   0  0  0  0  0  0  0  0  0  0  0  0
  -30.4370  -17.0460   20.8890 C   0  0  0  0  0  0  0  0  0  0  0  0
  -30.2360  -19.5340   21.1830 C   0  0  0  0  0  0  0  0  0  0  0  0
  -32.1780  -20.8260   22.2670 C   0  0  0  0  0  1  0  0  0  0  0  0
  -30.6110  -14.6450   20.0840 C   0  0  0  0  0  0  0  0  0  0  0  0
  -30.2910  -12.4660   18.9460 C   0  0  0  0  0  2  0  0  0  0  0  0
  -29.2830  -12.6180   17.7870 C   0  0  0  0  0  2  0  0  0  0  0  0
  -27.8400  -12.4460   18.2990 C   0  0  0  0  0  2  0  0  0  0  0  0
  -27.5500  -13.2820   19.5720 C   0  0  0  0  0  3  0  0  0  0  0  0
  -28.6690  -13.1190   20.6250 C   0  0  0  0  0  2  0  0  0  0  0  0
  -29.9370  -13.4620   19.9750 N   0  0  0  0  0  0  0  0  0  0  0  0
  -31.7460  -14.7740   19.6140 O   0  0  0  0  0  0  0  0  0  0  0  0
  -29.9130  -15.7350   20.5320 N   0  0  0  0  0  0  0  0  0  0  0  0
  -28.9240  -15.5910   20.6710 H   0  0  0  0  0  0  0  0  0  0  0  0
  -25.1980  -13.8460   20.4420 C   0  0  0  0  0  0  0  0  0  0  0  0
  -24.1600  -13.0540   20.8510 C   0  0  0  0  0  0  0  0  0  0  0  0
  -24.6310  -11.7090   20.7630 C   0  0  0  0  0  0  0  0  0  0  0  0
  -26.2330  -12.9800   20.1270 N   0  0  0  0  0  0  0  0  0  0  0  0
  -25.9010  -11.6890   20.3810 N   0  0  0  0  0  0  0  0  0  0  0  0
  -23.9260  -10.4360   20.9610 C   0  0  0  0  0  0  0  0  0  0  0  0
  -24.3810   -9.4780   21.8930 C   0  0  0  0  0  3  0  0  0  0  0  0
  -23.6750   -8.2680   22.0780 C   0  0  0  0  0  3  0  0  0  0  0  0
  -22.5000   -8.0100   21.3330 C   0  0  0  0  0  0  0  0  0  0  0  0
  -22.0670   -8.9580   20.3880 C   0  0  0  0  0  3  0  0  0  0  0  0
  -22.7720  -10.1590   20.2020 C   0  0  0  0  0  3  0  0  0  0  0  0
  -21.7640   -6.8540   21.4260 O   0  0  0  0  0  0  0  0  0  0  0  0
  -21.7060   -6.1340   22.5920 C   0  0  0  0  0  0  0  0  0  0  0  0
  -21.2160   -6.6930   23.7920 C   0  0  0  0  0  3  0  0  0  0  0  0
  -21.1080   -5.8950   24.9490 C   0  0  0  0  0  3  0  0  0  0  0  0
  -21.4800   -4.5370   24.9060 C   0  0  0  0  0  0  0  0  0  0  0  0
  -21.9620   -3.9770   23.7100 C   0  0  0  0  0  3  0  0  0  0  0  0
  -22.0720   -4.7720   22.5560 C   0  0  0  0  0  0  0  0  0  0  0  0
  -22.5170   -4.2200   21.4010 F   0  0  0  0  0  0  0  0  0  0  0  0
  -21.3690   -3.7680   26.0150 F   0  0  0  0  0  0  0  0  0  0  0  0
  -22.7760  -13.5140   21.2100 C   0  0  0  0  0  0  0  0  0  0  0  0
  -22.0990  -12.7880   22.0930 N   0  0  0  0  0  0  0  0  0  0  0  0
  -22.3040  -14.5490   20.7420 O   0  0  0  0  0  0  0  0  0  0  0  0
  -22.4920  -11.9490   22.4920 H   0  0  0  0  0  0  0  0  0  0  0  0
  -21.1740  -13.0790   22.3750 H   0  0  0  0  0  0  0  0  0  0  0  0
  -25.3420  -15.2210   20.2860 N   0  0  0  0  0  0  0  0  0  0  0  0
  -24.5790  -15.8670   20.4540 H   0  0  0  0  0  0  0  0  0  0  0  0
  -26.1570  -15.6710   19.8880 H   0  0  0  0  0  0  0  0  0  0  0  0
  -29.0170  -23.1530   20.5480 C   0  0  0  0  0  2  0  0  0  0  0  0
  -27.9760  -24.0690   19.7950 C   0  0  0  0  0  2  0  0  0  0  0  0
  -28.4630  -25.4920   19.3090 C   0  0  0  0  0  2  0  0  0  0  0  0
  -28.3180  -26.6720   20.1580 O   0  0  0  0  0  0  0  0  0  0  0  0
  -24.5920  -31.9850   23.2290 C   0  0  0  0  0  0  0  0  0  0  0  0
  -27.1580  -27.4470   20.1310 C   0  0  0  0  0  0  0  0  0  0  0  0
  -23.3550  -30.5710   21.6210 C   0  0  0  0  0  3  0  0  0  0  0  0
  -24.7800  -29.0140   20.1800 C   0  0  0  0  0  0  0  0  0  0  0  0
  -25.8850  -30.9030   21.3830 C   0  0  0  0  0  2  0  0  0  0  0  0
  -25.9550  -29.5210   20.7480 C   0  0  0  0  0  0  0  0  0  0  0  0
  -27.1430  -28.7420   20.7250 C   0  0  0  0  0  3  0  0  0  0  0  0
  -25.9540  -26.9710   19.5630 C   0  0  0  0  0  3  0  0  0  0  0  0
  -24.7780  -27.7410   19.5860 C   0  0  0  0  0  3  0  0  0  0  0  0
  -23.5430  -29.8860   20.2420 C   0  0  0  0  0  2  0  0  0  0  0  0
  -24.6300  -31.1720   22.1340 N   0  0  0  0  0  0  0  0  0  0  0  0
  -23.5200  -32.2620   23.7870 O   0  0  0  0  0  0  0  0  0  0  0  0
  -22.7180  -29.5580   22.6020 C   0  0  0  0  0  0  0  0  0  0  0  0
  -21.3940  -29.3590   22.4910 N   0  0  0  0  0  0  0  0  0  0  0  0
  -23.4160  -28.9540   23.4210 O   0  0  0  0  0  0  0  0  0  0  0  0
  -20.8930  -29.9030   21.8020 H   0  0  0  0  0  0  0  0  0  0  0  0
  -18.0390  -28.1190   23.0200 C   0  0  0  0  0  0  0  0  0  0  0  0
  -20.5930  -28.4220   23.2810 C   0  0  0  0  0  3  0  0  0  0  0  0
  -20.7160  -26.9800   22.7320 C   0  0  0  0  0  2  0  0  0  0  0  0
  -19.6160  -26.6220   21.7250 C   0  0  0  0  0  2  0  0  0  0  0  0
  -18.2340  -26.7570   22.3710 C   0  0  0  0  0  2  0  0  0  0  0  0
  -19.1460  -28.9060   23.4340 C   0  0  0  0  0  0  0  0  0  0  0  0
  -18.9110  -30.1770   24.0010 C   0  0  0  0  0  3  0  0  0  0  0  0
  -17.6000  -30.6630   24.1570 C   0  0  0  0  0  3  0  0  0  0  0  0
  -16.5050  -29.8740   23.7620 C   0  0  0  0  0  3  0  0  0  0  0  0
  -16.7260  -28.6030   23.2000 C   0  0  0  0  0  3  0  0  0  0  0  0
  -25.8880  -32.6230   23.8190 C   0  0  0  0  0  3  0  0  0  0  0  0
  -26.4440  -31.8480   25.0770 C   0  0  1  0  0  0  0  0  0  0  0  0
  -25.3760  -31.5810   26.1650 C   0  0  0  0  0  1  0  0  0  0  0  0
  -27.0390  -30.4830   24.6590 C   0  0  0  0  0  1  0  0  0  0  0  0
  -27.6000  -32.6530   25.7190 C   0  0  0  0  0  1  0  0  0  0  0  0
  -25.5770  -34.0160   24.1640 N   0  0  0  0  0  0  0  0  0  0  0  0
  -25.8850  -35.0740   23.4000 C   0  0  0  0  0  0  0  0  0  0  0  0
  -26.5310  -34.9780   22.3530 O   0  0  0  0  0  0  0  0  0  0  0  0
  -24.9960  -34.1620   24.9760 H   0  0  0  0  0  0  0  0  0  0  0  0
  -24.1430  -36.8620   23.0910 C   0  0  0  0  0  1  0  0  0  0  0  0
  -25.4030  -36.4580   23.8730 C   0  0  0  0  0  3  0  0  0  0  0  0
  -27.5510  -37.3510   24.6640 C   0  0  0  0  0  1  0  0  0  0  0  0
  -26.4300  -37.5150   23.7420 N   0  0  0  0  0  0  0  0  0  0  0  0
  -26.0250  -38.4330   23.8980 H   0  0  0  0  0  0  0  0  0  0  0  0
  1 50  1  0
  1  2  1  0
  2  4  1  0
  3  1  2  0
  6  5  2  0
  7  9  2  0
  7 10  1  0
  8  5  1  0
  8 11  1  0
  9  6  1  0
 10  2  1  0
 10  8  2  0
 12 20  1  0
 13 18  1  0
 14 15  1  0
 14 13  1  0
 16 15  1  0
 16 25  1  0
 16 17  1  0
 18 12  1  0
 18 17  1  0
 19 12  2  0
 20 21  1  0
 20  9  1  0
 22 23  2  0
 23 42  1  0
 24 23  1  0
 24 27  1  0
 25 26  1  0
 25 22  1  0
 26 24  2  0
 27 28  1  0
 28 29  2  0
 30 33  1  0
 30 29  1  0
 31 30  2  0
 32 31  1  0
 32 27  2  0
 33 34  1  0
 34 35  1  0
 35 36  2  0
 37 36  1  0
 37 41  1  0
 38 37  2  0
 39 34  2  0
 39 38  1  0
 40 39  1  0
 42 43  1  0
 43 46  1  0
 43 45  1  0
 44 42  2  0
 47 22  1  0
 47 48  1  0
 49 47  1  0
 51 50  1  0
 52 51  1  0
 52 53  1  0
 54 65  2  0
 55 53  1  0
 55 60  1  0
 56 64  1  0
 56 66  1  0
 57 63  1  0
 57 59  1  0
 58 64  1  0
 59 58  1  0
 60 59  2  0
 61 62  1  0
 61 55  2  0
 62 57  2  0
 63 56  1  0
 64 54  1  0
 66 68  2  0
 67 66  1  0
 69 67  1  0
 70 79  2  0
 70 75  1  0
 71 67  1  0
 71 75  1  0
 72 71  1  0
 73 74  1  0
 73 72  1  0
 74 70  1  0
 75 76  2  0
 76 77  1  0
 78 77  2  0
 79 78  1  0
 80 54  1  0
 80 85  1  0
 80 81  1  0
 81 84  1  1
 81 82  1  0
 83 81  1  0
 85 88  1  0
 86 90  1  0
 86 85  1  0
 87 86  2  0
 90 89  1  0
 92 90  1  0
 92 93  1  0
 92 91  1  0
M  ISO  4  12 100  20 100  52 101  53 101
M  END
>  <TORSDO>  (67) 
F 20

>  <SCORE>  (67) 
-13.386

>  <name>  (67) 
66

>  <ligand_id>  (67) 
66

>  <original_smiles>  (67) 
[H]c1c([H])c([H])c2c(c1[H])C([H])([H])C([H])([H])C([H])([H])C2([H])N([H])C(=O)C1([H])N(C(=O)C([H])(N([H])C(=O)C([H])(N([H])C([H])([H])[H])C([H])([H])[H])C(C([H])([H])[H])(C([H])([H])[H])C([H])([H])[H])C([H])([H])c2c([H])c(OC([H])([H])C([H])([H])C([H])([H])C(=O)N([H])c3c([H])c(N([H])C(=O)N4C([H])([H])C([H])([H])C([H])([H])C([H])(n5nc(-c6c([H])c([H])c(Oc7c([H])c([H])c(F)c([H])c7F)c([H])c6[H])c(C(=O)N([H])[H])c5N([H])[H])C4([H])[H])c([H])c([H])c3C([H])([H])[H])c([H])c([H])c2C1([H])[H]

>  <smiles>  (67) 
[H]c1c([H])c([H])c2c(c1[H])C([H])([H])C([H])([H])C([H])([H])C2([H])N([H])C(=O)C1([H])N(C(=O)C([H])(N([H])C(=O)C([H])(N([H])C([H])([H])[H])C([H])([H])[H])C(C([H])([H])[H])(C([H])([H])[H])C([H])([H])[H])C([H])([H])c2c([H])c(OC([H])([H])C([H])([H])C([H])([H])C(=O)N([H])c3c([H])c(N([H])C(=O)N4C([H])([H])C([H])([H])C([H])([H])C([H])(n5nc(-c6c([H])c([H])c(Oc7c([H])c([H])c(F)c([H])c7F)c([H])c6[H])c(C(=O)N([H])[H])c5N([H])[H])C4([H])[H])c([H])c([H])c3C([H])([H])[H])c([H])c([H])c2C1([H])[H]

$$$$
67:0:0
     RDKit          3D

 96105  0  0  1  0  0  0  0  0999 V2000
  -27.8400  -22.7820   20.7850 C   0  0  0  0  0  0  0  0  0  0  0  0
  -29.1360  -21.9330   20.8660 C   0  0  0  0  0  0  0  0  0  0  0  0
  -28.4280  -23.1540   18.3220 C   0  0  0  0  0  2  0  0  0  0  0  0
  -28.7810  -21.6490   18.4410 C   0  0  0  0  0  2  0  0  0  0  0  0
  -27.7050  -23.7330   19.5760 C   0  0  0  0  0  3  0  0  0  0  0  0
  -29.5310  -21.3920   19.6850 N   0  0  0  0  0  0  0  0  0  0  0  0
  -26.9670  -22.7340   21.6600 O   0  0  0  0  0  0  0  0  0  0  0  0
  -29.7370  -21.8100   21.9390 O   0  0  0  0  0  0  0  0  0  0  0  0
  -30.7940  -20.6390   19.5570 C   0  0  0  0  0  2  0  0  0  0  0  0
  -30.6300  -19.1500   21.6050 C   0  0  0  0  0  3  0  0  0  0  0  0
  -30.9670  -16.7370   21.4850 C   0  0  0  0  0  3  0  0  0  0  0  0
  -31.0570  -18.0830   19.4570 C   0  0  0  0  0  3  0  0  0  0  0  0
  -30.7010  -17.8960   22.2410 C   0  0  0  0  0  0  0  0  0  0  0  0
  -30.8130  -19.2570   20.2150 C   0  0  0  0  0  0  0  0  0  0  0  0
  -31.1420  -16.8140   20.0850 C   0  0  0  0  0  0  0  0  0  0  0  0
  -30.4900  -17.7920   23.7360 C   0  0  0  0  0  1  0  0  0  0  0  0
  -32.0120  -14.5560   19.5110 C   0  0  0  0  0  0  0  0  0  0  0  0
  -31.5440  -12.2730   18.7180 C   0  0  0  0  0  2  0  0  0  0  0  0
  -30.5060  -12.3380   17.5810 C   0  0  0  0  0  2  0  0  0  0  0  0
  -29.0670  -12.3790   18.1460 C   0  0  0  0  0  2  0  0  0  0  0  0
  -28.8830  -13.4240   19.2790 C   0  0  0  0  0  3  0  0  0  0  0  0
  -30.0120  -13.2650   20.3190 C   0  0  0  0  0  2  0  0  0  0  0  0
  -31.2910  -13.4090   19.6150 N   0  0  0  0  0  0  0  0  0  0  0  0
  -33.1750  -14.5760   19.0970 O   0  0  0  0  0  0  0  0  0  0  0  0
  -31.2500  -15.6420   19.2850 N   0  0  0  0  0  0  0  0  0  0  0  0
  -31.3470  -15.8810   18.3090 H   0  0  0  0  0  0  0  0  0  0  0  0
  -26.7050  -14.3510   20.2950 C   0  0  0  0  0  0  0  0  0  0  0  0
  -25.5570  -13.7340   20.7140 C   0  0  0  0  0  0  0  0  0  0  0  0
  -25.7770  -12.3320   20.5320 C   0  0  0  0  0  0  0  0  0  0  0  0
  -27.5590  -13.3350   19.8880 N   0  0  0  0  0  0  0  0  0  0  0  0
  -27.0070  -12.1120   20.0880 N   0  0  0  0  0  0  0  0  0  0  0  0
  -24.8670  -11.1910   20.7000 C   0  0  0  0  0  0  0  0  0  0  0  0
  -25.2170  -10.0810   21.5010 C   0  0  0  0  0  3  0  0  0  0  0  0
  -24.3190   -9.0040   21.6580 C   0  0  0  0  0  3  0  0  0  0  0  0
  -23.0580   -9.0300   21.0190 C   0  0  0  0  0  0  0  0  0  0  0  0
  -22.7260  -10.1280   20.2050 C   0  0  0  0  0  3  0  0  0  0  0  0
  -23.6220  -11.1970   20.0440 C   0  0  0  0  0  3  0  0  0  0  0  0
  -22.1330   -8.0180   21.0960 O   0  0  0  0  0  0  0  0  0  0  0  0
  -21.9290   -7.3180   22.2580 C   0  0  0  0  0  0  0  0  0  0  0  0
  -21.5840   -7.9640   23.4650 C   0  0  0  0  0  3  0  0  0  0  0  0
  -21.3120   -7.2020   24.6180 C   0  0  0  0  0  3  0  0  0  0  0  0
  -21.3800   -5.7980   24.5670 C   0  0  0  0  0  0  0  0  0  0  0  0
  -21.7170   -5.1510   23.3660 C   0  0  0  0  0  3  0  0  0  0  0  0
  -21.9870   -5.9100   22.2120 C   0  0  0  0  0  0  0  0  0  0  0  0
  -22.2910   -5.2820   21.0520 F   0  0  0  0  0  0  0  0  0  0  0  0
  -21.1120   -5.0650   25.6740 F   0  0  0  0  0  0  0  0  0  0  0  0
  -24.2880  -14.4020   21.1670 C   0  0  0  0  0  0  0  0  0  0  0  0
  -23.6100  -13.8270   22.1560 N   0  0  0  0  0  0  0  0  0  0  0  0
  -23.9180  -15.4680   20.6770 O   0  0  0  0  0  0  0  0  0  0  0  0
  -23.9260  -12.9650   22.5720 H   0  0  0  0  0  0  0  0  0  0  0  0
  -22.7660  -14.2580   22.5030 H   0  0  0  0  0  0  0  0  0  0  0  0
  -27.0930  -15.6840   20.2050 N   0  0  0  0  0  0  0  0  0  0  0  0
  -26.4870  -16.4550   20.4650 H   0  0  0  0  0  0  0  0  0  0  0  0
  -28.0090  -15.9870   19.8980 H   0  0  0  0  0  0  0  0  0  0  0  0
  -28.1270  -25.1980   19.9700 C   0  0  0  0  0  2  0  0  0  0  0  0
  -28.1610  -26.5420   19.4250 O   0  0  0  0  0  0  0  0  0  0  0  0
  -24.6670  -31.5180   23.1460 C   0  0  0  0  0  0  0  0  0  0  0  0
  -27.0170  -27.3230   19.5330 C   0  0  0  0  0  0  0  0  0  0  0  0
  -23.3470  -30.3410   21.4180 C   0  0  0  0  0  3  0  0  0  0  0  0
  -24.6830  -28.8970   19.7960 C   0  0  0  0  0  0  0  0  0  0  0  0
  -25.8740  -30.6240   21.1580 C   0  0  0  0  0  2  0  0  0  0  0  0
  -25.8830  -29.3240   20.3790 C   0  0  0  0  0  0  0  0  0  0  0  0
  -27.0560  -28.5460   20.2390 C   0  0  0  0  0  3  0  0  0  0  0  0
  -25.7960  -26.9040   18.9620 C   0  0  0  0  0  3  0  0  0  0  0  0
  -24.6320  -27.6850   19.0890 C   0  0  0  0  0  3  0  0  0  0  0  0
  -23.4790  -29.7950   19.9720 C   0  0  0  0  0  2  0  0  0  0  0  0
  -24.6510  -30.8360   21.9660 N   0  0  0  0  0  0  0  0  0  0  0  0
  -23.6160  -31.7750   23.7500 O   0  0  0  0  0  0  0  0  0  0  0  0
  -22.6880  -29.2530   22.2970 C   0  0  0  0  0  0  0  0  0  0  0  0
  -21.3510  -29.1450   22.2100 N   0  0  0  0  0  0  0  0  0  0  0  0
  -23.3710  -28.5180   23.0120 O   0  0  0  0  0  0  0  0  0  0  0  0
  -20.8590  -29.7920   21.6080 H   0  0  0  0  0  0  0  0  0  0  0  0
  -17.9480  -28.0480   22.7170 C   0  0  0  0  0  0  0  0  0  0  0  0
  -20.5200  -28.1690   22.9130 C   0  0  0  0  0  3  0  0  0  0  0  0
  -20.5380  -26.8060   22.1860 C   0  0  0  0  0  2  0  0  0  0  0  0
  -19.3870  -26.6350   21.1900 C   0  0  0  0  0  2  0  0  0  0  0  0
  -18.0370  -26.7720   21.8970 C   0  0  0  0  0  2  0  0  0  0  0  0
  -19.1150  -28.7140   23.1800 C   0  0  0  0  0  0  0  0  0  0  0  0
  -18.9760  -29.9180   23.9030 C   0  0  0  0  0  3  0  0  0  0  0  0
  -17.7020  -30.4520   24.1720 C   0  0  0  0  0  3  0  0  0  0  0  0
  -16.5500  -29.7820   23.7270 C   0  0  0  0  0  3  0  0  0  0  0  0
  -16.6750  -28.5800   23.0050 C   0  0  0  0  0  3  0  0  0  0  0  0
  -25.9980  -32.0320   23.7760 C   0  0  0  0  0  3  0  0  0  0  0  0
  -26.5190  -31.1240   24.9570 C   0  0  1  0  0  0  0  0  0  0  0  0
  -25.4580  -30.8500   26.0490 C   0  0  0  0  0  1  0  0  0  0  0  0
  -27.0080  -29.7590   24.4200 C   0  0  0  0  0  1  0  0  0  0  0  0
  -27.7340  -31.7960   25.6380 C   0  0  0  0  0  1  0  0  0  0  0  0
  -25.7610  -33.4050   24.2430 N   0  0  0  0  0  0  0  0  0  0  0  0
  -26.1740  -34.5070   23.6050 C   0  0  0  0  0  0  0  0  0  0  0  0
  -26.8650  -34.4690   22.5840 O   0  0  0  0  0  0  0  0  0  0  0  0
  -25.1520  -33.5090   25.0420 H   0  0  0  0  0  0  0  0  0  0  0  0
  -24.5580  -36.4270   23.4090 C   0  0  0  0  0  1  0  0  0  0  0  0
  -25.7550  -35.8680   24.1960 C   0  0  0  0  0  3  0  0  0  0  0  0
  -27.9170  -36.5380   25.1490 C   0  0  0  0  0  1  0  0  0  0  0  0
  -26.8470  -36.8650   24.2100 N   0  0  0  0  0  0  0  0  0  0  0  0
  -26.4890  -37.7860   24.4440 H   0  0  0  0  0  0  0  0  0  0  0  0
  1  2  1  0
  1  7  2  0
  2  8  2  0
  3  4  1  0
  3  5  1  0
  4  6  1  0
  5 55  1  0
  5  1  1  0
  6  2  1  0
  9  6  1  0
  9 14  1  0
 10 13  1  0
 11 13  2  0
 12 15  2  0
 12 14  1  0
 13 16  1  0
 14 10  2  0
 15 11  1  0
 17 23  1  0
 18 23  1  0
 19 20  1  0
 19 18  1  0
 21 20  1  0
 21 30  1  0
 21 22  1  0
 23 22  1  0
 24 17  2  0
 25 17  1  0
 25 15  1  0
 26 25  1  0
 27 28  2  0
 28 47  1  0
 29 32  1  0
 29 28  1  0
 30 31  1  0
 30 27  1  0
 31 29  2  0
 32 33  1  0
 33 34  2  0
 35 38  1  0
 35 34  1  0
 36 35  2  0
 37 36  1  0
 37 32  2  0
 38 39  1  0
 39 40  1  0
 40 41  2  0
 42 41  1  0
 42 46  1  0
 43 42  2  0
 44 39  2  0
 44 43  1  0
 45 44  1  0
 47 48  1  0
 48 51  1  0
 48 50  1  0
 49 47  2  0
 52 27  1  0
 52 53  1  0
 54 52  1  0
 56 58  1  0
 56 55  1  0
 57 68  2  0
 58 63  1  0
 59 67  1  0
 59 69  1  0
 60 66  1  0
 60 62  1  0
 61 67  1  0
 62 61  1  0
 63 62  2  0
 64 65  1  0
 64 58  2  0
 65 60  2  0
 66 59  1  0
 67 57  1  0
 69 71  2  0
 70 69  1  0
 72 70  1  0
 73 82  2  0
 73 78  1  0
 74 70  1  0
 74 78  1  0
 75 74  1  0
 76 77  1  0
 76 75  1  0
 77 73  1  0
 78 79  2  0
 79 80  1  0
 81 80  2  0
 82 81  1  0
 83 57  1  0
 83 88  1  0
 83 84  1  0
 84 87  1  1
 84 85  1  0
 86 84  1  0
 88 91  1  0
 89 93  1  0
 89 88  1  0
 90 89  2  0
 93 92  1  0
 93 95  1  0
 95 96  1  0
 95 94  1  0
M  ISO  4  17 100  25 100  55 101  56 101
M  END
>  <TORSDO>  (68) 
F 19

>  <SCORE>  (68) 
-11.711

>  <name>  (68) 
67

>  <ligand_id>  (68) 
67

>  <original_smiles>  (68) 
[H]c1c([H])c([H])c2c(c1[H])C([H])([H])C([H])([H])C([H])([H])C2([H])N([H])C(=O)C1([H])N(C(=O)C([H])(N([H])C(=O)C([H])(N([H])C([H])([H])[H])C([H])([H])[H])C(C([H])([H])[H])(C([H])([H])[H])C([H])([H])[H])C([H])([H])c2c([H])c(OC([H])([H])C3([H])C(=O)C(=O)N(C([H])([H])c4c([H])c(N([H])C(=O)N5C([H])([H])C([H])([H])C([H])([H])C([H])(n6nc(-c7c([H])c([H])c(Oc8c([H])c([H])c(F)c([H])c8F)c([H])c7[H])c(C(=O)N([H])[H])c6N([H])[H])C5([H])[H])c([H])c(C([H])([H])[H])c4[H])C([H])([H])C3([H])[H])c([H])c([H])c2C1([H])[H]

>  <smiles>  (68) 
[H]c1c([H])c([H])c2c(c1[H])C([H])([H])C([H])([H])C([H])([H])C2([H])N([H])C(=O)C1([H])N(C(=O)C([H])(N([H])C(=O)C([H])(N([H])C([H])([H])[H])C([H])([H])[H])C(C([H])([H])[H])(C([H])([H])[H])C([H])([H])[H])C([H])([H])c2c([H])c(OC([H])([H])C3([H])C(=O)C(=O)N(C([H])([H])c4c([H])c(N([H])C(=O)N5C([H])([H])C([H])([H])C([H])([H])C([H])(n6nc(-c7c([H])c([H])c(Oc8c([H])c([H])c(F)c([H])c8F)c([H])c7[H])c(C(=O)N([H])[H])c6N([H])[H])C5([H])[H])c([H])c(C([H])([H])[H])c4[H])C([H])([H])C3([H])[H])c([H])c([H])c2C1([H])[H]

$$$$
68:0:0
     RDKit          3D

 95103  0  0  1  0  0  0  0  0999 V2000
  -29.2200  -20.6430   20.8610 C   0  0  0  0  0  0  0  0  0  0  0  0
  -28.7050  -23.1130   20.7140 C   0  0  0  0  0  0  0  0  0  0  0  0
  -29.5450  -21.9350   20.5580 N   0  0  0  0  0  0  0  0  0  0  0  0
  -27.9990  -20.3220   21.3010 N   0  0  0  0  0  4  0  0  0  0  0  0
  -27.5450  -23.0110   21.1360 O   0  0  0  0  0  0  0  0  0  0  0  0
  -30.4820  -22.0130   20.1960 H   0  0  0  0  0  0  0  0  0  0  0  0
  -27.7900  -19.3910   21.6240 H   0  0  0  0  0  0  0  0  0  0  0  0
  -27.3210  -21.0670   21.4190 H   0  0  0  0  0  0  0  0  0  0  0  0
  -32.5100  -18.7430   20.9380 C   0  0  0  0  0  3  0  0  0  0  0  0
  -31.5780  -19.8010   20.9350 C   0  0  0  0  0  3  0  0  0  0  0  0
  -32.0820  -17.4110   20.7850 C   0  0  0  0  0  3  0  0  0  0  0  0
  -29.7780  -18.1830   20.6050 C   0  0  0  0  0  3  0  0  0  0  0  0
  -30.2010  -19.5350   20.7700 C   0  0  0  0  0  0  0  0  0  0  0  0
  -30.7110  -17.1090   20.6080 C   0  0  0  0  0  0  0  0  0  0  0  0
  -30.8970  -14.7030   19.9450 C   0  0  0  0  0  0  0  0  0  0  0  0
  -30.5420  -12.4840   18.9200 C   0  0  0  0  0  2  0  0  0  0  0  0
  -29.5510  -12.6130   17.7450 C   0  0  0  0  0  2  0  0  0  0  0  0
  -28.0980  -12.4910   18.2420 C   0  0  0  0  0  2  0  0  0  0  0  0
  -27.8070  -13.4010   19.4660 C   0  0  0  0  0  3  0  0  0  0  0  0
  -28.9090  -13.2590   20.5410 C   0  0  0  0  0  2  0  0  0  0  0  0
  -30.2050  -13.5300   19.9000 N   0  0  0  0  0  0  0  0  0  0  0  0
  -31.9930  -14.8400   19.3950 O   0  0  0  0  0  0  0  0  0  0  0  0
  -30.2470  -15.7540   20.4920 N   0  0  0  0  0  0  0  0  0  0  0  0
  -29.3000  -15.5710   20.7840 H   0  0  0  0  0  0  0  0  0  0  0  0
  -25.4860  -14.0540   20.3630 C   0  0  0  0  0  0  0  0  0  0  0  0
  -24.4110  -13.3030   20.7550 C   0  0  0  0  0  0  0  0  0  0  0  0
  -24.8110  -11.9380   20.6150 C   0  0  0  0  0  0  0  0  0  0  0  0
  -26.4760  -13.1490   20.0140 N   0  0  0  0  0  0  0  0  0  0  0  0
  -26.0770  -11.8670   20.2220 N   0  0  0  0  0  0  0  0  0  0  0  0
  -24.0450  -10.6970   20.7770 C   0  0  0  0  0  0  0  0  0  0  0  0
  -24.4300   -9.7060   21.7080 C   0  0  0  0  0  3  0  0  0  0  0  0
  -23.6660   -8.5280   21.8580 C   0  0  0  0  0  3  0  0  0  0  0  0
  -22.5020   -8.3330   21.0760 C   0  0  0  0  0  0  0  0  0  0  0  0
  -22.1370   -9.3110   20.1340 C   0  0  0  0  0  3  0  0  0  0  0  0
  -22.9010  -10.4800   19.9830 C   0  0  0  0  0  3  0  0  0  0  0  0
  -21.7130   -7.2100   21.1350 O   0  0  0  0  0  0  0  0  0  0  0  0
  -21.5540   -6.5040   22.3000 C   0  0  0  0  0  0  0  0  0  0  0  0
  -20.9870   -7.0870   23.4540 C   0  0  0  0  0  3  0  0  0  0  0  0
  -20.7770   -6.3060   24.6080 C   0  0  0  0  0  3  0  0  0  0  0  0
  -21.1230   -4.9420   24.6080 C   0  0  0  0  0  0  0  0  0  0  0  0
  -21.6810   -4.3570   23.4570 C   0  0  0  0  0  3  0  0  0  0  0  0
  -21.8930   -5.1350   22.3050 C   0  0  0  0  0  0  0  0  0  0  0  0
  -22.4120   -4.5620   21.1930 F   0  0  0  0  0  0  0  0  0  0  0  0
  -20.9140   -4.1880   25.7130 F   0  0  0  0  0  0  0  0  0  0  0  0
  -23.0550  -13.8170   21.1450 C   0  0  0  0  0  0  0  0  0  0  0  0
  -22.3530  -13.0950   22.0110 N   0  0  0  0  0  0  0  0  0  0  0  0
  -22.6310  -14.8900   20.7190 O   0  0  0  0  0  0  0  0  0  0  0  0
  -22.7090  -12.2240   22.3760 H   0  0  0  0  0  0  0  0  0  0  0  0
  -21.4440  -13.4180   22.3140 H   0  0  0  0  0  0  0  0  0  0  0  0
  -25.6980  -15.4260   20.2540 N   0  0  0  0  0  0  0  0  0  0  0  0
  -24.9620  -16.1000   20.4340 H   0  0  0  0  0  0  0  0  0  0  0  0
  -26.5300  -15.8460   19.8600 H   0  0  0  0  0  0  0  0  0  0  0  0
  -29.3120  -24.5050   20.3770 C   0  0  0  0  0  2  0  0  0  0  0  0
  -28.2610  -25.4910   19.7800 C   0  0  0  0  0  2  0  0  0  0  0  0
  -28.4890  -26.9190   19.9290 O   0  0  0  0  0  0  0  0  0  0  0  0
  -24.6360  -31.9700   23.2020 C   0  0  0  0  0  0  0  0  0  0  0  0
  -27.3370  -27.6980   19.9050 C   0  0  0  0  0  0  0  0  0  0  0  0
  -23.4490  -30.6240   21.5040 C   0  0  0  0  0  3  0  0  0  0  0  0
  -24.9230  -29.1940   19.9940 C   0  0  0  0  0  0  0  0  0  0  0  0
  -25.9730  -31.0310   21.3150 C   0  0  0  0  0  2  0  0  0  0  0  0
  -26.0800  -29.6960   20.6050 C   0  0  0  0  0  0  0  0  0  0  0  0
  -27.2900  -28.9570   20.5570 C   0  0  0  0  0  3  0  0  0  0  0  0
  -26.1600  -27.2410   19.2610 C   0  0  0  0  0  3  0  0  0  0  0  0
  -24.9600  -27.9680   19.3170 C   0  0  0  0  0  3  0  0  0  0  0  0
  -23.6630  -30.0230   20.0910 C   0  0  0  0  0  2  0  0  0  0  0  0
  -24.7050  -31.2200   22.0660 N   0  0  0  0  0  0  0  0  0  0  0  0
  -23.5530  -32.1970   23.7570 O   0  0  0  0  0  0  0  0  0  0  0  0
  -22.8240  -29.5430   22.4160 C   0  0  0  0  0  0  0  0  0  0  0  0
  -21.5060  -29.3210   22.2680 N   0  0  0  0  0  0  0  0  0  0  0  0
  -23.5190  -28.9110   23.2150 O   0  0  0  0  0  0  0  0  0  0  0  0
  -21.0040  -29.8870   21.5980 H   0  0  0  0  0  0  0  0  0  0  0  0
  -18.1670  -28.0040   22.6920 C   0  0  0  0  0  0  0  0  0  0  0  0
  -20.7140  -28.3290   22.9940 C   0  0  0  0  0  3  0  0  0  0  0  0
  -20.8650  -26.9260   22.3620 C   0  0  0  0  0  2  0  0  0  0  0  0
  -19.7810  -26.6100   21.3290 C   0  0  0  0  0  2  0  0  0  0  0  0
  -18.3900  -26.6880   21.9650 C   0  0  0  0  0  2  0  0  0  0  0  0
  -19.2590  -28.7820   23.1610 C   0  0  0  0  0  0  0  0  0  0  0  0
  -18.9980  -30.0150   23.7980 C   0  0  0  0  0  3  0  0  0  0  0  0
  -17.6770  -30.4700   23.9720 C   0  0  0  0  0  3  0  0  0  0  0  0
  -16.6000  -29.6880   23.5210 C   0  0  0  0  0  3  0  0  0  0  0  0
  -16.8450  -28.4570   22.8870 C   0  0  0  0  0  3  0  0  0  0  0  0
  -25.9130  -32.5980   23.8430 C   0  0  0  0  0  3  0  0  0  0  0  0
  -26.4240  -31.8070   25.1100 C   0  0  1  0  0  0  0  0  0  0  0  0
  -25.3180  -31.5200   26.1520 C   0  0  0  0  0  1  0  0  0  0  0  0
  -27.0450  -30.4530   24.6950 C   0  0  0  0  0  1  0  0  0  0  0  0
  -27.5450  -32.6100   25.8100 C   0  0  0  0  0  1  0  0  0  0  0  0
  -25.5930  -33.9880   24.1920 N   0  0  0  0  0  0  0  0  0  0  0  0
  -25.9120  -35.0530   23.4420 C   0  0  0  0  0  0  0  0  0  0  0  0
  -26.5770  -34.9670   22.4070 O   0  0  0  0  0  0  0  0  0  0  0  0
  -25.0030  -34.1290   24.9990 H   0  0  0  0  0  0  0  0  0  0  0  0
  -24.1600  -36.8270   23.1220 C   0  0  0  0  0  1  0  0  0  0  0  0
  -25.4130  -36.4300   23.9180 C   0  0  0  0  0  3  0  0  0  0  0  0
  -27.5380  -37.3380   24.7480 C   0  0  0  0  0  1  0  0  0  0  0  0
  -26.4330  -37.4960   23.8060 N   0  0  0  0  0  0  0  0  0  0  0  0
  -26.0160  -38.4110   23.9550 H   0  0  0  0  0  0  0  0  0  0  0  0
  1  4  2  0
  2  5  2  0
  3  2  1  0
  3  1  1  0
  4  8  1  0
  4  7  1  0
  6  3  1  0
 10  9  1  0
 11  9  2  0
 12 14  2  0
 12 13  1  0
 13  1  1  0
 13 10  2  0
 14 11  1  0
 15 23  1  0
 16 21  1  0
 17 18  1  0
 17 16  1  0
 19 18  1  0
 19 28  1  0
 19 20  1  0
 21 15  1  0
 21 20  1  0
 22 15  2  0
 23 14  1  0
 23 24  1  0
 25 26  2  0
 26 45  1  0
 27 26  1  0
 27 30  1  0
 28 29  1  0
 28 25  1  0
 29 27  2  0
 30 31  1  0
 31 32  2  0
 33 36  1  0
 33 32  1  0
 34 33  2  0
 35 34  1  0
 35 30  2  0
 36 37  1  0
 37 42  2  0
 37 38  1  0
 38 39  2  0
 39 40  1  0
 40 44  1  0
 41 40  2  0
 42 41  1  0
 43 42  1  0
 45 46  1  0
 46 49  1  0
 46 48  1  0
 47 45  2  0
 50 25  1  0
 50 51  1  0
 52 50  1  0
 53  2  1  0
 54 55  1  0
 54 53  1  0
 56 67  2  0
 57 55  1  0
 57 62  1  0
 58 66  1  0
 58 68  1  0
 59 65  1  0
 59 61  1  0
 60 66  1  0
 61 60  1  0
 62 61  2  0
 63 64  1  0
 63 57  2  0
 64 59  2  0
 65 58  1  0
 66 56  1  0
 68 70  2  0
 69 68  1  0
 71 69  1  0
 72 81  2  0
 72 77  1  0
 73 69  1  0
 73 77  1  0
 74 73  1  0
 75 76  1  0
 75 74  1  0
 76 72  1  0
 77 78  2  0
 78 79  1  0
 80 79  2  0
 81 80  1  0
 82 56  1  0
 82 87  1  0
 82 83  1  0
 83 86  1  1
 83 84  1  0
 85 83  1  0
 87 90  1  0
 88 92  1  0
 88 87  1  0
 89 88  2  0
 92 91  1  0
 94 92  1  0
 94 95  1  0
 94 93  1  0
M  ISO  4  15 100  23 100  54 101  55 101
M  END
>  <TORSDO>  (69) 
F 19

>  <SCORE>  (69) 
-13.847

>  <name>  (69) 
68

>  <ligand_id>  (69) 
68

>  <original_smiles>  (69) 
[H]c1c([H])c(C(N([H])C(=O)C([H])([H])C([H])([H])Oc2c([H])c([H])c3c(c2[H])C([H])([H])N(C(=O)C([H])(N([H])C(=O)C([H])(N([H])C([H])([H])[H])C([H])([H])[H])C(C([H])([H])[H])(C([H])([H])[H])C([H])([H])[H])C([H])(C(=O)N([H])C2([H])c4c([H])c([H])c([H])c([H])c4C([H])([H])C([H])([H])C2([H])[H])C3([H])[H])=[N+]([H])[H])c([H])c(N([H])C(=O)N2C([H])([H])C([H])([H])C([H])([H])C([H])(n3nc(-c4c([H])c([H])c(Oc5c([H])c([H])c(F)c([H])c5F)c([H])c4[H])c(C(=O)N([H])[H])c3N([H])[H])C2([H])[H])c1[H]

>  <smiles>  (69) 
[H]c1c([H])c(C(N([H])C(=O)C([H])([H])C([H])([H])Oc2c([H])c([H])c3c(c2[H])C([H])([H])N(C(=O)C([H])(N([H])C(=O)C([H])(N([H])C([H])([H])[H])C([H])([H])[H])C(C([H])([H])[H])(C([H])([H])[H])C([H])([H])[H])C([H])(C(=O)N([H])C2([H])c4c([H])c([H])c([H])c([H])c4C([H])([H])C([H])([H])C2([H])[H])C3([H])[H])=[N+]([H])[H])c([H])c(N([H])C(=O)N2C([H])([H])C([H])([H])C([H])([H])C([H])(n3nc(-c4c([H])c([H])c(Oc5c([H])c([H])c(F)c([H])c5F)c([H])c4[H])c(C(=O)N([H])[H])c3N([H])[H])C2([H])[H])c1[H]

$$$$
69:0:0
     RDKit          3D

 96104  0  0  1  0  0  0  0  0999 V2000
  -31.6730  -20.1510   20.8190 C   0  0  0  0  0  3  0  0  0  0  0  0
  -32.0630  -17.7460   20.8740 C   0  0  0  0  0  3  0  0  0  0  0  0
  -29.8120  -18.6120   20.5150 C   0  0  0  0  0  3  0  0  0  0  0  0
  -32.5570  -19.0620   20.9610 C   0  0  0  0  0  0  0  0  0  0  0  0
  -30.2890  -19.9530   20.5980 C   0  0  0  0  0  0  0  0  0  0  0  0
  -30.6930  -17.5010   20.6290 C   0  0  0  0  0  0  0  0  0  0  0  0
  -30.9290  -15.0840   20.1080 C   0  0  0  0  0  0  0  0  0  0  0  0
  -30.7130  -12.7990   19.1990 C   0  0  0  0  0  2  0  0  0  0  0  0
  -29.7620  -12.8120   17.9860 C   0  0  0  0  0  2  0  0  0  0  0  0
  -28.3010  -12.6430   18.4430 C   0  0  0  0  0  2  0  0  0  0  0  0
  -27.9200  -13.5990   19.6050 C   0  0  0  0  0  3  0  0  0  0  0  0
  -28.9900  -13.5810   20.7210 C   0  0  0  0  0  2  0  0  0  0  0  0
  -30.2900  -13.8820   20.1040 N   0  0  0  0  0  0  0  0  0  0  0  0
  -32.0480  -15.2310   19.6090 O   0  0  0  0  0  0  0  0  0  0  0  0
  -30.2130  -16.1510   20.5290 N   0  0  0  0  0  0  0  0  0  0  0  0
  -29.2390  -15.9860   20.7350 H   0  0  0  0  0  0  0  0  0  0  0  0
  -25.5520  -14.1730   20.4270 C   0  0  0  0  0  0  0  0  0  0  0  0
  -24.4970  -13.3850   20.8040 C   0  0  0  0  0  0  0  0  0  0  0  0
  -24.9560  -12.0350   20.7020 C   0  0  0  0  0  0  0  0  0  0  0  0
  -26.5870  -13.3020   20.1240 N   0  0  0  0  0  0  0  0  0  0  0  0
  -26.2340  -12.0090   20.3450 N   0  0  0  0  0  0  0  0  0  0  0  0
  -24.2350  -10.7660   20.8670 C   0  0  0  0  0  0  0  0  0  0  0  0
  -24.6720   -9.7810   21.7810 C   0  0  0  0  0  3  0  0  0  0  0  0
  -23.9500   -8.5780   21.9340 C   0  0  0  0  0  3  0  0  0  0  0  0
  -22.7800   -8.3500   21.1730 C   0  0  0  0  0  0  0  0  0  0  0  0
  -22.3650   -9.3230   20.2480 C   0  0  0  0  0  3  0  0  0  0  0  0
  -23.0860  -10.5180   20.0930 C   0  0  0  0  0  3  0  0  0  0  0  0
  -22.0300   -7.2000   21.2380 O   0  0  0  0  0  0  0  0  0  0  0  0
  -21.9400   -6.4630   22.3910 C   0  0  0  0  0  0  0  0  0  0  0  0
  -21.4460   -7.0170   23.5930 C   0  0  0  0  0  3  0  0  0  0  0  0
  -21.3060   -6.2050   24.7360 C   0  0  0  0  0  3  0  0  0  0  0  0
  -21.6490   -4.8420   24.6790 C   0  0  0  0  0  0  0  0  0  0  0  0
  -22.1360   -4.2870   23.4820 C   0  0  0  0  0  3  0  0  0  0  0  0
  -22.2780   -5.0950   22.3400 C   0  0  0  0  0  0  0  0  0  0  0  0
  -22.7280   -4.5510   21.1840 F   0  0  0  0  0  0  0  0  0  0  0  0
  -21.5070   -4.0600   25.7750 F   0  0  0  0  0  0  0  0  0  0  0  0
  -23.1120  -13.8490   21.1470 C   0  0  0  0  0  0  0  0  0  0  0  0
  -22.4240  -13.1300   22.0280 N   0  0  0  0  0  0  0  0  0  0  0  0
  -22.6490  -14.8850   20.6700 O   0  0  0  0  0  0  0  0  0  0  0  0
  -22.8120  -12.2910   22.4320 H   0  0  0  0  0  0  0  0  0  0  0  0
  -21.4970  -13.4230   22.3010 H   0  0  0  0  0  0  0  0  0  0  0  0
  -25.7110  -15.5490   20.2970 N   0  0  0  0  0  0  0  0  0  0  0  0
  -24.9480  -16.1980   20.4570 H   0  0  0  0  0  0  0  0  0  0  0  0
  -26.5440  -15.9990   19.9400 H   0  0  0  0  0  0  0  0  0  0  0  0
  -29.5640  -22.3850   20.4150 C   0  0  0  0  0  0  0  0  0  0  0  0
  -29.3630  -21.0430   20.4220 N   0  0  0  0  0  0  0  0  0  0  0  0
  -30.6480  -22.9260   20.6410 O   0  0  0  0  0  0  0  0  0  0  0  0
  -28.4020  -20.7690   20.2670 H   0  0  0  0  0  0  0  0  0  0  0  0
  -28.3360  -23.2750   20.1240 C   0  0  0  0  0  2  0  0  0  0  0  0
  -28.6340  -24.7840   19.8440 C   0  0  0  0  0  2  0  0  0  0  0  0
  -27.3520  -25.5800   19.5090 C   0  0  0  0  0  2  0  0  0  0  0  0
  -27.5280  -27.0040   19.3240 O   0  0  0  0  0  0  0  0  0  0  0  0
  -24.4780  -32.0900   23.3010 C   0  0  0  0  0  0  0  0  0  0  0  0
  -26.4070  -27.7970   19.5240 C   0  0  0  0  0  0  0  0  0  0  0  0
  -22.9660  -30.8350   21.8020 C   0  0  0  0  0  3  0  0  0  0  0  0
  -24.1060  -29.3780   20.0460 C   0  0  0  0  0  0  0  0  0  0  0  0
  -25.4370  -31.1450   21.2000 C   0  0  0  0  0  2  0  0  0  0  0  0
  -25.3660  -29.8220   20.4620 C   0  0  0  0  0  0  0  0  0  0  0  0
  -26.5200  -29.0410   20.1990 C   0  0  0  0  0  3  0  0  0  0  0  0
  -25.1210  -27.3920   19.0900 C   0  0  0  0  0  3  0  0  0  0  0  0
  -23.9780  -28.1630   19.3570 C   0  0  0  0  0  3  0  0  0  0  0  0
  -22.9160  -30.2560   20.3640 C   0  0  0  0  0  2  0  0  0  0  0  0
  -24.3230  -31.3670   22.1550 N   0  0  0  0  0  0  0  0  0  0  0  0
  -23.5110  -32.3460   24.0330 O   0  0  0  0  0  0  0  0  0  0  0  0
  -22.4540  -29.7600   22.7870 C   0  0  0  0  0  0  0  0  0  0  0  0
  -21.1640  -29.4020   22.6670 N   0  0  0  0  0  0  0  0  0  0  0  0
  -23.2130  -29.2480   23.6150 O   0  0  0  0  0  0  0  0  0  0  0  0
  -20.6050  -29.8730   21.9710 H   0  0  0  0  0  0  0  0  0  0  0  0
  -18.0640  -27.5770   23.0060 C   0  0  0  0  0  0  0  0  0  0  0  0
  -20.4760  -28.3860   23.4620 C   0  0  0  0  0  3  0  0  0  0  0  0
  -20.9210  -26.9620   23.0530 C   0  0  0  0  0  2  0  0  0  0  0  0
  -20.0170  -26.3280   21.9910 C   0  0  0  0  0  2  0  0  0  0  0  0
  -18.5750  -26.2390   22.4980 C   0  0  0  0  0  2  0  0  0  0  0  0
  -18.9570  -28.5900   23.4450 C   0  0  0  0  0  0  0  0  0  0  0  0
  -18.4310  -29.8280   23.8740 C   0  0  0  0  0  3  0  0  0  0  0  0
  -17.0420  -30.0590   23.8730 C   0  0  0  0  0  3  0  0  0  0  0  0
  -16.1610  -29.0470   23.4540 C   0  0  0  0  0  3  0  0  0  0  0  0
  -16.6720  -27.8080   23.0260 C   0  0  0  0  0  3  0  0  0  0  0  0
  -25.8700  -32.6490   23.7310 C   0  0  0  0  0  3  0  0  0  0  0  0
  -25.6760  -34.0460   24.1430 N   0  0  0  0  0  0  0  0  0  0  0  0
  -26.0060  -35.1110   23.4000 C   0  0  0  0  0  0  0  0  0  0  0  0
  -26.5800  -35.0160   22.3110 O   0  0  0  0  0  0  0  0  0  0  0  0
  -25.1610  -34.1980   24.9980 H   0  0  0  0  0  0  0  0  0  0  0  0
  -24.3800  -37.0230   23.2480 C   0  0  0  0  0  1  0  0  0  0  0  0
  -25.6430  -36.5020   23.9530 C   0  0  0  0  0  3  0  0  0  0  0  0
  -27.8880  -37.1990   24.6630 C   0  0  0  0  0  1  0  0  0  0  0  0
  -26.7340  -37.4920   23.8170 N   0  0  0  0  0  0  0  0  0  0  0  0
  -26.4030  -38.4250   24.0480 H   0  0  0  0  0  0  0  0  0  0  0  0
  -26.5430  -31.8140   24.8880 C   0  0  1  0  0  0  0  0  0  0  0  0
  -25.6020  -31.5290   26.0810 C   0  0  0  0  0  1  0  0  0  0  0  0
  -27.0510  -30.4540   24.3540 C   0  0  0  0  0  1  0  0  0  0  0  0
  -27.7840  -32.5670   25.4240 C   0  0  0  0  0  1  0  0  0  0  0  0
  -34.2840  -19.8740   22.6240 C   0  0  0  0  0  1  0  0  0  0  0  0
  -34.0370  -19.3190   21.2170 C   0  0  2  0  0  0  0  0  0  0  0  0
  -34.4990  -20.1960   20.3250 F   0  0  0  0  0  0  0  0  0  0  0  0
  -34.7390  -18.1930   21.0780 F   0  0  0  0  0  0  0  0  0  0  0  0
  1  4  1  0
  2  4  2  0
  3  5  1  0
  3  6  2  0
  4 94  1  0
  5  1  2  0
  6  2  1  0
  7 15  1  0
  8 13  1  0
  9 10  1  0
  9  8  1  0
 11 10  1  0
 11 20  1  0
 11 12  1  0
 13  7  1  0
 13 12  1  0
 14  7  2  0
 15  6  1  0
 15 16  1  0
 17 18  2  0
 18 37  1  0
 19 18  1  0
 19 22  1  0
 20 21  1  0
 20 17  1  0
 21 19  2  0
 22 23  1  0
 23 24  2  0
 25 28  1  0
 25 24  1  0
 26 25  2  0
 27 26  1  0
 27 22  2  0
 28 29  1  0
 29 30  1  0
 30 31  2  0
 32 31  1  0
 32 36  1  0
 33 32  2  0
 34 29  2  0
 34 33  1  0
 35 34  1  0
 37 38  1  0
 38 41  1  0
 38 40  1  0
 39 37  2  0
 42 17  1  0
 42 43  1  0
 44 42  1  0
 45 46  1  0
 45 47  2  0
 46  5  1  0
 48 46  1  0
 49 45  1  0
 50 49  1  0
 51 50  1  0
 52 51  1  0
 52 54  1  0
 53 64  2  0
 54 59  1  0
 55 63  1  0
 55 65  1  0
 56 62  1  0
 56 58  1  0
 57 63  1  0
 58 57  1  0
 59 58  2  0
 60 61  1  0
 60 54  2  0
 61 56  2  0
 62 55  1  0
 63 53  1  0
 65 67  2  0
 66 65  1  0
 68 66  1  0
 69 78  2  0
 69 74  1  0
 70 66  1  0
 71 70  1  0
 72 73  1  0
 72 71  1  0
 73 69  1  0
 74 70  1  0
 74 75  2  0
 76 75  1  0
 77 76  2  0
 78 77  1  0
 79 53  1  0
 79 80  1  0
 79 89  1  0
 80 83  1  0
 81 85  1  0
 81 80  1  0
 82 81  2  0
 85 84  1  0
 87 85  1  0
 87 88  1  0
 87 86  1  0
 89 92  1  1
 89 90  1  0
 91 89  1  0
 94 93  1  1
 95 94  1  0
 96 94  1  0
M  ISO  4   7 100  15 100  51 101  52 101
M  END
>  <TORSDO>  (70) 
F 21

>  <SCORE>  (70) 
-12.178

>  <name>  (70) 
69

>  <ligand_id>  (70) 
69

>  <original_smiles>  (70) 
[H]c1c([H])c([H])c2c(c1[H])C([H])([H])C([H])([H])C([H])([H])C2([H])N([H])C(=O)C1([H])N(C(=O)C([H])(N([H])C(=O)C([H])(N([H])C([H])([H])[H])C([H])([H])[H])C(C([H])([H])[H])(C([H])([H])[H])C([H])([H])[H])C([H])([H])c2c([H])c(OC([H])([H])C([H])([H])C([H])([H])C(=O)N([H])c3c([H])c(N([H])C(=O)N4C([H])([H])C([H])([H])C([H])([H])C([H])(n5nc(-c6c([H])c([H])c(Oc7c([H])c([H])c(F)c([H])c7F)c([H])c6[H])c(C(=O)N([H])[H])c5N([H])[H])C4([H])[H])c([H])c(C(F)(F)C([H])([H])[H])c3[H])c([H])c([H])c2C1([H])[H]

>  <smiles>  (70) 
[H]c1c([H])c([H])c2c(c1[H])C([H])([H])C([H])([H])C([H])([H])C2([H])N([H])C(=O)C1([H])N(C(=O)C([H])(N([H])C(=O)C([H])(N([H])C([H])([H])[H])C([H])([H])[H])C(C([H])([H])[H])(C([H])([H])[H])C([H])([H])[H])C([H])([H])c2c([H])c(OC([H])([H])C([H])([H])C([H])([H])C(=O)N([H])c3c([H])c(N([H])C(=O)N4C([H])([H])C([H])([H])C([H])([H])C([H])(n5nc(-c6c([H])c([H])c(Oc7c([H])c([H])c(F)c([H])c7F)c([H])c6[H])c(C(=O)N([H])[H])c5N([H])[H])C4([H])[H])c([H])c(C(F)(F)C([H])([H])[H])c3[H])c([H])c([H])c2C1([H])[H]

$$$$
70:0:0
     RDKit          3D

 96105  0  0  1  0  0  0  0  0999 V2000
  -30.8430  -22.3010   19.0700 C   0  0  0  0  0  3  0  0  0  0  0  0
  -32.9350  -21.6480   17.7980 C   0  0  0  0  0  0  0  0  0  0  0  0
  -28.6070  -23.0650   20.0240 C   0  0  0  0  0  2  0  0  0  0  0  0
  -30.4460  -24.7620   20.4440 C   0  0  0  0  0  2  0  0  0  0  0  0
  -28.9200  -24.7120   20.4020 C   0  0  0  0  0  3  0  0  0  0  0  0
  -33.6590  -20.3720   17.3830 C   0  0  0  0  0  1  0  0  0  0  0  0
  -29.7200  -21.9180   19.7490 N   0  0  0  0  0  0  0  0  0  0  0  0
  -31.7320  -21.4130   18.5460 N   0  0  0  0  0  0  0  0  0  0  0  0
  -33.3660  -22.7640   17.4960 O   0  0  0  0  0  0  0  0  0  0  0  0
  -31.1420  -24.1010   18.9020 S   0  0  0  0  0  0  0  0  0  0  0  0
  -31.4650  -20.4620   18.7340 H   0  0  0  0  0  0  0  0  0  0  0  0
  -30.4230  -19.1570   22.3640 C   0  0  0  0  0  3  0  0  0  0  0  0
  -30.0650  -20.3670   21.7230 C   0  0  0  0  0  3  0  0  0  0  0  0
  -30.5110  -17.9110   21.6930 C   0  0  0  0  0  3  0  0  0  0  0  0
  -29.8490  -19.0750   19.6720 C   0  0  0  0  0  3  0  0  0  0  0  0
  -29.7950  -20.4290   20.3410 C   0  0  0  0  0  0  0  0  0  0  0  0
  -30.2090  -17.7600   20.3220 C   0  0  0  0  0  0  0  0  0  0  0  0
  -30.8680  -15.0640   19.9020 C   0  0  0  0  0  0  0  0  0  0  0  0
  -30.6590  -12.6920   18.9590 C   0  0  0  0  0  2  0  0  0  0  0  0
  -29.6670  -12.6170   17.7750 C   0  0  0  0  0  2  0  0  0  0  0  0
  -28.2210  -12.4480   18.2800 C   0  0  0  0  0  2  0  0  0  0  0  0
  -27.8860  -13.4090   19.4500 C   0  0  0  0  0  3  0  0  0  0  0  0
  -28.9910  -13.4260   20.5230 C   0  0  0  0  0  2  0  0  0  0  0  0
  -30.2280  -13.8200   19.8360 N   0  0  0  0  0  0  0  0  0  0  0  0
  -32.0890  -15.0580   19.7000 O   0  0  0  0  0  0  0  0  0  0  0  0
  -30.1090  -16.2880   19.8180 N   0  0  0  0  0  0  0  0  0  0  0  0
  -29.1660  -16.0660   19.5370 H   0  0  0  0  0  0  0  0  0  0  0  0
  -25.5690  -14.0830   20.2960 C   0  0  0  0  0  0  0  0  0  0  0  0
  -24.4910  -13.3540   20.7130 C   0  0  0  0  0  0  0  0  0  0  0  0
  -24.9000  -11.9850   20.6710 C   0  0  0  0  0  0  0  0  0  0  0  0
  -26.5630  -13.1630   20.0130 N   0  0  0  0  0  0  0  0  0  0  0  0
  -26.1750  -11.8950   20.3070 N   0  0  0  0  0  0  0  0  0  0  0  0
  -24.1310  -10.7540   20.8960 C   0  0  0  0  0  0  0  0  0  0  0  0
  -24.5350   -9.7920   21.8470 C   0  0  0  0  0  3  0  0  0  0  0  0
  -23.7660   -8.6280   22.0590 C   0  0  0  0  0  3  0  0  0  0  0  0
  -22.5780   -8.4170   21.3190 C   0  0  0  0  0  0  0  0  0  0  0  0
  -22.1920   -9.3680   20.3570 C   0  0  0  0  0  3  0  0  0  0  0  0
  -22.9620  -10.5230   20.1440 C   0  0  0  0  0  3  0  0  0  0  0  0
  -21.7830   -7.3040   21.4390 O   0  0  0  0  0  0  0  0  0  0  0  0
  -21.6990   -6.6010   22.6150 C   0  0  0  0  0  0  0  0  0  0  0  0
  -21.2580   -7.2040   23.8140 C   0  0  0  0  0  3  0  0  0  0  0  0
  -21.1210   -6.4300   24.9820 C   0  0  0  0  0  3  0  0  0  0  0  0
  -21.4160   -5.0530   24.9540 C   0  0  0  0  0  0  0  0  0  0  0  0
  -21.8520   -4.4510   23.7600 C   0  0  0  0  0  3  0  0  0  0  0  0
  -21.9900   -5.2220   22.5940 C   0  0  0  0  0  0  0  0  0  0  0  0
  -22.3890   -4.6330   21.4420 F   0  0  0  0  0  0  0  0  0  0  0  0
  -21.2780   -4.3060   26.0740 F   0  0  0  0  0  0  0  0  0  0  0  0
  -23.1270  -13.8890   21.0360 C   0  0  0  0  0  0  0  0  0  0  0  0
  -22.4090  -13.2360   21.9420 N   0  0  0  0  0  0  0  0  0  0  0  0
  -22.7080  -14.9230   20.5170 O   0  0  0  0  0  0  0  0  0  0  0  0
  -22.7600  -12.4010   22.3860 H   0  0  0  0  0  0  0  0  0  0  0  0
  -21.4950  -13.5800   22.1990 H   0  0  0  0  0  0  0  0  0  0  0  0
  -25.7780  -15.4470   20.1080 N   0  0  0  0  0  0  0  0  0  0  0  0
  -25.0410  -16.1270   20.2560 H   0  0  0  0  0  0  0  0  0  0  0  0
  -26.6250  -15.8590   19.7400 H   0  0  0  0  0  0  0  0  0  0  0  0
  -28.5800  -26.1390   19.7970 O   0  0  0  0  0  0  0  0  0  0  0  0
  -24.7410  -31.6310   23.0980 C   0  0  0  0  0  0  0  0  0  0  0  0
  -27.4460  -27.0280   19.9630 C   0  0  0  0  0  0  0  0  0  0  0  0
  -23.5710  -30.2250   21.4450 C   0  0  0  0  0  3  0  0  0  0  0  0
  -25.0560  -28.7110   19.9860 C   0  0  0  0  0  0  0  0  0  0  0  0
  -26.1140  -30.5740   21.2560 C   0  0  0  0  0  2  0  0  0  0  0  0
  -26.2300  -29.1870   20.5870 C   0  0  0  0  0  0  0  0  0  0  0  0
  -27.4260  -28.3670   20.5450 C   0  0  0  0  0  3  0  0  0  0  0  0
  -26.2380  -26.6530   19.3410 C   0  0  0  0  0  3  0  0  0  0  0  0
  -25.0740  -27.4600   19.3500 C   0  0  0  0  0  3  0  0  0  0  0  0
  -23.8030  -29.5750   20.0550 C   0  0  0  0  0  2  0  0  0  0  0  0
  -24.8290  -30.8330   21.9880 N   0  0  0  0  0  0  0  0  0  0  0  0
  -23.6510  -31.8650   23.6440 O   0  0  0  0  0  0  0  0  0  0  0  0
  -22.9390  -29.1780   22.3980 C   0  0  0  0  0  0  0  0  0  0  0  0
  -21.6220  -28.9360   22.2580 N   0  0  0  0  0  0  0  0  0  0  0  0
  -23.6360  -28.5860   23.2240 O   0  0  0  0  0  0  0  0  0  0  0  0
  -21.1130  -29.4670   21.5660 H   0  0  0  0  0  0  0  0  0  0  0  0
  -18.3340  -27.4650   22.6490 C   0  0  0  0  0  0  0  0  0  0  0  0
  -20.8480  -27.9480   23.0150 C   0  0  0  0  0  3  0  0  0  0  0  0
  -21.0940  -26.5180   22.4780 C   0  0  0  0  0  2  0  0  0  0  0  0
  -20.0670  -26.0850   21.4270 C   0  0  0  0  0  2  0  0  0  0  0  0
  -18.6520  -26.1240   22.0100 C   0  0  0  0  0  2  0  0  0  0  0  0
  -19.3650  -28.3280   23.1070 C   0  0  0  0  0  0  0  0  0  0  0  0
  -19.0140  -29.5760   23.6640 C   0  0  0  0  0  3  0  0  0  0  0  0
  -17.6650  -29.9660   23.7670 C   0  0  0  0  0  3  0  0  0  0  0  0
  -16.6490  -29.1020   23.3240 C   0  0  0  0  0  3  0  0  0  0  0  0
  -16.9830  -27.8530   22.7710 C   0  0  0  0  0  3  0  0  0  0  0  0
  -26.0020  -32.3010   23.7250 C   0  0  0  0  0  3  0  0  0  0  0  0
  -25.6520  -33.6900   24.0600 N   0  0  0  0  0  0  0  0  0  0  0  0
  -25.9840  -34.7610   23.3270 C   0  0  0  0  0  0  0  0  0  0  0  0
  -26.6810  -34.6840   22.3130 O   0  0  0  0  0  0  0  0  0  0  0  0
  -25.0310  -33.8220   24.8450 H   0  0  0  0  0  0  0  0  0  0  0  0
  -24.2340  -36.5330   22.9560 C   0  0  0  0  0  1  0  0  0  0  0  0
  -25.4620  -36.1360   23.7910 C   0  0  0  0  0  3  0  0  0  0  0  0
  -27.5550  -37.0530   24.6940 C   0  0  0  0  0  1  0  0  0  0  0  0
  -26.4780  -37.2080   23.7190 N   0  0  0  0  0  0  0  0  0  0  0  0
  -26.0510  -38.1190   23.8610 H   0  0  0  0  0  0  0  0  0  0  0  0
  -26.5330  -31.5460   25.0050 C   0  0  1  0  0  0  0  0  0  0  0  0
  -25.4410  -31.2790   26.0690 C   0  0  0  0  0  1  0  0  0  0  0  0
  -27.1560  -30.1830   24.6220 C   0  0  0  0  0  1  0  0  0  0  0  0
  -27.6580  -32.3720   25.6710 C   0  0  0  0  0  1  0  0  0  0  0  0
  1  8  1  0
  1  7  1  0
  2  8  1  0
  3  5  1  0
  5 56  1  0
  5  4  1  0
  6  2  1  0
  7  3  1  0
  7 16  1  0
  8 11  1  0
  9  2  2  0
 10  1  1  0
 10  4  1  0
 13 12  1  0
 14 12  2  0
 15 17  2  0
 15 16  1  0
 16 13  2  0
 17 14  1  0
 19 24  1  0
 20 21  1  0
 20 19  1  0
 22 21  1  0
 22 31  1  0
 22 23  1  0
 24 18  1  0
 24 23  1  0
 25 18  2  0
 26 18  1  0
 26 17  1  0
 27 26  1  0
 28 29  2  0
 29 48  1  0
 30 29  1  0
 30 33  1  0
 31 28  1  0
 31 32  1  0
 32 30  2  0
 33 34  1  0
 34 35  2  0
 36 39  1  0
 36 35  1  0
 37 36  2  0
 38 37  1  0
 38 33  2  0
 39 40  1  0
 40 41  1  0
 41 42  2  0
 43 42  1  0
 43 47  1  0
 44 43  2  0
 45 40  2  0
 45 44  1  0
 46 45  1  0
 48 49  1  0
 49 52  1  0
 49 51  1  0
 50 48  2  0
 53 54  1  0
 53 28  1  0
 55 53  1  0
 56 58  1  0
 57 68  2  0
 58 63  1  0
 59 67  1  0
 59 69  1  0
 60 66  1  0
 60 62  1  0
 61 67  1  0
 62 61  1  0
 63 62  2  0
 64 65  1  0
 64 58  2  0
 65 60  2  0
 66 59  1  0
 67 57  1  0
 69 71  2  0
 70 69  1  0
 72 70  1  0
 73 82  2  0
 73 78  1  0
 74 70  1  0
 74 78  1  0
 75 74  1  0
 76 77  1  0
 76 75  1  0
 77 73  1  0
 78 79  2  0
 79 80  1  0
 81 80  2  0
 82 81  1  0
 83 57  1  0
 83 84  1  0
 83 93  1  0
 84 87  1  0
 85 89  1  0
 85 84  1  0
 86 85  2  0
 89 88  1  0
 91 89  1  0
 91 92  1  0
 91 90  1  0
 93 96  1  1
 93 94  1  0
 95 93  1  0
M  ISO  4   5 101  18 100  26 100  56 101
M  END
>  <TORSDO>  (71) 
F 17

>  <SCORE>  (71) 
-13.805

>  <name>  (71) 
70

>  <ligand_id>  (71) 
70

>  <original_smiles>  (71) 
[H]c1c([H])c(N([H])C(=O)N2C([H])([H])C([H])([H])C([H])([H])C([H])(n3nc(-c4c([H])c([H])c(Oc5c([H])c([H])c(F)c([H])c5F)c([H])c4[H])c(C(=O)N([H])[H])c3N([H])[H])C2([H])[H])c([H])c(N2C(=[N+]([H])C(=O)C([H])([H])[H])SC([H])([H])C([H])(Oc3c([H])c([H])c4c(c3[H])C([H])([H])N(C(=O)C([H])(N([H])C(=O)C([H])(N([H])C([H])([H])[H])C([H])([H])[H])C(C([H])([H])[H])(C([H])([H])[H])C([H])([H])[H])C([H])(C(=O)N([H])C3([H])c5c([H])c([H])c([H])c([H])c5C([H])([H])C([H])([H])C3([H])[H])C4([H])[H])C2([H])[H])c1[H]

>  <smiles>  (71) 
[H]c1c([H])c(N([H])C(=O)N2C([H])([H])C([H])([H])C([H])([H])C([H])(n3nc(-c4c([H])c([H])c(Oc5c([H])c([H])c(F)c([H])c5F)c([H])c4[H])c(C(=O)N([H])[H])c3N([H])[H])C2([H])[H])c([H])c(N2C(=[N+]([H])C(=O)C([H])([H])[H])SC([H])([H])C([H])(Oc3c([H])c([H])c4c(c3[H])C([H])([H])N(C(=O)C([H])(N([H])C(=O)C([H])(N([H])C([H])([H])[H])C([H])([H])[H])C(C([H])([H])[H])(C([H])([H])[H])C([H])([H])[H])C([H])(C(=O)N([H])C3([H])c5c([H])c([H])c([H])c([H])c5C([H])([H])C([H])([H])C3([H])[H])C4([H])[H])C2([H])[H])c1[H]

$$$$
71:0:0
     RDKit          3D

 94102  0  0  1  0  0  0  0  0999 V2000
  -29.0920  -21.9330   20.4950 C   0  0  0  0  0  0  0  0  0  0  0  0
  -29.6550  -20.8490   21.1150 N   0  0  0  0  0  0  0  0  0  0  0  0
  -28.6380  -21.8750   19.3490 O   0  0  0  0  0  0  0  0  0  0  0  0
  -29.8240  -20.9310   22.1090 H   0  0  0  0  0  0  0  0  0  0  0  0
  -30.5440  -19.6360   19.1750 C   0  0  0  0  0  3  0  0  0  0  0  0
  -29.9400  -18.3160   21.1200 C   0  0  0  0  0  3  0  0  0  0  0  0
  -30.7880  -18.4680   18.4360 C   0  0  0  0  0  0  0  0  0  0  0  0
  -30.5950  -17.1960   19.0370 C   0  0  0  0  0  0  0  0  0  0  0  0
  -30.0310  -19.5960   20.4850 C   0  0  0  0  0  0  0  0  0  0  0  0
  -30.2500  -17.0990   20.4250 C   0  0  0  0  0  0  0  0  0  0  0  0
  -31.2250  -18.6560   16.9870 C   0  0  0  0  0  1  0  0  0  0  0  0
  -30.6740  -15.9480   18.1690 C   0  0  0  0  0  1  0  0  0  0  0  0
  -30.8940  -14.7250   21.0640 C   0  0  0  0  0  0  0  0  0  0  0  0
  -30.8050  -12.4350   20.1560 C   0  0  0  0  0  2  0  0  0  0  0  0
  -29.9790  -12.4180   18.8520 C   0  0  0  0  0  2  0  0  0  0  0  0
  -28.4600  -12.3590   19.1160 C   0  0  0  0  0  2  0  0  0  0  0  0
  -27.9830  -13.2800   20.2720 C   0  0  0  0  0  3  0  0  0  0  0  0
  -28.9270  -13.1980   21.4950 C   0  0  0  0  0  2  0  0  0  0  0  0
  -30.2840  -13.5060   21.0240 N   0  0  0  0  0  0  0  0  0  0  0  0
  -32.1070  -14.8530   20.8840 O   0  0  0  0  0  0  0  0  0  0  0  0
  -30.0690  -15.8120   21.0790 N   0  0  0  0  0  0  0  0  0  0  0  0
  -29.1240  -15.6110   21.3740 H   0  0  0  0  0  0  0  0  0  0  0  0
  -25.5230  -13.9000   20.7090 C   0  0  0  0  0  0  0  0  0  0  0  0
  -24.4190  -13.1350   20.9790 C   0  0  0  0  0  0  0  0  0  0  0  0
  -24.8840  -11.7850   21.0450 C   0  0  0  0  0  0  0  0  0  0  0  0
  -26.5900  -13.0150   20.6270 N   0  0  0  0  0  0  0  0  0  0  0  0
  -26.2010  -11.7410   20.8880 N   0  0  0  0  0  0  0  0  0  0  0  0
  -24.1410  -10.5280   21.1910 C   0  0  0  0  0  0  0  0  0  0  0  0
  -24.4940   -9.5720   22.1720 C   0  0  0  0  0  3  0  0  0  0  0  0
  -23.7540   -8.3780   22.3060 C   0  0  0  0  0  3  0  0  0  0  0  0
  -22.6470   -8.1300   21.4600 C   0  0  0  0  0  0  0  0  0  0  0  0
  -22.3130   -9.0730   20.4710 C   0  0  0  0  0  3  0  0  0  0  0  0
  -23.0550  -10.2600   20.3350 C   0  0  0  0  0  3  0  0  0  0  0  0
  -21.8870   -6.9850   21.5000 O   0  0  0  0  0  0  0  0  0  0  0  0
  -21.7550   -6.2490   22.6490 C   0  0  0  0  0  0  0  0  0  0  0  0
  -21.2580   -6.8120   23.8450 C   0  0  0  0  0  3  0  0  0  0  0  0
  -21.0770   -6.0010   24.9830 C   0  0  0  0  0  3  0  0  0  0  0  0
  -21.3840   -4.6290   24.9270 C   0  0  0  0  0  0  0  0  0  0  0  0
  -21.8760   -4.0650   23.7380 C   0  0  0  0  0  3  0  0  0  0  0  0
  -22.0590   -4.8720   22.6020 C   0  0  0  0  0  0  0  0  0  0  0  0
  -22.5120   -4.3220   21.4500 F   0  0  0  0  0  0  0  0  0  0  0  0
  -21.2040   -3.8450   26.0180 F   0  0  0  0  0  0  0  0  0  0  0  0
  -23.0010  -13.6170   21.0810 C   0  0  0  0  0  0  0  0  0  0  0  0
  -22.1850  -12.9470   21.8850 N   0  0  0  0  0  0  0  0  0  0  0  0
  -22.6200  -14.6220   20.4810 O   0  0  0  0  0  0  0  0  0  0  0  0
  -22.5000  -12.1310   22.3890 H   0  0  0  0  0  0  0  0  0  0  0  0
  -21.2300  -13.2540   21.9980 H   0  0  0  0  0  0  0  0  0  0  0  0
  -25.6980  -15.2650   20.5100 N   0  0  0  0  0  0  0  0  0  0  0  0
  -24.9070  -15.9010   20.4760 H   0  0  0  0  0  0  0  0  0  0  0  0
  -26.5770  -15.7250   20.3080 H   0  0  0  0  0  0  0  0  0  0  0  0
  -28.9420  -23.2810   21.2520 C   0  0  0  0  0  2  0  0  0  0  0  0
  -27.9350  -24.3190   20.6230 C   0  0  0  0  0  2  0  0  0  0  0  0
  -28.4290  -25.3100   19.5250 C   0  0  0  0  0  2  0  0  0  0  0  0
  -28.3260  -26.6970   19.9170 O   0  0  0  0  0  0  0  0  0  0  0  0
  -24.5070  -31.8150   23.0910 C   0  0  0  0  0  0  0  0  0  0  0  0
  -27.1190  -27.3850   19.9230 C   0  0  0  0  0  0  0  0  0  0  0  0
  -23.2780  -30.4340   21.4470 C   0  0  0  0  0  3  0  0  0  0  0  0
  -24.7130  -28.8990   19.9910 C   0  0  0  0  0  0  0  0  0  0  0  0
  -25.8030  -30.7850   21.2210 C   0  0  0  0  0  2  0  0  0  0  0  0
  -25.8780  -29.4170   20.5670 C   0  0  0  0  0  0  0  0  0  0  0  0
  -27.0780  -28.6670   20.5290 C   0  0  0  0  0  3  0  0  0  0  0  0
  -25.9290  -26.8820   19.3490 C   0  0  0  0  0  3  0  0  0  0  0  0
  -24.7340  -27.6330   19.3800 C   0  0  0  0  0  3  0  0  0  0  0  0
  -23.4710  -29.7640   20.0580 C   0  0  0  0  0  2  0  0  0  0  0  0
  -24.5480  -31.0260   21.9780 N   0  0  0  0  0  0  0  0  0  0  0  0
  -23.4330  -32.0870   23.6450 O   0  0  0  0  0  0  0  0  0  0  0  0
  -22.6300  -29.4090   22.4070 C   0  0  0  0  0  0  0  0  0  0  0  0
  -21.2990  -29.2540   22.3100 N   0  0  0  0  0  0  0  0  0  0  0  0
  -23.3210  -28.7530   23.1910 O   0  0  0  0  0  0  0  0  0  0  0  0
  -20.8030  -29.8370   21.6510 H   0  0  0  0  0  0  0  0  0  0  0  0
  -17.9120  -28.1280   22.8780 C   0  0  0  0  0  0  0  0  0  0  0  0
  -20.4820  -28.3150   23.0790 C   0  0  0  0  0  3  0  0  0  0  0  0
  -20.5320  -26.8980   22.4620 C   0  0  0  0  0  2  0  0  0  0  0  0
  -19.3930  -26.6320   21.4710 C   0  0  0  0  0  2  0  0  0  0  0  0
  -18.0340  -26.7940   22.1590 C   0  0  0  0  0  2  0  0  0  0  0  0
  -19.0620  -28.8500   23.2930 C   0  0  0  0  0  0  0  0  0  0  0  0
  -18.8910  -30.1010   23.9240 C   0  0  0  0  0  3  0  0  0  0  0  0
  -17.6040  -30.6320   24.1380 C   0  0  0  0  0  3  0  0  0  0  0  0
  -16.4690  -29.9040   23.7390 C   0  0  0  0  0  3  0  0  0  0  0  0
  -16.6240  -28.6520   23.1160 C   0  0  0  0  0  3  0  0  0  0  0  0
  -25.8010  -32.4330   23.7080 C   0  0  0  0  0  3  0  0  0  0  0  0
  -26.3470  -31.6260   24.9520 C   0  0  1  0  0  0  0  0  0  0  0  0
  -25.2800  -31.3580   26.0400 C   0  0  0  0  0  1  0  0  0  0  0  0
  -26.9120  -30.2600   24.5010 C   0  0  0  0  0  1  0  0  0  0  0  0
  -27.5210  -32.3970   25.6040 C   0  0  0  0  0  1  0  0  0  0  0  0
  -25.4970  -33.8200   24.0790 N   0  0  0  0  0  0  0  0  0  0  0  0
  -25.8310  -34.8950   23.3510 C   0  0  0  0  0  0  0  0  0  0  0  0
  -26.5000  -34.8180   22.3160 O   0  0  0  0  0  0  0  0  0  0  0  0
  -24.9020  -33.9540   24.8850 H   0  0  0  0  0  0  0  0  0  0  0  0
  -24.1110  -36.7030   23.0440 C   0  0  0  0  0  1  0  0  0  0  0  0
  -25.3490  -36.2700   23.8480 C   0  0  0  0  0  3  0  0  0  0  0  0
  -27.4830  -37.1190   24.7140 C   0  0  0  0  0  1  0  0  0  0  0  0
  -26.3860  -37.3210   23.7700 N   0  0  0  0  0  0  0  0  0  0  0  0
  -25.9850  -38.2390   23.9440 H   0  0  0  0  0  0  0  0  0  0  0  0
  1  2  1  0
  1 51  1  0
  2  4  1  0
  3  1  2  0
  5  9  1  0
  7  8  1  0
  7  5  2  0
  8 10  2  0
  9  2  1  0
  9  6  2  0
 10 21  1  0
 10  6  1  0
 11  7  1  0
 12  8  1  0
 13 21  1  0
 14 19  1  0
 15 16  1  0
 15 14  1  0
 17 16  1  0
 17 26  1  0
 17 18  1  0
 19 13  1  0
 19 18  1  0
 20 13  2  0
 21 22  1  0
 23 24  2  0
 24 25  1  0
 24 43  1  0
 25 28  1  0
 26 23  1  0
 26 27  1  0
 27 25  2  0
 28 29  1  0
 29 30  2  0
 31 34  1  0
 31 30  1  0
 32 31  2  0
 33 32  1  0
 33 28  2  0
 34 35  1  0
 35 36  1  0
 36 37  2  0
 38 37  1  0
 38 42  1  0
 39 38  2  0
 40 35  2  0
 40 39  1  0
 41 40  1  0
 43 44  1  0
 44 47  1  0
 44 46  1  0
 45 43  2  0
 48 23  1  0
 49 48  1  0
 50 48  1  0
 52 51  1  0
 53 54  1  0
 53 52  1  0
 54 56  1  0
 55 66  2  0
 56 61  1  0
 57 65  1  0
 57 67  1  0
 58 64  1  0
 58 60  1  0
 59 65  1  0
 60 59  1  0
 61 60  2  0
 62 63  1  0
 62 56  2  0
 63 58  2  0
 64 57  1  0
 65 55  1  0
 67 69  2  0
 68 67  1  0
 70 68  1  0
 71 80  2  0
 71 76  1  0
 72 68  1  0
 72 76  1  0
 73 72  1  0
 74 75  1  0
 74 73  1  0
 75 71  1  0
 76 77  2  0
 77 78  1  0
 79 78  2  0
 80 79  1  0
 81 55  1  0
 81 86  1  0
 81 82  1  0
 82 85  1  1
 82 83  1  0
 84 82  1  0
 86 89  1  0
 87 91  1  0
 87 86  1  0
 88 87  2  0
 91 90  1  0
 93 91  1  0
 93 94  1  0
 93 92  1  0
M  ISO  4  13 100  21 100  53 101  54 101
M  END
>  <TORSDO>  (72) 
F 20

>  <SCORE>  (72) 
-13.247

>  <name>  (72) 
71

>  <ligand_id>  (72) 
71

>  <original_smiles>  (72) 
[H]c1c([H])c([H])c2c(c1[H])C([H])([H])C([H])([H])C([H])([H])C2([H])N([H])C(=O)C1([H])N(C(=O)C([H])(N([H])C(=O)C([H])(N([H])C([H])([H])[H])C([H])([H])[H])C(C([H])([H])[H])(C([H])([H])[H])C([H])([H])[H])C([H])([H])c2c([H])c(OC([H])([H])C([H])([H])C([H])([H])C(=O)N([H])c3c([H])c(N([H])C(=O)N4C([H])([H])C([H])([H])C([H])([H])C([H])(n5nc(-c6c([H])c([H])c(Oc7c([H])c([H])c(F)c([H])c7F)c([H])c6[H])c(C(=O)N([H])[H])c5N([H])[H])C4([H])[H])c(C([H])([H])[H])c(C([H])([H])[H])c3[H])c([H])c([H])c2C1([H])[H]

>  <smiles>  (72) 
[H]c1c([H])c([H])c2c(c1[H])C([H])([H])C([H])([H])C([H])([H])C2([H])N([H])C(=O)C1([H])N(C(=O)C([H])(N([H])C(=O)C([H])(N([H])C([H])([H])[H])C([H])([H])[H])C(C([H])([H])[H])(C([H])([H])[H])C([H])([H])[H])C([H])([H])c2c([H])c(OC([H])([H])C([H])([H])C([H])([H])C(=O)N([H])c3c([H])c(N([H])C(=O)N4C([H])([H])C([H])([H])C([H])([H])C([H])(n5nc(-c6c([H])c([H])c(Oc7c([H])c([H])c(F)c([H])c7F)c([H])c6[H])c(C(=O)N([H])[H])c5N([H])[H])C4([H])[H])c(C([H])([H])[H])c(C([H])([H])[H])c3[H])c([H])c([H])c2C1([H])[H]

$$$$
72:0:0
     RDKit          3D

 96104  0  0  1  0  0  0  0  0999 V2000
  -29.0570  -20.6120   20.7680 C   0  0  0  0  0  0  0  0  0  0  0  0
  -29.3030  -21.8860   20.3940 N   0  0  0  0  0  0  0  0  0  0  0  0
  -27.8690  -20.3250   21.2950 N   0  0  0  0  0  4  0  0  0  0  0  0
  -30.1760  -22.0910   19.9210 H   0  0  0  0  0  0  0  0  0  0  0  0
  -27.7050  -19.4000   21.6630 H   0  0  0  0  0  0  0  0  0  0  0  0
  -27.1240  -20.9980   21.3560 H   0  0  0  0  0  0  0  0  0  0  0  0
  -29.7050  -18.1610   20.6090 C   0  0  0  0  0  3  0  0  0  0  0  0
  -31.4340  -19.8860   20.7010 C   0  0  0  0  0  3  0  0  0  0  0  0
  -32.0550  -17.5260   20.6440 C   0  0  0  0  0  3  0  0  0  0  0  0
  -30.0670  -19.5390   20.6670 C   0  0  0  0  0  0  0  0  0  0  0  0
  -30.6920  -17.1370   20.5900 C   0  0  0  0  0  0  0  0  0  0  0  0
  -32.4190  -18.8840   20.6890 C   0  0  0  0  0  0  0  0  0  0  0  0
  -33.7280  -19.2320   20.7400 F   0  0  0  0  0  0  0  0  0  0  0  0
  -30.9660  -14.6980   20.0470 C   0  0  0  0  0  0  0  0  0  0  0  0
  -30.6360  -12.4830   19.0060 C   0  0  0  0  0  2  0  0  0  0  0  0
  -29.6500  -12.6200   17.8280 C   0  0  0  0  0  2  0  0  0  0  0  0
  -28.1970  -12.4820   18.3180 C   0  0  0  0  0  2  0  0  0  0  0  0
  -27.8930  -13.3730   19.5520 C   0  0  0  0  0  3  0  0  0  0  0  0
  -28.9920  -13.2280   20.6300 C   0  0  0  0  0  2  0  0  0  0  0  0
  -30.2890  -13.5170   19.9970 N   0  0  0  0  0  0  0  0  0  0  0  0
  -32.0710  -14.8360   19.5170 O   0  0  0  0  0  0  0  0  0  0  0  0
  -30.2900  -15.7520   20.5640 N   0  0  0  0  0  0  0  0  0  0  0  0
  -29.3520  -15.5460   20.8700 H   0  0  0  0  0  0  0  0  0  0  0  0
  -25.5440  -13.9910   20.4000 C   0  0  0  0  0  0  0  0  0  0  0  0
  -24.4850  -13.2230   20.8030 C   0  0  0  0  0  0  0  0  0  0  0  0
  -24.9230  -11.8670   20.7110 C   0  0  0  0  0  0  0  0  0  0  0  0
  -26.5630  -13.1030   20.0920 N   0  0  0  0  0  0  0  0  0  0  0  0
  -26.1960  -11.8180   20.3370 N   0  0  0  0  0  0  0  0  0  0  0  0
  -24.1880  -10.6100   20.9030 C   0  0  0  0  0  0  0  0  0  0  0  0
  -24.5800   -9.6660   21.8770 C   0  0  0  0  0  3  0  0  0  0  0  0
  -23.8470   -8.4730   22.0540 C   0  0  0  0  0  3  0  0  0  0  0  0
  -22.7060   -8.2160   21.2570 C   0  0  0  0  0  0  0  0  0  0  0  0
  -22.3340   -9.1480   20.2730 C   0  0  0  0  0  3  0  0  0  0  0  0
  -23.0690  -10.3320   20.0930 C   0  0  0  0  0  3  0  0  0  0  0  0
  -21.9480   -7.0740   21.3420 O   0  0  0  0  0  0  0  0  0  0  0  0
  -21.7700   -6.4140   22.5310 C   0  0  0  0  0  0  0  0  0  0  0  0
  -21.1430   -7.0280   23.6370 C   0  0  0  0  0  3  0  0  0  0  0  0
  -20.9190   -6.2910   24.8170 C   0  0  0  0  0  3  0  0  0  0  0  0
  -21.3120   -4.9410   24.8910 C   0  0  0  0  0  0  0  0  0  0  0  0
  -21.9320   -4.3270   23.7890 C   0  0  0  0  0  3  0  0  0  0  0  0
  -22.1580   -5.0620   22.6110 C   0  0  0  0  0  0  0  0  0  0  0  0
  -22.7370   -4.4580   21.5450 F   0  0  0  0  0  0  0  0  0  0  0  0
  -21.0890   -4.2310   26.0220 F   0  0  0  0  0  0  0  0  0  0  0  0
  -23.1100  -13.7130   21.1590 C   0  0  0  0  0  0  0  0  0  0  0  0
  -22.4130  -12.9970   22.0340 N   0  0  0  0  0  0  0  0  0  0  0  0
  -22.6660  -14.7620   20.6950 O   0  0  0  0  0  0  0  0  0  0  0  0
  -22.7860  -12.1460   22.4290 H   0  0  0  0  0  0  0  0  0  0  0  0
  -21.4930  -13.3040   22.3140 H   0  0  0  0  0  0  0  0  0  0  0  0
  -25.7200  -15.3640   20.2490 N   0  0  0  0  0  0  0  0  0  0  0  0
  -24.9620  -16.0210   20.3950 H   0  0  0  0  0  0  0  0  0  0  0  0
  -26.5430  -15.7930   19.8460 H   0  0  0  0  0  0  0  0  0  0  0  0
  -28.4150  -23.0700   20.5890 C   0  0  0  0  0  2  0  0  0  0  0  0
  -29.0420  -24.4380   20.2360 C   0  0  0  0  0  0  0  0  0  0  0  0
  -30.0310  -24.5110   19.4940 O   0  0  0  0  0  0  0  0  0  0  0  0
  -28.3940  -25.6850   20.8830 C   0  0  0  0  0  2  0  0  0  0  0  0
  -28.5760  -26.9110   20.1370 O   0  0  0  0  0  0  0  0  0  0  0  0
  -24.6440  -31.9580   23.2930 C   0  0  0  0  0  0  0  0  0  0  0  0
  -27.4290  -27.6750   20.1110 C   0  0  0  0  0  0  0  0  0  0  0  0
  -23.4930  -30.5790   21.5940 C   0  0  0  0  0  3  0  0  0  0  0  0
  -25.0030  -29.1280   20.1340 C   0  0  0  0  0  0  0  0  0  0  0  0
  -26.0120  -31.0090   21.4360 C   0  0  0  0  0  2  0  0  0  0  0  0
  -26.1410  -29.6610   20.7520 C   0  0  0  0  0  0  0  0  0  0  0  0
  -27.3620  -28.9440   20.7350 C   0  0  0  0  0  3  0  0  0  0  0  0
  -26.2770  -27.1640   19.4780 C   0  0  0  0  0  3  0  0  0  0  0  0
  -25.0660  -27.8800   19.4900 C   0  0  0  0  0  3  0  0  0  0  0  0
  -23.7350  -29.9510   20.1950 C   0  0  0  0  0  2  0  0  0  0  0  0
  -24.7340  -31.1950   22.1670 N   0  0  0  0  0  0  0  0  0  0  0  0
  -23.5510  -32.1840   23.8300 O   0  0  0  0  0  0  0  0  0  0  0  0
  -22.8580  -29.5110   22.5140 C   0  0  0  0  0  0  0  0  0  0  0  0
  -21.5390  -29.3050   22.3710 N   0  0  0  0  0  0  0  0  0  0  0  0
  -23.5490  -28.8730   23.3120 O   0  0  0  0  0  0  0  0  0  0  0  0
  -21.0410  -29.8750   21.7000 H   0  0  0  0  0  0  0  0  0  0  0  0
  -18.1800  -28.0510   22.8310 C   0  0  0  0  0  0  0  0  0  0  0  0
  -20.7370  -28.3250   23.1020 C   0  0  0  0  0  3  0  0  0  0  0  0
  -20.8520  -26.9220   22.4600 C   0  0  0  0  0  2  0  0  0  0  0  0
  -19.7480  -26.6340   21.4380 C   0  0  0  0  0  2  0  0  0  0  0  0
  -18.3680  -26.7350   22.0950 C   0  0  0  0  0  2  0  0  0  0  0  0
  -19.2930  -28.8050   23.2900 C   0  0  0  0  0  0  0  0  0  0  0  0
  -19.0640  -30.0390   23.9380 C   0  0  0  0  0  3  0  0  0  0  0  0
  -17.7550  -30.5180   24.1310 C   0  0  0  0  0  3  0  0  0  0  0  0
  -16.6570  -29.7600   23.6890 C   0  0  0  0  0  3  0  0  0  0  0  0
  -16.8700  -28.5290   23.0450 C   0  0  0  0  0  3  0  0  0  0  0  0
  -25.9070  -32.6010   23.9470 C   0  0  0  0  0  3  0  0  0  0  0  0
  -26.3840  -31.8490   25.2500 C   0  0  1  0  0  0  0  0  0  0  0  0
  -25.2530  -31.6040   26.2750 C   0  0  0  0  0  1  0  0  0  0  0  0
  -27.0020  -30.4770   24.8920 C   0  0  0  0  0  1  0  0  0  0  0  0
  -27.4950  -32.6650   25.9500 C   0  0  0  0  0  1  0  0  0  0  0  0
  -25.5850  -34.0040   24.2450 N   0  0  0  0  0  0  0  0  0  0  0  0
  -25.9380  -35.0430   23.4780 C   0  0  0  0  0  0  0  0  0  0  0  0
  -26.6400  -34.9240   22.4690 O   0  0  0  0  0  0  0  0  0  0  0  0
  -24.9660  -34.1700   25.0250 H   0  0  0  0  0  0  0  0  0  0  0  0
  -24.2230  -36.8270   23.0310 C   0  0  0  0  0  1  0  0  0  0  0  0
  -25.4330  -36.4380   23.8950 C   0  0  0  0  0  3  0  0  0  0  0  0
  -27.5300  -37.3430   24.7980 C   0  0  0  0  0  1  0  0  0  0  0  0
  -26.4690  -37.4900   23.8050 N   0  0  0  0  0  0  0  0  0  0  0  0
  -26.0560  -38.4120   23.9160 H   0  0  0  0  0  0  0  0  0  0  0  0
  1  3  2  0
  2 52  1  0
  2  1  1  0
  3  6  1  0
  3  5  1  0
  4  2  1  0
  7 10  1  0
  9 12  2  0
 10  8  2  0
 10  1  1  0
 11  7  2  0
 11  9  1  0
 12  8  1  0
 12 13  1  0
 14 22  1  0
 15 20  1  0
 16 17  1  0
 16 15  1  0
 18 17  1  0
 18 27  1  0
 18 19  1  0
 20 14  1  0
 20 19  1  0
 21 14  2  0
 22 11  1  0
 22 23  1  0
 24 25  2  0
 25 44  1  0
 26 25  1  0
 26 29  1  0
 27 28  1  0
 27 24  1  0
 28 26  2  0
 29 30  1  0
 30 31  2  0
 32 35  1  0
 32 31  1  0
 33 32  2  0
 34 33  1  0
 34 29  2  0
 35 36  1  0
 36 41  2  0
 36 37  1  0
 37 38  2  0
 38 39  1  0
 39 43  1  0
 40 39  2  0
 41 40  1  0
 42 41  1  0
 44 45  1  0
 45 48  1  0
 45 47  1  0
 46 44  2  0
 49 50  1  0
 49 24  1  0
 51 49  1  0
 53 52  1  0
 53 55  1  0
 54 53  2  0
 56 55  1  0
 57 68  2  0
 58 56  1  0
 58 63  1  0
 59 67  1  0
 59 69  1  0
 60 66  1  0
 60 62  1  0
 61 67  1  0
 62 61  1  0
 63 62  2  0
 64 65  1  0
 64 58  2  0
 65 60  2  0
 66 59  1  0
 67 57  1  0
 69 71  2  0
 70 69  1  0
 72 70  1  0
 73 82  2  0
 73 78  1  0
 74 70  1  0
 74 78  1  0
 75 74  1  0
 76 77  1  0
 76 75  1  0
 77 73  1  0
 78 79  2  0
 79 80  1  0
 81 80  2  0
 82 81  1  0
 83 57  1  0
 83 88  1  0
 83 84  1  0
 84 87  1  1
 84 85  1  0
 86 84  1  0
 88 91  1  0
 89 93  1  0
 89 88  1  0
 90 89  2  0
 93 92  1  0
 95 93  1  0
 95 96  1  0
 95 94  1  0
M  ISO  4  14 100  22 100  55 101  56 101
M  END
>  <TORSDO>  (73) 
F 20

>  <SCORE>  (73) 
-13.692

>  <name>  (73) 
72

>  <ligand_id>  (73) 
72

>  <original_smiles>  (73) 
[H]c1c([H])c([H])c2c(c1[H])C([H])([H])C([H])([H])C([H])([H])C2([H])N([H])C(=O)C1([H])N(C(=O)C([H])(N([H])C(=O)C([H])(N([H])C([H])([H])[H])C([H])([H])[H])C(C([H])([H])[H])(C([H])([H])[H])C([H])([H])[H])C([H])([H])c2c([H])c(OC([H])([H])C(=O)C([H])([H])N([H])C(c3c([H])c(F)c([H])c(N([H])C(=O)N4C([H])([H])C([H])([H])C([H])([H])C([H])(n5nc(-c6c([H])c([H])c(Oc7c([H])c([H])c(F)c([H])c7F)c([H])c6[H])c(C(=O)N([H])[H])c5N([H])[H])C4([H])[H])c3[H])=[N+]([H])[H])c([H])c([H])c2C1([H])[H]

>  <smiles>  (73) 
[H]c1c([H])c([H])c2c(c1[H])C([H])([H])C([H])([H])C([H])([H])C2([H])N([H])C(=O)C1([H])N(C(=O)C([H])(N([H])C(=O)C([H])(N([H])C([H])([H])[H])C([H])([H])[H])C(C([H])([H])[H])(C([H])([H])[H])C([H])([H])[H])C([H])([H])c2c([H])c(OC([H])([H])C(=O)C([H])([H])N([H])C(c3c([H])c(F)c([H])c(N([H])C(=O)N4C([H])([H])C([H])([H])C([H])([H])C([H])(n5nc(-c6c([H])c([H])c(Oc7c([H])c([H])c(F)c([H])c7F)c([H])c6[H])c(C(=O)N([H])[H])c5N([H])[H])C4([H])[H])c3[H])=[N+]([H])[H])c([H])c([H])c2C1([H])[H]

$$$$
73:0:0
     RDKit          3D

 95104  0  0  1  0  0  0  0  0999 V2000
  -30.2980  -21.3870   21.7920 C   0  0  0  0  0  0  0  0  0  0  0  0
  -30.4000  -22.8220   22.3480 C   0  0  0  0  0  2  0  0  0  0  0  0
  -29.2740  -23.7950   21.9660 C   0  0  0  0  0  2  0  0  0  0  0  0
  -28.6680  -22.2300   20.1230 C   0  0  0  0  0  2  0  0  0  0  0  0
  -29.0220  -23.7680   20.4620 C   0  0  0  0  0  3  0  0  0  0  0  0
  -29.5640  -21.1160   20.6750 N   0  0  0  0  0  0  0  0  0  0  0  0
  -30.9510  -20.5240   22.3900 O   0  0  0  0  0  0  0  0  0  0  0  0
  -29.6360  -18.4900   20.6620 C   0  0  0  0  0  3  0  0  0  0  0  0
  -30.3790  -17.2970   18.6840 C   0  0  0  0  0  3  0  0  0  0  0  0
  -30.2360  -19.7580   18.6580 C   0  0  0  0  0  0  0  0  0  0  0  0
  -29.7630  -19.7910   20.0050 C   0  0  0  0  0  0  0  0  0  0  0  0
  -29.9780  -17.2220   20.0340 C   0  0  0  0  0  0  0  0  0  0  0  0
  -30.4980  -18.5270   18.0150 C   0  0  0  0  0  0  0  0  0  0  0  0
  -30.5620  -21.0220   17.8710 C   0  0  0  0  0  1  0  0  0  0  0  0
  -30.9010  -18.5150   16.7210 F   0  0  0  0  0  0  0  0  0  0  0  0
  -30.6070  -14.7350   20.3650 C   0  0  0  0  0  0  0  0  0  0  0  0
  -30.3760  -12.4680   19.3650 C   0  0  0  0  0  2  0  0  0  0  0  0
  -29.4460  -12.5790   18.1360 C   0  0  0  0  0  2  0  0  0  0  0  0
  -27.9720  -12.4260   18.5610 C   0  0  0  0  0  2  0  0  0  0  0  0
  -27.6090  -13.2970   19.7930 C   0  0  0  0  0  3  0  0  0  0  0  0
  -28.6660  -13.1840   20.9160 C   0  0  0  0  0  2  0  0  0  0  0  0
  -29.9710  -13.5150   20.3320 N   0  0  0  0  0  0  0  0  0  0  0  0
  -31.7800  -14.8260   19.9940 O   0  0  0  0  0  0  0  0  0  0  0  0
  -29.8680  -15.8760   20.6500 N   0  0  0  0  0  0  0  0  0  0  0  0
  -29.0210  -15.7090   21.1740 H   0  0  0  0  0  0  0  0  0  0  0  0
  -25.2200  -13.8920   20.5090 C   0  0  0  0  0  0  0  0  0  0  0  0
  -24.1500  -13.1210   20.8810 C   0  0  0  0  0  0  0  0  0  0  0  0
  -24.6120  -11.7690   20.8580 C   0  0  0  0  0  0  0  0  0  0  0  0
  -26.2620  -13.0110   20.2780 N   0  0  0  0  0  0  0  0  0  0  0  0
  -25.9030  -11.7290   20.5500 N   0  0  0  0  0  0  0  0  0  0  0  0
  -23.8830  -10.5080   21.0540 C   0  0  0  0  0  0  0  0  0  0  0  0
  -24.3190   -9.5390   21.9830 C   0  0  0  0  0  3  0  0  0  0  0  0
  -23.5900   -8.3440   22.1690 C   0  0  0  0  0  3  0  0  0  0  0  0
  -22.4090   -8.1110   21.4230 C   0  0  0  0  0  0  0  0  0  0  0  0
  -21.9910   -9.0700   20.4840 C   0  0  0  0  0  3  0  0  0  0  0  0
  -22.7220  -10.2550   20.2970 C   0  0  0  0  0  3  0  0  0  0  0  0
  -21.6520   -6.9670   21.5150 O   0  0  0  0  0  0  0  0  0  0  0  0
  -21.6200   -6.2170   22.6630 C   0  0  0  0  0  0  0  0  0  0  0  0
  -21.2240   -6.7660   23.9010 C   0  0  0  0  0  3  0  0  0  0  0  0
  -21.1370   -5.9430   25.0410 C   0  0  0  0  0  3  0  0  0  0  0  0
  -21.4360   -4.5720   24.9440 C   0  0  0  0  0  0  0  0  0  0  0  0
  -21.8260   -4.0210   23.7100 C   0  0  0  0  0  3  0  0  0  0  0  0
  -21.9140   -4.8420   22.5720 C   0  0  0  0  0  0  0  0  0  0  0  0
  -22.2700   -4.3030   21.3810 F   0  0  0  0  0  0  0  0  0  0  0  0
  -21.3460   -3.7780   26.0360 F   0  0  0  0  0  0  0  0  0  0  0  0
  -22.7530  -13.6030   21.1440 C   0  0  0  0  0  0  0  0  0  0  0  0
  -22.0210  -12.9140   22.0120 N   0  0  0  0  0  0  0  0  0  0  0  0
  -22.3190  -14.6260   20.6180 O   0  0  0  0  0  0  0  0  0  0  0  0
  -22.3850  -12.0880   22.4640 H   0  0  0  0  0  0  0  0  0  0  0  0
  -21.0830  -13.2210   22.2280 H   0  0  0  0  0  0  0  0  0  0  0  0
  -25.3860  -15.2620   20.3270 N   0  0  0  0  0  0  0  0  0  0  0  0
  -24.6190  -15.9160   20.4320 H   0  0  0  0  0  0  0  0  0  0  0  0
  -26.2330  -15.6970   19.9840 H   0  0  0  0  0  0  0  0  0  0  0  0
  -27.9850  -24.9250   20.0300 C   0  0  0  0  0  2  0  0  0  0  0  0
  -28.2540  -26.3870   20.2520 O   0  0  0  0  0  0  0  0  0  0  0  0
  -24.6070  -31.9030   23.2390 C   0  0  0  0  0  0  0  0  0  0  0  0
  -27.1660  -27.2880   20.1850 C   0  0  0  0  0  0  0  0  0  0  0  0
  -23.3900  -30.5090   21.6080 C   0  0  0  0  0  3  0  0  0  0  0  0
  -24.8240  -28.9510   20.1740 C   0  0  0  0  0  0  0  0  0  0  0  0
  -25.9340  -30.8030   21.4150 C   0  0  0  0  0  2  0  0  0  0  0  0
  -26.0020  -29.4200   20.7720 C   0  0  0  0  0  0  0  0  0  0  0  0
  -27.1750  -28.5990   20.7700 C   0  0  0  0  0  3  0  0  0  0  0  0
  -25.9650  -26.8940   19.5500 C   0  0  0  0  0  3  0  0  0  0  0  0
  -24.8100  -27.6960   19.5530 C   0  0  0  0  0  3  0  0  0  0  0  0
  -23.5940  -29.8350   20.2270 C   0  0  0  0  0  2  0  0  0  0  0  0
  -24.6630  -31.0900   22.1440 N   0  0  0  0  0  0  0  0  0  0  0  0
  -23.5260  -32.1880   23.7760 O   0  0  0  0  0  0  0  0  0  0  0  0
  -22.7260  -29.4960   22.5720 C   0  0  0  0  0  0  0  0  0  0  0  0
  -21.3990  -29.3220   22.4490 N   0  0  0  0  0  0  0  0  0  0  0  0
  -23.4050  -28.8700   23.3900 O   0  0  0  0  0  0  0  0  0  0  0  0
  -20.9120  -29.8780   21.7610 H   0  0  0  0  0  0  0  0  0  0  0  0
  -18.0190  -28.1380   22.9590 C   0  0  0  0  0  0  0  0  0  0  0  0
  -20.5790  -28.3910   23.2250 C   0  0  0  0  0  3  0  0  0  0  0  0
  -20.6760  -26.9570   22.6550 C   0  0  0  0  0  2  0  0  0  0  0  0
  -19.5710  -26.6330   21.6450 C   0  0  0  0  0  2  0  0  0  0  0  0
  -18.1910  -26.7850   22.2890 C   0  0  0  0  0  2  0  0  0  0  0  0
  -19.1410  -28.8990   23.3860 C   0  0  0  0  0  0  0  0  0  0  0  0
  -18.9260  -30.1640   23.9730 C   0  0  0  0  0  3  0  0  0  0  0  0
  -17.6220  -30.6690   24.1370 C   0  0  0  0  0  3  0  0  0  0  0  0
  -16.5160  -29.9060   23.7280 C   0  0  0  0  0  3  0  0  0  0  0  0
  -16.7150  -28.6420   23.1460 C   0  0  0  0  0  3  0  0  0  0  0  0
  -25.8940  -32.5310   23.8550 C   0  0  0  0  0  3  0  0  0  0  0  0
  -25.5880  -33.9310   24.1870 N   0  0  0  0  0  0  0  0  0  0  0  0
  -25.9190  -34.9830   23.4280 C   0  0  0  0  0  0  0  0  0  0  0  0
  -26.5820  -34.8790   22.3930 O   0  0  0  0  0  0  0  0  0  0  0  0
  -24.9970  -34.0860   24.9900 H   0  0  0  0  0  0  0  0  0  0  0  0
  -24.1940  -36.7840   23.0870 C   0  0  0  0  0  1  0  0  0  0  0  0
  -25.4390  -36.3730   23.8890 C   0  0  0  0  0  3  0  0  0  0  0  0
  -27.5840  -37.2510   24.7040 C   0  0  0  0  0  1  0  0  0  0  0  0
  -26.4750  -37.4230   23.7700 N   0  0  0  0  0  0  0  0  0  0  0  0
  -26.0720  -38.3440   23.9210 H   0  0  0  0  0  0  0  0  0  0  0  0
  -26.4110  -31.7580   25.1300 C   0  0  1  0  0  0  0  0  0  0  0  0
  -25.3210  -31.5270   26.2020 C   0  0  0  0  0  1  0  0  0  0  0  0
  -26.9820  -30.3760   24.7360 C   0  0  0  0  0  1  0  0  0  0  0  0
  -27.5670  -32.5460   25.7860 C   0  0  0  0  0  1  0  0  0  0  0  0
  1  2  1  0
  1  7  2  0
  3  2  1  0
  4  5  1  0
  4  6  1  0
  5 54  1  0
  5  3  1  0
  6  1  1  0
  9 12  2  0
 10 11  1  0
 11  8  2  0
 11  6  1  0
 12 24  1  0
 12  8  1  0
 13 10  2  0
 13  9  1  0
 14 10  1  0
 15 13  1  0
 16 24  1  0
 17 22  1  0
 18 19  1  0
 18 17  1  0
 20 19  1  0
 20 29  1  0
 20 21  1  0
 22 16  1  0
 22 21  1  0
 23 16  2  0
 24 25  1  0
 26 27  2  0
 27 46  1  0
 28 27  1  0
 28 31  1  0
 29 26  1  0
 29 30  1  0
 30 28  2  0
 31 32  1  0
 32 33  2  0
 34 37  1  0
 34 33  1  0
 35 34  2  0
 36 35  1  0
 36 31  2  0
 37 38  1  0
 38 39  1  0
 39 40  2  0
 41 40  1  0
 41 45  1  0
 42 41  2  0
 43 38  2  0
 43 42  1  0
 44 43  1  0
 46 47  1  0
 47 50  1  0
 47 49  1  0
 48 46  2  0
 51 52  1  0
 51 26  1  0
 53 51  1  0
 54 55  1  0
 56 67  2  0
 57 55  1  0
 57 62  1  0
 58 66  1  0
 58 68  1  0
 59 65  1  0
 59 61  1  0
 60 66  1  0
 61 60  1  0
 62 61  2  0
 63 64  1  0
 63 57  2  0
 64 59  2  0
 65 58  1  0
 66 56  1  0
 68 70  2  0
 69 68  1  0
 71 69  1  0
 72 81  2  0
 72 77  1  0
 73 69  1  0
 73 77  1  0
 74 73  1  0
 75 76  1  0
 75 74  1  0
 76 72  1  0
 77 78  2  0
 78 79  1  0
 80 79  2  0
 81 80  1  0
 82 56  1  0
 82 83  1  0
 82 92  1  0
 83 86  1  0
 84 88  1  0
 84 83  1  0
 85 84  2  0
 88 87  1  0
 90 88  1  0
 90 91  1  0
 90 89  1  0
 92 95  1  1
 92 93  1  0
 94 92  1  0
M  ISO  4  16 100  24 100  54 101  55 101
M  END
>  <TORSDO>  (74) 
F 18

>  <SCORE>  (74) 
-15.127

>  <name>  (74) 
73

>  <ligand_id>  (74) 
73

>  <original_smiles>  (74) 
[H]c1c([H])c([H])c2c(c1[H])C([H])([H])C([H])([H])C([H])([H])C2([H])N([H])C(=O)C1([H])N(C(=O)C([H])(N([H])C(=O)C([H])(N([H])C([H])([H])[H])C([H])([H])[H])C(C([H])([H])[H])(C([H])([H])[H])C([H])([H])[H])C([H])([H])c2c([H])c(OC([H])([H])C3([H])C([H])([H])N(c4c([H])c(N([H])C(=O)N5C([H])([H])C([H])([H])C([H])([H])C([H])(n6nc(-c7c([H])c([H])c(Oc8c([H])c([H])c(F)c([H])c8F)c([H])c7[H])c(C(=O)N([H])[H])c6N([H])[H])C5([H])[H])c([H])c(F)c4C([H])([H])[H])C(=O)C([H])([H])C3([H])[H])c([H])c([H])c2C1([H])[H]

>  <smiles>  (74) 
[H]c1c([H])c([H])c2c(c1[H])C([H])([H])C([H])([H])C([H])([H])C2([H])N([H])C(=O)C1([H])N(C(=O)C([H])(N([H])C(=O)C([H])(N([H])C([H])([H])[H])C([H])([H])[H])C(C([H])([H])[H])(C([H])([H])[H])C([H])([H])[H])C([H])([H])c2c([H])c(OC([H])([H])C3([H])C([H])([H])N(c4c([H])c(N([H])C(=O)N5C([H])([H])C([H])([H])C([H])([H])C([H])(n6nc(-c7c([H])c([H])c(Oc8c([H])c([H])c(F)c([H])c8F)c([H])c7[H])c(C(=O)N([H])[H])c6N([H])[H])C5([H])[H])c([H])c(F)c4C([H])([H])[H])C(=O)C([H])([H])C3([H])[H])c([H])c([H])c2C1([H])[H]

$$$$
74:0:0
     RDKit          3D

 93101  0  0  1  0  0  0  0  0999 V2000
  -29.0870  -22.7220   20.3210 C   0  0  0  0  0  0  0  0  0  0  0  0
  -28.9790  -21.3470   20.6420 N   0  0  0  0  0  0  0  0  0  0  0  0
  -29.9730  -23.1360   19.5720 O   0  0  0  0  0  0  0  0  0  0  0  0
  -28.0800  -21.1570   21.0620 H   0  0  0  0  0  0  0  0  0  0  0  0
  -32.1040  -19.1250   21.0450 C   0  0  0  0  0  3  0  0  0  0  0  0
  -31.6350  -17.8140   20.8510 C   0  0  0  0  0  3  0  0  0  0  0  0
  -29.4330  -18.7380   20.4600 C   0  0  0  0  0  3  0  0  0  0  0  0
  -31.2700  -20.2630   20.9660 C   0  0  0  0  0  0  0  0  0  0  0  0
  -30.2840  -17.5360   20.5580 C   0  0  0  0  0  0  0  0  0  0  0  0
  -29.8880  -20.1350   20.6310 C   0  0  0  0  0  0  0  0  0  0  0  0
  -31.9220  -21.5850   21.3390 C   0  0  0  0  0  1  0  0  0  0  0  0
  -30.5870  -14.9020   20.2180 C   0  0  0  0  0  0  0  0  0  0  0  0
  -30.3580  -12.6180   19.1880 C   0  0  0  0  0  2  0  0  0  0  0  0
  -29.3970  -12.6660   17.9810 C   0  0  0  0  0  2  0  0  0  0  0  0
  -27.9430  -12.4630   18.4460 C   0  0  0  0  0  2  0  0  0  0  0  0
  -27.5820  -13.3470   19.6710 C   0  0  0  0  0  3  0  0  0  0  0  0
  -28.6680  -13.2980   20.7670 C   0  0  0  0  0  2  0  0  0  0  0  0
  -29.9380  -13.6810   20.1380 N   0  0  0  0  0  0  0  0  0  0  0  0
  -31.7720  -14.9390   19.8780 O   0  0  0  0  0  0  0  0  0  0  0  0
  -29.8570  -16.0870   20.4410 N   0  0  0  0  0  0  0  0  0  0  0  0
  -28.8660  -15.9300   20.5340 H   0  0  0  0  0  0  0  0  0  0  0  0
  -25.2080  -13.9020   20.4570 C   0  0  0  0  0  0  0  0  0  0  0  0
  -24.1590  -13.1140   20.8440 C   0  0  0  0  0  0  0  0  0  0  0  0
  -24.6360  -11.7680   20.7950 C   0  0  0  0  0  0  0  0  0  0  0  0
  -26.2560  -13.0350   20.1930 N   0  0  0  0  0  0  0  0  0  0  0  0
  -25.9210  -11.7480   20.4620 N   0  0  0  0  0  0  0  0  0  0  0  0
  -23.9250  -10.4970   20.9900 C   0  0  0  0  0  0  0  0  0  0  0  0
  -24.3650   -9.5420   21.9330 C   0  0  0  0  0  3  0  0  0  0  0  0
  -23.6520   -8.3360   22.1160 C   0  0  0  0  0  3  0  0  0  0  0  0
  -22.4850   -8.0800   21.3570 C   0  0  0  0  0  0  0  0  0  0  0  0
  -22.0650   -9.0240   20.4040 C   0  0  0  0  0  3  0  0  0  0  0  0
  -22.7780  -10.2200   20.2190 C   0  0  0  0  0  3  0  0  0  0  0  0
  -21.7430   -6.9270   21.4500 O   0  0  0  0  0  0  0  0  0  0  0  0
  -21.6810   -6.2030   22.6130 C   0  0  0  0  0  0  0  0  0  0  0  0
  -21.1910   -6.7620   23.8140 C   0  0  0  0  0  3  0  0  0  0  0  0
  -21.0780   -5.9630   24.9690 C   0  0  0  0  0  3  0  0  0  0  0  0
  -21.4440   -4.6050   24.9240 C   0  0  0  0  0  0  0  0  0  0  0  0
  -21.9270   -4.0440   23.7280 C   0  0  0  0  0  3  0  0  0  0  0  0
  -22.0410   -4.8410   22.5750 C   0  0  0  0  0  0  0  0  0  0  0  0
  -22.4870   -4.2900   21.4200 F   0  0  0  0  0  0  0  0  0  0  0  0
  -21.3290   -3.8340   26.0310 F   0  0  0  0  0  0  0  0  0  0  0  0
  -22.7630  -13.5770   21.1420 C   0  0  0  0  0  0  0  0  0  0  0  0
  -22.0550  -12.8650   22.0130 N   0  0  0  0  0  0  0  0  0  0  0  0
  -22.3090  -14.6040   20.6410 O   0  0  0  0  0  0  0  0  0  0  0  0
  -22.4360  -12.0340   22.4400 H   0  0  0  0  0  0  0  0  0  0  0  0
  -21.1190  -13.1550   22.2560 H   0  0  0  0  0  0  0  0  0  0  0  0
  -25.3530  -15.2750   20.2840 N   0  0  0  0  0  0  0  0  0  0  0  0
  -24.5720  -15.9130   20.4040 H   0  0  0  0  0  0  0  0  0  0  0  0
  -26.1770  -15.7260   19.9110 H   0  0  0  0  0  0  0  0  0  0  0  0
  -27.7550  -25.0280   20.8490 C   0  0  0  0  0  3  0  0  0  0  0  0
  -28.0150  -23.6360   20.9050 C   0  0  0  0  0  0  0  0  0  0  0  0
  -26.9950  -22.8630   21.7530 C   0  0  0  0  0  1  0  0  0  0  0  0
  -28.2250  -26.2620   20.2730 O   0  0  0  0  0  0  0  0  0  0  0  0
  -24.6370  -31.9100   23.2480 C   0  0  0  0  0  0  0  0  0  0  0  0
  -27.2300  -27.2840   20.1770 C   0  0  0  0  0  0  0  0  0  0  0  0
  -23.4360  -30.5180   21.6030 C   0  0  0  0  0  3  0  0  0  0  0  0
  -24.8910  -28.9740   20.1590 C   0  0  0  0  0  0  0  0  0  0  0  0
  -25.9850  -30.8110   21.4340 C   0  0  0  0  0  2  0  0  0  0  0  0
  -26.0660  -29.4310   20.7740 C   0  0  0  0  0  0  0  0  0  0  0  0
  -27.2400  -28.5950   20.7790 C   0  0  0  0  0  3  0  0  0  0  0  0
  -26.0390  -26.9250   19.5070 C   0  0  0  0  0  3  0  0  0  0  0  0
  -24.8840  -27.7300   19.5130 C   0  0  0  0  0  3  0  0  0  0  0  0
  -23.6560  -29.8550   20.2180 C   0  0  0  0  0  2  0  0  0  0  0  0
  -24.7060  -31.0980   22.1510 N   0  0  0  0  0  0  0  0  0  0  0  0
  -23.5510  -32.1880   23.7790 O   0  0  0  0  0  0  0  0  0  0  0  0
  -22.7670  -29.5000   22.5590 C   0  0  0  0  0  0  0  0  0  0  0  0
  -21.4410  -29.3190   22.4250 N   0  0  0  0  0  0  0  0  0  0  0  0
  -23.4410  -28.8780   23.3850 O   0  0  0  0  0  0  0  0  0  0  0  0
  -20.9550  -29.8720   21.7340 H   0  0  0  0  0  0  0  0  0  0  0  0
  -18.0660  -28.0980   22.9150 C   0  0  0  0  0  0  0  0  0  0  0  0
  -20.6210  -28.3770   23.1930 C   0  0  0  0  0  3  0  0  0  0  0  0
  -20.7340  -26.9450   22.6210 C   0  0  0  0  0  2  0  0  0  0  0  0
  -19.6400  -26.6140   21.6020 C   0  0  0  0  0  2  0  0  0  0  0  0
  -18.2550  -26.7500   22.2400 C   0  0  0  0  0  2  0  0  0  0  0  0
  -19.1770  -28.8690   23.3480 C   0  0  0  0  0  0  0  0  0  0  0  0
  -18.9460  -30.1290   23.9410 C   0  0  0  0  0  3  0  0  0  0  0  0
  -17.6370  -30.6200   24.1010 C   0  0  0  0  0  3  0  0  0  0  0  0
  -16.5400  -29.8460   23.6830 C   0  0  0  0  0  3  0  0  0  0  0  0
  -16.7560  -28.5870   23.0960 C   0  0  0  0  0  3  0  0  0  0  0  0
  -25.9170  -32.5430   23.8720 C   0  0  0  0  0  3  0  0  0  0  0  0
  -26.4260  -31.7750   25.1550 C   0  0  1  0  0  0  0  0  0  0  0  0
  -25.3280  -31.5450   26.2190 C   0  0  0  0  0  1  0  0  0  0  0  0
  -27.0070  -30.3930   24.7780 C   0  0  0  0  0  1  0  0  0  0  0  0
  -27.5760  -32.5700   25.8200 C   0  0  0  0  0  1  0  0  0  0  0  0
  -25.6090  -33.9440   24.1980 N   0  0  0  0  0  0  0  0  0  0  0  0
  -25.9370  -34.9940   23.4340 C   0  0  0  0  0  0  0  0  0  0  0  0
  -26.6010  -34.8870   22.3990 O   0  0  0  0  0  0  0  0  0  0  0  0
  -25.0220  -34.1020   25.0040 H   0  0  0  0  0  0  0  0  0  0  0  0
  -24.2120  -36.7910   23.0860 C   0  0  0  0  0  1  0  0  0  0  0  0
  -25.4560  -36.3860   23.8920 C   0  0  0  0  0  3  0  0  0  0  0  0
  -27.5930  -37.2700   24.7180 C   0  0  0  0  0  1  0  0  0  0  0  0
  -26.4920  -37.4340   23.7710 N   0  0  0  0  0  0  0  0  0  0  0  0
  -26.0900  -38.3570   23.9170 H   0  0  0  0  0  0  0  0  0  0  0  0
  1  2  1  0
  1 51  1  0
  2  4  1  0
  3  1  2  0
  6  5  2  0
  7  9  2  0
  7 10  1  0
  8  5  1  0
  8 11  1  0
  9  6  1  0
 10  2  1  0
 10  8  2  0
 12 20  1  0
 13 18  1  0
 14 15  1  0
 14 13  1  0
 16 15  1  0
 16 25  1  0
 16 17  1  0
 18 12  1  0
 18 17  1  0
 19 12  2  0
 20 21  1  0
 20  9  1  0
 22 23  2  0
 23 42  1  0
 24 23  1  0
 24 27  1  0
 25 22  1  0
 25 26  1  0
 26 24  2  0
 27 28  1  0
 28 29  2  0
 30 33  1  0
 30 29  1  0
 31 30  2  0
 32 31  1  0
 32 27  2  0
 33 34  1  0
 34 35  1  0
 35 36  2  0
 37 36  1  0
 37 41  1  0
 38 37  2  0
 39 34  2  0
 39 38  1  0
 40 39  1  0
 42 43  1  0
 43 46  1  0
 43 45  1  0
 44 42  2  0
 47 48  1  0
 47 22  1  0
 49 47  1  0
 50 51  2  0
 51 52  1  0
 53 50  1  0
 54 65  2  0
 55 53  1  0
 55 60  1  0
 56 64  1  0
 56 66  1  0
 57 63  1  0
 57 59  1  0
 58 64  1  0
 59 60  2  0
 59 58  1  0
 61 62  1  0
 61 55  2  0
 62 57  2  0
 63 56  1  0
 64 54  1  0
 66 68  2  0
 67 66  1  0
 69 67  1  0
 70 79  2  0
 70 75  1  0
 71 67  1  0
 71 75  1  0
 72 71  1  0
 73 74  1  0
 73 72  1  0
 74 70  1  0
 75 76  2  0
 76 77  1  0
 78 77  2  0
 79 78  1  0
 80 54  1  0
 80 85  1  0
 80 81  1  0
 81 84  1  1
 81 82  1  0
 83 81  1  0
 85 88  1  0
 86 90  1  0
 86 85  1  0
 87 86  2  0
 90 89  1  0
 92 90  1  0
 92 93  1  0
 92 91  1  0
M  ISO  4  12 100  20 100  50 101  53 101
M  END
>  <TORSDO>  (75) 
F 18

>  <SCORE>  (75) 
-14.882

>  <name>  (75) 
74

>  <ligand_id>  (75) 
74

>  <original_smiles>  (75) 
[H]C(Oc1c([H])c([H])c2c(c1[H])C([H])([H])N(C(=O)C([H])(N([H])C(=O)C([H])(N([H])C([H])([H])[H])C([H])([H])[H])C(C([H])([H])[H])(C([H])([H])[H])C([H])([H])[H])C([H])(C(=O)N([H])C1([H])c3c([H])c([H])c([H])c([H])c3C([H])([H])C([H])([H])C1([H])[H])C2([H])[H])=C(C(=O)N([H])c1c([H])c(N([H])C(=O)N2C([H])([H])C([H])([H])C([H])([H])C([H])(n3nc(-c4c([H])c([H])c(Oc5c([H])c([H])c(F)c([H])c5F)c([H])c4[H])c(C(=O)N([H])[H])c3N([H])[H])C2([H])[H])c([H])c([H])c1C([H])([H])[H])C([H])([H])[H]

>  <smiles>  (75) 
[H]C(Oc1c([H])c([H])c2c(c1[H])C([H])([H])N(C(=O)C([H])(N([H])C(=O)C([H])(N([H])C([H])([H])[H])C([H])([H])[H])C(C([H])([H])[H])(C([H])([H])[H])C([H])([H])[H])C([H])(C(=O)N([H])C1([H])c3c([H])c([H])c([H])c([H])c3C([H])([H])C([H])([H])C1([H])[H])C2([H])[H])=C(C(=O)N([H])c1c([H])c(N([H])C(=O)N2C([H])([H])C([H])([H])C([H])([H])C([H])(n3nc(-c4c([H])c([H])c(Oc5c([H])c([H])c(F)c([H])c5F)c([H])c4[H])c(C(=O)N([H])[H])c3N([H])[H])C2([H])[H])c([H])c([H])c1C([H])([H])[H])C([H])([H])[H]

$$$$
75:0:0
     RDKit          3D

 97105  0  0  1  0  0  0  0  0999 V2000
  -29.2370  -22.5380   19.9420 C   0  0  0  0  0  0  0  0  0  0  0  0
  -28.9150  -21.2580   20.4010 N   0  0  0  0  0  0  0  0  0  0  0  0
  -30.2740  -22.6990   19.2930 O   0  0  0  0  0  0  0  0  0  0  0  0
  -27.9400  -21.1250   20.6300 H   0  0  0  0  0  0  0  0  0  0  0  0
  -31.7990  -19.0520   21.6530 C   0  0  0  0  0  3  0  0  0  0  0  0
  -31.4080  -17.7490   21.3090 C   0  0  0  0  0  3  0  0  0  0  0  0
  -29.3790  -18.6770   20.3510 C   0  0  0  0  0  3  0  0  0  0  0  0
  -31.0020  -20.1840   21.3770 C   0  0  0  0  0  0  0  0  0  0  0  0
  -30.1820  -17.4910   20.6630 C   0  0  0  0  0  0  0  0  0  0  0  0
  -29.7720  -20.0550   20.6600 C   0  0  0  0  0  0  0  0  0  0  0  0
  -31.5020  -21.4980   21.9610 C   0  0  0  0  0  1  0  0  0  0  0  0
  -30.5660  -14.9420   20.1420 C   0  0  0  0  0  0  0  0  0  0  0  0
  -30.3450  -12.7070   19.0320 C   0  0  0  0  0  2  0  0  0  0  0  0
  -29.3570  -12.8190   17.8510 C   0  0  0  0  0  2  0  0  0  0  0  0
  -27.9090  -12.6060   18.3330 C   0  0  0  0  0  2  0  0  0  0  0  0
  -27.5760  -13.4310   19.6070 C   0  0  0  0  0  3  0  0  0  0  0  0
  -28.6850  -13.3150   20.6760 C   0  0  0  0  0  2  0  0  0  0  0  0
  -29.9420  -13.7190   20.0380 N   0  0  0  0  0  0  0  0  0  0  0  0
  -31.7370  -15.0480   19.7660 O   0  0  0  0  0  0  0  0  0  0  0  0
  -29.7940  -16.0680   20.4300 N   0  0  0  0  0  0  0  0  0  0  0  0
  -28.8090  -15.8730   20.5120 H   0  0  0  0  0  0  0  0  0  0  0  0
  -25.2060  -13.9450   20.4370 C   0  0  0  0  0  0  0  0  0  0  0  0
  -24.1780  -13.1350   20.8360 C   0  0  0  0  0  0  0  0  0  0  0  0
  -24.6750  -11.7980   20.7640 C   0  0  0  0  0  0  0  0  0  0  0  0
  -26.2630  -13.0970   20.1430 N   0  0  0  0  0  0  0  0  0  0  0  0
  -25.9530  -11.8000   20.4040 N   0  0  0  0  0  0  0  0  0  0  0  0
  -23.9910  -10.5140   20.9600 C   0  0  0  0  0  0  0  0  0  0  0  0
  -24.4400   -9.5740   21.9130 C   0  0  0  0  0  3  0  0  0  0  0  0
  -23.7520   -8.3550   22.0950 C   0  0  0  0  0  3  0  0  0  0  0  0
  -22.6000   -8.0670   21.3250 C   0  0  0  0  0  0  0  0  0  0  0  0
  -22.1700   -8.9980   20.3610 C   0  0  0  0  0  3  0  0  0  0  0  0
  -22.8600  -10.2070   20.1770 C   0  0  0  0  0  3  0  0  0  0  0  0
  -21.8840   -6.8990   21.4160 O   0  0  0  0  0  0  0  0  0  0  0  0
  -21.8030   -6.1940   22.5900 C   0  0  0  0  0  0  0  0  0  0  0  0
  -21.2310   -6.7500   23.7560 C   0  0  0  0  0  3  0  0  0  0  0  0
  -21.1040   -5.9660   24.9190 C   0  0  0  0  0  3  0  0  0  0  0  0
  -21.5380   -4.6270   24.9190 C   0  0  0  0  0  0  0  0  0  0  0  0
  -22.1040   -4.0710   23.7580 C   0  0  0  0  0  3  0  0  0  0  0  0
  -22.2320   -4.8520   22.5970 C   0  0  0  0  0  0  0  0  0  0  0  0
  -22.7580   -4.3040   21.4750 F   0  0  0  0  0  0  0  0  0  0  0  0
  -21.4100   -3.8730   26.0360 F   0  0  0  0  0  0  0  0  0  0  0  0
  -22.7810  -13.5700   21.1690 C   0  0  0  0  0  0  0  0  0  0  0  0
  -22.0970  -12.8320   22.0350 N   0  0  0  0  0  0  0  0  0  0  0  0
  -22.3030  -14.6000   20.6950 O   0  0  0  0  0  0  0  0  0  0  0  0
  -22.4980  -11.9990   22.4420 H   0  0  0  0  0  0  0  0  0  0  0  0
  -21.1600  -13.1020   22.2970 H   0  0  0  0  0  0  0  0  0  0  0  0
  -25.3220  -15.3220   20.2770 N   0  0  0  0  0  0  0  0  0  0  0  0
  -24.5350  -15.9440   20.4250 H   0  0  0  0  0  0  0  0  0  0  0  0
  -26.1260  -15.7920   19.8810 H   0  0  0  0  0  0  0  0  0  0  0  0
  -28.3020  -23.8430   20.1690 C   0  0  0  0  0  3  0  0  0  0  0  0
  -28.2550  -24.2050   21.6810 C   0  0  0  0  0  2  0  0  0  0  0  0
  -27.1040  -23.6290   22.4130 N   0  0  0  0  0  4  0  0  0  0  0  0
  -27.1280  -23.9380   23.3690 H   0  0  0  0  0  0  0  0  0  0  0  0
  -27.1130  -22.6250   22.4250 H   0  0  0  0  0  0  0  0  0  0  0  0
  -26.2340  -23.9440   22.0220 H   0  0  0  0  0  0  0  0  0  0  0  0
  -28.6280  -25.1930   19.3000 C   0  0  0  0  0  2  0  0  0  0  0  0
  -28.5170  -26.6130   19.7950 O   0  0  0  0  0  0  0  0  0  0  0  0
  -24.6830  -31.7590   23.1280 C   0  0  0  0  0  0  0  0  0  0  0  0
  -27.3540  -27.4130   19.7790 C   0  0  0  0  0  0  0  0  0  0  0  0
  -23.4820  -30.4090   21.4450 C   0  0  0  0  0  3  0  0  0  0  0  0
  -24.9410  -28.9710   19.9040 C   0  0  0  0  0  0  0  0  0  0  0  0
  -26.0060  -30.8080   21.2160 C   0  0  0  0  0  2  0  0  0  0  0  0
  -26.1080  -29.4630   20.4990 C   0  0  0  0  0  0  0  0  0  0  0  0
  -27.3120  -28.6940   20.4280 C   0  0  0  0  0  3  0  0  0  0  0  0
  -26.1600  -26.9790   19.1630 C   0  0  0  0  0  3  0  0  0  0  0  0
  -24.9700  -27.7390   19.2250 C   0  0  0  0  0  3  0  0  0  0  0  0
  -23.6820  -29.8110   20.0250 C   0  0  0  0  0  2  0  0  0  0  0  0
  -24.7440  -31.0100   21.9860 N   0  0  0  0  0  0  0  0  0  0  0  0
  -23.6060  -31.9740   23.7020 O   0  0  0  0  0  0  0  0  0  0  0  0
  -22.8750  -29.3260   22.3700 C   0  0  0  0  0  0  0  0  0  0  0  0
  -21.5580  -29.0900   22.2440 N   0  0  0  0  0  0  0  0  0  0  0  0
  -23.5900  -28.7020   23.1580 O   0  0  0  0  0  0  0  0  0  0  0  0
  -21.0360  -29.6550   21.5880 H   0  0  0  0  0  0  0  0  0  0  0  0
  -18.2510  -27.6980   22.6980 C   0  0  0  0  0  0  0  0  0  0  0  0
  -20.7920  -28.0820   22.9780 C   0  0  0  0  0  3  0  0  0  0  0  0
  -20.9690  -26.6800   22.3490 C   0  0  0  0  0  2  0  0  0  0  0  0
  -19.8830  -26.3360   21.3250 C   0  0  0  0  0  2  0  0  0  0  0  0
  -18.4960  -26.3850   21.9730 C   0  0  0  0  0  2  0  0  0  0  0  0
  -19.3290  -28.5010   23.1550 C   0  0  0  0  0  0  0  0  0  0  0  0
  -19.0450  -29.7280   23.7930 C   0  0  0  0  0  3  0  0  0  0  0  0
  -17.7150  -30.1540   23.9780 C   0  0  0  0  0  3  0  0  0  0  0  0
  -16.6520  -29.3480   23.5340 C   0  0  0  0  0  3  0  0  0  0  0  0
  -16.9210  -28.1210   22.9020 C   0  0  0  0  0  3  0  0  0  0  0  0
  -25.9600  -32.4000   23.7540 C   0  0  0  0  0  3  0  0  0  0  0  0
  -25.6330  -33.7890   24.1120 N   0  0  0  0  0  0  0  0  0  0  0  0
  -25.9390  -34.8610   23.3700 C   0  0  0  0  0  0  0  0  0  0  0  0
  -26.5960  -34.7870   22.3280 O   0  0  0  0  0  0  0  0  0  0  0  0
  -25.0460  -33.9190   24.9240 H   0  0  0  0  0  0  0  0  0  0  0  0
  -24.1890  -36.6410   23.0620 C   0  0  0  0  0  1  0  0  0  0  0  0
  -25.4380  -36.2340   23.8610 C   0  0  0  0  0  3  0  0  0  0  0  0
  -27.5570  -37.1340   24.7150 C   0  0  0  0  0  1  0  0  0  0  0  0
  -26.4590  -37.3010   23.7660 N   0  0  0  0  0  0  0  0  0  0  0  0
  -26.0410  -38.2150   23.9210 H   0  0  0  0  0  0  0  0  0  0  0  0
  -26.4970  -31.6150   25.0130 C   0  0  1  0  0  0  0  0  0  0  0  0
  -25.4160  -31.3410   26.0840 C   0  0  0  0  0  1  0  0  0  0  0  0
  -27.0970  -30.2530   24.5910 C   0  0  0  0  0  1  0  0  0  0  0  0
  -27.6390  -32.4140   25.6830 C   0  0  0  0  0  1  0  0  0  0  0  0
  1 50  1  0
  1  2  1  0
  2  4  1  0
  2 10  1  0
  3  1  2  0
  6  5  2  0
  7 10  1  0
  7  9  2  0
  8  5  1  0
  8 11  1  0
  9  6  1  0
 10  8  2  0
 12 20  1  0
 13 18  1  0
 14 15  1  0
 14 13  1  0
 16 15  1  0
 16 25  1  0
 16 17  1  0
 18 12  1  0
 18 17  1  0
 19 12  2  0
 20 21  1  0
 20  9  1  0
 22 23  2  0
 23 42  1  0
 24 23  1  0
 24 27  1  0
 25 26  1  0
 25 22  1  0
 26 24  2  0
 27 28  1  0
 28 29  2  0
 30 33  1  0
 30 29  1  0
 31 30  2  0
 32 31  1  0
 32 27  2  0
 33 34  1  0
 34 39  2  0
 34 35  1  0
 35 36  2  0
 37 36  1  0
 37 41  1  0
 38 37  2  0
 39 38  1  0
 40 39  1  0
 42 43  1  0
 43 46  1  0
 43 45  1  0
 44 42  2  0
 47 48  1  0
 47 22  1  0
 49 47  1  0
 50 56  1  0
 50 51  1  0
 51 52  1  0
 52 54  1  0
 52 53  1  0
 55 52  1  0
 56 57  1  0
 58 69  2  0
 59 57  1  0
 59 64  1  0
 60 68  1  0
 60 70  1  0
 61 67  1  0
 61 63  1  0
 62 68  1  0
 63 62  1  0
 64 63  2  0
 65 66  1  0
 65 59  2  0
 66 61  2  0
 67 60  1  0
 68 58  1  0
 70 72  2  0
 71 70  1  0
 73 71  1  0
 74 83  2  0
 74 79  1  0
 75 71  1  0
 75 79  1  0
 76 75  1  0
 77 78  1  0
 77 76  1  0
 78 74  1  0
 79 80  2  0
 80 81  1  0
 82 81  2  0
 83 82  1  0
 84 58  1  0
 84 85  1  0
 84 94  1  0
 85 88  1  0
 86 90  1  0
 86 85  1  0
 87 86  2  0
 90 89  1  0
 92 90  1  0
 92 93  1  0
 92 91  1  0
 94 97  1  1
 94 95  1  0
 96 94  1  0
M  ISO  4  12 100  20 100  56 101  57 101
M  END
>  <TORSDO>  (76) 
F 21

>  <SCORE>  (76) 
-13.495

>  <name>  (76) 
75

>  <ligand_id>  (76) 
75

>  <original_smiles>  (76) 
[H]c1c([H])c([H])c2c(c1[H])C([H])([H])C([H])([H])C([H])([H])C2([H])N([H])C(=O)C1([H])N(C(=O)C([H])(N([H])C(=O)C([H])(N([H])C([H])([H])[H])C([H])([H])[H])C(C([H])([H])[H])(C([H])([H])[H])C([H])([H])[H])C([H])([H])c2c([H])c(OC([H])([H])C([H])(C(=O)N([H])c3c([H])c(N([H])C(=O)N4C([H])([H])C([H])([H])C([H])([H])C([H])(n5nc(-c6c([H])c([H])c(Oc7c([H])c([H])c(F)c([H])c7F)c([H])c6[H])c(C(=O)N([H])[H])c5N([H])[H])C4([H])[H])c([H])c([H])c3C([H])([H])[H])C([H])([H])[N+]([H])([H])[H])c([H])c([H])c2C1([H])[H]

>  <smiles>  (76) 
[H]c1c([H])c([H])c2c(c1[H])C([H])([H])C([H])([H])C([H])([H])C2([H])N([H])C(=O)C1([H])N(C(=O)C([H])(N([H])C(=O)C([H])(N([H])C([H])([H])[H])C([H])([H])[H])C(C([H])([H])[H])(C([H])([H])[H])C([H])([H])[H])C([H])([H])c2c([H])c(OC([H])([H])C([H])(C(=O)N([H])c3c([H])c(N([H])C(=O)N4C([H])([H])C([H])([H])C([H])([H])C([H])(n5nc(-c6c([H])c([H])c(Oc7c([H])c([H])c(F)c([H])c7F)c([H])c6[H])c(C(=O)N([H])[H])c5N([H])[H])C4([H])[H])c([H])c([H])c3C([H])([H])[H])C([H])([H])[N+]([H])([H])[H])c([H])c([H])c2C1([H])[H]

$$$$
76:0:0
     RDKit          3D

 93101  0  0  1  0  0  0  0  0999 V2000
  -28.9020  -22.8470   19.6160 C   0  0  0  0  0  0  0  0  0  0  0  0
  -29.1260  -21.7130   20.3180 N   0  0  0  0  0  0  0  0  0  0  0  0
  -28.9640  -22.8560   18.3830 O   0  0  0  0  0  0  0  0  0  0  0  0
  -29.0320  -21.7450   21.3240 H   0  0  0  0  0  0  0  0  0  0  0  0
  -29.3780  -20.3900   19.6990 C   0  0  0  0  0  2  0  0  0  0  0  0
  -31.1540  -18.5570   22.6070 C   0  0  0  0  0  3  0  0  0  0  0  0
  -30.6450  -19.5740   21.7760 C   0  0  0  0  0  3  0  0  0  0  0  0
  -30.9760  -17.2030   22.2690 C   0  0  0  0  0  3  0  0  0  0  0  0
  -29.9450  -19.2580   20.5910 C   0  0  0  0  0  0  0  0  0  0  0  0
  -29.7930  -17.8780   20.2330 C   0  0  0  0  0  0  0  0  0  0  0  0
  -30.2990  -16.8480   21.0840 C   0  0  0  0  0  0  0  0  0  0  0  0
  -29.0660  -17.5020   18.9440 C   0  0  0  0  0  1  0  0  0  0  0  0
  -30.6830  -14.4860   20.2980 C   0  0  0  0  0  0  0  0  0  0  0  0
  -30.3640  -12.3270   19.1290 C   0  0  0  0  0  2  0  0  0  0  0  0
  -29.3930  -12.5230   17.9450 C   0  0  0  0  0  2  0  0  0  0  0  0
  -27.9290  -12.3830   18.4070 C   0  0  0  0  0  2  0  0  0  0  0  0
  -27.6190  -13.2390   19.6630 C   0  0  0  0  0  3  0  0  0  0  0  0
  -28.6900  -13.0070   20.7530 C   0  0  0  0  0  2  0  0  0  0  0  0
  -30.0090  -13.3080   20.1670 N   0  0  0  0  0  0  0  0  0  0  0  0
  -31.7950  -14.6800   19.8010 O   0  0  0  0  0  0  0  0  0  0  0  0
  -29.9720  -15.4670   20.8930 N   0  0  0  0  0  0  0  0  0  0  0  0
  -29.0670  -15.1840   21.2320 H   0  0  0  0  0  0  0  0  0  0  0  0
  -25.2510  -13.8920   20.4320 C   0  0  0  0  0  0  0  0  0  0  0  0
  -24.1730  -13.1400   20.8130 C   0  0  0  0  0  0  0  0  0  0  0  0
  -24.6100  -11.7800   20.7760 C   0  0  0  0  0  0  0  0  0  0  0  0
  -26.2720  -12.9920   20.1710 N   0  0  0  0  0  0  0  0  0  0  0  0
  -25.8920  -11.7170   20.4400 N   0  0  0  0  0  0  0  0  0  0  0  0
  -23.8650  -10.5320   20.9870 C   0  0  0  0  0  0  0  0  0  0  0  0
  -24.3040   -9.5580   21.9100 C   0  0  0  0  0  3  0  0  0  0  0  0
  -23.5650   -8.3730   22.1040 C   0  0  0  0  0  3  0  0  0  0  0  0
  -22.3720   -8.1530   21.3760 C   0  0  0  0  0  0  0  0  0  0  0  0
  -21.9510   -9.1170   20.4420 C   0  0  0  0  0  3  0  0  0  0  0  0
  -22.6910  -10.2940   20.2450 C   0  0  0  0  0  3  0  0  0  0  0  0
  -21.6030   -7.0190   21.4840 O   0  0  0  0  0  0  0  0  0  0  0  0
  -21.5750   -6.2730   22.6340 C   0  0  0  0  0  0  0  0  0  0  0  0
  -21.1940   -6.8320   23.8740 C   0  0  0  0  0  3  0  0  0  0  0  0
  -21.1110   -6.0140   25.0190 C   0  0  0  0  0  3  0  0  0  0  0  0
  -21.3970   -4.6380   24.9240 C   0  0  0  0  0  0  0  0  0  0  0  0
  -21.7690   -4.0780   23.6900 C   0  0  0  0  0  3  0  0  0  0  0  0
  -21.8540   -4.8940   22.5460 C   0  0  0  0  0  0  0  0  0  0  0  0
  -22.1940   -4.3460   21.3550 F   0  0  0  0  0  0  0  0  0  0  0  0
  -21.3070   -3.8500   26.0210 F   0  0  0  0  0  0  0  0  0  0  0  0
  -22.7910  -13.6450   21.1130 C   0  0  0  0  0  0  0  0  0  0  0  0
  -22.0670  -12.9660   21.9960 N   0  0  0  0  0  0  0  0  0  0  0  0
  -22.3640  -14.6790   20.6010 O   0  0  0  0  0  0  0  0  0  0  0  0
  -22.4240  -12.1280   22.4290 H   0  0  0  0  0  0  0  0  0  0  0  0
  -21.1430  -13.2930   22.2440 H   0  0  0  0  0  0  0  0  0  0  0  0
  -25.4470  -15.2610   20.2760 N   0  0  0  0  0  0  0  0  0  0  0  0
  -24.7240  -15.9420   20.4810 H   0  0  0  0  0  0  0  0  0  0  0  0
  -26.3310  -15.6860   20.0260 H   0  0  0  0  0  0  0  0  0  0  0  0
  -28.5440  -24.1520   20.3740 C   0  0  0  0  0  2  0  0  0  0  0  0
  -28.6300  -25.4560   19.5140 C   0  0  0  0  0  2  0  0  0  0  0  0
  -28.4340  -26.6940   20.2330 O   0  0  0  0  0  0  0  0  0  0  0  0
  -24.5970  -31.8910   23.2380 C   0  0  0  0  0  0  0  0  0  0  0  0
  -27.2380  -27.3980   20.1940 C   0  0  0  0  0  0  0  0  0  0  0  0
  -23.3920  -30.4830   21.6010 C   0  0  0  0  0  3  0  0  0  0  0  0
  -24.8440  -28.9290   20.1900 C   0  0  0  0  0  0  0  0  0  0  0  0
  -25.9180  -30.8330   21.4010 C   0  0  0  0  0  2  0  0  0  0  0  0
  -26.0030  -29.4510   20.7770 C   0  0  0  0  0  0  0  0  0  0  0  0
  -27.1960  -28.6900   20.7770 C   0  0  0  0  0  3  0  0  0  0  0  0
  -26.0510  -26.8920   19.6120 C   0  0  0  0  0  3  0  0  0  0  0  0
  -24.8650  -27.6500   19.6090 C   0  0  0  0  0  3  0  0  0  0  0  0
  -23.6050  -29.7980   20.2250 C   0  0  0  0  0  2  0  0  0  0  0  0
  -24.6540  -31.0850   22.1400 N   0  0  0  0  0  0  0  0  0  0  0  0
  -23.5140  -32.1700   23.7740 O   0  0  0  0  0  0  0  0  0  0  0  0
  -22.7350  -29.4690   22.5660 C   0  0  0  0  0  0  0  0  0  0  0  0
  -21.4100  -29.2890   22.4350 N   0  0  0  0  0  0  0  0  0  0  0  0
  -23.4130  -28.8490   23.3910 O   0  0  0  0  0  0  0  0  0  0  0  0
  -20.9260  -29.8430   21.7420 H   0  0  0  0  0  0  0  0  0  0  0  0
  -18.0340  -28.0920   22.9100 C   0  0  0  0  0  0  0  0  0  0  0  0
  -20.5880  -28.3570   23.2050 C   0  0  0  0  0  3  0  0  0  0  0  0
  -20.6990  -26.9210   22.6410 C   0  0  0  0  0  2  0  0  0  0  0  0
  -19.6050  -26.5890   21.6200 C   0  0  0  0  0  2  0  0  0  0  0  0
  -18.2180  -26.7370   22.2500 C   0  0  0  0  0  2  0  0  0  0  0  0
  -19.1460  -28.8590   23.3450 C   0  0  0  0  0  0  0  0  0  0  0  0
  -18.9220  -30.1270   23.9230 C   0  0  0  0  0  3  0  0  0  0  0  0
  -17.6150  -30.6270   24.0730 C   0  0  0  0  0  3  0  0  0  0  0  0
  -16.5150  -29.8570   23.6540 C   0  0  0  0  0  3  0  0  0  0  0  0
  -16.7260  -28.5920   23.0790 C   0  0  0  0  0  3  0  0  0  0  0  0
  -25.8830  -32.5210   23.8580 C   0  0  0  0  0  3  0  0  0  0  0  0
  -26.4030  -31.7480   25.1300 C   0  0  1  0  0  0  0  0  0  0  0  0
  -25.3140  -31.5100   26.2020 C   0  0  0  0  0  1  0  0  0  0  0  0
  -26.9830  -30.3700   24.7290 C   0  0  0  0  0  1  0  0  0  0  0  0
  -27.5560  -32.5380   25.7920 C   0  0  0  0  0  1  0  0  0  0  0  0
  -25.5760  -33.9190   24.1910 N   0  0  0  0  0  0  0  0  0  0  0  0
  -25.9050  -34.9720   23.4330 C   0  0  0  0  0  0  0  0  0  0  0  0
  -26.5740  -34.8690   22.3990 O   0  0  0  0  0  0  0  0  0  0  0  0
  -24.9840  -34.0730   24.9960 H   0  0  0  0  0  0  0  0  0  0  0  0
  -24.1770  -36.7640   23.0740 C   0  0  0  0  0  1  0  0  0  0  0  0
  -25.4160  -36.3610   23.8890 C   0  0  0  0  0  3  0  0  0  0  0  0
  -27.5540  -37.2440   24.7160 C   0  0  0  0  0  1  0  0  0  0  0  0
  -26.4490  -37.4150   23.7780 N   0  0  0  0  0  0  0  0  0  0  0  0
  -26.0430  -38.3330   23.9300 H   0  0  0  0  0  0  0  0  0  0  0  0
  1  2  1  0
  1 51  1  0
  2  4  1  0
  3  1  2  0
  5  2  1  0
  5  9  1  0
  7  6  2  0
  8  6  1  0
  9  7  1  0
 10  9  2  0
 10 11  1  0
 11  8  2  0
 12 10  1  0
 13 21  1  0
 14 19  1  0
 15 16  1  0
 15 14  1  0
 17 16  1  0
 17 26  1  0
 17 18  1  0
 19 13  1  0
 19 18  1  0
 20 13  2  0
 21 11  1  0
 21 22  1  0
 23 24  2  0
 24 43  1  0
 25 24  1  0
 25 28  1  0
 26 23  1  0
 26 27  1  0
 27 25  2  0
 28 29  1  0
 29 30  2  0
 31 34  1  0
 31 30  1  0
 32 31  2  0
 33 32  1  0
 33 28  2  0
 34 35  1  0
 35 36  1  0
 36 37  2  0
 38 37  1  0
 38 42  1  0
 39 38  2  0
 40 35  2  0
 40 39  1  0
 41 40  1  0
 43 44  1  0
 44 47  1  0
 44 46  1  0
 45 43  2  0
 48 23  1  0
 48 49  1  0
 50 48  1  0
 52 53  1  0
 52 51  1  0
 54 65  2  0
 55 53  1  0
 55 60  1  0
 56 64  1  0
 56 66  1  0
 57 63  1  0
 57 59  1  0
 58 64  1  0
 59 60  2  0
 59 58  1  0
 61 55  2  0
 62 61  1  0
 62 57  2  0
 63 56  1  0
 64 54  1  0
 66 68  2  0
 67 66  1  0
 69 67  1  0
 70 79  2  0
 70 75  1  0
 71 67  1  0
 71 75  1  0
 72 71  1  0
 73 74  1  0
 73 72  1  0
 74 70  1  0
 75 76  2  0
 76 77  1  0
 78 77  2  0
 79 78  1  0
 80 54  1  0
 80 85  1  0
 80 81  1  0
 81 84  1  1
 81 82  1  0
 83 81  1  0
 85 88  1  0
 86 90  1  0
 86 85  1  0
 87 86  2  0
 90 89  1  0
 92 90  1  0
 92 93  1  0
 92 91  1  0
M  ISO  4  13 100  21 100  52 101  53 101
M  END
>  <TORSDO>  (77) 
F 20

>  <SCORE>  (77) 
-13.821

>  <name>  (77) 
76

>  <ligand_id>  (77) 
76

>  <original_smiles>  (77) 
[H]c1c([H])c(N([H])C(=O)N2C([H])([H])C([H])([H])C([H])([H])C([H])(n3nc(-c4c([H])c([H])c(Oc5c([H])c([H])c(F)c([H])c5F)c([H])c4[H])c(C(=O)N([H])[H])c3N([H])[H])C2([H])[H])c(C([H])([H])[H])c(C([H])([H])N([H])C(=O)C([H])([H])C([H])([H])Oc2c([H])c([H])c3c(c2[H])C([H])([H])N(C(=O)C([H])(N([H])C(=O)C([H])(N([H])C([H])([H])[H])C([H])([H])[H])C(C([H])([H])[H])(C([H])([H])[H])C([H])([H])[H])C([H])(C(=O)N([H])C2([H])c4c([H])c([H])c([H])c([H])c4C([H])([H])C([H])([H])C2([H])[H])C3([H])[H])c1[H]

>  <smiles>  (77) 
[H]c1c([H])c(N([H])C(=O)N2C([H])([H])C([H])([H])C([H])([H])C([H])(n3nc(-c4c([H])c([H])c(Oc5c([H])c([H])c(F)c([H])c5F)c([H])c4[H])c(C(=O)N([H])[H])c3N([H])[H])C2([H])[H])c(C([H])([H])[H])c(C([H])([H])N([H])C(=O)C([H])([H])C([H])([H])Oc2c([H])c([H])c3c(c2[H])C([H])([H])N(C(=O)C([H])(N([H])C(=O)C([H])(N([H])C([H])([H])[H])C([H])([H])[H])C(C([H])([H])[H])(C([H])([H])[H])C([H])([H])[H])C([H])(C(=O)N([H])C2([H])c4c([H])c([H])c([H])c([H])c4C([H])([H])C([H])([H])C2([H])[H])C3([H])[H])c1[H]

$$$$
77:0:0
     RDKit          3D

 97105  0  0  1  0  0  0  0  0999 V2000
  -30.0190  -21.1230   19.3820 C   0  0  0  0  0  0  0  0  0  0  0  0
  -29.1010  -23.4560   19.7410 C   0  0  0  0  0  0  0  0  0  0  0  0
  -29.2550  -22.0410   20.0360 N   0  0  0  0  0  0  0  0  0  0  0  0
  -30.7310  -21.4870   18.3070 N   0  0  0  0  0  4  0  0  0  0  0  0
  -29.7310  -24.0120   18.8330 O   0  0  0  0  0  0  0  0  0  0  0  0
  -28.7580  -21.6270   20.8100 H   0  0  0  0  0  0  0  0  0  0  0  0
  -31.4120  -20.8460   17.9220 H   0  0  0  0  0  0  0  0  0  0  0  0
  -30.7000  -22.4500   17.9940 H   0  0  0  0  0  0  0  0  0  0  0  0
  -28.8900  -19.0120   20.1800 C   0  0  0  0  0  3  0  0  0  0  0  0
  -31.3100  -17.5880   20.1030 C   0  0  0  0  0  3  0  0  0  0  0  0
  -30.0690  -19.6980   19.8010 C   0  0  0  0  0  0  0  0  0  0  0  0
  -30.1240  -16.8940   20.4440 C   0  0  0  0  0  0  0  0  0  0  0  0
  -28.9210  -17.6340   20.4960 C   0  0  0  0  0  0  0  0  0  0  0  0
  -31.2840  -18.9620   19.7790 C   0  0  0  0  0  0  0  0  0  0  0  0
  -27.7700  -16.9970   20.8200 F   0  0  0  0  0  0  0  0  0  0  0  0
  -32.4450  -19.5570   19.4080 F   0  0  0  0  0  0  0  0  0  0  0  0
  -30.7100  -14.4800   20.1240 C   0  0  0  0  0  0  0  0  0  0  0  0
  -30.3140  -12.3730   18.9200 C   0  0  0  0  0  2  0  0  0  0  0  0
  -29.3120  -12.6670   17.7830 C   0  0  0  0  0  2  0  0  0  0  0  0
  -27.8590  -12.5400   18.2830 C   0  0  0  0  0  2  0  0  0  0  0  0
  -27.6120  -13.2960   19.6180 C   0  0  0  0  0  3  0  0  0  0  0  0
  -28.7290  -13.0020   20.6450 C   0  0  0  0  0  2  0  0  0  0  0  0
  -30.0230  -13.3120   20.0150 N   0  0  0  0  0  0  0  0  0  0  0  0
  -31.8150  -14.6480   19.6040 O   0  0  0  0  0  0  0  0  0  0  0  0
  -30.0430  -15.4890   20.7200 N   0  0  0  0  0  0  0  0  0  0  0  0
  -29.1810  -15.2140   21.1660 H   0  0  0  0  0  0  0  0  0  0  0  0
  -25.2540  -13.8820   20.4650 C   0  0  0  0  0  0  0  0  0  0  0  0
  -24.2060  -13.1010   20.8700 C   0  0  0  0  0  0  0  0  0  0  0  0
  -24.6630  -11.7500   20.7800 C   0  0  0  0  0  0  0  0  0  0  0  0
  -26.2850  -13.0080   20.1590 N   0  0  0  0  0  0  0  0  0  0  0  0
  -25.9360  -11.7180   20.4040 N   0  0  0  0  0  0  0  0  0  0  0  0
  -23.9440  -10.4850   20.9760 C   0  0  0  0  0  0  0  0  0  0  0  0
  -24.3940   -9.5150   21.8980 C   0  0  0  0  0  3  0  0  0  0  0  0
  -23.6750   -8.3130   22.0820 C   0  0  0  0  0  3  0  0  0  0  0  0
  -22.4910   -8.0750   21.3430 C   0  0  0  0  0  0  0  0  0  0  0  0
  -22.0610   -9.0340   20.4100 C   0  0  0  0  0  3  0  0  0  0  0  0
  -22.7800  -10.2260   20.2240 C   0  0  0  0  0  3  0  0  0  0  0  0
  -21.7400   -6.9280   21.4390 O   0  0  0  0  0  0  0  0  0  0  0  0
  -21.6770   -6.2040   22.6020 C   0  0  0  0  0  0  0  0  0  0  0  0
  -21.1880   -6.7640   23.8030 C   0  0  0  0  0  3  0  0  0  0  0  0
  -21.0740   -5.9640   24.9560 C   0  0  0  0  0  3  0  0  0  0  0  0
  -21.4370   -4.6050   24.9120 C   0  0  0  0  0  0  0  0  0  0  0  0
  -21.9180   -4.0440   23.7160 C   0  0  0  0  0  3  0  0  0  0  0  0
  -22.0340   -4.8410   22.5630 C   0  0  0  0  0  0  0  0  0  0  0  0
  -22.4780   -4.2890   21.4070 F   0  0  0  0  0  0  0  0  0  0  0  0
  -21.3200   -3.8360   26.0190 F   0  0  0  0  0  0  0  0  0  0  0  0
  -22.8270  -13.5730   21.2320 C   0  0  0  0  0  0  0  0  0  0  0  0
  -22.1450  -12.8530   22.1150 N   0  0  0  0  0  0  0  0  0  0  0  0
  -22.3660  -14.6150   20.7680 O   0  0  0  0  0  0  0  0  0  0  0  0
  -22.5270  -12.0070   22.5100 H   0  0  0  0  0  0  0  0  0  0  0  0
  -21.2210  -13.1510   22.3990 H   0  0  0  0  0  0  0  0  0  0  0  0
  -25.4090  -15.2570   20.3170 N   0  0  0  0  0  0  0  0  0  0  0  0
  -24.6490  -15.9040   20.4920 H   0  0  0  0  0  0  0  0  0  0  0  0
  -26.2690  -15.7240   20.0570 H   0  0  0  0  0  0  0  0  0  0  0  0
  -28.0780  -24.2250   20.5970 C   0  0  0  0  0  2  0  0  0  0  0  0
  -28.5240  -25.6360   21.0800 C   0  0  0  0  0  2  0  0  0  0  0  0
  -28.4300  -26.7060   20.1240 O   0  0  0  0  0  0  0  0  0  0  0  0
  -24.6040  -31.8850   23.2290 C   0  0  0  0  0  0  0  0  0  0  0  0
  -27.2660  -27.4400   20.1650 C   0  0  0  0  0  0  0  0  0  0  0  0
  -23.4070  -30.4800   21.5820 C   0  0  0  0  0  3  0  0  0  0  0  0
  -24.8720  -28.9420   20.1670 C   0  0  0  0  0  0  0  0  0  0  0  0
  -25.9350  -30.8380   21.4010 C   0  0  0  0  0  2  0  0  0  0  0  0
  -26.0260  -29.4660   20.7630 C   0  0  0  0  0  0  0  0  0  0  0  0
  -27.2270  -28.7220   20.7590 C   0  0  0  0  0  3  0  0  0  0  0  0
  -26.0980  -26.9270   19.5640 C   0  0  0  0  0  3  0  0  0  0  0  0
  -24.9010  -27.6690   19.5690 C   0  0  0  0  0  3  0  0  0  0  0  0
  -23.6270  -29.7990   20.2040 C   0  0  0  0  0  2  0  0  0  0  0  0
  -24.6660  -31.0830   22.1280 N   0  0  0  0  0  0  0  0  0  0  0  0
  -23.5190  -32.1570   23.7620 O   0  0  0  0  0  0  0  0  0  0  0  0
  -22.7520  -29.4590   22.5380 C   0  0  0  0  0  0  0  0  0  0  0  0
  -21.4260  -29.2830   22.4110 N   0  0  0  0  0  0  0  0  0  0  0  0
  -23.4340  -28.8250   23.3500 O   0  0  0  0  0  0  0  0  0  0  0  0
  -20.9380  -29.8450   21.7270 H   0  0  0  0  0  0  0  0  0  0  0  0
  -18.0420  -28.1300   22.9270 C   0  0  0  0  0  0  0  0  0  0  0  0
  -20.6050  -28.3480   23.1770 C   0  0  0  0  0  3  0  0  0  0  0  0
  -20.6830  -26.9220   22.5810 C   0  0  0  0  0  2  0  0  0  0  0  0
  -19.5660  -26.6290   21.5740 C   0  0  0  0  0  2  0  0  0  0  0  0
  -18.1930  -26.7860   22.2340 C   0  0  0  0  0  2  0  0  0  0  0  0
  -19.1750  -28.8700   23.3560 C   0  0  0  0  0  0  0  0  0  0  0  0
  -18.9800  -30.1290   23.9630 C   0  0  0  0  0  3  0  0  0  0  0  0
  -17.6860  -30.6480   24.1480 C   0  0  0  0  0  3  0  0  0  0  0  0
  -16.5660  -29.9040   23.7350 C   0  0  0  0  0  3  0  0  0  0  0  0
  -16.7450  -28.6470   23.1320 C   0  0  0  0  0  3  0  0  0  0  0  0
  -25.8850  -32.5180   23.8550 C   0  0  0  0  0  3  0  0  0  0  0  0
  -26.4010  -31.7440   25.1300 C   0  0  1  0  0  0  0  0  0  0  0  0
  -25.3030  -31.4970   26.1910 C   0  0  0  0  0  1  0  0  0  0  0  0
  -26.9910  -30.3710   24.7330 C   0  0  0  0  0  1  0  0  0  0  0  0
  -27.5450  -32.5410   25.8010 C   0  0  0  0  0  1  0  0  0  0  0  0
  -25.5740  -33.9160   24.1840 N   0  0  0  0  0  0  0  0  0  0  0  0
  -25.9080  -34.9680   23.4260 C   0  0  0  0  0  0  0  0  0  0  0  0
  -26.5830  -34.8640   22.3970 O   0  0  0  0  0  0  0  0  0  0  0  0
  -24.9790  -34.0720   24.9840 H   0  0  0  0  0  0  0  0  0  0  0  0
  -24.1860  -36.7600   23.0520 C   0  0  0  0  0  1  0  0  0  0  0  0
  -25.4180  -36.3550   23.8790 C   0  0  0  0  0  3  0  0  0  0  0  0
  -27.5370  -37.2390   24.7470 C   0  0  0  0  0  1  0  0  0  0  0  0
  -26.4530  -37.4070   23.7820 N   0  0  0  0  0  0  0  0  0  0  0  0
  -26.0460  -38.3280   23.9240 H   0  0  0  0  0  0  0  0  0  0  0  0
  1 11  1  0
  1  3  1  0
  2  3  1  0
  2 55  1  0
  3  6  1  0
  4  1  2  0
  5  2  2  0
  7  4  1  0
  8  4  1  0
  9 13  1  0
 10 12  1  0
 11  9  2  0
 12 13  2  0
 12 25  1  0
 13 15  1  0
 14 11  1  0
 14 10  2  0
 16 14  1  0
 17 25  1  0
 18 23  1  0
 19 20  1  0
 19 18  1  0
 21 20  1  0
 21 30  1  0
 21 22  1  0
 23 17  1  0
 23 22  1  0
 24 17  2  0
 25 26  1  0
 27 28  2  0
 28 47  1  0
 29 28  1  0
 29 32  1  0
 30 31  1  0
 30 27  1  0
 31 29  2  0
 32 33  1  0
 33 34  2  0
 35 38  1  0
 35 34  1  0
 36 35  2  0
 37 36  1  0
 37 32  2  0
 38 39  1  0
 39 40  1  0
 40 41  2  0
 42 41  1  0
 42 46  1  0
 43 42  2  0
 44 39  2  0
 44 43  1  0
 45 44  1  0
 47 48  1  0
 48 51  1  0
 48 50  1  0
 49 47  2  0
 52 27  1  0
 52 53  1  0
 54 52  1  0
 55 56  1  0
 57 59  1  0
 57 56  1  0
 58 69  2  0
 59 64  1  0
 60 68  1  0
 60 70  1  0
 61 67  1  0
 61 63  1  0
 62 68  1  0
 63 62  1  0
 64 63  2  0
 65 66  1  0
 65 59  2  0
 66 61  2  0
 67 60  1  0
 68 58  1  0
 70 72  2  0
 71 70  1  0
 73 71  1  0
 74 83  2  0
 74 79  1  0
 75 71  1  0
 75 79  1  0
 76 75  1  0
 77 78  1  0
 77 76  1  0
 78 74  1  0
 79 80  2  0
 80 81  1  0
 82 81  2  0
 83 82  1  0
 84 58  1  0
 84 89  1  0
 84 85  1  0
 85 88  1  1
 85 86  1  0
 87 85  1  0
 89 92  1  0
 90 94  1  0
 90 89  1  0
 91 90  2  0
 94 93  1  0
 96 94  1  0
 96 97  1  0
 96 95  1  0
M  ISO  4  17 100  25 100  56 101  57 101
M  END
>  <TORSDO>  (78) 
F 19

>  <SCORE>  (78) 
-14.408

>  <name>  (78) 
77

>  <ligand_id>  (78) 
77

>  <original_smiles>  (78) 
[H]c1c([H])c([H])c2c(c1[H])C([H])([H])C([H])([H])C([H])([H])C2([H])N([H])C(=O)C1([H])N(C(=O)C([H])(N([H])C(=O)C([H])(N([H])C([H])([H])[H])C([H])([H])[H])C(C([H])([H])[H])(C([H])([H])[H])C([H])([H])[H])C([H])([H])c2c([H])c(OC([H])([H])C([H])([H])C(=O)N([H])C(c3c([H])c(F)c(N([H])C(=O)N4C([H])([H])C([H])([H])C([H])([H])C([H])(n5nc(-c6c([H])c([H])c(Oc7c([H])c([H])c(F)c([H])c7F)c([H])c6[H])c(C(=O)N([H])[H])c5N([H])[H])C4([H])[H])c([H])c3F)=[N+]([H])[H])c([H])c([H])c2C1([H])[H]

>  <smiles>  (78) 
[H]c1c([H])c([H])c2c(c1[H])C([H])([H])C([H])([H])C([H])([H])C2([H])N([H])C(=O)C1([H])N(C(=O)C([H])(N([H])C(=O)C([H])(N([H])C([H])([H])[H])C([H])([H])[H])C(C([H])([H])[H])(C([H])([H])[H])C([H])([H])[H])C([H])([H])c2c([H])c(OC([H])([H])C([H])([H])C(=O)N([H])C(c3c([H])c(F)c(N([H])C(=O)N4C([H])([H])C([H])([H])C([H])([H])C([H])(n5nc(-c6c([H])c([H])c(Oc7c([H])c([H])c(F)c([H])c7F)c([H])c6[H])c(C(=O)N([H])[H])c5N([H])[H])C4([H])[H])c([H])c3F)=[N+]([H])[H])c([H])c([H])c2C1([H])[H]

$$$$
78:0:0
     RDKit          3D

 95103  0  0  1  0  0  0  0  0999 V2000
  -30.8950  -22.2240   22.4020 N   0  0  0  0  0  2  0  0  0  0  0  0
  -31.9570  -22.2100   19.9770 O   0  0  0  0  0  1  0  0  0  0  0  0
  -30.8460  -21.8680   20.8810 S   0  0  1  0  0  0  0  0  0  0  0  0
  -31.6430  -21.7260   22.8990 H   0  0  0  0  0  0  0  0  0  0  0  0
  -29.0570  -18.0550   20.6100 C   0  0  0  0  0  3  0  0  0  0  0  0
  -29.2490  -19.4700   20.5940 C   0  0  0  0  0  3  0  0  0  0  0  0
  -31.4290  -17.7120   20.8580 C   0  0  0  0  0  3  0  0  0  0  0  0
  -31.6340  -19.1210   20.8610 C   0  0  0  0  0  0  0  0  0  0  0  0
  -30.1400  -17.1410   20.7420 C   0  0  0  0  0  0  0  0  0  0  0  0
  -30.5410  -20.0320   20.7300 C   0  0  0  0  0  0  0  0  0  0  0  0
  -33.0640  -19.6100   21.0460 C   0  0  0  0  0  1  0  0  0  0  0  0
  -30.6530  -14.6340   20.4560 C   0  0  0  0  0  0  0  0  0  0  0  0
  -30.3960  -12.4190   19.3720 C   0  0  0  0  0  2  0  0  0  0  0  0
  -29.4640  -12.5800   18.1510 C   0  0  0  0  0  2  0  0  0  0  0  0
  -27.9860  -12.4400   18.5680 C   0  0  0  0  0  2  0  0  0  0  0  0
  -27.6310  -13.2960   19.8130 C   0  0  0  0  0  3  0  0  0  0  0  0
  -28.6810  -13.1200   20.9350 C   0  0  0  0  0  2  0  0  0  0  0  0
  -30.0010  -13.4350   20.3650 N   0  0  0  0  0  0  0  0  0  0  0  0
  -31.8190  -14.7580   20.0710 O   0  0  0  0  0  0  0  0  0  0  0  0
  -29.8820  -15.7070   20.8010 N   0  0  0  0  0  0  0  0  0  0  0  0
  -28.9330  -15.4520   21.0300 H   0  0  0  0  0  0  0  0  0  0  0  0
  -25.2330  -13.9140   20.5000 C   0  0  0  0  0  0  0  0  0  0  0  0
  -24.1580  -13.1490   20.8640 C   0  0  0  0  0  0  0  0  0  0  0  0
  -24.6130  -11.7950   20.8460 C   0  0  0  0  0  0  0  0  0  0  0  0
  -26.2760  -13.0260   20.2850 N   0  0  0  0  0  0  0  0  0  0  0  0
  -25.9070  -11.7470   20.5520 N   0  0  0  0  0  0  0  0  0  0  0  0
  -23.8780  -10.5370   21.0340 C   0  0  0  0  0  0  0  0  0  0  0  0
  -24.2940   -9.5730   21.9780 C   0  0  0  0  0  3  0  0  0  0  0  0
  -23.5590   -8.3790   22.1540 C   0  0  0  0  0  3  0  0  0  0  0  0
  -22.3950   -8.1440   21.3850 C   0  0  0  0  0  0  0  0  0  0  0  0
  -21.9970   -9.0970   20.4320 C   0  0  0  0  0  3  0  0  0  0  0  0
  -22.7320  -10.2810   20.2540 C   0  0  0  0  0  3  0  0  0  0  0  0
  -21.6330   -7.0030   21.4710 O   0  0  0  0  0  0  0  0  0  0  0  0
  -21.5630   -6.2700   22.6280 C   0  0  0  0  0  0  0  0  0  0  0  0
  -21.1040   -6.8300   23.8390 C   0  0  0  0  0  3  0  0  0  0  0  0
  -20.9830   -6.0220   24.9870 C   0  0  0  0  0  3  0  0  0  0  0  0
  -21.3080   -4.6550   24.9240 C   0  0  0  0  0  0  0  0  0  0  0  0
  -21.7600   -4.0930   23.7180 C   0  0  0  0  0  3  0  0  0  0  0  0
  -21.8830   -4.8980   22.5710 C   0  0  0  0  0  0  0  0  0  0  0  0
  -22.2980   -4.3470   21.4050 F   0  0  0  0  0  0  0  0  0  0  0  0
  -21.1840   -3.8760   26.0250 F   0  0  0  0  0  0  0  0  0  0  0  0
  -22.7600  -13.6350   21.1190 C   0  0  0  0  0  0  0  0  0  0  0  0
  -22.0200  -12.9470   21.9800 N   0  0  0  0  0  0  0  0  0  0  0  0
  -22.3340  -14.6600   20.5900 O   0  0  0  0  0  0  0  0  0  0  0  0
  -22.3770  -12.1170   22.4300 H   0  0  0  0  0  0  0  0  0  0  0  0
  -21.0820  -13.2550   22.1940 H   0  0  0  0  0  0  0  0  0  0  0  0
  -25.4060  -15.2820   20.3130 N   0  0  0  0  0  0  0  0  0  0  0  0
  -24.6350  -15.9370   20.3960 H   0  0  0  0  0  0  0  0  0  0  0  0
  -26.2450  -15.7080   19.9420 H   0  0  0  0  0  0  0  0  0  0  0  0
  -29.5570  -24.3160   20.2510 C   0  0  0  0  0  0  0  0  0  0  0  0
  -29.4840  -22.8920   20.3990 N   0  0  0  0  0  0  0  0  0  0  0  0
  -30.6410  -24.9070   20.2940 O   0  0  0  0  0  0  0  0  0  0  0  0
  -28.5810  -22.4790   20.6350 H   0  0  0  0  0  0  0  0  0  0  0  0
  -28.2450  -25.1410   20.0500 C   0  0  0  0  0  2  0  0  0  0  0  0
  -28.4070  -26.5950   20.2300 O   0  0  0  0  0  0  0  0  0  0  0  0
  -24.5880  -31.8990   23.2320 C   0  0  0  0  0  0  0  0  0  0  0  0
  -27.2580  -27.3900   20.1870 C   0  0  0  0  0  0  0  0  0  0  0  0
  -23.4040  -30.4990   21.5770 C   0  0  0  0  0  3  0  0  0  0  0  0
  -24.8730  -28.9600   20.1650 C   0  0  0  0  0  0  0  0  0  0  0  0
  -25.9400  -30.8380   21.4130 C   0  0  0  0  0  2  0  0  0  0  0  0
  -26.0330  -29.4640   20.7680 C   0  0  0  0  0  0  0  0  0  0  0  0
  -27.2280  -28.6920   20.7660 C   0  0  0  0  0  3  0  0  0  0  0  0
  -26.0700  -26.9250   19.5740 C   0  0  0  0  0  3  0  0  0  0  0  0
  -24.8930  -27.6940   19.5620 C   0  0  0  0  0  3  0  0  0  0  0  0
  -23.6310  -29.8240   20.1990 C   0  0  0  0  0  2  0  0  0  0  0  0
  -24.6620  -31.0950   22.1320 N   0  0  0  0  0  0  0  0  0  0  0  0
  -23.4990  -32.1710   23.7570 O   0  0  0  0  0  0  0  0  0  0  0  0
  -22.7380  -29.4770   22.5290 C   0  0  0  0  0  0  0  0  0  0  0  0
  -21.4130  -29.2980   22.3890 N   0  0  0  0  0  0  0  0  0  0  0  0
  -23.4110  -28.8490   23.3510 O   0  0  0  0  0  0  0  0  0  0  0  0
  -20.9310  -29.8560   21.6980 H   0  0  0  0  0  0  0  0  0  0  0  0
  -18.0280  -28.1210   22.8680 C   0  0  0  0  0  0  0  0  0  0  0  0
  -20.5870  -28.3590   23.1490 C   0  0  0  0  0  3  0  0  0  0  0  0
  -20.6820  -26.9320   22.5610 C   0  0  0  0  0  2  0  0  0  0  0  0
  -19.5810  -26.6260   21.5410 C   0  0  0  0  0  2  0  0  0  0  0  0
  -18.1970  -26.7750   22.1820 C   0  0  0  0  0  2  0  0  0  0  0  0
  -19.1520  -28.8710   23.3080 C   0  0  0  0  0  0  0  0  0  0  0  0
  -18.9390  -30.1300   23.9080 C   0  0  0  0  0  3  0  0  0  0  0  0
  -17.6370  -30.6400   24.0740 C   0  0  0  0  0  3  0  0  0  0  0  0
  -16.5290  -29.8850   23.6510 C   0  0  0  0  0  3  0  0  0  0  0  0
  -16.7250  -28.6280   23.0540 C   0  0  0  0  0  3  0  0  0  0  0  0
  -25.8640  -32.5330   23.8670 C   0  0  0  0  0  3  0  0  0  0  0  0
  -26.3680  -31.7600   25.1480 C   0  0  1  0  0  0  0  0  0  0  0  0
  -25.2630  -31.5140   26.2010 C   0  0  0  0  0  1  0  0  0  0  0  0
  -26.9630  -30.3870   24.7570 C   0  0  0  0  0  1  0  0  0  0  0  0
  -27.5070  -32.5580   25.8270 C   0  0  0  0  0  1  0  0  0  0  0  0
  -25.5480  -33.9290   24.1970 N   0  0  0  0  0  0  0  0  0  0  0  0
  -25.8750  -34.9830   23.4370 C   0  0  0  0  0  0  0  0  0  0  0  0
  -26.5460  -34.8820   22.4060 O   0  0  0  0  0  0  0  0  0  0  0  0
  -24.9530  -34.0820   24.9980 H   0  0  0  0  0  0  0  0  0  0  0  0
  -24.1370  -36.7660   23.0830 C   0  0  0  0  0  1  0  0  0  0  0  0
  -25.3810  -36.3690   23.8940 C   0  0  0  0  0  3  0  0  0  0  0  0
  -27.5100  -37.2690   24.7240 C   0  0  0  0  0  1  0  0  0  0  0  0
  -26.4100  -37.4270   23.7780 N   0  0  0  0  0  0  0  0  0  0  0  0
  -25.9980  -38.3460   23.9210 H   0  0  0  0  0  0  0  0  0  0  0  0
  1  4  1  0
  3  2  1  6
  3  1  1  0
  5  9  1  0
  6  5  2  0
  6 10  1  0
  7  8  1  0
  8 11  1  0
  9 20  1  0
  9  7  2  0
 10  8  2  0
 10  3  1  0
 12 20  1  0
 13 18  1  0
 14 15  1  0
 14 13  1  0
 16 15  1  0
 16 25  1  0
 16 17  1  0
 18 12  1  0
 18 17  1  0
 19 12  2  0
 20 21  1  0
 22 23  2  0
 23 42  1  0
 24 23  1  0
 24 27  1  0
 25 22  1  0
 25 26  1  0
 26 24  2  0
 27 28  1  0
 28 29  2  0
 30 33  1  0
 30 29  1  0
 31 30  2  0
 32 31  1  0
 32 27  2  0
 33 34  1  0
 34 35  1  0
 35 36  2  0
 37 36  1  0
 37 41  1  0
 38 37  2  0
 39 34  2  0
 39 38  1  0
 40 39  1  0
 42 43  1  0
 43 46  1  0
 43 45  1  0
 44 42  2  0
 47 48  1  0
 47 22  1  0
 49 47  1  0
 50 52  2  0
 50 51  1  0
 51 53  1  0
 51  3  1  0
 54 55  1  0
 54 50  1  0
 56 67  2  0
 57 55  1  0
 57 62  1  0
 58 66  1  0
 58 68  1  0
 59 65  1  0
 59 61  1  0
 60 66  1  0
 61 60  1  0
 62 61  2  0
 63 57  2  0
 64 63  1  0
 64 59  2  0
 65 58  1  0
 66 56  1  0
 68 70  2  0
 69 68  1  0
 71 69  1  0
 72 81  2  0
 72 77  1  0
 73 69  1  0
 73 77  1  0
 74 73  1  0
 75 76  1  0
 75 74  1  0
 76 72  1  0
 77 78  2  0
 78 79  1  0
 80 79  2  0
 81 80  1  0
 82 56  1  0
 82 87  1  0
 82 83  1  0
 83 86  1  1
 83 84  1  0
 85 83  1  0
 87 90  1  0
 88 92  1  0
 88 87  1  0
 89 88  2  0
 92 91  1  0
 94 92  1  0
 94 95  1  0
 94 93  1  0
M  ISO  4  12 100  20 100  54 101  55 101
M  END
>  <TORSDO>  (79) 
F 19

>  <SCORE>  (79) 
-14.750

>  <name>  (79) 
78

>  <ligand_id>  (79) 
78

>  <original_smiles>  (79) 
[H]N=S(=O)(c1c([H])c([H])c(N([H])C(=O)N2C([H])([H])C([H])([H])C([H])([H])C([H])(n3nc(-c4c([H])c([H])c(Oc5c([H])c([H])c(F)c([H])c5F)c([H])c4[H])c(C(=O)N([H])[H])c3N([H])[H])C2([H])[H])c([H])c1C([H])([H])[H])N([H])C(=O)C([H])([H])Oc1c([H])c([H])c2c(c1[H])C([H])([H])N(C(=O)C([H])(N([H])C(=O)C([H])(N([H])C([H])([H])[H])C([H])([H])[H])C(C([H])([H])[H])(C([H])([H])[H])C([H])([H])[H])C([H])(C(=O)N([H])C1([H])c3c([H])c([H])c([H])c([H])c3C([H])([H])C([H])([H])C1([H])[H])C2([H])[H]

>  <smiles>  (79) 
[H]N=S(=O)(c1c([H])c([H])c(N([H])C(=O)N2C([H])([H])C([H])([H])C([H])([H])C([H])(n3nc(-c4c([H])c([H])c(Oc5c([H])c([H])c(F)c([H])c5F)c([H])c4[H])c(C(=O)N([H])[H])c3N([H])[H])C2([H])[H])c([H])c1C([H])([H])[H])N([H])C(=O)C([H])([H])Oc1c([H])c([H])c2c(c1[H])C([H])([H])N(C(=O)C([H])(N([H])C(=O)C([H])(N([H])C([H])([H])[H])C([H])([H])[H])C(C([H])([H])[H])(C([H])([H])[H])C([H])([H])[H])C([H])(C(=O)N([H])C1([H])c3c([H])c([H])c([H])c([H])c3C([H])([H])C([H])([H])C1([H])[H])C2([H])[H]

$$$$
79:0:0
     RDKit          3D

 92100  0  0  1  0  0  0  0  0999 V2000
  -29.9150  -21.0250   20.5560 C   0  0  0  0  0  0  0  0  0  0  0  0
  -29.6880  -19.6400   20.3550 N   0  0  0  0  0  0  0  0  0  0  0  0
  -31.0150  -21.3710   20.9970 O   0  0  0  0  0  0  0  0  0  0  0  0
  -28.9260  -19.4010   19.7340 H   0  0  0  0  0  0  0  0  0  0  0  0
  -30.6250  -18.1570   23.6700 C   0  0  0  0  0  3  0  0  0  0  0  0
  -30.9410  -16.8200   23.4610 C   0  0  0  0  0  3  0  0  0  0  0  0
  -30.2520  -18.9560   22.5830 C   0  0  0  0  0  3  0  0  0  0  0  0
  -30.8710  -16.2950   22.1690 C   0  0  0  0  0  3  0  0  0  0  0  0
  -30.1820  -18.5100   21.2290 C   0  0  0  0  0  0  0  0  0  0  0  0
  -30.5050  -17.0480   21.0160 C   0  0  0  0  0  0  0  0  0  0  0  0
  -31.1210  -14.9120   19.6220 C   0  0  0  0  0  0  0  0  0  0  0  0
  -30.6710  -12.6790   18.5510 C   0  0  0  0  0  2  0  0  0  0  0  0
  -29.6180  -12.8170   17.4310 C   0  0  0  0  0  2  0  0  0  0  0  0
  -28.1960  -12.6910   18.0090 C   0  0  0  0  0  2  0  0  0  0  0  0
  -27.9940  -13.5500   19.2860 C   0  0  0  0  0  3  0  0  0  0  0  0
  -29.1590  -13.4010   20.2840 C   0  0  0  0  0  2  0  0  0  0  0  0
  -30.3910  -13.7350   19.5600 N   0  0  0  0  0  0  0  0  0  0  0  0
  -32.2770  -14.8950   19.1940 O   0  0  0  0  0  0  0  0  0  0  0  0
  -30.4940  -16.1610   19.8170 N   0  0  0  0  0  0  0  0  0  0  0  0
  -30.4990  -16.6990   18.9620 H   0  0  0  0  0  0  0  0  0  0  0  0
  -25.7390  -14.2200   20.2970 C   0  0  0  0  0  0  0  0  0  0  0  0
  -24.6740  -13.4850   20.7420 C   0  0  0  0  0  0  0  0  0  0  0  0
  -25.0560  -12.1140   20.6060 C   0  0  0  0  0  0  0  0  0  0  0  0
  -26.6990  -13.3010   19.9110 N   0  0  0  0  0  0  0  0  0  0  0  0
  -26.3040  -12.0250   20.1610 N   0  0  0  0  0  0  0  0  0  0  0  0
  -24.2810  -10.8840   20.8180 C   0  0  0  0  0  0  0  0  0  0  0  0
  -24.7140   -9.8830   21.7150 C   0  0  0  0  0  3  0  0  0  0  0  0
  -23.9410   -8.7190   21.9160 C   0  0  0  0  0  3  0  0  0  0  0  0
  -22.7210   -8.5470   21.2200 C   0  0  0  0  0  0  0  0  0  0  0  0
  -22.3050   -9.5380   20.3120 C   0  0  0  0  0  3  0  0  0  0  0  0
  -23.0780  -10.6930   20.1090 C   0  0  0  0  0  3  0  0  0  0  0  0
  -21.9180   -7.4390   21.3330 O   0  0  0  0  0  0  0  0  0  0  0  0
  -21.8340   -6.7250   22.5010 C   0  0  0  0  0  0  0  0  0  0  0  0
  -21.4520   -7.3300   23.7190 C   0  0  0  0  0  3  0  0  0  0  0  0
  -21.3130   -6.5470   24.8810 C   0  0  0  0  0  3  0  0  0  0  0  0
  -21.5450   -5.1600   24.8290 C   0  0  0  0  0  0  0  0  0  0  0  0
  -21.9200   -4.5530   23.6170 C   0  0  0  0  0  3  0  0  0  0  0  0
  -22.0620   -5.3350   22.4550 C   0  0  0  0  0  0  0  0  0  0  0  0
  -22.4030   -4.7430   21.2850 F   0  0  0  0  0  0  0  0  0  0  0  0
  -21.4040   -4.4040   25.9440 F   0  0  0  0  0  0  0  0  0  0  0  0
  -23.3420  -14.0200   21.1760 C   0  0  0  0  0  0  0  0  0  0  0  0
  -22.6860  -13.3450   22.1120 N   0  0  0  0  0  0  0  0  0  0  0  0
  -22.8970  -15.0720   20.7190 O   0  0  0  0  0  0  0  0  0  0  0  0
  -23.0610  -12.4920   22.5010 H   0  0  0  0  0  0  0  0  0  0  0  0
  -21.7950  -13.6840   22.4440 H   0  0  0  0  0  0  0  0  0  0  0  0
  -25.9650  -15.5860   20.1650 N   0  0  0  0  0  0  0  0  0  0  0  0
  -25.2640  -16.2810   20.4000 H   0  0  0  0  0  0  0  0  0  0  0  0
  -26.8220  -15.9930   19.8090 H   0  0  0  0  0  0  0  0  0  0  0  0
  -28.8680  -22.0920   20.2410 C   0  0  0  0  0  3  0  0  0  0  0  0
  -29.0290  -23.4890   20.3690 C   0  0  0  0  0  3  0  0  0  0  0  0
  -27.9590  -24.6810   20.1350 C   0  0  0  0  0  2  0  0  0  0  0  0
  -28.2800  -26.1820   20.2060 O   0  0  0  0  0  0  0  0  0  0  0  0
  -24.6580  -31.8770   23.0720 C   0  0  0  0  0  0  0  0  0  0  0  0
  -27.2150  -27.1370   20.1150 C   0  0  0  0  0  0  0  0  0  0  0  0
  -23.4350  -30.4230   21.5000 C   0  0  0  0  0  3  0  0  0  0  0  0
  -24.8670  -28.8320   20.0870 C   0  0  0  0  0  0  0  0  0  0  0  0
  -25.9800  -30.7160   21.2710 C   0  0  0  0  0  2  0  0  0  0  0  0
  -26.0520  -29.3120   20.6580 C   0  0  0  0  0  0  0  0  0  0  0  0
  -27.2280  -28.4780   20.6590 C   0  0  0  0  0  3  0  0  0  0  0  0
  -26.0040  -26.7550   19.4930 C   0  0  0  0  0  3  0  0  0  0  0  0
  -24.8510  -27.5640   19.4910 C   0  0  0  0  0  3  0  0  0  0  0  0
  -23.6310  -29.7130   20.1350 C   0  0  0  0  0  2  0  0  0  0  0  0
  -24.7110  -31.0270   22.0020 N   0  0  0  0  0  0  0  0  0  0  0  0
  -23.5800  -32.1670   23.6150 O   0  0  0  0  0  0  0  0  0  0  0  0
  -22.7900  -29.4340   22.5020 C   0  0  0  0  0  0  0  0  0  0  0  0
  -21.4680  -29.2150   22.3810 N   0  0  0  0  0  0  0  0  0  0  0  0
  -23.4800  -28.8650   23.3520 O   0  0  0  0  0  0  0  0  0  0  0  0
  -20.9690  -29.7250   21.6670 H   0  0  0  0  0  0  0  0  0  0  0  0
  -18.1400  -27.8780   22.8770 C   0  0  0  0  0  0  0  0  0  0  0  0
  -20.6730  -28.2890   23.1920 C   0  0  0  0  0  3  0  0  0  0  0  0
  -20.8620  -26.8290   22.7190 C   0  0  0  0  0  2  0  0  0  0  0  0
  -19.8090  -26.3830   21.7010 C   0  0  0  0  0  2  0  0  0  0  0  0
  -18.4030  -26.4980   22.2970 C   0  0  0  0  0  2  0  0  0  0  0  0
  -19.2060  -28.7250   23.2820 C   0  0  0  0  0  0  0  0  0  0  0  0
  -18.9060  -30.0100   23.7850 C   0  0  0  0  0  3  0  0  0  0  0  0
  -17.5720  -30.4510   23.8830 C   0  0  0  0  0  3  0  0  0  0  0  0
  -16.5210  -29.6030   23.4930 C   0  0  0  0  0  3  0  0  0  0  0  0
  -16.8050  -28.3180   22.9960 C   0  0  0  0  0  3  0  0  0  0  0  0
  -25.9440  -32.5390   23.6500 C   0  0  0  0  0  3  0  0  0  0  0  0
  -26.5410  -31.7590   24.8860 C   0  0  1  0  0  0  0  0  0  0  0  0
  -25.5030  -31.4610   25.9950 C   0  0  0  0  0  1  0  0  0  0  0  0
  -27.1520  -30.4100   24.4420 C   0  0  0  0  0  1  0  0  0  0  0  0
  -27.6920  -32.5770   25.5160 C   0  0  0  0  0  1  0  0  0  0  0  0
  -25.6030  -33.9180   24.0300 N   0  0  0  0  0  0  0  0  0  0  0  0
  -25.9120  -35.0070   23.3130 C   0  0  0  0  0  0  0  0  0  0  0  0
  -26.5820  -34.9550   22.2780 O   0  0  0  0  0  0  0  0  0  0  0  0
  -25.0070  -34.0300   24.8380 H   0  0  0  0  0  0  0  0  0  0  0  0
  -24.1580  -36.7870   23.0150 C   0  0  0  0  0  1  0  0  0  0  0  0
  -25.3970  -36.3670   23.8220 C   0  0  0  0  0  3  0  0  0  0  0  0
  -27.5130  -37.2450   24.7080 C   0  0  0  0  0  1  0  0  0  0  0  0
  -26.4140  -37.4400   23.7660 N   0  0  0  0  0  0  0  0  0  0  0  0
  -25.9930  -38.3460   23.9530 H   0  0  0  0  0  0  0  0  0  0  0  0
  1  3  2  0
  2  1  1  0
  2  9  1  0
  4  2  1  0
  6  5  1  0
  7  5  2  0
  8  6  2  0
  9  7  1  0
 10  9  2  0
 10  8  1  0
 11 19  1  0
 12 17  1  0
 13 14  1  0
 13 12  1  0
 15 14  1  0
 15 24  1  0
 15 16  1  0
 17 11  1  0
 17 16  1  0
 18 11  2  0
 19 10  1  0
 20 19  1  0
 21 22  2  0
 22 41  1  0
 23 22  1  0
 23 26  1  0
 24 25  1  0
 24 21  1  0
 25 23  2  0
 26 27  1  0
 27 28  2  0
 29 32  1  0
 29 28  1  0
 30 29  2  0
 31 30  1  0
 31 26  2  0
 32 33  1  0
 33 34  1  0
 34 35  2  0
 36 35  1  0
 36 40  1  0
 37 36  2  0
 38 33  2  0
 38 37  1  0
 39 38  1  0
 41 42  1  0
 42 45  1  0
 42 44  1  0
 43 41  2  0
 46 21  1  0
 46 47  1  0
 48 46  1  0
 49 50  2  0
 49  1  1  0
 51 52  1  0
 51 50  1  0
 53 64  2  0
 54 52  1  0
 54 59  1  0
 55 63  1  0
 55 65  1  0
 56 62  1  0
 56 58  1  0
 57 63  1  0
 58 59  2  0
 58 57  1  0
 60 54  2  0
 61 60  1  0
 61 56  2  0
 62 55  1  0
 63 53  1  0
 65 67  2  0
 66 65  1  0
 68 66  1  0
 69 78  2  0
 69 74  1  0
 70 66  1  0
 70 74  1  0
 71 70  1  0
 72 73  1  0
 72 71  1  0
 73 69  1  0
 74 75  2  0
 75 76  1  0
 77 76  2  0
 78 77  1  0
 79 53  1  0
 79 84  1  0
 79 80  1  0
 80 83  1  1
 80 81  1  0
 82 80  1  0
 84 87  1  0
 85 89  1  0
 85 84  1  0
 86 85  2  0
 89 88  1  0
 91 89  1  0
 91 92  1  0
 91 90  1  0
M  ISO  4  11 100  19 100  51 101  52 101
M  END
>  <TORSDO>  (80) 
F 19

>  <SCORE>  (80) 
-10.899

>  <name>  (80) 
79

>  <ligand_id>  (80) 
79

>  <original_smiles>  (80) 
[H]C(C(=O)N([H])c1c([H])c([H])c([H])c([H])c1N([H])C(=O)N1C([H])([H])C([H])([H])C([H])([H])C([H])(n2nc(-c3c([H])c([H])c(Oc4c([H])c([H])c(F)c([H])c4F)c([H])c3[H])c(C(=O)N([H])[H])c2N([H])[H])C1([H])[H])=C([H])C([H])([H])Oc1c([H])c([H])c2c(c1[H])C([H])([H])N(C(=O)C([H])(N([H])C(=O)C([H])(N([H])C([H])([H])[H])C([H])([H])[H])C(C([H])([H])[H])(C([H])([H])[H])C([H])([H])[H])C([H])(C(=O)N([H])C1([H])c3c([H])c([H])c([H])c([H])c3C([H])([H])C([H])([H])C1([H])[H])C2([H])[H]

>  <smiles>  (80) 
[H]C(C(=O)N([H])c1c([H])c([H])c([H])c([H])c1N([H])C(=O)N1C([H])([H])C([H])([H])C([H])([H])C([H])(n2nc(-c3c([H])c([H])c(Oc4c([H])c([H])c(F)c([H])c4F)c([H])c3[H])c(C(=O)N([H])[H])c2N([H])[H])C1([H])[H])=C([H])C([H])([H])Oc1c([H])c([H])c2c(c1[H])C([H])([H])N(C(=O)C([H])(N([H])C(=O)C([H])(N([H])C([H])([H])[H])C([H])([H])[H])C(C([H])([H])[H])(C([H])([H])[H])C([H])([H])[H])C([H])(C(=O)N([H])C1([H])c3c([H])c([H])c([H])c([H])c3C([H])([H])C([H])([H])C1([H])[H])C2([H])[H]

$$$$
80:0:0
     RDKit          3D

100109  0  0  1  0  0  0  0  0999 V2000
  -29.4310  -23.2260   18.6220 C   0  0  0  0  0  0  0  0  0  0  0  0
  -29.9870  -22.2140   19.3470 C   0  0  0  0  0  0  0  0  0  0  0  0
  -27.7660  -23.6350   20.5250 C   0  0  0  0  0  2  0  0  0  0  0  0
  -28.8500  -22.9610   21.3920 C   0  0  0  0  0  2  0  0  0  0  0  0
  -28.2360  -24.1000   19.1120 C   0  0  2  0  0  0  0  0  0  0  0  0
  -31.1960  -21.3610   18.9830 C   0  0  0  0  0  1  0  0  0  0  0  0
  -27.0690  -23.7970   18.1410 C   0  0  0  0  0  1  0  0  0  0  0  0
  -29.4900  -21.8110   20.6980 N   0  0  1  0  0  4  0  0  0  0  0  0
  -30.2980  -21.6180   21.2710 H   0  0  0  0  0  0  0  0  0  0  0  0
  -29.5760  -22.4890   16.1760 C   0  0  0  0  0  1  0  0  0  0  0  0
  -29.9560  -23.5550   17.2200 C   0  0  0  0  0  2  0  0  0  0  0  0
  -28.7520  -20.5050   20.7910 C   0  0  0  0  0  2  0  0  0  0  0  0
  -31.3370  -18.1310   22.5030 C   0  0  0  0  0  3  0  0  0  0  0  0
  -29.2020  -17.9520   20.7270 C   0  0  0  0  0  3  0  0  0  0  0  0
  -30.6710  -19.3130   22.1230 C   0  0  0  0  0  0  0  0  0  0  0  0
  -30.9480  -16.8630   22.0370 C   0  0  0  0  0  0  0  0  0  0  0  0
  -29.5820  -19.2460   21.2040 C   0  0  0  0  0  0  0  0  0  0  0  0
  -29.8770  -16.7510   21.1120 C   0  0  0  0  0  0  0  0  0  0  0  0
  -31.1590  -20.6020   22.7650 C   0  0  0  0  0  1  0  0  0  0  0  0
  -31.6860  -15.6590   22.6090 C   0  0  0  0  0  1  0  0  0  0  0  0
  -30.0330  -14.5270   19.9100 C   0  0  0  0  0  0  0  0  0  0  0  0
  -29.6390  -12.4720   18.5830 C   0  0  0  0  0  2  0  0  0  0  0  0
  -28.5410  -12.7210   17.5280 C   0  0  0  0  0  2  0  0  0  0  0  0
  -27.1390  -12.4860   18.1280 C   0  0  0  0  0  2  0  0  0  0  0  0
  -26.9500  -13.2070   19.4890 C   0  0  0  0  0  3  0  0  0  0  0  0
  -28.1420  -12.9340   20.4320 C   0  0  0  0  0  2  0  0  0  0  0  0
  -29.3650  -13.3510   19.7320 N   0  0  0  0  0  0  0  0  0  0  0  0
  -31.0850  -14.7780   19.3170 O   0  0  0  0  0  0  0  0  0  0  0  0
  -29.3960  -15.4670   20.6590 N   0  0  0  0  0  0  0  0  0  0  0  0
  -28.4530  -15.2280   20.9300 H   0  0  0  0  0  0  0  0  0  0  0  0
  -24.6110  -13.6740   20.4530 C   0  0  0  0  0  0  0  0  0  0  0  0
  -23.6330  -12.8400   20.9260 C   0  0  0  0  0  0  0  0  0  0  0  0
  -24.1650  -11.5190   20.8340 C   0  0  0  0  0  0  0  0  0  0  0  0
  -25.6750  -12.8550   20.1100 N   0  0  0  0  0  0  0  0  0  0  0  0
  -25.4180  -11.5530   20.4010 N   0  0  0  0  0  0  0  0  0  0  0  0
  -23.5380  -10.2150   21.0890 C   0  0  0  0  0  0  0  0  0  0  0  0
  -24.0830   -9.3060   22.0200 C   0  0  0  0  0  3  0  0  0  0  0  0
  -23.4540   -8.0650   22.2620 C   0  0  0  0  0  3  0  0  0  0  0  0
  -22.2670   -7.7260   21.5720 C   0  0  0  0  0  0  0  0  0  0  0  0
  -21.7430   -8.6250   20.6250 C   0  0  0  0  0  3  0  0  0  0  0  0
  -22.3720   -9.8560   20.3830 C   0  0  0  0  0  3  0  0  0  0  0  0
  -21.6010   -6.5330   21.7210 O   0  0  0  0  0  0  0  0  0  0  0  0
  -21.6240   -5.8400   22.9050 C   0  0  0  0  0  0  0  0  0  0  0  0
  -21.1780   -6.4100   24.1160 C   0  0  0  0  0  3  0  0  0  0  0  0
  -21.1590   -5.6380   25.2940 C   0  0  0  0  0  3  0  0  0  0  0  0
  -21.5730   -4.2930   25.2630 C   0  0  0  0  0  0  0  0  0  0  0  0
  -22.0100   -3.7210   24.0550 C   0  0  0  0  0  3  0  0  0  0  0  0
  -22.0340   -4.4920   22.8800 C   0  0  0  0  0  0  0  0  0  0  0  0
  -22.4380   -3.9260   21.7160 F   0  0  0  0  0  0  0  0  0  0  0  0
  -21.5470   -3.5480   26.3930 F   0  0  0  0  0  0  0  0  0  0  0  0
  -22.2450  -13.2320   21.3440 C   0  0  0  0  0  0  0  0  0  0  0  0
  -21.6560  -12.5040   22.2880 N   0  0  0  0  0  0  0  0  0  0  0  0
  -21.6920  -14.2240   20.8700 O   0  0  0  0  0  0  0  0  0  0  0  0
  -22.1100  -11.6990   22.6910 H   0  0  0  0  0  0  0  0  0  0  0  0
  -20.7290  -12.7530   22.6070 H   0  0  0  0  0  0  0  0  0  0  0  0
  -24.6780  -15.0510   20.2640 N   0  0  0  0  0  0  0  0  0  0  0  0
  -23.8920  -15.6620   20.4590 H   0  0  0  0  0  0  0  0  0  0  0  0
  -25.4630  -15.5390   19.8490 H   0  0  0  0  0  0  0  0  0  0  0  0
  -28.6160  -25.6520   19.0470 C   0  0  0  0  0  2  0  0  0  0  0  0
  -28.3080  -26.5930   20.1070 O   0  0  0  0  0  0  0  0  0  0  0  0
  -24.5820  -31.8550   23.2020 C   0  0  0  0  0  0  0  0  0  0  0  0
  -27.1640  -27.3790   20.0660 C   0  0  0  0  0  0  0  0  0  0  0  0
  -23.3590  -30.4840   21.5490 C   0  0  0  0  0  3  0  0  0  0  0  0
  -24.7930  -28.9470   20.1010 C   0  0  0  0  0  0  0  0  0  0  0  0
  -25.8940  -30.8010   21.3590 C   0  0  0  0  0  2  0  0  0  0  0  0
  -25.9590  -29.4330   20.7060 C   0  0  0  0  0  0  0  0  0  0  0  0
  -27.1410  -28.6490   20.7040 C   0  0  0  0  0  3  0  0  0  0  0  0
  -25.9820  -26.9360   19.4420 C   0  0  0  0  0  3  0  0  0  0  0  0
  -24.8000  -27.6960   19.4700 C   0  0  0  0  0  3  0  0  0  0  0  0
  -23.5590  -29.8190   20.1610 C   0  0  0  0  0  2  0  0  0  0  0  0
  -24.6300  -31.0630   22.0920 N   0  0  0  0  0  0  0  0  0  0  0  0
  -23.5040  -32.1330   23.7440 O   0  0  0  0  0  0  0  0  0  0  0  0
  -22.7010  -29.4570   22.5000 C   0  0  0  0  0  0  0  0  0  0  0  0
  -21.3730  -29.2940   22.3810 N   0  0  0  0  0  0  0  0  0  0  0  0
  -23.3830  -28.8090   23.3000 O   0  0  0  0  0  0  0  0  0  0  0  0
  -20.8850  -29.8710   21.7100 H   0  0  0  0  0  0  0  0  0  0  0  0
  -17.9840  -28.1500   22.9010 C   0  0  0  0  0  0  0  0  0  0  0  0
  -20.5490  -28.3580   23.1460 C   0  0  0  0  0  3  0  0  0  0  0  0
  -20.6170  -26.9350   22.5450 C   0  0  0  0  0  2  0  0  0  0  0  0
  -19.4990  -26.6500   21.5390 C   0  0  0  0  0  2  0  0  0  0  0  0
  -18.1260  -26.8100   22.2000 C   0  0  0  0  0  2  0  0  0  0  0  0
  -19.1210  -28.8840   23.3310 C   0  0  0  0  0  0  0  0  0  0  0  0
  -18.9330  -30.1400   23.9480 C   0  0  0  0  0  3  0  0  0  0  0  0
  -17.6410  -30.6630   24.1380 C   0  0  0  0  0  3  0  0  0  0  0  0
  -16.5180  -29.9260   23.7260 C   0  0  0  0  0  3  0  0  0  0  0  0
  -16.6900  -28.6720   23.1130 C   0  0  0  0  0  3  0  0  0  0  0  0
  -25.8750  -32.4680   23.8240 C   0  0  0  0  0  3  0  0  0  0  0  0
  -26.3860  -31.6850   25.0960 C   0  0  1  0  0  0  0  0  0  0  0  0
  -25.2880  -31.4500   26.1610 C   0  0  0  0  0  1  0  0  0  0  0  0
  -26.9560  -30.3030   24.6990 C   0  0  0  0  0  1  0  0  0  0  0  0
  -27.5450  -32.4630   25.7610 C   0  0  0  0  0  1  0  0  0  0  0  0
  -25.5810  -33.8670   24.1620 N   0  0  0  0  0  0  0  0  0  0  0  0
  -25.9230  -34.9200   23.4070 C   0  0  0  0  0  0  0  0  0  0  0  0
  -26.5910  -34.8150   22.3750 O   0  0  0  0  0  0  0  0  0  0  0  0
  -24.9910  -34.0260   24.9650 H   0  0  0  0  0  0  0  0  0  0  0  0
  -24.2070  -36.7250   23.0650 C   0  0  0  0  0  1  0  0  0  0  0  0
  -25.4480  -36.3100   23.8720 C   0  0  0  0  0  3  0  0  0  0  0  0
  -27.5950  -37.1720   24.6940 C   0  0  0  0  0  1  0  0  0  0  0  0
  -26.4880  -37.3560   23.7580 N   0  0  0  0  0  0  0  0  0  0  0  0
  -26.0910  -38.2790   23.9150 H   0  0  0  0  0  0  0  0  0  0  0  0
  1  5  1  0
  1  2  2  0
  2  8  1  0
  3  4  1  0
  5  7  1  6
  5  3  1  0
  6  2  1  0
  8 12  1  0
  8  9  1  1
  8  4  1  0
 10 11  1  0
 11  1  1  0
 12 17  1  0
 14 18  2  0
 14 17  1  0
 15 13  1  0
 15 19  1  0
 16 13  2  0
 16 20  1  0
 17 15  2  0
 18 16  1  0
 21 29  1  0
 22 27  1  0
 23 24  1  0
 23 22  1  0
 25 24  1  0
 25 34  1  0
 25 26  1  0
 27 21  1  0
 27 26  1  0
 28 21  2  0
 29 30  1  0
 29 18  1  0
 31 32  2  0
 32 51  1  0
 33 32  1  0
 33 36  1  0
 34 35  1  0
 34 31  1  0
 35 33  2  0
 36 37  1  0
 37 38  2  0
 39 42  1  0
 39 38  1  0
 40 39  2  0
 41 40  1  0
 41 36  2  0
 42 43  1  0
 43 44  1  0
 44 45  2  0
 46 45  1  0
 46 50  1  0
 47 46  2  0
 48 43  2  0
 48 47  1  0
 49 48  1  0
 51 52  1  0
 52 55  1  0
 52 54  1  0
 53 51  2  0
 56 31  1  0
 56 57  1  0
 58 56  1  0
 59  5  1  0
 59 60  1  0
 61 72  2  0
 62 60  1  0
 62 67  1  0
 63 71  1  0
 63 73  1  0
 64 70  1  0
 64 66  1  0
 65 71  1  0
 66 65  1  0
 67 66  2  0
 68 69  1  0
 68 62  2  0
 69 64  2  0
 70 63  1  0
 71 61  1  0
 73 75  2  0
 74 73  1  0
 76 74  1  0
 77 86  2  0
 77 82  1  0
 78 74  1  0
 78 82  1  0
 79 78  1  0
 80 81  1  0
 80 79  1  0
 81 77  1  0
 82 83  2  0
 83 84  1  0
 85 84  2  0
 86 85  1  0
 87 61  1  0
 87 92  1  0
 87 88  1  0
 88 91  1  1
 88 89  1  0
 90 88  1  0
 92 95  1  0
 93 97  1  0
 93 92  1  0
 94 93  2  0
 97 96  1  0
 99 97  1  0
 99100  1  0
 99 98  1  0
M  ISO  4  21 100  29 100  59 101  60 101
M  END
>  <TORSDO>  (81) 
F 20

>  <SCORE>  (81) 
-11.195

>  <name>  (81) 
80

>  <ligand_id>  (81) 
80

>  <original_smiles>  (81) 
[H]c1c([H])c([H])c2c(c1[H])C([H])([H])C([H])([H])C([H])([H])C2([H])N([H])C(=O)C1([H])N(C(=O)C([H])(N([H])C(=O)C([H])(N([H])C([H])([H])[H])C([H])([H])[H])C(C([H])([H])[H])(C([H])([H])[H])C([H])([H])[H])C([H])([H])c2c([H])c(OC([H])([H])C3(C([H])([H])[H])C(C([H])([H])C([H])([H])[H])=C(C([H])([H])[H])[N+]([H])(C([H])([H])c4c([H])c(N([H])C(=O)N5C([H])([H])C([H])([H])C([H])([H])C([H])(n6nc(-c7c([H])c([H])c(Oc8c([H])c([H])c(F)c([H])c8F)c([H])c7[H])c(C(=O)N([H])[H])c6N([H])[H])C5([H])[H])c(C([H])([H])[H])c([H])c4C([H])([H])[H])C([H])([H])C3([H])[H])c([H])c([H])c2C1([H])[H]

>  <smiles>  (81) 
[H]c1c([H])c([H])c2c(c1[H])C([H])([H])C([H])([H])C([H])([H])C2([H])N([H])C(=O)C1([H])N(C(=O)C([H])(N([H])C(=O)C([H])(N([H])C([H])([H])[H])C([H])([H])[H])C(C([H])([H])[H])(C([H])([H])[H])C([H])([H])[H])C([H])([H])c2c([H])c(OC([H])([H])C3(C([H])([H])[H])C(C([H])([H])C([H])([H])[H])=C(C([H])([H])[H])[N+]([H])(C([H])([H])c4c([H])c(N([H])C(=O)N5C([H])([H])C([H])([H])C([H])([H])C([H])(n6nc(-c7c([H])c([H])c(Oc8c([H])c([H])c(F)c([H])c8F)c([H])c7[H])c(C(=O)N([H])[H])c6N([H])[H])C5([H])[H])c(C([H])([H])[H])c([H])c4C([H])([H])[H])C([H])([H])C3([H])[H])c([H])c([H])c2C1([H])[H]

$$$$
81:0:0
     RDKit          3D

102110  0  0  1  0  0  0  0  0999 V2000
  -30.0150  -18.2440   20.8700 C   0  0  0  0  0  3  0  0  0  0  0  0
  -31.4820  -17.3270   19.1820 C   0  0  0  0  0  3  0  0  0  0  0  0
  -30.4220  -19.5640   20.5230 C   0  0  0  0  0  0  0  0  0  0  0  0
  -31.4310  -19.7540   19.5260 C   0  0  0  0  0  0  0  0  0  0  0  0
  -30.5360  -17.0990   20.2120 C   0  0  0  0  0  0  0  0  0  0  0  0
  -31.9790  -18.6110   18.8810 C   0  0  0  0  0  0  0  0  0  0  0  0
  -31.9580  -21.1550   19.1810 C   0  0  0  0  0  1  0  0  0  0  0  0
  -30.7870  -14.6050   20.3510 C   0  0  0  0  0  0  0  0  0  0  0  0
  -30.4190  -12.4300   19.2830 C   0  0  0  0  0  2  0  0  0  0  0  0
  -29.4790  -12.6210   18.0790 C   0  0  0  0  0  2  0  0  0  0  0  0
  -28.0100  -12.4860   18.5210 C   0  0  0  0  0  2  0  0  0  0  0  0
  -27.6740  -13.3470   19.7680 C   0  0  0  0  0  3  0  0  0  0  0  0
  -28.7440  -13.1990   20.8730 C   0  0  0  0  0  2  0  0  0  0  0  0
  -30.0620  -13.4580   20.2770 N   0  0  0  0  0  0  0  0  0  0  0  0
  -31.9760  -14.6230   20.0370 O   0  0  0  0  0  0  0  0  0  0  0  0
  -30.1130  -15.7640   20.5810 N   0  0  0  0  0  0  0  0  0  0  0  0
  -29.1820  -15.6700   20.9610 H   0  0  0  0  0  0  0  0  0  0  0  0
  -25.2990  -13.9390   20.5510 C   0  0  0  0  0  0  0  0  0  0  0  0
  -24.2360  -13.1620   20.9250 C   0  0  0  0  0  0  0  0  0  0  0  0
  -24.6940  -11.8110   20.8650 C   0  0  0  0  0  0  0  0  0  0  0  0
  -26.3350  -13.0610   20.2770 N   0  0  0  0  0  0  0  0  0  0  0  0
  -25.9770  -11.7750   20.5300 N   0  0  0  0  0  0  0  0  0  0  0  0
  -23.9690  -10.5470   21.0510 C   0  0  0  0  0  0  0  0  0  0  0  0
  -24.3910   -9.5830   21.9930 C   0  0  0  0  0  3  0  0  0  0  0  0
  -23.6670   -8.3840   22.1660 C   0  0  0  0  0  3  0  0  0  0  0  0
  -22.5040   -8.1400   21.3970 C   0  0  0  0  0  0  0  0  0  0  0  0
  -22.0990   -9.0930   20.4450 C   0  0  0  0  0  3  0  0  0  0  0  0
  -22.8250  -10.2830   20.2720 C   0  0  0  0  0  3  0  0  0  0  0  0
  -21.7500   -6.9930   21.4800 O   0  0  0  0  0  0  0  0  0  0  0  0
  -21.6760   -6.2640   22.6380 C   0  0  0  0  0  0  0  0  0  0  0  0
  -21.1640   -6.8120   23.8330 C   0  0  0  0  0  3  0  0  0  0  0  0
  -21.0400   -6.0060   24.9820 C   0  0  0  0  0  3  0  0  0  0  0  0
  -21.4150   -4.6500   24.9360 C   0  0  0  0  0  0  0  0  0  0  0  0
  -21.9200   -4.1000   23.7430 C   0  0  0  0  0  3  0  0  0  0  0  0
  -22.0480   -4.9050   22.5970 C   0  0  0  0  0  0  0  0  0  0  0  0
  -22.5140   -4.3650   21.4460 F   0  0  0  0  0  0  0  0  0  0  0  0
  -21.2880   -3.8710   26.0350 F   0  0  0  0  0  0  0  0  0  0  0  0
  -22.8460  -13.6400   21.2270 C   0  0  0  0  0  0  0  0  0  0  0  0
  -22.1210  -12.9260   22.0810 N   0  0  0  0  0  0  0  0  0  0  0  0
  -22.4110  -14.6840   20.7430 O   0  0  0  0  0  0  0  0  0  0  0  0
  -22.4810  -12.0820   22.5030 H   0  0  0  0  0  0  0  0  0  0  0  0
  -21.1900  -13.2350   22.3210 H   0  0  0  0  0  0  0  0  0  0  0  0
  -25.4610  -15.3110   20.3940 N   0  0  0  0  0  0  0  0  0  0  0  0
  -24.6930  -15.9620   20.5120 H   0  0  0  0  0  0  0  0  0  0  0  0
  -26.3030  -15.7570   20.0530 H   0  0  0  0  0  0  0  0  0  0  0  0
  -29.8970  -20.7280   21.3350 C   0  0  0  0  0  0  0  0  0  0  0  0
  -29.3060  -21.7320   20.6630 N   0  0  0  0  0  0  0  0  0  0  0  0
  -30.0860  -20.7620   22.5520 O   0  0  0  0  0  0  0  0  0  0  0  0
  -29.1070  -21.5690   19.6860 H   0  0  0  0  0  0  0  0  0  0  0  0
  -29.2600  -23.1250   21.1390 C   0  0  0  0  0  2  0  0  0  0  0  0
  -26.8800  -23.5420   20.4590 C   0  0  0  0  0  1  0  0  0  0  0  0
  -28.3170  -24.1150   20.3740 C   0  0  2  0  0  0  0  0  0  0  0  0
  -28.4270  -23.1660   17.8990 C   0  0  0  0  0  1  0  0  0  0  0  0
  -28.7500  -24.3010   18.8880 C   0  0  0  0  0  2  0  0  0  0  0  0
  -28.3880  -25.5170   21.1030 C   0  0  0  0  0  2  0  0  0  0  0  0
  -28.4060  -26.7180   20.2980 O   0  0  0  0  0  0  0  0  0  0  0  0
  -24.5500  -31.9420   23.2790 C   0  0  0  0  0  0  0  0  0  0  0  0
  -27.2520  -27.4700   20.2900 C   0  0  0  0  0  0  0  0  0  0  0  0
  -23.3730  -30.5250   21.6240 C   0  0  0  0  0  3  0  0  0  0  0  0
  -24.8580  -28.9820   20.2360 C   0  0  0  0  0  0  0  0  0  0  0  0
  -25.9020  -30.8820   21.4740 C   0  0  0  0  0  2  0  0  0  0  0  0
  -26.0020  -29.5020   20.8520 C   0  0  0  0  0  0  0  0  0  0  0  0
  -27.2020  -28.7520   20.8830 C   0  0  0  0  0  3  0  0  0  0  0  0
  -26.1010  -26.9760   19.6460 C   0  0  0  0  0  3  0  0  0  0  0  0
  -24.9050  -27.7150   19.6290 C   0  0  0  0  0  3  0  0  0  0  0  0
  -23.6100  -29.8360   20.2520 C   0  0  0  0  0  2  0  0  0  0  0  0
  -24.6250  -31.1340   22.1820 N   0  0  0  0  0  0  0  0  0  0  0  0
  -23.4600  -32.2150   23.8010 O   0  0  0  0  0  0  0  0  0  0  0  0
  -22.7110  -29.5040   22.5790 C   0  0  0  0  0  0  0  0  0  0  0  0
  -21.3910  -29.3100   22.4280 N   0  0  0  0  0  0  0  0  0  0  0  0
  -23.3840  -28.8890   23.4090 O   0  0  0  0  0  0  0  0  0  0  0  0
  -20.9100  -29.8670   21.7350 H   0  0  0  0  0  0  0  0  0  0  0  0
  -18.0120  -28.1190   22.8870 C   0  0  0  0  0  0  0  0  0  0  0  0
  -20.5660  -28.3730   23.1890 C   0  0  0  0  0  3  0  0  0  0  0  0
  -20.6730  -26.9410   22.6140 C   0  0  0  0  0  2  0  0  0  0  0  0
  -19.5830  -26.6200   21.5860 C   0  0  0  0  0  2  0  0  0  0  0  0
  -18.1940  -26.7690   22.2140 C   0  0  0  0  0  2  0  0  0  0  0  0
  -19.1260  -28.8800   23.3300 C   0  0  0  0  0  0  0  0  0  0  0  0
  -18.9030  -30.1460   23.9140 C   0  0  0  0  0  3  0  0  0  0  0  0
  -17.5970  -30.6480   24.0650 C   0  0  0  0  0  3  0  0  0  0  0  0
  -16.4970  -29.8840   23.6410 C   0  0  0  0  0  3  0  0  0  0  0  0
  -16.7050  -28.6230   23.0550 C   0  0  0  0  0  3  0  0  0  0  0  0
  -25.8260  -32.5780   23.9140 C   0  0  0  0  0  3  0  0  0  0  0  0
  -26.3240  -31.8200   25.2080 C   0  0  1  0  0  0  0  0  0  0  0  0
  -25.2110  -31.5910   26.2570 C   0  0  0  0  0  1  0  0  0  0  0  0
  -26.9200  -30.4400   24.8380 C   0  0  0  0  0  1  0  0  0  0  0  0
  -27.4580  -32.6250   25.8850 C   0  0  0  0  0  1  0  0  0  0  0  0
  -25.5220  -33.9810   24.2220 N   0  0  0  0  0  0  0  0  0  0  0  0
  -25.8610  -35.0200   23.4490 C   0  0  0  0  0  0  0  0  0  0  0  0
  -26.5440  -34.8980   22.4270 O   0  0  0  0  0  0  0  0  0  0  0  0
  -24.9360  -34.1500   25.0260 H   0  0  0  0  0  0  0  0  0  0  0  0
  -24.1610  -36.8160   23.0080 C   0  0  0  0  0  1  0  0  0  0  0  0
  -25.3670  -36.4150   23.8720 C   0  0  0  0  0  3  0  0  0  0  0  0
  -27.4660  -37.3020   24.7860 C   0  0  0  0  0  1  0  0  0  0  0  0
  -26.4090  -37.4610   23.7900 N   0  0  0  0  0  0  0  0  0  0  0  0
  -26.0020  -38.3860   23.9050 H   0  0  0  0  0  0  0  0  0  0  0  0
  -33.1870  -18.4300   16.7070 C   0  0  0  0  0  0  0  0  0  0  0  0
  -34.4120  -18.9310   18.7430 C   0  0  0  0  0  1  0  0  0  0  0  0
  -33.1390  -18.6910   18.0450 N   0  0  0  0  0  0  0  0  0  0  0  0
  -34.2630  -18.3810   16.0990 O   0  0  0  0  0  0  0  0  0  0  0  0
  -31.8540  -17.6340   14.8280 C   0  0  0  0  0  2  0  0  0  0  0  0
  -31.9040  -18.2010   16.0500 C   0  0  0  0  0  3  0  0  0  0  0  0
  2  5  1  0
  3  1  1  0
  3 46  1  0
  4  3  2  0
  5 16  1  0
  5  1  2  0
  6  2  2  0
  6  4  1  0
  7  4  1  0
  8 16  1  0
  9 14  1  0
 10 11  1  0
 10  9  1  0
 12 11  1  0
 12 21  1  0
 12 13  1  0
 14  8  1  0
 14 13  1  0
 15  8  2  0
 16 17  1  0
 18 19  2  0
 19 38  1  0
 20 19  1  0
 20 23  1  0
 21 22  1  0
 21 18  1  0
 22 20  2  0
 23 24  1  0
 24 25  2  0
 26 29  1  0
 26 25  1  0
 27 26  2  0
 28 27  1  0
 28 23  2  0
 29 30  1  0
 30 31  1  0
 31 32  2  0
 33 32  1  0
 33 37  1  0
 34 33  2  0
 35 30  2  0
 35 34  1  0
 36 35  1  0
 38 39  1  0
 39 42  1  0
 39 41  1  0
 40 38  2  0
 43 44  1  0
 43 18  1  0
 45 43  1  0
 46 48  2  0
 47 50  1  0
 47 46  1  0
 49 47  1  0
 52 51  1  6
 52 55  1  0
 52 50  1  0
 53 54  1  0
 54 52  1  0
 56 55  1  0
 57 68  2  0
 58 56  1  0
 58 63  1  0
 59 67  1  0
 59 69  1  0
 60 66  1  0
 60 62  1  0
 61 67  1  0
 62 63  2  0
 62 61  1  0
 64 58  2  0
 65 64  1  0
 65 60  2  0
 66 59  1  0
 67 57  1  0
 69 71  2  0
 70 69  1  0
 72 70  1  0
 73 82  2  0
 73 78  1  0
 74 70  1  0
 74 78  1  0
 75 74  1  0
 76 77  1  0
 76 75  1  0
 77 73  1  0
 78 79  2  0
 79 80  1  0
 81 80  2  0
 82 81  1  0
 83 57  1  0
 83 88  1  0
 83 84  1  0
 84 87  1  1
 84 85  1  0
 86 84  1  0
 88 91  1  0
 89 93  1  0
 89 88  1  0
 90 89  2  0
 93 92  1  0
 95 93  1  0
 95 96  1  0
 95 94  1  0
 97 99  1  0
 99 98  1  0
 99  6  1  0
100 97  2  0
101102  2  0
102 97  1  0
M  ISO  4   8 100  16 100  55 101  56 101
M  END
>  <TORSDO>  (82) 
F 23

>  <SCORE>  (82) 
-13.287

>  <name>  (82) 
81

>  <ligand_id>  (82) 
81

>  <original_smiles>  (82) 
[H]C([H])=C([H])C(=O)N(c1c([H])c(N([H])C(=O)N2C([H])([H])C([H])([H])C([H])([H])C([H])(n3nc(-c4c([H])c([H])c(Oc5c([H])c([H])c(F)c([H])c5F)c([H])c4[H])c(C(=O)N([H])[H])c3N([H])[H])C2([H])[H])c([H])c(C(=O)N([H])C([H])([H])C(C([H])([H])[H])(C([H])([H])Oc2c([H])c([H])c3c(c2[H])C([H])([H])N(C(=O)C([H])(N([H])C(=O)C([H])(N([H])C([H])([H])[H])C([H])([H])[H])C(C([H])([H])[H])(C([H])([H])[H])C([H])([H])[H])C([H])(C(=O)N([H])C2([H])c4c([H])c([H])c([H])c([H])c4C([H])([H])C([H])([H])C2([H])[H])C3([H])[H])C([H])([H])C([H])([H])[H])c1C([H])([H])[H])C([H])([H])[H]

>  <smiles>  (82) 
[H]C([H])=C([H])C(=O)N(c1c([H])c(N([H])C(=O)N2C([H])([H])C([H])([H])C([H])([H])C([H])(n3nc(-c4c([H])c([H])c(Oc5c([H])c([H])c(F)c([H])c5F)c([H])c4[H])c(C(=O)N([H])[H])c3N([H])[H])C2([H])[H])c([H])c(C(=O)N([H])C([H])([H])C(C([H])([H])[H])(C([H])([H])Oc2c([H])c([H])c3c(c2[H])C([H])([H])N(C(=O)C([H])(N([H])C(=O)C([H])(N([H])C([H])([H])[H])C([H])([H])[H])C(C([H])([H])[H])(C([H])([H])[H])C([H])([H])[H])C([H])(C(=O)N([H])C2([H])c4c([H])c([H])c([H])c([H])c4C([H])([H])C([H])([H])C2([H])[H])C3([H])[H])C([H])([H])C([H])([H])[H])c1C([H])([H])[H])C([H])([H])[H]

$$$$
82:0:0
     RDKit          3D

 92100  0  0  1  0  0  0  0  0999 V2000
  -29.1190  -22.6960   20.0790 C   0  0  0  0  0  0  0  0  0  0  0  0
  -28.9990  -21.3250   20.4030 N   0  0  0  0  0  0  0  0  0  0  0  0
  -29.9350  -23.1050   19.2520 O   0  0  0  0  0  0  0  0  0  0  0  0
  -28.2340  -21.1480   21.0370 H   0  0  0  0  0  0  0  0  0  0  0  0
  -31.7900  -19.1410   18.9650 C   0  0  0  0  0  3  0  0  0  0  0  0
  -30.9950  -20.2400   19.3350 C   0  0  0  0  0  3  0  0  0  0  0  0
  -31.4310  -17.8190   19.2790 C   0  0  0  0  0  3  0  0  0  0  0  0
  -29.4300  -18.6780   20.3650 C   0  0  0  0  0  0  0  0  0  0  0  0
  -29.7790  -20.0810   20.0360 C   0  0  0  0  0  0  0  0  0  0  0  0
  -30.2530  -17.5030   19.9970 C   0  0  0  0  0  0  0  0  0  0  0  0
  -28.1410  -18.4130   21.1220 C   0  0  0  0  0  1  0  0  0  0  0  0
  -30.6500  -14.8560   19.9980 C   0  0  0  0  0  0  0  0  0  0  0  0
  -30.3700  -12.5920   18.9540 C   0  0  0  0  0  2  0  0  0  0  0  0
  -29.3750  -12.6830   17.7760 C   0  0  0  0  0  2  0  0  0  0  0  0
  -27.9320  -12.4930   18.2780 C   0  0  0  0  0  2  0  0  0  0  0  0
  -27.6190  -13.3500   19.5330 C   0  0  0  0  0  3  0  0  0  0  0  0
  -28.7360  -13.2630   20.5960 C   0  0  0  0  0  2  0  0  0  0  0  0
  -29.9940  -13.6390   19.9400 N   0  0  0  0  0  0  0  0  0  0  0  0
  -31.8340  -14.8790   19.6520 O   0  0  0  0  0  0  0  0  0  0  0  0
  -29.9370  -16.0430   20.2630 N   0  0  0  0  0  0  0  0  0  0  0  0
  -29.0070  -15.8720   20.6150 H   0  0  0  0  0  0  0  0  0  0  0  0
  -25.2700  -13.9120   20.3870 C   0  0  0  0  0  0  0  0  0  0  0  0
  -24.2280  -13.1270   20.7970 C   0  0  0  0  0  0  0  0  0  0  0  0
  -24.6970  -11.7790   20.7290 C   0  0  0  0  0  0  0  0  0  0  0  0
  -26.3060  -13.0430   20.0890 N   0  0  0  0  0  0  0  0  0  0  0  0
  -25.9720  -11.7530   20.3590 N   0  0  0  0  0  0  0  0  0  0  0  0
  -23.9850  -10.5110   20.9370 C   0  0  0  0  0  0  0  0  0  0  0  0
  -24.4450   -9.5480   21.8620 C   0  0  0  0  0  3  0  0  0  0  0  0
  -23.7310   -8.3460   22.0580 C   0  0  0  0  0  3  0  0  0  0  0  0
  -22.5430   -8.0980   21.3300 C   0  0  0  0  0  0  0  0  0  0  0  0
  -22.1030   -9.0490   20.3930 C   0  0  0  0  0  3  0  0  0  0  0  0
  -22.8170  -10.2430   20.1950 C   0  0  0  0  0  3  0  0  0  0  0  0
  -21.8000   -6.9470   21.4360 O   0  0  0  0  0  0  0  0  0  0  0  0
  -21.7570   -6.2220   22.5990 C   0  0  0  0  0  0  0  0  0  0  0  0
  -21.3300   -6.7930   23.8180 C   0  0  0  0  0  3  0  0  0  0  0  0
  -21.2350   -5.9930   24.9750 C   0  0  0  0  0  3  0  0  0  0  0  0
  -21.5570   -4.6250   24.9150 C   0  0  0  0  0  0  0  0  0  0  0  0
  -21.9790   -4.0540   23.7010 C   0  0  0  0  0  3  0  0  0  0  0  0
  -22.0750   -4.8500   22.5460 C   0  0  0  0  0  0  0  0  0  0  0  0
  -22.4600   -4.2900   21.3740 F   0  0  0  0  0  0  0  0  0  0  0  0
  -21.4600   -3.8550   26.0230 F   0  0  0  0  0  0  0  0  0  0  0  0
  -22.8420  -13.5940   21.1370 C   0  0  0  0  0  0  0  0  0  0  0  0
  -22.1580  -12.8850   22.0270 N   0  0  0  0  0  0  0  0  0  0  0  0
  -22.3770  -14.6240   20.6470 O   0  0  0  0  0  0  0  0  0  0  0  0
  -22.5490  -12.0530   22.4440 H   0  0  0  0  0  0  0  0  0  0  0  0
  -21.2290  -13.1800   22.2960 H   0  0  0  0  0  0  0  0  0  0  0  0
  -25.4180  -15.2860   20.2160 N   0  0  0  0  0  0  0  0  0  0  0  0
  -24.6460  -15.9280   20.3570 H   0  0  0  0  0  0  0  0  0  0  0  0
  -26.2300  -15.7270   19.8050 H   0  0  0  0  0  0  0  0  0  0  0  0
  -28.1740  -23.6340   20.7920 C   0  0  0  0  0  3  0  0  0  0  0  0
  -27.8740  -25.0100   20.8290 C   0  0  0  0  0  3  0  0  0  0  0  0
  -28.2760  -26.2550   20.2350 O   0  0  0  0  0  0  0  0  0  0  0  0
  -24.6130  -31.8660   23.1710 C   0  0  0  0  0  0  0  0  0  0  0  0
  -27.2600  -27.2490   20.1500 C   0  0  0  0  0  0  0  0  0  0  0  0
  -23.4420  -30.4770   21.5040 C   0  0  0  0  0  3  0  0  0  0  0  0
  -24.9200  -28.9290   20.0890 C   0  0  0  0  0  0  0  0  0  0  0  0
  -25.9930  -30.7730   21.3760 C   0  0  0  0  0  2  0  0  0  0  0  0
  -26.0850  -29.3920   20.7190 C   0  0  0  0  0  0  0  0  0  0  0  0
  -27.2610  -28.5640   20.7410 C   0  0  0  0  0  3  0  0  0  0  0  0
  -26.0790  -26.8720   19.4780 C   0  0  0  0  0  3  0  0  0  0  0  0
  -24.9260  -27.6790   19.4550 C   0  0  0  0  0  3  0  0  0  0  0  0
  -23.6850  -29.8110   20.1240 C   0  0  0  0  0  2  0  0  0  0  0  0
  -24.7010  -31.0580   22.0730 N   0  0  0  0  0  0  0  0  0  0  0  0
  -23.5190  -32.1440   23.6840 O   0  0  0  0  0  0  0  0  0  0  0  0
  -22.7570  -29.4580   22.4470 C   0  0  0  0  0  0  0  0  0  0  0  0
  -21.4310  -29.2860   22.3000 N   0  0  0  0  0  0  0  0  0  0  0  0
  -23.4180  -28.8260   23.2750 O   0  0  0  0  0  0  0  0  0  0  0  0
  -20.9540  -29.8470   21.6080 H   0  0  0  0  0  0  0  0  0  0  0  0
  -18.0450  -28.0810   22.7380 C   0  0  0  0  0  0  0  0  0  0  0  0
  -20.5980  -28.3450   23.0530 C   0  0  0  0  0  3  0  0  0  0  0  0
  -20.7110  -26.9150   22.4760 C   0  0  0  0  0  2  0  0  0  0  0  0
  -19.6290  -26.5930   21.4420 C   0  0  0  0  0  2  0  0  0  0  0  0
  -18.2350  -26.7340   22.0610 C   0  0  0  0  0  2  0  0  0  0  0  0
  -19.1540  -28.8440   23.1900 C   0  0  0  0  0  0  0  0  0  0  0  0
  -18.9210  -30.1040   23.7830 C   0  0  0  0  0  3  0  0  0  0  0  0
  -17.6130  -30.6010   23.9290 C   0  0  0  0  0  3  0  0  0  0  0  0
  -16.5170  -29.8350   23.4920 C   0  0  0  0  0  3  0  0  0  0  0  0
  -16.7340  -28.5770   22.9030 C   0  0  0  0  0  3  0  0  0  0  0  0
  -25.8820  -32.5000   23.8190 C   0  0  0  0  0  3  0  0  0  0  0  0
  -26.3710  -31.7270   25.1070 C   0  0  1  0  0  0  0  0  0  0  0  0
  -25.2570  -31.4900   26.1520 C   0  0  0  0  0  1  0  0  0  0  0  0
  -26.9600  -30.3470   24.7290 C   0  0  0  0  0  1  0  0  0  0  0  0
  -27.5100  -32.5190   25.7910 C   0  0  0  0  0  1  0  0  0  0  0  0
  -25.5640  -33.8970   24.1480 N   0  0  0  0  0  0  0  0  0  0  0  0
  -25.9110  -34.9550   23.4030 C   0  0  0  0  0  0  0  0  0  0  0  0
  -26.6000  -34.8570   22.3830 O   0  0  0  0  0  0  0  0  0  0  0  0
  -24.9550  -34.0480   24.9390 H   0  0  0  0  0  0  0  0  0  0  0  0
  -24.1920  -36.7530   23.0280 C   0  0  0  0  0  1  0  0  0  0  0  0
  -25.4180  -36.3420   23.8590 C   0  0  0  0  0  3  0  0  0  0  0  0
  -27.5380  -37.2200   24.7350 C   0  0  0  0  0  1  0  0  0  0  0  0
  -26.4540  -37.3940   23.7710 N   0  0  0  0  0  0  0  0  0  0  0  0
  -26.0470  -38.3140   23.9150 H   0  0  0  0  0  0  0  0  0  0  0  0
  1  2  1  0
  1 50  1  0
  2  4  1  0
  3  1  2  0
  5  7  2  0
  5  6  1  0
  6  9  2  0
  7 10  1  0
  8 11  1  0
  9  8  1  0
  9  2  1  0
 10 20  1  0
 10  8  2  0
 12 20  1  0
 13 18  1  0
 14 15  1  0
 14 13  1  0
 16 15  1  0
 16 25  1  0
 16 17  1  0
 18 12  1  0
 18 17  1  0
 19 12  2  0
 20 21  1  0
 22 23  2  0
 23 42  1  0
 24 23  1  0
 24 27  1  0
 25 26  1  0
 25 22  1  0
 26 24  2  0
 27 28  1  0
 28 29  2  0
 30 33  1  0
 30 29  1  0
 31 30  2  0
 32 31  1  0
 32 27  2  0
 33 34  1  0
 34 35  1  0
 35 36  2  0
 37 36  1  0
 37 41  1  0
 38 37  2  0
 39 34  2  0
 39 38  1  0
 40 39  1  0
 42 43  1  0
 43 46  1  0
 43 45  1  0
 44 42  2  0
 47 48  1  0
 47 22  1  0
 49 47  1  0
 50 51  2  0
 52 51  1  0
 53 64  2  0
 54 52  1  0
 54 59  1  0
 55 63  1  0
 55 65  1  0
 56 62  1  0
 56 58  1  0
 57 63  1  0
 58 59  2  0
 58 57  1  0
 60 54  2  0
 61 60  1  0
 61 56  2  0
 62 55  1  0
 63 53  1  0
 65 67  2  0
 66 65  1  0
 68 66  1  0
 69 78  2  0
 69 74  1  0
 70 66  1  0
 70 74  1  0
 71 70  1  0
 72 73  1  0
 72 71  1  0
 73 69  1  0
 74 75  2  0
 75 76  1  0
 77 76  2  0
 78 77  1  0
 79 53  1  0
 79 84  1  0
 79 80  1  0
 80 83  1  1
 80 81  1  0
 82 80  1  0
 84 87  1  0
 85 89  1  0
 85 84  1  0
 86 85  2  0
 89 88  1  0
 91 89  1  0
 91 92  1  0
 91 90  1  0
M  ISO  4  12 100  20 100  51 101  52 101
M  END
>  <TORSDO>  (83) 
F 18

>  <SCORE>  (83) 
-13.715

>  <name>  (83) 
82

>  <ligand_id>  (83) 
82

>  <original_smiles>  (83) 
[H]C(Oc1c([H])c([H])c2c(c1[H])C([H])([H])N(C(=O)C([H])(N([H])C(=O)C([H])(N([H])C([H])([H])[H])C([H])([H])[H])C(C([H])([H])[H])(C([H])([H])[H])C([H])([H])[H])C([H])(C(=O)N([H])C1([H])c3c([H])c([H])c([H])c([H])c3C([H])([H])C([H])([H])C1([H])[H])C2([H])[H])=C([H])C(=O)N([H])c1c([H])c([H])c([H])c(N([H])C(=O)N2C([H])([H])C([H])([H])C([H])([H])C([H])(n3nc(-c4c([H])c([H])c(Oc5c([H])c([H])c(F)c([H])c5F)c([H])c4[H])c(C(=O)N([H])[H])c3N([H])[H])C2([H])[H])c1C([H])([H])[H]

>  <smiles>  (83) 
[H]C(Oc1c([H])c([H])c2c(c1[H])C([H])([H])N(C(=O)C([H])(N([H])C(=O)C([H])(N([H])C([H])([H])[H])C([H])([H])[H])C(C([H])([H])[H])(C([H])([H])[H])C([H])([H])[H])C([H])(C(=O)N([H])C1([H])c3c([H])c([H])c([H])c([H])c3C([H])([H])C([H])([H])C1([H])[H])C2([H])[H])=C([H])C(=O)N([H])c1c([H])c([H])c([H])c(N([H])C(=O)N2C([H])([H])C([H])([H])C([H])([H])C([H])(n3nc(-c4c([H])c([H])c(Oc5c([H])c([H])c(F)c([H])c5F)c([H])c4[H])c(C(=O)N([H])[H])c3N([H])[H])C2([H])[H])c1C([H])([H])[H]

$$$$
83:0:0
     RDKit          3D

 94102  0  0  1  0  0  0  0  0999 V2000
  -28.8310  -22.0030   20.0980 C   0  0  0  0  0  0  0  0  0  0  0  0
  -29.8630  -21.1910   19.7470 N   0  0  0  0  0  0  0  0  0  0  0  0
  -27.8420  -21.6010   20.7160 O   0  0  0  0  0  0  0  0  0  0  0  0
  -30.5750  -21.6670   19.2050 H   0  0  0  0  0  0  0  0  0  0  0  0
  -29.7420  -18.6580   20.0870 C   0  0  0  0  0  3  0  0  0  0  0  0
  -31.5300  -17.5740   21.3460 C   0  0  0  0  0  3  0  0  0  0  0  0
  -31.5120  -20.0130   21.1170 C   0  0  0  0  0  0  0  0  0  0  0  0
  -30.3690  -17.4500   20.5530 C   0  0  0  0  0  0  0  0  0  0  0  0
  -30.3180  -19.9490   20.3420 C   0  0  0  0  0  0  0  0  0  0  0  0
  -32.0920  -18.8310   21.6280 C   0  0  0  0  0  0  0  0  0  0  0  0
  -32.2180  -21.3400   21.3930 C   0  0  0  0  0  1  0  0  0  0  0  0
  -33.2170  -18.8910   22.3820 F   0  0  0  0  0  0  0  0  0  0  0  0
  -30.6180  -15.0290   19.9300 C   0  0  0  0  0  0  0  0  0  0  0  0
  -30.3960  -12.7660   18.9410 C   0  0  0  0  0  2  0  0  0  0  0  0
  -29.3700  -12.7810   17.7900 C   0  0  0  0  0  2  0  0  0  0  0  0
  -27.9430  -12.5700   18.3310 C   0  0  0  0  0  2  0  0  0  0  0  0
  -27.6180  -13.4830   19.5430 C   0  0  0  0  0  3  0  0  0  0  0  0
  -28.7510  -13.4560   20.5920 C   0  0  0  0  0  2  0  0  0  0  0  0
  -30.0000  -13.8120   19.9020 N   0  0  0  0  0  0  0  0  0  0  0  0
  -31.7490  -15.1830   19.4620 O   0  0  0  0  0  0  0  0  0  0  0  0
  -29.8710  -16.1140   20.2820 N   0  0  0  0  0  0  0  0  0  0  0  0
  -28.8820  -15.9560   20.4130 H   0  0  0  0  0  0  0  0  0  0  0  0
  -25.3020  -13.9950   20.5290 C   0  0  0  0  0  0  0  0  0  0  0  0
  -24.2800  -13.1810   20.9400 C   0  0  0  0  0  0  0  0  0  0  0  0
  -24.7480  -11.8420   20.7680 C   0  0  0  0  0  0  0  0  0  0  0  0
  -26.3250  -13.1490   20.1310 N   0  0  0  0  0  0  0  0  0  0  0  0
  -26.0040  -11.8450   20.3370 N   0  0  0  0  0  0  0  0  0  0  0  0
  -24.0550  -10.5580   20.9290 C   0  0  0  0  0  0  0  0  0  0  0  0
  -24.4500   -9.6230   21.9110 C   0  0  0  0  0  3  0  0  0  0  0  0
  -23.7550   -8.4040   22.0600 C   0  0  0  0  0  3  0  0  0  0  0  0
  -22.6500   -8.1110   21.2230 C   0  0  0  0  0  0  0  0  0  0  0  0
  -22.2750   -9.0350   20.2320 C   0  0  0  0  0  3  0  0  0  0  0  0
  -22.9710  -10.2470   20.0830 C   0  0  0  0  0  3  0  0  0  0  0  0
  -21.9300   -6.9400   21.2790 O   0  0  0  0  0  0  0  0  0  0  0  0
  -21.6800   -6.3040   22.4700 C   0  0  0  0  0  0  0  0  0  0  0  0
  -20.9090   -6.9050   23.4880 C   0  0  0  0  0  3  0  0  0  0  0  0
  -20.6190   -6.1900   24.6660 C   0  0  0  0  0  3  0  0  0  0  0  0
  -21.0890   -4.8710   24.8230 C   0  0  0  0  0  0  0  0  0  0  0  0
  -21.8510   -4.2700   23.8070 C   0  0  0  0  0  3  0  0  0  0  0  0
  -22.1440   -4.9840   22.6310 C   0  0  0  0  0  0  0  0  0  0  0  0
  -22.8610   -4.3900   21.6470 F   0  0  0  0  0  0  0  0  0  0  0  0
  -20.8030   -4.1810   25.9510 F   0  0  0  0  0  0  0  0  0  0  0  0
  -22.9080  -13.6160   21.3710 C   0  0  0  0  0  0  0  0  0  0  0  0
  -22.2570  -12.8330   22.2240 N   0  0  0  0  0  0  0  0  0  0  0  0
  -22.4280  -14.6810   20.9910 O   0  0  0  0  0  0  0  0  0  0  0  0
  -22.6590  -11.9670   22.5520 H   0  0  0  0  0  0  0  0  0  0  0  0
  -21.3430  -13.1050   22.5540 H   0  0  0  0  0  0  0  0  0  0  0  0
  -25.4370  -15.3760   20.4350 N   0  0  0  0  0  0  0  0  0  0  0  0
  -24.6800  -16.0110   20.6640 H   0  0  0  0  0  0  0  0  0  0  0  0
  -26.2330  -15.8470   20.0240 H   0  0  0  0  0  0  0  0  0  0  0  0
  -28.9370  -23.5070   19.6620 C   0  0  0  0  0  3  0  0  0  0  0  0
  -27.6130  -24.3370   19.4430 C   0  0  0  0  0  3  0  0  0  0  0  0
  -27.7790  -25.7430   18.7450 C   0  0  0  0  0  2  0  0  0  0  0  0
  -27.8300  -26.9640   19.5440 O   0  0  0  0  0  0  0  0  0  0  0  0
  -24.5960  -31.9980   23.5200 C   0  0  0  0  0  0  0  0  0  0  0  0
  -26.7070  -27.7700   19.7110 C   0  0  0  0  0  0  0  0  0  0  0  0
  -23.1790  -30.8360   21.8610 C   0  0  0  0  0  3  0  0  0  0  0  0
  -24.4140  -29.4080   20.1400 C   0  0  0  0  0  0  0  0  0  0  0  0
  -25.6970  -31.0970   21.4610 C   0  0  0  0  0  2  0  0  0  0  0  0
  -25.6520  -29.8010   20.6640 C   0  0  0  0  0  0  0  0  0  0  0  0
  -26.7960  -28.9860   20.4500 C   0  0  0  0  0  3  0  0  0  0  0  0
  -25.4390  -27.4060   19.2040 C   0  0  0  0  0  3  0  0  0  0  0  0
  -24.3040  -28.2150   19.4120 C   0  0  0  0  0  3  0  0  0  0  0  0
  -23.2310  -30.3150   20.4010 C   0  0  0  0  0  2  0  0  0  0  0  0
  -24.5140  -31.3200   22.3360 N   0  0  0  0  0  0  0  0  0  0  0  0
  -23.5820  -32.2470   24.1880 O   0  0  0  0  0  0  0  0  0  0  0  0
  -22.5710  -29.7360   22.7630 C   0  0  0  0  0  0  0  0  0  0  0  0
  -21.2580  -29.4870   22.6110 N   0  0  0  0  0  0  0  0  0  0  0  0
  -23.2790  -29.1130   23.5570 O   0  0  0  0  0  0  0  0  0  0  0  0
  -20.7450  -30.0500   21.9460 H   0  0  0  0  0  0  0  0  0  0  0  0
  -17.9910  -27.9620   22.8800 C   0  0  0  0  0  0  0  0  0  0  0  0
  -20.4880  -28.4700   23.3250 C   0  0  0  0  0  3  0  0  0  0  0  0
  -20.7690  -27.0560   22.7590 C   0  0  0  0  0  2  0  0  0  0  0  0
  -19.7730  -26.6310   21.6720 C   0  0  0  0  0  2  0  0  0  0  0  0
  -18.3430  -26.6380   22.2240 C   0  0  0  0  0  2  0  0  0  0  0  0
  -18.9980  -28.8270   23.3860 C   0  0  0  0  0  0  0  0  0  0  0  0
  -18.6180  -30.0590   23.9590 C   0  0  0  0  0  3  0  0  0  0  0  0
  -17.2630  -30.4330   24.0290 C   0  0  0  0  0  3  0  0  0  0  0  0
  -16.2690  -29.5660   23.5440 C   0  0  0  0  0  3  0  0  0  0  0  0
  -16.6340  -28.3320   22.9750 C   0  0  0  0  0  3  0  0  0  0  0  0
  -25.9630  -32.5110   24.0740 C   0  0  0  0  0  3  0  0  0  0  0  0
  -26.5170  -31.6370   25.2640 C   0  0  1  0  0  0  0  0  0  0  0  0
  -25.4740  -31.3620   26.3730 C   0  0  0  0  0  1  0  0  0  0  0  0
  -27.0220  -30.2680   24.7480 C   0  0  0  0  0  1  0  0  0  0  0  0
  -27.7340  -32.3400   25.9090 C   0  0  0  0  0  1  0  0  0  0  0  0
  -25.7680  -33.9050   24.4990 N   0  0  0  0  0  0  0  0  0  0  0  0
  -26.1290  -34.9750   23.7780 C   0  0  0  0  0  0  0  0  0  0  0  0
  -26.7240  -34.8860   22.7010 O   0  0  0  0  0  0  0  0  0  0  0  0
  -25.2290  -34.0490   25.3410 H   0  0  0  0  0  0  0  0  0  0  0  0
  -24.5210  -36.9040   23.6200 C   0  0  0  0  0  1  0  0  0  0  0  0
  -25.7680  -36.3630   24.3380 C   0  0  0  0  0  3  0  0  0  0  0  0
  -27.9970  -37.0550   25.1140 C   0  0  0  0  0  1  0  0  0  0  0  0
  -26.8710  -37.3450   24.2280 N   0  0  0  0  0  0  0  0  0  0  0  0
  -26.5380  -38.2810   24.4360 H   0  0  0  0  0  0  0  0  0  0  0  0
  1  3  2  0
  2  1  1  0
  2  9  1  0
  4  2  1  0
  5  9  2  0
  5  8  1  0
  6 10  1  0
  7 11  1  0
  7 10  2  0
  8  6  2  0
  9  7  1  0
 10 12  1  0
 13 21  1  0
 14 19  1  0
 15 16  1  0
 15 14  1  0
 17 16  1  0
 17 26  1  0
 17 18  1  0
 19 13  1  0
 19 18  1  0
 20 13  2  0
 21 22  1  0
 21  8  1  0
 23 24  2  0
 24 43  1  0
 25 28  1  0
 25 24  1  0
 26 27  1  0
 26 23  1  0
 27 25  2  0
 28 29  1  0
 29 30  2  0
 31 34  1  0
 31 30  1  0
 32 31  2  0
 33 32  1  0
 33 28  2  0
 34 35  1  0
 35 40  2  0
 35 36  1  0
 36 37  2  0
 37 38  1  0
 38 42  1  0
 39 38  2  0
 40 39  1  0
 41 40  1  0
 43 44  1  0
 44 46  1  0
 44 47  1  0
 45 43  2  0
 48 23  1  0
 48 49  1  0
 50 48  1  0
 51  1  1  0
 52 51  2  0
 53 52  1  0
 53 54  1  0
 54 56  1  0
 55 66  2  0
 56 61  1  0
 57 65  1  0
 57 67  1  0
 58 64  1  0
 58 60  1  0
 59 65  1  0
 60 59  1  0
 61 60  2  0
 62 63  1  0
 62 56  2  0
 63 58  2  0
 64 57  1  0
 65 55  1  0
 67 69  2  0
 68 67  1  0
 70 68  1  0
 71 80  2  0
 71 76  1  0
 72 68  1  0
 72 76  1  0
 73 72  1  0
 74 75  1  0
 74 73  1  0
 75 71  1  0
 76 77  2  0
 77 78  1  0
 79 78  2  0
 80 79  1  0
 81 55  1  0
 81 86  1  0
 81 82  1  0
 82 85  1  1
 82 83  1  0
 84 82  1  0
 86 89  1  0
 87 91  1  0
 87 86  1  0
 88 87  2  0
 91 90  1  0
 93 91  1  0
 93 94  1  0
 93 92  1  0
M  ISO  4  13 100  21 100  53 101  54 101
M  END
>  <TORSDO>  (84) 
F 20

>  <SCORE>  (84) 
-12.755

>  <name>  (84) 
83

>  <ligand_id>  (84) 
83

>  <original_smiles>  (84) 
[H]c1c([H])c([H])c2c(c1[H])C([H])([H])C([H])([H])C([H])([H])C2([H])N([H])C(=O)C1([H])N(C(=O)C([H])(N([H])C(=O)C([H])(N([H])C([H])([H])[H])C([H])([H])[H])C(C([H])([H])[H])(C([H])([H])[H])C([H])([H])[H])C([H])([H])c2c([H])c(OC([H])([H])C([H])([H])C([H])([H])C(=O)N([H])c3c([H])c(N([H])C(=O)N4C([H])([H])C([H])([H])C([H])([H])C([H])(n5nc(-c6c([H])c([H])c(Oc7c([H])c([H])c(F)c([H])c7F)c([H])c6[H])c(C(=O)N([H])[H])c5N([H])[H])C4([H])[H])c([H])c(F)c3C([H])([H])[H])c([H])c([H])c2C1([H])[H]

>  <smiles>  (84) 
[H]c1c([H])c([H])c2c(c1[H])C([H])([H])C([H])([H])C([H])([H])C2([H])N([H])C(=O)C1([H])N(C(=O)C([H])(N([H])C(=O)C([H])(N([H])C([H])([H])[H])C([H])([H])[H])C(C([H])([H])[H])(C([H])([H])[H])C([H])([H])[H])C([H])([H])c2c([H])c(OC([H])([H])C([H])([H])C([H])([H])C(=O)N([H])c3c([H])c(N([H])C(=O)N4C([H])([H])C([H])([H])C([H])([H])C([H])(n5nc(-c6c([H])c([H])c(Oc7c([H])c([H])c(F)c([H])c7F)c([H])c6[H])c(C(=O)N([H])[H])c5N([H])[H])C4([H])[H])c([H])c(F)c3C([H])([H])[H])c([H])c([H])c2C1([H])[H]

$$$$
84:0:0
     RDKit          3D

 95104  0  0  1  0  0  0  0  0999 V2000
  -31.5070  -22.0010   19.3740 C   0  0  0  0  0  0  0  0  0  0  0  0
  -31.6710  -23.4890   19.0320 C   0  0  0  0  0  2  0  0  0  0  0  0
  -30.8770  -24.4360   19.9320 C   0  0  0  0  0  2  0  0  0  0  0  0
  -29.3290  -22.5180   20.4470 C   0  0  0  0  0  2  0  0  0  0  0  0
  -29.4070  -24.0340   19.9330 C   0  0  0  0  0  3  0  0  0  0  0  0
  -30.3320  -21.5270   19.8890 N   0  0  0  0  0  0  0  0  0  0  0  0
  -32.4820  -21.2790   19.1370 O   0  0  0  0  0  0  0  0  0  0  0  0
  -30.2200  -19.4430   21.3560 C   0  0  0  0  0  3  0  0  0  0  0  0
  -30.1240  -19.1670   18.9720 C   0  0  0  0  0  3  0  0  0  0  0  0
  -30.2300  -18.0190   21.5110 C   0  0  0  0  0  0  0  0  0  0  0  0
  -30.2010  -20.0640   20.0790 C   0  0  0  0  0  0  0  0  0  0  0  0
  -30.2150  -17.1340   20.3890 C   0  0  0  0  0  0  0  0  0  0  0  0
  -30.1320  -17.7500   19.1120 C   0  0  0  0  0  0  0  0  0  0  0  0
  -30.2740  -17.4420   22.9150 C   0  0  0  0  0  1  0  0  0  0  0  0
  -30.0170  -16.9870   17.9980 F   0  0  0  0  0  0  0  0  0  0  0  0
  -30.8860  -14.6650   20.0350 C   0  0  0  0  0  0  0  0  0  0  0  0
  -30.5920  -12.4650   18.9180 C   0  0  0  0  0  2  0  0  0  0  0  0
  -29.5590  -12.6440   17.7840 C   0  0  0  0  0  2  0  0  0  0  0  0
  -28.1230  -12.4690   18.3180 C   0  0  0  0  0  2  0  0  0  0  0  0
  -27.8640  -13.2850   19.6130 C   0  0  0  0  0  3  0  0  0  0  0  0
  -29.0030  -13.0820   20.6380 C   0  0  0  0  0  2  0  0  0  0  0  0
  -30.2670  -13.4430   19.9770 N   0  0  0  0  0  0  0  0  0  0  0  0
  -32.0010  -14.8420   19.5390 O   0  0  0  0  0  0  0  0  0  0  0  0
  -30.1560  -15.6850   20.5840 N   0  0  0  0  0  0  0  0  0  0  0  0
  -29.3670  -15.3670   21.1240 H   0  0  0  0  0  0  0  0  0  0  0  0
  -25.5470  -13.8610   20.5650 C   0  0  0  0  0  0  0  0  0  0  0  0
  -24.5010  -13.0760   20.9700 C   0  0  0  0  0  0  0  0  0  0  0  0
  -24.9370  -11.7250   20.8110 C   0  0  0  0  0  0  0  0  0  0  0  0
  -26.5530  -12.9870   20.1870 N   0  0  0  0  0  0  0  0  0  0  0  0
  -26.1970  -11.6930   20.3930 N   0  0  0  0  0  0  0  0  0  0  0  0
  -24.2070  -10.4610   20.9780 C   0  0  0  0  0  0  0  0  0  0  0  0
  -24.6250   -9.4840   21.9080 C   0  0  0  0  0  3  0  0  0  0  0  0
  -23.8970   -8.2850   22.0630 C   0  0  0  0  0  3  0  0  0  0  0  0
  -22.7360   -8.0540   21.2880 C   0  0  0  0  0  0  0  0  0  0  0  0
  -22.3380   -9.0200   20.3470 C   0  0  0  0  0  3  0  0  0  0  0  0
  -23.0670  -10.2100   20.1890 C   0  0  0  0  0  3  0  0  0  0  0  0
  -21.9810   -6.9080   21.3520 O   0  0  0  0  0  0  0  0  0  0  0  0
  -21.8030   -6.2290   22.5300 C   0  0  0  0  0  0  0  0  0  0  0  0
  -21.2110   -6.8370   23.6580 C   0  0  0  0  0  3  0  0  0  0  0  0
  -20.9830   -6.0820   24.8270 C   0  0  0  0  0  3  0  0  0  0  0  0
  -21.3360   -4.7210   24.8660 C   0  0  0  0  0  0  0  0  0  0  0  0
  -21.9210   -4.1120   23.7420 C   0  0  0  0  0  3  0  0  0  0  0  0
  -22.1510   -4.8640   22.5760 C   0  0  0  0  0  0  0  0  0  0  0  0
  -22.6950   -4.2670   21.4880 F   0  0  0  0  0  0  0  0  0  0  0  0
  -21.1110   -3.9930   25.9840 F   0  0  0  0  0  0  0  0  0  0  0  0
  -23.1390  -13.5500   21.3890 C   0  0  0  0  0  0  0  0  0  0  0  0
  -22.4850  -12.8210   22.2880 N   0  0  0  0  0  0  0  0  0  0  0  0
  -22.6660  -14.6000   20.9550 O   0  0  0  0  0  0  0  0  0  0  0  0
  -22.8830  -11.9720   22.6600 H   0  0  0  0  0  0  0  0  0  0  0  0
  -21.5750  -13.1200   22.6100 H   0  0  0  0  0  0  0  0  0  0  0  0
  -25.7200  -15.2380   20.4680 N   0  0  0  0  0  0  0  0  0  0  0  0
  -24.9750  -15.8910   20.6850 H   0  0  0  0  0  0  0  0  0  0  0  0
  -26.5450  -15.6910   20.0950 H   0  0  0  0  0  0  0  0  0  0  0  0
  -28.5260  -25.1350   20.6710 C   0  0  0  0  0  2  0  0  0  0  0  0
  -28.6670  -26.5470   20.2450 O   0  0  0  0  0  0  0  0  0  0  0  0
  -24.7660  -31.8370   23.2270 C   0  0  0  0  0  0  0  0  0  0  0  0
  -27.5210  -27.3500   20.2180 C   0  0  0  0  0  0  0  0  0  0  0  0
  -23.6150  -30.4160   21.5640 C   0  0  0  0  0  3  0  0  0  0  0  0
  -25.1210  -28.8950   20.1640 C   0  0  0  0  0  0  0  0  0  0  0  0
  -26.1480  -30.7920   21.4210 C   0  0  0  0  0  2  0  0  0  0  0  0
  -26.2670  -29.4150   20.7790 C   0  0  0  0  0  0  0  0  0  0  0  0
  -27.4730  -28.6550   20.7940 C   0  0  0  0  0  3  0  0  0  0  0  0
  -26.3560  -26.8790   19.5750 C   0  0  0  0  0  3  0  0  0  0  0  0
  -25.1670  -27.6310   19.5540 C   0  0  0  0  0  3  0  0  0  0  0  0
  -23.8650  -29.7430   20.1880 C   0  0  0  0  0  2  0  0  0  0  0  0
  -24.8610  -31.0330   22.1280 N   0  0  0  0  0  0  0  0  0  0  0  0
  -23.6690  -32.0930   23.7440 O   0  0  0  0  0  0  0  0  0  0  0  0
  -22.9580  -29.3870   22.5130 C   0  0  0  0  0  0  0  0  0  0  0  0
  -21.6330  -29.2030   22.3800 N   0  0  0  0  0  0  0  0  0  0  0  0
  -23.6380  -28.7560   23.3270 O   0  0  0  0  0  0  0  0  0  0  0  0
  -21.1450  -29.7640   21.6970 H   0  0  0  0  0  0  0  0  0  0  0  0
  -18.2560  -28.0110   22.8820 C   0  0  0  0  0  0  0  0  0  0  0  0
  -20.8170  -28.2540   23.1380 C   0  0  0  0  0  3  0  0  0  0  0  0
  -20.9080  -26.8330   22.5350 C   0  0  0  0  0  2  0  0  0  0  0  0
  -19.7980  -26.5350   21.5230 C   0  0  0  0  0  2  0  0  0  0  0  0
  -18.4220  -26.6750   22.1780 C   0  0  0  0  0  2  0  0  0  0  0  0
  -19.3820  -28.7600   23.3180 C   0  0  0  0  0  0  0  0  0  0  0  0
  -19.1720  -30.0130   23.9350 C   0  0  0  0  0  3  0  0  0  0  0  0
  -17.8710  -30.5160   24.1210 C   0  0  0  0  0  3  0  0  0  0  0  0
  -16.7600  -29.7640   23.7010 C   0  0  0  0  0  3  0  0  0  0  0  0
  -16.9540  -28.5130   23.0880 C   0  0  0  0  0  3  0  0  0  0  0  0
  -26.0270  -32.4920   23.8700 C   0  0  0  0  0  3  0  0  0  0  0  0
  -25.6750  -33.8710   24.2350 N   0  0  0  0  0  0  0  0  0  0  0  0
  -25.9570  -34.9510   23.4950 C   0  0  0  0  0  0  0  0  0  0  0  0
  -26.6120  -34.8930   22.4500 O   0  0  0  0  0  0  0  0  0  0  0  0
  -25.0900  -33.9880   25.0500 H   0  0  0  0  0  0  0  0  0  0  0  0
  -24.1520  -36.6800   23.2150 C   0  0  0  0  0  1  0  0  0  0  0  0
  -25.4280  -36.3120   23.9890 C   0  0  0  0  0  3  0  0  0  0  0  0
  -27.5430  -37.2680   24.7870 C   0  0  0  0  0  1  0  0  0  0  0  0
  -26.4160  -37.4050   23.8690 N   0  0  0  0  0  0  0  0  0  0  0  0
  -25.9770  -38.3070   24.0380 H   0  0  0  0  0  0  0  0  0  0  0  0
  -26.5620  -31.7030   25.1280 C   0  0  1  0  0  0  0  0  0  0  0  0
  -25.4710  -31.4010   26.1820 C   0  0  0  0  0  1  0  0  0  0  0  0
  -27.1920  -30.3570   24.7040 C   0  0  0  0  0  1  0  0  0  0  0  0
  -27.6810  -32.5170   25.8200 C   0  0  0  0  0  1  0  0  0  0  0  0
  1  6  1  0
  2  1  1  0
  2  3  1  0
  3  5  1  0
  5  4  1  0
  5 54  1  0
  6 11  1  0
  6  4  1  0
  7  1  2  0
  8 10  1  0
  9 13  2  0
  9 11  1  0
 10 14  1  0
 11  8  2  0
 12 24  1  0
 12 10  2  0
 13 12  1  0
 15 13  1  0
 16 24  1  0
 17 22  1  0
 18 19  1  0
 18 17  1  0
 20 19  1  0
 20 29  1  0
 20 21  1  0
 22 16  1  0
 22 21  1  0
 23 16  2  0
 24 25  1  0
 26 27  2  0
 27 46  1  0
 28 27  1  0
 28 31  1  0
 29 30  1  0
 29 26  1  0
 30 28  2  0
 31 32  1  0
 32 33  2  0
 34 37  1  0
 34 33  1  0
 35 34  2  0
 36 35  1  0
 36 31  2  0
 37 38  1  0
 38 43  2  0
 38 39  1  0
 39 40  2  0
 40 41  1  0
 41 45  1  0
 42 41  2  0
 43 42  1  0
 44 43  1  0
 46 47  1  0
 47 50  1  0
 47 49  1  0
 48 46  2  0
 51 26  1  0
 51 52  1  0
 53 51  1  0
 55 54  1  0
 56 67  2  0
 57 55  1  0
 57 62  1  0
 58 66  1  0
 58 68  1  0
 59 65  1  0
 59 61  1  0
 60 66  1  0
 61 62  2  0
 61 60  1  0
 63 57  2  0
 64 63  1  0
 64 59  2  0
 65 58  1  0
 66 56  1  0
 68 70  2  0
 69 68  1  0
 71 69  1  0
 72 81  2  0
 72 77  1  0
 73 69  1  0
 73 77  1  0
 74 73  1  0
 75 76  1  0
 75 74  1  0
 76 72  1  0
 77 78  2  0
 78 79  1  0
 80 79  2  0
 81 80  1  0
 82 56  1  0
 82 83  1  0
 82 92  1  0
 83 86  1  0
 84 88  1  0
 84 83  1  0
 85 84  2  0
 88 87  1  0
 90 88  1  0
 90 91  1  0
 90 89  1  0
 92 95  1  1
 92 93  1  0
 94 92  1  0
M  ISO  4  16 100  24 100  54 101  55 101
M  END
>  <TORSDO>  (85) 
F 18

>  <SCORE>  (85) 
-13.551

>  <name>  (85) 
84

>  <ligand_id>  (85) 
84

>  <original_smiles>  (85) 
[H]c1c([H])c([H])c2c(c1[H])C([H])([H])C([H])([H])C([H])([H])C2([H])N([H])C(=O)C1([H])N(C(=O)C([H])(N([H])C(=O)C([H])(N([H])C([H])([H])[H])C([H])([H])[H])C(C([H])([H])[H])(C([H])([H])[H])C([H])([H])[H])C([H])([H])c2c([H])c(OC([H])([H])C3([H])C([H])([H])N(c4c([H])c(F)c(N([H])C(=O)N5C([H])([H])C([H])([H])C([H])([H])C([H])(n6nc(-c7c([H])c([H])c(Oc8c([H])c([H])c(F)c([H])c8F)c([H])c7[H])c(C(=O)N([H])[H])c6N([H])[H])C5([H])[H])c(C([H])([H])[H])c4[H])C(=O)C([H])([H])C3([H])[H])c([H])c([H])c2C1([H])[H]

>  <smiles>  (85) 
[H]c1c([H])c([H])c2c(c1[H])C([H])([H])C([H])([H])C([H])([H])C2([H])N([H])C(=O)C1([H])N(C(=O)C([H])(N([H])C(=O)C([H])(N([H])C([H])([H])[H])C([H])([H])[H])C(C([H])([H])[H])(C([H])([H])[H])C([H])([H])[H])C([H])([H])c2c([H])c(OC([H])([H])C3([H])C([H])([H])N(c4c([H])c(F)c(N([H])C(=O)N5C([H])([H])C([H])([H])C([H])([H])C([H])(n6nc(-c7c([H])c([H])c(Oc8c([H])c([H])c(F)c([H])c8F)c([H])c7[H])c(C(=O)N([H])[H])c6N([H])[H])C5([H])[H])c(C([H])([H])[H])c4[H])C(=O)C([H])([H])C3([H])[H])c([H])c([H])c2C1([H])[H]

$$$$
85:0:0
     RDKit          3D

 94102  0  0  1  0  0  0  0  0999 V2000
  -29.5330  -20.6090   20.2220 C   0  0  0  0  0  0  0  0  0  0  0  0
  -29.0810  -20.3390   19.0270 N   0  0  0  0  0  4  0  0  0  0  0  0
  -29.1200  -19.4020   18.6350 H   0  0  0  0  0  0  0  0  0  0  0  0
  -28.7280  -21.0380   18.3820 H   0  0  0  0  0  0  0  0  0  0  0  0
  -31.1900  -17.1090   22.2630 C   0  0  0  0  0  3  0  0  0  0  0  0
  -31.5870  -18.4060   22.6390 C   0  0  0  0  0  3  0  0  0  0  0  0
  -29.6310  -18.0860   20.6660 C   0  0  0  0  0  3  0  0  0  0  0  0
  -30.0650  -19.4100   20.9880 C   0  0  0  0  0  0  0  0  0  0  0  0
  -30.2040  -16.9310   21.2710 C   0  0  0  0  0  0  0  0  0  0  0  0
  -31.0430  -19.5480   22.0120 C   0  0  0  0  0  0  0  0  0  0  0  0
  -31.5010  -20.7670   22.3980 F   0  0  0  0  0  0  0  0  0  0  0  0
  -30.4670  -14.6260   20.3370 C   0  0  0  0  0  0  0  0  0  0  0  0
  -30.1570  -12.5220   19.0700 C   0  0  0  0  0  2  0  0  0  0  0  0
  -29.1610  -12.7740   17.9210 C   0  0  0  0  0  2  0  0  0  0  0  0
  -27.7090  -12.5800   18.4060 C   0  0  0  0  0  2  0  0  0  0  0  0
  -27.4110  -13.3350   19.7320 C   0  0  0  0  0  3  0  0  0  0  0  0
  -28.5210  -13.0770   20.7730 C   0  0  0  0  0  2  0  0  0  0  0  0
  -29.8080  -13.4480   20.1620 N   0  0  0  0  0  0  0  0  0  0  0  0
  -31.5730  -14.8540   19.8370 O   0  0  0  0  0  0  0  0  0  0  0  0
  -29.7560  -15.6080   20.9380 N   0  0  0  0  0  0  0  0  0  0  0  0
  -28.7970  -15.3800   21.1510 H   0  0  0  0  0  0  0  0  0  0  0  0
  -25.0280  -13.8430   20.5550 C   0  0  0  0  0  0  0  0  0  0  0  0
  -24.0050  -13.0280   20.9530 C   0  0  0  0  0  0  0  0  0  0  0  0
  -24.5080  -11.6920   20.8710 C   0  0  0  0  0  0  0  0  0  0  0  0
  -26.0910  -13.0020   20.2580 N   0  0  0  0  0  0  0  0  0  0  0  0
  -25.7830  -11.7040   20.5080 N   0  0  0  0  0  0  0  0  0  0  0  0
  -23.8310  -10.4030   21.0600 C   0  0  0  0  0  0  0  0  0  0  0  0
  -24.3070   -9.4490   21.9850 C   0  0  0  0  0  3  0  0  0  0  0  0
  -23.6300   -8.2230   22.1640 C   0  0  0  0  0  3  0  0  0  0  0  0
  -22.4590   -7.9440   21.4190 C   0  0  0  0  0  0  0  0  0  0  0  0
  -22.0010   -8.8890   20.4830 C   0  0  0  0  0  3  0  0  0  0  0  0
  -22.6810  -10.1050   20.3010 C   0  0  0  0  0  3  0  0  0  0  0  0
  -21.7520   -6.7690   21.5050 O   0  0  0  0  0  0  0  0  0  0  0  0
  -21.7260   -6.0280   22.6580 C   0  0  0  0  0  0  0  0  0  0  0  0
  -21.2420   -6.5590   23.8740 C   0  0  0  0  0  3  0  0  0  0  0  0
  -21.1650   -5.7400   25.0190 C   0  0  0  0  0  3  0  0  0  0  0  0
  -21.5640   -4.3910   24.9480 C   0  0  0  0  0  0  0  0  0  0  0  0
  -22.0410   -3.8610   23.7380 C   0  0  0  0  0  3  0  0  0  0  0  0
  -22.1180   -4.6760   22.5950 C   0  0  0  0  0  0  0  0  0  0  0  0
  -22.5560   -4.1510   21.4250 F   0  0  0  0  0  0  0  0  0  0  0  0
  -21.4830   -3.6030   26.0460 F   0  0  0  0  0  0  0  0  0  0  0  0
  -22.6030  -13.4490   21.2900 C   0  0  0  0  0  0  0  0  0  0  0  0
  -21.9330  -12.7090   22.1660 N   0  0  0  0  0  0  0  0  0  0  0  0
  -22.1100  -14.4690   20.8130 O   0  0  0  0  0  0  0  0  0  0  0  0
  -22.3400  -11.8820   22.5770 H   0  0  0  0  0  0  0  0  0  0  0  0
  -20.9950  -12.9730   22.4260 H   0  0  0  0  0  0  0  0  0  0  0  0
  -25.1410  -15.2210   20.3980 N   0  0  0  0  0  0  0  0  0  0  0  0
  -24.3600  -15.8500   20.5530 H   0  0  0  0  0  0  0  0  0  0  0  0
  -25.9510  -15.6920   20.0160 H   0  0  0  0  0  0  0  0  0  0  0  0
  -29.0950  -22.9460   20.0250 C   0  0  0  0  0  3  0  0  0  0  0  0
  -29.5640  -21.9230   20.6640 N   0  0  0  0  0  0  0  0  0  0  0  0
  -29.2530  -24.4210   20.4280 C   0  0  0  0  0  2  0  0  0  0  0  0
  -28.1450  -25.3310   19.8320 C   0  0  0  0  0  2  0  0  0  0  0  0
  -28.2810  -26.7460   20.1160 O   0  0  0  0  0  0  0  0  0  0  0  0
  -24.5510  -31.9740   23.2380 C   0  0  0  0  0  0  0  0  0  0  0  0
  -27.1240  -27.5160   20.0860 C   0  0  0  0  0  0  0  0  0  0  0  0
  -23.3170  -30.5860   21.6070 C   0  0  0  0  0  3  0  0  0  0  0  0
  -24.7410  -29.0620   20.1420 C   0  0  0  0  0  0  0  0  0  0  0  0
  -25.8450  -30.9280   21.3780 C   0  0  0  0  0  2  0  0  0  0  0  0
  -25.9130  -29.5630   20.7210 C   0  0  0  0  0  0  0  0  0  0  0  0
  -27.1060  -28.7980   20.6910 C   0  0  0  0  0  3  0  0  0  0  0  0
  -25.9300  -27.0480   19.4820 C   0  0  0  0  0  3  0  0  0  0  0  0
  -24.7460  -27.8060   19.5190 C   0  0  0  0  0  3  0  0  0  0  0  0
  -23.5020  -29.9260   20.2180 C   0  0  0  0  0  2  0  0  0  0  0  0
  -24.5900  -31.1790   22.1310 N   0  0  0  0  0  0  0  0  0  0  0  0
  -23.4800  -32.2450   23.7950 O   0  0  0  0  0  0  0  0  0  0  0  0
  -22.6790  -29.5570   22.5680 C   0  0  0  0  0  0  0  0  0  0  0  0
  -21.3560  -29.3630   22.4470 N   0  0  0  0  0  0  0  0  0  0  0  0
  -23.3710  -28.9390   23.3820 O   0  0  0  0  0  0  0  0  0  0  0  0
  -20.8580  -29.9150   21.7620 H   0  0  0  0  0  0  0  0  0  0  0  0
  -17.9930  -28.1370   22.9590 C   0  0  0  0  0  0  0  0  0  0  0  0
  -20.5500  -28.4170   23.2200 C   0  0  0  0  0  3  0  0  0  0  0  0
  -20.6620  -26.9870   22.6430 C   0  0  0  0  0  2  0  0  0  0  0  0
  -19.5590  -26.6540   21.6340 C   0  0  0  0  0  2  0  0  0  0  0  0
  -18.1790  -26.7880   22.2850 C   0  0  0  0  0  2  0  0  0  0  0  0
  -19.1080  -28.9090   23.3840 C   0  0  0  0  0  0  0  0  0  0  0  0
  -18.8810  -30.1710   23.9740 C   0  0  0  0  0  3  0  0  0  0  0  0
  -17.5730  -30.6610   24.1460 C   0  0  0  0  0  3  0  0  0  0  0  0
  -16.4740  -29.8860   23.7380 C   0  0  0  0  0  3  0  0  0  0  0  0
  -16.6840  -28.6260   23.1500 C   0  0  0  0  0  3  0  0  0  0  0  0
  -25.8480  -32.5980   23.8400 C   0  0  0  0  0  3  0  0  0  0  0  0
  -26.3810  -31.8270   25.1080 C   0  0  1  0  0  0  0  0  0  0  0  0
  -25.3020  -31.5890   26.1900 C   0  0  0  0  0  1  0  0  0  0  0  0
  -26.9590  -30.4490   24.7090 C   0  0  0  0  0  1  0  0  0  0  0  0
  -27.5420  -32.6200   25.7560 C   0  0  0  0  0  1  0  0  0  0  0  0
  -25.5520  -33.9990   24.1690 N   0  0  0  0  0  0  0  0  0  0  0  0
  -25.8830  -35.0480   23.4040 C   0  0  0  0  0  0  0  0  0  0  0  0
  -26.5420  -34.9380   22.3660 O   0  0  0  0  0  0  0  0  0  0  0  0
  -24.9670  -34.1610   24.9760 H   0  0  0  0  0  0  0  0  0  0  0  0
  -24.1700  -36.8550   23.0530 C   0  0  0  0  0  1  0  0  0  0  0  0
  -25.4070  -36.4400   23.8630 C   0  0  0  0  0  3  0  0  0  0  0  0
  -27.5460  -37.3070   24.7010 C   0  0  0  0  0  1  0  0  0  0  0  0
  -26.4500  -37.4840   23.7520 N   0  0  0  0  0  0  0  0  0  0  0  0
  -26.0500  -38.4070   23.8990 H   0  0  0  0  0  0  0  0  0  0  0  0
  1 51  1  0
  1  8  1  0
  2  1  2  0
  3  2  1  0
  4  2  1  0
  5  6  1  0
  7  8  2  0
  7  9  1  0
  8 10  1  0
  9  5  2  0
 10 11  1  0
 10  6  2  0
 12 20  1  0
 13 18  1  0
 14 15  1  0
 14 13  1  0
 16 15  1  0
 16 25  1  0
 16 17  1  0
 18 12  1  0
 18 17  1  0
 19 12  2  0
 20 21  1  0
 20  9  1  0
 22 23  2  0
 23 42  1  0
 24 23  1  0
 24 27  1  0
 25 26  1  0
 25 22  1  0
 26 24  2  0
 27 28  1  0
 28 29  2  0
 30 33  1  0
 30 29  1  0
 31 30  2  0
 32 31  1  0
 32 27  2  0
 33 34  1  0
 34 35  1  0
 35 36  2  0
 37 36  1  0
 37 41  1  0
 38 37  2  0
 39 34  2  0
 39 38  1  0
 40 39  1  0
 42 43  1  0
 43 46  1  0
 43 45  1  0
 44 42  2  0
 47 48  1  0
 47 22  1  0
 49 47  1  0
 50 52  1  0
 50 51  2  0
 53 54  1  0
 53 52  1  0
 55 66  2  0
 56 54  1  0
 56 61  1  0
 57 65  1  0
 57 67  1  0
 58 64  1  0
 58 60  1  0
 59 65  1  0
 60 59  1  0
 61 60  2  0
 62 63  1  0
 62 56  2  0
 63 58  2  0
 64 57  1  0
 65 55  1  0
 67 69  2  0
 68 67  1  0
 70 68  1  0
 71 80  2  0
 71 76  1  0
 72 68  1  0
 72 76  1  0
 73 72  1  0
 74 75  1  0
 74 73  1  0
 75 71  1  0
 76 77  2  0
 77 78  1  0
 79 78  2  0
 80 79  1  0
 81 55  1  0
 81 86  1  0
 81 82  1  0
 82 85  1  1
 82 83  1  0
 84 82  1  0
 86 89  1  0
 87 91  1  0
 87 86  1  0
 88 87  2  0
 91 90  1  0
 93 91  1  0
 93 94  1  0
 93 92  1  0
M  ISO  4  12 100  20 100  53 101  54 101
M  END
>  <TORSDO>  (86) 
F 20

>  <SCORE>  (86) 
-13.575

>  <name>  (86) 
85

>  <ligand_id>  (86) 
85

>  <original_smiles>  (86) 
[H]C(=NC(c1c([H])c(N([H])C(=O)N2C([H])([H])C([H])([H])C([H])([H])C([H])(n3nc(-c4c([H])c([H])c(Oc5c([H])c([H])c(F)c([H])c5F)c([H])c4[H])c(C(=O)N([H])[H])c3N([H])[H])C2([H])[H])c([H])c([H])c1F)=[N+]([H])[H])C([H])([H])C([H])([H])Oc1c([H])c([H])c2c(c1[H])C([H])([H])N(C(=O)C([H])(N([H])C(=O)C([H])(N([H])C([H])([H])[H])C([H])([H])[H])C(C([H])([H])[H])(C([H])([H])[H])C([H])([H])[H])C([H])(C(=O)N([H])C1([H])c3c([H])c([H])c([H])c([H])c3C([H])([H])C([H])([H])C1([H])[H])C2([H])[H]

>  <smiles>  (86) 
[H]C(=NC(c1c([H])c(N([H])C(=O)N2C([H])([H])C([H])([H])C([H])([H])C([H])(n3nc(-c4c([H])c([H])c(Oc5c([H])c([H])c(F)c([H])c5F)c([H])c4[H])c(C(=O)N([H])[H])c3N([H])[H])C2([H])[H])c([H])c([H])c1F)=[N+]([H])[H])C([H])([H])C([H])([H])Oc1c([H])c([H])c2c(c1[H])C([H])([H])N(C(=O)C([H])(N([H])C(=O)C([H])(N([H])C([H])([H])[H])C([H])([H])[H])C(C([H])([H])[H])(C([H])([H])[H])C([H])([H])[H])C([H])(C(=O)N([H])C1([H])c3c([H])c([H])c([H])c([H])c3C([H])([H])C([H])([H])C1([H])[H])C2([H])[H]

$$$$
86:0:0
     RDKit          3D

 96105  0  0  1  0  0  0  0  0999 V2000
  -31.1300  -20.5440   18.6210 C   0  0  0  0  0  0  0  0  0  0  0  0
  -29.6540  -21.5020   20.2350 C   0  0  0  0  0  0  0  0  0  0  0  0
  -31.7530  -21.9190   18.3130 C   0  0  0  0  0  2  0  0  0  0  0  0
  -31.3990  -23.0180   19.3230 C   0  0  0  0  0  2  0  0  0  0  0  0
  -29.9120  -22.9480   19.6880 C   0  0  0  0  0  3  0  0  0  0  0  0
  -30.1460  -20.3980   19.5600 N   0  0  0  0  0  0  0  0  0  0  0  0
  -31.5670  -19.5940   17.9600 O   0  0  0  0  0  0  0  0  0  0  0  0
  -29.0090  -21.3910   21.2850 O   0  0  0  0  0  0  0  0  0  0  0  0
  -27.5980  -17.5930   19.6260 C   0  0  0  0  0  3  0  0  0  0  0  0
  -28.3070  -16.5500   20.2350 C   0  0  0  0  0  3  0  0  0  0  0  0
  -30.2920  -17.9430   20.3110 C   0  0  0  0  0  3  0  0  0  0  0  0
  -28.2150  -18.8210   19.3370 C   0  0  0  0  0  0  0  0  0  0  0  0
  -29.5590  -19.0620   19.7580 C   0  0  0  0  0  0  0  0  0  0  0  0
  -29.6790  -16.6590   20.5090 C   0  0  0  0  0  0  0  0  0  0  0  0
  -27.3900  -19.8300   18.5440 C   0  0  0  0  0  1  0  0  0  0  0  0
  -30.8680  -14.4460   20.4160 C   0  0  0  0  0  0  0  0  0  0  0  0
  -30.6210  -12.1420   19.5240 C   0  0  0  0  0  2  0  0  0  0  0  0
  -29.7110  -12.1780   18.2770 C   0  0  0  0  0  2  0  0  0  0  0  0
  -28.2270  -12.0730   18.6760 C   0  0  0  0  0  2  0  0  0  0  0  0
  -27.8440  -13.0470   19.8220 C   0  0  0  0  0  3  0  0  0  0  0  0
  -28.8740  -12.9760   20.9760 C   0  0  0  0  0  2  0  0  0  0  0  0
  -30.2160  -13.2390   20.4250 N   0  0  0  0  0  0  0  0  0  0  0  0
  -31.9510  -14.6020   19.8480 O   0  0  0  0  0  0  0  0  0  0  0  0
  -30.2690  -15.4680   21.0790 N   0  0  0  0  0  0  0  0  0  0  0  0
  -29.6560  -15.0630   21.7670 H   0  0  0  0  0  0  0  0  0  0  0  0
  -25.4530  -13.7390   20.4970 C   0  0  0  0  0  0  0  0  0  0  0  0
  -24.3620  -13.0150   20.8870 C   0  0  0  0  0  0  0  0  0  0  0  0
  -24.7740  -11.6480   20.8640 C   0  0  0  0  0  0  0  0  0  0  0  0
  -26.4760  -12.8230   20.2910 N   0  0  0  0  0  0  0  0  0  0  0  0
  -26.0650  -11.5580   20.5620 N   0  0  0  0  0  0  0  0  0  0  0  0
  -23.9950  -10.4200   21.0540 C   0  0  0  0  0  0  0  0  0  0  0  0
  -24.3760   -9.4420   21.9980 C   0  0  0  0  0  3  0  0  0  0  0  0
  -23.6010   -8.2760   22.1760 C   0  0  0  0  0  3  0  0  0  0  0  0
  -22.4290   -8.0800   21.4060 C   0  0  0  0  0  0  0  0  0  0  0  0
  -22.0630   -9.0480   20.4530 C   0  0  0  0  0  3  0  0  0  0  0  0
  -22.8410  -10.2050   20.2760 C   0  0  0  0  0  3  0  0  0  0  0  0
  -21.6290   -6.9670   21.4880 O   0  0  0  0  0  0  0  0  0  0  0  0
  -21.5450   -6.2260   22.6390 C   0  0  0  0  0  0  0  0  0  0  0  0
  -21.0800   -6.7820   23.8510 C   0  0  0  0  0  3  0  0  0  0  0  0
  -20.9450   -5.9670   24.9930 C   0  0  0  0  0  3  0  0  0  0  0  0
  -21.2630   -4.5970   24.9240 C   0  0  0  0  0  0  0  0  0  0  0  0
  -21.7210   -4.0420   23.7170 C   0  0  0  0  0  3  0  0  0  0  0  0
  -21.8580   -4.8540   22.5780 C   0  0  0  0  0  0  0  0  0  0  0  0
  -22.2790   -4.3080   21.4110 F   0  0  0  0  0  0  0  0  0  0  0  0
  -21.1280   -3.8140   26.0190 F   0  0  0  0  0  0  0  0  0  0  0  0
  -22.9860  -13.5540   21.1510 C   0  0  0  0  0  0  0  0  0  0  0  0
  -22.2310  -12.9090   22.0320 N   0  0  0  0  0  0  0  0  0  0  0  0
  -22.5900  -14.5860   20.6130 O   0  0  0  0  0  0  0  0  0  0  0  0
  -22.5620  -12.0770   22.4970 H   0  0  0  0  0  0  0  0  0  0  0  0
  -21.3080  -13.2570   22.2440 H   0  0  0  0  0  0  0  0  0  0  0  0
  -25.6340  -15.0940   20.2690 N   0  0  0  0  0  0  0  0  0  0  0  0
  -24.8500  -15.7360   20.3120 H   0  0  0  0  0  0  0  0  0  0  0  0
  -26.4440  -15.4870   19.8050 H   0  0  0  0  0  0  0  0  0  0  0  0
  -29.4830  -24.2000   20.5660 C   0  0  0  0  0  2  0  0  0  0  0  0
  -28.2340  -25.0280   20.1020 C   0  0  0  0  0  2  0  0  0  0  0  0
  -28.3250  -26.4580   20.3820 O   0  0  0  0  0  0  0  0  0  0  0  0
  -24.5840  -31.8560   23.2200 C   0  0  0  0  0  0  0  0  0  0  0  0
  -27.1760  -27.2420   20.2950 C   0  0  0  0  0  0  0  0  0  0  0  0
  -23.3730  -30.4370   21.6000 C   0  0  0  0  0  3  0  0  0  0  0  0
  -24.8140  -28.8360   20.2270 C   0  0  0  0  0  0  0  0  0  0  0  0
  -25.9110  -30.7310   21.4270 C   0  0  0  0  0  2  0  0  0  0  0  0
  -25.9790  -29.3400   20.8190 C   0  0  0  0  0  0  0  0  0  0  0  0
  -27.1590  -28.5530   20.8450 C   0  0  0  0  0  3  0  0  0  0  0  0
  -25.9910  -26.7700   19.6850 C   0  0  0  0  0  3  0  0  0  0  0  0
  -24.8200  -27.5540   19.6540 C   0  0  0  0  0  3  0  0  0  0  0  0
  -23.5870  -29.7230   20.2400 C   0  0  0  0  0  2  0  0  0  0  0  0
  -24.6410  -31.0250   22.1400 N   0  0  0  0  0  0  0  0  0  0  0  0
  -23.5000  -32.1640   23.7370 O   0  0  0  0  0  0  0  0  0  0  0  0
  -22.6870  -29.4540   22.5780 C   0  0  0  0  0  0  0  0  0  0  0  0
  -21.3590  -29.3000   22.4430 N   0  0  0  0  0  0  0  0  0  0  0  0
  -23.3490  -28.8310   23.4130 O   0  0  0  0  0  0  0  0  0  0  0  0
  -20.8860  -29.8500   21.7400 H   0  0  0  0  0  0  0  0  0  0  0  0
  -17.9490  -28.2270   22.9740 C   0  0  0  0  0  0  0  0  0  0  0  0
  -20.5150  -28.3980   23.2280 C   0  0  0  0  0  3  0  0  0  0  0  0
  -20.5640  -26.9590   22.6640 C   0  0  0  0  0  2  0  0  0  0  0  0
  -19.4450  -26.6670   21.6600 C   0  0  0  0  0  2  0  0  0  0  0  0
  -18.0730  -26.8670   22.3090 C   0  0  0  0  0  2  0  0  0  0  0  0
  -19.0960  -28.9530   23.3910 C   0  0  0  0  0  0  0  0  0  0  0  0
  -18.9240  -30.2300   23.9710 C   0  0  0  0  0  3  0  0  0  0  0  0
  -17.6380  -30.7750   24.1420 C   0  0  0  0  0  3  0  0  0  0  0  0
  -16.5050  -30.0460   23.7410 C   0  0  0  0  0  3  0  0  0  0  0  0
  -16.6620  -28.7740   23.1600 C   0  0  0  0  0  3  0  0  0  0  0  0
  -25.8720  -32.4790   23.8400 C   0  0  0  0  0  3  0  0  0  0  0  0
  -26.3890  -31.7010   25.1120 C   0  0  1  0  0  0  0  0  0  0  0  0
  -25.2970  -31.4560   26.1800 C   0  0  0  0  0  1  0  0  0  0  0  0
  -26.9740  -30.3250   24.7110 C   0  0  0  0  0  1  0  0  0  0  0  0
  -27.5410  -32.4920   25.7770 C   0  0  0  0  0  1  0  0  0  0  0  0
  -25.5700  -33.8770   24.1760 N   0  0  0  0  0  0  0  0  0  0  0  0
  -25.9020  -34.9300   23.4170 C   0  0  0  0  0  0  0  0  0  0  0  0
  -26.5630  -34.8260   22.3800 O   0  0  0  0  0  0  0  0  0  0  0  0
  -24.9820  -34.0330   24.9810 H   0  0  0  0  0  0  0  0  0  0  0  0
  -24.1860  -36.7360   23.0660 C   0  0  0  0  0  1  0  0  0  0  0  0
  -25.4210  -36.3190   23.8810 C   0  0  0  0  0  3  0  0  0  0  0  0
  -27.5500  -37.1930   24.7380 C   0  0  0  0  0  1  0  0  0  0  0  0
  -26.4600  -37.3670   23.7800 N   0  0  0  0  0  0  0  0  0  0  0  0
  -26.0570  -38.2890   23.9200 H   0  0  0  0  0  0  0  0  0  0  0  0
  1  6  1  0
  2  8  2  0
  3  1  1  0
  3  4  1  0
  4  5  1  0
  5  2  1  0
  5 54  1  0
  6 13  1  0
  6  2  1  0
  7  1  2  0
  9 10  1  0
 10 14  2  0
 11 14  1  0
 12  9  2  0
 12 13  1  0
 13 11  2  0
 14 24  1  0
 15 12  1  0
 16 22  1  0
 16 24  1  0
 17 22  1  0
 18 19  1  0
 18 17  1  0
 20 19  1  0
 20 29  1  0
 20 21  1  0
 22 21  1  0
 23 16  2  0
 24 25  1  0
 26 27  2  0
 27 46  1  0
 28 27  1  0
 28 31  1  0
 29 26  1  0
 29 30  1  0
 30 28  2  0
 31 32  1  0
 32 33  2  0
 34 37  1  0
 34 33  1  0
 35 34  2  0
 36 35  1  0
 36 31  2  0
 37 38  1  0
 38 39  1  0
 39 40  2  0
 41 40  1  0
 41 45  1  0
 42 41  2  0
 43 38  2  0
 43 42  1  0
 44 43  1  0
 46 47  1  0
 47 50  1  0
 47 49  1  0
 48 46  2  0
 51 52  1  0
 51 26  1  0
 53 51  1  0
 55 56  1  0
 55 54  1  0
 57 68  2  0
 58 56  1  0
 58 63  1  0
 59 67  1  0
 59 69  1  0
 60 66  1  0
 60 62  1  0
 61 67  1  0
 62 63  2  0
 62 61  1  0
 64 58  2  0
 65 64  1  0
 65 60  2  0
 66 59  1  0
 67 57  1  0
 69 71  2  0
 70 69  1  0
 72 70  1  0
 73 82  2  0
 73 78  1  0
 74 70  1  0
 74 78  1  0
 75 74  1  0
 76 77  1  0
 76 75  1  0
 77 73  1  0
 78 79  2  0
 79 80  1  0
 81 80  2  0
 82 81  1  0
 83 57  1  0
 83 88  1  0
 83 84  1  0
 84 87  1  1
 84 85  1  0
 86 84  1  0
 88 91  1  0
 89 93  1  0
 89 88  1  0
 90 89  2  0
 93 92  1  0
 95 93  1  0
 95 96  1  0
 95 94  1  0
M  ISO  4  16 100  24 100  55 101  56 101
M  END
>  <TORSDO>  (87) 
F 19

>  <SCORE>  (87) 
-14.629

>  <name>  (87) 
86

>  <ligand_id>  (87) 
86

>  <original_smiles>  (87) 
[H]c1c([H])c([H])c2c(c1[H])C([H])([H])C([H])([H])C([H])([H])C2([H])N([H])C(=O)C1([H])N(C(=O)C([H])(N([H])C(=O)C([H])(N([H])C([H])([H])[H])C([H])([H])[H])C(C([H])([H])[H])(C([H])([H])[H])C([H])([H])[H])C([H])([H])c2c([H])c(OC([H])([H])C([H])([H])C3([H])C(=O)N(c4c([H])c(N([H])C(=O)N5C([H])([H])C([H])([H])C([H])([H])C([H])(n6nc(-c7c([H])c([H])c(Oc8c([H])c([H])c(F)c([H])c8F)c([H])c7[H])c(C(=O)N([H])[H])c6N([H])[H])C5([H])[H])c([H])c([H])c4C([H])([H])[H])C(=O)C([H])([H])C3([H])[H])c([H])c([H])c2C1([H])[H]

>  <smiles>  (87) 
[H]c1c([H])c([H])c2c(c1[H])C([H])([H])C([H])([H])C([H])([H])C2([H])N([H])C(=O)C1([H])N(C(=O)C([H])(N([H])C(=O)C([H])(N([H])C([H])([H])[H])C([H])([H])[H])C(C([H])([H])[H])(C([H])([H])[H])C([H])([H])[H])C([H])([H])c2c([H])c(OC([H])([H])C([H])([H])C3([H])C(=O)N(c4c([H])c(N([H])C(=O)N5C([H])([H])C([H])([H])C([H])([H])C([H])(n6nc(-c7c([H])c([H])c(Oc8c([H])c([H])c(F)c([H])c8F)c([H])c7[H])c(C(=O)N([H])[H])c6N([H])[H])C5([H])[H])c([H])c([H])c4C([H])([H])[H])C(=O)C([H])([H])C3([H])[H])c([H])c([H])c2C1([H])[H]

$$$$
87:0:0
     RDKit          3D

100109  0  0  1  0  0  0  0  0999 V2000
  -31.3410  -17.6490   19.3650 C   0  0  0  0  0  3  0  0  0  0  0  0
  -29.4670  -18.6030   20.5530 C   0  0  0  0  0  3  0  0  0  0  0  0
  -31.7620  -18.9380   18.9850 C   0  0  0  0  0  0  0  0  0  0  0  0
  -31.0240  -20.0960   19.3680 C   0  0  0  0  0  0  0  0  0  0  0  0
  -29.8380  -19.9660   20.1530 C   0  0  0  0  0  0  0  0  0  0  0  0
  -30.2140  -17.3990   20.1740 C   0  0  0  0  0  0  0  0  0  0  0  0
  -31.5030  -21.4900   18.9490 C   0  0  0  0  0  1  0  0  0  0  0  0
  -30.6140  -14.7900   20.3370 C   0  0  0  0  0  0  0  0  0  0  0  0
  -30.3820  -12.5240   19.3130 C   0  0  0  0  0  2  0  0  0  0  0  0
  -29.4510  -12.6140   18.0840 C   0  0  0  0  0  2  0  0  0  0  0  0
  -27.9820  -12.4370   18.5130 C   0  0  0  0  0  2  0  0  0  0  0  0
  -27.6090  -13.3170   19.7350 C   0  0  0  0  0  3  0  0  0  0  0  0
  -28.6630  -13.2300   20.8590 C   0  0  0  0  0  2  0  0  0  0  0  0
  -29.9580  -13.5790   20.2660 N   0  0  0  0  0  0  0  0  0  0  0  0
  -31.8190  -14.8090   20.0740 O   0  0  0  0  0  0  0  0  0  0  0  0
  -29.8810  -15.9720   20.5180 N   0  0  0  0  0  0  0  0  0  0  0  0
  -28.9350  -15.8190   20.8310 H   0  0  0  0  0  0  0  0  0  0  0  0
  -25.2180  -13.9020   20.4470 C   0  0  0  0  0  0  0  0  0  0  0  0
  -24.1530  -13.1270   20.8150 C   0  0  0  0  0  0  0  0  0  0  0  0
  -24.6210  -11.7760   20.7980 C   0  0  0  0  0  0  0  0  0  0  0  0
  -26.2660  -13.0250   20.2230 N   0  0  0  0  0  0  0  0  0  0  0  0
  -25.9150  -11.7420   20.4990 N   0  0  0  0  0  0  0  0  0  0  0  0
  -23.8980  -10.5130   20.9920 C   0  0  0  0  0  0  0  0  0  0  0  0
  -24.3210   -9.5560   21.9400 C   0  0  0  0  0  3  0  0  0  0  0  0
  -23.5960   -8.3570   22.1210 C   0  0  0  0  0  3  0  0  0  0  0  0
  -22.4340   -8.1090   21.3520 C   0  0  0  0  0  0  0  0  0  0  0  0
  -22.0310   -9.0540   20.3920 C   0  0  0  0  0  3  0  0  0  0  0  0
  -22.7570  -10.2430   20.2100 C   0  0  0  0  0  3  0  0  0  0  0  0
  -21.6820   -6.9620   21.4410 O   0  0  0  0  0  0  0  0  0  0  0  0
  -21.6200   -6.2300   22.5990 C   0  0  0  0  0  0  0  0  0  0  0  0
  -21.1740   -6.7930   23.8140 C   0  0  0  0  0  3  0  0  0  0  0  0
  -21.0610   -5.9870   24.9640 C   0  0  0  0  0  3  0  0  0  0  0  0
  -21.3830   -4.6180   24.9000 C   0  0  0  0  0  0  0  0  0  0  0  0
  -21.8220   -4.0540   23.6900 C   0  0  0  0  0  3  0  0  0  0  0  0
  -21.9380   -4.8580   22.5420 C   0  0  0  0  0  0  0  0  0  0  0  0
  -22.3410   -4.3040   21.3720 F   0  0  0  0  0  0  0  0  0  0  0  0
  -21.2660   -3.8410   26.0020 F   0  0  0  0  0  0  0  0  0  0  0  0
  -22.7510  -13.6000   21.0690 C   0  0  0  0  0  0  0  0  0  0  0  0
  -22.0160  -12.9040   21.9290 N   0  0  0  0  0  0  0  0  0  0  0  0
  -22.3180  -14.6230   20.5410 O   0  0  0  0  0  0  0  0  0  0  0  0
  -22.3800  -12.0760   22.3760 H   0  0  0  0  0  0  0  0  0  0  0  0
  -21.0750  -13.2050   22.1430 H   0  0  0  0  0  0  0  0  0  0  0  0
  -25.3770  -15.2720   20.2600 N   0  0  0  0  0  0  0  0  0  0  0  0
  -24.6000  -15.9170   20.3530 H   0  0  0  0  0  0  0  0  0  0  0  0
  -26.2160  -15.7110   19.9040 H   0  0  0  0  0  0  0  0  0  0  0  0
  -28.5420  -22.2230   19.8540 C   0  0  0  0  0  0  0  0  0  0  0  0
  -29.3190  -23.3720   21.7530 C   0  0  0  0  0  2  0  0  0  0  0  0
  -29.4610  -21.8260   21.8990 C   0  0  0  0  0  2  0  0  0  0  0  0
  -28.3270  -23.6080   20.6040 C   0  0  0  0  0  3  0  0  0  0  0  0
  -29.1610  -21.2320   20.5960 N   0  0  0  0  0  0  0  0  0  0  0  0
  -28.1410  -22.0670   18.6960 O   0  0  0  0  0  0  0  0  0  0  0  0
  -28.4530  -25.0180   19.7870 C   0  0  0  0  0  2  0  0  0  0  0  0
  -28.3420  -26.4060   20.3760 O   0  0  0  0  0  0  0  0  0  0  0  0
  -24.5980  -31.9060   23.2500 C   0  0  0  0  0  0  0  0  0  0  0  0
  -27.2220  -27.2660   20.2650 C   0  0  0  0  0  0  0  0  0  0  0  0
  -23.4080  -30.4960   21.6110 C   0  0  0  0  0  3  0  0  0  0  0  0
  -24.8680  -28.9240   20.2060 C   0  0  0  0  0  0  0  0  0  0  0  0
  -25.9500  -30.7990   21.4450 C   0  0  0  0  0  2  0  0  0  0  0  0
  -26.0330  -29.4070   20.8130 C   0  0  0  0  0  0  0  0  0  0  0  0
  -27.2090  -28.5880   20.8330 C   0  0  0  0  0  3  0  0  0  0  0  0
  -26.0290  -26.8460   19.6380 C   0  0  0  0  0  3  0  0  0  0  0  0
  -24.8730  -27.6520   19.6080 C   0  0  0  0  0  3  0  0  0  0  0  0
  -23.6330  -29.8060   20.2380 C   0  0  0  0  0  2  0  0  0  0  0  0
  -24.6720  -31.0860   22.1600 N   0  0  0  0  0  0  0  0  0  0  0  0
  -23.5100  -32.1900   23.7720 O   0  0  0  0  0  0  0  0  0  0  0  0
  -22.7320  -29.4910   22.5740 C   0  0  0  0  0  0  0  0  0  0  0  0
  -21.4050  -29.3220   22.4440 N   0  0  0  0  0  0  0  0  0  0  0  0
  -23.4020  -28.8650   23.4000 O   0  0  0  0  0  0  0  0  0  0  0  0
  -20.9230  -29.8780   21.7510 H   0  0  0  0  0  0  0  0  0  0  0  0
  -18.0170  -28.1530   22.9360 C   0  0  0  0  0  0  0  0  0  0  0  0
  -20.5770  -28.3930   23.2150 C   0  0  0  0  0  3  0  0  0  0  0  0
  -20.6690  -26.9590   22.6430 C   0  0  0  0  0  2  0  0  0  0  0  0
  -19.5670  -26.6440   21.6260 C   0  0  0  0  0  2  0  0  0  0  0  0
  -18.1850  -26.8000   22.2650 C   0  0  0  0  0  2  0  0  0  0  0  0
  -19.1390  -28.9080   23.3680 C   0  0  0  0  0  0  0  0  0  0  0  0
  -18.9280  -30.1730   23.9570 C   0  0  0  0  0  3  0  0  0  0  0  0
  -17.6270  -30.6850   24.1180 C   0  0  0  0  0  3  0  0  0  0  0  0
  -16.5180  -29.9270   23.7020 C   0  0  0  0  0  3  0  0  0  0  0  0
  -16.7140  -28.6630   23.1160 C   0  0  0  0  0  3  0  0  0  0  0  0
  -25.8740  -32.5440   23.8800 C   0  0  0  0  0  3  0  0  0  0  0  0
  -25.5640  -33.9470   24.1920 N   0  0  0  0  0  0  0  0  0  0  0  0
  -25.9160  -34.9920   23.4310 C   0  0  0  0  0  0  0  0  0  0  0  0
  -26.6010  -34.8760   22.4120 O   0  0  0  0  0  0  0  0  0  0  0  0
  -24.9540  -34.1110   24.9790 H   0  0  0  0  0  0  0  0  0  0  0  0
  -24.2080  -36.7960   23.0290 C   0  0  0  0  0  1  0  0  0  0  0  0
  -25.4300  -36.3880   23.8680 C   0  0  0  0  0  3  0  0  0  0  0  0
  -27.5510  -37.2650   24.7400 C   0  0  0  0  0  1  0  0  0  0  0  0
  -26.4710  -37.4330   23.7710 N   0  0  0  0  0  0  0  0  0  0  0  0
  -26.0690  -38.3560   23.9040 H   0  0  0  0  0  0  0  0  0  0  0  0
  -26.3710  -31.7870   25.1730 C   0  0  1  0  0  0  0  0  0  0  0  0
  -25.2620  -31.5650   26.2290 C   0  0  0  0  0  1  0  0  0  0  0  0
  -26.9540  -30.4050   24.8020 C   0  0  0  0  0  1  0  0  0  0  0  0
  -27.5160  -32.5850   25.8410 C   0  0  0  0  0  1  0  0  0  0  0  0
  -33.0490  -18.9820   18.1590 C   0  0  0  0  0  2  0  0  0  0  0  0
  -32.8520  -18.7550   16.6450 C   0  0  0  0  0  2  0  0  0  0  0  0
  -30.6660  -19.5270   15.7730 C   0  0  0  0  0  0  0  0  0  0  0  0
  -29.8300  -20.6340   15.1330 C   0  0  0  0  0  1  0  0  0  0  0  0
  -32.6680  -20.9670   15.5550 C   0  0  0  0  0  1  0  0  0  0  0  0
  -31.9800  -19.7550   16.0120 N   0  0  0  0  0  0  0  0  0  0  0  0
  -30.1060  -18.4640   16.0530 O   0  0  0  0  0  0  0  0  0  0  0  0
  1  6  1  0
  3  1  2  0
  3  4  1  0
  4  5  2  0
  5  2  1  0
  5 50  1  0
  6 16  1  0
  6  2  2  0
  7  4  1  0
  8 16  1  0
  9 14  1  0
 10 11  1  0
 10  9  1  0
 12 11  1  0
 12 21  1  0
 12 13  1  0
 14  8  1  0
 14 13  1  0
 15  8  2  0
 16 17  1  0
 18 19  2  0
 19 38  1  0
 20 19  1  0
 20 23  1  0
 21 18  1  0
 21 22  1  0
 22 20  2  0
 23 24  1  0
 24 25  2  0
 26 29  1  0
 26 25  1  0
 27 26  2  0
 28 27  1  0
 28 23  2  0
 29 30  1  0
 30 31  1  0
 31 32  2  0
 33 32  1  0
 33 37  1  0
 34 33  2  0
 35 30  2  0
 35 34  1  0
 36 35  1  0
 38 39  1  0
 39 42  1  0
 39 41  1  0
 40 38  2  0
 43 44  1  0
 43 18  1  0
 45 43  1  0
 46 50  1  0
 46 49  1  0
 47 48  1  0
 49 52  1  0
 49 47  1  0
 50 48  1  0
 51 46  2  0
 52 53  1  0
 54 65  2  0
 55 53  1  0
 55 60  1  0
 56 64  1  0
 56 66  1  0
 57 63  1  0
 57 59  1  0
 58 64  1  0
 59 60  2  0
 59 58  1  0
 61 55  2  0
 62 61  1  0
 62 57  2  0
 63 56  1  0
 64 54  1  0
 66 68  2  0
 67 66  1  0
 69 67  1  0
 70 79  2  0
 70 75  1  0
 71 67  1  0
 71 75  1  0
 72 71  1  0
 73 74  1  0
 73 72  1  0
 74 70  1  0
 75 76  2  0
 76 77  1  0
 78 77  2  0
 79 78  1  0
 80 54  1  0
 80 81  1  0
 80 90  1  0
 81 84  1  0
 82 86  1  0
 82 81  1  0
 83 82  2  0
 86 85  1  0
 88 86  1  0
 88 89  1  0
 88 87  1  0
 90 93  1  1
 90 91  1  0
 92 90  1  0
 94  3  1  0
 95 94  1  0
 96 99  1  0
 96100  2  0
 97 96  1  0
 98 99  1  0
 99 95  1  0
M  ISO  4   8 100  16 100  52 101  53 101
M  END
>  <TORSDO>  (88) 
F 21

>  <SCORE>  (88) 
-13.912

>  <name>  (88) 
87

>  <ligand_id>  (88) 
87

>  <original_smiles>  (88) 
[H]c1c([H])c([H])c2c(c1[H])C([H])([H])C([H])([H])C([H])([H])C2([H])N([H])C(=O)C1([H])N(C(=O)C([H])(N([H])C(=O)C([H])(N([H])C([H])([H])[H])C([H])([H])[H])C(C([H])([H])[H])(C([H])([H])[H])C([H])([H])[H])C([H])([H])c2c([H])c(OC([H])([H])C3([H])C(=O)N(c4c([H])c(N([H])C(=O)N5C([H])([H])C([H])([H])C([H])([H])C([H])(n6nc(-c7c([H])c([H])c(Oc8c([H])c([H])c(F)c([H])c8F)c([H])c7[H])c(C(=O)N([H])[H])c6N([H])[H])C5([H])[H])c([H])c(C([H])([H])C([H])([H])N(C(=O)C([H])([H])[H])C([H])([H])[H])c4C([H])([H])[H])C([H])([H])C3([H])[H])c([H])c([H])c2C1([H])[H]

>  <smiles>  (88) 
[H]c1c([H])c([H])c2c(c1[H])C([H])([H])C([H])([H])C([H])([H])C2([H])N([H])C(=O)C1([H])N(C(=O)C([H])(N([H])C(=O)C([H])(N([H])C([H])([H])[H])C([H])([H])[H])C(C([H])([H])[H])(C([H])([H])[H])C([H])([H])[H])C([H])([H])c2c([H])c(OC([H])([H])C3([H])C(=O)N(c4c([H])c(N([H])C(=O)N5C([H])([H])C([H])([H])C([H])([H])C([H])(n6nc(-c7c([H])c([H])c(Oc8c([H])c([H])c(F)c([H])c8F)c([H])c7[H])c(C(=O)N([H])[H])c6N([H])[H])C5([H])[H])c([H])c(C([H])([H])C([H])([H])N(C(=O)C([H])([H])[H])C([H])([H])[H])c4C([H])([H])[H])C([H])([H])C3([H])[H])c([H])c([H])c2C1([H])[H]

$$$$
88:0:0
     RDKit          3D

 93101  0  0  1  0  0  0  0  0999 V2000
  -29.7970  -21.9400   20.7370 C   0  0  0  0  0  0  0  0  0  0  0  0
  -29.5990  -20.6380   20.4080 N   0  0  0  0  0  0  0  0  0  0  0  0
  -30.8140  -22.3700   21.2860 O   0  0  0  0  0  0  0  0  0  0  0  0
  -28.6870  -20.4450   20.0160 H   0  0  0  0  0  0  0  0  0  0  0  0
  -31.8780  -19.6170   20.6660 C   0  0  0  0  0  3  0  0  0  0  0  0
  -32.1310  -17.1920   20.6660 C   0  0  0  0  0  3  0  0  0  0  0  0
  -29.9160  -18.1870   20.4420 C   0  0  0  0  0  3  0  0  0  0  0  0
  -32.6990  -18.4760   20.7480 C   0  0  0  0  0  0  0  0  0  0  0  0
  -30.4730  -19.4970   20.5190 C   0  0  0  0  0  0  0  0  0  0  0  0
  -30.7380  -17.0270   20.4910 C   0  0  0  0  0  0  0  0  0  0  0  0
  -34.1990  -18.6250   20.9110 C   0  0  0  0  0  1  0  0  0  0  0  0
  -30.7900  -14.6170   19.8850 C   0  0  0  0  0  0  0  0  0  0  0  0
  -30.3830  -12.3740   18.9370 C   0  0  0  0  0  2  0  0  0  0  0  0
  -29.3640  -12.4770   17.7860 C   0  0  0  0  0  2  0  0  0  0  0  0
  -27.9260  -12.3780   18.3280 C   0  0  0  0  0  2  0  0  0  0  0  0
  -27.6720  -13.3200   19.5360 C   0  0  0  0  0  3  0  0  0  0  0  0
  -28.8050  -13.2130   20.5820 C   0  0  0  0  0  2  0  0  0  0  0  0
  -30.0810  -13.4550   19.8920 N   0  0  0  0  0  0  0  0  0  0  0  0
  -31.8780  -14.7150   19.3110 O   0  0  0  0  0  0  0  0  0  0  0  0
  -30.1740  -15.7100   20.3930 N   0  0  0  0  0  0  0  0  0  0  0  0
  -29.2090  -15.5950   20.6630 H   0  0  0  0  0  0  0  0  0  0  0  0
  -25.3930  -13.9990   20.5160 C   0  0  0  0  0  0  0  0  0  0  0  0
  -24.3230  -13.2600   20.9430 C   0  0  0  0  0  0  0  0  0  0  0  0
  -24.7000  -11.8900   20.7830 C   0  0  0  0  0  0  0  0  0  0  0  0
  -26.3590  -13.0820   20.1300 N   0  0  0  0  0  0  0  0  0  0  0  0
  -25.9490  -11.8050   20.3470 N   0  0  0  0  0  0  0  0  0  0  0  0
  -23.9220  -10.6580   20.9660 C   0  0  0  0  0  0  0  0  0  0  0  0
  -24.3470   -9.6400   21.8480 C   0  0  0  0  0  3  0  0  0  0  0  0
  -23.5730   -8.4730   22.0210 C   0  0  0  0  0  3  0  0  0  0  0  0
  -22.3580   -8.3160   21.3120 C   0  0  0  0  0  0  0  0  0  0  0  0
  -21.9510   -9.3220   20.4170 C   0  0  0  0  0  3  0  0  0  0  0  0
  -22.7260  -10.4810   20.2430 C   0  0  0  0  0  3  0  0  0  0  0  0
  -21.5540   -7.2040   21.3970 O   0  0  0  0  0  0  0  0  0  0  0  0
  -21.4760   -6.4590   22.5460 C   0  0  0  0  0  0  0  0  0  0  0  0
  -21.0640   -7.0220   23.7730 C   0  0  0  0  0  3  0  0  0  0  0  0
  -20.9310   -6.2040   24.9130 C   0  0  0  0  0  3  0  0  0  0  0  0
  -21.2000   -4.8260   24.8280 C   0  0  0  0  0  0  0  0  0  0  0  0
  -21.6050   -4.2620   23.6050 C   0  0  0  0  0  3  0  0  0  0  0  0
  -21.7400   -5.0770   22.4660 C   0  0  0  0  0  0  0  0  0  0  0  0
  -22.1100   -4.5240   21.2860 F   0  0  0  0  0  0  0  0  0  0  0  0
  -21.0650   -4.0380   25.9200 F   0  0  0  0  0  0  0  0  0  0  0  0
  -22.9890  -13.7900   21.3810 C   0  0  0  0  0  0  0  0  0  0  0  0
  -22.3120  -13.0800   22.2780 N   0  0  0  0  0  0  0  0  0  0  0  0
  -22.5590  -14.8650   20.9660 O   0  0  0  0  0  0  0  0  0  0  0  0
  -22.6740  -12.2060   22.6330 H   0  0  0  0  0  0  0  0  0  0  0  0
  -21.4210  -13.4140   22.6150 H   0  0  0  0  0  0  0  0  0  0  0  0
  -25.6190  -15.3680   20.4060 N   0  0  0  0  0  0  0  0  0  0  0  0
  -24.9040  -16.0530   20.6240 H   0  0  0  0  0  0  0  0  0  0  0  0
  -26.4520  -15.7800   20.0060 H   0  0  0  0  0  0  0  0  0  0  0  0
  -28.6530  -22.9230   20.4190 C   0  0  0  0  0  2  0  0  0  0  0  0
  -29.0050  -24.4420   20.5270 C   0  0  0  0  0  2  0  0  0  0  0  0
  -27.8470  -25.3400   20.0360 C   0  0  0  0  0  2  0  0  0  0  0  0
  -28.0600  -26.7670   20.1510 O   0  0  0  0  0  0  0  0  0  0  0  0
  -24.4820  -32.0450   23.3580 C   0  0  0  0  0  0  0  0  0  0  0  0
  -26.9180  -27.5560   20.1500 C   0  0  0  0  0  0  0  0  0  0  0  0
  -23.1870  -30.6680   21.7680 C   0  0  0  0  0  3  0  0  0  0  0  0
  -24.5540  -29.1240   20.2690 C   0  0  0  0  0  0  0  0  0  0  0  0
  -25.7110  -30.9850   21.4630 C   0  0  0  0  0  2  0  0  0  0  0  0
  -25.7470  -29.6170   20.8100 C   0  0  0  0  0  0  0  0  0  0  0  0
  -26.9320  -28.8420   20.7470 C   0  0  0  0  0  3  0  0  0  0  0  0
  -25.7020  -27.0990   19.5820 C   0  0  0  0  0  3  0  0  0  0  0  0
  -24.5280  -27.8650   19.6500 C   0  0  0  0  0  3  0  0  0  0  0  0
  -23.3260  -29.9990   20.3760 C   0  0  0  0  0  2  0  0  0  0  0  0
  -24.4810  -31.2470   22.2530 N   0  0  0  0  0  0  0  0  0  0  0  0
  -23.4290  -32.3300   23.9450 O   0  0  0  0  0  0  0  0  0  0  0  0
  -22.5650  -29.6480   22.7500 C   0  0  0  0  0  0  0  0  0  0  0  0
  -21.2570  -29.3870   22.5930 N   0  0  0  0  0  0  0  0  0  0  0  0
  -23.2570  -29.0950   23.6080 O   0  0  0  0  0  0  0  0  0  0  0  0
  -20.7570  -29.8870   21.8710 H   0  0  0  0  0  0  0  0  0  0  0  0
  -17.9680  -27.9320   22.9630 C   0  0  0  0  0  0  0  0  0  0  0  0
  -20.4700  -28.4370   23.3790 C   0  0  0  0  0  3  0  0  0  0  0  0
  -20.7330  -26.9840   22.9230 C   0  0  0  0  0  2  0  0  0  0  0  0
  -19.7370  -26.4910   21.8680 C   0  0  0  0  0  2  0  0  0  0  0  0
  -18.3060  -26.5590   22.4080 C   0  0  0  0  0  2  0  0  0  0  0  0
  -18.9860  -28.8200   23.4040 C   0  0  0  0  0  0  0  0  0  0  0  0
  -18.6190  -30.0980   23.8770 C   0  0  0  0  0  3  0  0  0  0  0  0
  -17.2690  -30.4920   23.9180 C   0  0  0  0  0  3  0  0  0  0  0  0
  -16.2660  -29.6040   23.4950 C   0  0  0  0  0  3  0  0  0  0  0  0
  -16.6150  -28.3260   23.0220 C   0  0  0  0  0  3  0  0  0  0  0  0
  -25.8030  -32.6570   23.9220 C   0  0  0  0  0  3  0  0  0  0  0  0
  -26.3540  -31.8870   25.1840 C   0  0  1  0  0  0  0  0  0  0  0  0
  -25.2890  -31.6420   26.2790 C   0  0  0  0  0  1  0  0  0  0  0  0
  -26.9350  -30.5140   24.7760 C   0  0  0  0  0  1  0  0  0  0  0  0
  -27.5180  -32.6870   25.8170 C   0  0  0  0  0  1  0  0  0  0  0  0
  -25.5330  -34.0640   24.2470 N   0  0  0  0  0  0  0  0  0  0  0  0
  -25.8410  -35.1000   23.4560 C   0  0  0  0  0  0  0  0  0  0  0  0
  -26.4550  -34.9720   22.3930 O   0  0  0  0  0  0  0  0  0  0  0  0
  -24.9830  -34.2390   25.0760 H   0  0  0  0  0  0  0  0  0  0  0  0
  -24.1130  -36.9050   23.1760 C   0  0  0  0  0  1  0  0  0  0  0  0
  -25.3990  -36.5020   23.9170 C   0  0  0  0  0  3  0  0  0  0  0  0
  -27.5880  -37.3760   24.6000 C   0  0  0  0  0  1  0  0  0  0  0  0
  -26.4340  -37.5400   23.7200 N   0  0  0  0  0  0  0  0  0  0  0  0
  -26.0480  -38.4680   23.8750 H   0  0  0  0  0  0  0  0  0  0  0  0
  1  3  2  0
  2  9  1  0
  2  1  1  0
  4  2  1  0
  5  8  1  0
  6  8  2  0
  7 10  2  0
  7  9  1  0
  8 11  1  0
  9  5  2  0
 10  6  1  0
 12 18  1  0
 12 20  1  0
 13 18  1  0
 14 15  1  0
 14 13  1  0
 16 15  1  0
 16 25  1  0
 16 17  1  0
 18 17  1  0
 19 12  2  0
 20 10  1  0
 20 21  1  0
 22 23  2  0
 23 42  1  0
 24 23  1  0
 24 27  1  0
 25 26  1  0
 25 22  1  0
 26 24  2  0
 27 28  1  0
 28 29  2  0
 30 33  1  0
 30 29  1  0
 31 30  2  0
 32 31  1  0
 32 27  2  0
 33 34  1  0
 34 35  1  0
 35 36  2  0
 37 36  1  0
 37 41  1  0
 38 37  2  0
 39 34  2  0
 39 38  1  0
 40 39  1  0
 42 43  1  0
 43 46  1  0
 43 45  1  0
 44 42  2  0
 47 22  1  0
 47 48  1  0
 49 47  1  0
 50 51  1  0
 50  1  1  0
 52 53  1  0
 52 51  1  0
 54 65  2  0
 55 53  1  0
 55 60  1  0
 56 64  1  0
 56 66  1  0
 57 63  1  0
 57 59  1  0
 58 64  1  0
 59 58  1  0
 60 59  2  0
 61 62  1  0
 61 55  2  0
 62 57  2  0
 63 56  1  0
 64 54  1  0
 66 68  2  0
 67 66  1  0
 69 67  1  0
 70 79  2  0
 70 75  1  0
 71 67  1  0
 71 75  1  0
 72 71  1  0
 73 74  1  0
 73 72  1  0
 74 70  1  0
 75 76  2  0
 76 77  1  0
 78 77  2  0
 79 78  1  0
 80 54  1  0
 80 85  1  0
 80 81  1  0
 81 84  1  1
 81 82  1  0
 83 81  1  0
 85 88  1  0
 86 90  1  0
 86 85  1  0
 87 86  2  0
 90 89  1  0
 92 93  1  0
 92 90  1  0
 92 91  1  0
M  ISO  4  12 100  20 100  52 101  53 101
M  END
>  <TORSDO>  (89) 
F 20

>  <SCORE>  (89) 
-13.002

>  <name>  (89) 
88

>  <ligand_id>  (89) 
88

>  <original_smiles>  (89) 
[H]c1c([H])c([H])c2c(c1[H])C([H])([H])C([H])([H])C([H])([H])C2([H])N([H])C(=O)C1([H])N(C(=O)C([H])(N([H])C(=O)C([H])(N([H])C([H])([H])[H])C([H])([H])[H])C(C([H])([H])[H])(C([H])([H])[H])C([H])([H])[H])C([H])([H])c2c([H])c(OC([H])([H])C([H])([H])C([H])([H])C(=O)N([H])c3c([H])c(N([H])C(=O)N4C([H])([H])C([H])([H])C([H])([H])C([H])(n5nc(-c6c([H])c([H])c(Oc7c([H])c([H])c(F)c([H])c7F)c([H])c6[H])c(C(=O)N([H])[H])c5N([H])[H])C4([H])[H])c([H])c(C([H])([H])[H])c3[H])c([H])c([H])c2C1([H])[H]

>  <smiles>  (89) 
[H]c1c([H])c([H])c2c(c1[H])C([H])([H])C([H])([H])C([H])([H])C2([H])N([H])C(=O)C1([H])N(C(=O)C([H])(N([H])C(=O)C([H])(N([H])C([H])([H])[H])C([H])([H])[H])C(C([H])([H])[H])(C([H])([H])[H])C([H])([H])[H])C([H])([H])c2c([H])c(OC([H])([H])C([H])([H])C([H])([H])C(=O)N([H])c3c([H])c(N([H])C(=O)N4C([H])([H])C([H])([H])C([H])([H])C([H])(n5nc(-c6c([H])c([H])c(Oc7c([H])c([H])c(F)c([H])c7F)c([H])c6[H])c(C(=O)N([H])[H])c5N([H])[H])C4([H])[H])c([H])c(C([H])([H])[H])c3[H])c([H])c([H])c2C1([H])[H]

$$$$
89:0:0
     RDKit          3D

 97106  0  0  1  0  0  0  0  0999 V2000
  -27.4110  -22.1990   20.9720 C   0  0  0  0  0  3  0  0  0  0  0  0
  -28.3430  -23.1730   21.0850 C   0  0  0  0  0  0  0  0  0  0  0  0
  -27.7290  -20.7740   20.8210 C   0  0  0  0  0  0  0  0  0  0  0  0
  -29.8160  -22.8120   21.2210 C   0  0  0  0  0  2  0  0  0  0  0  0
  -29.9760  -21.3260   21.5950 C   0  0  0  0  0  2  0  0  0  0  0  0
  -29.0540  -20.4760   20.8350 N   0  0  0  0  0  0  0  0  0  0  0  0
  -26.8630  -19.9140   20.6410 O   0  0  0  0  0  0  0  0  0  0  0  0
  -30.5690  -18.6380   17.9600 C   0  0  0  0  0  3  0  0  0  0  0  0
  -30.0830  -18.2230   20.6750 C   0  0  0  0  0  3  0  0  0  0  0  0
  -31.1440  -17.5020   18.5900 C   0  0  0  0  0  0  0  0  0  0  0  0
  -29.8020  -19.5810   18.6660 C   0  0  0  0  0  0  0  0  0  0  0  0
  -29.6140  -19.4120   20.0590 C   0  0  0  0  0  0  0  0  0  0  0  0
  -30.8020  -17.2320   19.9610 C   0  0  0  0  0  0  0  0  0  0  0  0
  -29.2480  -20.7890   17.9110 C   0  0  0  0  0  1  0  0  0  0  0  0
  -31.6850  -14.8730   20.3570 C   0  0  0  0  0  0  0  0  0  0  0  0
  -31.2890  -12.7130   19.2470 C   0  0  0  0  0  2  0  0  0  0  0  0
  -30.4110  -12.9700   18.0040 C   0  0  0  0  0  2  0  0  0  0  0  0
  -28.9150  -12.9600   18.3800 C   0  0  0  0  0  2  0  0  0  0  0  0
  -28.5960  -13.8310   19.6220 C   0  0  0  0  0  3  0  0  0  0  0  0
  -29.5880  -13.5510   20.7770 C   0  0  0  0  0  2  0  0  0  0  0  0
  -30.9510  -13.7300   20.2540 N   0  0  0  0  0  0  0  0  0  0  0  0
  -32.8780  -14.9360   20.0490 O   0  0  0  0  0  0  0  0  0  0  0  0
  -30.9700  -15.9750   20.6600 N   0  0  0  0  0  0  0  0  0  0  0  0
  -30.1810  -15.7570   21.2490 H   0  0  0  0  0  0  0  0  0  0  0  0
  -26.2230  -14.6430   20.2100 C   0  0  0  0  0  0  0  0  0  0  0  0
  -25.0790  -13.9690   20.5250 C   0  0  0  0  0  0  0  0  0  0  0  0
  -25.4310  -12.5830   20.5360 C   0  0  0  0  0  0  0  0  0  0  0  0
  -27.2060  -13.6790   20.0420 N   0  0  0  0  0  0  0  0  0  0  0  0
  -26.7260  -12.4370   20.2990 N   0  0  0  0  0  0  0  0  0  0  0  0
  -24.5970  -11.3860   20.6990 C   0  0  0  0  0  0  0  0  0  0  0  0
  -24.9360  -10.3670   21.6180 C   0  0  0  0  0  3  0  0  0  0  0  0
  -24.1090   -9.2330   21.7710 C   0  0  0  0  0  3  0  0  0  0  0  0
  -22.9250   -9.1090   21.0080 C   0  0  0  0  0  0  0  0  0  0  0  0
  -22.6060  -10.1080   20.0740 C   0  0  0  0  0  3  0  0  0  0  0  0
  -23.4320  -11.2350   19.9180 C   0  0  0  0  0  3  0  0  0  0  0  0
  -22.0780   -8.0300   21.0710 O   0  0  0  0  0  0  0  0  0  0  0  0
  -21.9380   -7.2920   22.2160 C   0  0  0  0  0  0  0  0  0  0  0  0
  -21.5650   -7.8880   23.4410 C   0  0  0  0  0  3  0  0  0  0  0  0
  -21.3680   -7.0840   24.5820 C   0  0  0  0  0  3  0  0  0  0  0  0
  -21.5260   -5.6880   24.4940 C   0  0  0  0  0  0  0  0  0  0  0  0
  -21.8890   -5.0930   23.2730 C   0  0  0  0  0  3  0  0  0  0  0  0
  -22.0910   -5.8940   22.1350 C   0  0  0  0  0  0  0  0  0  0  0  0
  -22.4220   -5.3150   20.9550 F   0  0  0  0  0  0  0  0  0  0  0  0
  -21.3260   -4.9130   25.5860 F   0  0  0  0  0  0  0  0  0  0  0  0
  -23.7090  -14.5590   20.7200 C   0  0  0  0  0  0  0  0  0  0  0  0
  -22.8920  -13.9450   21.5670 N   0  0  0  0  0  0  0  0  0  0  0  0
  -23.3740  -15.6010   20.1560 O   0  0  0  0  0  0  0  0  0  0  0  0
  -23.1720  -13.1040   22.0520 H   0  0  0  0  0  0  0  0  0  0  0  0
  -21.9730  -14.3200   21.7370 H   0  0  0  0  0  0  0  0  0  0  0  0
  -26.5090  -15.9940   20.0280 N   0  0  0  0  0  0  0  0  0  0  0  0
  -25.7940  -16.7090   20.1190 H   0  0  0  0  0  0  0  0  0  0  0  0
  -27.4020  -16.3620   19.7260 H   0  0  0  0  0  0  0  0  0  0  0  0
  -32.3780  -16.8110   16.4710 C   0  0  0  0  0  2  0  0  0  0  0  0
  -32.0750  -16.6790   17.7790 C   0  0  0  0  0  3  0  0  0  0  0  0
  -27.9570  -24.6580   21.1110 C   0  0  0  0  0  2  0  0  0  0  0  0
  -28.5910  -25.5290   19.9930 C   0  0  0  0  0  2  0  0  0  0  0  0
  -28.5510  -26.9380   20.2790 O   0  0  0  0  0  0  0  0  0  0  0  0
  -24.5950  -31.9700   23.3900 C   0  0  0  0  0  0  0  0  0  0  0  0
  -27.3490  -27.6140   20.2560 C   0  0  0  0  0  0  0  0  0  0  0  0
  -23.4340  -30.5720   21.7180 C   0  0  0  0  0  3  0  0  0  0  0  0
  -24.9250  -29.0830   20.2860 C   0  0  0  0  0  0  0  0  0  0  0  0
  -25.9580  -30.9770   21.5430 C   0  0  0  0  0  2  0  0  0  0  0  0
  -26.0720  -29.6200   20.8800 C   0  0  0  0  0  0  0  0  0  0  0  0
  -27.2880  -28.9020   20.8430 C   0  0  0  0  0  3  0  0  0  0  0  0
  -26.1790  -27.0870   19.6580 C   0  0  0  0  0  3  0  0  0  0  0  0
  -24.9760  -27.8240   19.6640 C   0  0  0  0  0  3  0  0  0  0  0  0
  -23.6660  -29.9160   20.3350 C   0  0  0  0  0  2  0  0  0  0  0  0
  -24.6820  -31.1890   22.2770 N   0  0  0  0  0  0  0  0  0  0  0  0
  -23.5030  -32.2080   23.9240 O   0  0  0  0  0  0  0  0  0  0  0  0
  -22.8000  -29.5190   22.6540 C   0  0  0  0  0  0  0  0  0  0  0  0
  -21.4910  -29.2750   22.4760 N   0  0  0  0  0  0  0  0  0  0  0  0
  -23.4840  -28.9310   23.4960 O   0  0  0  0  0  0  0  0  0  0  0  0
  -20.9980  -29.8220   21.7830 H   0  0  0  0  0  0  0  0  0  0  0  0
  -18.1890  -27.8230   22.7580 C   0  0  0  0  0  0  0  0  0  0  0  0
  -20.6940  -28.2890   23.2070 C   0  0  0  0  0  3  0  0  0  0  0  0
  -20.9490  -26.8580   22.6770 C   0  0  0  0  0  2  0  0  0  0  0  0
  -19.9510  -26.4370   21.5890 C   0  0  0  0  0  2  0  0  0  0  0  0
  -18.5180  -26.4740   22.1420 C   0  0  0  0  0  2  0  0  0  0  0  0
  -19.2120  -28.6790   23.2440 C   0  0  0  0  0  0  0  0  0  0  0  0
  -18.8540  -29.9330   23.7900 C   0  0  0  0  0  3  0  0  0  0  0  0
  -17.5090  -30.3440   23.8390 C   0  0  0  0  0  3  0  0  0  0  0  0
  -16.5030  -29.4870   23.3590 C   0  0  0  0  0  3  0  0  0  0  0  0
  -16.8370  -28.2260   22.8280 C   0  0  0  0  0  3  0  0  0  0  0  0
  -25.8560  -32.6200   24.0370 C   0  0  0  0  0  3  0  0  0  0  0  0
  -26.3420  -31.8750   25.3380 C   0  0  1  0  0  0  0  0  0  0  0  0
  -25.2150  -31.6170   26.3650 C   0  0  0  0  0  1  0  0  0  0  0  0
  -26.9680  -30.5090   24.9780 C   0  0  0  0  0  1  0  0  0  0  0  0
  -27.4560  -32.7020   26.0240 C   0  0  0  0  0  1  0  0  0  0  0  0
  -25.5310  -34.0250   24.3280 N   0  0  0  0  0  0  0  0  0  0  0  0
  -25.8950  -35.0610   23.5610 C   0  0  0  0  0  0  0  0  0  0  0  0
  -26.6020  -34.9350   22.5570 O   0  0  0  0  0  0  0  0  0  0  0  0
  -24.9020  -34.1990   25.1010 H   0  0  0  0  0  0  0  0  0  0  0  0
  -24.1710  -36.8390   23.1040 C   0  0  0  0  0  1  0  0  0  0  0  0
  -25.3870  -36.4600   23.9670 C   0  0  0  0  0  3  0  0  0  0  0  0
  -27.4970  -37.3600   24.8440 C   0  0  0  0  0  1  0  0  0  0  0  0
  -26.4240  -37.5120   23.8630 N   0  0  0  0  0  0  0  0  0  0  0  0
  -26.0160  -38.4370   23.9760 H   0  0  0  0  0  0  0  0  0  0  0  0
  1  2  2  0
  2 55  1  0
  2  4  1  0
  3  6  1  0
  3  1  1  0
  4  5  1  0
  6  5  1  0
  7  3  2  0
  8 10  2  0
  8 11  1  0
 10 13  1  0
 11 12  2  0
 12  9  1  0
 12  6  1  0
 13 23  1  0
 13  9  2  0
 14 11  1  0
 15 23  1  0
 16 21  1  0
 17 18  1  0
 17 16  1  0
 19 18  1  0
 19 28  1  0
 19 20  1  0
 21 15  1  0
 21 20  1  0
 22 15  2  0
 23 24  1  0
 25 26  2  0
 26 27  1  0
 26 45  1  0
 27 30  1  0
 28 25  1  0
 28 29  1  0
 29 27  2  0
 30 31  1  0
 31 32  2  0
 33 36  1  0
 33 32  1  0
 34 33  2  0
 35 34  1  0
 35 30  2  0
 36 37  1  0
 37 38  1  0
 38 39  2  0
 40 39  1  0
 40 44  1  0
 41 40  2  0
 42 37  2  0
 42 41  1  0
 43 42  1  0
 45 46  1  0
 46 49  1  0
 46 48  1  0
 47 45  2  0
 50 51  1  0
 50 25  1  0
 52 50  1  0
 53 54  2  0
 54 10  1  0
 56 57  1  0
 56 55  1  0
 58 69  2  0
 59 57  1  0
 59 64  1  0
 60 68  1  0
 60 70  1  0
 61 67  1  0
 61 63  1  0
 62 68  1  0
 63 62  1  0
 64 63  2  0
 65 66  1  0
 65 59  2  0
 66 61  2  0
 67 60  1  0
 68 58  1  0
 70 72  2  0
 71 70  1  0
 73 71  1  0
 74 83  2  0
 74 79  1  0
 75 71  1  0
 75 79  1  0
 76 75  1  0
 77 78  1  0
 77 76  1  0
 78 74  1  0
 79 80  2  0
 80 81  1  0
 82 81  2  0
 83 82  1  0
 84 58  1  0
 84 89  1  0
 84 85  1  0
 85 88  1  1
 85 86  1  0
 87 85  1  0
 89 92  1  0
 90 94  1  0
 90 89  1  0
 91 90  2  0
 94 93  1  0
 96 94  1  0
 96 97  1  0
 96 95  1  0
M  ISO  4  15 100  23 100  56 101  57 101
M  END
>  <TORSDO>  (90) 
F 20

>  <SCORE>  (90) 
-11.584

>  <name>  (90) 
89

>  <ligand_id>  (90) 
89

>  <original_smiles>  (90) 
[H]C([H])=C([H])c1c([H])c(C([H])([H])[H])c(N2C(=O)C([H])=C(C([H])([H])C([H])([H])Oc3c([H])c([H])c4c(c3[H])C([H])([H])N(C(=O)C([H])(N([H])C(=O)C([H])(N([H])C([H])([H])[H])C([H])([H])[H])C(C([H])([H])[H])(C([H])([H])[H])C([H])([H])[H])C([H])(C(=O)N([H])C3([H])c5c([H])c([H])c([H])c([H])c5C([H])([H])C([H])([H])C3([H])[H])C4([H])[H])C([H])([H])C2([H])[H])c([H])c1N([H])C(=O)N1C([H])([H])C([H])([H])C([H])([H])C([H])(n2nc(-c3c([H])c([H])c(Oc4c([H])c([H])c(F)c([H])c4F)c([H])c3[H])c(C(=O)N([H])[H])c2N([H])[H])C1([H])[H]

>  <smiles>  (90) 
[H]C([H])=C([H])c1c([H])c(C([H])([H])[H])c(N2C(=O)C([H])=C(C([H])([H])C([H])([H])Oc3c([H])c([H])c4c(c3[H])C([H])([H])N(C(=O)C([H])(N([H])C(=O)C([H])(N([H])C([H])([H])[H])C([H])([H])[H])C(C([H])([H])[H])(C([H])([H])[H])C([H])([H])[H])C([H])(C(=O)N([H])C3([H])c5c([H])c([H])c([H])c([H])c5C([H])([H])C([H])([H])C3([H])[H])C4([H])[H])C([H])([H])C2([H])[H])c([H])c1N([H])C(=O)N1C([H])([H])C([H])([H])C([H])([H])C([H])(n2nc(-c3c([H])c([H])c(Oc4c([H])c([H])c(F)c([H])c4F)c([H])c3[H])c(C(=O)N([H])[H])c2N([H])[H])C1([H])[H]

$$$$
90:0:0
     RDKit          3D

 95103  0  0  1  0  0  0  0  0999 V2000
  -29.3400  -22.4570   20.2700 C   0  0  0  0  0  0  0  0  0  0  0  0
  -29.0550  -21.1070   20.0450 N   0  0  0  0  0  0  0  0  0  0  0  0
  -30.3550  -22.7600   20.9010 O   0  0  0  0  0  0  0  0  0  0  0  0
  -28.2930  -20.9450   19.4010 H   0  0  0  0  0  0  0  0  0  0  0  0
  -29.7480  -18.5710   19.8770 C   0  0  0  0  0  3  0  0  0  0  0  0
  -31.1780  -17.5480   21.5610 C   0  0  0  0  0  3  0  0  0  0  0  0
  -30.3110  -19.8380   21.8670 C   0  0  0  0  0  0  0  0  0  0  0  0
  -30.4460  -17.3840   20.3700 C   0  0  0  0  0  0  0  0  0  0  0  0
  -29.7290  -19.8660   20.5660 C   0  0  0  0  0  0  0  0  0  0  0  0
  -31.0810  -18.7360   22.3070 C   0  0  0  0  0  0  0  0  0  0  0  0
  -30.0490  -20.9290   22.8960 C   0  0  0  0  0  1  0  0  0  0  0  0
  -31.6920  -18.7890   23.5150 F   0  0  0  0  0  0  0  0  0  0  0  0
  -31.1230  -14.8700   19.9150 C   0  0  0  0  0  0  0  0  0  0  0  0
  -30.8820  -12.5500   18.9850 C   0  0  0  0  0  2  0  0  0  0  0  0
  -29.8950  -12.5730   17.7940 C   0  0  0  0  0  2  0  0  0  0  0  0
  -28.4360  -12.4640   18.2840 C   0  0  0  0  0  2  0  0  0  0  0  0
  -28.1240  -13.4130   19.4710 C   0  0  0  0  0  3  0  0  0  0  0  0
  -29.2180  -13.3390   20.5570 C   0  0  0  0  0  2  0  0  0  0  0  0
  -30.4880  -13.6500   19.8920 N   0  0  0  0  0  0  0  0  0  0  0  0
  -32.3320  -14.9400   19.6680 O   0  0  0  0  0  0  0  0  0  0  0  0
  -30.3110  -15.9990   19.8450 N   0  0  0  0  0  0  0  0  0  0  0  0
  -29.3640  -15.7700   19.5900 H   0  0  0  0  0  0  0  0  0  0  0  0
  -25.8030  -14.1200   20.2910 C   0  0  0  0  0  0  0  0  0  0  0  0
  -24.7070  -13.3990   20.6840 C   0  0  0  0  0  0  0  0  0  0  0  0
  -25.0960  -12.0260   20.6200 C   0  0  0  0  0  0  0  0  0  0  0  0
  -26.7880  -13.1890   20.0090 N   0  0  0  0  0  0  0  0  0  0  0  0
  -26.3740  -11.9230   20.2720 N   0  0  0  0  0  0  0  0  0  0  0  0
  -24.3100  -10.8010   20.8130 C   0  0  0  0  0  0  0  0  0  0  0  0
  -24.7070   -9.8090   21.7380 C   0  0  0  0  0  3  0  0  0  0  0  0
  -23.9230   -8.6490   21.9200 C   0  0  0  0  0  3  0  0  0  0  0  0
  -22.7320   -8.4740   21.1760 C   0  0  0  0  0  0  0  0  0  0  0  0
  -22.3560   -9.4530   20.2400 C   0  0  0  0  0  3  0  0  0  0  0  0
  -23.1380  -10.6050   20.0560 C   0  0  0  0  0  3  0  0  0  0  0  0
  -21.9230   -7.3670   21.2690 O   0  0  0  0  0  0  0  0  0  0  0  0
  -21.8210   -6.6430   22.4300 C   0  0  0  0  0  0  0  0  0  0  0  0
  -21.4110   -7.2380   23.6430 C   0  0  0  0  0  3  0  0  0  0  0  0
  -21.2530   -6.4470   24.7990 C   0  0  0  0  0  3  0  0  0  0  0  0
  -21.4950   -5.0610   24.7430 C   0  0  0  0  0  0  0  0  0  0  0  0
  -21.8990   -4.4660   23.5340 C   0  0  0  0  0  3  0  0  0  0  0  0
  -22.0600   -5.2550   22.3810 C   0  0  0  0  0  0  0  0  0  0  0  0
  -22.4290   -4.6720   21.2150 F   0  0  0  0  0  0  0  0  0  0  0  0
  -21.3360   -4.3000   25.8490 F   0  0  0  0  0  0  0  0  0  0  0  0
  -23.3490  -13.9470   21.0080 C   0  0  0  0  0  0  0  0  0  0  0  0
  -22.6220  -13.2870   21.9030 N   0  0  0  0  0  0  0  0  0  0  0  0
  -22.9450  -14.9950   20.5090 O   0  0  0  0  0  0  0  0  0  0  0  0
  -22.9640  -12.4380   22.3270 H   0  0  0  0  0  0  0  0  0  0  0  0
  -21.7120  -13.6330   22.1720 H   0  0  0  0  0  0  0  0  0  0  0  0
  -26.0350  -15.4830   20.1240 N   0  0  0  0  0  0  0  0  0  0  0  0
  -25.3110  -16.1810   20.2570 H   0  0  0  0  0  0  0  0  0  0  0  0
  -26.8920  -15.8790   19.7590 H   0  0  0  0  0  0  0  0  0  0  0  0
  -28.4920  -23.7040   19.6830 C   0  0  0  0  0  3  0  0  0  0  0  0
  -29.0590  -23.2920   17.1760 C   0  0  0  0  0  1  0  0  0  0  0  0
  -29.2160  -24.2080   18.4060 C   0  0  0  0  0  2  0  0  0  0  0  0
  -28.2340  -24.9820   20.6690 C   0  0  0  0  0  2  0  0  0  0  0  0
  -28.3990  -26.4210   20.2580 O   0  0  0  0  0  0  0  0  0  0  0  0
  -24.6320  -31.8970   23.2130 C   0  0  0  0  0  0  0  0  0  0  0  0
  -27.2840  -27.2830   20.2420 C   0  0  0  0  0  0  0  0  0  0  0  0
  -23.4510  -30.4760   21.5730 C   0  0  0  0  0  3  0  0  0  0  0  0
  -24.9220  -28.9070   20.1880 C   0  0  0  0  0  0  0  0  0  0  0  0
  -25.9950  -30.7940   21.4190 C   0  0  0  0  0  2  0  0  0  0  0  0
  -26.0870  -29.4060   20.7840 C   0  0  0  0  0  0  0  0  0  0  0  0
  -27.2770  -28.6120   20.7860 C   0  0  0  0  0  3  0  0  0  0  0  0
  -26.0910  -26.8380   19.6310 C   0  0  0  0  0  3  0  0  0  0  0  0
  -24.9290  -27.6330   19.6010 C   0  0  0  0  0  3  0  0  0  0  0  0
  -23.6850  -29.7800   20.2050 C   0  0  0  0  0  2  0  0  0  0  0  0
  -24.7110  -31.0730   22.1260 N   0  0  0  0  0  0  0  0  0  0  0  0
  -23.5430  -32.1810   23.7330 O   0  0  0  0  0  0  0  0  0  0  0  0
  -22.7750  -29.4730   22.5370 C   0  0  0  0  0  0  0  0  0  0  0  0
  -21.4550  -29.2780   22.3800 N   0  0  0  0  0  0  0  0  0  0  0  0
  -23.4390  -28.8760   23.3890 O   0  0  0  0  0  0  0  0  0  0  0  0
  -20.9810  -29.8060   21.6610 H   0  0  0  0  0  0  0  0  0  0  0  0
  -18.0890  -28.0120   22.7900 C   0  0  0  0  0  0  0  0  0  0  0  0
  -20.6290  -28.3480   23.1500 C   0  0  0  0  0  3  0  0  0  0  0  0
  -20.7860  -26.8990   22.6280 C   0  0  0  0  0  2  0  0  0  0  0  0
  -19.7340  -26.5150   21.5830 C   0  0  0  0  0  2  0  0  0  0  0  0
  -18.3250  -26.6460   22.1670 C   0  0  0  0  0  2  0  0  0  0  0  0
  -19.1700  -28.8190   23.2370 C   0  0  0  0  0  0  0  0  0  0  0  0
  -18.8940  -30.0940   23.7760 C   0  0  0  0  0  3  0  0  0  0  0  0
  -17.5710  -30.5670   23.8690 C   0  0  0  0  0  3  0  0  0  0  0  0
  -16.5050  -29.7590   23.4380 C   0  0  0  0  0  3  0  0  0  0  0  0
  -16.7650  -28.4830   22.9070 C   0  0  0  0  0  3  0  0  0  0  0  0
  -25.9050  -32.5400   23.8400 C   0  0  0  0  0  3  0  0  0  0  0  0
  -26.4170  -31.7750   25.1230 C   0  0  1  0  0  0  0  0  0  0  0  0
  -25.3140  -31.5310   26.1810 C   0  0  0  0  0  1  0  0  0  0  0  0
  -27.0130  -30.4000   24.7400 C   0  0  0  0  0  1  0  0  0  0  0  0
  -27.5550  -32.5810   25.7930 C   0  0  0  0  0  1  0  0  0  0  0  0
  -25.5830  -33.9370   24.1680 N   0  0  0  0  0  0  0  0  0  0  0  0
  -25.9160  -34.9940   23.4140 C   0  0  0  0  0  0  0  0  0  0  0  0
  -26.5980  -34.8940   22.3900 O   0  0  0  0  0  0  0  0  0  0  0  0
  -24.9770  -34.0810   24.9630 H   0  0  0  0  0  0  0  0  0  0  0  0
  -24.1840  -36.7760   23.0410 C   0  0  0  0  0  1  0  0  0  0  0  0
  -25.4170  -36.3790   23.8680 C   0  0  0  0  0  3  0  0  0  0  0  0
  -27.5390  -37.2730   24.7270 C   0  0  0  0  0  1  0  0  0  0  0  0
  -26.4470  -37.4360   23.7690 N   0  0  0  0  0  0  0  0  0  0  0  0
  -26.0370  -38.3560   23.9100 H   0  0  0  0  0  0  0  0  0  0  0  0
  1  3  2  0
  2  1  1  0
  2  9  1  0
  4  2  1  0
  5  8  2  0
  5  9  1  0
  6 10  2  0
  7 10  1  0
  7 11  1  0
  8  6  1  0
  9  7  2  0
 10 12  1  0
 14 19  1  0
 15 16  1  0
 15 14  1  0
 17 16  1  0
 17 26  1  0
 17 18  1  0
 19 13  1  0
 19 18  1  0
 20 13  2  0
 21 13  1  0
 21  8  1  0
 22 21  1  0
 23 24  2  0
 24 43  1  0
 25 24  1  0
 25 28  1  0
 26 27  1  0
 26 23  1  0
 27 25  2  0
 28 29  1  0
 29 30  2  0
 31 34  1  0
 31 30  1  0
 32 31  2  0
 33 32  1  0
 33 28  2  0
 34 35  1  0
 35 36  1  0
 36 37  2  0
 38 37  1  0
 38 42  1  0
 39 38  2  0
 40 35  2  0
 40 39  1  0
 41 40  1  0
 43 44  1  0
 44 47  1  0
 44 46  1  0
 45 43  2  0
 48 49  1  0
 48 23  1  0
 50 48  1  0
 51 53  1  0
 51  1  1  0
 51 54  1  0
 52 53  1  0
 55 54  1  0
 56 67  2  0
 57 55  1  0
 57 62  1  0
 58 66  1  0
 58 68  1  0
 59 65  1  0
 59 61  1  0
 60 66  1  0
 61 62  2  0
 61 60  1  0
 63 57  2  0
 64 63  1  0
 64 59  2  0
 65 58  1  0
 66 56  1  0
 68 70  2  0
 69 68  1  0
 71 69  1  0
 72 81  2  0
 72 77  1  0
 73 69  1  0
 73 77  1  0
 74 73  1  0
 75 76  1  0
 75 74  1  0
 76 72  1  0
 77 78  2  0
 78 79  1  0
 80 79  2  0
 81 80  1  0
 82 56  1  0
 82 87  1  0
 82 83  1  0
 83 86  1  1
 83 84  1  0
 85 83  1  0
 87 90  1  0
 88 92  1  0
 88 87  1  0
 89 88  2  0
 92 91  1  0
 94 92  1  0
 94 95  1  0
 94 93  1  0
M  ISO  4  13 100  21 100  54 101  55 101
M  END
>  <TORSDO>  (91) 
F 20

>  <SCORE>  (91) 
-13.265

>  <name>  (91) 
90

>  <ligand_id>  (91) 
90

>  <original_smiles>  (91) 
[H]c1c([H])c([H])c2c(c1[H])C([H])([H])C([H])([H])C([H])([H])C2([H])N([H])C(=O)C1([H])N(C(=O)C([H])(N([H])C(=O)C([H])(N([H])C([H])([H])[H])C([H])([H])[H])C(C([H])([H])[H])(C([H])([H])[H])C([H])([H])[H])C([H])([H])c2c([H])c(OC([H])([H])C([H])(C(=O)N([H])c3c([H])c(N([H])C(=O)N4C([H])([H])C([H])([H])C([H])([H])C([H])(n5nc(-c6c([H])c([H])c(Oc7c([H])c([H])c(F)c([H])c7F)c([H])c6[H])c(C(=O)N([H])[H])c5N([H])[H])C4([H])[H])c([H])c(F)c3C([H])([H])[H])C([H])([H])C([H])([H])[H])c([H])c([H])c2C1([H])[H]

>  <smiles>  (91) 
[H]c1c([H])c([H])c2c(c1[H])C([H])([H])C([H])([H])C([H])([H])C2([H])N([H])C(=O)C1([H])N(C(=O)C([H])(N([H])C(=O)C([H])(N([H])C([H])([H])[H])C([H])([H])[H])C(C([H])([H])[H])(C([H])([H])[H])C([H])([H])[H])C([H])([H])c2c([H])c(OC([H])([H])C([H])(C(=O)N([H])c3c([H])c(N([H])C(=O)N4C([H])([H])C([H])([H])C([H])([H])C([H])(n5nc(-c6c([H])c([H])c(Oc7c([H])c([H])c(F)c([H])c7F)c([H])c6[H])c(C(=O)N([H])[H])c5N([H])[H])C4([H])[H])c([H])c(F)c3C([H])([H])[H])C([H])([H])C([H])([H])[H])c([H])c([H])c2C1([H])[H]

$$$$
91:0:0
     RDKit          3D

 97105  0  0  1  0  0  0  0  0999 V2000
  -29.8510  -17.1220   18.9560 C   0  0  0  0  0  3  0  0  0  0  0  0
  -29.8990  -18.2300   21.1130 C   0  0  0  0  0  3  0  0  0  0  0  0
  -29.4440  -18.3160   18.3260 C   0  0  0  0  0  0  0  0  0  0  0  0
  -29.2340  -19.4860   19.1080 C   0  0  0  0  0  0  0  0  0  0  0  0
  -30.0560  -17.0430   20.3480 C   0  0  0  0  0  0  0  0  0  0  0  0
  -29.5370  -19.4660   20.5030 C   0  0  0  0  0  0  0  0  0  0  0  0
  -28.6240  -20.7290   18.4610 C   0  0  0  0  0  1  0  0  0  0  0  0
  -31.0000  -14.7570   20.3730 C   0  0  0  0  0  0  0  0  0  0  0  0
  -30.5910  -12.7460   19.0140 C   0  0  0  0  0  2  0  0  0  0  0  0
  -29.6200  -13.1420   17.8790 C   0  0  0  0  0  2  0  0  0  0  0  0
  -28.1550  -13.0250   18.3480 C   0  0  0  0  0  2  0  0  0  0  0  0
  -27.9030  -13.6960   19.7260 C   0  0  0  0  0  3  0  0  0  0  0  0
  -28.9860  -13.2880   20.7510 C   0  0  0  0  0  2  0  0  0  0  0  0
  -30.3010  -13.6050   20.1720 N   0  0  0  0  0  0  0  0  0  0  0  0
  -32.1220  -14.9500   19.8970 O   0  0  0  0  0  0  0  0  0  0  0  0
  -30.3150  -15.7660   20.9600 N   0  0  0  0  0  0  0  0  0  0  0  0
  -29.5900  -15.4570   21.5900 H   0  0  0  0  0  0  0  0  0  0  0  0
  -25.5340  -14.3060   20.5180 C   0  0  0  0  0  0  0  0  0  0  0  0
  -24.4600  -13.5340   20.8710 C   0  0  0  0  0  0  0  0  0  0  0  0
  -24.8940  -12.1780   20.7570 C   0  0  0  0  0  0  0  0  0  0  0  0
  -26.5570  -13.4190   20.2180 N   0  0  0  0  0  0  0  0  0  0  0  0
  -26.1760  -12.1310   20.4180 N   0  0  0  0  0  0  0  0  0  0  0  0
  -24.1480  -10.9210   20.9000 C   0  0  0  0  0  0  0  0  0  0  0  0
  -24.5780   -9.9050   21.7810 C   0  0  0  0  0  3  0  0  0  0  0  0
  -23.8350   -8.7120   21.9150 C   0  0  0  0  0  3  0  0  0  0  0  0
  -22.6490   -8.5270   21.1640 C   0  0  0  0  0  0  0  0  0  0  0  0
  -22.2390   -9.5320   20.2690 C   0  0  0  0  0  3  0  0  0  0  0  0
  -22.9820  -10.7160   20.1350 C   0  0  0  0  0  3  0  0  0  0  0  0
  -21.8770   -7.3910   21.2080 O   0  0  0  0  0  0  0  0  0  0  0  0
  -21.8300   -6.5950   22.3240 C   0  0  0  0  0  0  0  0  0  0  0  0
  -21.4420   -7.1000   23.5840 C   0  0  0  0  0  3  0  0  0  0  0  0
  -21.3420   -6.2330   24.6890 C   0  0  0  0  0  3  0  0  0  0  0  0
  -21.6200   -4.8610   24.5360 C   0  0  0  0  0  0  0  0  0  0  0  0
  -22.0030   -4.3560   23.2810 C   0  0  0  0  0  3  0  0  0  0  0  0
  -22.1050   -5.2210   22.1780 C   0  0  0  0  0  0  0  0  0  0  0  0
  -22.4540   -4.7250   20.9650 F   0  0  0  0  0  0  0  0  0  0  0  0
  -21.5170   -4.0260   25.5960 F   0  0  0  0  0  0  0  0  0  0  0  0
  -23.0790  -14.0200   21.2060 C   0  0  0  0  0  0  0  0  0  0  0  0
  -22.3680  -13.2970   22.0630 N   0  0  0  0  0  0  0  0  0  0  0  0
  -22.6450  -15.0760   20.7460 O   0  0  0  0  0  0  0  0  0  0  0  0
  -22.7360  -12.4410   22.4520 H   0  0  0  0  0  0  0  0  0  0  0  0
  -21.4460  -13.6040   22.3360 H   0  0  0  0  0  0  0  0  0  0  0  0
  -25.7210  -15.6810   20.4110 N   0  0  0  0  0  0  0  0  0  0  0  0
  -24.9700  -16.3410   20.5800 H   0  0  0  0  0  0  0  0  0  0  0  0
  -26.5740  -16.1240   20.0950 H   0  0  0  0  0  0  0  0  0  0  0  0
  -30.0910  -21.7920   21.2760 C   0  0  0  0  0  0  0  0  0  0  0  0
  -29.3810  -20.6380   21.3260 N   0  0  0  0  0  0  0  0  0  0  0  0
  -31.1140  -21.9140   20.5960 O   0  0  0  0  0  0  0  0  0  0  0  0
  -28.6710  -20.5890   22.0460 H   0  0  0  0  0  0  0  0  0  0  0  0
  -29.6060  -22.9850   22.1330 C   0  0  0  0  0  2  0  0  0  0  0  0
  -29.7940  -24.3940   21.4780 C   0  0  0  0  0  2  0  0  0  0  0  0
  -29.1740  -25.5620   22.2930 C   0  0  0  0  0  2  0  0  0  0  0  0
  -29.3310  -26.8580   21.6750 O   0  0  0  0  0  0  0  0  0  0  0  0
  -24.8590  -32.0790   23.5970 C   0  0  0  0  0  0  0  0  0  0  0  0
  -28.1530  -27.5320   21.4260 C   0  0  0  0  0  0  0  0  0  0  0  0
  -23.9760  -30.4290   21.9780 C   0  0  0  0  0  3  0  0  0  0  0  0
  -25.7040  -28.8600   20.9390 C   0  0  0  0  0  0  0  0  0  0  0  0
  -26.4810  -30.9470   22.0760 C   0  0  0  0  0  2  0  0  0  0  0  0
  -26.7370  -29.5260   21.6110 C   0  0  0  0  0  0  0  0  0  0  0  0
  -27.9690  -28.8700   21.8470 C   0  0  0  0  0  3  0  0  0  0  0  0
  -27.1090  -26.8820   20.7380 C   0  0  0  0  0  3  0  0  0  0  0  0
  -25.8860  -27.5380   20.4940 C   0  0  0  0  0  3  0  0  0  0  0  0
  -24.4160  -29.6250   20.7250 C   0  0  0  0  0  2  0  0  0  0  0  0
  -25.1150  -31.1730   22.6090 N   0  0  0  0  0  0  0  0  0  0  0  0
  -23.7000  -32.3270   23.9550 O   0  0  0  0  0  0  0  0  0  0  0  0
  -23.2570  -29.4700   22.9550 C   0  0  0  0  0  0  0  0  0  0  0  0
  -21.9730  -29.1880   22.6810 N   0  0  0  0  0  0  0  0  0  0  0  0
  -23.8570  -28.9760   23.9130 O   0  0  0  0  0  0  0  0  0  0  0  0
  -21.5510  -29.6400   21.8800 H   0  0  0  0  0  0  0  0  0  0  0  0
  -18.6150  -27.8690   22.9000 C   0  0  0  0  0  0  0  0  0  0  0  0
  -21.1100  -28.2810   23.4360 C   0  0  0  0  0  3  0  0  0  0  0  0
  -21.3400  -26.8130   23.0100 C   0  0  0  0  0  2  0  0  0  0  0  0
  -20.3790  -26.3460   21.9110 C   0  0  0  0  0  2  0  0  0  0  0  0
  -18.9260  -26.4760   22.3780 C   0  0  0  0  0  2  0  0  0  0  0  0
  -19.6430  -28.7220   23.3820 C   0  0  0  0  0  0  0  0  0  0  0  0
  -19.3060  -30.0190   23.8240 C   0  0  0  0  0  3  0  0  0  0  0  0
  -17.9710  -30.4660   23.7920 C   0  0  0  0  0  3  0  0  0  0  0  0
  -16.9550  -29.6120   23.3280 C   0  0  0  0  0  3  0  0  0  0  0  0
  -17.2780  -28.3160   22.8890 C   0  0  0  0  0  3  0  0  0  0  0  0
  -26.0080  -32.8610   24.3060 C   0  0  0  0  0  3  0  0  0  0  0  0
  -25.5870  -34.2640   24.4140 N   0  0  0  0  0  0  0  0  0  0  0  0
  -25.9490  -35.2340   23.5650 C   0  0  0  0  0  0  0  0  0  0  0  0
  -26.7400  -35.0490   22.6360 O   0  0  0  0  0  0  0  0  0  0  0  0
  -24.8950  -34.4750   25.1180 H   0  0  0  0  0  0  0  0  0  0  0  0
  -24.1780  -36.8430   22.7880 C   0  0  0  0  0  1  0  0  0  0  0  0
  -25.3340  -36.6310   23.7770 C   0  0  0  0  0  3  0  0  0  0  0  0
  -27.3100  -37.7530   24.7090 C   0  0  0  0  0  1  0  0  0  0  0  0
  -26.3130  -37.7310   23.6410 N   0  0  0  0  0  0  0  0  0  0  0  0
  -25.8440  -38.6320   23.6280 H   0  0  0  0  0  0  0  0  0  0  0  0
  -26.3750  -32.2770   25.7260 C   0  0  1  0  0  0  0  0  0  0  0  0
  -25.1440  -32.0110   26.6240 C   0  0  0  0  0  1  0  0  0  0  0  0
  -27.1520  -30.9480   25.5840 C   0  0  0  0  0  1  0  0  0  0  0  0
  -27.3100  -33.2580   26.4710 C   0  0  0  0  0  1  0  0  0  0  0  0
  -29.1990  -18.2860   16.8160 C   0  0  1  0  0  0  0  0  0  0  0  0
  -29.7930  -17.2400   16.2390 F   0  0  0  0  0  0  0  0  0  0  0  0
  -27.8920  -18.1920   16.5680 F   0  0  0  0  0  0  0  0  0  0  0  0
  -29.6790  -19.3830   16.2290 F   0  0  0  0  0  0  0  0  0  0  0  0
  1  5  1  0
  3  1  2  0
  3  4  1  0
  4  6  2  0
  5 16  1  0
  5  2  2  0
  6  2  1  0
  6 47  1  0
  7  4  1  0
  8 16  1  0
  9 14  1  0
 10 11  1  0
 10  9  1  0
 12 11  1  0
 12 21  1  0
 12 13  1  0
 14  8  1  0
 14 13  1  0
 15  8  2  0
 16 17  1  0
 18 19  2  0
 19 38  1  0
 20 19  1  0
 20 23  1  0
 21 22  1  0
 21 18  1  0
 22 20  2  0
 23 24  1  0
 24 25  2  0
 26 29  1  0
 26 25  1  0
 27 26  2  0
 28 27  1  0
 28 23  2  0
 29 30  1  0
 30 31  1  0
 31 32  2  0
 33 32  1  0
 33 37  1  0
 34 33  2  0
 35 30  2  0
 35 34  1  0
 36 35  1  0
 38 39  1  0
 39 42  1  0
 39 41  1  0
 40 38  2  0
 43 18  1  0
 43 44  1  0
 45 43  1  0
 46 47  1  0
 46 50  1  0
 47 49  1  0
 48 46  2  0
 51 50  1  0
 51 52  1  0
 53 52  1  0
 54 65  2  0
 55 53  1  0
 55 60  1  0
 56 64  1  0
 56 66  1  0
 57 59  1  0
 58 64  1  0
 59 60  2  0
 59 58  1  0
 61 55  2  0
 62 61  1  0
 62 57  2  0
 63 57  1  0
 63 56  1  0
 64 54  1  0
 66 68  2  0
 67 66  1  0
 69 67  1  0
 70 75  1  0
 71 67  1  0
 72 71  1  0
 73 74  1  0
 73 72  1  0
 74 70  1  0
 75 71  1  0
 75 76  2  0
 77 76  1  0
 78 77  2  0
 79 70  2  0
 79 78  1  0
 80 54  1  0
 80 81  1  0
 80 90  1  0
 81 84  1  0
 82 86  1  0
 82 81  1  0
 83 82  2  0
 86 85  1  0
 88 86  1  0
 88 87  1  0
 89 88  1  0
 90 93  1  1
 90 91  1  0
 92 90  1  0
 94  3  1  0
 94 95  1  6
 96 94  1  0
 97 94  1  0
M  ISO  4   8 100  16 100  52 101  53 101
M  END
>  <TORSDO>  (92) 
F 21

>  <SCORE>  (92) 
-11.313

>  <name>  (92) 
91

>  <ligand_id>  (92) 
91

>  <original_smiles>  (92) 
[H]c1c([H])c([H])c2c(c1[H])C([H])([H])C([H])([H])C([H])([H])C2([H])N([H])C(=O)C1([H])N(C(=O)C([H])(N([H])C(=O)C([H])(N([H])C([H])([H])[H])C([H])([H])[H])C(C([H])([H])[H])(C([H])([H])[H])C([H])([H])[H])C([H])([H])c2c([H])c(OC([H])([H])C([H])([H])C([H])([H])C(=O)N([H])c3c([H])c(N([H])C(=O)N4C([H])([H])C([H])([H])C([H])([H])C([H])(n5nc(-c6c([H])c([H])c(Oc7c([H])c([H])c(F)c([H])c7F)c([H])c6[H])c(C(=O)N([H])[H])c5N([H])[H])C4([H])[H])c([H])c(C(F)(F)F)c3C([H])([H])[H])c([H])c([H])c2C1([H])[H]

>  <smiles>  (92) 
[H]c1c([H])c([H])c2c(c1[H])C([H])([H])C([H])([H])C([H])([H])C2([H])N([H])C(=O)C1([H])N(C(=O)C([H])(N([H])C(=O)C([H])(N([H])C([H])([H])[H])C([H])([H])[H])C(C([H])([H])[H])(C([H])([H])[H])C([H])([H])[H])C([H])([H])c2c([H])c(OC([H])([H])C([H])([H])C([H])([H])C(=O)N([H])c3c([H])c(N([H])C(=O)N4C([H])([H])C([H])([H])C([H])([H])C([H])(n5nc(-c6c([H])c([H])c(Oc7c([H])c([H])c(F)c([H])c7F)c([H])c6[H])c(C(=O)N([H])[H])c5N([H])[H])C4([H])[H])c([H])c(C(F)(F)F)c3C([H])([H])[H])c([H])c([H])c2C1([H])[H]

$$$$
92:0:0
     RDKit          3D

 94102  0  0  1  0  0  0  0  0999 V2000
  -30.1560  -21.5870   18.9520 O   0  0  0  0  0  0  0  0  0  0  0  0
  -27.8380  -20.7530   19.4780 O   0  0  0  0  0  0  0  0  0  0  0  0
  -29.1660  -21.1610   19.9570 S   0  0  1  0  0  0  0  0  0  0  0  0
  -31.4370  -18.6370   22.4640 C   0  0  0  0  0  3  0  0  0  0  0  0
  -31.1120  -17.3420   21.9930 C   0  0  0  0  0  3  0  0  0  0  0  0
  -29.5760  -18.3470   20.4100 C   0  0  0  0  0  3  0  0  0  0  0  0
  -30.8620  -19.8060   21.9040 C   0  0  0  0  0  0  0  0  0  0  0  0
  -30.1770  -17.1540   20.9530 C   0  0  0  0  0  0  0  0  0  0  0  0
  -29.9080  -19.6820   20.8580 C   0  0  0  0  0  0  0  0  0  0  0  0
  -31.3330  -21.1530   22.4300 C   0  0  0  0  0  1  0  0  0  0  0  0
  -30.5600  -14.6740   20.3080 C   0  0  0  0  0  0  0  0  0  0  0  0
  -30.2910  -12.4580   19.1900 C   0  0  0  0  0  2  0  0  0  0  0  0
  -29.3110  -12.5830   18.0020 C   0  0  0  0  0  2  0  0  0  0  0  0
  -27.8590  -12.3910   18.4800 C   0  0  0  0  0  2  0  0  0  0  0  0
  -27.5250  -13.2560   19.7260 C   0  0  0  0  0  3  0  0  0  0  0  0
  -28.6150  -13.1320   20.8160 C   0  0  0  0  0  2  0  0  0  0  0  0
  -29.9020  -13.4740   20.1910 N   0  0  0  0  0  0  0  0  0  0  0  0
  -31.7330  -14.7840   19.9470 O   0  0  0  0  0  0  0  0  0  0  0  0
  -29.7910  -15.7870   20.5730 N   0  0  0  0  0  0  0  0  0  0  0  0
  -28.8000  -15.6060   20.5710 H   0  0  0  0  0  0  0  0  0  0  0  0
  -25.1510  -13.8430   20.5080 C   0  0  0  0  0  0  0  0  0  0  0  0
  -24.0970  -13.0660   20.9020 C   0  0  0  0  0  0  0  0  0  0  0  0
  -24.5630  -11.7160   20.8550 C   0  0  0  0  0  0  0  0  0  0  0  0
  -26.1910  -12.9660   20.2430 N   0  0  0  0  0  0  0  0  0  0  0  0
  -25.8460  -11.6810   20.5140 N   0  0  0  0  0  0  0  0  0  0  0  0
  -23.8420  -10.4520   21.0550 C   0  0  0  0  0  0  0  0  0  0  0  0
  -24.3000   -9.4760   21.9680 C   0  0  0  0  0  3  0  0  0  0  0  0
  -23.5800   -8.2760   22.1540 C   0  0  0  0  0  3  0  0  0  0  0  0
  -22.3870   -8.0450   21.4270 C   0  0  0  0  0  0  0  0  0  0  0  0
  -21.9490   -9.0100   20.5020 C   0  0  0  0  0  3  0  0  0  0  0  0
  -22.6700  -10.2000   20.3150 C   0  0  0  0  0  3  0  0  0  0  0  0
  -21.6350   -6.9000   21.5270 O   0  0  0  0  0  0  0  0  0  0  0  0
  -21.6260   -6.1420   22.6700 C   0  0  0  0  0  0  0  0  0  0  0  0
  -21.2410   -6.6810   23.9180 C   0  0  0  0  0  3  0  0  0  0  0  0
  -21.1800   -5.8500   25.0550 C   0  0  0  0  0  3  0  0  0  0  0  0
  -21.4910   -4.4820   24.9440 C   0  0  0  0  0  0  0  0  0  0  0  0
  -21.8660   -3.9410   23.7020 C   0  0  0  0  0  3  0  0  0  0  0  0
  -21.9310   -4.7700   22.5680 C   0  0  0  0  0  0  0  0  0  0  0  0
  -22.2750   -4.2400   21.3690 F   0  0  0  0  0  0  0  0  0  0  0  0
  -21.4240   -3.6810   26.0330 F   0  0  0  0  0  0  0  0  0  0  0  0
  -22.7050  -13.5400   21.2110 C   0  0  0  0  0  0  0  0  0  0  0  0
  -21.9990  -12.8370   22.0890 N   0  0  0  0  0  0  0  0  0  0  0  0
  -22.2530  -14.5710   20.7130 O   0  0  0  0  0  0  0  0  0  0  0  0
  -22.3780  -12.0050   22.5150 H   0  0  0  0  0  0  0  0  0  0  0  0
  -21.0690  -13.1410   22.3430 H   0  0  0  0  0  0  0  0  0  0  0  0
  -25.3080  -15.2150   20.3380 N   0  0  0  0  0  0  0  0  0  0  0  0
  -24.5440  -15.8630   20.4860 H   0  0  0  0  0  0  0  0  0  0  0  0
  -26.1490  -15.6690   20.0010 H   0  0  0  0  0  0  0  0  0  0  0  0
  -28.9060  -22.6220   20.9640 N   0  0  0  0  0  0  0  0  0  0  0  0
  -28.5010  -22.3240   21.8530 H   0  0  0  0  0  0  0  0  0  0  0  0
  -26.6270  -23.5330   20.6430 C   0  0  0  0  0  1  0  0  0  0  0  0
  -28.1230  -23.8180   20.4060 C   0  0  0  0  0  3  0  0  0  0  0  0
  -28.4910  -25.2700   20.9880 C   0  0  0  0  0  2  0  0  0  0  0  0
  -28.3750  -26.5020   20.1650 O   0  0  0  0  0  0  0  0  0  0  0  0
  -24.6040  -31.8620   23.2220 C   0  0  0  0  0  0  0  0  0  0  0  0
  -27.2330  -27.3080   20.2040 C   0  0  0  0  0  0  0  0  0  0  0  0
  -23.4060  -30.4600   21.5760 C   0  0  0  0  0  3  0  0  0  0  0  0
  -24.8650  -28.9100   20.1560 C   0  0  0  0  0  0  0  0  0  0  0  0
  -25.9410  -30.7800   21.4080 C   0  0  0  0  0  2  0  0  0  0  0  0
  -26.0240  -29.4000   20.7730 C   0  0  0  0  0  0  0  0  0  0  0  0
  -27.2090  -28.6070   20.7940 C   0  0  0  0  0  3  0  0  0  0  0  0
  -26.0700  -26.8810   19.5330 C   0  0  0  0  0  3  0  0  0  0  0  0
  -24.8900  -27.6550   19.5230 C   0  0  0  0  0  3  0  0  0  0  0  0
  -23.6260  -29.7810   20.1980 C   0  0  0  0  0  2  0  0  0  0  0  0
  -24.6670  -31.0530   22.1260 N   0  0  0  0  0  0  0  0  0  0  0  0
  -23.5170  -32.1410   23.7530 O   0  0  0  0  0  0  0  0  0  0  0  0
  -22.7410  -29.4450   22.5370 C   0  0  0  0  0  0  0  0  0  0  0  0
  -21.4160  -29.2630   22.4050 N   0  0  0  0  0  0  0  0  0  0  0  0
  -23.4180  -28.8220   23.3600 O   0  0  0  0  0  0  0  0  0  0  0  0
  -20.9310  -29.8180   21.7130 H   0  0  0  0  0  0  0  0  0  0  0  0
  -18.0420  -28.0570   22.8900 C   0  0  0  0  0  0  0  0  0  0  0  0
  -20.5970  -28.3290   23.1770 C   0  0  0  0  0  3  0  0  0  0  0  0
  -20.7120  -26.8930   22.6200 C   0  0  0  0  0  2  0  0  0  0  0  0
  -19.6200  -26.5480   21.6020 C   0  0  0  0  0  2  0  0  0  0  0  0
  -18.2290  -26.7020   22.2250 C   0  0  0  0  0  2  0  0  0  0  0  0
  -19.1550  -28.8260   23.3210 C   0  0  0  0  0  0  0  0  0  0  0  0
  -18.9280  -30.0910   23.9070 C   0  0  0  0  0  3  0  0  0  0  0  0
  -17.6200  -30.5880   24.0610 C   0  0  0  0  0  3  0  0  0  0  0  0
  -16.5230  -29.8130   23.6500 C   0  0  0  0  0  3  0  0  0  0  0  0
  -16.7340  -28.5490   23.0700 C   0  0  0  0  0  3  0  0  0  0  0  0
  -25.8850  -32.4940   23.8480 C   0  0  0  0  0  3  0  0  0  0  0  0
  -26.4000  -31.7210   25.1250 C   0  0  1  0  0  0  0  0  0  0  0  0
  -25.3070  -31.4890   26.1940 C   0  0  0  0  0  1  0  0  0  0  0  0
  -26.9830  -30.3410   24.7360 C   0  0  0  0  0  1  0  0  0  0  0  0
  -27.5520  -32.5140   25.7860 C   0  0  0  0  0  1  0  0  0  0  0  0
  -25.5740  -33.8910   24.1820 N   0  0  0  0  0  0  0  0  0  0  0  0
  -25.9060  -34.9470   23.4250 C   0  0  0  0  0  0  0  0  0  0  0  0
  -26.5740  -34.8460   22.3930 O   0  0  0  0  0  0  0  0  0  0  0  0
  -24.9810  -34.0440   24.9830 H   0  0  0  0  0  0  0  0  0  0  0  0
  -24.1750  -36.7390   23.0790 C   0  0  0  0  0  1  0  0  0  0  0  0
  -25.4190  -36.3330   23.8860 C   0  0  0  0  0  3  0  0  0  0  0  0
  -27.5540  -37.2170   24.7140 C   0  0  0  0  0  1  0  0  0  0  0  0
  -26.4510  -37.3870   23.7720 N   0  0  0  0  0  0  0  0  0  0  0  0
  -26.0440  -38.3060   23.9230 H   0  0  0  0  0  0  0  0  0  0  0  0
  1  3  2  0
  2  3  2  0
  3  9  1  0
  3 49  1  1
  5  4  1  0
  6  9  2  0
  6  8  1  0
  7 10  1  0
  7  4  2  0
  8  5  2  0
  9  7  1  0
 11 19  1  0
 12 17  1  0
 13 14  1  0
 13 12  1  0
 15 14  1  0
 15 24  1  0
 15 16  1  0
 17 11  1  0
 17 16  1  0
 18 11  2  0
 19  8  1  0
 20 19  1  0
 21 22  2  0
 22 41  1  0
 23 22  1  0
 23 26  1  0
 24 21  1  0
 24 25  1  0
 25 23  2  0
 26 27  1  0
 27 28  2  0
 29 32  1  0
 29 28  1  0
 30 29  2  0
 31 30  1  0
 31 26  2  0
 32 33  1  0
 33 34  1  0
 34 35  2  0
 36 35  1  0
 36 40  1  0
 37 36  2  0
 38 33  2  0
 38 37  1  0
 39 38  1  0
 41 42  1  0
 42 45  1  0
 42 44  1  0
 43 41  2  0
 46 47  1  0
 46 21  1  0
 48 46  1  0
 49 50  1  0
 52 51  1  0
 52 49  1  0
 52 53  1  0
 54 56  1  0
 54 53  1  0
 55 66  2  0
 56 61  1  0
 57 65  1  0
 57 67  1  0
 58 64  1  0
 58 60  1  0
 59 65  1  0
 60 61  2  0
 60 59  1  0
 62 56  2  0
 63 62  1  0
 63 58  2  0
 64 57  1  0
 65 55  1  0
 67 69  2  0
 68 67  1  0
 70 68  1  0
 71 80  2  0
 71 76  1  0
 72 68  1  0
 72 76  1  0
 73 72  1  0
 74 75  1  0
 74 73  1  0
 75 71  1  0
 76 77  2  0
 77 78  1  0
 79 78  2  0
 80 79  1  0
 81 55  1  0
 81 86  1  0
 81 82  1  0
 82 85  1  1
 82 83  1  0
 84 82  1  0
 86 89  1  0
 87 91  1  0
 87 86  1  0
 88 87  2  0
 91 90  1  0
 93 91  1  0
 93 94  1  0
 93 92  1  0
M  ISO  4  11 100  19 100  53 101  54 101
M  END
>  <TORSDO>  (93) 
F 20

>  <SCORE>  (93) 
-14.081

>  <name>  (93) 
92

>  <ligand_id>  (93) 
92

>  <original_smiles>  (93) 
[H]c1c([H])c([H])c2c(c1[H])C([H])([H])C([H])([H])C([H])([H])C2([H])N([H])C(=O)C1([H])N(C(=O)C([H])(N([H])C(=O)C([H])(N([H])C([H])([H])[H])C([H])([H])[H])C(C([H])([H])[H])(C([H])([H])[H])C([H])([H])[H])C([H])([H])c2c([H])c(OC([H])([H])C([H])(N([H])S(=O)(=O)c3c([H])c(N([H])C(=O)N4C([H])([H])C([H])([H])C([H])([H])C([H])(n5nc(-c6c([H])c([H])c(Oc7c([H])c([H])c(F)c([H])c7F)c([H])c6[H])c(C(=O)N([H])[H])c5N([H])[H])C4([H])[H])c([H])c([H])c3C([H])([H])[H])C([H])([H])[H])c([H])c([H])c2C1([H])[H]

>  <smiles>  (93) 
[H]c1c([H])c([H])c2c(c1[H])C([H])([H])C([H])([H])C([H])([H])C2([H])N([H])C(=O)C1([H])N(C(=O)C([H])(N([H])C(=O)C([H])(N([H])C([H])([H])[H])C([H])([H])[H])C(C([H])([H])[H])(C([H])([H])[H])C([H])([H])[H])C([H])([H])c2c([H])c(OC([H])([H])C([H])(N([H])S(=O)(=O)c3c([H])c(N([H])C(=O)N4C([H])([H])C([H])([H])C([H])([H])C([H])(n5nc(-c6c([H])c([H])c(Oc7c([H])c([H])c(F)c([H])c7F)c([H])c6[H])c(C(=O)N([H])[H])c5N([H])[H])C4([H])[H])c([H])c([H])c3C([H])([H])[H])C([H])([H])[H])c([H])c([H])c2C1([H])[H]

$$$$
93:0:0
     RDKit          3D

 94103  0  0  1  0  0  0  0  0999 V2000
  -27.8900  -21.4770   19.6760 C   0  0  0  0  0  3  0  0  0  0  0  0
  -27.3920  -22.7270   19.8480 C   0  0  0  0  0  0  0  0  0  0  0  0
  -29.5180  -22.5480   20.8780 C   0  0  0  0  0  2  0  0  0  0  0  0
  -28.2570  -23.5110   20.8150 C   0  0  0  0  0  3  0  0  0  0  0  0
  -29.0770  -21.2000   20.3550 N   0  0  0  0  0  0  0  0  0  0  0  0
  -32.0160  -18.9960   21.1520 C   0  0  0  0  0  3  0  0  0  0  0  0
  -31.1670  -20.0940   20.9360 C   0  0  0  0  0  3  0  0  0  0  0  0
  -31.5680  -17.6760   20.9850 C   0  0  0  0  0  3  0  0  0  0  0  0
  -29.3650  -18.5480   20.3860 C   0  0  0  0  0  0  0  0  0  0  0  0
  -29.8170  -19.9450   20.5410 C   0  0  0  0  0  0  0  0  0  0  0  0
  -30.2430  -17.3820   20.5920 C   0  0  0  0  0  0  0  0  0  0  0  0
  -27.9170  -18.2770   20.0190 C   0  0  0  0  0  1  0  0  0  0  0  0
  -30.6060  -14.7830   20.2640 C   0  0  0  0  0  0  0  0  0  0  0  0
  -30.3780  -12.5150   19.2280 C   0  0  0  0  0  2  0  0  0  0  0  0
  -29.4210  -12.5890   18.0200 C   0  0  0  0  0  2  0  0  0  0  0  0
  -27.9600  -12.4060   18.4750 C   0  0  0  0  0  2  0  0  0  0  0  0
  -27.6030  -13.2820   19.7070 C   0  0  0  0  0  3  0  0  0  0  0  0
  -28.6830  -13.1990   20.8060 C   0  0  0  0  0  2  0  0  0  0  0  0
  -29.9620  -13.5650   20.1870 N   0  0  0  0  0  0  0  0  0  0  0  0
  -31.7900  -14.8480   19.9230 O   0  0  0  0  0  0  0  0  0  0  0  0
  -29.8500  -15.9380   20.4830 N   0  0  0  0  0  0  0  0  0  0  0  0
  -28.8630  -15.7560   20.5720 H   0  0  0  0  0  0  0  0  0  0  0  0
  -25.2250  -13.8520   20.4800 C   0  0  0  0  0  0  0  0  0  0  0  0
  -24.1710  -13.0700   20.8650 C   0  0  0  0  0  0  0  0  0  0  0  0
  -24.6440  -11.7220   20.8210 C   0  0  0  0  0  0  0  0  0  0  0  0
  -26.2710  -12.9810   20.2210 N   0  0  0  0  0  0  0  0  0  0  0  0
  -25.9300  -11.6940   20.4900 N   0  0  0  0  0  0  0  0  0  0  0  0
  -23.9280  -10.4540   21.0160 C   0  0  0  0  0  0  0  0  0  0  0  0
  -24.3750   -9.4890   21.9460 C   0  0  0  0  0  3  0  0  0  0  0  0
  -23.6580   -8.2870   22.1300 C   0  0  0  0  0  3  0  0  0  0  0  0
  -22.4800   -8.0420   21.3860 C   0  0  0  0  0  0  0  0  0  0  0  0
  -22.0520   -8.9970   20.4460 C   0  0  0  0  0  3  0  0  0  0  0  0
  -22.7700  -10.1890   20.2600 C   0  0  0  0  0  3  0  0  0  0  0  0
  -21.7340   -6.8920   21.4790 O   0  0  0  0  0  0  0  0  0  0  0  0
  -21.6940   -6.1520   22.6340 C   0  0  0  0  0  0  0  0  0  0  0  0
  -21.2530   -6.7030   23.8570 C   0  0  0  0  0  3  0  0  0  0  0  0
  -21.1600   -5.8900   25.0040 C   0  0  0  0  0  3  0  0  0  0  0  0
  -21.4980   -4.5260   24.9280 C   0  0  0  0  0  0  0  0  0  0  0  0
  -21.9330   -3.9730   23.7100 C   0  0  0  0  0  3  0  0  0  0  0  0
  -22.0270   -4.7850   22.5660 C   0  0  0  0  0  0  0  0  0  0  0  0
  -22.4250   -4.2430   21.3900 F   0  0  0  0  0  0  0  0  0  0  0  0
  -21.4030   -3.7420   26.0280 F   0  0  0  0  0  0  0  0  0  0  0  0
  -22.7750  -13.5380   21.1570 C   0  0  0  0  0  0  0  0  0  0  0  0
  -22.0630  -12.8340   22.0300 N   0  0  0  0  0  0  0  0  0  0  0  0
  -22.3250  -14.5620   20.6470 O   0  0  0  0  0  0  0  0  0  0  0  0
  -22.4410  -12.0060   22.4660 H   0  0  0  0  0  0  0  0  0  0  0  0
  -21.1260  -13.1290   22.2660 H   0  0  0  0  0  0  0  0  0  0  0  0
  -25.3740  -15.2240   20.2980 N   0  0  0  0  0  0  0  0  0  0  0  0
  -24.5930  -15.8610   20.4060 H   0  0  0  0  0  0  0  0  0  0  0  0
  -26.1830  -15.6570   19.8750 H   0  0  0  0  0  0  0  0  0  0  0  0
  -25.7540  -22.9120   18.0150 C   0  0  0  0  0  2  0  0  0  0  0  0
  -26.1550  -23.2020   19.2620 C   0  0  0  0  0  3  0  0  0  0  0  0
  -28.1370  -25.1320   21.0970 C   0  0  0  0  0  2  0  0  0  0  0  0
  -28.3220  -26.3600   20.2490 O   0  0  0  0  0  0  0  0  0  0  0  0
  -24.6200  -31.8790   23.2430 C   0  0  0  0  0  0  0  0  0  0  0  0
  -27.2510  -27.2810   20.2230 C   0  0  0  0  0  0  0  0  0  0  0  0
  -23.4310  -30.4720   21.6010 C   0  0  0  0  0  3  0  0  0  0  0  0
  -24.8940  -28.9160   20.1870 C   0  0  0  0  0  0  0  0  0  0  0  0
  -25.9730  -30.7890   21.4310 C   0  0  0  0  0  2  0  0  0  0  0  0
  -26.0620  -29.4030   20.7900 C   0  0  0  0  0  0  0  0  0  0  0  0
  -27.2480  -28.5980   20.7970 C   0  0  0  0  0  3  0  0  0  0  0  0
  -26.0680  -26.8630   19.5870 C   0  0  0  0  0  3  0  0  0  0  0  0
  -24.9020  -27.6540   19.5730 C   0  0  0  0  0  3  0  0  0  0  0  0
  -23.6550  -29.7910   20.2240 C   0  0  0  0  0  2  0  0  0  0  0  0
  -24.6940  -31.0660   22.1470 N   0  0  0  0  0  0  0  0  0  0  0  0
  -23.5330  -32.1540   23.7710 O   0  0  0  0  0  0  0  0  0  0  0  0
  -22.7650  -29.4570   22.5620 C   0  0  0  0  0  0  0  0  0  0  0  0
  -21.4380  -29.2830   22.4390 N   0  0  0  0  0  0  0  0  0  0  0  0
  -23.4420  -28.8290   23.3800 O   0  0  0  0  0  0  0  0  0  0  0  0
  -20.9500  -29.8420   21.7530 H   0  0  0  0  0  0  0  0  0  0  0  0
  -18.0580  -28.0960   22.9500 C   0  0  0  0  0  0  0  0  0  0  0  0
  -20.6180  -28.3470   23.2110 C   0  0  0  0  0  3  0  0  0  0  0  0
  -20.7130  -26.9160   22.6320 C   0  0  0  0  0  2  0  0  0  0  0  0
  -19.6060  -26.6000   21.6200 C   0  0  0  0  0  2  0  0  0  0  0  0
  -18.2280  -26.7470   22.2710 C   0  0  0  0  0  2  0  0  0  0  0  0
  -19.1810  -28.8530   23.3780 C   0  0  0  0  0  0  0  0  0  0  0  0
  -18.9670  -30.1140   23.9740 C   0  0  0  0  0  3  0  0  0  0  0  0
  -17.6640  -30.6180   24.1500 C   0  0  0  0  0  3  0  0  0  0  0  0
  -16.5560  -29.8570   23.7380 C   0  0  0  0  0  3  0  0  0  0  0  0
  -16.7550  -28.5990   23.1430 C   0  0  0  0  0  3  0  0  0  0  0  0
  -25.8960  -32.5200   23.8680 C   0  0  0  0  0  3  0  0  0  0  0  0
  -26.4060  -31.7590   25.1550 C   0  0  1  0  0  0  0  0  0  0  0  0
  -25.3060  -31.5250   26.2180 C   0  0  0  0  0  1  0  0  0  0  0  0
  -26.9940  -30.3790   24.7790 C   0  0  0  0  0  1  0  0  0  0  0  0
  -27.5500  -32.5600   25.8190 C   0  0  0  0  0  1  0  0  0  0  0  0
  -25.5790  -33.9190   24.1910 N   0  0  0  0  0  0  0  0  0  0  0  0
  -25.9090  -34.9710   23.4300 C   0  0  0  0  0  0  0  0  0  0  0  0
  -26.5830  -34.8660   22.4020 O   0  0  0  0  0  0  0  0  0  0  0  0
  -24.9810  -34.0730   24.9900 H   0  0  0  0  0  0  0  0  0  0  0  0
  -24.1800  -36.7610   23.0610 C   0  0  0  0  0  1  0  0  0  0  0  0
  -25.4170  -36.3600   23.8820 C   0  0  0  0  0  3  0  0  0  0  0  0
  -27.5440  -37.2540   24.7230 C   0  0  0  0  0  1  0  0  0  0  0  0
  -26.4480  -37.4150   23.7720 N   0  0  0  0  0  0  0  0  0  0  0  0
  -26.0390  -38.3350   23.9110 H   0  0  0  0  0  0  0  0  0  0  0  0
  1  2  2  0
  1  5  1  0
  2  4  1  0
  4  3  1  0
  4 53  1  0
  5 10  1  0
  5  3  1  0
  7  6  2  0
  8  6  1  0
  9 10  2  0
  9 11  1  0
 10  7  1  0
 11  8  2  0
 12  9  1  0
 13 21  1  0
 14 19  1  0
 15 16  1  0
 15 14  1  0
 17 16  1  0
 17 26  1  0
 17 18  1  0
 19 13  1  0
 19 18  1  0
 20 13  2  0
 21 22  1  0
 21 11  1  0
 23 24  2  0
 24 43  1  0
 25 24  1  0
 25 28  1  0
 26 23  1  0
 26 27  1  0
 27 25  2  0
 28 29  1  0
 29 30  2  0
 31 34  1  0
 31 30  1  0
 32 31  2  0
 33 32  1  0
 33 28  2  0
 34 35  1  0
 35 36  1  0
 36 37  2  0
 38 37  1  0
 38 42  1  0
 39 38  2  0
 40 35  2  0
 40 39  1  0
 41 40  1  0
 43 44  1  0
 44 47  1  0
 44 46  1  0
 45 43  2  0
 48 49  1  0
 48 23  1  0
 50 48  1  0
 51 52  2  0
 52  2  1  0
 54 53  1  0
 55 66  2  0
 56 54  1  0
 56 61  1  0
 57 65  1  0
 57 67  1  0
 58 64  1  0
 58 60  1  0
 59 65  1  0
 60 61  2  0
 60 59  1  0
 62 56  2  0
 63 62  1  0
 63 58  2  0
 64 57  1  0
 65 55  1  0
 67 69  2  0
 68 67  1  0
 70 68  1  0
 71 80  2  0
 71 76  1  0
 72 68  1  0
 72 76  1  0
 73 72  1  0
 74 75  1  0
 74 73  1  0
 75 71  1  0
 76 77  2  0
 77 78  1  0
 79 78  2  0
 80 79  1  0
 81 55  1  0
 81 86  1  0
 81 82  1  0
 82 85  1  1
 82 83  1  0
 84 82  1  0
 86 89  1  0
 87 91  1  0
 87 86  1  0
 88 87  2  0
 91 90  1  0
 93 91  1  0
 93 94  1  0
 93 92  1  0
M  ISO  4  13 100  21 100  53 101  54 101
M  END
>  <TORSDO>  (94) 
F 19

>  <SCORE>  (94) 
-14.868

>  <name>  (94) 
93

>  <ligand_id>  (94) 
93

>  <original_smiles>  (94) 
[H]C([H])=C([H])C1=C([H])N(c2c([H])c([H])c([H])c(N([H])C(=O)N3C([H])([H])C([H])([H])C([H])([H])C([H])(n4nc(-c5c([H])c([H])c(Oc6c([H])c([H])c(F)c([H])c6F)c([H])c5[H])c(C(=O)N([H])[H])c4N([H])[H])C3([H])[H])c2C([H])([H])[H])C([H])([H])C1([H])C([H])([H])Oc1c([H])c([H])c2c(c1[H])C([H])([H])N(C(=O)C([H])(N([H])C(=O)C([H])(N([H])C([H])([H])[H])C([H])([H])[H])C(C([H])([H])[H])(C([H])([H])[H])C([H])([H])[H])C([H])(C(=O)N([H])C1([H])c3c([H])c([H])c([H])c([H])c3C([H])([H])C([H])([H])C1([H])[H])C2([H])[H]

>  <smiles>  (94) 
[H]C([H])=C([H])C1=C([H])N(c2c([H])c([H])c([H])c(N([H])C(=O)N3C([H])([H])C([H])([H])C([H])([H])C([H])(n4nc(-c5c([H])c([H])c(Oc6c([H])c([H])c(F)c([H])c6F)c([H])c5[H])c(C(=O)N([H])[H])c4N([H])[H])C3([H])[H])c2C([H])([H])[H])C([H])([H])C1([H])C([H])([H])Oc1c([H])c([H])c2c(c1[H])C([H])([H])N(C(=O)C([H])(N([H])C(=O)C([H])(N([H])C([H])([H])[H])C([H])([H])[H])C(C([H])([H])[H])(C([H])([H])[H])C([H])([H])[H])C([H])(C(=O)N([H])C1([H])c3c([H])c([H])c([H])c([H])c3C([H])([H])C([H])([H])C1([H])[H])C2([H])[H]

$$$$
94:0:0
     RDKit          3D

 94102  0  0  1  0  0  0  0  0999 V2000
  -28.3610  -21.3860   20.6560 C   0  0  0  0  0  0  0  0  0  0  0  0
  -29.0870  -20.3340   21.0790 N   0  0  0  0  0  0  0  0  0  0  0  0
  -27.8120  -21.4290   19.5510 O   0  0  0  0  0  0  0  0  0  0  0  0
  -29.3380  -20.3220   22.0580 H   0  0  0  0  0  0  0  0  0  0  0  0
  -30.6630  -18.5330   18.2070 C   0  0  0  0  0  3  0  0  0  0  0  0
  -30.1330  -19.5530   19.0070 C   0  0  0  0  0  3  0  0  0  0  0  0
  -30.6690  -17.2110   18.6740 C   0  0  0  0  0  3  0  0  0  0  0  0
  -29.6050  -17.9230   20.7620 C   0  0  0  0  0  0  0  0  0  0  0  0
  -29.5830  -19.2640   20.2780 C   0  0  0  0  0  0  0  0  0  0  0  0
  -30.1610  -16.8880   19.9570 C   0  0  0  0  0  0  0  0  0  0  0  0
  -29.0300  -17.5690   22.1300 C   0  0  0  0  0  1  0  0  0  0  0  0
  -30.8370  -14.4990   19.9110 C   0  0  0  0  0  0  0  0  0  0  0  0
  -30.4190  -12.3850   18.7420 C   0  0  0  0  0  2  0  0  0  0  0  0
  -29.3860  -12.6680   17.6320 C   0  0  0  0  0  2  0  0  0  0  0  0
  -27.9510  -12.5330   18.1780 C   0  0  0  0  0  2  0  0  0  0  0  0
  -27.7350  -13.3170   19.5010 C   0  0  0  0  0  3  0  0  0  0  0  0
  -28.8760  -13.0350   20.5060 C   0  0  0  0  0  2  0  0  0  0  0  0
  -30.1550  -13.3270   19.8390 N   0  0  0  0  0  0  0  0  0  0  0  0
  -31.9520  -14.6570   19.4060 O   0  0  0  0  0  0  0  0  0  0  0  0
  -30.1410  -15.5320   20.4200 N   0  0  0  0  0  0  0  0  0  0  0  0
  -29.3560  -15.2760   20.9980 H   0  0  0  0  0  0  0  0  0  0  0  0
  -25.4240  -13.9170   20.4640 C   0  0  0  0  0  0  0  0  0  0  0  0
  -24.3760  -13.1400   20.8750 C   0  0  0  0  0  0  0  0  0  0  0  0
  -24.8000  -11.7850   20.7100 C   0  0  0  0  0  0  0  0  0  0  0  0
  -26.4230  -13.0350   20.0790 N   0  0  0  0  0  0  0  0  0  0  0  0
  -26.0550  -11.7440   20.2830 N   0  0  0  0  0  0  0  0  0  0  0  0
  -24.0640  -10.5260   20.8790 C   0  0  0  0  0  0  0  0  0  0  0  0
  -24.5300   -9.5080   21.7410 C   0  0  0  0  0  3  0  0  0  0  0  0
  -23.7960   -8.3140   21.9010 C   0  0  0  0  0  3  0  0  0  0  0  0
  -22.5810   -8.1270   21.1980 C   0  0  0  0  0  0  0  0  0  0  0  0
  -22.1340   -9.1330   20.3240 C   0  0  0  0  0  3  0  0  0  0  0  0
  -22.8690  -10.3200   20.1620 C   0  0  0  0  0  3  0  0  0  0  0  0
  -21.8150   -6.9900   21.2720 O   0  0  0  0  0  0  0  0  0  0  0  0
  -21.7770   -6.2190   22.4060 C   0  0  0  0  0  0  0  0  0  0  0  0
  -21.3860   -6.7490   23.6550 C   0  0  0  0  0  3  0  0  0  0  0  0
  -21.2950   -5.9060   24.7800 C   0  0  0  0  0  3  0  0  0  0  0  0
  -21.5840   -4.5340   24.6580 C   0  0  0  0  0  0  0  0  0  0  0  0
  -21.9680   -4.0030   23.4140 C   0  0  0  0  0  3  0  0  0  0  0  0
  -22.0610   -4.8440   22.2910 C   0  0  0  0  0  0  0  0  0  0  0  0
  -22.4110   -4.3220   21.0900 F   0  0  0  0  0  0  0  0  0  0  0  0
  -21.4880   -3.7220   25.7370 F   0  0  0  0  0  0  0  0  0  0  0  0
  -23.0200  -13.6210   21.3060 C   0  0  0  0  0  0  0  0  0  0  0  0
  -22.3660  -12.8880   22.2010 N   0  0  0  0  0  0  0  0  0  0  0  0
  -22.5540  -14.6800   20.8880 O   0  0  0  0  0  0  0  0  0  0  0  0
  -22.7570  -12.0290   22.5590 H   0  0  0  0  0  0  0  0  0  0  0  0
  -21.4600  -13.1900   22.5320 H   0  0  0  0  0  0  0  0  0  0  0  0
  -25.6060  -15.2930   20.3660 N   0  0  0  0  0  0  0  0  0  0  0  0
  -24.8690  -15.9520   20.5850 H   0  0  0  0  0  0  0  0  0  0  0  0
  -26.4300  -15.7380   19.9780 H   0  0  0  0  0  0  0  0  0  0  0  0
  -28.1940  -22.5690   21.6160 C   0  0  0  0  0  2  0  0  0  0  0  0
  -28.6700  -23.8890   20.9700 C   0  0  0  0  0  2  0  0  0  0  0  0
  -28.4930  -25.1280   21.8680 C   0  0  0  0  0  2  0  0  0  0  0  0
  -29.1220  -26.4000   21.2670 C   0  0  0  0  0  2  0  0  0  0  0  0
  -28.5130  -26.7250   20.0180 O   0  0  0  0  0  0  0  0  0  0  0  0
  -24.6990  -31.8290   23.2190 C   0  0  0  0  0  0  0  0  0  0  0  0
  -27.3550  -27.4600   20.0860 C   0  0  0  0  0  0  0  0  0  0  0  0
  -23.4890  -30.4380   21.5670 C   0  0  0  0  0  3  0  0  0  0  0  0
  -24.9430  -28.9230   20.1210 C   0  0  0  0  0  0  0  0  0  0  0  0
  -26.0060  -30.8220   21.3560 C   0  0  0  0  0  2  0  0  0  0  0  0
  -26.0960  -29.4560   20.7110 C   0  0  0  0  0  0  0  0  0  0  0  0
  -27.3040  -28.7310   20.6970 C   0  0  0  0  0  3  0  0  0  0  0  0
  -26.1950  -26.9350   19.4840 C   0  0  0  0  0  3  0  0  0  0  0  0
  -24.9850  -27.6570   19.5070 C   0  0  0  0  0  3  0  0  0  0  0  0
  -23.6930  -29.7690   20.1800 C   0  0  0  0  0  2  0  0  0  0  0  0
  -24.7490  -31.0440   22.1060 N   0  0  0  0  0  0  0  0  0  0  0  0
  -23.6210  -32.0900   23.7700 O   0  0  0  0  0  0  0  0  0  0  0  0
  -22.8490  -29.4040   22.5200 C   0  0  0  0  0  0  0  0  0  0  0  0
  -21.5240  -29.2250   22.4050 N   0  0  0  0  0  0  0  0  0  0  0  0
  -23.5420  -28.7650   23.3170 O   0  0  0  0  0  0  0  0  0  0  0  0
  -21.0270  -29.7940   21.7330 H   0  0  0  0  0  0  0  0  0  0  0  0
  -18.1520  -28.0370   22.9210 C   0  0  0  0  0  0  0  0  0  0  0  0
  -20.7140  -28.2770   23.1690 C   0  0  0  0  0  3  0  0  0  0  0  0
  -20.8020  -26.8570   22.5670 C   0  0  0  0  0  2  0  0  0  0  0  0
  -19.6880  -26.5560   21.5610 C   0  0  0  0  0  2  0  0  0  0  0  0
  -18.3140  -26.6970   22.2230 C   0  0  0  0  0  2  0  0  0  0  0  0
  -19.2790  -28.7870   23.3510 C   0  0  0  0  0  0  0  0  0  0  0  0
  -19.0740  -30.0420   23.9630 C   0  0  0  0  0  3  0  0  0  0  0  0
  -17.7730  -30.5480   24.1510 C   0  0  0  0  0  3  0  0  0  0  0  0
  -16.6610  -29.7940   23.7380 C   0  0  0  0  0  3  0  0  0  0  0  0
  -16.8510  -28.5410   23.1290 C   0  0  0  0  0  3  0  0  0  0  0  0
  -25.9880  -32.4560   23.8380 C   0  0  0  0  0  3  0  0  0  0  0  0
  -25.6700  -33.8400   24.2120 N   0  0  0  0  0  0  0  0  0  0  0  0
  -25.9830  -34.9160   23.4780 C   0  0  0  0  0  0  0  0  0  0  0  0
  -26.6420  -34.8500   22.4380 O   0  0  0  0  0  0  0  0  0  0  0  0
  -25.0820  -33.9650   25.0230 H   0  0  0  0  0  0  0  0  0  0  0  0
  -24.2340  -36.7010   23.1870 C   0  0  0  0  0  1  0  0  0  0  0  0
  -25.4840  -36.2850   23.9790 C   0  0  0  0  0  3  0  0  0  0  0  0
  -27.6160  -37.1660   24.8220 C   0  0  0  0  0  1  0  0  0  0  0  0
  -26.5060  -37.3510   23.8920 N   0  0  0  0  0  0  0  0  0  0  0  0
  -26.0910  -38.2620   24.0710 H   0  0  0  0  0  0  0  0  0  0  0  0
  -26.5380  -31.6520   25.0800 C   0  0  1  0  0  0  0  0  0  0  0  0
  -25.4680  -31.3640   26.1580 C   0  0  0  0  0  1  0  0  0  0  0  0
  -27.1330  -30.2960   24.6300 C   0  0  0  0  0  1  0  0  0  0  0  0
  -27.6890  -32.4410   25.7480 C   0  0  0  0  0  1  0  0  0  0  0  0
  1  2  1  0
  1 50  1  0
  2  4  1  0
  3  1  2  0
  5  7  2  0
  5  6  1  0
  6  9  2  0
  7 10  1  0
  8 11  1  0
  9  8  1  0
  9  2  1  0
 10 20  1  0
 10  8  2  0
 12 20  1  0
 13 18  1  0
 14 15  1  0
 14 13  1  0
 16 15  1  0
 16 25  1  0
 16 17  1  0
 18 12  1  0
 18 17  1  0
 19 12  2  0
 20 21  1  0
 22 23  2  0
 23 42  1  0
 24 23  1  0
 24 27  1  0
 25 26  1  0
 25 22  1  0
 26 24  2  0
 27 28  1  0
 28 29  2  0
 30 33  1  0
 30 29  1  0
 31 30  2  0
 32 31  1  0
 32 27  2  0
 33 34  1  0
 34 35  1  0
 35 36  2  0
 37 36  1  0
 37 41  1  0
 38 37  2  0
 39 34  2  0
 39 38  1  0
 40 39  1  0
 42 43  1  0
 43 46  1  0
 43 45  1  0
 44 42  2  0
 47 22  1  0
 47 48  1  0
 49 47  1  0
 51 50  1  0
 51 52  1  0
 53 52  1  0
 54 56  1  0
 54 53  1  0
 55 66  2  0
 56 61  1  0
 57 65  1  0
 57 67  1  0
 58 64  1  0
 58 60  1  0
 59 65  1  0
 60 59  1  0
 61 60  2  0
 62 63  1  0
 62 56  2  0
 63 58  2  0
 64 57  1  0
 65 55  1  0
 67 69  2  0
 68 67  1  0
 70 68  1  0
 71 80  2  0
 71 76  1  0
 72 68  1  0
 72 76  1  0
 73 72  1  0
 74 75  1  0
 74 73  1  0
 75 71  1  0
 76 77  2  0
 77 78  1  0
 79 78  2  0
 80 79  1  0
 81 55  1  0
 81 82  1  0
 81 91  1  0
 82 85  1  0
 83 87  1  0
 83 82  1  0
 84 83  2  0
 87 86  1  0
 89 87  1  0
 89 90  1  0
 89 88  1  0
 91 94  1  1
 91 92  1  0
 93 91  1  0
M  ISO  4  12 100  20 100  53 101  54 101
M  END
>  <TORSDO>  (95) 
F 21

>  <SCORE>  (95) 
-11.791

>  <name>  (95) 
94

>  <ligand_id>  (95) 
94

>  <original_smiles>  (95) 
[H]c1c([H])c(N([H])C(=O)N2C([H])([H])C([H])([H])C([H])([H])C([H])(n3nc(-c4c([H])c([H])c(Oc5c([H])c([H])c(F)c([H])c5F)c([H])c4[H])c(C(=O)N([H])[H])c3N([H])[H])C2([H])[H])c(C([H])([H])[H])c(N([H])C(=O)C([H])([H])C([H])([H])C([H])([H])C([H])([H])Oc2c([H])c([H])c3c(c2[H])C([H])([H])N(C(=O)C([H])(N([H])C(=O)C([H])(N([H])C([H])([H])[H])C([H])([H])[H])C(C([H])([H])[H])(C([H])([H])[H])C([H])([H])[H])C([H])(C(=O)N([H])C2([H])c4c([H])c([H])c([H])c([H])c4C([H])([H])C([H])([H])C2([H])[H])C3([H])[H])c1[H]

>  <smiles>  (95) 
[H]c1c([H])c(N([H])C(=O)N2C([H])([H])C([H])([H])C([H])([H])C([H])(n3nc(-c4c([H])c([H])c(Oc5c([H])c([H])c(F)c([H])c5F)c([H])c4[H])c(C(=O)N([H])[H])c3N([H])[H])C2([H])[H])c(C([H])([H])[H])c(N([H])C(=O)C([H])([H])C([H])([H])C([H])([H])C([H])([H])Oc2c([H])c([H])c3c(c2[H])C([H])([H])N(C(=O)C([H])(N([H])C(=O)C([H])(N([H])C([H])([H])[H])C([H])([H])[H])C(C([H])([H])[H])(C([H])([H])[H])C([H])([H])[H])C([H])(C(=O)N([H])C2([H])c4c([H])c([H])c([H])c([H])c4C([H])([H])C([H])([H])C2([H])[H])C3([H])[H])c1[H]

$$$$
