0:0:0
     RDKit          3D

 99108  0  0  1  0  0  0  0  0999 V2000
  -29.4830  -20.0960   20.1550 C   0  0  0  0  0  0  0  0  0  0  0  0
  -27.5820  -20.7970   18.9110 C   0  0  0  0  0  2  0  0  0  0  0  0
  -27.6260  -19.2660   19.1310 C   0  0  0  0  0  2  0  0  0  0  0  0
  -28.8670  -21.3940   19.5280 C   0  0  2  0  0  0  0  0  0  0  0  0
  -29.8320  -21.9330   18.4350 C   0  0  0  0  0  1  0  0  0  0  0  0
  -28.9490  -18.9320   19.6690 N   0  0  0  0  0  0  0  0  0  0  0  0
  -30.4350  -20.1320   20.9450 O   0  0  0  0  0  0  0  0  0  0  0  0
  -32.3540  -17.6870   17.7240 C   0  0  0  0  0  3  0  0  0  0  0  0
  -31.9820  -16.9670   18.8700 C   0  0  0  0  0  3  0  0  0  0  0  0
  -30.1260  -18.5940   17.6240 C   0  0  0  0  0  3  0  0  0  0  0  0
  -29.8340  -18.0700   18.9080 C   0  0  0  0  0  0  0  0  0  0  0  0
  -31.3930  -18.4370   17.0430 C   0  0  0  0  0  0  0  0  0  0  0  0
  -30.6540  -16.9900   19.4050 C   0  0  0  0  0  0  0  0  0  0  0  0
  -30.7410  -14.6270   20.3170 C   0  0  0  0  0  0  0  0  0  0  0  0
  -30.3420  -12.4200   19.3090 C   0  0  0  0  0  2  0  0  0  0  0  0
  -29.4090  -12.5450   18.0910 C   0  0  0  0  0  2  0  0  0  0  0  0
  -27.9410  -12.4160   18.5320 C   0  0  0  0  0  2  0  0  0  0  0  0
  -27.5970  -13.3020   19.7590 C   0  0  0  0  0  3  0  0  0  0  0  0
  -28.6710  -13.2300   20.8690 C   0  0  0  0  0  2  0  0  0  0  0  0
  -29.9650  -13.5020   20.2410 N   0  0  0  0  0  0  0  0  0  0  0  0
  -31.9540  -14.5020   20.1980 O   0  0  0  0  0  0  0  0  0  0  0  0
  -30.1670  -15.8800   20.2450 N   0  0  0  0  0  0  0  0  0  0  0  0
  -29.1880  -15.9210   20.4870 H   0  0  0  0  0  0  0  0  0  0  0  0
  -25.2190  -13.8930   20.5100 C   0  0  0  0  0  0  0  0  0  0  0  0
  -24.1530  -13.1200   20.8800 C   0  0  0  0  0  0  0  0  0  0  0  0
  -24.6130  -11.7680   20.8470 C   0  0  0  0  0  0  0  0  0  0  0  0
  -26.2600  -13.0140   20.2660 N   0  0  0  0  0  0  0  0  0  0  0  0
  -25.9030  -11.7290   20.5340 N   0  0  0  0  0  0  0  0  0  0  0  0
  -23.8830  -10.5070   21.0340 C   0  0  0  0  0  0  0  0  0  0  0  0
  -24.3100   -9.5390   21.9680 C   0  0  0  0  0  3  0  0  0  0  0  0
  -23.5800   -8.3440   22.1450 C   0  0  0  0  0  3  0  0  0  0  0  0
  -22.4100   -8.1090   21.3860 C   0  0  0  0  0  0  0  0  0  0  0  0
  -22.0040   -9.0630   20.4370 C   0  0  0  0  0  3  0  0  0  0  0  0
  -22.7350  -10.2490   20.2570 C   0  0  0  0  0  3  0  0  0  0  0  0
  -21.6530   -6.9660   21.4740 O   0  0  0  0  0  0  0  0  0  0  0  0
  -21.5890   -6.2300   22.6290 C   0  0  0  0  0  0  0  0  0  0  0  0
  -21.1360   -6.7880   23.8450 C   0  0  0  0  0  3  0  0  0  0  0  0
  -21.0150   -5.9770   24.9910 C   0  0  0  0  0  3  0  0  0  0  0  0
  -21.3450   -4.6090   24.9250 C   0  0  0  0  0  0  0  0  0  0  0  0
  -21.7970   -4.0520   23.7160 C   0  0  0  0  0  3  0  0  0  0  0  0
  -21.9150   -4.8580   22.5720 C   0  0  0  0  0  0  0  0  0  0  0  0
  -22.3290   -4.3120   21.4030 F   0  0  0  0  0  0  0  0  0  0  0  0
  -21.2220   -3.8270   26.0230 F   0  0  0  0  0  0  0  0  0  0  0  0
  -22.7560  -13.5980   21.1500 C   0  0  0  0  0  0  0  0  0  0  0  0
  -22.0250  -12.9000   22.0120 N   0  0  0  0  0  0  0  0  0  0  0  0
  -22.3230  -14.6290   20.6350 O   0  0  0  0  0  0  0  0  0  0  0  0
  -22.3900  -12.0690   22.4550 H   0  0  0  0  0  0  0  0  0  0  0  0
  -21.0850  -13.1990   22.2300 H   0  0  0  0  0  0  0  0  0  0  0  0
  -25.3790  -15.2650   20.3320 N   0  0  0  0  0  0  0  0  0  0  0  0
  -24.5980  -15.9030   20.4370 H   0  0  0  0  0  0  0  0  0  0  0  0
  -26.2160  -15.7140   19.9840 H   0  0  0  0  0  0  0  0  0  0  0  0
  -31.7110  -19.1110   15.8660 N   0  0  0  0  0  0  0  0  0  0  0  0
  -32.6010  -18.9670   15.3990 H   0  0  0  0  0  0  0  0  0  0  0  0
  -30.9840  -19.5110   15.2820 H   0  0  0  0  0  0  0  0  0  0  0  0
  -28.5640  -22.5890   20.5170 C   0  0  0  0  0  0  0  0  0  0  0  0
  -28.2890  -22.3950   21.7050 O   0  0  0  0  0  0  0  0  0  0  0  0
  -28.5660  -24.0490   19.9330 C   0  0  0  0  0  3  0  0  0  0  0  0
  -28.2470  -25.2490   20.8890 C   0  0  0  0  0  3  0  0  0  0  0  0
  -28.3970  -26.5810   20.3000 O   0  0  0  0  0  0  0  0  0  0  0  0
  -24.5890  -31.8880   23.2490 C   0  0  0  0  0  0  0  0  0  0  0  0
  -27.2600  -27.3760   20.2570 C   0  0  0  0  0  0  0  0  0  0  0  0
  -23.4100  -30.4760   21.5990 C   0  0  0  0  0  3  0  0  0  0  0  0
  -24.8820  -28.9240   20.2040 C   0  0  0  0  0  0  0  0  0  0  0  0
  -25.9430  -30.8240   21.4320 C   0  0  0  0  0  2  0  0  0  0  0  0
  -26.0370  -29.4420   20.8050 C   0  0  0  0  0  0  0  0  0  0  0  0
  -27.2310  -28.6780   20.8220 C   0  0  0  0  0  3  0  0  0  0  0  0
  -26.0910  -26.8850   19.6410 C   0  0  0  0  0  3  0  0  0  0  0  0
  -24.9070  -27.6460   19.6150 C   0  0  0  0  0  3  0  0  0  0  0  0
  -23.6410  -29.7870   20.2270 C   0  0  0  0  0  2  0  0  0  0  0  0
  -24.6670  -31.0780   22.1530 N   0  0  0  0  0  0  0  0  0  0  0  0
  -23.4980  -32.1620   23.7710 O   0  0  0  0  0  0  0  0  0  0  0  0
  -22.7420  -29.4620   22.5570 C   0  0  0  0  0  0  0  0  0  0  0  0
  -21.4180  -29.2860   22.4200 N   0  0  0  0  0  0  0  0  0  0  0  0
  -23.4140  -28.8340   23.3800 O   0  0  0  0  0  0  0  0  0  0  0  0
  -20.9370  -29.8450   21.7290 H   0  0  0  0  0  0  0  0  0  0  0  0
  -18.0290  -28.1220   22.9100 C   0  0  0  0  0  0  0  0  0  0  0  0
  -20.5890  -28.3520   23.1840 C   0  0  0  0  0  3  0  0  0  0  0  0
  -20.6770  -26.9250   22.5970 C   0  0  0  0  0  2  0  0  0  0  0  0
  -19.5740  -26.6200   21.5810 C   0  0  0  0  0  2  0  0  0  0  0  0
  -18.1930  -26.7740   22.2260 C   0  0  0  0  0  2  0  0  0  0  0  0
  -19.1550  -28.8700   23.3460 C   0  0  0  0  0  0  0  0  0  0  0  0
  -18.9510  -30.1300   23.9480 C   0  0  0  0  0  3  0  0  0  0  0  0
  -17.6530  -30.6470   24.1160 C   0  0  0  0  0  3  0  0  0  0  0  0
  -16.5400  -29.8970   23.6960 C   0  0  0  0  0  3  0  0  0  0  0  0
  -16.7290  -28.6360   23.1020 C   0  0  0  0  0  3  0  0  0  0  0  0
  -25.8640  -32.5280   23.8830 C   0  0  0  0  0  3  0  0  0  0  0  0
  -25.5510  -33.9290   24.1940 N   0  0  0  0  0  0  0  0  0  0  0  0
  -25.8970  -34.9750   23.4320 C   0  0  0  0  0  0  0  0  0  0  0  0
  -26.5850  -34.8610   22.4140 O   0  0  0  0  0  0  0  0  0  0  0  0
  -24.9460  -34.0920   24.9860 H   0  0  0  0  0  0  0  0  0  0  0  0
  -24.1840  -36.7730   23.0190 C   0  0  0  0  0  1  0  0  0  0  0  0
  -25.4020  -36.3680   23.8670 C   0  0  0  0  0  3  0  0  0  0  0  0
  -27.5170  -37.2550   24.7490 C   0  0  0  0  0  1  0  0  0  0  0  0
  -26.4410  -37.4180   23.7740 N   0  0  0  0  0  0  0  0  0  0  0  0
  -26.0340  -38.3400   23.9030 H   0  0  0  0  0  0  0  0  0  0  0  0
  -26.3620  -31.7680   25.1730 C   0  0  1  0  0  0  0  0  0  0  0  0
  -25.2560  -31.5420   26.2290 C   0  0  0  0  0  1  0  0  0  0  0  0
  -26.9480  -30.3860   24.7980 C   0  0  0  0  0  1  0  0  0  0  0  0
  -27.4990  -32.5690   25.8480 C   0  0  0  0  0  1  0  0  0  0  0  0
  1  7  2  0
  2  3  1  0
  2  4  1  0
  3  6  1  0
  4  5  1  6
  4  1  1  0
  4 55  1  0
  6  1  1  0
  8  9  1  0
  9 13  2  0
 10 11  2  0
 11 13  1  0
 11  6  1  0
 12 10  1  0
 12  8  2  0
 13 22  1  0
 15 20  1  0
 16 17  1  0
 16 15  1  0
 18 17  1  0
 18 27  1  0
 18 19  1  0
 20 14  1  0
 20 19  1  0
 21 14  2  0
 22 14  1  0
 22 23  1  0
 24 25  2  0
 25 44  1  0
 26 25  1  0
 26 29  1  0
 27 24  1  0
 27 28  1  0
 28 26  2  0
 29 30  1  0
 30 31  2  0
 32 35  1  0
 32 31  1  0
 33 32  2  0
 34 33  1  0
 34 29  2  0
 35 36  1  0
 36 37  1  0
 37 38  2  0
 39 38  1  0
 39 43  1  0
 40 39  2  0
 41 36  2  0
 41 40  1  0
 42 41  1  0
 44 45  1  0
 45 48  1  0
 45 47  1  0
 46 44  2  0
 49 50  1  0
 49 24  1  0
 51 49  1  0
 52 12  1  0
 53 52  1  0
 54 52  1  0
 55 56  2  0
 57 55  1  0
 57 58  2  0
 59 58  1  0
 60 71  2  0
 61 59  1  0
 61 66  1  0
 62 70  1  0
 62 72  1  0
 63 69  1  0
 63 65  1  0
 64 70  1  0
 65 66  2  0
 65 64  1  0
 67 61  2  0
 68 67  1  0
 68 63  2  0
 69 62  1  0
 70 60  1  0
 72 74  2  0
 73 72  1  0
 75 73  1  0
 76 85  2  0
 76 81  1  0
 77 73  1  0
 77 81  1  0
 78 77  1  0
 79 80  1  0
 79 78  1  0
 80 76  1  0
 81 82  2  0
 82 83  1  0
 84 83  2  0
 85 84  1  0
 86 60  1  0
 86 87  1  0
 86 96  1  0
 87 90  1  0
 88 92  1  0
 88 87  1  0
 89 88  2  0
 92 91  1  0
 94 92  1  0
 94 95  1  0
 94 93  1  0
 96 99  1  1
 96 97  1  0
 98 96  1  0
M  ISO  4  14 100  22 100  58 101  59 101
M  END
>  <TORSDO>  (1) 
F 21

>  <SCORE>  (1) 
-14.216

>  <name>  (1) 
0

>  <ligand_id>  (1) 
0

>  <original_smiles>  (1) 
[H]c1c([H])c([H])c2c(c1[H])C([H])([H])C([H])([H])C([H])([H])C2([H])N([H])C(=O)C1([H])N(C(=O)C([H])(N([H])C(=O)C([H])(N([H])C([H])([H])[H])C([H])([H])[H])C(C([H])([H])[H])(C([H])([H])[H])C([H])([H])[H])C([H])([H])c2c([H])c(OC([H])([H])C([H])([H])C(=O)C3(C([H])([H])[H])C(=O)N(c4c([H])c(N([H])[H])c([H])c([H])c4N([H])C(=O)N4C([H])([H])C([H])([H])C([H])([H])C([H])(n5nc(-c6c([H])c([H])c(Oc7c([H])c([H])c(F)c([H])c7F)c([H])c6[H])c(C(=O)N([H])[H])c5N([H])[H])C4([H])[H])C([H])([H])C3([H])[H])c([H])c([H])c2C1([H])[H]

>  <smiles>  (1) 
[H]c1c([H])c([H])c2c(c1[H])C([H])([H])C([H])([H])C([H])([H])C2([H])N([H])C(=O)C1([H])N(C(=O)C([H])(N([H])C(=O)C([H])(N([H])C([H])([H])[H])C([H])([H])[H])C(C([H])([H])[H])(C([H])([H])[H])C([H])([H])[H])C([H])([H])c2c([H])c(OC([H])([H])C([H])([H])C(=O)C3(C([H])([H])[H])C(=O)N(c4c([H])c(N([H])[H])c([H])c([H])c4N([H])C(=O)N4C([H])([H])C([H])([H])C([H])([H])C([H])(n5nc(-c6c([H])c([H])c(Oc7c([H])c([H])c(F)c([H])c7F)c([H])c6[H])c(C(=O)N([H])[H])c5N([H])[H])C4([H])[H])C([H])([H])C3([H])[H])c([H])c([H])c2C1([H])[H]

$$$$
1:0:0
     RDKit          3D

 97105  0  0  1  0  0  0  0  0999 V2000
  -28.8210  -21.0300   19.7450 C   0  0  0  0  0  0  0  0  0  0  0  0
  -27.6680  -21.2050   19.1000 N   0  0  0  0  0  4  0  0  0  0  0  0
  -29.5240  -22.1260   20.1220 N   0  0  0  0  0  0  0  0  0  0  0  0
  -27.0970  -20.4020   18.8830 H   0  0  0  0  0  0  0  0  0  0  0  0
  -27.2980  -22.1160   18.8950 H   0  0  0  0  0  0  0  0  0  0  0  0
  -30.3720  -21.9300   20.6360 H   0  0  0  0  0  0  0  0  0  0  0  0
  -29.8850  -19.2420   21.2160 C   0  0  0  0  0  3  0  0  0  0  0  0
  -30.1960  -17.8790   21.4650 C   0  0  0  0  0  3  0  0  0  0  0  0
  -29.0260  -18.6280   19.0340 C   0  0  0  0  0  3  0  0  0  0  0  0
  -29.2710  -19.6350   20.0020 C   0  0  0  0  0  0  0  0  0  0  0  0
  -29.9260  -16.8720   20.5050 C   0  0  0  0  0  0  0  0  0  0  0  0
  -29.3400  -17.2710   19.2780 C   0  0  0  0  0  0  0  0  0  0  0  0
  -29.0100  -16.3430   18.3460 F   0  0  0  0  0  0  0  0  0  0  0  0
  -30.7300  -14.5420   20.1090 C   0  0  0  0  0  0  0  0  0  0  0  0
  -30.4070  -12.3780   18.9580 C   0  0  0  0  0  2  0  0  0  0  0  0
  -29.3980  -12.5860   17.8060 C   0  0  0  0  0  2  0  0  0  0  0  0
  -27.9490  -12.4400   18.3110 C   0  0  0  0  0  2  0  0  0  0  0  0
  -27.6800  -13.2670   19.5960 C   0  0  0  0  0  3  0  0  0  0  0  0
  -28.7880  -13.0230   20.6450 C   0  0  0  0  0  2  0  0  0  0  0  0
  -30.0860  -13.3420   20.0230 N   0  0  0  0  0  0  0  0  0  0  0  0
  -31.7980  -14.7690   19.5300 O   0  0  0  0  0  0  0  0  0  0  0  0
  -30.1050  -15.4860   20.8430 N   0  0  0  0  0  0  0  0  0  0  0  0
  -29.4090  -15.1190   21.4740 H   0  0  0  0  0  0  0  0  0  0  0  0
  -25.3350  -13.8820   20.4580 C   0  0  0  0  0  0  0  0  0  0  0  0
  -24.2800  -13.1130   20.8690 C   0  0  0  0  0  0  0  0  0  0  0  0
  -24.7200  -11.7570   20.7730 C   0  0  0  0  0  0  0  0  0  0  0  0
  -26.3520  -12.9950   20.1410 N   0  0  0  0  0  0  0  0  0  0  0  0
  -25.9890  -11.7110   20.3880 N   0  0  0  0  0  0  0  0  0  0  0  0
  -23.9890  -10.4980   20.9730 C   0  0  0  0  0  0  0  0  0  0  0  0
  -24.4310   -9.5260   21.8970 C   0  0  0  0  0  3  0  0  0  0  0  0
  -23.7030   -8.3320   22.0810 C   0  0  0  0  0  3  0  0  0  0  0  0
  -22.5190   -8.0990   21.3410 C   0  0  0  0  0  0  0  0  0  0  0  0
  -22.0960   -9.0610   20.4070 C   0  0  0  0  0  3  0  0  0  0  0  0
  -22.8240  -10.2480   20.2200 C   0  0  0  0  0  3  0  0  0  0  0  0
  -21.7610   -6.9570   21.4370 O   0  0  0  0  0  0  0  0  0  0  0  0
  -21.6890   -6.2370   22.6020 C   0  0  0  0  0  0  0  0  0  0  0  0
  -21.1820   -6.7980   23.7940 C   0  0  0  0  0  3  0  0  0  0  0  0
  -21.0600   -6.0020   24.9510 C   0  0  0  0  0  3  0  0  0  0  0  0
  -21.4360   -4.6450   24.9150 C   0  0  0  0  0  0  0  0  0  0  0  0
  -21.9360   -4.0830   23.7290 C   0  0  0  0  0  3  0  0  0  0  0  0
  -22.0590   -4.8770   22.5740 C   0  0  0  0  0  0  0  0  0  0  0  0
  -22.5230   -4.3250   21.4260 F   0  0  0  0  0  0  0  0  0  0  0  0
  -21.3100   -3.8780   26.0240 F   0  0  0  0  0  0  0  0  0  0  0  0
  -22.9070  -13.5980   21.2360 C   0  0  0  0  0  0  0  0  0  0  0  0
  -22.2210  -12.8830   22.1200 N   0  0  0  0  0  0  0  0  0  0  0  0
  -22.4540  -14.6460   20.7750 O   0  0  0  0  0  0  0  0  0  0  0  0
  -22.6010  -12.0350   22.5140 H   0  0  0  0  0  0  0  0  0  0  0  0
  -21.3040  -13.1890   22.4120 H   0  0  0  0  0  0  0  0  0  0  0  0
  -25.5090  -15.2550   20.3110 N   0  0  0  0  0  0  0  0  0  0  0  0
  -24.7570  -15.9150   20.4770 H   0  0  0  0  0  0  0  0  0  0  0  0
  -26.3390  -15.6880   19.9270 H   0  0  0  0  0  0  0  0  0  0  0  0
  -30.4820  -24.2130   19.1690 C   0  0  0  0  0  1  0  0  0  0  0  0
  -29.2610  -23.5860   19.8590 C   0  0  0  0  0  3  0  0  0  0  0  0
  -28.5970  -25.7090   21.1990 C   0  0  0  0  0  3  0  0  0  0  0  0
  -28.8670  -24.3750   21.1290 C   0  0  0  0  0  0  0  0  0  0  0  0
  -28.7690  -23.5540   22.4070 C   0  0  0  0  0  1  0  0  0  0  0  0
  -28.6120  -26.6490   20.1840 O   0  0  0  0  0  0  0  0  0  0  0  0
  -24.6580  -31.8020   23.1950 C   0  0  0  0  0  0  0  0  0  0  0  0
  -27.4850  -27.4460   20.1340 C   0  0  0  0  0  0  0  0  0  0  0  0
  -23.5340  -30.3960   21.5000 C   0  0  0  0  0  3  0  0  0  0  0  0
  -25.0660  -28.9150   20.0910 C   0  0  0  0  0  0  0  0  0  0  0  0
  -26.0570  -30.8140   21.3800 C   0  0  0  0  0  2  0  0  0  0  0  0
  -26.1960  -29.4520   20.7220 C   0  0  0  0  0  0  0  0  0  0  0  0
  -27.4130  -28.7250   20.7420 C   0  0  0  0  0  3  0  0  0  0  0  0
  -26.3420  -26.9310   19.4930 C   0  0  0  0  0  3  0  0  0  0  0  0
  -25.1330  -27.6550   19.4730 C   0  0  0  0  0  3  0  0  0  0  0  0
  -23.7990  -29.7440   20.1170 C   0  0  0  0  0  2  0  0  0  0  0  0
  -24.7660  -31.0180   22.0840 N   0  0  0  0  0  0  0  0  0  0  0  0
  -23.5550  -32.0410   23.7070 O   0  0  0  0  0  0  0  0  0  0  0  0
  -22.8800  -29.3470   22.4280 C   0  0  0  0  0  0  0  0  0  0  0  0
  -21.5580  -29.1560   22.2800 N   0  0  0  0  0  0  0  0  0  0  0  0
  -23.5590  -28.7090   23.2360 O   0  0  0  0  0  0  0  0  0  0  0  0
  -21.0710  -29.7250   21.6020 H   0  0  0  0  0  0  0  0  0  0  0  0
  -18.1840  -27.9390   22.7320 C   0  0  0  0  0  0  0  0  0  0  0  0
  -20.7410  -28.1940   23.0200 C   0  0  0  0  0  3  0  0  0  0  0  0
  -20.8470  -26.7810   22.4000 C   0  0  0  0  0  2  0  0  0  0  0  0
  -19.7500  -26.4890   21.3720 C   0  0  0  0  0  2  0  0  0  0  0  0
  -18.3650  -26.6120   22.0150 C   0  0  0  0  0  2  0  0  0  0  0  0
  -19.3000  -28.6890   23.1900 C   0  0  0  0  0  0  0  0  0  0  0  0
  -19.0770  -29.9330   23.8200 C   0  0  0  0  0  3  0  0  0  0  0  0
  -17.7710  -30.4250   23.9980 C   0  0  0  0  0  3  0  0  0  0  0  0
  -16.6690  -29.6720   23.5560 C   0  0  0  0  0  3  0  0  0  0  0  0
  -16.8770  -28.4310   22.9280 C   0  0  0  0  0  3  0  0  0  0  0  0
  -25.9100  -32.4560   23.8580 C   0  0  0  0  0  3  0  0  0  0  0  0
  -26.4000  -31.6910   25.1480 C   0  0  1  0  0  0  0  0  0  0  0  0
  -25.2800  -31.4320   26.1800 C   0  0  0  0  0  1  0  0  0  0  0  0
  -27.0220  -30.3260   24.7700 C   0  0  0  0  0  1  0  0  0  0  0  0
  -27.5140  -32.5050   25.8470 C   0  0  0  0  0  1  0  0  0  0  0  0
  -25.5650  -33.8480   24.1790 N   0  0  0  0  0  0  0  0  0  0  0  0
  -25.8870  -34.9040   23.4220 C   0  0  0  0  0  0  0  0  0  0  0  0
  -26.5760  -34.8130   22.4010 O   0  0  0  0  0  0  0  0  0  0  0  0
  -24.9520  -33.9900   24.9680 H   0  0  0  0  0  0  0  0  0  0  0  0
  -24.1270  -36.6600   23.0330 C   0  0  0  0  0  1  0  0  0  0  0  0
  -25.3620  -36.2830   23.8660 C   0  0  0  0  0  3  0  0  0  0  0  0
  -27.4560  -37.2240   24.7380 C   0  0  0  0  0  1  0  0  0  0  0  0
  -26.3740  -37.3580   23.7680 N   0  0  0  0  0  0  0  0  0  0  0  0
  -25.9450  -38.2700   23.8960 H   0  0  0  0  0  0  0  0  0  0  0  0
  1 10  1  0
  1  3  1  0
  2  1  2  0
  3  6  1  0
  4  2  1  0
  5  2  1  0
  7  8  1  0
  9 12  2  0
  9 10  1  0
 10  7  2  0
 11 22  1  0
 11  8  2  0
 12 11  1  0
 13 12  1  0
 14 22  1  0
 15 20  1  0
 16 17  1  0
 16 15  1  0
 18 17  1  0
 18 27  1  0
 18 19  1  0
 20 14  1  0
 20 19  1  0
 21 14  2  0
 22 23  1  0
 24 25  2  0
 25 44  1  0
 26 25  1  0
 26 29  1  0
 27 28  1  0
 27 24  1  0
 28 26  2  0
 29 30  1  0
 30 31  2  0
 32 35  1  0
 32 31  1  0
 33 32  2  0
 34 33  1  0
 34 29  2  0
 35 36  1  0
 36 37  1  0
 37 38  2  0
 39 38  1  0
 39 43  1  0
 40 39  2  0
 41 36  2  0
 41 40  1  0
 42 41  1  0
 44 45  1  0
 45 48  1  0
 45 47  1  0
 46 44  2  0
 49 24  1  0
 49 50  1  0
 51 49  1  0
 53 52  1  0
 53  3  1  0
 53 55  1  0
 55 54  2  0
 55 56  1  0
 57 54  1  0
 58 69  2  0
 59 57  1  0
 59 64  1  0
 60 68  1  0
 60 70  1  0
 61 67  1  0
 61 63  1  0
 62 68  1  0
 63 64  2  0
 63 62  1  0
 65 59  2  0
 66 65  1  0
 66 61  2  0
 67 60  1  0
 68 58  1  0
 70 72  2  0
 71 70  1  0
 73 71  1  0
 74 83  2  0
 74 79  1  0
 75 71  1  0
 75 79  1  0
 76 75  1  0
 77 78  1  0
 77 76  1  0
 78 74  1  0
 79 80  2  0
 80 81  1  0
 82 81  2  0
 83 82  1  0
 84 58  1  0
 84 89  1  0
 84 85  1  0
 85 88  1  1
 85 86  1  0
 87 85  1  0
 89 92  1  0
 90 94  1  0
 90 89  1  0
 91 90  2  0
 94 93  1  0
 96 94  1  0
 96 97  1  0
 96 95  1  0
M  ISO  4  14 100  22 100  54 101  57 101
M  END
>  <TORSDO>  (2) 
F 19

>  <SCORE>  (2) 
-13.934

>  <name>  (2) 
1

>  <ligand_id>  (2) 
1

>  <original_smiles>  (2) 
[H]C(Oc1c([H])c([H])c2c(c1[H])C([H])([H])N(C(=O)C([H])(N([H])C(=O)C([H])(N([H])C([H])([H])[H])C([H])([H])[H])C(C([H])([H])[H])(C([H])([H])[H])C([H])([H])[H])C([H])(C(=O)N([H])C1([H])c3c([H])c([H])c([H])c([H])c3C([H])([H])C([H])([H])C1([H])[H])C2([H])[H])=C(C([H])([H])[H])C([H])([N+]([H])=C(c1c([H])c([H])c(N([H])C(=O)N2C([H])([H])C([H])([H])C([H])([H])C([H])(n3nc(-c4c([H])c([H])c(Oc5c([H])c([H])c(F)c([H])c5F)c([H])c4[H])c(C(=O)N([H])[H])c3N([H])[H])C2([H])[H])c(F)c1[H])N([H])[H])C([H])([H])[H]

>  <smiles>  (2) 
[H]C(Oc1c([H])c([H])c2c(c1[H])C([H])([H])N(C(=O)C([H])(N([H])C(=O)C([H])(N([H])C([H])([H])[H])C([H])([H])[H])C(C([H])([H])[H])(C([H])([H])[H])C([H])([H])[H])C([H])(C(=O)N([H])C1([H])c3c([H])c([H])c([H])c([H])c3C([H])([H])C([H])([H])C1([H])[H])C2([H])[H])=C(C([H])([H])[H])C([H])([N+]([H])=C(c1c([H])c([H])c(N([H])C(=O)N2C([H])([H])C([H])([H])C([H])([H])C([H])(n3nc(-c4c([H])c([H])c(Oc5c([H])c([H])c(F)c([H])c5F)c([H])c4[H])c(C(=O)N([H])[H])c3N([H])[H])C2([H])[H])c(F)c1[H])N([H])[H])C([H])([H])[H]

$$$$
2:0:0
     RDKit          3D

 93101  0  0  1  0  0  0  0  0999 V2000
  -28.9150  -21.3010   20.0850 C   0  0  0  0  0  0  0  0  0  0  0  0
  -29.4430  -22.4900   20.5520 N   0  0  0  0  0  0  0  0  0  0  0  0
  -27.9190  -21.3330   19.3590 O   0  0  0  0  0  0  0  0  0  0  0  0
  -30.1730  -22.3370   21.2350 H   0  0  0  0  0  0  0  0  0  0  0  0
  -31.0350  -18.0390   20.7840 C   0  0  0  0  0  3  0  0  0  0  0  0
  -30.8220  -19.4770   20.7030 C   0  0  0  0  0  0  0  0  0  0  0  0
  -29.5460  -19.9130   20.4110 C   0  0  0  0  0  0  0  0  0  0  0  0
  -29.9160  -17.2540   20.5640 C   0  0  0  0  0  0  0  0  0  0  0  0
  -31.8230  -20.3090   20.8770 F   0  0  0  0  0  0  0  0  0  0  0  0
  -28.5810  -18.4130   20.2310 S   0  0  0  0  0  0  0  0  0  0  0  0
  -30.5660  -14.7680   20.3990 C   0  0  0  0  0  0  0  0  0  0  0  0
  -30.4020  -12.4960   19.3640 C   0  0  0  0  0  2  0  0  0  0  0  0
  -29.4560  -12.5680   18.1440 C   0  0  0  0  0  2  0  0  0  0  0  0
  -27.9850  -12.3890   18.5730 C   0  0  0  0  0  2  0  0  0  0  0  0
  -27.6100  -13.2700   19.7940 C   0  0  0  0  0  3  0  0  0  0  0  0
  -28.6690  -13.1640   20.9140 C   0  0  0  0  0  2  0  0  0  0  0  0
  -29.9660  -13.5320   20.3270 N   0  0  0  0  0  0  0  0  0  0  0  0
  -31.7540  -14.9010   20.0830 O   0  0  0  0  0  0  0  0  0  0  0  0
  -29.7330  -15.8580   20.6080 N   0  0  0  0  0  0  0  0  0  0  0  0
  -28.7740  -15.5740   20.7370 H   0  0  0  0  0  0  0  0  0  0  0  0
  -25.2190  -13.8600   20.5140 C   0  0  0  0  0  0  0  0  0  0  0  0
  -24.1530  -13.0840   20.8820 C   0  0  0  0  0  0  0  0  0  0  0  0
  -24.6190  -11.7340   20.8540 C   0  0  0  0  0  0  0  0  0  0  0  0
  -26.2650  -12.9820   20.2820 N   0  0  0  0  0  0  0  0  0  0  0  0
  -25.9120  -11.6990   20.5490 N   0  0  0  0  0  0  0  0  0  0  0  0
  -23.8940  -10.4700   21.0400 C   0  0  0  0  0  0  0  0  0  0  0  0
  -24.3220   -9.5040   21.9770 C   0  0  0  0  0  3  0  0  0  0  0  0
  -23.5960   -8.3070   22.1510 C   0  0  0  0  0  3  0  0  0  0  0  0
  -22.4310   -8.0650   21.3860 C   0  0  0  0  0  0  0  0  0  0  0  0
  -22.0230   -9.0190   20.4390 C   0  0  0  0  0  3  0  0  0  0  0  0
  -22.7490  -10.2090   20.2630 C   0  0  0  0  0  3  0  0  0  0  0  0
  -21.6760   -6.9180   21.4710 O   0  0  0  0  0  0  0  0  0  0  0  0
  -21.6130   -6.1820   22.6270 C   0  0  0  0  0  0  0  0  0  0  0  0
  -21.1580   -6.7400   23.8410 C   0  0  0  0  0  3  0  0  0  0  0  0
  -21.0440   -5.9290   24.9880 C   0  0  0  0  0  3  0  0  0  0  0  0
  -21.3740   -4.5620   24.9220 C   0  0  0  0  0  0  0  0  0  0  0  0
  -21.8230   -4.0050   23.7110 C   0  0  0  0  0  3  0  0  0  0  0  0
  -21.9400   -4.8130   22.5670 C   0  0  0  0  0  0  0  0  0  0  0  0
  -22.3530   -4.2660   21.3980 F   0  0  0  0  0  0  0  0  0  0  0  0
  -21.2570   -3.7810   26.0210 F   0  0  0  0  0  0  0  0  0  0  0  0
  -22.7540  -13.5590   21.1470 C   0  0  0  0  0  0  0  0  0  0  0  0
  -22.0220  -12.8620   22.0080 N   0  0  0  0  0  0  0  0  0  0  0  0
  -22.3200  -14.5860   20.6270 O   0  0  0  0  0  0  0  0  0  0  0  0
  -22.3830  -12.0290   22.4490 H   0  0  0  0  0  0  0  0  0  0  0  0
  -21.0850  -13.1670   22.2310 H   0  0  0  0  0  0  0  0  0  0  0  0
  -25.3750  -15.2310   20.3340 N   0  0  0  0  0  0  0  0  0  0  0  0
  -24.5950  -15.8710   20.4330 H   0  0  0  0  0  0  0  0  0  0  0  0
  -26.2060  -15.6760   19.9660 H   0  0  0  0  0  0  0  0  0  0  0  0
  -30.6700  -24.5840   20.6790 C   0  0  0  0  0  1  0  0  0  0  0  0
  -29.5640  -23.9800   18.5340 C   0  0  0  0  0  1  0  0  0  0  0  0
  -29.4040  -23.9540   20.0680 C   0  0  1  0  0  0  0  0  0  0  0  0
  -28.1790  -24.9400   20.4600 C   0  0  0  0  0  2  0  0  0  0  0  0
  -28.3350  -26.4240   20.2270 O   0  0  0  0  0  0  0  0  0  0  0  0
  -24.6000  -31.8850   23.2400 C   0  0  0  0  0  0  0  0  0  0  0  0
  -27.2110  -27.2820   20.2080 C   0  0  0  0  0  0  0  0  0  0  0  0
  -23.3970  -30.4830   21.6040 C   0  0  0  0  0  3  0  0  0  0  0  0
  -24.8480  -28.9210   20.1860 C   0  0  0  0  0  0  0  0  0  0  0  0
  -25.9390  -30.7910   21.4230 C   0  0  0  0  0  2  0  0  0  0  0  0
  -26.0200  -29.4060   20.7810 C   0  0  0  0  0  0  0  0  0  0  0  0
  -27.2030  -28.6000   20.7770 C   0  0  0  0  0  3  0  0  0  0  0  0
  -26.0160  -26.8620   19.5820 C   0  0  0  0  0  3  0  0  0  0  0  0
  -24.8510  -27.6570   19.5760 C   0  0  0  0  0  3  0  0  0  0  0  0
  -23.6130  -29.8010   20.2270 C   0  0  0  0  0  2  0  0  0  0  0  0
  -24.6650  -31.0710   22.1460 N   0  0  0  0  0  0  0  0  0  0  0  0
  -23.5160  -32.1660   23.7730 O   0  0  0  0  0  0  0  0  0  0  0  0
  -22.7320  -29.4700   22.5690 C   0  0  0  0  0  0  0  0  0  0  0  0
  -21.4060  -29.2920   22.4410 N   0  0  0  0  0  0  0  0  0  0  0  0
  -23.4100  -28.8480   23.3910 O   0  0  0  0  0  0  0  0  0  0  0  0
  -20.9180  -29.8450   21.7490 H   0  0  0  0  0  0  0  0  0  0  0  0
  -18.0260  -28.1050   22.9530 C   0  0  0  0  0  0  0  0  0  0  0  0
  -20.5870  -28.3580   23.2150 C   0  0  0  0  0  3  0  0  0  0  0  0
  -20.6830  -26.9260   22.6390 C   0  0  0  0  0  2  0  0  0  0  0  0
  -19.5760  -26.6070   21.6280 C   0  0  0  0  0  2  0  0  0  0  0  0
  -18.1970  -26.7560   22.2770 C   0  0  0  0  0  2  0  0  0  0  0  0
  -19.1490  -28.8640   23.3800 C   0  0  0  0  0  0  0  0  0  0  0  0
  -18.9350  -30.1270   23.9740 C   0  0  0  0  0  3  0  0  0  0  0  0
  -17.6330  -30.6310   24.1470 C   0  0  0  0  0  3  0  0  0  0  0  0
  -16.5250  -29.8700   23.7350 C   0  0  0  0  0  3  0  0  0  0  0  0
  -16.7220  -28.6090   23.1450 C   0  0  0  0  0  3  0  0  0  0  0  0
  -25.8810  -32.5220   23.8620 C   0  0  0  0  0  3  0  0  0  0  0  0
  -26.3940  -31.7580   25.1450 C   0  0  1  0  0  0  0  0  0  0  0  0
  -25.2950  -31.5290   26.2100 C   0  0  0  0  0  1  0  0  0  0  0  0
  -26.9770  -30.3780   24.7640 C   0  0  0  0  0  1  0  0  0  0  0  0
  -27.5430  -32.5550   25.8050 C   0  0  0  0  0  1  0  0  0  0  0  0
  -25.5710  -33.9220   24.1840 N   0  0  0  0  0  0  0  0  0  0  0  0
  -25.9050  -34.9720   23.4240 C   0  0  0  0  0  0  0  0  0  0  0  0
  -26.5760  -34.8630   22.3930 O   0  0  0  0  0  0  0  0  0  0  0  0
  -24.9760  -34.0800   24.9850 H   0  0  0  0  0  0  0  0  0  0  0  0
  -24.1830  -36.7680   23.0610 C   0  0  0  0  0  1  0  0  0  0  0  0
  -25.4200  -36.3630   23.8770 C   0  0  0  0  0  3  0  0  0  0  0  0
  -27.5530  -37.2440   24.7150 C   0  0  0  0  0  1  0  0  0  0  0  0
  -26.4570  -37.4120   23.7660 N   0  0  0  0  0  0  0  0  0  0  0  0
  -26.0520  -38.3340   23.9070 H   0  0  0  0  0  0  0  0  0  0  0  0
  1  7  1  0
  1  2  1  0
  2  4  1  0
  3  1  2  0
  6  5  1  0
  6  9  1  0
  7  6  2  0
  8 19  1  0
  8  5  2  0
 10  7  1  0
 10  8  1  0
 11 19  1  0
 12 17  1  0
 13 14  1  0
 13 12  1  0
 15 14  1  0
 15 24  1  0
 15 16  1  0
 17 11  1  0
 17 16  1  0
 18 11  2  0
 19 20  1  0
 21 22  2  0
 22 41  1  0
 23 22  1  0
 23 26  1  0
 24 21  1  0
 24 25  1  0
 25 23  2  0
 26 27  1  0
 27 28  2  0
 29 32  1  0
 29 28  1  0
 30 29  2  0
 31 30  1  0
 31 26  2  0
 32 33  1  0
 33 34  1  0
 34 35  2  0
 36 35  1  0
 36 40  1  0
 37 36  2  0
 38 33  2  0
 38 37  1  0
 39 38  1  0
 41 42  1  0
 42 45  1  0
 42 44  1  0
 43 41  2  0
 46 47  1  0
 46 21  1  0
 48 46  1  0
 51 50  1  6
 51 52  1  0
 51  2  1  0
 51 49  1  0
 53 52  1  0
 54 65  2  0
 55 53  1  0
 55 60  1  0
 56 64  1  0
 56 66  1  0
 57 63  1  0
 57 59  1  0
 58 64  1  0
 59 58  1  0
 60 59  2  0
 61 55  2  0
 62 61  1  0
 62 57  2  0
 63 56  1  0
 64 54  1  0
 66 68  2  0
 67 66  1  0
 69 67  1  0
 70 79  2  0
 70 75  1  0
 71 67  1  0
 71 75  1  0
 72 71  1  0
 73 74  1  0
 73 72  1  0
 74 70  1  0
 75 76  2  0
 76 77  1  0
 78 77  2  0
 79 78  1  0
 80 54  1  0
 80 85  1  0
 80 81  1  0
 81 84  1  1
 81 82  1  0
 83 81  1  0
 85 88  1  0
 86 90  1  0
 86 85  1  0
 87 86  2  0
 90 89  1  0
 92 90  1  0
 92 93  1  0
 92 91  1  0
M  ISO  4  11 100  19 100  52 101  53 101
M  END
>  <TORSDO>  (3) 
F 19

>  <SCORE>  (3) 
-14.498

>  <name>  (3) 
2

>  <ligand_id>  (3) 
2

>  <original_smiles>  (3) 
[H]c1c([H])c([H])c2c(c1[H])C([H])([H])C([H])([H])C([H])([H])C2([H])N([H])C(=O)C1([H])N(C(=O)C([H])(N([H])C(=O)C([H])(N([H])C([H])([H])[H])C([H])([H])[H])C(C([H])([H])[H])(C([H])([H])[H])C([H])([H])[H])C([H])([H])c2c([H])c(OC([H])([H])C(N([H])C(=O)c3sc(N([H])C(=O)N4C([H])([H])C([H])([H])C([H])([H])C([H])(n5nc(-c6c([H])c([H])c(Oc7c([H])c([H])c(F)c([H])c7F)c([H])c6[H])c(C(=O)N([H])[H])c5N([H])[H])C4([H])[H])c([H])c3F)(C([H])([H])[H])C([H])([H])[H])c([H])c([H])c2C1([H])[H]

>  <smiles>  (3) 
[H]c1c([H])c([H])c2c(c1[H])C([H])([H])C([H])([H])C([H])([H])C2([H])N([H])C(=O)C1([H])N(C(=O)C([H])(N([H])C(=O)C([H])(N([H])C([H])([H])[H])C([H])([H])[H])C(C([H])([H])[H])(C([H])([H])[H])C([H])([H])[H])C([H])([H])c2c([H])c(OC([H])([H])C(N([H])C(=O)c3sc(N([H])C(=O)N4C([H])([H])C([H])([H])C([H])([H])C([H])(n5nc(-c6c([H])c([H])c(Oc7c([H])c([H])c(F)c([H])c7F)c([H])c6[H])c(C(=O)N([H])[H])c5N([H])[H])C4([H])[H])c([H])c3F)(C([H])([H])[H])C([H])([H])[H])c([H])c([H])c2C1([H])[H]

$$$$
3:0:0
     RDKit          3D

 97104  0  0  1  0  0  0  0  0999 V2000
  -28.5610  -22.0780   19.7570 C   0  0  0  0  0  3  0  0  0  0  0  0
  -28.8710  -24.6090   19.7160 C   0  0  0  0  0  0  0  0  0  0  0  0
  -28.7690  -23.4210   20.3560 N   0  0  0  0  0  0  0  0  0  0  0  0
  -28.8620  -24.6880   18.4850 O   0  0  0  0  0  0  0  0  0  0  0  0
  -28.8370  -23.4290   21.3650 H   0  0  0  0  0  0  0  0  0  0  0  0
  -28.1580  -25.8370   21.8510 C   0  0  0  0  0  1  0  0  0  0  0  0
  -30.5110  -26.0290   20.9780 C   0  0  0  0  0  1  0  0  0  0  0  0
  -29.0320  -25.9050   20.5720 C   0  0  1  0  0  0  0  0  0  0  0  0
  -28.8060  -27.1070   19.7740 O   0  0  0  0  0  0  0  0  0  0  0  0
  -24.5640  -31.7490   23.1390 C   0  0  0  0  0  0  0  0  0  0  0  0
  -27.5760  -27.7390   19.8130 C   0  0  0  0  0  0  0  0  0  0  0  0
  -23.4780  -30.3420   21.4160 C   0  0  0  0  0  3  0  0  0  0  0  0
  -25.0570  -29.0270   19.8990 C   0  0  0  0  0  0  0  0  0  0  0  0
  -25.9600  -30.9380   21.2380 C   0  0  0  0  0  2  0  0  0  0  0  0
  -26.1650  -29.6210   20.5170 C   0  0  0  0  0  0  0  0  0  0  0  0
  -27.4300  -28.9860   20.4640 C   0  0  0  0  0  3  0  0  0  0  0  0
  -26.4540  -27.1650   19.1800 C   0  0  0  0  0  3  0  0  0  0  0  0
  -25.1970  -27.8000   19.2250 C   0  0  0  0  0  3  0  0  0  0  0  0
  -23.7380  -29.7640   19.9990 C   0  0  0  0  0  2  0  0  0  0  0  0
  -24.6840  -31.0240   21.9890 N   0  0  0  0  0  0  0  0  0  0  0  0
  -23.4670  -31.8890   23.6980 O   0  0  0  0  0  0  0  0  0  0  0  0
  -22.9290  -29.2130   22.3160 C   0  0  0  0  0  0  0  0  0  0  0  0
  -21.6290  -28.9060   22.1690 N   0  0  0  0  0  0  0  0  0  0  0  0
  -23.6670  -28.6160   23.1050 O   0  0  0  0  0  0  0  0  0  0  0  0
  -21.0870  -29.4430   21.5070 H   0  0  0  0  0  0  0  0  0  0  0  0
  -18.3920  -27.3510   22.5750 C   0  0  0  0  0  0  0  0  0  0  0  0
  -20.9110  -27.8480   22.8810 C   0  0  0  0  0  3  0  0  0  0  0  0
  -21.1580  -26.4690   22.2300 C   0  0  0  0  0  2  0  0  0  0  0  0
  -20.0970  -26.0940   21.1910 C   0  0  0  0  0  2  0  0  0  0  0  0
  -18.7050  -26.0650   21.8290 C   0  0  0  0  0  2  0  0  0  0  0  0
  -19.4280  -28.1970   23.0560 C   0  0  0  0  0  0  0  0  0  0  0  0
  -19.0830  -29.3990   23.7090 C   0  0  0  0  0  3  0  0  0  0  0  0
  -17.7340  -29.7590   23.8900 C   0  0  0  0  0  3  0  0  0  0  0  0
  -16.7140  -28.9110   23.4270 C   0  0  0  0  0  3  0  0  0  0  0  0
  -17.0430  -27.7090   22.7750 C   0  0  0  0  0  3  0  0  0  0  0  0
  -25.7950  -32.4550   23.7910 C   0  0  0  0  0  3  0  0  0  0  0  0
  -25.3910  -33.8260   24.1280 N   0  0  0  0  0  0  0  0  0  0  0  0
  -25.6690  -34.9060   23.3860 C   0  0  0  0  0  0  0  0  0  0  0  0
  -26.3680  -34.8590   22.3690 O   0  0  0  0  0  0  0  0  0  0  0  0
  -24.7700  -33.9340   24.9160 H   0  0  0  0  0  0  0  0  0  0  0  0
  -23.8350  -36.5830   23.0120 C   0  0  0  0  0  1  0  0  0  0  0  0
  -25.0810  -36.2520   23.8460 C   0  0  0  0  0  3  0  0  0  0  0  0
  -27.1270  -37.2700   24.7430 C   0  0  0  0  0  1  0  0  0  0  0  0
  -26.0430  -37.3740   23.7700 N   0  0  0  0  0  0  0  0  0  0  0  0
  -25.5710  -38.2620   23.9150 H   0  0  0  0  0  0  0  0  0  0  0  0
  -26.3440  -31.7050   25.0670 C   0  0  1  0  0  0  0  0  0  0  0  0
  -25.2520  -31.3760   26.1120 C   0  0  0  0  0  1  0  0  0  0  0  0
  -27.0310  -30.3770   24.6720 C   0  0  0  0  0  1  0  0  0  0  0  0
  -27.4240  -32.5700   25.7630 C   0  0  0  0  0  1  0  0  0  0  0  0
  -29.2550  -20.9140   20.5460 C   0  0  0  0  0  0  0  0  0  0  0  0
  -29.6160  -19.6380   18.4540 C   0  0  0  0  0  1  0  0  0  0  0  0
  -29.6270  -19.7460   19.9240 N   0  0  0  0  0  0  0  0  0  0  0  0
  -29.4000  -21.0700   21.7640 O   0  0  0  0  0  0  0  0  0  0  0  0
  -31.4850  -18.6420   21.1920 C   0  0  0  0  0  1  0  0  0  0  0  0
  -30.0350  -18.5170   20.6930 C   0  0  0  0  0  3  0  0  0  0  0  0
  -29.8460  -17.1580   19.9280 C   0  0  0  0  0  2  0  0  0  0  0  0
  -30.7520  -14.8740   20.3930 C   0  0  0  0  0  0  0  0  0  0  0  0
  -30.5290  -12.6720   19.3150 C   0  0  0  0  0  2  0  0  0  0  0  0
  -29.5890  -12.8590   18.1030 C   0  0  0  0  0  2  0  0  0  0  0  0
  -28.1150  -12.7000   18.5250 C   0  0  0  0  0  2  0  0  0  0  0  0
  -27.7610  -13.5270   19.7900 C   0  0  0  0  0  3  0  0  0  0  0  0
  -28.8200  -13.3370   20.9020 C   0  0  0  0  0  2  0  0  0  0  0  0
  -30.1390  -13.6610   20.3360 N   0  0  0  0  0  0  0  0  0  0  0  0
  -31.8820  -15.0740   19.9350 O   0  0  0  0  0  0  0  0  0  0  0  0
  -29.9420  -15.9080   20.7160 N   0  0  0  0  0  0  0  0  0  0  0  0
  -29.0890  -15.6350   21.1800 H   0  0  0  0  0  0  0  0  0  0  0  0
  -25.3550  -14.0940   20.5020 C   0  0  0  0  0  0  0  0  0  0  0  0
  -24.2990  -13.3030   20.8670 C   0  0  0  0  0  0  0  0  0  0  0  0
  -24.7810  -11.9570   20.8280 C   0  0  0  0  0  0  0  0  0  0  0  0
  -26.4130  -13.2300   20.2640 N   0  0  0  0  0  0  0  0  0  0  0  0
  -26.0700  -11.9410   20.5160 N   0  0  0  0  0  0  0  0  0  0  0  0
  -24.0730  -10.6840   21.0110 C   0  0  0  0  0  0  0  0  0  0  0  0
  -24.4880   -9.7370   21.9730 C   0  0  0  0  0  3  0  0  0  0  0  0
  -23.7800   -8.5280   22.1400 C   0  0  0  0  0  3  0  0  0  0  0  0
  -22.6420   -8.2570   21.3420 C   0  0  0  0  0  0  0  0  0  0  0  0
  -22.2500   -9.1910   20.3670 C   0  0  0  0  0  3  0  0  0  0  0  0
  -22.9590  -10.3920   20.1990 C   0  0  0  0  0  3  0  0  0  0  0  0
  -21.9070   -7.0990   21.4170 O   0  0  0  0  0  0  0  0  0  0  0  0
  -21.7990   -6.3890   22.5860 C   0  0  0  0  0  0  0  0  0  0  0  0
  -21.2440   -6.9580   23.7540 C   0  0  0  0  0  3  0  0  0  0  0  0
  -21.0900   -6.1740   24.9140 C   0  0  0  0  0  3  0  0  0  0  0  0
  -21.4760   -4.8200   24.9070 C   0  0  0  0  0  0  0  0  0  0  0  0
  -22.0210   -4.2490   23.7420 C   0  0  0  0  0  3  0  0  0  0  0  0
  -22.1790   -5.0320   22.5850 C   0  0  0  0  0  0  0  0  0  0  0  0
  -22.6860   -4.4720   21.4600 F   0  0  0  0  0  0  0  0  0  0  0  0
  -21.3180   -4.0620   26.0170 F   0  0  0  0  0  0  0  0  0  0  0  0
  -22.8940  -13.7570   21.1440 C   0  0  0  0  0  0  0  0  0  0  0  0
  -22.1760  -13.0410   22.0030 N   0  0  0  0  0  0  0  0  0  0  0  0
  -22.4440  -14.7830   20.6360 O   0  0  0  0  0  0  0  0  0  0  0  0
  -22.5550  -12.2090   22.4320 H   0  0  0  0  0  0  0  0  0  0  0  0
  -21.2350  -13.3270   22.2310 H   0  0  0  0  0  0  0  0  0  0  0  0
  -25.4990  -15.4690   20.3350 N   0  0  0  0  0  0  0  0  0  0  0  0
  -24.7220  -16.1100   20.4520 H   0  0  0  0  0  0  0  0  0  0  0  0
  -26.3370  -15.9200   19.9960 H   0  0  0  0  0  0  0  0  0  0  0  0
  -26.5750  -22.1410   18.0980 C   0  0  0  0  0  1  0  0  0  0  0  0
  -26.1320  -22.5130   20.5580 C   0  0  0  0  0  1  0  0  0  0  0  0
  -27.0400  -21.8130   19.5280 C   0  0  0  0  0  3  0  0  0  0  0  0
  1 97  1  0
  1  3  1  0
  1 50  1  0
  2  3  1  0
  2  8  1  0
  3  5  1  0
  4  2  2  0
  8  7  1  1
  8  6  1  0
  9 11  1  0
  9  8  1  0
 10 21  2  0
 11 16  1  0
 12 20  1  0
 12 22  1  0
 13 19  1  0
 13 15  1  0
 14 20  1  0
 15 14  1  0
 16 15  2  0
 17 18  1  0
 17 11  2  0
 18 13  2  0
 19 12  1  0
 20 10  1  0
 22 24  2  0
 23 22  1  0
 25 23  1  0
 26 35  2  0
 26 31  1  0
 27 23  1  0
 27 31  1  0
 28 27  1  0
 29 30  1  0
 29 28  1  0
 30 26  1  0
 31 32  2  0
 32 33  1  0
 34 33  2  0
 35 34  1  0
 36 10  1  0
 36 37  1  0
 36 46  1  0
 37 40  1  0
 38 42  1  0
 38 37  1  0
 39 38  2  0
 42 41  1  0
 44 42  1  0
 44 45  1  0
 44 43  1  0
 46 49  1  1
 46 47  1  0
 48 46  1  0
 50 53  2  0
 51 52  1  0
 52 50  1  0
 52 55  1  0
 55 54  1  0
 56 55  1  0
 56 65  1  0
 57 65  1  0
 58 63  1  0
 59 60  1  0
 59 58  1  0
 61 60  1  0
 61 70  1  0
 61 62  1  0
 63 57  1  0
 63 62  1  0
 64 57  2  0
 65 66  1  0
 67 68  2  0
 68 87  1  0
 69 68  1  0
 69 72  1  0
 70 67  1  0
 70 71  1  0
 71 69  2  0
 72 73  1  0
 73 74  2  0
 75 78  1  0
 75 74  1  0
 76 75  2  0
 77 76  1  0
 77 72  2  0
 78 79  1  0
 79 80  1  0
 80 81  2  0
 82 81  1  0
 82 86  1  0
 83 82  2  0
 84 79  2  0
 84 83  1  0
 85 84  1  0
 87 88  1  0
 88 91  1  0
 88 90  1  0
 89 87  2  0
 92 93  1  0
 92 67  1  0
 94 92  1  0
 95 97  1  0
 97 96  1  0
M  ISO  4   8 101   9 101  57 100  65 100
M  END
>  <TORSDO>  (4) 
F 22

>  <SCORE>  (4) 
-12.411

>  <name>  (4) 
3

>  <ligand_id>  (4) 
3

>  <original_smiles>  (4) 
[H]c1c([H])c([H])c2c(c1[H])C([H])([H])C([H])([H])C([H])([H])C2([H])N([H])C(=O)C1([H])N(C(=O)C([H])(N([H])C(=O)C([H])(N([H])C([H])([H])[H])C([H])([H])[H])C(C([H])([H])[H])(C([H])([H])[H])C([H])([H])[H])C([H])([H])c2c([H])c(OC(C(=O)N([H])C([H])(C(=O)N(C([H])([H])[H])C([H])(C([H])([H])[H])C([H])([H])N([H])C(=O)N3C([H])([H])C([H])([H])C([H])([H])C([H])(n4nc(-c5c([H])c([H])c(Oc6c([H])c([H])c(F)c([H])c6F)c([H])c5[H])c(C(=O)N([H])[H])c4N([H])[H])C3([H])[H])C([H])(C([H])([H])[H])C([H])([H])[H])(C([H])([H])[H])C([H])([H])[H])c([H])c([H])c2C1([H])[H]

>  <smiles>  (4) 
[H]c1c([H])c([H])c2c(c1[H])C([H])([H])C([H])([H])C([H])([H])C2([H])N([H])C(=O)C1([H])N(C(=O)C([H])(N([H])C(=O)C([H])(N([H])C([H])([H])[H])C([H])([H])[H])C(C([H])([H])[H])(C([H])([H])[H])C([H])([H])[H])C([H])([H])c2c([H])c(OC(C(=O)N([H])C([H])(C(=O)N(C([H])([H])[H])C([H])(C([H])([H])[H])C([H])([H])N([H])C(=O)N3C([H])([H])C([H])([H])C([H])([H])C([H])(n4nc(-c5c([H])c([H])c(Oc6c([H])c([H])c(F)c([H])c6F)c([H])c5[H])c(C(=O)N([H])[H])c4N([H])[H])C3([H])[H])C([H])(C([H])([H])[H])C([H])([H])[H])(C([H])([H])[H])C([H])([H])[H])c([H])c([H])c2C1([H])[H]

$$$$
4:0:0
     RDKit          3D

 96105  0  0  1  0  0  0  0  0999 V2000
  -30.5090  -22.9210   18.8890 C   0  0  0  0  0  2  0  0  0  0  0  0
  -28.8460  -23.0760   20.8500 C   0  0  0  0  0  2  0  0  0  0  0  0
  -30.9380  -21.6510   19.6450 C   0  0  0  0  0  2  0  0  0  0  0  0
  -28.5520  -21.6150   20.4810 C   0  0  0  0  0  2  0  0  0  0  0  0
  -29.5910  -23.8480   19.7310 C   0  0  0  0  0  3  0  0  0  0  0  0
  -29.7690  -20.8910   20.0980 N   0  0  0  0  0  0  0  0  0  0  0  0
  -31.1120  -18.8920   20.6140 C   0  0  0  0  0  3  0  0  0  0  0  0
  -31.2180  -17.5120   20.8830 C   0  0  0  0  0  3  0  0  0  0  0  0
  -28.8110  -17.2890   20.6450 C   0  0  0  0  0  3  0  0  0  0  0  0
  -29.8570  -19.4980   20.3500 C   0  0  0  0  0  0  0  0  0  0  0  0
  -30.0640  -16.7000   20.8960 C   0  0  0  0  0  0  0  0  0  0  0  0
  -28.7050  -18.6620   20.3550 C   0  0  0  0  0  0  0  0  0  0  0  0
  -27.4740  -19.1490   20.0590 F   0  0  0  0  0  0  0  0  0  0  0  0
  -30.7150  -14.4040   20.3800 C   0  0  0  0  0  0  0  0  0  0  0  0
  -30.3580  -12.3100   19.1390 C   0  0  0  0  0  2  0  0  0  0  0  0
  -29.3910  -12.5760   17.9670 C   0  0  0  0  0  2  0  0  0  0  0  0
  -27.9260  -12.4420   18.4230 C   0  0  0  0  0  2  0  0  0  0  0  0
  -27.6270  -13.2380   19.7190 C   0  0  0  0  0  3  0  0  0  0  0  0
  -28.6970  -12.9430   20.7950 C   0  0  0  0  0  2  0  0  0  0  0  0
  -30.0240  -13.2440   20.2230 N   0  0  0  0  0  0  0  0  0  0  0  0
  -31.7850  -14.6390   19.8100 O   0  0  0  0  0  0  0  0  0  0  0  0
  -30.1080  -15.3090   21.1640 N   0  0  0  0  0  0  0  0  0  0  0  0
  -29.3000  -14.9310   21.6350 H   0  0  0  0  0  0  0  0  0  0  0  0
  -25.2300  -13.8510   20.4450 C   0  0  0  0  0  0  0  0  0  0  0  0
  -24.1660  -13.0800   20.8330 C   0  0  0  0  0  0  0  0  0  0  0  0
  -24.6240  -11.7290   20.7910 C   0  0  0  0  0  0  0  0  0  0  0  0
  -26.2740  -12.9690   20.2070 N   0  0  0  0  0  0  0  0  0  0  0  0
  -25.9100  -11.6870   20.4650 N   0  0  0  0  0  0  0  0  0  0  0  0
  -23.8980  -10.4680   20.9860 C   0  0  0  0  0  0  0  0  0  0  0  0
  -24.3230   -9.5070   21.9310 C   0  0  0  0  0  3  0  0  0  0  0  0
  -23.5990   -8.3080   22.1110 C   0  0  0  0  0  3  0  0  0  0  0  0
  -22.4340   -8.0630   21.3460 C   0  0  0  0  0  0  0  0  0  0  0  0
  -22.0270   -9.0120   20.3910 C   0  0  0  0  0  3  0  0  0  0  0  0
  -22.7530  -10.2020   20.2090 C   0  0  0  0  0  3  0  0  0  0  0  0
  -21.6790   -6.9190   21.4370 O   0  0  0  0  0  0  0  0  0  0  0  0
  -21.6010   -6.1990   22.6020 C   0  0  0  0  0  0  0  0  0  0  0  0
  -21.1160   -6.7700   23.7990 C   0  0  0  0  0  3  0  0  0  0  0  0
  -20.9870   -5.9780   24.9550 C   0  0  0  0  0  3  0  0  0  0  0  0
  -21.3320   -4.6120   24.9170 C   0  0  0  0  0  0  0  0  0  0  0  0
  -21.8100   -4.0400   23.7250 C   0  0  0  0  0  3  0  0  0  0  0  0
  -21.9400   -4.8310   22.5710 C   0  0  0  0  0  0  0  0  0  0  0  0
  -22.3830   -4.2710   21.4180 F   0  0  0  0  0  0  0  0  0  0  0  0
  -21.2010   -3.8480   26.0240 F   0  0  0  0  0  0  0  0  0  0  0  0
  -22.7740  -13.5590   21.1270 C   0  0  0  0  0  0  0  0  0  0  0  0
  -22.0610  -12.8600   22.0020 N   0  0  0  0  0  0  0  0  0  0  0  0
  -22.3300  -14.5870   20.6200 O   0  0  0  0  0  0  0  0  0  0  0  0
  -22.4360  -12.0290   22.4340 H   0  0  0  0  0  0  0  0  0  0  0  0
  -21.1270  -13.1580   22.2440 H   0  0  0  0  0  0  0  0  0  0  0  0
  -25.3930  -15.2180   20.2550 N   0  0  0  0  0  0  0  0  0  0  0  0
  -24.5990  -15.8530   20.2860 H   0  0  0  0  0  0  0  0  0  0  0  0
  -26.1910  -15.6120   19.7750 H   0  0  0  0  0  0  0  0  0  0  0  0
  -28.6310  -24.6470   18.8500 C   0  0  0  0  0  0  0  0  0  0  0  0
  -27.7390  -24.0790   18.1530 N   0  0  0  0  0  0  0  0  0  0  0  0
  -27.7780  -23.0730   18.2650 H   0  0  0  0  0  0  0  0  0  0  0  0
  -28.8190  -26.1610   18.8470 C   0  0  0  0  0  2  0  0  0  0  0  0
  -28.4290  -26.7810   20.0770 O   0  0  0  0  0  0  0  0  0  0  0  0
  -24.5320  -31.8570   23.1910 C   0  0  0  0  0  0  0  0  0  0  0  0
  -27.2320  -27.4580   20.0940 C   0  0  0  0  0  0  0  0  0  0  0  0
  -23.3440  -30.4580   21.5340 C   0  0  0  0  0  3  0  0  0  0  0  0
  -24.8160  -28.9260   20.1210 C   0  0  0  0  0  0  0  0  0  0  0  0
  -25.8700  -30.8250   21.3620 C   0  0  0  0  0  2  0  0  0  0  0  0
  -25.9650  -29.4560   20.7240 C   0  0  0  0  0  0  0  0  0  0  0  0
  -27.1720  -28.7220   20.7190 C   0  0  0  0  0  3  0  0  0  0  0  0
  -26.0600  -26.9270   19.5110 C   0  0  0  0  0  3  0  0  0  0  0  0
  -24.8560  -27.6570   19.5200 C   0  0  0  0  0  3  0  0  0  0  0  0
  -23.5670  -29.7790   20.1570 C   0  0  0  0  0  2  0  0  0  0  0  0
  -24.6000  -31.0620   22.0880 N   0  0  0  0  0  0  0  0  0  0  0  0
  -23.4450  -32.1260   23.7200 O   0  0  0  0  0  0  0  0  0  0  0  0
  -22.6900  -29.4300   22.4870 C   0  0  0  0  0  0  0  0  0  0  0  0
  -21.3640  -29.2560   22.3580 N   0  0  0  0  0  0  0  0  0  0  0  0
  -23.3710  -28.7930   23.2940 O   0  0  0  0  0  0  0  0  0  0  0  0
  -20.8790  -29.8170   21.6710 H   0  0  0  0  0  0  0  0  0  0  0  0
  -17.9750  -28.1200   22.8790 C   0  0  0  0  0  0  0  0  0  0  0  0
  -20.5400  -28.3180   23.1190 C   0  0  0  0  0  3  0  0  0  0  0  0
  -20.6040  -26.9000   22.5070 C   0  0  0  0  0  2  0  0  0  0  0  0
  -19.4800  -26.6230   21.5050 C   0  0  0  0  0  2  0  0  0  0  0  0
  -18.1100  -26.7840   22.1710 C   0  0  0  0  0  2  0  0  0  0  0  0
  -19.1140  -28.8490   23.3100 C   0  0  0  0  0  0  0  0  0  0  0  0
  -18.9300  -30.1040   23.9290 C   0  0  0  0  0  3  0  0  0  0  0  0
  -17.6390  -30.6280   24.1230 C   0  0  0  0  0  3  0  0  0  0  0  0
  -16.5140  -29.8950   23.7080 C   0  0  0  0  0  3  0  0  0  0  0  0
  -16.6830  -28.6420   23.0930 C   0  0  0  0  0  3  0  0  0  0  0  0
  -25.8120  -32.4850   23.8240 C   0  0  0  0  0  3  0  0  0  0  0  0
  -26.3270  -31.7060   25.0970 C   0  0  1  0  0  0  0  0  0  0  0  0
  -25.2300  -31.4490   26.1560 C   0  0  0  0  0  1  0  0  0  0  0  0
  -26.9240  -30.3380   24.6940 C   0  0  0  0  0  1  0  0  0  0  0  0
  -27.4690  -32.5040   25.7710 C   0  0  0  0  0  1  0  0  0  0  0  0
  -25.4940  -33.8810   24.1590 N   0  0  0  0  0  0  0  0  0  0  0  0
  -25.8280  -34.9370   23.4070 C   0  0  0  0  0  0  0  0  0  0  0  0
  -26.5050  -34.8410   22.3790 O   0  0  0  0  0  0  0  0  0  0  0  0
  -24.8920  -34.0300   24.9560 H   0  0  0  0  0  0  0  0  0  0  0  0
  -24.0980  -36.7250   23.0420 C   0  0  0  0  0  1  0  0  0  0  0  0
  -25.3300  -36.3200   23.8660 C   0  0  0  0  0  3  0  0  0  0  0  0
  -27.4480  -37.2060   24.7340 C   0  0  0  0  0  1  0  0  0  0  0  0
  -26.3610  -37.3760   23.7730 N   0  0  0  0  0  0  0  0  0  0  0  0
  -25.9500  -38.2940   23.9190 H   0  0  0  0  0  0  0  0  0  0  0  0
  1  3  1  0
  1  5  1  0
  3  6  1  0
  4  2  1  0
  5 52  1  0
  5  2  1  0
  6 10  1  0
  6  4  1  0
  7  8  1  0
  8 11  2  0
  9 11  1  0
 10 12  1  0
 10  7  2  0
 11 22  1  0
 12  9  2  0
 13 12  1  0
 14 22  1  0
 15 20  1  0
 16 17  1  0
 16 15  1  0
 18 17  1  0
 18 27  1  0
 18 19  1  0
 20 14  1  0
 20 19  1  0
 21 14  2  0
 22 23  1  0
 24 25  2  0
 25 44  1  0
 26 25  1  0
 26 29  1  0
 27 24  1  0
 27 28  1  0
 28 26  2  0
 29 30  1  0
 30 31  2  0
 32 35  1  0
 32 31  1  0
 33 32  2  0
 34 33  1  0
 34 29  2  0
 35 36  1  0
 36 37  1  0
 37 38  2  0
 39 38  1  0
 39 43  1  0
 40 39  2  0
 41 36  2  0
 41 40  1  0
 42 41  1  0
 44 45  1  0
 45 48  1  0
 45 47  1  0
 46 44  2  0
 49 50  1  0
 49 24  1  0
 51 49  1  0
 53 54  1  0
 53 52  2  0
 55 52  1  0
 55 56  1  0
 56 58  1  0
 57 68  2  0
 58 63  1  0
 59 67  1  0
 59 69  1  0
 60 66  1  0
 60 62  1  0
 61 67  1  0
 62 61  1  0
 63 62  2  0
 64 65  1  0
 64 58  2  0
 65 60  2  0
 66 59  1  0
 67 57  1  0
 69 71  2  0
 70 69  1  0
 72 70  1  0
 73 82  2  0
 73 78  1  0
 74 70  1  0
 74 78  1  0
 75 74  1  0
 76 77  1  0
 76 75  1  0
 77 73  1  0
 78 79  2  0
 79 80  1  0
 81 80  2  0
 82 81  1  0
 83 57  1  0
 83 88  1  0
 83 84  1  0
 84 87  1  1
 84 85  1  0
 86 84  1  0
 88 91  1  0
 89 93  1  0
 89 88  1  0
 90 89  2  0
 93 92  1  0
 95 93  1  0
 95 96  1  0
 95 94  1  0
M  ISO  4  14 100  22 100  55 101  56 101
M  END
>  <TORSDO>  (5) 
F 19

>  <SCORE>  (5) 
-14.708

>  <name>  (5) 
4

>  <ligand_id>  (5) 
4

>  <original_smiles>  (5) 
[H]N=C(C([H])([H])Oc1c([H])c([H])c2c(c1[H])C([H])([H])N(C(=O)C([H])(N([H])C(=O)C([H])(N([H])C([H])([H])[H])C([H])([H])[H])C(C([H])([H])[H])(C([H])([H])[H])C([H])([H])[H])C([H])(C(=O)N([H])C1([H])c3c([H])c([H])c([H])c([H])c3C([H])([H])C([H])([H])C1([H])[H])C2([H])[H])C1([H])C([H])([H])C([H])([H])N(c2c([H])c([H])c(N([H])C(=O)N3C([H])([H])C([H])([H])C([H])([H])C([H])(n4nc(-c5c([H])c([H])c(Oc6c([H])c([H])c(F)c([H])c6F)c([H])c5[H])c(C(=O)N([H])[H])c4N([H])[H])C3([H])[H])c([H])c2F)C([H])([H])C1([H])[H]

>  <smiles>  (5) 
[H]N=C(C([H])([H])Oc1c([H])c([H])c2c(c1[H])C([H])([H])N(C(=O)C([H])(N([H])C(=O)C([H])(N([H])C([H])([H])[H])C([H])([H])[H])C(C([H])([H])[H])(C([H])([H])[H])C([H])([H])[H])C([H])(C(=O)N([H])C1([H])c3c([H])c([H])c([H])c([H])c3C([H])([H])C([H])([H])C1([H])[H])C2([H])[H])C1([H])C([H])([H])C([H])([H])N(c2c([H])c([H])c(N([H])C(=O)N3C([H])([H])C([H])([H])C([H])([H])C([H])(n4nc(-c5c([H])c([H])c(Oc6c([H])c([H])c(F)c([H])c6F)c([H])c5[H])c(C(=O)N([H])[H])c4N([H])[H])C3([H])[H])c([H])c2F)C([H])([H])C1([H])[H]

$$$$
5:0:0
     RDKit          3D

 95104  0  0  1  0  0  0  0  0999 V2000
  -29.2530  -24.0580   19.0540 C   0  0  0  0  0  0  0  0  0  0  0  0
  -29.1470  -22.5860   18.7180 C   0  0  0  0  0  2  0  0  0  0  0  0
  -28.3170  -22.9220   20.9480 C   0  0  0  0  0  2  0  0  0  0  0  0
  -28.9700  -24.2690   20.5300 C   0  0  0  0  0  3  0  0  0  0  0  0
  -28.4180  -21.9720   19.8270 N   0  0  0  0  0  0  0  0  0  0  0  0
  -29.5810  -24.9370   18.2500 O   0  0  0  0  0  0  0  0  0  0  0  0
  -28.9350  -18.3250   19.2460 C   0  0  0  0  0  3  0  0  0  0  0  0
  -28.3770  -19.6220   19.1670 C   0  0  0  0  0  3  0  0  0  0  0  0
  -29.6960  -20.3010   21.0940 C   0  0  0  0  0  3  0  0  0  0  0  0
  -29.9130  -18.0300   20.2250 C   0  0  0  0  0  0  0  0  0  0  0  0
  -28.8040  -20.6400   20.0540 C   0  0  0  0  0  0  0  0  0  0  0  0
  -30.2180  -19.0090   21.2000 C   0  0  0  0  0  0  0  0  0  0  0  0
  -31.1060  -18.7550   22.1930 F   0  0  0  0  0  0  0  0  0  0  0  0
  -30.8070  -16.8680   20.0830 C   0  0  0  0  0  0  0  0  0  0  0  0
  -32.3860  -17.2800   19.6180 S   0  0  0  0  0  0  0  0  0  0  0  0
  -30.8250  -14.4270   20.2610 C   0  0  0  0  0  0  0  0  0  0  0  0
  -30.3660  -12.2670   19.2420 C   0  0  0  0  0  2  0  0  0  0  0  0
  -29.4380  -12.4600   18.0300 C   0  0  0  0  0  2  0  0  0  0  0  0
  -27.9690  -12.3620   18.4770 C   0  0  0  0  0  2  0  0  0  0  0  0
  -27.6460  -13.2510   19.7110 C   0  0  0  0  0  3  0  0  0  0  0  0
  -28.7170  -13.1220   20.8180 C   0  0  0  0  0  2  0  0  0  0  0  0
  -30.0310  -13.3300   20.2000 N   0  0  0  0  0  0  0  0  0  0  0  0
  -32.0270  -14.3130   20.0330 O   0  0  0  0  0  0  0  0  0  0  0  0
  -30.2250  -15.6370   20.2920 N   0  0  0  0  0  0  0  0  0  0  0  0
  -29.2290  -15.6310   20.4210 H   0  0  0  0  0  0  0  0  0  0  0  0
  -25.2630  -13.8590   20.4560 C   0  0  0  0  0  0  0  0  0  0  0  0
  -24.1970  -13.0880   20.8310 C   0  0  0  0  0  0  0  0  0  0  0  0
  -24.6550  -11.7330   20.7960 C   0  0  0  0  0  0  0  0  0  0  0  0
  -26.3030  -12.9760   20.2140 N   0  0  0  0  0  0  0  0  0  0  0  0
  -25.9430  -11.6930   20.4820 N   0  0  0  0  0  0  0  0  0  0  0  0
  -23.9260  -10.4710   20.9830 C   0  0  0  0  0  0  0  0  0  0  0  0
  -24.3490   -9.5090   21.9280 C   0  0  0  0  0  3  0  0  0  0  0  0
  -23.6210   -8.3130   22.1060 C   0  0  0  0  0  3  0  0  0  0  0  0
  -22.4580   -8.0700   21.3400 C   0  0  0  0  0  0  0  0  0  0  0  0
  -22.0550   -9.0180   20.3840 C   0  0  0  0  0  3  0  0  0  0  0  0
  -22.7820  -10.2070   20.2010 C   0  0  0  0  0  3  0  0  0  0  0  0
  -21.7050   -6.9250   21.4280 O   0  0  0  0  0  0  0  0  0  0  0  0
  -21.6240   -6.2050   22.5930 C   0  0  0  0  0  0  0  0  0  0  0  0
  -21.1440   -6.7760   23.7930 C   0  0  0  0  0  3  0  0  0  0  0  0
  -21.0110   -5.9790   24.9490 C   0  0  0  0  0  3  0  0  0  0  0  0
  -21.3490   -4.6140   24.9050 C   0  0  0  0  0  0  0  0  0  0  0  0
  -21.8230   -4.0410   23.7120 C   0  0  0  0  0  3  0  0  0  0  0  0
  -21.9590   -4.8350   22.5590 C   0  0  0  0  0  0  0  0  0  0  0  0
  -22.3960   -4.2730   21.4060 F   0  0  0  0  0  0  0  0  0  0  0  0
  -21.2120   -3.8470   26.0130 F   0  0  0  0  0  0  0  0  0  0  0  0
  -22.8020  -13.5700   21.1070 C   0  0  0  0  0  0  0  0  0  0  0  0
  -22.0730  -12.8720   21.9710 N   0  0  0  0  0  0  0  0  0  0  0  0
  -22.3670  -14.5970   20.5880 O   0  0  0  0  0  0  0  0  0  0  0  0
  -22.4390  -12.0390   22.4060 H   0  0  0  0  0  0  0  0  0  0  0  0
  -21.1370  -13.1790   22.2010 H   0  0  0  0  0  0  0  0  0  0  0  0
  -25.4330  -15.2300   20.2830 N   0  0  0  0  0  0  0  0  0  0  0  0
  -24.6630  -15.8810   20.3970 H   0  0  0  0  0  0  0  0  0  0  0  0
  -26.2630  -15.6650   19.9000 H   0  0  0  0  0  0  0  0  0  0  0  0
  -28.0470  -25.4470   20.8740 C   0  0  0  0  0  2  0  0  0  0  0  0
  -28.3630  -26.7010   20.2400 O   0  0  0  0  0  0  0  0  0  0  0  0
  -24.5940  -31.8880   23.2290 C   0  0  0  0  0  0  0  0  0  0  0  0
  -27.2470  -27.4940   20.1380 C   0  0  0  0  0  0  0  0  0  0  0  0
  -23.3990  -30.4840   21.5820 C   0  0  0  0  0  3  0  0  0  0  0  0
  -24.8580  -28.9810   20.1400 C   0  0  0  0  0  0  0  0  0  0  0  0
  -25.9150  -30.8790   21.3710 C   0  0  0  0  0  2  0  0  0  0  0  0
  -26.0150  -29.5140   20.7270 C   0  0  0  0  0  0  0  0  0  0  0  0
  -27.2220  -28.7800   20.7130 C   0  0  0  0  0  3  0  0  0  0  0  0
  -26.0870  -26.9970   19.5020 C   0  0  0  0  0  3  0  0  0  0  0  0
  -24.8870  -27.7230   19.5210 C   0  0  0  0  0  3  0  0  0  0  0  0
  -23.6050  -29.8190   20.1970 C   0  0  0  0  0  2  0  0  0  0  0  0
  -24.6560  -31.0940   22.1230 N   0  0  0  0  0  0  0  0  0  0  0  0
  -23.5100  -32.1490   23.7690 O   0  0  0  0  0  0  0  0  0  0  0  0
  -22.7580  -29.4510   22.5400 C   0  0  0  0  0  0  0  0  0  0  0  0
  -21.4310  -29.2770   22.4240 N   0  0  0  0  0  0  0  0  0  0  0  0
  -23.4490  -28.8150   23.3390 O   0  0  0  0  0  0  0  0  0  0  0  0
  -20.9370  -29.8520   21.7550 H   0  0  0  0  0  0  0  0  0  0  0  0
  -18.0530  -28.1040   22.9440 C   0  0  0  0  0  0  0  0  0  0  0  0
  -20.6160  -28.3360   23.1900 C   0  0  0  0  0  3  0  0  0  0  0  0
  -20.6970  -26.9100   22.5980 C   0  0  0  0  0  2  0  0  0  0  0  0
  -19.5840  -26.6100   21.5890 C   0  0  0  0  0  2  0  0  0  0  0  0
  -18.2110  -26.7600   22.2510 C   0  0  0  0  0  2  0  0  0  0  0  0
  -19.1830  -28.8520   23.3700 C   0  0  0  0  0  0  0  0  0  0  0  0
  -18.9840  -30.1100   23.9780 C   0  0  0  0  0  3  0  0  0  0  0  0
  -17.6860  -30.6250   24.1580 C   0  0  0  0  0  3  0  0  0  0  0  0
  -16.5700  -29.8760   23.7460 C   0  0  0  0  0  3  0  0  0  0  0  0
  -16.7540  -28.6150   23.1490 C   0  0  0  0  0  3  0  0  0  0  0  0
  -25.8750  -32.5240   23.8520 C   0  0  0  0  0  3  0  0  0  0  0  0
  -26.3960  -31.7550   25.1260 C   0  0  1  0  0  0  0  0  0  0  0  0
  -25.3060  -31.5090   26.1960 C   0  0  0  0  0  1  0  0  0  0  0  0
  -26.9830  -30.3840   24.7180 C   0  0  0  0  0  1  0  0  0  0  0  0
  -27.5410  -32.5570   25.7880 C   0  0  0  0  0  1  0  0  0  0  0  0
  -25.5600  -33.9200   24.1770 N   0  0  0  0  0  0  0  0  0  0  0  0
  -25.8980  -34.9730   23.4190 C   0  0  0  0  0  0  0  0  0  0  0  0
  -26.5790  -34.8680   22.3950 O   0  0  0  0  0  0  0  0  0  0  0  0
  -24.9500  -34.0730   24.9670 H   0  0  0  0  0  0  0  0  0  0  0  0
  -24.1730  -36.7620   23.0360 C   0  0  0  0  0  1  0  0  0  0  0  0
  -25.4020  -36.3600   23.8670 C   0  0  0  0  0  3  0  0  0  0  0  0
  -27.5200  -37.2480   24.7350 C   0  0  0  0  0  1  0  0  0  0  0  0
  -26.4360  -37.4110   23.7700 N   0  0  0  0  0  0  0  0  0  0  0  0
  -26.0290  -38.3320   23.9030 H   0  0  0  0  0  0  0  0  0  0  0  0
  1  4  1  0
  2  1  1  0
  2  5  1  0
  4 54  1  0
  4  3  1  0
  5 11  1  0
  5  3  1  0
  6  1  2  0
  7 10  1  0
  8  7  2  0
  8 11  1  0
  9 12  1  0
 10 12  2  0
 11  9  2  0
 12 13  1  0
 14 10  1  0
 14 24  1  0
 15 14  2  0
 16 24  1  0
 17 22  1  0
 18 19  1  0
 18 17  1  0
 20 19  1  0
 20 29  1  0
 20 21  1  0
 22 16  1  0
 22 21  1  0
 23 16  2  0
 24 25  1  0
 26 27  2  0
 27 46  1  0
 28 27  1  0
 28 31  1  0
 29 26  1  0
 29 30  1  0
 30 28  2  0
 31 32  1  0
 32 33  2  0
 34 37  1  0
 34 33  1  0
 35 34  2  0
 36 35  1  0
 36 31  2  0
 37 38  1  0
 38 39  1  0
 39 40  2  0
 41 40  1  0
 41 45  1  0
 42 41  2  0
 43 38  2  0
 43 42  1  0
 44 43  1  0
 46 47  1  0
 47 50  1  0
 47 49  1  0
 48 46  2  0
 51 52  1  0
 51 26  1  0
 53 51  1  0
 55 54  1  0
 56 67  2  0
 57 55  1  0
 57 62  1  0
 58 66  1  0
 58 68  1  0
 59 65  1  0
 59 61  1  0
 60 66  1  0
 61 60  1  0
 62 61  2  0
 63 64  1  0
 63 57  2  0
 64 59  2  0
 65 58  1  0
 66 56  1  0
 68 70  2  0
 69 68  1  0
 71 69  1  0
 72 81  2  0
 72 77  1  0
 73 69  1  0
 73 77  1  0
 74 73  1  0
 75 76  1  0
 75 74  1  0
 76 72  1  0
 77 78  2  0
 78 79  1  0
 80 79  2  0
 81 80  1  0
 82 56  1  0
 82 87  1  0
 82 83  1  0
 83 86  1  1
 83 84  1  0
 85 83  1  0
 87 90  1  0
 88 92  1  0
 88 87  1  0
 89 88  2  0
 92 91  1  0
 94 92  1  0
 94 95  1  0
 94 93  1  0
M  ISO  4  16 100  24 100  54 101  55 101
M  END
>  <TORSDO>  (6) 
F 19

>  <SCORE>  (6) 
-14.578

>  <name>  (6) 
5

>  <ligand_id>  (6) 
5

>  <original_smiles>  (6) 
[H]c1c([H])c([H])c2c(c1[H])C([H])([H])C([H])([H])C([H])([H])C2([H])N([H])C(=O)C1([H])N(C(=O)C([H])(N([H])C(=O)C([H])(N([H])C([H])([H])[H])C([H])([H])[H])C(C([H])([H])[H])(C([H])([H])[H])C([H])([H])[H])C([H])([H])c2c([H])c(OC([H])([H])C3([H])C(=O)C([H])([H])N(c4c([H])c([H])c(C(=S)N([H])C(=O)N5C([H])([H])C([H])([H])C([H])([H])C([H])(n6nc(-c7c([H])c([H])c(Oc8c([H])c([H])c(F)c([H])c8F)c([H])c7[H])c(C(=O)N([H])[H])c6N([H])[H])C5([H])[H])c(F)c4[H])C3([H])[H])c([H])c([H])c2C1([H])[H]

>  <smiles>  (6) 
[H]c1c([H])c([H])c2c(c1[H])C([H])([H])C([H])([H])C([H])([H])C2([H])N([H])C(=O)C1([H])N(C(=O)C([H])(N([H])C(=O)C([H])(N([H])C([H])([H])[H])C([H])([H])[H])C(C([H])([H])[H])(C([H])([H])[H])C([H])([H])[H])C([H])([H])c2c([H])c(OC([H])([H])C3([H])C(=O)C([H])([H])N(c4c([H])c([H])c(C(=S)N([H])C(=O)N5C([H])([H])C([H])([H])C([H])([H])C([H])(n6nc(-c7c([H])c([H])c(Oc8c([H])c([H])c(F)c([H])c8F)c([H])c7[H])c(C(=O)N([H])[H])c6N([H])[H])C5([H])[H])c(F)c4[H])C3([H])[H])c([H])c([H])c2C1([H])[H]

$$$$
6:0:0
     RDKit          3D

 99107  0  0  1  0  0  0  0  0999 V2000
  -30.6660  -21.1480   21.4490 C   0  0  0  0  0  0  0  0  0  0  0  0
  -29.8690  -23.4870   20.9610 C   0  0  0  0  0  0  0  0  0  0  0  0
  -29.8560  -22.0420   20.8270 N   0  0  0  0  0  0  0  0  0  0  0  0
  -31.6150  -21.5480   22.3030 N   0  0  0  0  0  4  0  0  0  0  0  0
  -30.6340  -24.0570   21.7520 O   0  0  0  0  0  0  0  0  0  0  0  0
  -29.2310  -21.5950   20.1770 H   0  0  0  0  0  0  0  0  0  0  0  0
  -32.1720  -20.8760   22.8080 H   0  0  0  0  0  0  0  0  0  0  0  0
  -31.7060  -22.5380   22.4980 H   0  0  0  0  0  0  0  0  0  0  0  0
  -31.7180  -18.8760   21.3020 C   0  0  0  0  0  3  0  0  0  0  0  0
  -31.6320  -17.4690   21.1870 C   0  0  0  0  0  3  0  0  0  0  0  0
  -29.3130  -19.0620   21.0110 C   0  0  0  0  0  3  0  0  0  0  0  0
  -30.5600  -19.6890   21.2240 C   0  0  0  0  0  0  0  0  0  0  0  0
  -30.3780  -16.8390   20.9940 C   0  0  0  0  0  0  0  0  0  0  0  0
  -29.2270  -17.6540   20.9070 C   0  0  0  0  0  0  0  0  0  0  0  0
  -28.0170  -17.0680   20.7330 F   0  0  0  0  0  0  0  0  0  0  0  0
  -30.8190  -14.4890   20.1960 C   0  0  0  0  0  0  0  0  0  0  0  0
  -30.4430  -12.3870   18.9510 C   0  0  0  0  0  2  0  0  0  0  0  0
  -29.4480  -12.6550   17.8030 C   0  0  0  0  0  2  0  0  0  0  0  0
  -27.9920  -12.5200   18.2910 C   0  0  0  0  0  2  0  0  0  0  0  0
  -27.7280  -13.3010   19.6060 C   0  0  0  0  0  3  0  0  0  0  0  0
  -28.8270  -13.0020   20.6530 C   0  0  0  0  0  2  0  0  0  0  0  0
  -30.1330  -13.3220   20.0440 N   0  0  0  0  0  0  0  0  0  0  0  0
  -31.9010  -14.6980   19.6400 O   0  0  0  0  0  0  0  0  0  0  0  0
  -30.1740  -15.4250   20.9160 N   0  0  0  0  0  0  0  0  0  0  0  0
  -29.2940  -15.1190   21.3020 H   0  0  0  0  0  0  0  0  0  0  0  0
  -25.3620  -13.9140   20.4150 C   0  0  0  0  0  0  0  0  0  0  0  0
  -24.3020  -13.1430   20.8110 C   0  0  0  0  0  0  0  0  0  0  0  0
  -24.7500  -11.7890   20.7390 C   0  0  0  0  0  0  0  0  0  0  0  0
  -26.3910  -13.0280   20.1310 N   0  0  0  0  0  0  0  0  0  0  0  0
  -26.0270  -11.7450   20.3790 N   0  0  0  0  0  0  0  0  0  0  0  0
  -24.0220  -10.5290   20.9380 C   0  0  0  0  0  0  0  0  0  0  0  0
  -24.4350   -9.5800   21.8970 C   0  0  0  0  0  3  0  0  0  0  0  0
  -23.7080   -8.3850   22.0810 C   0  0  0  0  0  3  0  0  0  0  0  0
  -22.5540   -8.1300   21.3030 C   0  0  0  0  0  0  0  0  0  0  0  0
  -22.1600   -9.0680   20.3320 C   0  0  0  0  0  3  0  0  0  0  0  0
  -22.8880  -10.2560   20.1470 C   0  0  0  0  0  3  0  0  0  0  0  0
  -21.7990   -6.9850   21.3940 O   0  0  0  0  0  0  0  0  0  0  0  0
  -21.6520   -6.3130   22.5810 C   0  0  0  0  0  0  0  0  0  0  0  0
  -21.1000   -6.9310   23.7240 C   0  0  0  0  0  3  0  0  0  0  0  0
  -20.9030   -6.1840   24.9030 C   0  0  0  0  0  3  0  0  0  0  0  0
  -21.2470   -4.8190   24.9380 C   0  0  0  0  0  0  0  0  0  0  0  0
  -21.7910   -4.1990   23.7990 C   0  0  0  0  0  3  0  0  0  0  0  0
  -21.9900   -4.9440   22.6220 C   0  0  0  0  0  0  0  0  0  0  0  0
  -22.4960   -4.3390   21.5210 F   0  0  0  0  0  0  0  0  0  0  0  0
  -21.0500   -4.0980   26.0670 F   0  0  0  0  0  0  0  0  0  0  0  0
  -22.9220  -13.6260   21.1510 C   0  0  0  0  0  0  0  0  0  0  0  0
  -22.2320  -12.9310   22.0480 N   0  0  0  0  0  0  0  0  0  0  0  0
  -22.4650  -14.6560   20.6560 O   0  0  0  0  0  0  0  0  0  0  0  0
  -22.6150  -12.0960   22.4680 H   0  0  0  0  0  0  0  0  0  0  0  0
  -21.3060  -13.2340   22.3170 H   0  0  0  0  0  0  0  0  0  0  0  0
  -25.5300  -15.2860   20.2590 N   0  0  0  0  0  0  0  0  0  0  0  0
  -24.7800  -15.9450   20.4360 H   0  0  0  0  0  0  0  0  0  0  0  0
  -26.3940  -15.7360   19.9840 H   0  0  0  0  0  0  0  0  0  0  0  0
  -29.6350  -24.5330   18.6880 C   0  0  0  0  0  1  0  0  0  0  0  0
  -27.5990  -23.4980   19.8120 C   0  0  0  0  0  1  0  0  0  0  0  0
  -28.9060  -24.2920   20.0330 C   0  0  1  0  0  0  0  0  0  0  0  0
  -28.5350  -25.5690   20.6960 N   0  0  0  0  0  0  0  0  0  0  0  0
  -27.6060  -25.5040   21.0990 H   0  0  0  0  0  0  0  0  0  0  0  0
  -28.4830  -26.6570   19.7200 O   0  0  0  0  0  0  0  0  0  0  0  0
  -24.5790  -31.6580   23.0300 C   0  0  0  0  0  0  0  0  0  0  0  0
  -27.3100  -27.3690   19.8110 C   0  0  0  0  0  0  0  0  0  0  0  0
  -23.4010  -30.2870   21.3410 C   0  0  0  0  0  3  0  0  0  0  0  0
  -24.8870  -28.8240   19.8710 C   0  0  0  0  0  0  0  0  0  0  0  0
  -25.9190  -30.7000   21.1570 C   0  0  0  0  0  2  0  0  0  0  0  0
  -26.0330  -29.3470   20.4850 C   0  0  0  0  0  0  0  0  0  0  0  0
  -27.2480  -28.6220   20.4630 C   0  0  0  0  0  3  0  0  0  0  0  0
  -26.1550  -26.8690   19.1770 C   0  0  0  0  0  3  0  0  0  0  0  0
  -24.9400  -27.5810   19.2180 C   0  0  0  0  0  3  0  0  0  0  0  0
  -23.6260  -29.6570   19.9390 C   0  0  0  0  0  2  0  0  0  0  0  0
  -24.6510  -30.8960   21.9010 N   0  0  0  0  0  0  0  0  0  0  0  0
  -23.4930  -31.8870   23.5800 O   0  0  0  0  0  0  0  0  0  0  0  0
  -22.7710  -29.2200   22.2660 C   0  0  0  0  0  0  0  0  0  0  0  0
  -21.4440  -29.0420   22.1570 N   0  0  0  0  0  0  0  0  0  0  0  0
  -23.4710  -28.5570   23.0350 O   0  0  0  0  0  0  0  0  0  0  0  0
  -20.9380  -29.6300   21.5080 H   0  0  0  0  0  0  0  0  0  0  0  0
  -18.0750  -27.8650   22.7200 C   0  0  0  0  0  0  0  0  0  0  0  0
  -20.6450  -28.0690   22.9020 C   0  0  0  0  0  3  0  0  0  0  0  0
  -20.7010  -26.6750   22.2340 C   0  0  0  0  0  2  0  0  0  0  0  0
  -19.5540  -26.4340   21.2470 C   0  0  0  0  0  2  0  0  0  0  0  0
  -18.2010  -26.5590   21.9530 C   0  0  0  0  0  2  0  0  0  0  0  0
  -19.2230  -28.5820   23.1510 C   0  0  0  0  0  0  0  0  0  0  0  0
  -19.0500  -29.8110   23.8250 C   0  0  0  0  0  3  0  0  0  0  0  0
  -17.7610  -30.3190   24.0760 C   0  0  0  0  0  3  0  0  0  0  0  0
  -16.6300  -29.5980   23.6600 C   0  0  0  0  0  3  0  0  0  0  0  0
  -16.7870  -28.3730   22.9870 C   0  0  0  0  0  3  0  0  0  0  0  0
  -25.8520  -32.2950   23.6690 C   0  0  0  0  0  3  0  0  0  0  0  0
  -26.3940  -31.4860   24.9110 C   0  0  1  0  0  0  0  0  0  0  0  0
  -25.3110  -31.1740   25.9690 C   0  0  0  0  0  1  0  0  0  0  0  0
  -27.0110  -30.1430   24.4570 C   0  0  0  0  0  1  0  0  0  0  0  0
  -27.5230  -32.2820   25.6030 C   0  0  0  0  0  1  0  0  0  0  0  0
  -25.5150  -33.6730   24.0510 N   0  0  0  0  0  0  0  0  0  0  0  0
  -25.8320  -34.7600   23.3330 C   0  0  0  0  0  0  0  0  0  0  0  0
  -26.5100  -34.7090   22.3040 O   0  0  0  0  0  0  0  0  0  0  0  0
  -24.9130  -33.7860   24.8530 H   0  0  0  0  0  0  0  0  0  0  0  0
  -24.0800  -36.5360   23.0190 C   0  0  0  0  0  1  0  0  0  0  0  0
  -25.3120  -36.1190   23.8380 C   0  0  0  0  0  3  0  0  0  0  0  0
  -27.4100  -37.0050   24.7530 C   0  0  0  0  0  1  0  0  0  0  0  0
  -26.3260  -37.1950   23.7920 N   0  0  0  0  0  0  0  0  0  0  0  0
  -25.9000  -38.1000   23.9700 H   0  0  0  0  0  0  0  0  0  0  0  0
  1  4  2  0
  2  5  2  0
  3  2  1  0
  3  1  1  0
  4  8  1  0
  4  7  1  0
  6  3  1  0
 10  9  2  0
 11 12  2  0
 12  9  1  0
 12  1  1  0
 13 10  1  0
 14 13  2  0
 14 11  1  0
 15 14  1  0
 16 24  1  0
 17 22  1  0
 18 19  1  0
 18 17  1  0
 20 19  1  0
 20 29  1  0
 20 21  1  0
 22 16  1  0
 22 21  1  0
 23 16  2  0
 24 13  1  0
 24 25  1  0
 26 27  2  0
 27 46  1  0
 28 27  1  0
 28 31  1  0
 29 30  1  0
 29 26  1  0
 30 28  2  0
 31 32  1  0
 32 33  2  0
 34 37  1  0
 34 33  1  0
 35 34  2  0
 36 35  1  0
 36 31  2  0
 37 38  1  0
 38 43  2  0
 38 39  1  0
 39 40  2  0
 40 41  1  0
 41 45  1  0
 42 41  2  0
 43 42  1  0
 44 43  1  0
 46 47  1  0
 47 50  1  0
 47 49  1  0
 48 46  2  0
 51 26  1  0
 51 52  1  0
 53 51  1  0
 56 54  1  6
 55 56  1  0
 56 57  1  0
 56  2  1  0
 57 58  1  0
 59 61  1  0
 59 57  1  0
 60 71  2  0
 61 66  1  0
 62 70  1  0
 62 72  1  0
 63 69  1  0
 63 65  1  0
 64 70  1  0
 65 64  1  0
 66 65  2  0
 67 68  1  0
 67 61  2  0
 68 63  2  0
 69 62  1  0
 70 60  1  0
 72 74  2  0
 73 72  1  0
 75 73  1  0
 76 85  2  0
 76 81  1  0
 77 73  1  0
 77 81  1  0
 78 77  1  0
 79 80  1  0
 79 78  1  0
 80 76  1  0
 81 82  2  0
 82 83  1  0
 84 83  2  0
 85 84  1  0
 86 60  1  0
 86 91  1  0
 86 87  1  0
 87 90  1  1
 87 88  1  0
 89 87  1  0
 91 94  1  0
 92 96  1  0
 92 91  1  0
 93 92  2  0
 96 95  1  0
 98 96  1  0
 98 99  1  0
 98 97  1  0
M  ISO  4  16 100  24 100  57 101  59 101
M  END
>  <TORSDO>  (7) 
F 19

>  <SCORE>  (7) 
-14.212

>  <name>  (7) 
6

>  <ligand_id>  (7) 
6

>  <original_smiles>  (7) 
[H]c1c([H])c([H])c2c(c1[H])C([H])([H])C([H])([H])C([H])([H])C2([H])N([H])C(=O)C1([H])N(C(=O)C([H])(N([H])C(=O)C([H])(N([H])C([H])([H])[H])C([H])([H])[H])C(C([H])([H])[H])(C([H])([H])[H])C([H])([H])[H])C([H])([H])c2c([H])c(ON([H])C(C(=O)N([H])C(c3c([H])c([H])c(N([H])C(=O)N4C([H])([H])C([H])([H])C([H])([H])C([H])(n5nc(-c6c([H])c([H])c(Oc7c([H])c([H])c(F)c([H])c7F)c([H])c6[H])c(C(=O)N([H])[H])c5N([H])[H])C4([H])[H])c(F)c3[H])=[N+]([H])[H])(C([H])([H])[H])C([H])([H])[H])c([H])c([H])c2C1([H])[H]

>  <smiles>  (7) 
[H]c1c([H])c([H])c2c(c1[H])C([H])([H])C([H])([H])C([H])([H])C2([H])N([H])C(=O)C1([H])N(C(=O)C([H])(N([H])C(=O)C([H])(N([H])C([H])([H])[H])C([H])([H])[H])C(C([H])([H])[H])(C([H])([H])[H])C([H])([H])[H])C([H])([H])c2c([H])c(ON([H])C(C(=O)N([H])C(c3c([H])c([H])c(N([H])C(=O)N4C([H])([H])C([H])([H])C([H])([H])C([H])(n5nc(-c6c([H])c([H])c(Oc7c([H])c([H])c(F)c([H])c7F)c([H])c6[H])c(C(=O)N([H])[H])c5N([H])[H])C4([H])[H])c(F)c3[H])=[N+]([H])[H])(C([H])([H])[H])C([H])([H])[H])c([H])c([H])c2C1([H])[H]

$$$$
7:0:0
     RDKit          3D

 97106  0  0  1  0  0  0  0  0999 V2000
  -27.7500  -22.1430   20.7050 C   0  0  0  0  0  0  0  0  0  0  0  0
  -29.4030  -22.6580   19.7150 C   0  0  0  0  0  0  0  0  0  0  0  0
  -28.0240  -23.4600   19.8470 C   0  0  1  0  0  0  0  0  0  0  0  0
  -28.8400  -21.4070   20.1380 N   0  0  0  0  0  0  0  0  0  0  0  0
  -26.9400  -21.8130   21.5560 O   0  0  0  0  0  0  0  0  0  0  0  0
  -30.5450  -22.9460   19.4320 O   0  0  0  0  0  0  0  0  0  0  0  0
  -30.0150  -20.0720   21.8740 C   0  0  0  0  0  3  0  0  0  0  0  0
  -30.6560  -18.9550   22.4520 C   0  0  0  0  0  3  0  0  0  0  0  0
  -29.5960  -18.7640   19.9180 C   0  0  0  0  0  3  0  0  0  0  0  0
  -29.4700  -20.0920   20.5680 C   0  0  0  0  0  0  0  0  0  0  0  0
  -30.7990  -17.7290   21.7760 C   0  0  0  0  0  0  0  0  0  0  0  0
  -30.2400  -17.5590   20.4850 C   0  0  0  0  0  0  0  0  0  0  0  0
  -30.9430  -15.0190   19.8980 C   0  0  0  0  0  0  0  0  0  0  0  0
  -30.7340  -12.6820   18.9620 C   0  0  0  0  0  2  0  0  0  0  0  0
  -29.7520  -12.6670   17.7720 C   0  0  0  0  0  2  0  0  0  0  0  0
  -28.3030  -12.5040   18.2710 C   0  0  0  0  0  2  0  0  0  0  0  0
  -27.9660  -13.4890   19.4180 C   0  0  0  0  0  3  0  0  0  0  0  0
  -29.0510  -13.4510   20.5160 C   0  0  0  0  0  2  0  0  0  0  0  0
  -30.3260  -13.7830   19.8700 N   0  0  0  0  0  0  0  0  0  0  0  0
  -32.1340  -15.1010   19.5820 O   0  0  0  0  0  0  0  0  0  0  0  0
  -30.1060  -16.1380   19.9940 N   0  0  0  0  0  0  0  0  0  0  0  0
  -29.1530  -15.8200   20.0550 H   0  0  0  0  0  0  0  0  0  0  0  0
  -25.6490  -14.1790   20.2660 C   0  0  0  0  0  0  0  0  0  0  0  0
  -24.5680  -13.4440   20.6720 C   0  0  0  0  0  0  0  0  0  0  0  0
  -24.9690  -12.0750   20.5990 C   0  0  0  0  0  0  0  0  0  0  0  0
  -26.6380  -13.2560   19.9660 N   0  0  0  0  0  0  0  0  0  0  0  0
  -26.2420  -11.9850   20.2330 N   0  0  0  0  0  0  0  0  0  0  0  0
  -24.1970  -10.8390   20.7990 C   0  0  0  0  0  0  0  0  0  0  0  0
  -24.5990   -9.8500   21.7230 C   0  0  0  0  0  3  0  0  0  0  0  0
  -23.8240   -8.6850   21.9030 C   0  0  0  0  0  3  0  0  0  0  0  0
  -22.6300   -8.5010   21.1650 C   0  0  0  0  0  0  0  0  0  0  0  0
  -22.2490   -9.4780   20.2300 C   0  0  0  0  0  3  0  0  0  0  0  0
  -23.0270  -10.6320   20.0420 C   0  0  0  0  0  3  0  0  0  0  0  0
  -21.8290   -7.3890   21.2630 O   0  0  0  0  0  0  0  0  0  0  0  0
  -21.7300   -6.6730   22.4310 C   0  0  0  0  0  0  0  0  0  0  0  0
  -21.3180   -7.2730   23.6410 C   0  0  0  0  0  3  0  0  0  0  0  0
  -21.1600   -6.4870   24.8000 C   0  0  0  0  0  3  0  0  0  0  0  0
  -21.4070   -5.1020   24.7500 C   0  0  0  0  0  0  0  0  0  0  0  0
  -21.8120   -4.5020   23.5460 C   0  0  0  0  0  3  0  0  0  0  0  0
  -21.9690   -5.2850   22.3880 C   0  0  0  0  0  0  0  0  0  0  0  0
  -22.3400   -4.6970   21.2260 F   0  0  0  0  0  0  0  0  0  0  0  0
  -21.2490   -4.3440   25.8610 F   0  0  0  0  0  0  0  0  0  0  0  0
  -23.2060  -13.9740   21.0160 C   0  0  0  0  0  0  0  0  0  0  0  0
  -22.4940  -13.2930   21.9090 N   0  0  0  0  0  0  0  0  0  0  0  0
  -22.7890  -15.0240   20.5260 O   0  0  0  0  0  0  0  0  0  0  0  0
  -22.8500  -12.4440   22.3270 H   0  0  0  0  0  0  0  0  0  0  0  0
  -21.5800  -13.6250   22.1810 H   0  0  0  0  0  0  0  0  0  0  0  0
  -25.8690  -15.5470   20.1040 N   0  0  0  0  0  0  0  0  0  0  0  0
  -25.1410  -16.2350   20.2720 H   0  0  0  0  0  0  0  0  0  0  0  0
  -26.7290  -15.9630   19.7740 H   0  0  0  0  0  0  0  0  0  0  0  0
  -31.4130  -16.6710   22.4570 N   0  0  0  0  0  0  0  0  0  0  0  0
  -31.7310  -16.7550   23.4170 H   0  0  0  0  0  0  0  0  0  0  0  0
  -31.7250  -15.8320   21.9810 H   0  0  0  0  0  0  0  0  0  0  0  0
  -25.6210  -23.4280   18.7960 C   0  0  0  0  0  1  0  0  0  0  0  0
  -27.1510  -23.4600   18.5640 C   0  0  0  0  0  2  0  0  0  0  0  0
  -27.9570  -24.9370   20.6100 C   0  0  0  0  0  2  0  0  0  0  0  0
  -28.1900  -26.3450   20.0390 O   0  0  0  0  0  0  0  0  0  0  0  0
  -24.6450  -31.9250   23.1840 C   0  0  0  0  0  0  0  0  0  0  0  0
  -27.1340  -27.3040   20.0460 C   0  0  0  0  0  0  0  0  0  0  0  0
  -23.3990  -30.5480   21.5640 C   0  0  0  0  0  3  0  0  0  0  0  0
  -24.8060  -29.0090   20.0840 C   0  0  0  0  0  0  0  0  0  0  0  0
  -25.9450  -30.8340   21.3290 C   0  0  0  0  0  2  0  0  0  0  0  0
  -26.0020  -29.4630   20.6540 C   0  0  0  0  0  0  0  0  0  0  0  0
  -27.1720  -28.6310   20.6120 C   0  0  0  0  0  3  0  0  0  0  0  0
  -25.9140  -26.9400   19.4510 C   0  0  0  0  0  3  0  0  0  0  0  0
  -24.7670  -27.7530   19.4690 C   0  0  0  0  0  3  0  0  0  0  0  0
  -23.5780  -29.8990   20.1690 C   0  0  0  0  0  2  0  0  0  0  0  0
  -24.6850  -31.1240   22.0770 N   0  0  0  0  0  0  0  0  0  0  0  0
  -23.5730  -32.2020   23.7460 O   0  0  0  0  0  0  0  0  0  0  0  0
  -22.7570  -29.5220   22.5260 C   0  0  0  0  0  0  0  0  0  0  0  0
  -21.4260  -29.3310   22.4230 N   0  0  0  0  0  0  0  0  0  0  0  0
  -23.4490  -28.8980   23.3360 O   0  0  0  0  0  0  0  0  0  0  0  0
  -20.9250  -29.8800   21.7380 H   0  0  0  0  0  0  0  0  0  0  0  0
  -18.0790  -28.0620   22.9630 C   0  0  0  0  0  0  0  0  0  0  0  0
  -20.6330  -28.3830   23.2060 C   0  0  0  0  0  3  0  0  0  0  0  0
  -20.7620  -26.9460   22.6430 C   0  0  0  0  0  2  0  0  0  0  0  0
  -19.6520  -26.5850   21.6500 C   0  0  0  0  0  2  0  0  0  0  0  0
  -18.2780  -26.7080   22.3110 C   0  0  0  0  0  2  0  0  0  0  0  0
  -19.1850  -28.8520   23.3740 C   0  0  0  0  0  0  0  0  0  0  0  0
  -18.9510  -30.1090   23.9680 C   0  0  0  0  0  3  0  0  0  0  0  0
  -17.6390  -30.5840   24.1510 C   0  0  0  0  0  3  0  0  0  0  0  0
  -16.5470  -29.7960   23.7550 C   0  0  0  0  0  3  0  0  0  0  0  0
  -16.7650  -28.5380   23.1640 C   0  0  0  0  0  3  0  0  0  0  0  0
  -25.9400  -32.5550   23.7840 C   0  0  0  0  0  3  0  0  0  0  0  0
  -26.4940  -31.7650   25.0330 C   0  0  1  0  0  0  0  0  0  0  0  0
  -25.4330  -31.5040   26.1280 C   0  0  0  0  0  1  0  0  0  0  0  0
  -27.0750  -30.3970   24.6160 C   0  0  0  0  0  1  0  0  0  0  0  0
  -27.6610  -32.5560   25.6680 C   0  0  0  0  0  1  0  0  0  0  0  0
  -25.6310  -33.9470   24.1470 N   0  0  0  0  0  0  0  0  0  0  0  0
  -25.9430  -35.0170   23.4040 C   0  0  0  0  0  0  0  0  0  0  0  0
  -26.5930  -34.9370   22.3560 O   0  0  0  0  0  0  0  0  0  0  0  0
  -25.0420  -34.0850   24.9570 H   0  0  0  0  0  0  0  0  0  0  0  0
  -24.2060  -36.8130   23.1240 C   0  0  0  0  0  1  0  0  0  0  0  0
  -25.4670  -36.3990   23.9000 C   0  0  0  0  0  3  0  0  0  0  0  0
  -27.6220  -37.2620   24.6960 C   0  0  0  0  0  1  0  0  0  0  0  0
  -26.5000  -37.4540   23.7790 N   0  0  0  0  0  0  0  0  0  0  0  0
  -26.1040  -38.3750   23.9500 H   0  0  0  0  0  0  0  0  0  0  0  0
  1  5  2  0
  2  3  1  0
  2  4  1  0
  3 55  1  6
  3 56  1  0
  3  1  1  0
  4 10  1  0
  4  1  1  0
  6  2  2  0
  7  8  1  0
  9 12  2  0
  9 10  1  0
 10  7  2  0
 11  8  2  0
 11 51  1  0
 12 11  1  0
 13 21  1  0
 14 19  1  0
 15 16  1  0
 15 14  1  0
 17 16  1  0
 17 26  1  0
 17 18  1  0
 19 13  1  0
 19 18  1  0
 20 13  2  0
 21 22  1  0
 21 12  1  0
 23 24  2  0
 24 43  1  0
 25 24  1  0
 25 28  1  0
 26 27  1  0
 26 23  1  0
 27 25  2  0
 28 29  1  0
 29 30  2  0
 31 34  1  0
 31 30  1  0
 32 31  2  0
 33 32  1  0
 33 28  2  0
 34 35  1  0
 35 36  1  0
 36 37  2  0
 38 37  1  0
 38 42  1  0
 39 38  2  0
 40 35  2  0
 40 39  1  0
 41 40  1  0
 43 44  1  0
 44 47  1  0
 44 46  1  0
 45 43  2  0
 48 23  1  0
 48 49  1  0
 50 48  1  0
 51 52  1  0
 53 51  1  0
 55 54  1  0
 57 59  1  0
 57 56  1  0
 58 69  2  0
 59 64  1  0
 60 68  1  0
 60 70  1  0
 61 67  1  0
 61 63  1  0
 62 68  1  0
 63 62  1  0
 64 63  2  0
 65 66  1  0
 65 59  2  0
 66 61  2  0
 67 60  1  0
 68 58  1  0
 70 72  2  0
 71 70  1  0
 73 71  1  0
 74 83  2  0
 74 79  1  0
 75 71  1  0
 75 79  1  0
 76 75  1  0
 77 78  1  0
 77 76  1  0
 78 74  1  0
 79 80  2  0
 80 81  1  0
 82 81  2  0
 83 82  1  0
 84 58  1  0
 84 89  1  0
 84 85  1  0
 85 88  1  1
 85 86  1  0
 87 85  1  0
 89 92  1  0
 90 94  1  0
 90 89  1  0
 91 90  2  0
 94 93  1  0
 96 94  1  0
 96 97  1  0
 96 95  1  0
M  ISO  4  13 100  21 100  56 101  57 101
M  END
>  <TORSDO>  (8) 
F 20

>  <SCORE>  (8) 
-12.707

>  <name>  (8) 
7

>  <ligand_id>  (8) 
7

>  <original_smiles>  (8) 
[H]c1c([H])c([H])c2c(c1[H])C([H])([H])C([H])([H])C([H])([H])C2([H])N([H])C(=O)C1([H])N(C(=O)C([H])(N([H])C(=O)C([H])(N([H])C([H])([H])[H])C([H])([H])[H])C(C([H])([H])[H])(C([H])([H])[H])C([H])([H])[H])C([H])([H])c2c([H])c(OC([H])([H])C3(C([H])([H])C([H])([H])[H])C(=O)N(c4c([H])c([H])c(N([H])[H])c(N([H])C(=O)N5C([H])([H])C([H])([H])C([H])([H])C([H])(n6nc(-c7c([H])c([H])c(Oc8c([H])c([H])c(F)c([H])c8F)c([H])c7[H])c(C(=O)N([H])[H])c6N([H])[H])C5([H])[H])c4[H])C3=O)c([H])c([H])c2C1([H])[H]

>  <smiles>  (8) 
[H]c1c([H])c([H])c2c(c1[H])C([H])([H])C([H])([H])C([H])([H])C2([H])N([H])C(=O)C1([H])N(C(=O)C([H])(N([H])C(=O)C([H])(N([H])C([H])([H])[H])C([H])([H])[H])C(C([H])([H])[H])(C([H])([H])[H])C([H])([H])[H])C([H])([H])c2c([H])c(OC([H])([H])C3(C([H])([H])C([H])([H])[H])C(=O)N(c4c([H])c([H])c(N([H])[H])c(N([H])C(=O)N5C([H])([H])C([H])([H])C([H])([H])C([H])(n6nc(-c7c([H])c([H])c(Oc8c([H])c([H])c(F)c([H])c8F)c([H])c7[H])c(C(=O)N([H])[H])c6N([H])[H])C5([H])[H])c4[H])C3=O)c([H])c([H])c2C1([H])[H]

$$$$
8:0:0
     RDKit          3D

 92100  0  0  1  0  0  0  0  0999 V2000
  -29.7890  -21.6520   19.7220 C   0  0  0  0  0  0  0  0  0  0  0  0
  -30.5710  -21.9810   18.7350 N   0  0  0  0  0  4  0  0  0  0  0  0
  -31.1030  -21.2840   18.2200 H   0  0  0  0  0  0  0  0  0  0  0  0
  -30.6790  -22.9260   18.3810 H   0  0  0  0  0  0  0  0  0  0  0  0
  -28.7080  -19.4040   20.5200 C   0  0  0  0  0  3  0  0  0  0  0  0
  -30.9780  -19.3430   19.7620 C   0  0  0  0  0  3  0  0  0  0  0  0
  -28.7420  -17.9810   20.6840 C   0  0  0  0  0  3  0  0  0  0  0  0
  -31.0170  -17.9220   19.9210 C   0  0  0  0  0  3  0  0  0  0  0  0
  -29.8190  -20.1340   20.0280 C   0  0  0  0  0  0  0  0  0  0  0  0
  -29.8880  -17.1900   20.3720 C   0  0  0  0  0  0  0  0  0  0  0  0
  -30.6000  -14.6890   20.0650 C   0  0  0  0  0  0  0  0  0  0  0  0
  -30.3310  -12.4850   18.9410 C   0  0  0  0  0  2  0  0  0  0  0  0
  -29.3200  -12.6570   17.7840 C   0  0  0  0  0  2  0  0  0  0  0  0
  -27.8710  -12.4860   18.2890 C   0  0  0  0  0  2  0  0  0  0  0  0
  -27.5870  -13.3040   19.5760 C   0  0  0  0  0  3  0  0  0  0  0  0
  -28.7050  -13.1030   20.6240 C   0  0  0  0  0  2  0  0  0  0  0  0
  -29.9820  -13.4670   19.9880 N   0  0  0  0  0  0  0  0  0  0  0  0
  -31.7360  -14.8560   19.6110 O   0  0  0  0  0  0  0  0  0  0  0  0
  -29.8200  -15.7290   20.5200 N   0  0  0  0  0  0  0  0  0  0  0  0
  -28.9550  -15.3950   20.9150 H   0  0  0  0  0  0  0  0  0  0  0  0
  -25.2370  -13.8900   20.4320 C   0  0  0  0  0  0  0  0  0  0  0  0
  -24.1900  -13.1110   20.8430 C   0  0  0  0  0  0  0  0  0  0  0  0
  -24.6470  -11.7600   20.7600 C   0  0  0  0  0  0  0  0  0  0  0  0
  -26.2660  -13.0140   20.1250 N   0  0  0  0  0  0  0  0  0  0  0  0
  -25.9190  -11.7270   20.3810 N   0  0  0  0  0  0  0  0  0  0  0  0
  -23.9300  -10.4940   20.9610 C   0  0  0  0  0  0  0  0  0  0  0  0
  -24.3800   -9.5290   21.8880 C   0  0  0  0  0  3  0  0  0  0  0  0
  -23.6630   -8.3280   22.0760 C   0  0  0  0  0  3  0  0  0  0  0  0
  -22.4800   -8.0840   21.3380 C   0  0  0  0  0  0  0  0  0  0  0  0
  -22.0490   -9.0390   20.4010 C   0  0  0  0  0  3  0  0  0  0  0  0
  -22.7670  -10.2310   20.2100 C   0  0  0  0  0  3  0  0  0  0  0  0
  -21.7330   -6.9360   21.4380 O   0  0  0  0  0  0  0  0  0  0  0  0
  -21.6740   -6.2130   22.6030 C   0  0  0  0  0  0  0  0  0  0  0  0
  -21.1930   -6.7760   23.8040 C   0  0  0  0  0  3  0  0  0  0  0  0
  -21.0840   -5.9790   24.9620 C   0  0  0  0  0  3  0  0  0  0  0  0
  -21.4460   -4.6190   24.9170 C   0  0  0  0  0  0  0  0  0  0  0  0
  -21.9200   -4.0550   23.7180 C   0  0  0  0  0  3  0  0  0  0  0  0
  -22.0310   -4.8500   22.5640 C   0  0  0  0  0  0  0  0  0  0  0  0
  -22.4690   -4.2970   21.4080 F   0  0  0  0  0  0  0  0  0  0  0  0
  -21.3340   -3.8500   26.0240 F   0  0  0  0  0  0  0  0  0  0  0  0
  -22.8100  -13.5830   21.1980 C   0  0  0  0  0  0  0  0  0  0  0  0
  -22.1230  -12.8650   22.0790 N   0  0  0  0  0  0  0  0  0  0  0  0
  -22.3500  -14.6230   20.7280 O   0  0  0  0  0  0  0  0  0  0  0  0
  -22.5080  -12.0220   22.4810 H   0  0  0  0  0  0  0  0  0  0  0  0
  -21.1990  -13.1630   22.3580 H   0  0  0  0  0  0  0  0  0  0  0  0
  -25.3940  -15.2650   20.2710 N   0  0  0  0  0  0  0  0  0  0  0  0
  -24.6260  -15.9120   20.4190 H   0  0  0  0  0  0  0  0  0  0  0  0
  -26.2020  -15.7020   19.8480 H   0  0  0  0  0  0  0  0  0  0  0  0
  -29.0360  -23.9540   20.0320 C   0  0  0  0  0  3  0  0  0  0  0  0
  -29.0240  -22.6650   20.3280 N   0  0  0  0  0  0  0  0  0  0  0  0
  -28.1700  -25.0970   20.6850 C   0  0  0  0  0  2  0  0  0  0  0  0
  -28.3830  -26.5000   20.2390 O   0  0  0  0  0  0  0  0  0  0  0  0
  -24.6070  -31.8820   23.2430 C   0  0  0  0  0  0  0  0  0  0  0  0
  -27.2630  -27.3430   20.2110 C   0  0  0  0  0  0  0  0  0  0  0  0
  -23.4200  -30.4740   21.5980 C   0  0  0  0  0  3  0  0  0  0  0  0
  -24.8870  -28.9310   20.1810 C   0  0  0  0  0  0  0  0  0  0  0  0
  -25.9560  -30.8120   21.4240 C   0  0  0  0  0  2  0  0  0  0  0  0
  -26.0490  -29.4330   20.7820 C   0  0  0  0  0  0  0  0  0  0  0  0
  -27.2420  -28.6510   20.7860 C   0  0  0  0  0  3  0  0  0  0  0  0
  -26.0830  -26.8960   19.5780 C   0  0  0  0  0  3  0  0  0  0  0  0
  -24.9050  -27.6680   19.5690 C   0  0  0  0  0  3  0  0  0  0  0  0
  -23.6430  -29.7970   20.2200 C   0  0  0  0  0  2  0  0  0  0  0  0
  -24.6790  -31.0740   22.1460 N   0  0  0  0  0  0  0  0  0  0  0  0
  -23.5200  -32.1540   23.7730 O   0  0  0  0  0  0  0  0  0  0  0  0
  -22.7590  -29.4550   22.5560 C   0  0  0  0  0  0  0  0  0  0  0  0
  -21.4330  -29.2770   22.4300 N   0  0  0  0  0  0  0  0  0  0  0  0
  -23.4380  -28.8270   23.3730 O   0  0  0  0  0  0  0  0  0  0  0  0
  -20.9440  -29.8360   21.7440 H   0  0  0  0  0  0  0  0  0  0  0  0
  -18.0530  -28.0960   22.9430 C   0  0  0  0  0  0  0  0  0  0  0  0
  -20.6140  -28.3380   23.1980 C   0  0  0  0  0  3  0  0  0  0  0  0
  -20.7030  -26.9110   22.6100 C   0  0  0  0  0  2  0  0  0  0  0  0
  -19.5920  -26.6020   21.6010 C   0  0  0  0  0  2  0  0  0  0  0  0
  -18.2160  -26.7500   22.2560 C   0  0  0  0  0  2  0  0  0  0  0  0
  -19.1780  -28.8480   23.3720 C   0  0  0  0  0  0  0  0  0  0  0  0
  -18.9710  -30.1070   23.9750 C   0  0  0  0  0  3  0  0  0  0  0  0
  -17.6700  -30.6140   24.1540 C   0  0  0  0  0  3  0  0  0  0  0  0
  -16.5580  -29.8590   23.7420 C   0  0  0  0  0  3  0  0  0  0  0  0
  -16.7510  -28.6020   23.1420 C   0  0  0  0  0  3  0  0  0  0  0  0
  -25.8840  -32.5220   23.8710 C   0  0  0  0  0  3  0  0  0  0  0  0
  -26.3900  -31.7630   25.1590 C   0  0  1  0  0  0  0  0  0  0  0  0
  -25.2870  -31.5330   26.2190 C   0  0  0  0  0  1  0  0  0  0  0  0
  -26.9790  -30.3820   24.7850 C   0  0  0  0  0  1  0  0  0  0  0  0
  -27.5330  -32.5640   25.8240 C   0  0  0  0  0  1  0  0  0  0  0  0
  -25.5700  -33.9220   24.1860 N   0  0  0  0  0  0  0  0  0  0  0  0
  -25.9090  -34.9690   23.4220 C   0  0  0  0  0  0  0  0  0  0  0  0
  -26.5880  -34.8580   22.3970 O   0  0  0  0  0  0  0  0  0  0  0  0
  -24.9680  -34.0830   24.9810 H   0  0  0  0  0  0  0  0  0  0  0  0
  -24.1930  -36.7660   23.0250 C   0  0  0  0  0  1  0  0  0  0  0  0
  -25.4160  -36.3610   23.8630 C   0  0  0  0  0  3  0  0  0  0  0  0
  -27.5330  -37.2480   24.7370 C   0  0  0  0  0  1  0  0  0  0  0  0
  -26.4540  -37.4110   23.7660 N   0  0  0  0  0  0  0  0  0  0  0  0
  -26.0470  -38.3330   23.8960 H   0  0  0  0  0  0  0  0  0  0  0  0
  1  9  1  0
  1 50  1  0
  2  1  2  0
  3  2  1  0
  4  2  1  0
  5  7  1  0
  6  8  2  0
  6  9  1  0
  8 10  1  0
  9  5  2  0
 10 19  1  0
 10  7  2  0
 11 19  1  0
 12 17  1  0
 13 14  1  0
 13 12  1  0
 15 14  1  0
 15 24  1  0
 15 16  1  0
 17 11  1  0
 17 16  1  0
 18 11  2  0
 19 20  1  0
 21 22  2  0
 22 41  1  0
 23 22  1  0
 23 26  1  0
 24 25  1  0
 24 21  1  0
 25 23  2  0
 26 27  1  0
 27 28  2  0
 29 32  1  0
 29 28  1  0
 30 29  2  0
 31 30  1  0
 31 26  2  0
 32 33  1  0
 33 34  1  0
 34 35  2  0
 36 35  1  0
 36 40  1  0
 37 36  2  0
 38 33  2  0
 38 37  1  0
 39 38  1  0
 41 42  1  0
 42 45  1  0
 42 44  1  0
 43 41  2  0
 46 47  1  0
 46 21  1  0
 48 46  1  0
 49 50  2  0
 49 51  1  0
 52 51  1  0
 53 64  2  0
 54 52  1  0
 54 59  1  0
 55 63  1  0
 55 65  1  0
 56 62  1  0
 56 58  1  0
 57 63  1  0
 58 59  2  0
 58 57  1  0
 60 54  2  0
 61 60  1  0
 61 56  2  0
 62 55  1  0
 63 53  1  0
 65 67  2  0
 66 65  1  0
 68 66  1  0
 69 78  2  0
 69 74  1  0
 70 66  1  0
 70 74  1  0
 71 70  1  0
 72 73  1  0
 72 71  1  0
 73 69  1  0
 74 75  2  0
 75 76  1  0
 77 76  2  0
 78 77  1  0
 79 53  1  0
 79 84  1  0
 79 80  1  0
 80 83  1  1
 80 81  1  0
 82 80  1  0
 84 87  1  0
 85 89  1  0
 85 84  1  0
 86 85  2  0
 89 88  1  0
 91 89  1  0
 91 92  1  0
 91 90  1  0
M  ISO  4  11 100  19 100  51 101  52 101
M  END
>  <TORSDO>  (9) 
F 19

>  <SCORE>  (9) 
-14.111

>  <name>  (9) 
8

>  <ligand_id>  (9) 
8

>  <original_smiles>  (9) 
[H]C(=NC(c1c([H])c([H])c(N([H])C(=O)N2C([H])([H])C([H])([H])C([H])([H])C([H])(n3nc(-c4c([H])c([H])c(Oc5c([H])c([H])c(F)c([H])c5F)c([H])c4[H])c(C(=O)N([H])[H])c3N([H])[H])C2([H])[H])c([H])c1[H])=[N+]([H])[H])C([H])([H])Oc1c([H])c([H])c2c(c1[H])C([H])([H])N(C(=O)C([H])(N([H])C(=O)C([H])(N([H])C([H])([H])[H])C([H])([H])[H])C(C([H])([H])[H])(C([H])([H])[H])C([H])([H])[H])C([H])(C(=O)N([H])C1([H])c3c([H])c([H])c([H])c([H])c3C([H])([H])C([H])([H])C1([H])[H])C2([H])[H]

>  <smiles>  (9) 
[H]C(=NC(c1c([H])c([H])c(N([H])C(=O)N2C([H])([H])C([H])([H])C([H])([H])C([H])(n3nc(-c4c([H])c([H])c(Oc5c([H])c([H])c(F)c([H])c5F)c([H])c4[H])c(C(=O)N([H])[H])c3N([H])[H])C2([H])[H])c([H])c1[H])=[N+]([H])[H])C([H])([H])Oc1c([H])c([H])c2c(c1[H])C([H])([H])N(C(=O)C([H])(N([H])C(=O)C([H])(N([H])C([H])([H])[H])C([H])([H])[H])C(C([H])([H])[H])(C([H])([H])[H])C([H])([H])[H])C([H])(C(=O)N([H])C1([H])c3c([H])c([H])c([H])c([H])c3C([H])([H])C([H])([H])C1([H])[H])C2([H])[H]

$$$$
9:0:0
     RDKit          3D

 92101  0  0  1  0  0  0  0  0999 V2000
  -29.1590  -22.6740   21.0620 C   0  0  0  0  0  3  0  0  0  0  0  0
  -28.6550  -23.7340   20.3680 C   0  0  0  0  0  0  0  0  0  0  0  0
  -28.4280  -23.2580   18.9500 C   0  0  0  0  0  3  0  0  0  0  0  0
  -28.8550  -21.7450   18.9740 C   0  0  0  0  0  3  0  0  0  0  0  0
  -29.3050  -21.4610   20.3410 N   0  0  0  0  0  0  0  0  0  0  0  0
  -31.3110  -18.9190   22.2850 C   0  0  0  0  0  3  0  0  0  0  0  0
  -31.0370  -17.6860   21.6590 C   0  0  0  0  0  3  0  0  0  0  0  0
  -30.7280  -20.1270   21.8420 C   0  0  0  0  0  3  0  0  0  0  0  0
  -29.6090  -18.8860   20.0990 C   0  0  0  0  0  3  0  0  0  0  0  0
  -30.1680  -17.6080   20.5500 C   0  0  0  0  0  0  0  0  0  0  0  0
  -29.8560  -20.1710   20.7320 C   0  0  0  0  0  0  0  0  0  0  0  0
  -29.7750  -16.2290   19.9380 C   0  0  0  0  0  0  0  0  0  0  0  0
  -28.7600  -16.2530   19.1830 N   0  0  0  0  0  0  0  0  0  0  0  0
  -28.6170  -15.3440   18.7620 H   0  0  0  0  0  0  0  0  0  0  0  0
  -30.6240  -14.8570   20.1000 C   0  0  0  0  0  0  0  0  0  0  0  0
  -30.3810  -12.5520   19.1480 C   0  0  0  0  0  2  0  0  0  0  0  0
  -29.4030  -12.5600   17.9520 C   0  0  0  0  0  2  0  0  0  0  0  0
  -27.9530  -12.3490   18.4320 C   0  0  0  0  0  2  0  0  0  0  0  0
  -27.5840  -13.2730   19.6170 C   0  0  0  0  0  3  0  0  0  0  0  0
  -28.6830  -13.3000   20.7020 C   0  0  0  0  0  2  0  0  0  0  0  0
  -29.9630  -13.6400   20.0620 N   0  0  0  0  0  0  0  0  0  0  0  0
  -31.8400  -14.8950   19.8960 O   0  0  0  0  0  0  0  0  0  0  0  0
  -25.2460  -13.9040   20.4450 C   0  0  0  0  0  0  0  0  0  0  0  0
  -24.1820  -13.1410   20.8380 C   0  0  0  0  0  0  0  0  0  0  0  0
  -24.6300  -11.7860   20.7860 C   0  0  0  0  0  0  0  0  0  0  0  0
  -26.2660  -13.0070   20.1660 N   0  0  0  0  0  0  0  0  0  0  0  0
  -25.9090  -11.7300   20.4400 N   0  0  0  0  0  0  0  0  0  0  0  0
  -23.9010  -10.5290   20.9850 C   0  0  0  0  0  0  0  0  0  0  0  0
  -24.3430   -9.5620   21.9150 C   0  0  0  0  0  3  0  0  0  0  0  0
  -23.6170   -8.3680   22.1000 C   0  0  0  0  0  3  0  0  0  0  0  0
  -22.4350   -8.1340   21.3580 C   0  0  0  0  0  0  0  0  0  0  0  0
  -22.0130   -9.0890   20.4160 C   0  0  0  0  0  3  0  0  0  0  0  0
  -22.7410  -10.2760   20.2280 C   0  0  0  0  0  3  0  0  0  0  0  0
  -21.6790   -6.9930   21.4550 O   0  0  0  0  0  0  0  0  0  0  0  0
  -21.6270   -6.2610   22.6140 C   0  0  0  0  0  0  0  0  0  0  0  0
  -21.1870   -6.8230   23.8320 C   0  0  0  0  0  3  0  0  0  0  0  0
  -21.0830   -6.0170   24.9830 C   0  0  0  0  0  3  0  0  0  0  0  0
  -21.4130   -4.6490   24.9170 C   0  0  0  0  0  0  0  0  0  0  0  0
  -21.8460   -4.0880   23.7040 C   0  0  0  0  0  3  0  0  0  0  0  0
  -21.9510   -4.8910   22.5550 C   0  0  0  0  0  0  0  0  0  0  0  0
  -22.3500   -4.3400   21.3830 F   0  0  0  0  0  0  0  0  0  0  0  0
  -21.3060   -3.8730   26.0200 F   0  0  0  0  0  0  0  0  0  0  0  0
  -22.7970  -13.6290   21.1470 C   0  0  0  0  0  0  0  0  0  0  0  0
  -22.0820  -12.9310   22.0220 N   0  0  0  0  0  0  0  0  0  0  0  0
  -22.3570  -14.6660   20.6490 O   0  0  0  0  0  0  0  0  0  0  0  0
  -22.4520  -12.0940   22.4470 H   0  0  0  0  0  0  0  0  0  0  0  0
  -21.1530  -13.2390   22.2710 H   0  0  0  0  0  0  0  0  0  0  0  0
  -25.4230  -15.2740   20.2730 N   0  0  0  0  0  0  0  0  0  0  0  0
  -24.6700  -15.9360   20.4270 H   0  0  0  0  0  0  0  0  0  0  0  0
  -26.2780  -15.7140   19.9500 H   0  0  0  0  0  0  0  0  0  0  0  0
  -28.1130  -25.1250   20.9310 C   0  0  0  0  0  2  0  0  0  0  0  0
  -28.3400  -26.4430   20.2570 O   0  0  0  0  0  0  0  0  0  0  0  0
  -24.5790  -31.9010   23.2390 C   0  0  0  0  0  0  0  0  0  0  0  0
  -27.2420  -27.3270   20.2280 C   0  0  0  0  0  0  0  0  0  0  0  0
  -23.3940  -30.4840   21.6010 C   0  0  0  0  0  3  0  0  0  0  0  0
  -24.8660  -28.9340   20.1900 C   0  0  0  0  0  0  0  0  0  0  0  0
  -25.9330  -30.8200   21.4250 C   0  0  0  0  0  2  0  0  0  0  0  0
  -26.0310  -29.4340   20.7880 C   0  0  0  0  0  0  0  0  0  0  0  0
  -27.2250  -28.6460   20.7900 C   0  0  0  0  0  3  0  0  0  0  0  0
  -26.0560  -26.8870   19.6020 C   0  0  0  0  0  3  0  0  0  0  0  0
  -24.8820  -27.6670   19.5860 C   0  0  0  0  0  3  0  0  0  0  0  0
  -23.6210  -29.7990   20.2270 C   0  0  0  0  0  2  0  0  0  0  0  0
  -24.6550  -31.0870   22.1450 N   0  0  0  0  0  0  0  0  0  0  0  0
  -23.4920  -32.1730   23.7690 O   0  0  0  0  0  0  0  0  0  0  0  0
  -22.7330  -29.4710   22.5660 C   0  0  0  0  0  0  0  0  0  0  0  0
  -21.4080  -29.2860   22.4380 N   0  0  0  0  0  0  0  0  0  0  0  0
  -23.4120  -28.8510   23.3890 O   0  0  0  0  0  0  0  0  0  0  0  0
  -20.9180  -29.8390   21.7470 H   0  0  0  0  0  0  0  0  0  0  0  0
  -18.0340  -28.0800   22.9460 C   0  0  0  0  0  0  0  0  0  0  0  0
  -20.5920  -28.3460   23.2110 C   0  0  0  0  0  3  0  0  0  0  0  0
  -20.6960  -26.9150   22.6350 C   0  0  0  0  0  2  0  0  0  0  0  0
  -19.5920  -26.5900   21.6230 C   0  0  0  0  0  2  0  0  0  0  0  0
  -18.2110  -26.7320   22.2700 C   0  0  0  0  0  2  0  0  0  0  0  0
  -19.1510  -28.8450   23.3740 C   0  0  0  0  0  0  0  0  0  0  0  0
  -18.9300  -30.1070   23.9680 C   0  0  0  0  0  3  0  0  0  0  0  0
  -17.6240  -30.6050   24.1360 C   0  0  0  0  0  3  0  0  0  0  0  0
  -16.5210  -29.8370   23.7250 C   0  0  0  0  0  3  0  0  0  0  0  0
  -16.7260  -28.5770   23.1380 C   0  0  0  0  0  3  0  0  0  0  0  0
  -25.8540  -32.5490   23.8650 C   0  0  0  0  0  3  0  0  0  0  0  0
  -26.3670  -31.7920   25.1520 C   0  0  1  0  0  0  0  0  0  0  0  0
  -25.2660  -31.5570   26.2130 C   0  0  0  0  0  1  0  0  0  0  0  0
  -26.9620  -30.4160   24.7760 C   0  0  0  0  0  1  0  0  0  0  0  0
  -27.5080  -32.6010   25.8140 C   0  0  0  0  0  1  0  0  0  0  0  0
  -25.5320  -33.9470   24.1840 N   0  0  0  0  0  0  0  0  0  0  0  0
  -25.8640  -34.9980   23.4230 C   0  0  0  0  0  0  0  0  0  0  0  0
  -26.5430  -34.8930   22.3970 O   0  0  0  0  0  0  0  0  0  0  0  0
  -24.9340  -34.1040   24.9810 H   0  0  0  0  0  0  0  0  0  0  0  0
  -24.1330  -36.7820   23.0430 C   0  0  0  0  0  1  0  0  0  0  0  0
  -25.3670  -36.3870   23.8700 C   0  0  0  0  0  3  0  0  0  0  0  0
  -27.4870  -37.2830   24.7240 C   0  0  0  0  0  1  0  0  0  0  0  0
  -26.3960  -37.4430   23.7660 N   0  0  0  0  0  0  0  0  0  0  0  0
  -25.9850  -38.3620   23.9050 H   0  0  0  0  0  0  0  0  0  0  0  0
  2 51  1  0
  2  1  2  0
  3  4  2  0
  3  2  1  0
  4  5  1  0
  5 11  1  0
  5  1  1  0
  7  6  2  0
  8  6  1  0
  9 10  2  0
  9 11  1  0
 10  7  1  0
 11  8  2  0
 12 15  1  0
 12 10  1  0
 13 12  2  0
 14 13  1  0
 16 21  1  0
 17 18  1  0
 17 16  1  0
 19 18  1  0
 19 26  1  0
 19 20  1  0
 21 15  1  0
 21 20  1  0
 22 15  2  0
 23 24  2  0
 24 43  1  0
 25 24  1  0
 25 28  1  0
 26 27  1  0
 26 23  1  0
 27 25  2  0
 28 29  1  0
 29 30  2  0
 31 34  1  0
 31 30  1  0
 32 31  2  0
 33 32  1  0
 33 28  2  0
 34 35  1  0
 35 36  1  0
 36 37  2  0
 38 37  1  0
 38 42  1  0
 39 38  2  0
 40 35  2  0
 40 39  1  0
 41 40  1  0
 43 44  1  0
 44 47  1  0
 44 46  1  0
 45 43  2  0
 48 49  1  0
 48 23  1  0
 50 48  1  0
 52 51  1  0
 53 64  2  0
 54 52  1  0
 54 59  1  0
 55 63  1  0
 55 65  1  0
 56 62  1  0
 56 58  1  0
 57 63  1  0
 58 59  2  0
 58 57  1  0
 60 54  2  0
 61 60  1  0
 61 56  2  0
 62 55  1  0
 63 53  1  0
 65 67  2  0
 66 65  1  0
 68 66  1  0
 69 78  2  0
 69 74  1  0
 70 66  1  0
 70 74  1  0
 71 70  1  0
 72 73  1  0
 72 71  1  0
 73 69  1  0
 74 75  2  0
 75 76  1  0
 77 76  2  0
 78 77  1  0
 79 53  1  0
 79 84  1  0
 79 80  1  0
 80 83  1  1
 80 81  1  0
 82 80  1  0
 84 87  1  0
 85 89  1  0
 85 84  1  0
 86 85  2  0
 89 88  1  0
 91 89  1  0
 91 92  1  0
 91 90  1  0
M  ISO  4  12 100  15 100  51 101  52 101
M  END
>  <TORSDO>  (10) 
F 19

>  <SCORE>  (10) 
-14.662

>  <name>  (10) 
9

>  <ligand_id>  (10) 
9

>  <original_smiles>  (10) 
[H]N=C(C(=O)N1C([H])([H])C([H])([H])C([H])([H])C([H])(n2nc(-c3c([H])c([H])c(Oc4c([H])c([H])c(F)c([H])c4F)c([H])c3[H])c(C(=O)N([H])[H])c2N([H])[H])C1([H])[H])c1c([H])c([H])c([H])c(N2C([H])=C(C([H])([H])Oc3c([H])c([H])c4c(c3[H])C([H])([H])N(C(=O)C([H])(N([H])C(=O)C([H])(N([H])C([H])([H])[H])C([H])([H])[H])C(C([H])([H])[H])(C([H])([H])[H])C([H])([H])[H])C([H])(C(=O)N([H])C3([H])c5c([H])c([H])c([H])c([H])c5C([H])([H])C([H])([H])C3([H])[H])C4([H])[H])C([H])([H])C2([H])[H])c1[H]

>  <smiles>  (10) 
[H]N=C(C(=O)N1C([H])([H])C([H])([H])C([H])([H])C([H])(n2nc(-c3c([H])c([H])c(Oc4c([H])c([H])c(F)c([H])c4F)c([H])c3[H])c(C(=O)N([H])[H])c2N([H])[H])C1([H])[H])c1c([H])c([H])c([H])c(N2C([H])=C(C([H])([H])Oc3c([H])c([H])c4c(c3[H])C([H])([H])N(C(=O)C([H])(N([H])C(=O)C([H])(N([H])C([H])([H])[H])C([H])([H])[H])C(C([H])([H])[H])(C([H])([H])[H])C([H])([H])[H])C([H])(C(=O)N([H])C3([H])c5c([H])c([H])c([H])c([H])c5C([H])([H])C([H])([H])C3([H])[H])C4([H])[H])C([H])([H])C2([H])[H])c1[H]

$$$$
10:0:0
     RDKit          3D

 96105  0  0  1  0  0  0  0  0999 V2000
  -30.2670  -18.5250   21.4880 C   0  0  0  0  0  3  0  0  0  0  0  0
  -29.9940  -19.8590   21.8340 C   0  0  0  0  0  3  0  0  0  0  0  0
  -28.6430  -20.1000   19.8450 C   0  0  0  0  0  3  0  0  0  0  0  0
  -29.8360  -17.9960   20.2520 C   0  0  0  0  0  0  0  0  0  0  0  0
  -29.2800  -20.7050   20.9550 C   0  0  0  0  0  0  0  0  0  0  0  0
  -28.9260  -18.7700   19.4820 C   0  0  0  0  0  0  0  0  0  0  0  0
  -28.3630  -18.2960   18.3460 F   0  0  0  0  0  0  0  0  0  0  0  0
  -29.7280  -24.9350   21.0750 C   0  0  0  0  0  3  0  0  0  0  0  0
  -28.6130  -24.4350   20.5210 C   0  0  0  0  0  0  0  0  0  0  0  0
  -30.8860  -24.0710   21.5260 C   0  0  0  0  0  2  0  0  0  0  0  0
  -28.4210  -22.9320   20.3310 C   0  0  0  0  0  2  0  0  0  0  0  0
  -30.7190  -22.5800   21.1770 C   0  0  0  0  0  2  0  0  0  0  0  0
  -29.3250  -22.1090   21.1500 N   0  0  0  0  0  0  0  0  0  0  0  0
  -27.4320  -25.3180   20.1710 C   0  0  0  0  0  2  0  0  0  0  0  0
  -27.7520  -26.4640   19.3550 O   0  0  0  0  0  0  0  0  0  0  0  0
  -24.4640  -31.5660   23.0000 C   0  0  0  0  0  0  0  0  0  0  0  0
  -26.6890  -27.3340   19.3760 C   0  0  0  0  0  0  0  0  0  0  0  0
  -23.0910  -30.3460   21.3490 C   0  0  0  0  0  3  0  0  0  0  0  0
  -24.3780  -28.9130   19.6820 C   0  0  0  0  0  0  0  0  0  0  0  0
  -25.6060  -30.6500   20.9890 C   0  0  0  0  0  2  0  0  0  0  0  0
  -25.5950  -29.3430   20.2240 C   0  0  0  0  0  0  0  0  0  0  0  0
  -26.7620  -28.5610   20.0700 C   0  0  0  0  0  3  0  0  0  0  0  0
  -25.4660  -26.9360   18.7990 C   0  0  0  0  0  3  0  0  0  0  0  0
  -24.3060  -27.7080   18.9650 C   0  0  0  0  0  3  0  0  0  0  0  0
  -23.1710  -29.7930   19.9020 C   0  0  0  0  0  2  0  0  0  0  0  0
  -24.4090  -30.8610   21.8370 N   0  0  0  0  0  0  0  0  0  0  0  0
  -23.4360  -31.8210   23.6450 O   0  0  0  0  0  0  0  0  0  0  0  0
  -22.4810  -29.2580   22.2640 C   0  0  0  0  0  0  0  0  0  0  0  0
  -21.1470  -29.1120   22.2160 N   0  0  0  0  0  0  0  0  0  0  0  0
  -23.2020  -28.5570   22.9780 O   0  0  0  0  0  0  0  0  0  0  0  0
  -20.6270  -29.7320   21.6110 H   0  0  0  0  0  0  0  0  0  0  0  0
  -17.7900  -27.9050   22.7880 C   0  0  0  0  0  0  0  0  0  0  0  0
  -20.3580  -28.1340   22.9650 C   0  0  0  0  0  3  0  0  0  0  0  0
  -20.4270  -26.7370   22.3030 C   0  0  0  0  0  2  0  0  0  0  0  0
  -19.2800  -26.4810   21.3220 C   0  0  0  0  0  2  0  0  0  0  0  0
  -17.9280  -26.5960   22.0310 C   0  0  0  0  0  2  0  0  0  0  0  0
  -18.9310  -28.6350   23.2130 C   0  0  0  0  0  0  0  0  0  0  0  0
  -18.7470  -29.8660   23.8830 C   0  0  0  0  0  3  0  0  0  0  0  0
  -17.4540  -30.3620   24.1310 C   0  0  0  0  0  3  0  0  0  0  0  0
  -16.3280  -29.6280   23.7230 C   0  0  0  0  0  3  0  0  0  0  0  0
  -16.4980  -28.4000   23.0570 C   0  0  0  0  0  3  0  0  0  0  0  0
  -25.8140  -32.1060   23.5660 C   0  0  0  0  0  3  0  0  0  0  0  0
  -26.3990  -31.2210   24.7340 C   0  0  1  0  0  0  0  0  0  0  0  0
  -25.3880  -30.9430   25.8690 C   0  0  0  0  0  1  0  0  0  0  0  0
  -26.8930  -29.8570   24.1980 C   0  0  0  0  0  1  0  0  0  0  0  0
  -27.6320  -31.9230   25.3520 C   0  0  0  0  0  1  0  0  0  0  0  0
  -25.5780  -33.4830   24.0220 N   0  0  0  0  0  0  0  0  0  0  0  0
  -25.9280  -34.5790   23.3360 C   0  0  0  0  0  0  0  0  0  0  0  0
  -26.5570  -34.5360   22.2760 O   0  0  0  0  0  0  0  0  0  0  0  0
  -25.0130  -33.5920   24.8520 H   0  0  0  0  0  0  0  0  0  0  0  0
  -24.2790  -36.4730   23.1910 C   0  0  0  0  0  1  0  0  0  0  0  0
  -25.5200  -35.9430   23.9270 C   0  0  0  0  0  3  0  0  0  0  0  0
  -27.7080  -36.6610   24.7800 C   0  0  0  0  0  1  0  0  0  0  0  0
  -26.6000  -36.9520   23.8750 N   0  0  0  0  0  0  0  0  0  0  0  0
  -26.2400  -37.8750   24.1040 H   0  0  0  0  0  0  0  0  0  0  0  0
  -32.0580  -17.1490   19.6640 C   0  0  0  0  0  1  0  0  0  0  0  0
  -30.1680  -16.3170   18.2920 C   0  0  0  0  0  1  0  0  0  0  0  0
  -30.5530  -16.7350   19.7320 C   0  0  2  0  0  0  0  0  0  0  0  0
  -30.9430  -14.4100   20.6200 C   0  0  0  0  0  0  0  0  0  0  0  0
  -30.5570  -12.2130   19.6360 C   0  0  0  0  0  2  0  0  0  0  0  0
  -29.6960  -12.4060   18.3730 C   0  0  0  0  0  2  0  0  0  0  0  0
  -28.2030  -12.3240   18.7370 C   0  0  0  0  0  2  0  0  0  0  0  0
  -27.8230  -13.2300   19.9400 C   0  0  0  0  0  3  0  0  0  0  0  0
  -28.8310  -13.0960   21.1100 C   0  0  0  0  0  2  0  0  0  0  0  0
  -30.1890  -13.2800   20.5780 N   0  0  0  0  0  0  0  0  0  0  0  0
  -32.1410  -14.4010   20.3560 O   0  0  0  0  0  0  0  0  0  0  0  0
  -30.2580  -15.5650   20.6010 N   0  0  0  0  0  0  0  0  0  0  0  0
  -29.3020  -15.4960   20.9090 H   0  0  0  0  0  0  0  0  0  0  0  0
  -25.4070  -13.8830   20.5400 C   0  0  0  0  0  0  0  0  0  0  0  0
  -24.3100  -13.1350   20.8720 C   0  0  0  0  0  0  0  0  0  0  0  0
  -24.7480  -11.7750   20.8810 C   0  0  0  0  0  0  0  0  0  0  0  0
  -26.4470  -12.9830   20.3690 N   0  0  0  0  0  0  0  0  0  0  0  0
  -26.0510  -11.7100   20.6320 N   0  0  0  0  0  0  0  0  0  0  0  0
  -23.9910  -10.5280   21.0540 C   0  0  0  0  0  0  0  0  0  0  0  0
  -24.3710   -9.5600   22.0070 C   0  0  0  0  0  3  0  0  0  0  0  0
  -23.6130   -8.3790   22.1700 C   0  0  0  0  0  3  0  0  0  0  0  0
  -22.4600   -8.1590   21.3790 C   0  0  0  0  0  0  0  0  0  0  0  0
  -22.0990   -9.1190   20.4180 C   0  0  0  0  0  3  0  0  0  0  0  0
  -22.8570  -10.2910   20.2530 C   0  0  0  0  0  3  0  0  0  0  0  0
  -21.6770   -7.0330   21.4520 O   0  0  0  0  0  0  0  0  0  0  0  0
  -21.5910   -6.2890   22.6030 C   0  0  0  0  0  0  0  0  0  0  0  0
  -21.1160   -6.8400   23.8130 C   0  0  0  0  0  3  0  0  0  0  0  0
  -20.9760   -6.0210   24.9500 C   0  0  0  0  0  3  0  0  0  0  0  0
  -21.3040   -4.6520   24.8800 C   0  0  0  0  0  0  0  0  0  0  0  0
  -21.7740   -4.1020   23.6740 C   0  0  0  0  0  3  0  0  0  0  0  0
  -21.9150   -4.9190   22.5390 C   0  0  0  0  0  0  0  0  0  0  0  0
  -22.3460   -4.3800   21.3730 F   0  0  0  0  0  0  0  0  0  0  0  0
  -21.1650   -3.8640   25.9710 F   0  0  0  0  0  0  0  0  0  0  0  0
  -22.9100  -13.6420   21.0680 C   0  0  0  0  0  0  0  0  0  0  0  0
  -22.1300  -12.9780   21.9130 N   0  0  0  0  0  0  0  0  0  0  0  0
  -22.5170  -14.6650   20.5080 O   0  0  0  0  0  0  0  0  0  0  0  0
  -22.4590  -12.1560   22.3960 H   0  0  0  0  0  0  0  0  0  0  0  0
  -21.1880  -13.3020   22.0830 H   0  0  0  0  0  0  0  0  0  0  0  0
  -25.5970  -15.2470   20.3470 N   0  0  0  0  0  0  0  0  0  0  0  0
  -24.8200  -15.8960   20.4050 H   0  0  0  0  0  0  0  0  0  0  0  0
  -26.4520  -15.6810   20.0240 H   0  0  0  0  0  0  0  0  0  0  0  0
  1  2  1  0
  3  5  1  0
  4  1  2  0
  5 13  1  0
  5  2  2  0
  6  3  2  0
  6  4  1  0
  7  6  1  0
  8 10  1  0
  9  8  2  0
 11  9  1  0
 11 13  1  0
 12 10  1  0
 13 12  1  0
 14  9  1  0
 15 17  1  0
 15 14  1  0
 16 27  2  0
 17 22  1  0
 18 26  1  0
 18 28  1  0
 19 25  1  0
 19 21  1  0
 20 26  1  0
 21 20  1  0
 22 21  2  0
 23 24  1  0
 23 17  2  0
 24 19  2  0
 25 18  1  0
 26 16  1  0
 28 30  2  0
 29 28  1  0
 31 29  1  0
 32 41  2  0
 32 37  1  0
 33 29  1  0
 33 37  1  0
 34 33  1  0
 35 36  1  0
 35 34  1  0
 36 32  1  0
 37 38  2  0
 38 39  1  0
 40 39  2  0
 41 40  1  0
 42 16  1  0
 42 47  1  0
 42 43  1  0
 43 46  1  1
 43 44  1  0
 45 43  1  0
 47 50  1  0
 48 52  1  0
 48 47  1  0
 49 48  2  0
 52 51  1  0
 54 52  1  0
 54 55  1  0
 54 53  1  0
 58 56  1  6
 57 58  1  0
 58  4  1  0
 58 67  1  0
 60 65  1  0
 61 62  1  0
 61 60  1  0
 63 62  1  0
 63 72  1  0
 63 64  1  0
 65 59  1  0
 65 64  1  0
 66 59  2  0
 67 59  1  0
 67 68  1  0
 69 70  2  0
 70 71  1  0
 70 89  1  0
 71 74  1  0
 72 69  1  0
 72 73  1  0
 73 71  2  0
 74 75  1  0
 75 76  2  0
 77 80  1  0
 77 76  1  0
 78 77  2  0
 79 78  1  0
 79 74  2  0
 80 81  1  0
 81 82  1  0
 82 83  2  0
 84 83  1  0
 84 88  1  0
 85 84  2  0
 86 81  2  0
 86 85  1  0
 87 86  1  0
 89 90  1  0
 90 93  1  0
 90 92  1  0
 91 89  2  0
 94 95  1  0
 94 69  1  0
 96 94  1  0
M  ISO  4  14 101  15 101  59 100  67 100
M  END
>  <TORSDO>  (11) 
F 19

>  <SCORE>  (11) 
-13.080

>  <name>  (11) 
10

>  <ligand_id>  (11) 
10

>  <original_smiles>  (11) 
[H]C1=C(C([H])([H])Oc2c([H])c([H])c3c(c2[H])C([H])([H])N(C(=O)C([H])(N([H])C(=O)C([H])(N([H])C([H])([H])[H])C([H])([H])[H])C(C([H])([H])[H])(C([H])([H])[H])C([H])([H])[H])C([H])(C(=O)N([H])C2([H])c4c([H])c([H])c([H])c([H])c4C([H])([H])C([H])([H])C2([H])[H])C3([H])[H])C([H])([H])N(c2c([H])c([H])c(C(N([H])C(=O)N3C([H])([H])C([H])([H])C([H])([H])C([H])(n4nc(-c5c([H])c([H])c(Oc6c([H])c([H])c(F)c([H])c6F)c([H])c5[H])c(C(=O)N([H])[H])c4N([H])[H])C3([H])[H])(C([H])([H])[H])C([H])([H])[H])c(F)c2[H])C([H])([H])C1([H])[H]

>  <smiles>  (11) 
[H]C1=C(C([H])([H])Oc2c([H])c([H])c3c(c2[H])C([H])([H])N(C(=O)C([H])(N([H])C(=O)C([H])(N([H])C([H])([H])[H])C([H])([H])[H])C(C([H])([H])[H])(C([H])([H])[H])C([H])([H])[H])C([H])(C(=O)N([H])C2([H])c4c([H])c([H])c([H])c([H])c4C([H])([H])C([H])([H])C2([H])[H])C3([H])[H])C([H])([H])N(c2c([H])c([H])c(C(N([H])C(=O)N3C([H])([H])C([H])([H])C([H])([H])C([H])(n4nc(-c5c([H])c([H])c(Oc6c([H])c([H])c(F)c([H])c6F)c([H])c5[H])c(C(=O)N([H])[H])c4N([H])[H])C3([H])[H])(C([H])([H])[H])C([H])([H])[H])c(F)c2[H])C([H])([H])C1([H])[H]

$$$$
11:0:0
     RDKit          3D

 95103  0  0  1  0  0  0  0  0999 V2000
  -28.7840  -22.4920   20.0690 C   0  0  0  0  0  0  0  0  0  0  0  0
  -29.7470  -21.5570   20.3440 N   0  0  0  0  0  0  0  0  0  0  0  0
  -27.6640  -22.1610   19.6780 O   0  0  0  0  0  0  0  0  0  0  0  0
  -30.6410  -21.9390   20.6310 H   0  0  0  0  0  0  0  0  0  0  0  0
  -28.6420  -19.2830   19.8790 C   0  0  0  0  0  3  0  0  0  0  0  0
  -30.9560  -17.9540   20.7730 C   0  0  0  0  0  3  0  0  0  0  0  0
  -29.7310  -20.0890   20.3080 C   0  0  0  0  0  0  0  0  0  0  0  0
  -29.8390  -17.1610   20.3960 C   0  0  0  0  0  0  0  0  0  0  0  0
  -30.8920  -19.3830   20.7360 C   0  0  0  0  0  0  0  0  0  0  0  0
  -28.6970  -17.8640   19.9320 C   0  0  0  0  0  0  0  0  0  0  0  0
  -31.9730  -20.1000   21.1290 F   0  0  0  0  0  0  0  0  0  0  0  0
  -27.6200  -17.1490   19.5290 F   0  0  0  0  0  0  0  0  0  0  0  0
  -30.5680  -14.6610   20.4110 C   0  0  0  0  0  0  0  0  0  0  0  0
  -30.3620  -12.4120   19.3890 C   0  0  0  0  0  2  0  0  0  0  0  0
  -29.4220  -12.5370   18.1670 C   0  0  0  0  0  2  0  0  0  0  0  0
  -27.9480  -12.3720   18.5930 C   0  0  0  0  0  2  0  0  0  0  0  0
  -27.5780  -13.2590   19.8130 C   0  0  0  0  0  3  0  0  0  0  0  0
  -28.6330  -13.1200   20.9360 C   0  0  0  0  0  2  0  0  0  0  0  0
  -29.9510  -13.4400   20.3570 N   0  0  0  0  0  0  0  0  0  0  0  0
  -31.7610  -14.8040   20.1340 O   0  0  0  0  0  0  0  0  0  0  0  0
  -29.7110  -15.7140   20.5180 N   0  0  0  0  0  0  0  0  0  0  0  0
  -28.7500  -15.4140   20.5400 H   0  0  0  0  0  0  0  0  0  0  0  0
  -25.1780  -13.8740   20.5020 C   0  0  0  0  0  0  0  0  0  0  0  0
  -24.1050  -13.1080   20.8660 C   0  0  0  0  0  0  0  0  0  0  0  0
  -24.5630  -11.7530   20.8480 C   0  0  0  0  0  0  0  0  0  0  0  0
  -26.2230  -12.9880   20.2870 N   0  0  0  0  0  0  0  0  0  0  0  0
  -25.8560  -11.7090   20.5560 N   0  0  0  0  0  0  0  0  0  0  0  0
  -23.8310  -10.4960   21.0350 C   0  0  0  0  0  0  0  0  0  0  0  0
  -24.2470   -9.5280   21.9760 C   0  0  0  0  0  3  0  0  0  0  0  0
  -23.5150   -8.3330   22.1460 C   0  0  0  0  0  3  0  0  0  0  0  0
  -22.3520   -8.0970   21.3750 C   0  0  0  0  0  0  0  0  0  0  0  0
  -21.9560   -9.0520   20.4210 C   0  0  0  0  0  3  0  0  0  0  0  0
  -22.6890  -10.2380   20.2490 C   0  0  0  0  0  3  0  0  0  0  0  0
  -21.5900   -6.9560   21.4560 O   0  0  0  0  0  0  0  0  0  0  0  0
  -21.5210   -6.2180   22.6110 C   0  0  0  0  0  0  0  0  0  0  0  0
  -21.0710   -6.7750   23.8280 C   0  0  0  0  0  3  0  0  0  0  0  0
  -20.9520   -5.9620   24.9720 C   0  0  0  0  0  3  0  0  0  0  0  0
  -21.2750   -4.5940   24.9010 C   0  0  0  0  0  0  0  0  0  0  0  0
  -21.7160   -4.0360   23.6890 C   0  0  0  0  0  3  0  0  0  0  0  0
  -21.8400   -4.8470   22.5460 C   0  0  0  0  0  0  0  0  0  0  0  0
  -22.2470   -4.3010   21.3750 F   0  0  0  0  0  0  0  0  0  0  0  0
  -21.1520   -3.8090   25.9970 F   0  0  0  0  0  0  0  0  0  0  0  0
  -22.7050  -13.5900   21.1160 C   0  0  0  0  0  0  0  0  0  0  0  0
  -21.9600  -12.8960   21.9700 N   0  0  0  0  0  0  0  0  0  0  0  0
  -22.2780  -14.6200   20.5930 O   0  0  0  0  0  0  0  0  0  0  0  0
  -22.3140  -12.0630   22.4160 H   0  0  0  0  0  0  0  0  0  0  0  0
  -21.0210  -13.2010   22.1810 H   0  0  0  0  0  0  0  0  0  0  0  0
  -25.3410  -15.2430   20.3100 N   0  0  0  0  0  0  0  0  0  0  0  0
  -24.5490  -15.8720   20.3600 H   0  0  0  0  0  0  0  0  0  0  0  0
  -26.1650  -15.6910   19.9270 H   0  0  0  0  0  0  0  0  0  0  0  0
  -29.1360  -24.0420   20.1400 C   0  0  0  0  0  2  0  0  0  0  0  0
  -26.7540  -24.6130   21.0860 C   0  0  0  0  0  1  0  0  0  0  0  0
  -28.7450  -25.4310   22.2760 C   0  0  0  0  0  1  0  0  0  0  0  0
  -28.2000  -25.1390   20.8610 C   0  0  1  0  0  0  0  0  0  0  0  0
  -28.2950  -26.4730   20.1880 O   0  0  0  0  0  0  0  0  0  0  0  0
  -24.5810  -31.8680   23.2300 C   0  0  0  0  0  0  0  0  0  0  0  0
  -27.1960  -27.3410   20.1600 C   0  0  0  0  0  0  0  0  0  0  0  0
  -23.3820  -30.4710   21.5860 C   0  0  0  0  0  3  0  0  0  0  0  0
  -24.8370  -28.9430   20.1480 C   0  0  0  0  0  0  0  0  0  0  0  0
  -25.9250  -30.8000   21.4140 C   0  0  0  0  0  2  0  0  0  0  0  0
  -26.0020  -29.4250   20.7620 C   0  0  0  0  0  0  0  0  0  0  0  0
  -27.1870  -28.6340   20.7630 C   0  0  0  0  0  3  0  0  0  0  0  0
  -26.0350  -26.9460   19.4610 C   0  0  0  0  0  3  0  0  0  0  0  0
  -24.8550  -27.7090   19.4870 C   0  0  0  0  0  3  0  0  0  0  0  0
  -23.5960  -29.8100   20.2020 C   0  0  0  0  0  2  0  0  0  0  0  0
  -24.6470  -31.0670   22.1280 N   0  0  0  0  0  0  0  0  0  0  0  0
  -23.4940  -32.1420   23.7570 O   0  0  0  0  0  0  0  0  0  0  0  0
  -22.7210  -29.4520   22.5410 C   0  0  0  0  0  0  0  0  0  0  0  0
  -21.3940  -29.2810   22.4210 N   0  0  0  0  0  0  0  0  0  0  0  0
  -23.4020  -28.8130   23.3480 O   0  0  0  0  0  0  0  0  0  0  0  0
  -20.8980  -29.8640   21.7600 H   0  0  0  0  0  0  0  0  0  0  0  0
  -18.0210  -28.0900   22.9250 C   0  0  0  0  0  0  0  0  0  0  0  0
  -20.5800  -28.3340   23.1820 C   0  0  0  0  0  3  0  0  0  0  0  0
  -20.6760  -26.9050   22.5900 C   0  0  0  0  0  2  0  0  0  0  0  0
  -19.5600  -26.5970   21.5860 C   0  0  0  0  0  2  0  0  0  0  0  0
  -18.1870  -26.7480   22.2390 C   0  0  0  0  0  2  0  0  0  0  0  0
  -19.1450  -28.8430   23.3580 C   0  0  0  0  0  0  0  0  0  0  0  0
  -18.9400  -30.1010   23.9610 C   0  0  0  0  0  3  0  0  0  0  0  0
  -17.6390  -30.6040   24.1480 C   0  0  0  0  0  3  0  0  0  0  0  0
  -16.5270  -29.8500   23.7330 C   0  0  0  0  0  3  0  0  0  0  0  0
  -16.7200  -28.5960   23.1240 C   0  0  0  0  0  3  0  0  0  0  0  0
  -25.8610  -32.5000   23.8580 C   0  0  0  0  0  3  0  0  0  0  0  0
  -26.3700  -31.7330   25.1410 C   0  0  1  0  0  0  0  0  0  0  0  0
  -25.2720  -31.5000   26.2040 C   0  0  0  0  0  1  0  0  0  0  0  0
  -26.9610  -30.3580   24.7560 C   0  0  0  0  0  1  0  0  0  0  0  0
  -27.5130  -32.5360   25.8010 C   0  0  0  0  0  1  0  0  0  0  0  0
  -25.5420  -33.8950   24.1780 N   0  0  0  0  0  0  0  0  0  0  0  0
  -25.8710  -34.9460   23.4150 C   0  0  0  0  0  0  0  0  0  0  0  0
  -26.5420  -34.8420   22.3860 O   0  0  0  0  0  0  0  0  0  0  0  0
  -24.9440  -34.0460   24.9780 H   0  0  0  0  0  0  0  0  0  0  0  0
  -24.1400  -36.7390   23.0660 C   0  0  0  0  0  1  0  0  0  0  0  0
  -25.3830  -36.3340   23.8740 C   0  0  0  0  0  3  0  0  0  0  0  0
  -27.5160  -37.2310   24.6980 C   0  0  0  0  0  1  0  0  0  0  0  0
  -26.4150  -37.3880   23.7530 N   0  0  0  0  0  0  0  0  0  0  0  0
  -26.0030  -38.3080   23.8950 H   0  0  0  0  0  0  0  0  0  0  0  0
  1 51  1  0
  1  2  1  0
  2  4  1  0
  3  1  2  0
  5 10  2  0
  5  7  1  0
  7  2  1  0
  7  9  2  0
  8 21  1  0
  8  6  2  0
  9  6  1  0
  9 11  1  0
 10  8  1  0
 12 10  1  0
 13 21  1  0
 14 19  1  0
 15 16  1  0
 15 14  1  0
 17 16  1  0
 17 26  1  0
 17 18  1  0
 19 13  1  0
 19 18  1  0
 20 13  2  0
 21 22  1  0
 23 24  2  0
 24 43  1  0
 25 24  1  0
 25 28  1  0
 26 23  1  0
 26 27  1  0
 27 25  2  0
 28 29  1  0
 29 30  2  0
 31 34  1  0
 31 30  1  0
 32 31  2  0
 33 32  1  0
 33 28  2  0
 34 35  1  0
 35 36  1  0
 36 37  2  0
 38 37  1  0
 38 42  1  0
 39 38  2  0
 40 35  2  0
 40 39  1  0
 41 40  1  0
 43 44  1  0
 44 47  1  0
 44 46  1  0
 45 43  2  0
 48 49  1  0
 48 23  1  0
 50 48  1  0
 51 54  1  0
 54 52  1  1
 54 53  1  0
 55 54  1  0
 56 67  2  0
 57 55  1  0
 57 62  1  0
 58 66  1  0
 58 68  1  0
 59 65  1  0
 59 61  1  0
 60 66  1  0
 61 62  2  0
 61 60  1  0
 63 64  1  0
 63 57  2  0
 64 59  2  0
 65 58  1  0
 66 56  1  0
 68 70  2  0
 69 68  1  0
 71 69  1  0
 72 81  2  0
 72 77  1  0
 73 69  1  0
 73 77  1  0
 74 73  1  0
 75 76  1  0
 75 74  1  0
 76 72  1  0
 77 78  2  0
 78 79  1  0
 80 79  2  0
 81 80  1  0
 82 56  1  0
 82 87  1  0
 82 83  1  0
 83 86  1  1
 83 84  1  0
 85 83  1  0
 87 90  1  0
 88 92  1  0
 88 87  1  0
 89 88  2  0
 92 91  1  0
 94 92  1  0
 94 95  1  0
 94 93  1  0
M  ISO  4  13 100  21 100  54 101  55 101
M  END
>  <TORSDO>  (12) 
F 19

>  <SCORE>  (12) 
-14.685

>  <name>  (12) 
11

>  <ligand_id>  (12) 
11

>  <original_smiles>  (12) 
[H]c1c([H])c([H])c2c(c1[H])C([H])([H])C([H])([H])C([H])([H])C2([H])N([H])C(=O)C1([H])N(C(=O)C([H])(N([H])C(=O)C([H])(N([H])C([H])([H])[H])C([H])([H])[H])C(C([H])([H])[H])(C([H])([H])[H])C([H])([H])[H])C([H])([H])c2c([H])c(OC(C([H])([H])[H])(C([H])([H])[H])C([H])([H])C(=O)N([H])c3c([H])c(F)c(N([H])C(=O)N4C([H])([H])C([H])([H])C([H])([H])C([H])(n5nc(-c6c([H])c([H])c(Oc7c([H])c([H])c(F)c([H])c7F)c([H])c6[H])c(C(=O)N([H])[H])c5N([H])[H])C4([H])[H])c([H])c3F)c([H])c([H])c2C1([H])[H]

>  <smiles>  (12) 
[H]c1c([H])c([H])c2c(c1[H])C([H])([H])C([H])([H])C([H])([H])C2([H])N([H])C(=O)C1([H])N(C(=O)C([H])(N([H])C(=O)C([H])(N([H])C([H])([H])[H])C([H])([H])[H])C(C([H])([H])[H])(C([H])([H])[H])C([H])([H])[H])C([H])([H])c2c([H])c(OC(C([H])([H])[H])(C([H])([H])[H])C([H])([H])C(=O)N([H])c3c([H])c(F)c(N([H])C(=O)N4C([H])([H])C([H])([H])C([H])([H])C([H])(n5nc(-c6c([H])c([H])c(Oc7c([H])c([H])c(F)c([H])c7F)c([H])c6[H])c(C(=O)N([H])[H])c5N([H])[H])C4([H])[H])c([H])c3F)c([H])c([H])c2C1([H])[H]

$$$$
12:0:0
     RDKit          3D

105114  0  0  1  0  0  0  0  0999 V2000
  -31.7390  -21.9280   20.2490 C   0  0  0  0  0  3  0  0  0  0  0  0
  -31.7750  -20.5260   20.3470 C   0  0  0  0  0  3  0  0  0  0  0  0
  -30.9790  -21.7440   17.9550 C   0  0  0  0  0  3  0  0  0  0  0  0
  -30.9910  -20.3320   18.0380 C   0  0  0  0  0  0  0  0  0  0  0  0
  -31.2940  -22.5630   19.0670 C   0  0  0  0  0  0  0  0  0  0  0  0
  -31.3690  -19.7120   19.2620 C   0  0  0  0  0  0  0  0  0  0  0  0
  -30.3200  -24.7070   18.2530 C   0  0  0  0  0  0  0  0  0  0  0  0
  -31.4560  -26.2890   19.6250 C   0  0  0  0  0  2  0  0  0  0  0  0
  -32.0290  -24.8800   19.8030 C   0  0  0  0  0  2  0  0  0  0  0  0
  -30.5710  -26.2140   18.3700 C   0  0  1  0  0  0  0  0  0  0  0  0
  -31.4030  -26.6190   17.1210 C   0  0  0  0  0  1  0  0  0  0  0  0
  -31.1840  -23.9940   19.0050 N   0  0  0  0  0  0  0  0  0  0  0  0
  -29.4260  -24.2570   17.5270 O   0  0  0  0  0  0  0  0  0  0  0  0
  -29.4510  -28.5470   18.2990 C   0  0  0  0  0  1  0  0  0  0  0  0
  -29.2330  -27.0250   18.4910 C   0  0  0  0  0  3  0  0  0  0  0  0
  -28.5530  -26.7220   19.7340 O   0  0  0  0  0  0  0  0  0  0  0  0
  -24.6710  -31.7140   23.0460 C   0  0  0  0  0  0  0  0  0  0  0  0
  -27.3380  -27.3490   19.8880 C   0  0  0  0  0  0  0  0  0  0  0  0
  -23.4570  -30.3150   21.4040 C   0  0  0  0  0  3  0  0  0  0  0  0
  -24.9080  -28.7810   19.9720 C   0  0  0  0  0  0  0  0  0  0  0  0
  -25.9740  -30.6840   21.1960 C   0  0  0  0  0  2  0  0  0  0  0  0
  -26.0570  -29.3120   20.5690 C   0  0  0  0  0  0  0  0  0  0  0  0
  -27.2630  -28.5850   20.5620 C   0  0  0  0  0  3  0  0  0  0  0  0
  -26.1720  -26.8010   19.3150 C   0  0  0  0  0  3  0  0  0  0  0  0
  -24.9530  -27.5120   19.3630 C   0  0  0  0  0  3  0  0  0  0  0  0
  -23.6600  -29.6330   20.0240 C   0  0  0  0  0  2  0  0  0  0  0  0
  -24.7180  -30.9210   21.9390 N   0  0  0  0  0  0  0  0  0  0  0  0
  -23.5940  -31.9820   23.5940 O   0  0  0  0  0  0  0  0  0  0  0  0
  -22.8170  -29.2890   22.3640 C   0  0  0  0  0  0  0  0  0  0  0  0
  -21.4870  -29.1260   22.2640 N   0  0  0  0  0  0  0  0  0  0  0  0
  -23.5110  -28.6390   23.1520 O   0  0  0  0  0  0  0  0  0  0  0  0
  -20.9850  -29.6980   21.5980 H   0  0  0  0  0  0  0  0  0  0  0  0
  -18.1080  -28.0070   22.8480 C   0  0  0  0  0  0  0  0  0  0  0  0
  -20.6790  -28.1880   23.0380 C   0  0  0  0  0  3  0  0  0  0  0  0
  -20.7220  -26.7740   22.4160 C   0  0  0  0  0  2  0  0  0  0  0  0
  -19.5770  -26.5100   21.4320 C   0  0  0  0  0  2  0  0  0  0  0  0
  -18.2240  -26.6740   22.1290 C   0  0  0  0  0  2  0  0  0  0  0  0
  -19.2620  -28.7260   23.2600 C   0  0  0  0  0  0  0  0  0  0  0  0
  -19.1000  -29.9790   23.8920 C   0  0  0  0  0  3  0  0  0  0  0  0
  -17.8170  -30.5110   24.1150 C   0  0  0  0  0  3  0  0  0  0  0  0
  -16.6780  -29.7880   23.7200 C   0  0  0  0  0  3  0  0  0  0  0  0
  -16.8240  -28.5380   23.0920 C   0  0  0  0  0  3  0  0  0  0  0  0
  -25.9610  -32.3430   23.6590 C   0  0  0  0  0  3  0  0  0  0  0  0
  -25.6360  -33.7180   24.0530 N   0  0  0  0  0  0  0  0  0  0  0  0
  -25.9330  -34.8070   23.3320 C   0  0  0  0  0  0  0  0  0  0  0  0
  -26.5800  -34.7580   22.2820 O   0  0  0  0  0  0  0  0  0  0  0  0
  -25.0500  -33.8290   24.8680 H   0  0  0  0  0  0  0  0  0  0  0  0
  -24.1650  -36.5800   23.0860 C   0  0  0  0  0  1  0  0  0  0  0  0
  -25.4280  -36.1650   23.8560 C   0  0  0  0  0  3  0  0  0  0  0  0
  -27.5640  -37.0530   24.6800 C   0  0  0  0  0  1  0  0  0  0  0  0
  -26.4380  -37.2410   23.7700 N   0  0  0  0  0  0  0  0  0  0  0  0
  -26.0160  -38.1450   23.9640 H   0  0  0  0  0  0  0  0  0  0  0  0
  -26.5280  -31.5300   24.8870 C   0  0  1  0  0  0  0  0  0  0  0  0
  -25.4690  -31.2260   25.9740 C   0  0  0  0  0  1  0  0  0  0  0  0
  -27.1250  -30.1820   24.4180 C   0  0  0  0  0  1  0  0  0  0  0  0
  -27.6810  -32.3170   25.5510 C   0  0  0  0  0  1  0  0  0  0  0  0
  -30.7940  -17.6170   20.4480 C   0  0  0  0  0  0  0  0  0  0  0  0
  -31.2620  -18.2960   19.3880 N   0  0  0  0  0  0  0  0  0  0  0  0
  -31.2090  -17.7730   21.5990 O   0  0  0  0  0  0  0  0  0  0  0  0
  -31.0340  -17.8380   18.5150 H   0  0  0  0  0  0  0  0  0  0  0  0
  -29.6580  -16.1740   18.6520 C   0  0  0  0  0  1  0  0  0  0  0  0
  -29.6590  -16.6050   20.1530 C   0  0  1  0  0  0  0  0  0  0  0  0
  -30.6620  -14.4280   20.9830 C   0  0  0  0  0  0  0  0  0  0  0  0
  -30.5650  -12.1730   20.0460 C   0  0  0  0  0  2  0  0  0  0  0  0
  -29.7360  -12.3000   18.7480 C   0  0  0  0  0  2  0  0  0  0  0  0
  -28.2270  -12.1590   19.0430 C   0  0  0  0  0  2  0  0  0  0  0  0
  -27.7520  -13.0420   20.2260 C   0  0  0  0  0  3  0  0  0  0  0  0
  -28.7110  -12.9070   21.4360 C   0  0  0  0  0  2  0  0  0  0  0  0
  -30.0830  -13.2000   20.9770 N   0  0  0  0  0  0  0  0  0  0  0  0
  -31.8380  -14.6350   20.6750 O   0  0  0  0  0  0  0  0  0  0  0  0
  -29.7440  -15.4060   21.0040 N   0  0  0  0  0  0  0  0  0  0  0  0
  -28.8530  -15.1060   21.3660 H   0  0  0  0  0  0  0  0  0  0  0  0
  -25.2970  -13.6370   20.7250 C   0  0  0  0  0  0  0  0  0  0  0  0
  -24.2100  -12.8600   21.0180 C   0  0  0  0  0  0  0  0  0  0  0  0
  -24.6870  -11.5140   21.0480 C   0  0  0  0  0  0  0  0  0  0  0  0
  -26.3660  -12.7630   20.5940 N   0  0  0  0  0  0  0  0  0  0  0  0
  -25.9970  -11.4830   20.8450 N   0  0  0  0  0  0  0  0  0  0  0  0
  -23.9650  -10.2460   21.2000 C   0  0  0  0  0  0  0  0  0  0  0  0
  -24.3520   -9.2870   22.1600 C   0  0  0  0  0  3  0  0  0  0  0  0
  -23.6290   -8.0830   22.2980 C   0  0  0  0  0  3  0  0  0  0  0  0
  -22.5060   -7.8290   21.4740 C   0  0  0  0  0  0  0  0  0  0  0  0
  -22.1410   -8.7780   20.5030 C   0  0  0  0  0  3  0  0  0  0  0  0
  -22.8650   -9.9730   20.3640 C   0  0  0  0  0  3  0  0  0  0  0  0
  -21.7620   -6.6750   21.5180 O   0  0  0  0  0  0  0  0  0  0  0  0
  -21.6680   -5.9230   22.6610 C   0  0  0  0  0  0  0  0  0  0  0  0
  -21.1660   -6.4600   23.8660 C   0  0  0  0  0  3  0  0  0  0  0  0
  -21.0210   -5.6330   24.9990 C   0  0  0  0  0  3  0  0  0  0  0  0
  -21.3680   -4.2710   24.9250 C   0  0  0  0  0  0  0  0  0  0  0  0
  -21.8640   -3.7350   23.7250 C   0  0  0  0  0  3  0  0  0  0  0  0
  -22.0110   -4.5590   22.5950 C   0  0  0  0  0  0  0  0  0  0  0  0
  -22.4700   -4.0330   21.4340 F   0  0  0  0  0  0  0  0  0  0  0  0
  -21.2230   -3.4740   26.0100 F   0  0  0  0  0  0  0  0  0  0  0  0
  -22.7900  -13.3260   21.1680 C   0  0  0  0  0  0  0  0  0  0  0  0
  -22.0030  -12.6390   21.9860 N   0  0  0  0  0  0  0  0  0  0  0  0
  -22.3830  -14.3370   20.5950 O   0  0  0  0  0  0  0  0  0  0  0  0
  -22.3420  -11.8220   22.4730 H   0  0  0  0  0  0  0  0  0  0  0  0
  -21.0470  -12.9340   22.1310 H   0  0  0  0  0  0  0  0  0  0  0  0
  -25.4590  -15.0060   20.5410 N   0  0  0  0  0  0  0  0  0  0  0  0
  -24.6760  -15.6480   20.5880 H   0  0  0  0  0  0  0  0  0  0  0  0
  -26.3200  -15.4610   20.2630 H   0  0  0  0  0  0  0  0  0  0  0  0
  -27.3330  -17.6270   19.6860 C   0  0  0  0  0  2  0  0  0  0  0  0
  -28.3220  -17.2470   20.5160 C   0  0  0  0  0  3  0  0  0  0  0  0
  -30.6130  -19.5540   16.8160 C   0  0  0  0  0  0  0  0  0  0  0  0
  -29.5110  -20.1260   15.9300 C   0  0  0  0  0  1  0  0  0  0  0  0
  -31.1030  -18.4590   16.5250 O   0  0  0  0  0  0  0  0  0  0  0  0
  1  2  1  0
  3  4  2  0
  3  5  1  0
  4  6  1  0
  5  1  2  0
  6 58  1  0
  6  2  2  0
  7 10  1  0
  7 12  1  0
  8  9  1  0
 10 11  1  6
 10 15  1  0
 10  8  1  0
 12  5  1  0
 12  9  1  0
 13  7  2  0
 15 14  1  0
 15 16  1  0
 16 18  1  0
 17 28  2  0
 18 23  1  0
 19 27  1  0
 19 29  1  0
 20 26  1  0
 20 22  1  0
 21 27  1  0
 22 21  1  0
 23 22  2  0
 24 25  1  0
 24 18  2  0
 25 20  2  0
 26 19  1  0
 27 17  1  0
 29 31  2  0
 30 29  1  0
 32 30  1  0
 33 42  2  0
 33 38  1  0
 34 30  1  0
 34 38  1  0
 35 34  1  0
 36 37  1  0
 36 35  1  0
 37 33  1  0
 38 39  2  0
 39 40  1  0
 41 40  2  0
 42 41  1  0
 43 17  1  0
 43 44  1  0
 43 53  1  0
 44 47  1  0
 45 49  1  0
 45 44  1  0
 46 45  2  0
 49 48  1  0
 51 49  1  0
 51 52  1  0
 51 50  1  0
 53 56  1  1
 53 54  1  0
 55 53  1  0
 57 59  2  0
 58 57  1  0
 60 58  1  0
 62 61  1  6
 62 57  1  0
 62102  1  0
 62 71  1  0
 63 71  1  0
 64 69  1  0
 65 66  1  0
 65 64  1  0
 67 66  1  0
 67 76  1  0
 67 68  1  0
 69 63  1  0
 69 68  1  0
 70 63  2  0
 71 72  1  0
 73 74  2  0
 74 75  1  0
 74 93  1  0
 75 78  1  0
 76 73  1  0
 76 77  1  0
 77 75  2  0
 78 79  1  0
 79 80  2  0
 81 84  1  0
 81 80  1  0
 82 81  2  0
 83 82  1  0
 83 78  2  0
 84 85  1  0
 85 86  1  0
 86 87  2  0
 88 87  1  0
 88 92  1  0
 89 88  2  0
 90 85  2  0
 90 89  1  0
 91 90  1  0
 93 94  1  0
 94 97  1  0
 94 96  1  0
 95 93  2  0
 98 99  1  0
 98 73  1  0
100 98  1  0
101102  2  0
103  4  1  0
104103  1  0
105103  2  0
M  ISO  4  15 101  16 101  63 100  71 100
M  END
>  <TORSDO>  (13) 
F 22

>  <SCORE>  (13) 
-12.207

>  <name>  (13) 
12

>  <ligand_id>  (13) 
12

>  <original_smiles>  (13) 
[H]C([H])=C([H])C(C(=O)N([H])c1c([H])c([H])c(N2C(=O)C(C([H])([H])[H])(C([H])(Oc3c([H])c([H])c4c(c3[H])C([H])([H])N(C(=O)C([H])(N([H])C(=O)C([H])(N([H])C([H])([H])[H])C([H])([H])[H])C(C([H])([H])[H])(C([H])([H])[H])C([H])([H])[H])C([H])(C(=O)N([H])C3([H])c5c([H])c([H])c([H])c([H])c5C([H])([H])C([H])([H])C3([H])[H])C4([H])[H])C([H])([H])[H])C([H])([H])C2([H])[H])c([H])c1C(=O)C([H])([H])[H])(N([H])C(=O)N1C([H])([H])C([H])([H])C([H])([H])C([H])(n2nc(-c3c([H])c([H])c(Oc4c([H])c([H])c(F)c([H])c4F)c([H])c3[H])c(C(=O)N([H])[H])c2N([H])[H])C1([H])[H])C([H])([H])[H]

>  <smiles>  (13) 
[H]C([H])=C([H])C(C(=O)N([H])c1c([H])c([H])c(N2C(=O)C(C([H])([H])[H])(C([H])(Oc3c([H])c([H])c4c(c3[H])C([H])([H])N(C(=O)C([H])(N([H])C(=O)C([H])(N([H])C([H])([H])[H])C([H])([H])[H])C(C([H])([H])[H])(C([H])([H])[H])C([H])([H])[H])C([H])(C(=O)N([H])C3([H])c5c([H])c([H])c([H])c([H])c5C([H])([H])C([H])([H])C3([H])[H])C4([H])[H])C([H])([H])[H])C([H])([H])C2([H])[H])c([H])c1C(=O)C([H])([H])[H])(N([H])C(=O)N1C([H])([H])C([H])([H])C([H])([H])C([H])(n2nc(-c3c([H])c([H])c(Oc4c([H])c([H])c(F)c([H])c4F)c([H])c3[H])c(C(=O)N([H])[H])c2N([H])[H])C1([H])[H])C([H])([H])[H]

$$$$
13:0:0
     RDKit          3D

 93101  0  0  1  0  0  0  0  0999 V2000
  -28.9150  -21.3010   20.0850 C   0  0  0  0  0  0  0  0  0  0  0  0
  -29.4430  -22.4900   20.5520 N   0  0  0  0  0  0  0  0  0  0  0  0
  -27.9190  -21.3330   19.3590 O   0  0  0  0  0  0  0  0  0  0  0  0
  -30.1730  -22.3370   21.2350 H   0  0  0  0  0  0  0  0  0  0  0  0
  -31.0350  -18.0390   20.7840 C   0  0  0  0  0  3  0  0  0  0  0  0
  -30.8220  -19.4770   20.7030 C   0  0  0  0  0  0  0  0  0  0  0  0
  -29.5460  -19.9130   20.4110 C   0  0  0  0  0  0  0  0  0  0  0  0
  -29.9160  -17.2540   20.5640 C   0  0  0  0  0  0  0  0  0  0  0  0
  -31.8230  -20.3090   20.8770 F   0  0  0  0  0  0  0  0  0  0  0  0
  -28.5810  -18.4130   20.2310 S   0  0  0  0  0  0  0  0  0  0  0  0
  -30.5660  -14.7680   20.3990 C   0  0  0  0  0  0  0  0  0  0  0  0
  -30.4020  -12.4960   19.3640 C   0  0  0  0  0  2  0  0  0  0  0  0
  -29.4560  -12.5680   18.1440 C   0  0  0  0  0  2  0  0  0  0  0  0
  -27.9850  -12.3890   18.5730 C   0  0  0  0  0  2  0  0  0  0  0  0
  -27.6100  -13.2700   19.7940 C   0  0  0  0  0  3  0  0  0  0  0  0
  -28.6690  -13.1640   20.9140 C   0  0  0  0  0  2  0  0  0  0  0  0
  -29.9660  -13.5320   20.3270 N   0  0  0  0  0  0  0  0  0  0  0  0
  -31.7540  -14.9010   20.0830 O   0  0  0  0  0  0  0  0  0  0  0  0
  -29.7330  -15.8580   20.6080 N   0  0  0  0  0  0  0  0  0  0  0  0
  -28.7740  -15.5740   20.7370 H   0  0  0  0  0  0  0  0  0  0  0  0
  -25.2190  -13.8600   20.5140 C   0  0  0  0  0  0  0  0  0  0  0  0
  -24.1530  -13.0840   20.8820 C   0  0  0  0  0  0  0  0  0  0  0  0
  -24.6190  -11.7340   20.8540 C   0  0  0  0  0  0  0  0  0  0  0  0
  -26.2650  -12.9820   20.2820 N   0  0  0  0  0  0  0  0  0  0  0  0
  -25.9120  -11.6990   20.5490 N   0  0  0  0  0  0  0  0  0  0  0  0
  -23.8940  -10.4700   21.0400 C   0  0  0  0  0  0  0  0  0  0  0  0
  -24.3220   -9.5040   21.9770 C   0  0  0  0  0  3  0  0  0  0  0  0
  -23.5960   -8.3070   22.1510 C   0  0  0  0  0  3  0  0  0  0  0  0
  -22.4310   -8.0650   21.3860 C   0  0  0  0  0  0  0  0  0  0  0  0
  -22.0230   -9.0190   20.4390 C   0  0  0  0  0  3  0  0  0  0  0  0
  -22.7490  -10.2090   20.2630 C   0  0  0  0  0  3  0  0  0  0  0  0
  -21.6760   -6.9180   21.4710 O   0  0  0  0  0  0  0  0  0  0  0  0
  -21.6130   -6.1820   22.6270 C   0  0  0  0  0  0  0  0  0  0  0  0
  -21.1580   -6.7400   23.8410 C   0  0  0  0  0  3  0  0  0  0  0  0
  -21.0440   -5.9290   24.9880 C   0  0  0  0  0  3  0  0  0  0  0  0
  -21.3740   -4.5620   24.9220 C   0  0  0  0  0  0  0  0  0  0  0  0
  -21.8230   -4.0050   23.7110 C   0  0  0  0  0  3  0  0  0  0  0  0
  -21.9400   -4.8130   22.5670 C   0  0  0  0  0  0  0  0  0  0  0  0
  -22.3530   -4.2660   21.3980 F   0  0  0  0  0  0  0  0  0  0  0  0
  -21.2570   -3.7810   26.0210 F   0  0  0  0  0  0  0  0  0  0  0  0
  -22.7540  -13.5590   21.1470 C   0  0  0  0  0  0  0  0  0  0  0  0
  -22.0220  -12.8620   22.0080 N   0  0  0  0  0  0  0  0  0  0  0  0
  -22.3200  -14.5860   20.6270 O   0  0  0  0  0  0  0  0  0  0  0  0
  -22.3830  -12.0290   22.4490 H   0  0  0  0  0  0  0  0  0  0  0  0
  -21.0850  -13.1670   22.2310 H   0  0  0  0  0  0  0  0  0  0  0  0
  -25.3750  -15.2310   20.3340 N   0  0  0  0  0  0  0  0  0  0  0  0
  -24.5950  -15.8710   20.4330 H   0  0  0  0  0  0  0  0  0  0  0  0
  -26.2060  -15.6760   19.9660 H   0  0  0  0  0  0  0  0  0  0  0  0
  -30.6700  -24.5840   20.6790 C   0  0  0  0  0  1  0  0  0  0  0  0
  -29.5640  -23.9800   18.5340 C   0  0  0  0  0  1  0  0  0  0  0  0
  -29.4040  -23.9540   20.0680 C   0  0  1  0  0  0  0  0  0  0  0  0
  -28.1790  -24.9400   20.4600 C   0  0  0  0  0  2  0  0  0  0  0  0
  -28.3350  -26.4240   20.2270 O   0  0  0  0  0  0  0  0  0  0  0  0
  -24.6000  -31.8850   23.2400 C   0  0  0  0  0  0  0  0  0  0  0  0
  -27.2110  -27.2820   20.2080 C   0  0  0  0  0  0  0  0  0  0  0  0
  -23.3970  -30.4830   21.6040 C   0  0  0  0  0  3  0  0  0  0  0  0
  -24.8480  -28.9210   20.1860 C   0  0  0  0  0  0  0  0  0  0  0  0
  -25.9390  -30.7910   21.4230 C   0  0  0  0  0  2  0  0  0  0  0  0
  -26.0200  -29.4060   20.7810 C   0  0  0  0  0  0  0  0  0  0  0  0
  -27.2030  -28.6000   20.7770 C   0  0  0  0  0  3  0  0  0  0  0  0
  -26.0160  -26.8620   19.5820 C   0  0  0  0  0  3  0  0  0  0  0  0
  -24.8510  -27.6570   19.5760 C   0  0  0  0  0  3  0  0  0  0  0  0
  -23.6130  -29.8010   20.2270 C   0  0  0  0  0  2  0  0  0  0  0  0
  -24.6650  -31.0710   22.1460 N   0  0  0  0  0  0  0  0  0  0  0  0
  -23.5160  -32.1660   23.7730 O   0  0  0  0  0  0  0  0  0  0  0  0
  -22.7320  -29.4700   22.5690 C   0  0  0  0  0  0  0  0  0  0  0  0
  -21.4060  -29.2920   22.4410 N   0  0  0  0  0  0  0  0  0  0  0  0
  -23.4100  -28.8480   23.3910 O   0  0  0  0  0  0  0  0  0  0  0  0
  -20.9180  -29.8450   21.7490 H   0  0  0  0  0  0  0  0  0  0  0  0
  -18.0260  -28.1050   22.9530 C   0  0  0  0  0  0  0  0  0  0  0  0
  -20.5870  -28.3580   23.2150 C   0  0  0  0  0  3  0  0  0  0  0  0
  -20.6830  -26.9260   22.6390 C   0  0  0  0  0  2  0  0  0  0  0  0
  -19.5760  -26.6070   21.6280 C   0  0  0  0  0  2  0  0  0  0  0  0
  -18.1970  -26.7560   22.2770 C   0  0  0  0  0  2  0  0  0  0  0  0
  -19.1490  -28.8640   23.3800 C   0  0  0  0  0  0  0  0  0  0  0  0
  -18.9350  -30.1270   23.9740 C   0  0  0  0  0  3  0  0  0  0  0  0
  -17.6330  -30.6310   24.1470 C   0  0  0  0  0  3  0  0  0  0  0  0
  -16.5250  -29.8700   23.7350 C   0  0  0  0  0  3  0  0  0  0  0  0
  -16.7220  -28.6090   23.1450 C   0  0  0  0  0  3  0  0  0  0  0  0
  -25.8810  -32.5220   23.8620 C   0  0  0  0  0  3  0  0  0  0  0  0
  -26.3940  -31.7580   25.1450 C   0  0  1  0  0  0  0  0  0  0  0  0
  -25.2950  -31.5290   26.2100 C   0  0  0  0  0  1  0  0  0  0  0  0
  -26.9770  -30.3780   24.7640 C   0  0  0  0  0  1  0  0  0  0  0  0
  -27.5430  -32.5550   25.8050 C   0  0  0  0  0  1  0  0  0  0  0  0
  -25.5710  -33.9220   24.1840 N   0  0  0  0  0  0  0  0  0  0  0  0
  -25.9050  -34.9720   23.4240 C   0  0  0  0  0  0  0  0  0  0  0  0
  -26.5760  -34.8630   22.3930 O   0  0  0  0  0  0  0  0  0  0  0  0
  -24.9760  -34.0800   24.9850 H   0  0  0  0  0  0  0  0  0  0  0  0
  -24.1830  -36.7680   23.0610 C   0  0  0  0  0  1  0  0  0  0  0  0
  -25.4200  -36.3630   23.8770 C   0  0  0  0  0  3  0  0  0  0  0  0
  -27.5530  -37.2440   24.7150 C   0  0  0  0  0  1  0  0  0  0  0  0
  -26.4570  -37.4120   23.7660 N   0  0  0  0  0  0  0  0  0  0  0  0
  -26.0520  -38.3340   23.9070 H   0  0  0  0  0  0  0  0  0  0  0  0
  1  7  1  0
  1  2  1  0
  2  4  1  0
  3  1  2  0
  6  5  1  0
  6  9  1  0
  7  6  2  0
  8 19  1  0
  8  5  2  0
 10  7  1  0
 10  8  1  0
 11 19  1  0
 12 17  1  0
 13 14  1  0
 13 12  1  0
 15 14  1  0
 15 24  1  0
 15 16  1  0
 17 11  1  0
 17 16  1  0
 18 11  2  0
 19 20  1  0
 21 22  2  0
 22 41  1  0
 23 22  1  0
 23 26  1  0
 24 21  1  0
 24 25  1  0
 25 23  2  0
 26 27  1  0
 27 28  2  0
 29 32  1  0
 29 28  1  0
 30 29  2  0
 31 30  1  0
 31 26  2  0
 32 33  1  0
 33 34  1  0
 34 35  2  0
 36 35  1  0
 36 40  1  0
 37 36  2  0
 38 33  2  0
 38 37  1  0
 39 38  1  0
 41 42  1  0
 42 45  1  0
 42 44  1  0
 43 41  2  0
 46 47  1  0
 46 21  1  0
 48 46  1  0
 51 50  1  6
 51 52  1  0
 51  2  1  0
 51 49  1  0
 53 52  1  0
 54 65  2  0
 55 53  1  0
 55 60  1  0
 56 64  1  0
 56 66  1  0
 57 63  1  0
 57 59  1  0
 58 64  1  0
 59 58  1  0
 60 59  2  0
 61 55  2  0
 62 61  1  0
 62 57  2  0
 63 56  1  0
 64 54  1  0
 66 68  2  0
 67 66  1  0
 69 67  1  0
 70 79  2  0
 70 75  1  0
 71 67  1  0
 71 75  1  0
 72 71  1  0
 73 74  1  0
 73 72  1  0
 74 70  1  0
 75 76  2  0
 76 77  1  0
 78 77  2  0
 79 78  1  0
 80 54  1  0
 80 85  1  0
 80 81  1  0
 81 84  1  1
 81 82  1  0
 83 81  1  0
 85 88  1  0
 86 90  1  0
 86 85  1  0
 87 86  2  0
 90 89  1  0
 92 90  1  0
 92 93  1  0
 92 91  1  0
M  ISO  4  11 100  19 100  52 101  53 101
M  END
>  <TORSDO>  (14) 
F 19

>  <SCORE>  (14) 
-14.498

>  <name>  (14) 
13

>  <ligand_id>  (14) 
13

>  <original_smiles>  (14) 
[H]c1c([H])c([H])c2c(c1[H])C([H])([H])C([H])([H])C([H])([H])C2([H])N([H])C(=O)C1([H])N(C(=O)C([H])(N([H])C(=O)C([H])(N([H])C([H])([H])[H])C([H])([H])[H])C(C([H])([H])[H])(C([H])([H])[H])C([H])([H])[H])C([H])([H])c2c([H])c(OC([H])([H])C(N([H])C(=O)c3sc(N([H])C(=O)N4C([H])([H])C([H])([H])C([H])([H])C([H])(n5nc(-c6c([H])c([H])c(Oc7c([H])c([H])c(F)c([H])c7F)c([H])c6[H])c(C(=O)N([H])[H])c5N([H])[H])C4([H])[H])c([H])c3F)(C([H])([H])[H])C([H])([H])[H])c([H])c([H])c2C1([H])[H]

>  <smiles>  (14) 
[H]c1c([H])c([H])c2c(c1[H])C([H])([H])C([H])([H])C([H])([H])C2([H])N([H])C(=O)C1([H])N(C(=O)C([H])(N([H])C(=O)C([H])(N([H])C([H])([H])[H])C([H])([H])[H])C(C([H])([H])[H])(C([H])([H])[H])C([H])([H])[H])C([H])([H])c2c([H])c(OC([H])([H])C(N([H])C(=O)c3sc(N([H])C(=O)N4C([H])([H])C([H])([H])C([H])([H])C([H])(n5nc(-c6c([H])c([H])c(Oc7c([H])c([H])c(F)c([H])c7F)c([H])c6[H])c(C(=O)N([H])[H])c5N([H])[H])C4([H])[H])c([H])c3F)(C([H])([H])[H])C([H])([H])[H])c([H])c([H])c2C1([H])[H]

$$$$
14:0:0
     RDKit          3D

 96105  0  0  1  0  0  0  0  0999 V2000
  -30.0700  -19.4250   19.2690 C   0  0  0  0  0  3  0  0  0  0  0  0
  -29.8440  -19.4720   21.6160 C   0  0  0  0  0  3  0  0  0  0  0  0
  -29.8770  -20.2530   20.4230 C   0  0  0  0  0  0  0  0  0  0  0  0
  -30.1990  -17.9920   19.2880 C   0  0  0  0  0  0  0  0  0  0  0  0
  -30.1610  -17.2510   20.5050 C   0  0  0  0  0  0  0  0  0  0  0  0
  -29.9650  -18.0460   21.6660 C   0  0  0  0  0  0  0  0  0  0  0  0
  -29.8640  -17.4270   22.8680 F   0  0  0  0  0  0  0  0  0  0  0  0
  -30.9090  -14.7360   20.2280 C   0  0  0  0  0  0  0  0  0  0  0  0
  -30.7320  -12.4580   19.2180 C   0  0  0  0  0  2  0  0  0  0  0  0
  -29.7550  -12.5350   18.0220 C   0  0  0  0  0  2  0  0  0  0  0  0
  -28.2980  -12.3530   18.4900 C   0  0  0  0  0  2  0  0  0  0  0  0
  -27.9530  -13.2340   19.7190 C   0  0  0  0  0  3  0  0  0  0  0  0
  -29.0400  -13.1220   20.8120 C   0  0  0  0  0  2  0  0  0  0  0  0
  -30.3260  -13.4900   20.1980 N   0  0  0  0  0  0  0  0  0  0  0  0
  -32.0570  -14.9010   19.8030 O   0  0  0  0  0  0  0  0  0  0  0  0
  -30.0970  -15.7790   20.6170 N   0  0  0  0  0  0  0  0  0  0  0  0
  -29.2650  -15.4590   21.0850 H   0  0  0  0  0  0  0  0  0  0  0  0
  -25.5910  -13.8240   20.5390 C   0  0  0  0  0  0  0  0  0  0  0  0
  -24.5300  -13.0460   20.9150 C   0  0  0  0  0  0  0  0  0  0  0  0
  -24.9770  -11.6930   20.8220 C   0  0  0  0  0  0  0  0  0  0  0  0
  -26.6190  -12.9430   20.2390 N   0  0  0  0  0  0  0  0  0  0  0  0
  -26.2580  -11.6550   20.4690 N   0  0  0  0  0  0  0  0  0  0  0  0
  -24.2460  -10.4310   20.9920 C   0  0  0  0  0  0  0  0  0  0  0  0
  -24.6500   -9.4650   21.9390 C   0  0  0  0  0  3  0  0  0  0  0  0
  -23.9190   -8.2670   22.0970 C   0  0  0  0  0  3  0  0  0  0  0  0
  -22.7700   -8.0280   21.3070 C   0  0  0  0  0  0  0  0  0  0  0  0
  -22.3840   -8.9830   20.3490 C   0  0  0  0  0  3  0  0  0  0  0  0
  -23.1150  -10.1720   20.1910 C   0  0  0  0  0  3  0  0  0  0  0  0
  -22.0150   -6.8820   21.3720 O   0  0  0  0  0  0  0  0  0  0  0  0
  -21.8440   -6.1980   22.5500 C   0  0  0  0  0  0  0  0  0  0  0  0
  -21.2820   -6.8090   23.6910 C   0  0  0  0  0  3  0  0  0  0  0  0
  -21.0600   -6.0500   24.8590 C   0  0  0  0  0  3  0  0  0  0  0  0
  -21.3940   -4.6830   24.8840 C   0  0  0  0  0  0  0  0  0  0  0  0
  -21.9500   -4.0720   23.7460 C   0  0  0  0  0  3  0  0  0  0  0  0
  -22.1710   -4.8280   22.5820 C   0  0  0  0  0  0  0  0  0  0  0  0
  -22.6890   -4.2290   21.4810 F   0  0  0  0  0  0  0  0  0  0  0  0
  -21.1730   -3.9530   26.0020 F   0  0  0  0  0  0  0  0  0  0  0  0
  -23.1470  -13.5260   21.2490 C   0  0  0  0  0  0  0  0  0  0  0  0
  -22.4420  -12.8110   22.1210 N   0  0  0  0  0  0  0  0  0  0  0  0
  -22.7000  -14.5690   20.7730 O   0  0  0  0  0  0  0  0  0  0  0  0
  -22.8170  -11.9680   22.5280 H   0  0  0  0  0  0  0  0  0  0  0  0
  -21.5180  -13.1160   22.3870 H   0  0  0  0  0  0  0  0  0  0  0  0
  -25.7640  -15.1980   20.4060 N   0  0  0  0  0  0  0  0  0  0  0  0
  -25.0050  -15.8540   20.5680 H   0  0  0  0  0  0  0  0  0  0  0  0
  -26.5990  -15.6430   20.0480 H   0  0  0  0  0  0  0  0  0  0  0  0
  -29.3270  -22.7730   21.2620 C   0  0  0  0  0  0  0  0  0  0  0  0
  -29.5090  -22.5400   19.2140 C   0  0  0  0  0  2  0  0  0  0  0  0
  -29.5470  -23.8460   20.1040 C   0  0  2  0  0  0  0  0  0  0  0  0
  -30.9090  -24.5340   20.2480 C   0  0  0  0  0  1  0  0  0  0  0  0
  -29.7570  -21.7360   20.4150 N   0  0  0  0  0  0  0  0  0  0  0  0
  -28.9090  -22.7580   22.4010 O   0  0  0  0  0  0  0  0  0  0  0  0
  -28.4170  -24.9780   19.9250 C   0  0  0  0  0  2  0  0  0  0  0  0
  -28.6380  -26.4310   20.2250 O   0  0  0  0  0  0  0  0  0  0  0  0
  -24.8990  -31.7970   23.3520 C   0  0  0  0  0  0  0  0  0  0  0  0
  -27.5370  -27.3170   20.1730 C   0  0  0  0  0  0  0  0  0  0  0  0
  -23.7220  -30.4840   21.6250 C   0  0  0  0  0  3  0  0  0  0  0  0
  -25.1920  -28.9770   20.1690 C   0  0  0  0  0  0  0  0  0  0  0  0
  -26.2720  -30.7700   21.5220 C   0  0  0  0  0  2  0  0  0  0  0  0
  -26.3520  -29.4190   20.8180 C   0  0  0  0  0  0  0  0  0  0  0  0
  -27.5260  -28.6000   20.8110 C   0  0  0  0  0  3  0  0  0  0  0  0
  -26.3510  -26.9430   19.4960 C   0  0  0  0  0  3  0  0  0  0  0  0
  -25.1950  -27.7460   19.4980 C   0  0  0  0  0  3  0  0  0  0  0  0
  -23.9640  -29.8660   20.2230 C   0  0  0  0  0  2  0  0  0  0  0  0
  -24.9830  -31.0320   22.2240 N   0  0  0  0  0  0  0  0  0  0  0  0
  -23.8050  -32.0670   23.8690 O   0  0  0  0  0  0  0  0  0  0  0  0
  -23.0200  -29.4380   22.5240 C   0  0  0  0  0  0  0  0  0  0  0  0
  -21.6970  -29.2770   22.3480 N   0  0  0  0  0  0  0  0  0  0  0  0
  -23.6670  -28.7760   23.3390 O   0  0  0  0  0  0  0  0  0  0  0  0
  -21.2340  -29.8650   21.6680 H   0  0  0  0  0  0  0  0  0  0  0  0
  -18.2950  -28.0970   22.7020 C   0  0  0  0  0  0  0  0  0  0  0  0
  -20.8470  -28.3180   23.0560 C   0  0  0  0  0  3  0  0  0  0  0  0
  -20.9520  -26.9100   22.4260 C   0  0  0  0  0  2  0  0  0  0  0  0
  -19.8770  -26.6410   21.3690 C   0  0  0  0  0  2  0  0  0  0  0  0
  -18.4790  -26.7750   21.9790 C   0  0  0  0  0  2  0  0  0  0  0  0
  -19.4080  -28.8300   23.1950 C   0  0  0  0  0  0  0  0  0  0  0  0
  -19.1840  -30.0700   23.8300 C   0  0  0  0  0  3  0  0  0  0  0  0
  -17.8790  -30.5770   23.9800 C   0  0  0  0  0  3  0  0  0  0  0  0
  -16.7810  -29.8420   23.5040 C   0  0  0  0  0  3  0  0  0  0  0  0
  -16.9890  -28.6040   22.8710 C   0  0  0  0  0  3  0  0  0  0  0  0
  -26.1730  -32.3860   24.0330 C   0  0  0  0  0  3  0  0  0  0  0  0
  -26.6370  -31.5610   25.2960 C   0  0  1  0  0  0  0  0  0  0  0  0
  -25.5100  -31.3060   26.3240 C   0  0  0  0  0  1  0  0  0  0  0  0
  -27.2090  -30.1880   24.8740 C   0  0  0  0  0  1  0  0  0  0  0  0
  -27.7810  -32.3100   26.0180 C   0  0  0  0  0  1  0  0  0  0  0  0
  -25.8740  -33.7760   24.4060 N   0  0  0  0  0  0  0  0  0  0  0  0
  -26.2180  -34.8490   23.6820 C   0  0  0  0  0  0  0  0  0  0  0  0
  -26.8890  -34.7720   22.6500 O   0  0  0  0  0  0  0  0  0  0  0  0
  -25.2790  -33.9110   25.2100 H   0  0  0  0  0  0  0  0  0  0  0  0
  -24.4980  -36.6620   23.3950 C   0  0  0  0  0  1  0  0  0  0  0  0
  -25.7440  -36.2280   24.1830 C   0  0  0  0  0  3  0  0  0  0  0  0
  -27.8900  -37.0810   25.0180 C   0  0  0  0  0  1  0  0  0  0  0  0
  -26.7810  -37.2780   24.0870 N   0  0  0  0  0  0  0  0  0  0  0  0
  -26.3810  -38.1960   24.2600 H   0  0  0  0  0  0  0  0  0  0  0  0
  -30.3070  -17.3130   18.0730 N   0  0  0  0  0  0  0  0  0  0  0  0
  -29.9820  -17.7600   17.2210 H   0  0  0  0  0  0  0  0  0  0  0  0
  -30.2150  -16.3040   18.0660 H   0  0  0  0  0  0  0  0  0  0  0  0
  1  4  2  0
  1  3  1  0
  2  6  1  0
  3  2  2  0
  4  5  1  0
  5 16  1  0
  5  6  2  0
  6  7  1  0
  8 16  1  0
  9 14  1  0
 10 11  1  0
 10  9  1  0
 12 11  1  0
 12 21  1  0
 12 13  1  0
 14  8  1  0
 14 13  1  0
 15  8  2  0
 16 17  1  0
 18 19  2  0
 19 38  1  0
 20 19  1  0
 20 23  1  0
 21 22  1  0
 21 18  1  0
 22 20  2  0
 23 24  1  0
 24 25  2  0
 26 29  1  0
 26 25  1  0
 27 26  2  0
 28 27  1  0
 28 23  2  0
 29 30  1  0
 30 35  2  0
 30 31  1  0
 31 32  2  0
 32 33  1  0
 33 37  1  0
 34 33  2  0
 35 34  1  0
 36 35  1  0
 38 39  1  0
 39 42  1  0
 39 41  1  0
 40 38  2  0
 43 18  1  0
 43 44  1  0
 45 43  1  0
 46 51  2  0
 47 48  1  0
 47 50  1  0
 48 49  1  1
 48 46  1  0
 50  3  1  0
 50 46  1  0
 52 48  1  0
 52 53  1  0
 54 65  2  0
 55 53  1  0
 55 60  1  0
 56 64  1  0
 56 66  1  0
 57 63  1  0
 57 59  1  0
 58 64  1  0
 59 58  1  0
 60 59  2  0
 61 62  1  0
 61 55  2  0
 62 57  2  0
 63 56  1  0
 64 54  1  0
 66 68  2  0
 67 66  1  0
 69 67  1  0
 70 79  2  0
 70 75  1  0
 71 67  1  0
 71 75  1  0
 72 71  1  0
 73 74  1  0
 73 72  1  0
 74 70  1  0
 75 76  2  0
 76 77  1  0
 78 77  2  0
 79 78  1  0
 80 54  1  0
 80 85  1  0
 80 81  1  0
 81 84  1  1
 81 82  1  0
 83 81  1  0
 85 88  1  0
 86 90  1  0
 86 85  1  0
 87 86  2  0
 90 89  1  0
 92 90  1  0
 92 93  1  0
 92 91  1  0
 94  4  1  0
 95 94  1  0
 96 94  1  0
M  ISO  4   8 100  16 100  52 101  53 101
M  END
>  <TORSDO>  (15) 
F 19

>  <SCORE>  (15) 
-13.319

>  <name>  (15) 
14

>  <ligand_id>  (15) 
14

>  <original_smiles>  (15) 
[H]c1c([H])c([H])c2c(c1[H])C([H])([H])C([H])([H])C([H])([H])C2([H])N([H])C(=O)C1([H])N(C(=O)C([H])(N([H])C(=O)C([H])(N([H])C([H])([H])[H])C([H])([H])[H])C(C([H])([H])[H])(C([H])([H])[H])C([H])([H])[H])C([H])([H])c2c([H])c(OC([H])([H])C3(C([H])([H])[H])C(=O)N(c4c([H])c(F)c(N([H])C(=O)N5C([H])([H])C([H])([H])C([H])([H])C([H])(n6nc(-c7c([H])c([H])c(Oc8c([H])c([H])c(F)c([H])c8F)c([H])c7[H])c(C(=O)N([H])[H])c6N([H])[H])C5([H])[H])c(N([H])[H])c4[H])C3([H])[H])c([H])c([H])c2C1([H])[H]

>  <smiles>  (15) 
[H]c1c([H])c([H])c2c(c1[H])C([H])([H])C([H])([H])C([H])([H])C2([H])N([H])C(=O)C1([H])N(C(=O)C([H])(N([H])C(=O)C([H])(N([H])C([H])([H])[H])C([H])([H])[H])C(C([H])([H])[H])(C([H])([H])[H])C([H])([H])[H])C([H])([H])c2c([H])c(OC([H])([H])C3(C([H])([H])[H])C(=O)N(c4c([H])c(F)c(N([H])C(=O)N5C([H])([H])C([H])([H])C([H])([H])C([H])(n6nc(-c7c([H])c([H])c(Oc8c([H])c([H])c(F)c([H])c8F)c([H])c7[H])c(C(=O)N([H])[H])c6N([H])[H])C5([H])[H])c(N([H])[H])c4[H])C3([H])[H])c([H])c([H])c2C1([H])[H]

$$$$
15:0:0
     RDKit          3D

 99108  0  0  1  0  0  0  0  0999 V2000
  -30.6860  -19.6320   19.5670 C   0  0  0  0  0  3  0  0  0  0  0  0
  -30.9400  -20.9260   19.0870 C   0  0  0  0  0  3  0  0  0  0  0  0
  -31.0260  -21.7450   21.3730 C   0  0  0  0  0  3  0  0  0  0  0  0
  -30.6470  -19.3500   20.9570 C   0  0  0  0  0  0  0  0  0  0  0  0
  -31.1370  -21.9920   19.9870 C   0  0  0  0  0  0  0  0  0  0  0  0
  -30.7810  -20.4420   21.8640 C   0  0  0  0  0  0  0  0  0  0  0  0
  -31.2500  -25.7010   17.9660 C   0  0  0  0  0  3  0  0  0  0  0  0
  -30.2040  -25.3890   18.7460 C   0  0  0  0  0  0  0  0  0  0  0  0
  -32.5020  -23.6280   18.8010 C   0  0  0  0  0  0  0  0  0  0  0  0
  -32.5900  -25.0290   18.1800 C   0  0  0  0  0  2  0  0  0  0  0  0
  -30.3670  -24.3340   19.8290 C   0  0  0  0  0  2  0  0  0  0  0  0
  -31.3740  -23.3100   19.4970 N   0  0  0  0  0  0  0  0  0  0  0  0
  -33.4520  -22.8540   18.6420 O   0  0  0  0  0  0  0  0  0  0  0  0
  -28.8260  -26.0010   18.6160 C   0  0  0  0  0  2  0  0  0  0  0  0
  -28.4960  -26.6780   19.8210 O   0  0  0  0  0  0  0  0  0  0  0  0
  -24.7010  -31.6630   23.1400 C   0  0  0  0  0  0  0  0  0  0  0  0
  -27.3020  -27.3560   19.8550 C   0  0  0  0  0  0  0  0  0  0  0  0
  -23.4650  -30.3180   21.4690 C   0  0  0  0  0  3  0  0  0  0  0  0
  -24.8940  -28.8260   19.9760 C   0  0  0  0  0  0  0  0  0  0  0  0
  -25.9850  -30.6840   21.2470 C   0  0  0  0  0  2  0  0  0  0  0  0
  -26.0570  -29.3340   20.5690 C   0  0  0  0  0  0  0  0  0  0  0  0
  -27.2570  -28.5970   20.5250 C   0  0  0  0  0  3  0  0  0  0  0  0
  -26.1200  -26.8470   19.2710 C   0  0  0  0  0  3  0  0  0  0  0  0
  -24.9160  -27.5770   19.3330 C   0  0  0  0  0  3  0  0  0  0  0  0
  -23.6530  -29.6830   20.0650 C   0  0  0  0  0  2  0  0  0  0  0  0
  -24.7360  -30.9010   22.0110 N   0  0  0  0  0  0  0  0  0  0  0  0
  -23.6300  -31.9190   23.7050 O   0  0  0  0  0  0  0  0  0  0  0  0
  -22.8270  -29.2680   22.4040 C   0  0  0  0  0  0  0  0  0  0  0  0
  -21.5050  -29.0800   22.2710 N   0  0  0  0  0  0  0  0  0  0  0  0
  -23.5180  -28.6270   23.2010 O   0  0  0  0  0  0  0  0  0  0  0  0
  -21.0110  -29.6480   21.5970 H   0  0  0  0  0  0  0  0  0  0  0  0
  -18.1430  -27.8420   22.7170 C   0  0  0  0  0  0  0  0  0  0  0  0
  -20.6940  -28.1190   23.0170 C   0  0  0  0  0  3  0  0  0  0  0  0
  -20.8180  -26.7020   22.4130 C   0  0  0  0  0  2  0  0  0  0  0  0
  -19.7280  -26.3890   21.3830 C   0  0  0  0  0  2  0  0  0  0  0  0
  -18.3400  -26.5080   22.0180 C   0  0  0  0  0  2  0  0  0  0  0  0
  -19.2510  -28.6050   23.1720 C   0  0  0  0  0  0  0  0  0  0  0  0
  -19.0130  -29.8560   23.7830 C   0  0  0  0  0  3  0  0  0  0  0  0
  -17.7030  -30.3420   23.9460 C   0  0  0  0  0  3  0  0  0  0  0  0
  -16.6090  -29.5730   23.5100 C   0  0  0  0  0  3  0  0  0  0  0  0
  -16.8300  -28.3260   22.9000 C   0  0  0  0  0  3  0  0  0  0  0  0
  -26.0020  -32.2650   23.7610 C   0  0  0  0  0  3  0  0  0  0  0  0
  -25.7080  -33.6560   24.1310 N   0  0  0  0  0  0  0  0  0  0  0  0
  -26.0340  -34.7260   23.3940 C   0  0  0  0  0  0  0  0  0  0  0  0
  -26.6910  -34.6450   22.3530 O   0  0  0  0  0  0  0  0  0  0  0  0
  -25.1250  -33.7920   24.9450 H   0  0  0  0  0  0  0  0  0  0  0  0
  -24.3080  -36.5330   23.1100 C   0  0  0  0  0  1  0  0  0  0  0  0
  -25.5590  -36.1030   23.8940 C   0  0  0  0  0  3  0  0  0  0  0  0
  -27.7050  -36.9620   24.7190 C   0  0  0  0  0  1  0  0  0  0  0  0
  -26.5930  -37.1550   23.7930 N   0  0  0  0  0  0  0  0  0  0  0  0
  -26.1900  -38.0720   23.9700 H   0  0  0  0  0  0  0  0  0  0  0  0
  -26.5320  -31.4530   25.0060 C   0  0  1  0  0  0  0  0  0  0  0  0
  -25.4550  -31.1910   26.0830 C   0  0  0  0  0  1  0  0  0  0  0  0
  -27.0950  -30.0820   24.5600 C   0  0  0  0  0  1  0  0  0  0  0  0
  -27.6960  -32.2180   25.6760 C   0  0  0  0  0  1  0  0  0  0  0  0
  -30.7000  -20.2880   23.2510 N   0  0  0  0  0  0  0  0  0  0  0  0
  -30.4090  -21.0920   23.8000 H   0  0  0  0  0  0  0  0  0  0  0  0
  -30.2850  -19.4230   23.5910 H   0  0  0  0  0  0  0  0  0  0  0  0
  -30.4240  -17.9260   21.3900 C   0  0  0  0  0  0  0  0  0  0  0  0
  -29.6930  -17.5880   22.3300 O   0  0  0  0  0  0  0  0  0  0  0  0
  -31.2320  -16.8560   20.6490 C   0  0  0  0  0  2  0  0  0  0  0  0
  -31.2150  -14.4770   20.1550 C   0  0  0  0  0  0  0  0  0  0  0  0
  -30.6990  -12.4300   18.9160 C   0  0  0  0  0  2  0  0  0  0  0  0
  -29.7280  -12.7730   17.7720 C   0  0  0  0  0  2  0  0  0  0  0  0
  -28.2720  -12.6860   18.2610 C   0  0  0  0  0  2  0  0  0  0  0  0
  -28.0360  -13.4580   19.5860 C   0  0  0  0  0  3  0  0  0  0  0  0
  -29.1290  -13.1320   20.6320 C   0  0  0  0  0  2  0  0  0  0  0  0
  -30.4450  -13.3720   20.0140 N   0  0  0  0  0  0  0  0  0  0  0  0
  -32.2980  -14.6210   19.5800 O   0  0  0  0  0  0  0  0  0  0  0  0
  -30.6790  -15.5070   20.8110 N   0  0  0  0  0  0  0  0  0  0  0  0
  -29.7870  -15.4150   21.2710 H   0  0  0  0  0  0  0  0  0  0  0  0
  -25.6860  -14.1230   20.4040 C   0  0  0  0  0  0  0  0  0  0  0  0
  -24.6090  -13.3720   20.7960 C   0  0  0  0  0  0  0  0  0  0  0  0
  -25.0260  -12.0080   20.7150 C   0  0  0  0  0  0  0  0  0  0  0  0
  -26.6930  -13.2150   20.1110 N   0  0  0  0  0  0  0  0  0  0  0  0
  -26.3010  -11.9370   20.3510 N   0  0  0  0  0  0  0  0  0  0  0  0
  -24.2700  -10.7630   20.9090 C   0  0  0  0  0  0  0  0  0  0  0  0
  -24.6850   -9.7840   21.8390 C   0  0  0  0  0  3  0  0  0  0  0  0
  -23.9330   -8.6020   22.0170 C   0  0  0  0  0  3  0  0  0  0  0  0
  -22.7540   -8.3920   21.2640 C   0  0  0  0  0  0  0  0  0  0  0  0
  -22.3560   -9.3600   20.3250 C   0  0  0  0  0  3  0  0  0  0  0  0
  -23.1080  -10.5340   20.1450 C   0  0  0  0  0  3  0  0  0  0  0  0
  -21.9730   -7.2650   21.3550 O   0  0  0  0  0  0  0  0  0  0  0  0
  -21.8690   -6.5520   22.5220 C   0  0  0  0  0  0  0  0  0  0  0  0
  -21.3970   -7.1420   23.7140 C   0  0  0  0  0  3  0  0  0  0  0  0
  -21.2380   -6.3550   24.8730 C   0  0  0  0  0  3  0  0  0  0  0  0
  -21.5410   -4.9810   24.8390 C   0  0  0  0  0  0  0  0  0  0  0  0
  -22.0060   -4.3910   23.6500 C   0  0  0  0  0  3  0  0  0  0  0  0
  -22.1660   -5.1750   22.4940 C   0  0  0  0  0  0  0  0  0  0  0  0
  -22.5940   -4.5980   21.3460 F   0  0  0  0  0  0  0  0  0  0  0  0
  -21.3820   -4.2230   25.9500 F   0  0  0  0  0  0  0  0  0  0  0  0
  -23.2390  -13.8840   21.1370 C   0  0  0  0  0  0  0  0  0  0  0  0
  -22.5290  -13.1970   22.0270 N   0  0  0  0  0  0  0  0  0  0  0  0
  -22.8070  -14.9270   20.6490 O   0  0  0  0  0  0  0  0  0  0  0  0
  -22.8900  -12.3520   22.4440 H   0  0  0  0  0  0  0  0  0  0  0  0
  -21.6100  -13.5210   22.2940 H   0  0  0  0  0  0  0  0  0  0  0  0
  -25.8840  -15.4910   20.2550 N   0  0  0  0  0  0  0  0  0  0  0  0
  -25.1460  -16.1660   20.4220 H   0  0  0  0  0  0  0  0  0  0  0  0
  -26.7390  -15.9180   19.9210 H   0  0  0  0  0  0  0  0  0  0  0  0
  1  4  1  0
  2  1  2  0
  2  5  1  0
  3  6  1  0
  4 59  1  0
  4  6  2  0
  5  3  2  0
  6 56  1  0
  7 10  1  0
  7  8  2  0
  8 11  1  0
  9 12  1  0
 10  9  1  0
 12 11  1  0
 12  5  1  0
 13  9  2  0
 14  8  1  0
 14 15  1  0
 15 17  1  0
 16 27  2  0
 17 22  1  0
 18 26  1  0
 18 28  1  0
 19 25  1  0
 19 21  1  0
 20 26  1  0
 21 20  1  0
 22 21  2  0
 23 24  1  0
 23 17  2  0
 24 19  2  0
 25 18  1  0
 26 16  1  0
 28 30  2  0
 29 28  1  0
 31 29  1  0
 32 41  2  0
 32 37  1  0
 33 29  1  0
 33 37  1  0
 34 33  1  0
 35 36  1  0
 35 34  1  0
 36 32  1  0
 37 38  2  0
 38 39  1  0
 40 39  2  0
 41 40  1  0
 42 16  1  0
 42 43  1  0
 42 52  1  0
 43 46  1  0
 44 48  1  0
 44 43  1  0
 45 44  2  0
 48 47  1  0
 50 48  1  0
 50 51  1  0
 50 49  1  0
 52 55  1  1
 52 53  1  0
 54 52  1  0
 56 58  1  0
 56 57  1  0
 59 60  2  0
 61 70  1  0
 61 59  1  0
 62 70  1  0
 63 68  1  0
 64 65  1  0
 64 63  1  0
 66 65  1  0
 66 75  1  0
 66 67  1  0
 68 62  1  0
 68 67  1  0
 69 62  2  0
 70 71  1  0
 72 73  2  0
 73 92  1  0
 74 73  1  0
 74 77  1  0
 75 76  1  0
 75 72  1  0
 76 74  2  0
 77 78  1  0
 78 79  2  0
 80 83  1  0
 80 79  1  0
 81 80  2  0
 82 81  1  0
 82 77  2  0
 83 84  1  0
 84 85  1  0
 85 86  2  0
 87 86  1  0
 87 91  1  0
 88 87  2  0
 89 84  2  0
 89 88  1  0
 90 89  1  0
 92 93  1  0
 93 96  1  0
 93 95  1  0
 94 92  2  0
 97 72  1  0
 97 98  1  0
 99 97  1  0
M  ISO  4  14 101  15 101  62 100  70 100
M  END
>  <TORSDO>  (16) 
F 21

>  <SCORE>  (16) 
-13.021

>  <name>  (16) 
15

>  <ligand_id>  (16) 
15

>  <original_smiles>  (16) 
[H]C1=C(C([H])([H])Oc2c([H])c([H])c3c(c2[H])C([H])([H])N(C(=O)C([H])(N([H])C(=O)C([H])(N([H])C([H])([H])[H])C([H])([H])[H])C(C([H])([H])[H])(C([H])([H])[H])C([H])([H])[H])C([H])(C(=O)N([H])C2([H])c4c([H])c([H])c([H])c([H])c4C([H])([H])C([H])([H])C2([H])[H])C3([H])[H])C([H])([H])N(c2c([H])c([H])c(C(=O)C([H])([H])N([H])C(=O)N3C([H])([H])C([H])([H])C([H])([H])C([H])(n4nc(-c5c([H])c([H])c(Oc6c([H])c([H])c(F)c([H])c6F)c([H])c5[H])c(C(=O)N([H])[H])c4N([H])[H])C3([H])[H])c(N([H])[H])c2[H])C(=O)C1([H])[H]

>  <smiles>  (16) 
[H]C1=C(C([H])([H])Oc2c([H])c([H])c3c(c2[H])C([H])([H])N(C(=O)C([H])(N([H])C(=O)C([H])(N([H])C([H])([H])[H])C([H])([H])[H])C(C([H])([H])[H])(C([H])([H])[H])C([H])([H])[H])C([H])(C(=O)N([H])C2([H])c4c([H])c([H])c([H])c([H])c4C([H])([H])C([H])([H])C2([H])[H])C3([H])[H])C([H])([H])N(c2c([H])c([H])c(C(=O)C([H])([H])N([H])C(=O)N3C([H])([H])C([H])([H])C([H])([H])C([H])(n4nc(-c5c([H])c([H])c(Oc6c([H])c([H])c(F)c([H])c6F)c([H])c5[H])c(C(=O)N([H])[H])c4N([H])[H])C3([H])[H])c(N([H])[H])c2[H])C(=O)C1([H])[H]

$$$$
16:0:0
     RDKit          3D

 97106  0  0  1  0  0  0  0  0999 V2000
  -28.6490  -22.9210   20.1030 C   0  0  0  0  0  0  0  0  0  0  0  0
  -27.4790  -22.4820   19.3510 C   0  0  0  0  0  0  0  0  0  0  0  0
  -29.3250  -21.6970   20.5730 C   0  0  0  0  0  0  0  0  0  0  0  0
  -29.1120  -24.2160   20.2150 C   0  0  0  0  0  0  0  0  0  0  0  0
  -27.5110  -20.9680   19.2710 C   0  0  0  0  0  2  0  0  0  0  0  0
  -30.3670  -24.5810   21.0030 C   0  0  0  0  0  1  0  0  0  0  0  0
  -28.6950  -20.6010   20.0540 N   0  0  0  0  0  0  0  0  0  0  0  0
  -26.5710  -23.1620   18.8610 O   0  0  0  0  0  0  0  0  0  0  0  0
  -30.3250  -21.6160   21.2940 O   0  0  0  0  0  0  0  0  0  0  0  0
  -30.2120  -19.4470   18.5710 C   0  0  0  0  0  3  0  0  0  0  0  0
  -30.7780  -17.0910   18.7980 C   0  0  0  0  0  3  0  0  0  0  0  0
  -29.2790  -18.1330   20.4170 C   0  0  0  0  0  3  0  0  0  0  0  0
  -30.9010  -18.3140   18.1150 C   0  0  0  0  0  0  0  0  0  0  0  0
  -29.4010  -19.3840   19.7220 C   0  0  0  0  0  0  0  0  0  0  0  0
  -29.9820  -16.9650   19.9660 C   0  0  0  0  0  0  0  0  0  0  0  0
  -30.6190  -14.5600   20.3990 C   0  0  0  0  0  0  0  0  0  0  0  0
  -30.3520  -12.3510   19.3520 C   0  0  0  0  0  2  0  0  0  0  0  0
  -29.4290  -12.5300   18.1270 C   0  0  0  0  0  2  0  0  0  0  0  0
  -27.9470  -12.4130   18.5350 C   0  0  0  0  0  2  0  0  0  0  0  0
  -27.5950  -13.2640   19.7870 C   0  0  0  0  0  3  0  0  0  0  0  0
  -28.6410  -13.0780   20.9100 C   0  0  0  0  0  2  0  0  0  0  0  0
  -29.9610  -13.3680   20.3420 N   0  0  0  0  0  0  0  0  0  0  0  0
  -31.8080  -14.6520   20.0780 O   0  0  0  0  0  0  0  0  0  0  0  0
  -29.8510  -15.6680   20.6130 N   0  0  0  0  0  0  0  0  0  0  0  0
  -28.9750  -15.4950   21.0830 H   0  0  0  0  0  0  0  0  0  0  0  0
  -25.2030  -13.8850   20.4800 C   0  0  0  0  0  0  0  0  0  0  0  0
  -24.1300  -13.1210   20.8490 C   0  0  0  0  0  0  0  0  0  0  0  0
  -24.5830  -11.7650   20.8350 C   0  0  0  0  0  0  0  0  0  0  0  0
  -26.2420  -12.9950   20.2620 N   0  0  0  0  0  0  0  0  0  0  0  0
  -25.8760  -11.7170   20.5370 N   0  0  0  0  0  0  0  0  0  0  0  0
  -23.8470  -10.5090   21.0280 C   0  0  0  0  0  0  0  0  0  0  0  0
  -24.2740   -9.5420   21.9640 C   0  0  0  0  0  3  0  0  0  0  0  0
  -23.5410   -8.3500   22.1450 C   0  0  0  0  0  3  0  0  0  0  0  0
  -22.3680   -8.1180   21.3900 C   0  0  0  0  0  0  0  0  0  0  0  0
  -21.9600   -9.0750   20.4420 C   0  0  0  0  0  3  0  0  0  0  0  0
  -22.6950  -10.2580   20.2600 C   0  0  0  0  0  3  0  0  0  0  0  0
  -21.6070   -6.9790   21.4820 O   0  0  0  0  0  0  0  0  0  0  0  0
  -21.5560   -6.2340   22.6330 C   0  0  0  0  0  0  0  0  0  0  0  0
  -21.1370   -6.7910   23.8610 C   0  0  0  0  0  3  0  0  0  0  0  0
  -21.0330   -5.9730   25.0040 C   0  0  0  0  0  3  0  0  0  0  0  0
  -21.3380   -4.6010   24.9210 C   0  0  0  0  0  0  0  0  0  0  0  0
  -21.7510   -4.0440   23.6990 C   0  0  0  0  0  3  0  0  0  0  0  0
  -21.8540   -4.8580   22.5550 C   0  0  0  0  0  0  0  0  0  0  0  0
  -22.2300   -4.3120   21.3740 F   0  0  0  0  0  0  0  0  0  0  0  0
  -21.2300   -3.8150   26.0170 F   0  0  0  0  0  0  0  0  0  0  0  0
  -22.7340  -13.6090   21.1110 C   0  0  0  0  0  0  0  0  0  0  0  0
  -21.9950  -12.9220   21.9750 N   0  0  0  0  0  0  0  0  0  0  0  0
  -22.3080  -14.6340   20.5830 O   0  0  0  0  0  0  0  0  0  0  0  0
  -22.3530  -12.0920   22.4240 H   0  0  0  0  0  0  0  0  0  0  0  0
  -21.0610  -13.2360   22.1940 H   0  0  0  0  0  0  0  0  0  0  0  0
  -25.3800  -15.2530   20.2940 N   0  0  0  0  0  0  0  0  0  0  0  0
  -24.6280  -15.9260   20.3910 H   0  0  0  0  0  0  0  0  0  0  0  0
  -26.2390  -15.6710   19.9580 H   0  0  0  0  0  0  0  0  0  0  0  0
  -31.7320  -18.4050   16.9290 C   0  0  0  0  0  0  0  0  0  0  0  0
  -32.3950  -18.4800   15.9790 N   0  0  0  0  0  0  0  0  0  0  0  0
  -28.5920  -25.4400   19.4150 C   0  0  0  0  0  2  0  0  0  0  0  0
  -28.4140  -26.6590   20.1870 O   0  0  0  0  0  0  0  0  0  0  0  0
  -24.6020  -31.8770   23.2310 C   0  0  0  0  0  0  0  0  0  0  0  0
  -27.2340  -27.3920   20.1460 C   0  0  0  0  0  0  0  0  0  0  0  0
  -23.3950  -30.4740   21.5930 C   0  0  0  0  0  3  0  0  0  0  0  0
  -24.8450  -28.9360   20.1660 C   0  0  0  0  0  0  0  0  0  0  0  0
  -25.9260  -30.8230   21.3960 C   0  0  0  0  0  2  0  0  0  0  0  0
  -26.0080  -29.4490   20.7520 C   0  0  0  0  0  0  0  0  0  0  0  0
  -27.2020  -28.6820   20.7380 C   0  0  0  0  0  3  0  0  0  0  0  0
  -26.0370  -26.9030   19.5700 C   0  0  0  0  0  3  0  0  0  0  0  0
  -24.8560  -27.6650   19.5740 C   0  0  0  0  0  3  0  0  0  0  0  0
  -23.6040  -29.7990   20.2130 C   0  0  0  0  0  2  0  0  0  0  0  0
  -24.6600  -31.0740   22.1320 N   0  0  0  0  0  0  0  0  0  0  0  0
  -23.5190  -32.1500   23.7700 O   0  0  0  0  0  0  0  0  0  0  0  0
  -22.7450  -29.4510   22.5550 C   0  0  0  0  0  0  0  0  0  0  0  0
  -21.4190  -29.2720   22.4330 N   0  0  0  0  0  0  0  0  0  0  0  0
  -23.4290  -28.8240   23.3670 O   0  0  0  0  0  0  0  0  0  0  0  0
  -20.9270  -29.8340   21.7520 H   0  0  0  0  0  0  0  0  0  0  0  0
  -18.0430  -28.0900   22.9410 C   0  0  0  0  0  0  0  0  0  0  0  0
  -20.6030  -28.3340   23.2020 C   0  0  0  0  0  3  0  0  0  0  0  0
  -20.6950  -26.9040   22.6200 C   0  0  0  0  0  2  0  0  0  0  0  0
  -19.5860  -26.5910   21.6100 C   0  0  0  0  0  2  0  0  0  0  0  0
  -18.2090  -26.7420   22.2620 C   0  0  0  0  0  2  0  0  0  0  0  0
  -19.1670  -28.8450   23.3690 C   0  0  0  0  0  0  0  0  0  0  0  0
  -18.9570  -30.1080   23.9630 C   0  0  0  0  0  3  0  0  0  0  0  0
  -17.6560  -30.6150   24.1360 C   0  0  0  0  0  3  0  0  0  0  0  0
  -16.5460  -29.8550   23.7270 C   0  0  0  0  0  3  0  0  0  0  0  0
  -16.7400  -28.5960   23.1340 C   0  0  0  0  0  3  0  0  0  0  0  0
  -25.8860  -32.5110   23.8520 C   0  0  0  0  0  3  0  0  0  0  0  0
  -26.4010  -31.7440   25.1290 C   0  0  1  0  0  0  0  0  0  0  0  0
  -25.3090  -31.5110   26.2010 C   0  0  0  0  0  1  0  0  0  0  0  0
  -26.9830  -30.3650   24.7410 C   0  0  0  0  0  1  0  0  0  0  0  0
  -27.5510  -32.5410   25.7890 C   0  0  0  0  0  1  0  0  0  0  0  0
  -25.5740  -33.9100   24.1740 N   0  0  0  0  0  0  0  0  0  0  0  0
  -25.9070  -34.9600   23.4130 C   0  0  0  0  0  0  0  0  0  0  0  0
  -26.5810  -34.8530   22.3840 O   0  0  0  0  0  0  0  0  0  0  0  0
  -24.9750  -34.0650   24.9720 H   0  0  0  0  0  0  0  0  0  0  0  0
  -24.1820  -36.7530   23.0450 C   0  0  0  0  0  1  0  0  0  0  0  0
  -25.4170  -36.3500   23.8640 C   0  0  0  0  0  3  0  0  0  0  0  0
  -27.5500  -37.2360   24.7010 C   0  0  0  0  0  1  0  0  0  0  0  0
  -26.4520  -37.4030   23.7540 N   0  0  0  0  0  0  0  0  0  0  0  0
  -26.0440  -38.3230   23.8990 H   0  0  0  0  0  0  0  0  0  0  0  0
  1  4  2  0
  1  3  1  0
  2  1  1  0
  3  9  2  0
  4  6  1  0
  5  2  1  0
  5  7  1  0
  7  3  1  0
  8  2  2  0
 10 14  1  0
 11 15  2  0
 13 10  2  0
 13 11  1  0
 14  7  1  0
 14 12  2  0
 15 12  1  0
 15 24  1  0
 16 24  1  0
 17 22  1  0
 18 19  1  0
 18 17  1  0
 20 19  1  0
 20 29  1  0
 20 21  1  0
 22 16  1  0
 22 21  1  0
 23 16  2  0
 24 25  1  0
 26 27  2  0
 27 46  1  0
 28 27  1  0
 28 31  1  0
 29 26  1  0
 29 30  1  0
 30 28  2  0
 31 32  1  0
 32 33  2  0
 34 37  1  0
 34 33  1  0
 35 34  2  0
 36 35  1  0
 36 31  2  0
 37 38  1  0
 38 39  1  0
 39 40  2  0
 41 40  1  0
 41 45  1  0
 42 41  2  0
 43 38  2  0
 43 42  1  0
 44 43  1  0
 46 47  1  0
 47 50  1  0
 47 49  1  0
 48 46  2  0
 51 52  1  0
 51 26  1  0
 53 51  1  0
 54 13  1  0
 55 54  3  0
 56 57  1  0
 56  4  1  0
 58 69  2  0
 59 57  1  0
 59 64  1  0
 60 68  1  0
 60 70  1  0
 61 67  1  0
 61 63  1  0
 62 68  1  0
 63 62  1  0
 64 63  2  0
 65 66  1  0
 65 59  2  0
 66 61  2  0
 67 60  1  0
 68 58  1  0
 70 72  2  0
 71 70  1  0
 73 71  1  0
 74 83  2  0
 74 79  1  0
 75 71  1  0
 75 79  1  0
 76 75  1  0
 77 78  1  0
 77 76  1  0
 78 74  1  0
 79 80  2  0
 80 81  1  0
 82 81  2  0
 83 82  1  0
 84 58  1  0
 84 89  1  0
 84 85  1  0
 85 88  1  1
 85 86  1  0
 87 85  1  0
 89 92  1  0
 90 94  1  0
 90 89  1  0
 91 90  2  0
 94 93  1  0
 96 94  1  0
 96 97  1  0
 96 95  1  0
M  ISO  4  16 100  24 100  56 101  57 101
M  END
>  <TORSDO>  (17) 
F 19

>  <SCORE>  (17) 
-14.640

>  <name>  (17) 
16

>  <ligand_id>  (17) 
16

>  <original_smiles>  (17) 
[H]c1c([H])c([H])c2c(c1[H])C([H])([H])C([H])([H])C([H])([H])C2([H])N([H])C(=O)C1([H])N(C(=O)C([H])(N([H])C(=O)C([H])(N([H])C([H])([H])[H])C([H])([H])[H])C(C([H])([H])[H])(C([H])([H])[H])C([H])([H])[H])C([H])([H])c2c([H])c(OC([H])([H])C(=C3C(=O)N(c4c([H])c(C#N)c([H])c(N([H])C(=O)N5C([H])([H])C([H])([H])C([H])([H])C([H])(n6nc(-c7c([H])c([H])c(Oc8c([H])c([H])c(F)c([H])c8F)c([H])c7[H])c(C(=O)N([H])[H])c6N([H])[H])C5([H])[H])c4[H])C([H])([H])C3=O)C([H])([H])[H])c([H])c([H])c2C1([H])[H]

>  <smiles>  (17) 
[H]c1c([H])c([H])c2c(c1[H])C([H])([H])C([H])([H])C([H])([H])C2([H])N([H])C(=O)C1([H])N(C(=O)C([H])(N([H])C(=O)C([H])(N([H])C([H])([H])[H])C([H])([H])[H])C(C([H])([H])[H])(C([H])([H])[H])C([H])([H])[H])C([H])([H])c2c([H])c(OC([H])([H])C(=C3C(=O)N(c4c([H])c(C#N)c([H])c(N([H])C(=O)N5C([H])([H])C([H])([H])C([H])([H])C([H])(n6nc(-c7c([H])c([H])c(Oc8c([H])c([H])c(F)c([H])c8F)c([H])c7[H])c(C(=O)N([H])[H])c6N([H])[H])C5([H])[H])c4[H])C([H])([H])C3=O)C([H])([H])[H])c([H])c([H])c2C1([H])[H]

$$$$
17:0:0
     RDKit          3D

 95104  0  0  1  0  0  0  0  0999 V2000
  -29.9340  -22.9060   19.4580 C   0  0  0  0  0  0  0  0  0  0  0  0
  -28.9450  -22.5790   21.1930 C   0  0  0  0  0  0  0  0  0  0  0  0
  -29.4230  -23.9190   20.5340 C   0  0  0  0  0  3  0  0  0  0  0  0
  -29.7430  -21.7970   20.3260 N   0  0  0  0  0  0  0  0  0  0  0  0
  -30.3500  -22.9740   18.3190 O   0  0  0  0  0  0  0  0  0  0  0  0
  -28.1960  -22.2600   22.0950 O   0  0  0  0  0  0  0  0  0  0  0  0
  -30.6680  -19.7700   19.0690 C   0  0  0  0  0  3  0  0  0  0  0  0
  -30.8870  -18.3720   18.8860 C   0  0  0  0  0  3  0  0  0  0  0  0
  -29.7630  -19.3470   21.2080 C   0  0  0  0  0  3  0  0  0  0  0  0
  -30.0450  -20.3480   20.2150 C   0  0  0  0  0  0  0  0  0  0  0  0
  -30.4940  -17.3870   19.8370 C   0  0  0  0  0  0  0  0  0  0  0  0
  -29.9650  -17.9300   21.0410 C   0  0  0  0  0  0  0  0  0  0  0  0
  -31.0960  -14.8620   19.8750 C   0  0  0  0  0  0  0  0  0  0  0  0
  -30.8570  -12.5270   19.0330 C   0  0  0  0  0  2  0  0  0  0  0  0
  -29.8720  -12.4640   17.8430 C   0  0  0  0  0  2  0  0  0  0  0  0
  -28.4040  -12.4050   18.3280 C   0  0  0  0  0  2  0  0  0  0  0  0
  -28.0720  -13.3450   19.5230 C   0  0  0  0  0  3  0  0  0  0  0  0
  -29.1850  -13.3340   20.5910 C   0  0  0  0  0  2  0  0  0  0  0  0
  -30.4450  -13.6460   19.9040 N   0  0  0  0  0  0  0  0  0  0  0  0
  -32.3220  -14.8920   19.7350 O   0  0  0  0  0  0  0  0  0  0  0  0
  -30.0180  -15.8900   17.9970 C   0  0  0  0  0  1  0  0  0  0  0  0
  -30.3590  -15.9640   19.4350 N   0  0  0  0  0  0  0  0  0  0  0  0
  -25.7360  -13.9860   20.3560 C   0  0  0  0  0  0  0  0  0  0  0  0
  -24.6640  -13.2310   20.7440 C   0  0  0  0  0  0  0  0  0  0  0  0
  -25.0930  -11.8710   20.6750 C   0  0  0  0  0  0  0  0  0  0  0  0
  -26.7490  -13.0830   20.0740 N   0  0  0  0  0  0  0  0  0  0  0  0
  -26.3720  -11.8070   20.3290 N   0  0  0  0  0  0  0  0  0  0  0  0
  -24.3460  -10.6220   20.8650 C   0  0  0  0  0  0  0  0  0  0  0  0
  -24.7290   -9.6760   21.8400 C   0  0  0  0  0  3  0  0  0  0  0  0
  -23.9830   -8.4920   22.0190 C   0  0  0  0  0  3  0  0  0  0  0  0
  -22.8400   -8.2460   21.2190 C   0  0  0  0  0  0  0  0  0  0  0  0
  -22.4780   -9.1810   20.2340 C   0  0  0  0  0  3  0  0  0  0  0  0
  -23.2250  -10.3560   20.0550 C   0  0  0  0  0  3  0  0  0  0  0  0
  -22.0690   -7.1120   21.3060 O   0  0  0  0  0  0  0  0  0  0  0  0
  -21.8640   -6.4720   22.5030 C   0  0  0  0  0  0  0  0  0  0  0  0
  -21.2660   -7.1240   23.6040 C   0  0  0  0  0  3  0  0  0  0  0  0
  -21.0120   -6.4090   24.7920 C   0  0  0  0  0  3  0  0  0  0  0  0
  -21.3440   -5.0430   24.8760 C   0  0  0  0  0  0  0  0  0  0  0  0
  -21.9310   -4.3910   23.7780 C   0  0  0  0  0  3  0  0  0  0  0  0
  -22.1890   -5.1040   22.5940 C   0  0  0  0  0  0  0  0  0  0  0  0
  -22.7370   -4.4670   21.5310 F   0  0  0  0  0  0  0  0  0  0  0  0
  -21.0910   -4.3530   26.0120 F   0  0  0  0  0  0  0  0  0  0  0  0
  -23.2890  -13.7350   21.0730 C   0  0  0  0  0  0  0  0  0  0  0  0
  -22.5820  -13.0450   21.9620 N   0  0  0  0  0  0  0  0  0  0  0  0
  -22.8490  -14.7740   20.5780 O   0  0  0  0  0  0  0  0  0  0  0  0
  -22.9510  -12.2040   22.3810 H   0  0  0  0  0  0  0  0  0  0  0  0
  -21.6610  -13.3590   22.2300 H   0  0  0  0  0  0  0  0  0  0  0  0
  -25.9260  -15.3560   20.1960 N   0  0  0  0  0  0  0  0  0  0  0  0
  -25.1890  -16.0300   20.3710 H   0  0  0  0  0  0  0  0  0  0  0  0
  -26.8060  -15.7860   19.9400 H   0  0  0  0  0  0  0  0  0  0  0  0
  -29.5630  -17.0650   22.0600 N   0  0  0  0  0  0  0  0  0  0  0  0
  -29.4250  -17.4370   22.9960 H   0  0  0  0  0  0  0  0  0  0  0  0
  -29.8940  -16.1090   22.0580 H   0  0  0  0  0  0  0  0  0  0  0  0
  -28.2880  -24.9710   20.1190 C   0  0  0  0  0  2  0  0  0  0  0  0
  -28.4770  -26.4470   20.2820 O   0  0  0  0  0  0  0  0  0  0  0  0
  -24.6040  -31.7800   23.2380 C   0  0  0  0  0  0  0  0  0  0  0  0
  -27.3450  -27.2850   20.1970 C   0  0  0  0  0  0  0  0  0  0  0  0
  -23.4420  -30.3530   21.5930 C   0  0  0  0  0  3  0  0  0  0  0  0
  -24.9400  -28.8460   20.1680 C   0  0  0  0  0  0  0  0  0  0  0  0
  -25.9750  -30.7370   21.4200 C   0  0  0  0  0  2  0  0  0  0  0  0
  -26.0930  -29.3630   20.7700 C   0  0  0  0  0  0  0  0  0  0  0  0
  -27.2980  -28.5940   20.7730 C   0  0  0  0  0  3  0  0  0  0  0  0
  -26.1680  -26.8330   19.5540 C   0  0  0  0  0  3  0  0  0  0  0  0
  -24.9810  -27.5890   19.5500 C   0  0  0  0  0  3  0  0  0  0  0  0
  -23.6780  -29.6850   20.2120 C   0  0  0  0  0  2  0  0  0  0  0  0
  -24.6920  -30.9740   22.1400 N   0  0  0  0  0  0  0  0  0  0  0  0
  -23.5130  -32.0300   23.7700 O   0  0  0  0  0  0  0  0  0  0  0  0
  -22.8010  -29.3180   22.5490 C   0  0  0  0  0  0  0  0  0  0  0  0
  -21.4910  -29.0740   22.3870 N   0  0  0  0  0  0  0  0  0  0  0  0
  -23.4860  -28.7400   23.3970 O   0  0  0  0  0  0  0  0  0  0  0  0
  -20.9960  -29.5930   21.6760 H   0  0  0  0  0  0  0  0  0  0  0  0
  -18.1730  -27.6840   22.7730 C   0  0  0  0  0  0  0  0  0  0  0  0
  -20.6960  -28.1080   23.1490 C   0  0  0  0  0  3  0  0  0  0  0  0
  -20.9110  -26.6700   22.6220 C   0  0  0  0  0  2  0  0  0  0  0  0
  -19.8790  -26.2530   21.5700 C   0  0  0  0  0  2  0  0  0  0  0  0
  -18.4620  -26.3300   22.1470 C   0  0  0  0  0  2  0  0  0  0  0  0
  -19.2230  -28.5260   23.2300 C   0  0  0  0  0  0  0  0  0  0  0  0
  -18.9010  -29.7890   23.7730 C   0  0  0  0  0  3  0  0  0  0  0  0
  -17.5620  -30.2130   23.8660 C   0  0  0  0  0  3  0  0  0  0  0  0
  -16.5260  -29.3690   23.4290 C   0  0  0  0  0  3  0  0  0  0  0  0
  -16.8320  -28.1070   22.8870 C   0  0  0  0  0  3  0  0  0  0  0  0
  -25.8680  -32.4430   23.8650 C   0  0  0  0  0  3  0  0  0  0  0  0
  -26.3770  -31.7060   25.1640 C   0  0  1  0  0  0  0  0  0  0  0  0
  -25.2720  -31.4710   26.2190 C   0  0  0  0  0  1  0  0  0  0  0  0
  -26.9890  -30.3300   24.8100 C   0  0  0  0  0  1  0  0  0  0  0  0
  -27.5040  -32.5300   25.8280 C   0  0  0  0  0  1  0  0  0  0  0  0
  -25.5340  -33.8440   24.1640 N   0  0  0  0  0  0  0  0  0  0  0  0
  -25.8480  -34.8860   23.3820 C   0  0  0  0  0  0  0  0  0  0  0  0
  -26.5200  -34.7710   22.3540 O   0  0  0  0  0  0  0  0  0  0  0  0
  -24.9330  -34.0050   24.9590 H   0  0  0  0  0  0  0  0  0  0  0  0
  -24.0820  -36.6360   23.0000 C   0  0  0  0  0  1  0  0  0  0  0  0
  -25.3370  -36.2760   23.8090 C   0  0  0  0  0  3  0  0  0  0  0  0
  -27.4550  -37.2300   24.6060 C   0  0  0  0  0  1  0  0  0  0  0  0
  -26.3470  -37.3450   23.6610 N   0  0  0  0  0  0  0  0  0  0  0  0
  -25.9220  -38.2610   23.7830 H   0  0  0  0  0  0  0  0  0  0  0  0
  1  4  1  0
  1  3  1  0
  2  6  2  0
  3 54  1  0
  3  2  1  0
  4  2  1  0
  5  1  2  0
  7 10  1  0
  8  7  2  0
  8 11  1  0
 10  4  1  0
 10  9  2  0
 11 12  2  0
 12  9  1  0
 12 51  1  0
 13 19  1  0
 14 19  1  0
 15 16  1  0
 15 14  1  0
 17 16  1  0
 17 26  1  0
 17 18  1  0
 19 18  1  0
 20 13  2  0
 21 22  1  0
 22 11  1  0
 22 13  1  0
 23 24  2  0
 24 43  1  0
 25 24  1  0
 25 28  1  0
 26 27  1  0
 26 23  1  0
 27 25  2  0
 28 29  1  0
 29 30  2  0
 31 34  1  0
 31 30  1  0
 32 31  2  0
 33 32  1  0
 33 28  2  0
 34 35  1  0
 35 40  2  0
 35 36  1  0
 36 37  2  0
 37 38  1  0
 38 42  1  0
 39 38  2  0
 40 39  1  0
 41 40  1  0
 43 44  1  0
 44 47  1  0
 44 46  1  0
 45 43  2  0
 48 23  1  0
 48 49  1  0
 50 48  1  0
 51 52  1  0
 53 51  1  0
 54 55  1  0
 56 67  2  0
 57 55  1  0
 57 62  1  0
 58 66  1  0
 58 68  1  0
 59 65  1  0
 59 61  1  0
 60 66  1  0
 61 62  2  0
 61 60  1  0
 63 57  2  0
 64 63  1  0
 64 59  2  0
 65 58  1  0
 66 56  1  0
 68 70  2  0
 69 68  1  0
 71 69  1  0
 72 81  2  0
 72 77  1  0
 73 69  1  0
 73 77  1  0
 74 73  1  0
 75 76  1  0
 75 74  1  0
 76 72  1  0
 77 78  2  0
 78 79  1  0
 80 79  2  0
 81 80  1  0
 82 56  1  0
 82 87  1  0
 82 83  1  0
 83 86  1  1
 83 84  1  0
 85 83  1  0
 87 90  1  0
 88 92  1  0
 88 87  1  0
 89 88  2  0
 92 91  1  0
 94 95  1  0
 94 92  1  0
 94 93  1  0
M  ISO  4  13 100  22 100  54 101  55 101
M  END
>  <TORSDO>  (18) 
F 19

>  <SCORE>  (18) 
-12.912

>  <name>  (18) 
17

>  <ligand_id>  (18) 
17

>  <original_smiles>  (18) 
[H]c1c([H])c([H])c2c(c1[H])C([H])([H])C([H])([H])C([H])([H])C2([H])N([H])C(=O)C1([H])N(C(=O)C([H])(N([H])C(=O)C([H])(N([H])C([H])([H])[H])C([H])([H])[H])C(C([H])([H])[H])(C([H])([H])[H])C([H])([H])[H])C([H])([H])c2c([H])c(OC([H])([H])C3([H])C(=O)N(c4c([H])c([H])c(N(C(=O)N5C([H])([H])C([H])([H])C([H])([H])C([H])(n6nc(-c7c([H])c([H])c(Oc8c([H])c([H])c(F)c([H])c8F)c([H])c7[H])c(C(=O)N([H])[H])c6N([H])[H])C5([H])[H])C([H])([H])[H])c(N([H])[H])c4[H])C3=O)c([H])c([H])c2C1([H])[H]

>  <smiles>  (18) 
[H]c1c([H])c([H])c2c(c1[H])C([H])([H])C([H])([H])C([H])([H])C2([H])N([H])C(=O)C1([H])N(C(=O)C([H])(N([H])C(=O)C([H])(N([H])C([H])([H])[H])C([H])([H])[H])C(C([H])([H])[H])(C([H])([H])[H])C([H])([H])[H])C([H])([H])c2c([H])c(OC([H])([H])C3([H])C(=O)N(c4c([H])c([H])c(N(C(=O)N5C([H])([H])C([H])([H])C([H])([H])C([H])(n6nc(-c7c([H])c([H])c(Oc8c([H])c([H])c(F)c([H])c8F)c([H])c7[H])c(C(=O)N([H])[H])c6N([H])[H])C5([H])[H])C([H])([H])[H])c(N([H])[H])c4[H])C3=O)c([H])c([H])c2C1([H])[H]

$$$$
18:0:0
     RDKit          3D

 96104  0  0  1  0  0  0  0  0999 V2000
  -30.9000  -20.1460   19.7140 C   0  0  0  0  0  3  0  0  0  0  0  0
  -29.3060  -18.5340   20.5880 C   0  0  0  0  0  3  0  0  0  0  0  0
  -31.4150  -17.7480   19.6790 C   0  0  0  0  0  3  0  0  0  0  0  0
  -29.6380  -19.9310   20.3040 C   0  0  0  0  0  0  0  0  0  0  0  0
  -31.7870  -19.0870   19.4270 C   0  0  0  0  0  0  0  0  0  0  0  0
  -30.1800  -17.3980   20.2860 C   0  0  0  0  0  0  0  0  0  0  0  0
  -30.5850  -14.7780   20.3520 C   0  0  0  0  0  0  0  0  0  0  0  0
  -30.3490  -12.4980   19.3610 C   0  0  0  0  0  2  0  0  0  0  0  0
  -29.4110  -12.5660   18.1360 C   0  0  0  0  0  2  0  0  0  0  0  0
  -27.9450  -12.3950   18.5730 C   0  0  0  0  0  2  0  0  0  0  0  0
  -27.5750  -13.2950   19.7830 C   0  0  0  0  0  3  0  0  0  0  0  0
  -28.6360  -13.2260   20.9040 C   0  0  0  0  0  2  0  0  0  0  0  0
  -29.9300  -13.5660   20.3010 N   0  0  0  0  0  0  0  0  0  0  0  0
  -31.7820  -14.8040   20.0570 O   0  0  0  0  0  0  0  0  0  0  0  0
  -29.8500  -15.9530   20.5440 N   0  0  0  0  0  0  0  0  0  0  0  0
  -28.8990  -15.7820   20.8340 H   0  0  0  0  0  0  0  0  0  0  0  0
  -25.1920  -13.8870   20.5160 C   0  0  0  0  0  0  0  0  0  0  0  0
  -24.1260  -13.1140   20.8870 C   0  0  0  0  0  0  0  0  0  0  0  0
  -24.5880  -11.7620   20.8580 C   0  0  0  0  0  0  0  0  0  0  0  0
  -26.2350  -13.0070   20.2800 N   0  0  0  0  0  0  0  0  0  0  0  0
  -25.8790  -11.7240   20.5490 N   0  0  0  0  0  0  0  0  0  0  0  0
  -23.8600  -10.5010   21.0470 C   0  0  0  0  0  0  0  0  0  0  0  0
  -24.2920   -9.5300   21.9790 C   0  0  0  0  0  3  0  0  0  0  0  0
  -23.5630   -8.3350   22.1580 C   0  0  0  0  0  3  0  0  0  0  0  0
  -22.3880   -8.1000   21.4060 C   0  0  0  0  0  0  0  0  0  0  0  0
  -21.9750   -9.0580   20.4640 C   0  0  0  0  0  3  0  0  0  0  0  0
  -22.7040  -10.2460   20.2820 C   0  0  0  0  0  3  0  0  0  0  0  0
  -21.6310   -6.9580   21.4940 O   0  0  0  0  0  0  0  0  0  0  0  0
  -21.5870   -6.2110   22.6450 C   0  0  0  0  0  0  0  0  0  0  0  0
  -21.1710   -6.7640   23.8760 C   0  0  0  0  0  3  0  0  0  0  0  0
  -21.0730   -5.9440   25.0190 C   0  0  0  0  0  3  0  0  0  0  0  0
  -21.3800   -4.5730   24.9310 C   0  0  0  0  0  0  0  0  0  0  0  0
  -21.7870   -4.0200   23.7050 C   0  0  0  0  0  3  0  0  0  0  0  0
  -21.8870   -4.8360   22.5650 C   0  0  0  0  0  0  0  0  0  0  0  0
  -22.2600   -4.2920   21.3800 F   0  0  0  0  0  0  0  0  0  0  0  0
  -21.2780   -3.7840   26.0270 F   0  0  0  0  0  0  0  0  0  0  0  0
  -22.7290  -13.5910   21.1560 C   0  0  0  0  0  0  0  0  0  0  0  0
  -21.9990  -12.8940   22.0190 N   0  0  0  0  0  0  0  0  0  0  0  0
  -22.2950  -14.6190   20.6380 O   0  0  0  0  0  0  0  0  0  0  0  0
  -22.3630  -12.0630   22.4600 H   0  0  0  0  0  0  0  0  0  0  0  0
  -21.0610  -13.1980   22.2430 H   0  0  0  0  0  0  0  0  0  0  0  0
  -25.3570  -15.2570   20.3330 N   0  0  0  0  0  0  0  0  0  0  0  0
  -24.5870  -15.9100   20.4390 H   0  0  0  0  0  0  0  0  0  0  0  0
  -26.1950  -15.6930   19.9720 H   0  0  0  0  0  0  0  0  0  0  0  0
  -33.9280  -20.3130   19.1270 C   0  0  0  0  0  0  0  0  0  0  0  0
  -33.0610  -19.3240   18.8450 N   0  0  0  0  0  0  0  0  0  0  0  0
  -33.6910  -21.2060   19.9450 O   0  0  0  0  0  0  0  0  0  0  0  0
  -33.4270  -18.6130   18.2270 H   0  0  0  0  0  0  0  0  0  0  0  0
  -36.2220  -20.9550   18.7440 C   0  0  0  0  0  2  0  0  0  0  0  0
  -35.1760  -20.1940   18.3710 C   0  0  0  0  0  0  0  0  0  0  0  0
  -35.2810  -19.2360   17.1910 C   0  0  0  0  0  1  0  0  0  0  0  0
  -28.8040  -21.2190   20.6020 C   0  0  0  0  0  3  0  0  0  0  0  0
  -29.0510  -22.4550   20.1980 N   0  0  0  0  0  0  0  0  0  0  0  0
  -28.2880  -23.6950   20.6600 C   0  0  0  0  0  2  0  0  0  0  0  0
  -28.4850  -25.0490   19.7830 C   0  0  0  0  0  2  0  0  0  0  0  0
  -28.3660  -26.4490   20.3210 O   0  0  0  0  0  0  0  0  0  0  0  0
  -24.6100  -31.8880   23.2420 C   0  0  0  0  0  0  0  0  0  0  0  0
  -27.2340  -27.2860   20.2170 C   0  0  0  0  0  0  0  0  0  0  0  0
  -23.4140  -30.4820   21.5990 C   0  0  0  0  0  3  0  0  0  0  0  0
  -24.8730  -28.9240   20.1780 C   0  0  0  0  0  0  0  0  0  0  0  0
  -25.9540  -30.7950   21.4270 C   0  0  0  0  0  2  0  0  0  0  0  0
  -26.0370  -29.4100   20.7850 C   0  0  0  0  0  0  0  0  0  0  0  0
  -27.2150  -28.6010   20.7950 C   0  0  0  0  0  3  0  0  0  0  0  0
  -26.0490  -26.8600   19.5830 C   0  0  0  0  0  3  0  0  0  0  0  0
  -24.8830  -27.6570   19.5660 C   0  0  0  0  0  3  0  0  0  0  0  0
  -23.6350  -29.8020   20.2200 C   0  0  0  0  0  2  0  0  0  0  0  0
  -24.6780  -31.0750   22.1460 N   0  0  0  0  0  0  0  0  0  0  0  0
  -23.5250  -32.1680   23.7720 O   0  0  0  0  0  0  0  0  0  0  0  0
  -22.7480  -29.4710   22.5630 C   0  0  0  0  0  0  0  0  0  0  0  0
  -21.4230  -29.2920   22.4310 N   0  0  0  0  0  0  0  0  0  0  0  0
  -23.4240  -28.8490   23.3870 O   0  0  0  0  0  0  0  0  0  0  0  0
  -20.9380  -29.8460   21.7380 H   0  0  0  0  0  0  0  0  0  0  0  0
  -18.0450  -28.0880   22.9150 C   0  0  0  0  0  0  0  0  0  0  0  0
  -20.6010  -28.3560   23.2010 C   0  0  0  0  0  3  0  0  0  0  0  0
  -20.7120  -26.9230   22.6310 C   0  0  0  0  0  2  0  0  0  0  0  0
  -19.6170  -26.5940   21.6110 C   0  0  0  0  0  2  0  0  0  0  0  0
  -18.2310  -26.7360   22.2440 C   0  0  0  0  0  2  0  0  0  0  0  0
  -19.1590  -28.8550   23.3490 C   0  0  0  0  0  0  0  0  0  0  0  0
  -18.9340  -30.1190   23.9360 C   0  0  0  0  0  3  0  0  0  0  0  0
  -17.6270  -30.6170   24.0940 C   0  0  0  0  0  3  0  0  0  0  0  0
  -16.5270  -29.8470   23.6760 C   0  0  0  0  0  3  0  0  0  0  0  0
  -16.7370  -28.5850   23.0930 C   0  0  0  0  0  3  0  0  0  0  0  0
  -25.8890  -32.5250   23.8680 C   0  0  0  0  0  3  0  0  0  0  0  0
  -25.5770  -33.9240   24.1930 N   0  0  0  0  0  0  0  0  0  0  0  0
  -25.9130  -34.9760   23.4340 C   0  0  0  0  0  0  0  0  0  0  0  0
  -26.5880  -34.8710   22.4060 O   0  0  0  0  0  0  0  0  0  0  0  0
  -24.9770  -34.0790   24.9890 H   0  0  0  0  0  0  0  0  0  0  0  0
  -24.1870  -36.7710   23.0700 C   0  0  0  0  0  1  0  0  0  0  0  0
  -25.4250  -36.3660   23.8870 C   0  0  0  0  0  3  0  0  0  0  0  0
  -27.5560  -37.2530   24.7240 C   0  0  0  0  0  1  0  0  0  0  0  0
  -26.4580  -37.4190   23.7760 N   0  0  0  0  0  0  0  0  0  0  0  0
  -26.0520  -38.3390   23.9230 H   0  0  0  0  0  0  0  0  0  0  0  0
  -26.3990  -31.7590   25.1510 C   0  0  1  0  0  0  0  0  0  0  0  0
  -25.3020  -31.5260   26.2150 C   0  0  0  0  0  1  0  0  0  0  0  0
  -26.9840  -30.3800   24.7690 C   0  0  0  0  0  1  0  0  0  0  0  0
  -27.5480  -32.5550   25.8150 C   0  0  0  0  0  1  0  0  0  0  0  0
  1  4  1  0
  3  6  2  0
  4  2  2  0
  4 52  1  0
  5  3  1  0
  5  1  2  0
  6 15  1  0
  6  2  1  0
  7 15  1  0
  8 13  1  0
  9 10  1  0
  9  8  1  0
 11 10  1  0
 11 20  1  0
 11 12  1  0
 13  7  1  0
 13 12  1  0
 14  7  2  0
 15 16  1  0
 17 18  2  0
 18 37  1  0
 19 18  1  0
 19 22  1  0
 20 17  1  0
 20 21  1  0
 21 19  2  0
 22 23  1  0
 23 24  2  0
 25 28  1  0
 25 24  1  0
 26 25  2  0
 27 26  1  0
 27 22  2  0
 28 29  1  0
 29 30  1  0
 30 31  2  0
 32 31  1  0
 32 36  1  0
 33 32  2  0
 34 29  2  0
 34 33  1  0
 35 34  1  0
 37 38  1  0
 38 41  1  0
 38 40  1  0
 39 37  2  0
 42 43  1  0
 42 17  1  0
 44 42  1  0
 45 47  2  0
 46 45  1  0
 46  5  1  0
 48 46  1  0
 50 49  2  0
 50 45  1  0
 51 50  1  0
 53 52  2  0
 53 54  1  0
 55 56  1  0
 55 54  1  0
 57 68  2  0
 58 56  1  0
 58 63  1  0
 59 67  1  0
 59 69  1  0
 60 66  1  0
 60 62  1  0
 61 67  1  0
 62 63  2  0
 62 61  1  0
 64 58  2  0
 65 64  1  0
 65 60  2  0
 66 59  1  0
 67 57  1  0
 69 71  2  0
 70 69  1  0
 72 70  1  0
 73 82  2  0
 73 78  1  0
 74 70  1  0
 74 78  1  0
 75 74  1  0
 76 77  1  0
 76 75  1  0
 77 73  1  0
 78 79  2  0
 79 80  1  0
 81 80  2  0
 82 81  1  0
 83 57  1  0
 83 84  1  0
 83 93  1  0
 84 87  1  0
 85 89  1  0
 85 84  1  0
 86 85  2  0
 89 88  1  0
 91 89  1  0
 91 92  1  0
 91 90  1  0
 93 96  1  1
 93 94  1  0
 95 93  1  0
M  ISO  4   7 100  15 100  55 101  56 101
M  END
>  <TORSDO>  (19) 
F 21

>  <SCORE>  (19) 
-13.612

>  <name>  (19) 
18

>  <ligand_id>  (19) 
18

>  <original_smiles>  (19) 
[H]C(=NC([H])([H])C([H])([H])Oc1c([H])c([H])c2c(c1[H])C([H])([H])N(C(=O)C([H])(N([H])C(=O)C([H])(N([H])C([H])([H])[H])C([H])([H])[H])C(C([H])([H])[H])(C([H])([H])[H])C([H])([H])[H])C([H])(C(=O)N([H])C1([H])c3c([H])c([H])c([H])c([H])c3C([H])([H])C([H])([H])C1([H])[H])C2([H])[H])c1c([H])c(N([H])C(=O)C(=C([H])[H])C([H])([H])[H])c([H])c(N([H])C(=O)N2C([H])([H])C([H])([H])C([H])([H])C([H])(n3nc(-c4c([H])c([H])c(Oc5c([H])c([H])c(F)c([H])c5F)c([H])c4[H])c(C(=O)N([H])[H])c3N([H])[H])C2([H])[H])c1[H]

>  <smiles>  (19) 
[H]C(=NC([H])([H])C([H])([H])Oc1c([H])c([H])c2c(c1[H])C([H])([H])N(C(=O)C([H])(N([H])C(=O)C([H])(N([H])C([H])([H])[H])C([H])([H])[H])C(C([H])([H])[H])(C([H])([H])[H])C([H])([H])[H])C([H])(C(=O)N([H])C1([H])c3c([H])c([H])c([H])c([H])c3C([H])([H])C([H])([H])C1([H])[H])C2([H])[H])c1c([H])c(N([H])C(=O)C(=C([H])[H])C([H])([H])[H])c([H])c(N([H])C(=O)N2C([H])([H])C([H])([H])C([H])([H])C([H])(n3nc(-c4c([H])c([H])c(Oc5c([H])c([H])c(F)c([H])c5F)c([H])c4[H])c(C(=O)N([H])[H])c3N([H])[H])C2([H])[H])c1[H]

$$$$
19:0:0
     RDKit          3D

 93102  0  0  1  0  0  0  0  0999 V2000
  -29.8460  -22.8800   20.7750 C   0  0  0  0  0  0  0  0  0  0  0  0
  -28.1010  -22.4050   19.7640 C   0  0  0  0  0  2  0  0  0  0  0  0
  -28.8590  -23.7870   19.9040 C   0  0  2  0  0  0  0  0  0  0  0  0
  -29.5990  -24.3100   18.6680 C   0  0  0  0  0  1  0  0  0  0  0  0
  -29.3150  -21.7110   20.2040 N   0  0  0  0  0  0  0  0  0  0  0  0
  -30.6940  -23.0430   21.6270 O   0  0  0  0  0  0  0  0  0  0  0  0
  -30.6780  -19.5490   20.5970 C   0  0  0  0  0  3  0  0  0  0  0  0
  -30.8280  -18.1190   20.6800 C   0  0  0  0  0  3  0  0  0  0  0  0
  -28.3760  -19.3170   20.1300 C   0  0  0  0  0  3  0  0  0  0  0  0
  -29.4500  -20.2360   20.3160 C   0  0  0  0  0  0  0  0  0  0  0  0
  -29.7250  -17.2410   20.5020 C   0  0  0  0  0  0  0  0  0  0  0  0
  -28.4980  -17.8950   20.2280 C   0  0  0  0  0  0  0  0  0  0  0  0
  -27.3950  -17.1320   20.0500 F   0  0  0  0  0  0  0  0  0  0  0  0
  -30.5520  -14.7300   20.3850 C   0  0  0  0  0  0  0  0  0  0  0  0
  -30.3860  -12.4680   19.3390 C   0  0  0  0  0  2  0  0  0  0  0  0
  -29.4440  -12.5740   18.1190 C   0  0  0  0  0  2  0  0  0  0  0  0
  -27.9720  -12.3980   18.5430 C   0  0  0  0  0  2  0  0  0  0  0  0
  -27.5980  -13.2630   19.7760 C   0  0  0  0  0  3  0  0  0  0  0  0
  -28.6550  -13.1300   20.8950 C   0  0  0  0  0  2  0  0  0  0  0  0
  -29.9610  -13.4900   20.3180 N   0  0  0  0  0  0  0  0  0  0  0  0
  -31.7250  -14.8950   20.0390 O   0  0  0  0  0  0  0  0  0  0  0  0
  -29.6980  -15.7740   20.6650 N   0  0  0  0  0  0  0  0  0  0  0  0
  -28.7670  -15.4350   20.8510 H   0  0  0  0  0  0  0  0  0  0  0  0
  -25.1980  -13.8550   20.4750 C   0  0  0  0  0  0  0  0  0  0  0  0
  -24.1310  -13.0800   20.8390 C   0  0  0  0  0  0  0  0  0  0  0  0
  -24.5980  -11.7320   20.8220 C   0  0  0  0  0  0  0  0  0  0  0  0
  -26.2480  -12.9780   20.2550 N   0  0  0  0  0  0  0  0  0  0  0  0
  -25.8910  -11.6960   20.5240 N   0  0  0  0  0  0  0  0  0  0  0  0
  -23.8740  -10.4700   21.0160 C   0  0  0  0  0  0  0  0  0  0  0  0
  -24.3020   -9.5100   21.9600 C   0  0  0  0  0  3  0  0  0  0  0  0
  -23.5780   -8.3120   22.1420 C   0  0  0  0  0  3  0  0  0  0  0  0
  -22.4110   -8.0660   21.3790 C   0  0  0  0  0  0  0  0  0  0  0  0
  -22.0020   -9.0140   20.4250 C   0  0  0  0  0  3  0  0  0  0  0  0
  -22.7270  -10.2030   20.2420 C   0  0  0  0  0  3  0  0  0  0  0  0
  -21.6610   -6.9170   21.4670 O   0  0  0  0  0  0  0  0  0  0  0  0
  -21.6070   -6.1820   22.6240 C   0  0  0  0  0  0  0  0  0  0  0  0
  -21.1630   -6.7410   23.8420 C   0  0  0  0  0  3  0  0  0  0  0  0
  -21.0550   -5.9320   24.9910 C   0  0  0  0  0  3  0  0  0  0  0  0
  -21.3800   -4.5640   24.9230 C   0  0  0  0  0  0  0  0  0  0  0  0
  -21.8170   -4.0040   23.7100 C   0  0  0  0  0  3  0  0  0  0  0  0
  -21.9270   -4.8100   22.5630 C   0  0  0  0  0  0  0  0  0  0  0  0
  -22.3280   -4.2610   21.3910 F   0  0  0  0  0  0  0  0  0  0  0  0
  -21.2690   -3.7840   26.0230 F   0  0  0  0  0  0  0  0  0  0  0  0
  -22.7300  -13.5570   21.0960 C   0  0  0  0  0  0  0  0  0  0  0  0
  -21.9940  -12.8660   21.9590 N   0  0  0  0  0  0  0  0  0  0  0  0
  -22.2960  -14.5810   20.5690 O   0  0  0  0  0  0  0  0  0  0  0  0
  -22.3550  -12.0370   22.4090 H   0  0  0  0  0  0  0  0  0  0  0  0
  -21.0550  -13.1700   22.1720 H   0  0  0  0  0  0  0  0  0  0  0  0
  -25.3500  -15.2250   20.2930 N   0  0  0  0  0  0  0  0  0  0  0  0
  -24.5780  -15.8690   20.4110 H   0  0  0  0  0  0  0  0  0  0  0  0
  -26.2040  -15.7000   20.0170 H   0  0  0  0  0  0  0  0  0  0  0  0
  -28.1490  -25.0340   20.6380 C   0  0  0  0  0  2  0  0  0  0  0  0
  -28.3370  -26.4560   20.2010 O   0  0  0  0  0  0  0  0  0  0  0  0
  -24.5980  -31.8770   23.2400 C   0  0  0  0  0  0  0  0  0  0  0  0
  -27.2190  -27.3120   20.1840 C   0  0  0  0  0  0  0  0  0  0  0  0
  -23.3950  -30.4770   21.5990 C   0  0  0  0  0  3  0  0  0  0  0  0
  -24.8490  -28.9260   20.1720 C   0  0  0  0  0  0  0  0  0  0  0  0
  -25.9340  -30.7980   21.4150 C   0  0  0  0  0  2  0  0  0  0  0  0
  -26.0190  -29.4180   20.7670 C   0  0  0  0  0  0  0  0  0  0  0  0
  -27.2070  -28.6240   20.7590 C   0  0  0  0  0  3  0  0  0  0  0  0
  -26.0290  -26.8790   19.5600 C   0  0  0  0  0  3  0  0  0  0  0  0
  -24.8580  -27.6620   19.5590 C   0  0  0  0  0  3  0  0  0  0  0  0
  -23.6100  -29.7990   20.2200 C   0  0  0  0  0  2  0  0  0  0  0  0
  -24.6610  -31.0690   22.1410 N   0  0  0  0  0  0  0  0  0  0  0  0
  -23.5150  -32.1540   23.7740 O   0  0  0  0  0  0  0  0  0  0  0  0
  -22.7340  -29.4610   22.5600 C   0  0  0  0  0  0  0  0  0  0  0  0
  -21.4070  -29.2840   22.4350 N   0  0  0  0  0  0  0  0  0  0  0  0
  -23.4130  -28.8340   23.3770 O   0  0  0  0  0  0  0  0  0  0  0  0
  -20.9180  -29.8410   21.7480 H   0  0  0  0  0  0  0  0  0  0  0  0
  -18.0290  -28.0920   22.9450 C   0  0  0  0  0  0  0  0  0  0  0  0
  -20.5890  -28.3460   23.2050 C   0  0  0  0  0  3  0  0  0  0  0  0
  -20.6860  -26.9160   22.6250 C   0  0  0  0  0  2  0  0  0  0  0  0
  -19.5800  -26.5990   21.6140 C   0  0  0  0  0  2  0  0  0  0  0  0
  -18.2010  -26.7460   22.2630 C   0  0  0  0  0  2  0  0  0  0  0  0
  -19.1510  -28.8520   23.3720 C   0  0  0  0  0  0  0  0  0  0  0  0
  -18.9380  -30.1130   23.9690 C   0  0  0  0  0  3  0  0  0  0  0  0
  -17.6340  -30.6160   24.1430 C   0  0  0  0  0  3  0  0  0  0  0  0
  -16.5270  -29.8540   23.7320 C   0  0  0  0  0  3  0  0  0  0  0  0
  -16.7250  -28.5950   23.1380 C   0  0  0  0  0  3  0  0  0  0  0  0
  -25.8810  -32.5110   23.8620 C   0  0  0  0  0  3  0  0  0  0  0  0
  -25.5720  -33.9100   24.1890 N   0  0  0  0  0  0  0  0  0  0  0  0
  -25.9060  -34.9620   23.4290 C   0  0  0  0  0  0  0  0  0  0  0  0
  -26.5790  -34.8570   22.4000 O   0  0  0  0  0  0  0  0  0  0  0  0
  -24.9780  -34.0670   24.9890 H   0  0  0  0  0  0  0  0  0  0  0  0
  -24.1860  -36.7620   23.0640 C   0  0  0  0  0  1  0  0  0  0  0  0
  -25.4200  -36.3520   23.8840 C   0  0  0  0  0  3  0  0  0  0  0  0
  -27.5530  -37.2310   24.7280 C   0  0  0  0  0  1  0  0  0  0  0  0
  -26.4570  -37.4020   23.7780 N   0  0  0  0  0  0  0  0  0  0  0  0
  -26.0530  -38.3240   23.9220 H   0  0  0  0  0  0  0  0  0  0  0  0
  -26.3950  -31.7430   25.1410 C   0  0  1  0  0  0  0  0  0  0  0  0
  -25.3000  -31.5100   26.2090 C   0  0  0  0  0  1  0  0  0  0  0  0
  -26.9770  -30.3620   24.7560 C   0  0  0  0  0  1  0  0  0  0  0  0
  -27.5460  -32.5370   25.8020 C   0  0  0  0  0  1  0  0  0  0  0  0
  1  6  2  0
  2  3  1  0
  2  5  1  0
  3  4  1  6
  3 52  1  0
  3  1  1  0
  5 10  1  0
  5  1  1  0
  7  8  1  0
  9 12  2  0
  9 10  1  0
 10  7  2  0
 11 22  1  0
 11  8  2  0
 12 11  1  0
 13 12  1  0
 14 22  1  0
 15 20  1  0
 16 17  1  0
 16 15  1  0
 18 17  1  0
 18 27  1  0
 18 19  1  0
 20 14  1  0
 20 19  1  0
 21 14  2  0
 22 23  1  0
 24 25  2  0
 25 44  1  0
 26 25  1  0
 26 29  1  0
 27 24  1  0
 27 28  1  0
 28 26  2  0
 29 30  1  0
 30 31  2  0
 32 35  1  0
 32 31  1  0
 33 32  2  0
 34 33  1  0
 34 29  2  0
 35 36  1  0
 36 37  1  0
 37 38  2  0
 39 38  1  0
 39 43  1  0
 40 39  2  0
 41 36  2  0
 41 40  1  0
 42 41  1  0
 44 45  1  0
 45 48  1  0
 45 47  1  0
 46 44  2  0
 49 50  1  0
 49 24  1  0
 51 49  1  0
 53 52  1  0
 54 65  2  0
 55 53  1  0
 55 60  1  0
 56 64  1  0
 56 66  1  0
 57 63  1  0
 57 59  1  0
 58 64  1  0
 59 58  1  0
 60 59  2  0
 61 55  2  0
 62 61  1  0
 62 57  2  0
 63 56  1  0
 64 54  1  0
 66 68  2  0
 67 66  1  0
 69 67  1  0
 70 79  2  0
 70 75  1  0
 71 67  1  0
 71 75  1  0
 72 71  1  0
 73 74  1  0
 73 72  1  0
 74 70  1  0
 75 76  2  0
 76 77  1  0
 78 77  2  0
 79 78  1  0
 80 54  1  0
 80 81  1  0
 80 90  1  0
 81 84  1  0
 82 86  1  0
 82 81  1  0
 83 82  2  0
 86 85  1  0
 88 86  1  0
 88 89  1  0
 88 87  1  0
 90 93  1  1
 90 91  1  0
 92 90  1  0
M  ISO  4  14 100  22 100  52 101  53 101
M  END
>  <TORSDO>  (20) 
F 18

>  <SCORE>  (20) 
-15.141

>  <name>  (20) 
19

>  <ligand_id>  (20) 
19

>  <original_smiles>  (20) 
[H]c1c([H])c([H])c2c(c1[H])C([H])([H])C([H])([H])C([H])([H])C2([H])N([H])C(=O)C1([H])N(C(=O)C([H])(N([H])C(=O)C([H])(N([H])C([H])([H])[H])C([H])([H])[H])C(C([H])([H])[H])(C([H])([H])[H])C([H])([H])[H])C([H])([H])c2c([H])c(OC([H])([H])C3(C([H])([H])[H])C(=O)N(c4c([H])c([H])c(N([H])C(=O)N5C([H])([H])C([H])([H])C([H])([H])C([H])(n6nc(-c7c([H])c([H])c(Oc8c([H])c([H])c(F)c([H])c8F)c([H])c7[H])c(C(=O)N([H])[H])c6N([H])[H])C5([H])[H])c(F)c4[H])C3([H])[H])c([H])c([H])c2C1([H])[H]

>  <smiles>  (20) 
[H]c1c([H])c([H])c2c(c1[H])C([H])([H])C([H])([H])C([H])([H])C2([H])N([H])C(=O)C1([H])N(C(=O)C([H])(N([H])C(=O)C([H])(N([H])C([H])([H])[H])C([H])([H])[H])C(C([H])([H])[H])(C([H])([H])[H])C([H])([H])[H])C([H])([H])c2c([H])c(OC([H])([H])C3(C([H])([H])[H])C(=O)N(c4c([H])c([H])c(N([H])C(=O)N5C([H])([H])C([H])([H])C([H])([H])C([H])(n6nc(-c7c([H])c([H])c(Oc8c([H])c([H])c(F)c([H])c8F)c([H])c7[H])c(C(=O)N([H])[H])c6N([H])[H])C5([H])[H])c(F)c4[H])C3([H])[H])c([H])c([H])c2C1([H])[H]

$$$$
20:0:0
     RDKit          3D

 99108  0  0  1  0  0  0  0  0999 V2000
  -29.3020  -22.9870   20.0410 C   0  0  0  0  0  0  0  0  0  0  0  0
  -30.4360  -22.0660   19.9470 C   0  0  0  0  0  0  0  0  0  0  0  0
  -29.3720  -24.3900   20.1020 C   0  0  0  0  0  0  0  0  0  0  0  0
  -28.0330  -22.1720   20.0560 C   0  0  0  0  0  3  0  0  0  0  0  0
  -28.5250  -20.7190   19.9910 C   0  0  0  0  0  2  0  0  0  0  0  0
  -29.9900  -20.7720   20.0140 N   0  0  0  0  0  0  0  0  0  0  0  0
  -30.3610  -25.1650   20.1020 O   0  0  0  0  0  0  0  0  0  0  0  0
  -31.6080  -22.4080   19.7830 O   0  0  0  0  0  0  0  0  0  0  0  0
  -32.2040  -19.6100   20.1680 C   0  0  0  0  0  3  0  0  0  0  0  0
  -32.3990  -17.1860   20.1470 C   0  0  0  0  0  3  0  0  0  0  0  0
  -30.2010  -18.2410   20.0370 C   0  0  0  0  0  3  0  0  0  0  0  0
  -33.0090  -18.4530   20.1820 C   0  0  0  0  0  0  0  0  0  0  0  0
  -30.7900  -19.5480   20.0650 C   0  0  0  0  0  0  0  0  0  0  0  0
  -30.9970  -17.0550   20.0570 C   0  0  0  0  0  0  0  0  0  0  0  0
  -31.0610  -14.5850   19.7030 C   0  0  0  0  0  0  0  0  0  0  0  0
  -30.6580  -12.2700   18.9450 C   0  0  0  0  0  2  0  0  0  0  0  0
  -29.6520  -12.2820   17.7780 C   0  0  0  0  0  2  0  0  0  0  0  0
  -28.2070  -12.2350   18.3100 C   0  0  0  0  0  2  0  0  0  0  0  0
  -27.9470  -13.2730   19.4350 C   0  0  0  0  0  3  0  0  0  0  0  0
  -29.0690  -13.2470   20.4990 C   0  0  0  0  0  2  0  0  0  0  0  0
  -30.3500  -13.4270   19.8020 N   0  0  0  0  0  0  0  0  0  0  0  0
  -32.1770  -14.6160   19.1780 O   0  0  0  0  0  0  0  0  0  0  0  0
  -30.4170  -15.7360   20.0240 N   0  0  0  0  0  0  0  0  0  0  0  0
  -29.4360  -15.6550   20.2440 H   0  0  0  0  0  0  0  0  0  0  0  0
  -25.6940  -14.0520   20.3980 C   0  0  0  0  0  0  0  0  0  0  0  0
  -24.5960  -13.3600   20.8340 C   0  0  0  0  0  0  0  0  0  0  0  0
  -24.9230  -11.9760   20.7040 C   0  0  0  0  0  0  0  0  0  0  0  0
  -26.6260  -13.0940   20.0330 N   0  0  0  0  0  0  0  0  0  0  0  0
  -26.1710  -11.8370   20.2740 N   0  0  0  0  0  0  0  0  0  0  0  0
  -24.1020  -10.7760   20.9080 C   0  0  0  0  0  0  0  0  0  0  0  0
  -24.5050   -9.7430   21.7830 C   0  0  0  0  0  3  0  0  0  0  0  0
  -23.6870   -8.6090   21.9780 C   0  0  0  0  0  3  0  0  0  0  0  0
  -22.4510   -8.5000   21.2960 C   0  0  0  0  0  0  0  0  0  0  0  0
  -22.0660   -9.5200   20.4080 C   0  0  0  0  0  3  0  0  0  0  0  0
  -22.8830  -10.6450   20.2120 C   0  0  0  0  0  3  0  0  0  0  0  0
  -21.6050   -7.4220   21.4020 O   0  0  0  0  0  0  0  0  0  0  0  0
  -21.5410   -6.6690   22.5470 C   0  0  0  0  0  0  0  0  0  0  0  0
  -21.2170   -7.2390   23.7970 C   0  0  0  0  0  3  0  0  0  0  0  0
  -21.0920   -6.4160   24.9340 C   0  0  0  0  0  3  0  0  0  0  0  0
  -21.2820   -5.0270   24.8230 C   0  0  0  0  0  0  0  0  0  0  0  0
  -21.5990   -4.4560   23.5770 C   0  0  0  0  0  3  0  0  0  0  0  0
  -21.7250   -5.2750   22.4420 C   0  0  0  0  0  0  0  0  0  0  0  0
  -22.0100   -4.7180   21.2400 F   0  0  0  0  0  0  0  0  0  0  0  0
  -21.1550   -4.2350   25.9140 F   0  0  0  0  0  0  0  0  0  0  0  0
  -23.2800  -13.9470   21.2560 C   0  0  0  0  0  0  0  0  0  0  0  0
  -22.5830  -13.2910   22.1760 N   0  0  0  0  0  0  0  0  0  0  0  0
  -22.8860  -15.0230   20.8060 O   0  0  0  0  0  0  0  0  0  0  0  0
  -22.9170  -12.4190   22.5610 H   0  0  0  0  0  0  0  0  0  0  0  0
  -21.7030  -13.6640   22.5020 H   0  0  0  0  0  0  0  0  0  0  0  0
  -25.9700  -15.4090   20.2610 N   0  0  0  0  0  0  0  0  0  0  0  0
  -25.2790  -16.1220   20.4660 H   0  0  0  0  0  0  0  0  0  0  0  0
  -26.8170  -15.7860   19.8570 H   0  0  0  0  0  0  0  0  0  0  0  0
  -34.5010  -18.5780   20.2660 C   0  0  0  0  0  0  0  0  0  0  0  0
  -35.2000  -17.7560   19.4950 N   0  0  0  0  0  0  0  0  0  0  0  0
  -35.0420  -19.4370   20.9610 O   0  0  0  0  0  0  0  0  0  0  0  0
  -34.7210  -17.1000   18.8960 H   0  0  0  0  0  0  0  0  0  0  0  0
  -36.2080  -17.8030   19.4780 H   0  0  0  0  0  0  0  0  0  0  0  0
  -28.0630  -25.2370   20.1840 C   0  0  0  0  0  2  0  0  0  0  0  0
  -28.2210  -26.6840   20.3040 O   0  0  0  0  0  0  0  0  0  0  0  0
  -24.4950  -32.0190   23.2880 C   0  0  0  0  0  0  0  0  0  0  0  0
  -27.0640  -27.4550   20.2740 C   0  0  0  0  0  0  0  0  0  0  0  0
  -23.2550  -30.5710   21.7150 C   0  0  0  0  0  3  0  0  0  0  0  0
  -24.6770  -29.0010   20.2960 C   0  0  0  0  0  0  0  0  0  0  0  0
  -25.7820  -30.9160   21.4530 C   0  0  0  0  0  2  0  0  0  0  0  0
  -25.8530  -29.5270   20.8450 C   0  0  0  0  0  0  0  0  0  0  0  0
  -27.0490  -28.7640   20.8270 C   0  0  0  0  0  3  0  0  0  0  0  0
  -25.8620  -26.9620   19.7120 C   0  0  0  0  0  3  0  0  0  0  0  0
  -24.6790  -27.7190   19.7250 C   0  0  0  0  0  3  0  0  0  0  0  0
  -23.4340  -29.8610   20.3480 C   0  0  0  0  0  2  0  0  0  0  0  0
  -24.5310  -31.1850   22.2090 N   0  0  0  0  0  0  0  0  0  0  0  0
  -23.4240  -32.3030   23.8430 O   0  0  0  0  0  0  0  0  0  0  0  0
  -22.6270  -29.5740   22.7160 C   0  0  0  0  0  0  0  0  0  0  0  0
  -21.3160  -29.3200   22.5700 N   0  0  0  0  0  0  0  0  0  0  0  0
  -23.3180  -29.0310   23.5820 O   0  0  0  0  0  0  0  0  0  0  0  0
  -20.8180  -29.8130   21.8420 H   0  0  0  0  0  0  0  0  0  0  0  0
  -18.0180  -27.9020   22.9800 C   0  0  0  0  0  0  0  0  0  0  0  0
  -20.5260  -28.3880   23.3740 C   0  0  0  0  0  3  0  0  0  0  0  0
  -20.7740  -26.9270   22.9370 C   0  0  0  0  0  2  0  0  0  0  0  0
  -19.7670  -26.4300   21.8960 C   0  0  0  0  0  2  0  0  0  0  0  0
  -18.3390  -26.5170   22.4430 C   0  0  0  0  0  2  0  0  0  0  0  0
  -19.0460  -28.7850   23.4020 C   0  0  0  0  0  0  0  0  0  0  0  0
  -18.6940  -30.0730   23.8630 C   0  0  0  0  0  3  0  0  0  0  0  0
  -17.3480  -30.4810   23.9060 C   0  0  0  0  0  3  0  0  0  0  0  0
  -16.3330  -29.5960   23.5020 C   0  0  0  0  0  3  0  0  0  0  0  0
  -16.6680  -28.3090   23.0450 C   0  0  0  0  0  3  0  0  0  0  0  0
  -25.7910  -32.6720   23.8590 C   0  0  0  0  0  3  0  0  0  0  0  0
  -26.3500  -31.9270   25.1340 C   0  0  1  0  0  0  0  0  0  0  0  0
  -25.2790  -31.6560   26.2160 C   0  0  0  0  0  1  0  0  0  0  0  0
  -26.9790  -30.5700   24.7420 C   0  0  0  0  0  1  0  0  0  0  0  0
  -27.4780  -32.7670   25.7780 C   0  0  0  0  0  1  0  0  0  0  0  0
  -25.4810  -34.0730   24.1710 N   0  0  0  0  0  0  0  0  0  0  0  0
  -25.7990  -35.1150   23.3910 C   0  0  0  0  0  0  0  0  0  0  0  0
  -26.4570  -34.9970   22.3530 O   0  0  0  0  0  0  0  0  0  0  0  0
  -24.8960  -34.2380   24.9780 H   0  0  0  0  0  0  0  0  0  0  0  0
  -24.0620  -36.8970   23.0240 C   0  0  0  0  0  1  0  0  0  0  0  0
  -25.3100  -36.5080   23.8320 C   0  0  0  0  0  3  0  0  0  0  0  0
  -27.4500  -37.4090   24.6320 C   0  0  0  0  0  1  0  0  0  0  0  0
  -26.3390  -37.5620   23.6960 N   0  0  0  0  0  0  0  0  0  0  0  0
  -25.9320  -38.4830   23.8350 H   0  0  0  0  0  0  0  0  0  0  0  0
  1  4  2  0
  1  3  1  0
  2  6  1  0
  2  1  1  0
  3 58  1  0
  5  6  1  0
  5  4  1  0
  6 13  1  0
  7  3  2  0
  8  2  2  0
  9 12  1  0
 10 12  2  0
 11 14  2  0
 11 13  1  0
 12 53  1  0
 13  9  2  0
 14 10  1  0
 15 21  1  0
 15 23  1  0
 16 21  1  0
 17 18  1  0
 17 16  1  0
 19 18  1  0
 19 28  1  0
 19 20  1  0
 21 20  1  0
 22 15  2  0
 23 14  1  0
 23 24  1  0
 25 26  2  0
 26 45  1  0
 27 26  1  0
 27 30  1  0
 28 29  1  0
 28 25  1  0
 29 27  2  0
 30 31  1  0
 31 32  2  0
 33 36  1  0
 33 32  1  0
 34 33  2  0
 35 34  1  0
 35 30  2  0
 36 37  1  0
 37 38  1  0
 38 39  2  0
 40 39  1  0
 40 44  1  0
 41 40  2  0
 42 37  2  0
 42 41  1  0
 43 42  1  0
 45 46  1  0
 46 49  1  0
 46 48  1  0
 47 45  2  0
 50 25  1  0
 50 51  1  0
 52 50  1  0
 53 55  2  0
 54 53  1  0
 56 54  1  0
 57 54  1  0
 58 59  1  0
 60 71  2  0
 61 59  1  0
 61 66  1  0
 62 70  1  0
 62 72  1  0
 63 69  1  0
 63 65  1  0
 64 70  1  0
 65 64  1  0
 66 65  2  0
 67 68  1  0
 67 61  2  0
 68 63  2  0
 69 62  1  0
 70 60  1  0
 72 74  2  0
 73 72  1  0
 75 73  1  0
 76 85  2  0
 76 81  1  0
 77 73  1  0
 77 81  1  0
 78 77  1  0
 79 80  1  0
 79 78  1  0
 80 76  1  0
 81 82  2  0
 82 83  1  0
 84 83  2  0
 85 84  1  0
 86 60  1  0
 86 91  1  0
 86 87  1  0
 87 90  1  1
 87 88  1  0
 89 87  1  0
 91 94  1  0
 92 96  1  0
 92 91  1  0
 93 92  2  0
 96 95  1  0
 98 96  1  0
 98 99  1  0
 98 97  1  0
M  ISO  4  15 100  23 100  58 101  59 101
M  END
>  <TORSDO>  (21) 
F 19

>  <SCORE>  (21) 
-13.754

>  <name>  (21) 
20

>  <ligand_id>  (21) 
20

>  <original_smiles>  (21) 
[H]c1c([H])c([H])c2c(c1[H])C([H])([H])C([H])([H])C([H])([H])C2([H])N([H])C(=O)C1([H])N(C(=O)C([H])(N([H])C(=O)C([H])(N([H])C([H])([H])[H])C([H])([H])[H])C(C([H])([H])[H])(C([H])([H])[H])C([H])([H])[H])C([H])([H])c2c([H])c(OC([H])([H])C([O-])=C3C(=O)N(c4c([H])c(C(=O)N([H])[H])c([H])c(N([H])C(=O)N5C([H])([H])C([H])([H])C([H])([H])C([H])(n6nc(-c7c([H])c([H])c(Oc8c([H])c([H])c(F)c([H])c8F)c([H])c7[H])c(C(=O)N([H])[H])c6N([H])[H])C5([H])[H])c4[H])C([H])([H])C3([H])[H])c([H])c([H])c2C1([H])[H]

>  <smiles>  (21) 
[H]c1c([H])c([H])c2c(c1[H])C([H])([H])C([H])([H])C([H])([H])C2([H])N([H])C(=O)C1([H])N(C(=O)C([H])(N([H])C(=O)C([H])(N([H])C([H])([H])[H])C([H])([H])[H])C(C([H])([H])[H])(C([H])([H])[H])C([H])([H])[H])C([H])([H])c2c([H])c(OC([H])([H])C([O-])=C3C(=O)N(c4c([H])c(C(=O)N([H])[H])c([H])c(N([H])C(=O)N5C([H])([H])C([H])([H])C([H])([H])C([H])(n6nc(-c7c([H])c([H])c(Oc8c([H])c([H])c(F)c([H])c8F)c([H])c7[H])c(C(=O)N([H])[H])c6N([H])[H])C5([H])[H])c4[H])C([H])([H])C3([H])[H])c([H])c([H])c2C1([H])[H]

$$$$
21:0:0
     RDKit          3D

106116  0  0  1  0  0  0  0  0999 V2000
  -30.1420  -20.1660   21.1420 C   0  0  0  0  0  2  0  0  0  0  0  0
  -31.3480  -19.8290   23.1130 C   0  0  0  0  0  2  0  0  0  0  0  0
  -29.8690  -21.4230   22.0070 C   0  0  0  0  0  3  0  0  0  0  0  0
  -30.4890  -21.0740   23.4110 C   0  0  2  0  0  0  0  0  0  0  0  0
  -31.4180  -22.1740   23.9690 C   0  0  0  0  0  1  0  0  0  0  0  0
  -29.4430  -20.7360   24.5000 C   0  0  0  0  0  1  0  0  0  0  0  0
  -30.6730  -19.1400   22.0300 N   0  0  0  0  0  0  0  0  0  0  0  0
  -28.3460  -24.1990   21.6770 C   0  0  0  0  0  0  0  0  0  0  0  0
  -28.3600  -21.8040   21.9280 C   0  0  0  0  0  0  0  0  0  0  0  0
  -26.9220  -24.4060   19.7920 C   0  0  0  0  0  2  0  0  0  0  0  0
  -26.9080  -22.9790   20.3420 C   0  0  0  0  0  2  0  0  0  0  0  0
  -27.5460  -25.2670   20.9060 C   0  0  1  0  0  0  0  0  0  0  0  0
  -27.9770  -22.9540   21.3330 N   0  0  0  0  0  0  0  0  0  0  0  0
  -29.1800  -24.5060   22.5300 O   0  0  0  0  0  0  0  0  0  0  0  0
  -27.5110  -20.9560   22.2320 O   0  0  0  0  0  0  0  0  0  0  0  0
  -25.2720  -25.0200   22.2610 C   0  0  0  0  0  1  0  0  0  0  0  0
  -26.4540  -25.9120   21.8210 C   0  0  0  0  0  2  0  0  0  0  0  0
  -28.5160  -26.3730   20.3650 C   0  0  0  0  0  2  0  0  0  0  0  0
  -28.0480  -27.0920   19.2190 O   0  0  0  0  0  0  0  0  0  0  0  0
  -24.3620  -31.7760   23.1370 C   0  0  0  0  0  0  0  0  0  0  0  0
  -26.9130  -27.8390   19.3930 C   0  0  0  0  0  0  0  0  0  0  0  0
  -23.0970  -30.5880   21.3740 C   0  0  0  0  0  3  0  0  0  0  0  0
  -24.5030  -29.2700   19.7030 C   0  0  0  0  0  0  0  0  0  0  0  0
  -25.6040  -31.0120   21.1180 C   0  0  0  0  0  2  0  0  0  0  0  0
  -25.6780  -29.7350   20.3100 C   0  0  0  0  0  0  0  0  0  0  0  0
  -26.8880  -29.0220   20.1610 C   0  0  0  0  0  3  0  0  0  0  0  0
  -25.7340  -27.3970   18.7620 C   0  0  0  0  0  3  0  0  0  0  0  0
  -24.5230  -28.0940   18.9320 C   0  0  0  0  0  3  0  0  0  0  0  0
  -23.2520  -30.0930   19.9120 C   0  0  0  0  0  2  0  0  0  0  0  0
  -24.3750  -31.1300   21.9360 N   0  0  0  0  0  0  0  0  0  0  0  0
  -23.3050  -31.9620   23.7540 O   0  0  0  0  0  0  0  0  0  0  0  0
  -22.4930  -29.4400   22.2190 C   0  0  0  0  0  0  0  0  0  0  0  0
  -21.1660  -29.2670   22.1260 N   0  0  0  0  0  0  0  0  0  0  0  0
  -23.2130  -28.7140   22.9100 O   0  0  0  0  0  0  0  0  0  0  0  0
  -20.6490  -29.9160   21.5510 H   0  0  0  0  0  0  0  0  0  0  0  0
  -17.8140  -28.0170   22.6360 C   0  0  0  0  0  0  0  0  0  0  0  0
  -20.3870  -28.2250   22.7920 C   0  0  0  0  0  3  0  0  0  0  0  0
  -20.4430  -26.9000   21.9950 C   0  0  0  0  0  2  0  0  0  0  0  0
  -19.2720  -26.7250   21.0210 C   0  0  0  0  0  2  0  0  0  0  0  0
  -17.9390  -26.7760   21.7720 C   0  0  0  0  0  2  0  0  0  0  0  0
  -18.9650  -28.7030   23.1060 C   0  0  0  0  0  0  0  0  0  0  0  0
  -18.7990  -29.8640   23.8920 C   0  0  0  0  0  3  0  0  0  0  0  0
  -17.5130  -30.3390   24.2100 C   0  0  0  0  0  3  0  0  0  0  0  0
  -16.3760  -29.6500   23.7540 C   0  0  0  0  0  3  0  0  0  0  0  0
  -16.5290  -28.4900   22.9730 C   0  0  0  0  0  3  0  0  0  0  0  0
  -25.6690  -32.3330   23.7810 C   0  0  0  0  0  3  0  0  0  0  0  0
  -25.4250  -33.7370   24.1390 N   0  0  0  0  0  0  0  0  0  0  0  0
  -25.8210  -34.7860   23.4040 C   0  0  0  0  0  0  0  0  0  0  0  0
  -26.5030  -34.6710   22.3800 O   0  0  0  0  0  0  0  0  0  0  0  0
  -24.8330  -33.9040   24.9370 H   0  0  0  0  0  0  0  0  0  0  0  0
  -24.1770  -36.6610   23.0540 C   0  0  0  0  0  1  0  0  0  0  0  0
  -25.3880  -36.1880   23.8760 C   0  0  0  0  0  3  0  0  0  0  0  0
  -27.5480  -36.9650   24.7470 C   0  0  0  0  0  1  0  0  0  0  0  0
  -26.4680  -37.1960   23.7930 N   0  0  0  0  0  0  0  0  0  0  0  0
  -26.1030  -38.1310   23.9480 H   0  0  0  0  0  0  0  0  0  0  0  0
  -26.1400  -31.5130   25.0440 C   0  0  1  0  0  0  0  0  0  0  0  0
  -25.0300  -31.3040   26.1010 C   0  0  0  0  0  1  0  0  0  0  0  0
  -26.6610  -30.1180   24.6220 C   0  0  0  0  0  1  0  0  0  0  0  0
  -27.3270  -32.2340   25.7260 C   0  0  0  0  0  1  0  0  0  0  0  0
  -32.6320  -17.8550   21.2230 C   0  0  0  0  0  3  0  0  0  0  0  0
  -30.3900  -16.9120   21.0660 C   0  0  0  0  0  3  0  0  0  0  0  0
  -32.3040  -15.6610   20.2100 C   0  0  0  0  0  3  0  0  0  0  0  0
  -31.2360  -17.9850   21.4410 C   0  0  0  0  0  0  0  0  0  0  0  0
  -33.1650  -16.7040   20.6050 C   0  0  0  0  0  0  0  0  0  0  0  0
  -30.9130  -15.7590   20.4420 C   0  0  0  0  0  0  0  0  0  0  0  0
  -30.1000  -13.9750   18.9660 C   0  0  0  0  0  0  0  0  0  0  0  0
  -29.6260  -11.7870   17.9320 C   0  0  0  0  0  2  0  0  0  0  0  0
  -28.4030  -11.8130   17.0030 C   0  0  0  0  0  2  0  0  0  0  0  0
  -27.1170  -11.5410   17.8000 C   0  0  0  0  0  2  0  0  0  0  0  0
  -27.0020  -12.4410   19.0580 C   0  0  0  0  0  3  0  0  0  0  0  0
  -28.3140  -12.4390   19.8810 C   0  0  0  0  0  2  0  0  0  0  0  0
  -29.4350  -12.7920   18.9900 N   0  0  0  0  0  0  0  0  0  0  0  0
  -30.7950  -14.3410   18.0140 O   0  0  0  0  0  0  0  0  0  0  0  0
  -30.0410  -14.6890   20.0990 N   0  0  0  0  0  0  0  0  0  0  0  0
  -29.3780  -14.3860   20.7960 H   0  0  0  0  0  0  0  0  0  0  0  0
  -24.8770  -12.8690   20.4510 C   0  0  0  0  0  0  0  0  0  0  0  0
  -23.9820  -12.0150   21.0420 C   0  0  0  0  0  0  0  0  0  0  0  0
  -24.4570  -10.6970   20.7680 C   0  0  0  0  0  0  0  0  0  0  0  0
  -25.8460  -12.0630   19.8710 N   0  0  0  0  0  0  0  0  0  0  0  0
  -25.6070  -10.7480   20.1100 N   0  0  0  0  0  0  0  0  0  0  0  0
  -23.8530   -9.3880   21.0480 C   0  0  0  0  0  0  0  0  0  0  0  0
  -24.3870   -8.5250   22.0290 C   0  0  0  0  0  3  0  0  0  0  0  0
  -23.7790   -7.2780   22.2980 C   0  0  0  0  0  3  0  0  0  0  0  0
  -22.6210   -6.8860   21.5830 C   0  0  0  0  0  0  0  0  0  0  0  0
  -22.1060   -7.7390   20.5920 C   0  0  0  0  0  3  0  0  0  0  0  0
  -22.7150   -8.9780   20.3240 C   0  0  0  0  0  3  0  0  0  0  0  0
  -21.9780   -5.6840   21.7560 O   0  0  0  0  0  0  0  0  0  0  0  0
  -21.8270   -5.1210   22.9970 C   0  0  0  0  0  0  0  0  0  0  0  0
  -21.1360   -5.7800   24.0360 C   0  0  0  0  0  3  0  0  0  0  0  0
  -20.9440   -5.1340   25.2740 C   0  0  0  0  0  3  0  0  0  0  0  0
  -21.4330   -3.8300   25.4710 C   0  0  0  0  0  0  0  0  0  0  0  0
  -22.1160   -3.1690   24.4340 C   0  0  0  0  0  3  0  0  0  0  0  0
  -22.3090   -3.8120   23.1990 C   0  0  0  0  0  0  0  0  0  0  0  0
  -22.9510   -3.1630   22.1980 F   0  0  0  0  0  0  0  0  0  0  0  0
  -21.2410   -3.2060   26.6570 F   0  0  0  0  0  0  0  0  0  0  0  0
  -22.7060  -12.3980   21.7320 C   0  0  0  0  0  0  0  0  0  0  0  0
  -22.3180  -11.6460   22.7570 N   0  0  0  0  0  0  0  0  0  0  0  0
  -22.0720  -13.3970   21.4000 O   0  0  0  0  0  0  0  0  0  0  0  0
  -22.8500  -10.8380   23.0400 H   0  0  0  0  0  0  0  0  0  0  0  0
  -21.4770  -11.8830   23.2630 H   0  0  0  0  0  0  0  0  0  0  0  0
  -24.9420  -14.2540   20.3540 N   0  0  0  0  0  0  0  0  0  0  0  0
  -24.2150  -14.8530   20.7250 H   0  0  0  0  0  0  0  0  0  0  0  0
  -25.6630  -14.7650   19.8580 H   0  0  0  0  0  0  0  0  0  0  0  0
  -34.5410  -16.5960   20.3790 N   0  0  0  0  0  0  0  0  0  0  0  0
  -35.0970  -17.4460   20.3680 H   0  0  0  0  0  0  0  0  0  0  0  0
  -34.8760  -15.9150   19.7030 H   0  0  0  0  0  0  0  0  0  0  0  0
  1  3  1  0
  1  7  1  0
  2  4  1  0
  3  9  1  0
  3  4  1  0
  4  5  1  1
  4  6  1  0
  7  2  1  0
  8 14  2  0
  9 15  2  0
 10 11  1  0
 10 12  1  0
 11 13  1  0
 12 18  1  6
 12  8  1  0
 12 17  1  0
 13  8  1  0
 13  9  1  0
 17 16  1  0
 19 21  1  0
 19 18  1  0
 20 31  2  0
 21 26  1  0
 22 30  1  0
 22 32  1  0
 23 29  1  0
 23 25  1  0
 24 30  1  0
 25 24  1  0
 26 25  2  0
 27 28  1  0
 27 21  2  0
 28 23  2  0
 29 22  1  0
 30 20  1  0
 32 34  2  0
 33 32  1  0
 35 33  1  0
 36 45  2  0
 36 41  1  0
 37 33  1  0
 37 41  1  0
 38 37  1  0
 39 40  1  0
 39 38  1  0
 40 36  1  0
 41 42  2  0
 42 43  1  0
 44 43  2  0
 45 44  1  0
 46 20  1  0
 46 47  1  0
 46 56  1  0
 47 50  1  0
 48 52  1  0
 48 47  1  0
 49 48  2  0
 52 51  1  0
 54 52  1  0
 54 55  1  0
 54 53  1  0
 56 59  1  1
 56 57  1  0
 58 56  1  0
 60 63  1  0
 61 63  2  0
 62 65  2  0
 62 64  1  0
 63  7  1  0
 64 60  2  0
 65 61  1  0
 66 72  1  0
 66 74  1  0
 67 72  1  0
 68 69  1  0
 68 67  1  0
 70 69  1  0
 70 79  1  0
 70 71  1  0
 72 71  1  0
 73 66  2  0
 74 65  1  0
 74 75  1  0
 76 77  2  0
 77 96  1  0
 78 77  1  0
 78 81  1  0
 79 80  1  0
 79 76  1  0
 80 78  2  0
 81 82  1  0
 82 83  2  0
 84 87  1  0
 84 83  1  0
 85 84  2  0
 86 85  1  0
 86 81  2  0
 87 88  1  0
 88 93  2  0
 88 89  1  0
 89 90  2  0
 90 91  1  0
 91 95  1  0
 92 91  2  0
 93 92  1  0
 94 93  1  0
 96 97  1  0
 97 99  1  0
 97100  1  0
 98 96  2  0
101 76  1  0
101102  1  0
103101  1  0
104 64  1  0
105104  1  0
106104  1  0
M  ISO  4  18 101  19 101  66 100  74 100
M  END
>  <TORSDO>  (22) 
F 21

>  <SCORE>  (22) 
-3.149

>  <name>  (22) 
21

>  <ligand_id>  (22) 
21

>  <original_smiles>  (22) 
[H]c1c([H])c([H])c2c(c1[H])C([H])([H])C([H])([H])C([H])([H])C2([H])N([H])C(=O)C1([H])N(C(=O)C([H])(N([H])C(=O)C([H])(N([H])C([H])([H])[H])C([H])([H])[H])C(C([H])([H])[H])(C([H])([H])[H])C([H])([H])[H])C([H])([H])c2c([H])c(OC([H])([H])C3(C([H])([H])C([H])([H])[H])C(=O)N(C(=O)C4([H])C([H])([H])N(c5c([H])c(N([H])[H])c([H])c(N([H])C(=O)N6C([H])([H])C([H])([H])C([H])([H])C([H])(n7nc(-c8c([H])c([H])c(Oc9c([H])c([H])c(F)c([H])c9F)c([H])c8[H])c(C(=O)N([H])[H])c7N([H])[H])C6([H])[H])c5[H])C([H])([H])C4(C([H])([H])[H])C([H])([H])[H])C([H])([H])C3([H])[H])c([H])c([H])c2C1([H])[H]

>  <smiles>  (22) 
[H]c1c([H])c([H])c2c(c1[H])C([H])([H])C([H])([H])C([H])([H])C2([H])N([H])C(=O)C1([H])N(C(=O)C([H])(N([H])C(=O)C([H])(N([H])C([H])([H])[H])C([H])([H])[H])C(C([H])([H])[H])(C([H])([H])[H])C([H])([H])[H])C([H])([H])c2c([H])c(OC([H])([H])C3(C([H])([H])C([H])([H])[H])C(=O)N(C(=O)C4([H])C([H])([H])N(c5c([H])c(N([H])[H])c([H])c(N([H])C(=O)N6C([H])([H])C([H])([H])C([H])([H])C([H])(n7nc(-c8c([H])c([H])c(Oc9c([H])c([H])c(F)c([H])c9F)c([H])c8[H])c(C(=O)N([H])[H])c7N([H])[H])C6([H])[H])c5[H])C([H])([H])C4(C([H])([H])[H])C([H])([H])[H])C([H])([H])C3([H])[H])c([H])c([H])c2C1([H])[H]

$$$$
22:0:0
     RDKit          3D

 99107  0  0  1  0  0  0  0  0999 V2000
  -30.5190  -21.2440   20.9580 C   0  0  0  0  0  0  0  0  0  0  0  0
  -29.7620  -22.0870   20.2230 N   0  0  0  0  0  0  0  0  0  0  0  0
  -31.4440  -21.7650   21.7640 N   0  0  0  0  0  4  0  0  0  0  0  0
  -29.0210  -21.6750   19.6710 H   0  0  0  0  0  0  0  0  0  0  0  0
  -31.9760  -21.1550   22.3650 H   0  0  0  0  0  0  0  0  0  0  0  0
  -31.6000  -22.7560   21.8180 H   0  0  0  0  0  0  0  0  0  0  0  0
  -31.5650  -18.9740   20.9930 C   0  0  0  0  0  3  0  0  0  0  0  0
  -31.4840  -17.5640   20.9850 C   0  0  0  0  0  3  0  0  0  0  0  0
  -29.1500  -19.1310   20.7530 C   0  0  0  0  0  3  0  0  0  0  0  0
  -30.4010  -19.7740   20.8870 C   0  0  0  0  0  0  0  0  0  0  0  0
  -30.2310  -16.9190   20.8590 C   0  0  0  0  0  0  0  0  0  0  0  0
  -29.0720  -17.7200   20.7450 C   0  0  0  0  0  0  0  0  0  0  0  0
  -27.8640  -17.1160   20.6260 F   0  0  0  0  0  0  0  0  0  0  0  0
  -30.7480  -14.5380   20.2510 C   0  0  0  0  0  0  0  0  0  0  0  0
  -30.4080  -12.4220   19.0270 C   0  0  0  0  0  2  0  0  0  0  0  0
  -29.4090  -12.6750   17.8770 C   0  0  0  0  0  2  0  0  0  0  0  0
  -27.9550  -12.5230   18.3680 C   0  0  0  0  0  2  0  0  0  0  0  0
  -27.6790  -13.3060   19.6810 C   0  0  0  0  0  3  0  0  0  0  0  0
  -28.7830  -13.0270   20.7260 C   0  0  0  0  0  2  0  0  0  0  0  0
  -30.0830  -13.3590   20.1130 N   0  0  0  0  0  0  0  0  0  0  0  0
  -31.8480  -14.7440   19.7310 O   0  0  0  0  0  0  0  0  0  0  0  0
  -30.0500  -15.5020   20.8820 N   0  0  0  0  0  0  0  0  0  0  0  0
  -29.1450  -15.2060   21.2180 H   0  0  0  0  0  0  0  0  0  0  0  0
  -25.3120  -13.8920   20.5060 C   0  0  0  0  0  0  0  0  0  0  0  0
  -24.2610  -13.1090   20.8970 C   0  0  0  0  0  0  0  0  0  0  0  0
  -24.7200  -11.7590   20.8100 C   0  0  0  0  0  0  0  0  0  0  0  0
  -26.3480  -13.0190   20.2090 N   0  0  0  0  0  0  0  0  0  0  0  0
  -25.9960  -11.7290   20.4470 N   0  0  0  0  0  0  0  0  0  0  0  0
  -24.0040  -10.4910   20.9980 C   0  0  0  0  0  0  0  0  0  0  0  0
  -24.4440   -9.5240   21.9280 C   0  0  0  0  0  3  0  0  0  0  0  0
  -23.7270   -8.3200   22.1020 C   0  0  0  0  0  3  0  0  0  0  0  0
  -22.5570   -8.0760   21.3460 C   0  0  0  0  0  0  0  0  0  0  0  0
  -22.1360   -9.0320   20.4040 C   0  0  0  0  0  3  0  0  0  0  0  0
  -22.8540  -10.2270   20.2280 C   0  0  0  0  0  3  0  0  0  0  0  0
  -21.8120   -6.9250   21.4290 O   0  0  0  0  0  0  0  0  0  0  0  0
  -21.7190   -6.2110   22.5960 C   0  0  0  0  0  0  0  0  0  0  0  0
  -21.2040   -6.7810   23.7810 C   0  0  0  0  0  3  0  0  0  0  0  0
  -21.0620   -5.9910   24.9390 C   0  0  0  0  0  3  0  0  0  0  0  0
  -21.4240   -4.6300   24.9130 C   0  0  0  0  0  0  0  0  0  0  0  0
  -21.9320   -4.0590   23.7320 C   0  0  0  0  0  3  0  0  0  0  0  0
  -22.0760   -4.8460   22.5770 C   0  0  0  0  0  0  0  0  0  0  0  0
  -22.5450   -4.2860   21.4360 F   0  0  0  0  0  0  0  0  0  0  0  0
  -21.2810   -3.8690   26.0230 F   0  0  0  0  0  0  0  0  0  0  0  0
  -22.8780  -13.5770   21.2450 C   0  0  0  0  0  0  0  0  0  0  0  0
  -22.1870  -12.8530   22.1210 N   0  0  0  0  0  0  0  0  0  0  0  0
  -22.4170  -14.6170   20.7770 O   0  0  0  0  0  0  0  0  0  0  0  0
  -22.5730  -12.0100   22.5210 H   0  0  0  0  0  0  0  0  0  0  0  0
  -21.2610  -13.1470   22.3950 H   0  0  0  0  0  0  0  0  0  0  0  0
  -25.4680  -15.2670   20.3640 N   0  0  0  0  0  0  0  0  0  0  0  0
  -24.7120  -15.9140   20.5560 H   0  0  0  0  0  0  0  0  0  0  0  0
  -26.3330  -15.7360   20.1210 H   0  0  0  0  0  0  0  0  0  0  0  0
  -29.8930  -23.5700   20.1200 C   0  0  0  0  0  3  0  0  0  0  0  0
  -29.7420  -23.3880   17.5310 C   0  0  0  0  0  1  0  0  0  0  0  0
  -31.9960  -23.5560   18.6600 C   0  0  0  0  0  1  0  0  0  0  0  0
  -30.5130  -23.9500   18.7440 C   0  0  0  0  0  3  0  0  0  0  0  0
  -28.5430  -24.2920   20.3520 C   0  0  0  0  0  0  0  0  0  0  0  0
  -27.4640  -23.7760   20.0410 O   0  0  0  0  0  0  0  0  0  0  0  0
  -28.5790  -25.6840   21.0210 C   0  0  0  0  0  2  0  0  0  0  0  0
  -28.5030  -26.7530   20.0650 O   0  0  0  0  0  0  0  0  0  0  0  0
  -24.6230  -31.8610   23.1920 C   0  0  0  0  0  0  0  0  0  0  0  0
  -27.3350  -27.4760   20.1000 C   0  0  0  0  0  0  0  0  0  0  0  0
  -23.4480  -30.4690   21.5190 C   0  0  0  0  0  3  0  0  0  0  0  0
  -24.9290  -28.9550   20.1000 C   0  0  0  0  0  0  0  0  0  0  0  0
  -25.9710  -30.8510   21.3560 C   0  0  0  0  0  2  0  0  0  0  0  0
  -26.0750  -29.4850   20.7060 C   0  0  0  0  0  0  0  0  0  0  0  0
  -27.2850  -28.7520   20.7030 C   0  0  0  0  0  3  0  0  0  0  0  0
  -26.1760  -26.9530   19.4930 C   0  0  0  0  0  3  0  0  0  0  0  0
  -24.9740  -27.6860   19.4920 C   0  0  0  0  0  3  0  0  0  0  0  0
  -23.6780  -29.8030   20.1360 C   0  0  0  0  0  2  0  0  0  0  0  0
  -24.6980  -31.0750   22.0820 N   0  0  0  0  0  0  0  0  0  0  0  0
  -23.5340  -32.1200   23.7230 O   0  0  0  0  0  0  0  0  0  0  0  0
  -22.7920  -29.4340   22.4620 C   0  0  0  0  0  0  0  0  0  0  0  0
  -21.4650  -29.2680   22.3390 N   0  0  0  0  0  0  0  0  0  0  0  0
  -23.4740  -28.7820   23.2580 O   0  0  0  0  0  0  0  0  0  0  0  0
  -20.9770  -29.8460   21.6670 H   0  0  0  0  0  0  0  0  0  0  0  0
  -18.0750  -28.1320   22.8600 C   0  0  0  0  0  0  0  0  0  0  0  0
  -20.6420  -28.3220   23.0910 C   0  0  0  0  0  3  0  0  0  0  0  0
  -20.7010  -26.9110   22.4620 C   0  0  0  0  0  2  0  0  0  0  0  0
  -19.5730  -26.6500   21.4590 C   0  0  0  0  0  2  0  0  0  0  0  0
  -18.2070  -26.8040   22.1350 C   0  0  0  0  0  2  0  0  0  0  0  0
  -19.2190  -28.8520   23.2950 C   0  0  0  0  0  0  0  0  0  0  0  0
  -19.0400  -30.1000   23.9330 C   0  0  0  0  0  3  0  0  0  0  0  0
  -17.7520  -30.6250   24.1410 C   0  0  0  0  0  3  0  0  0  0  0  0
  -16.6220  -29.9010   23.7220 C   0  0  0  0  0  3  0  0  0  0  0  0
  -16.7850  -28.6560   23.0880 C   0  0  0  0  0  3  0  0  0  0  0  0
  -25.8970  -32.4930   23.8350 C   0  0  0  0  0  3  0  0  0  0  0  0
  -25.5820  -33.8890   24.1660 N   0  0  0  0  0  0  0  0  0  0  0  0
  -25.9230  -34.9440   23.4140 C   0  0  0  0  0  0  0  0  0  0  0  0
  -26.6090  -34.8450   22.3940 O   0  0  0  0  0  0  0  0  0  0  0  0
  -24.9720  -34.0400   24.9560 H   0  0  0  0  0  0  0  0  0  0  0  0
  -24.2020  -36.7370   23.0290 C   0  0  0  0  0  1  0  0  0  0  0  0
  -25.4240  -36.3290   23.8670 C   0  0  0  0  0  3  0  0  0  0  0  0
  -27.5360  -37.2110   24.7570 C   0  0  0  0  0  1  0  0  0  0  0  0
  -26.4590  -37.3840   23.7860 N   0  0  0  0  0  0  0  0  0  0  0  0
  -26.0480  -38.3020   23.9280 H   0  0  0  0  0  0  0  0  0  0  0  0
  -26.4010  -31.7160   25.1140 C   0  0  1  0  0  0  0  0  0  0  0  0
  -25.2950  -31.4630   26.1630 C   0  0  0  0  0  1  0  0  0  0  0  0
  -26.9970  -30.3450   24.7180 C   0  0  0  0  0  1  0  0  0  0  0  0
  -27.5380  -32.5110   25.7970 C   0  0  0  0  0  1  0  0  0  0  0  0
  1  3  2  0
  2  1  1  0
  3  6  1  0
  3  5  1  0
  4  2  1  0
  8  7  1  0
  9 10  1  0
 10  1  1  0
 10  7  2  0
 11 22  1  0
 11  8  2  0
 12  9  2  0
 12 11  1  0
 13 12  1  0
 14 22  1  0
 15 20  1  0
 16 17  1  0
 16 15  1  0
 18 17  1  0
 18 27  1  0
 18 19  1  0
 20 14  1  0
 20 19  1  0
 21 14  2  0
 22 23  1  0
 24 25  2  0
 25 44  1  0
 26 25  1  0
 26 29  1  0
 27 28  1  0
 27 24  1  0
 28 26  2  0
 29 30  1  0
 30 31  2  0
 32 35  1  0
 32 31  1  0
 33 32  2  0
 34 33  1  0
 34 29  2  0
 35 36  1  0
 36 37  1  0
 37 38  2  0
 39 38  1  0
 39 43  1  0
 40 39  2  0
 41 36  2  0
 41 40  1  0
 42 41  1  0
 44 45  1  0
 45 48  1  0
 45 47  1  0
 46 44  2  0
 49 24  1  0
 49 50  1  0
 51 49  1  0
 52 55  1  0
 52  2  1  0
 52 56  1  0
 53 55  1  0
 54 55  1  0
 56 58  1  0
 57 56  2  0
 59 61  1  0
 59 58  1  0
 60 71  2  0
 61 66  1  0
 62 70  1  0
 62 72  1  0
 63 69  1  0
 63 65  1  0
 64 70  1  0
 65 64  1  0
 66 65  2  0
 67 61  2  0
 68 67  1  0
 68 63  2  0
 69 62  1  0
 70 60  1  0
 72 74  2  0
 73 72  1  0
 75 73  1  0
 76 85  2  0
 76 81  1  0
 77 73  1  0
 77 81  1  0
 78 77  1  0
 79 80  1  0
 79 78  1  0
 80 76  1  0
 81 82  2  0
 82 83  1  0
 84 83  2  0
 85 84  1  0
 86 60  1  0
 86 87  1  0
 86 96  1  0
 87 90  1  0
 88 92  1  0
 88 87  1  0
 89 88  2  0
 92 91  1  0
 94 92  1  0
 94 95  1  0
 94 93  1  0
 96 99  1  1
 96 97  1  0
 98 96  1  0
M  ISO  4  14 100  22 100  58 101  59 101
M  END
>  <TORSDO>  (23) 
F 21

>  <SCORE>  (23) 
-13.916

>  <name>  (23) 
22

>  <ligand_id>  (23) 
22

>  <original_smiles>  (23) 
[H]c1c([H])c([H])c2c(c1[H])C([H])([H])C([H])([H])C([H])([H])C2([H])N([H])C(=O)C1([H])N(C(=O)C([H])(N([H])C(=O)C([H])(N([H])C([H])([H])[H])C([H])([H])[H])C(C([H])([H])[H])(C([H])([H])[H])C([H])([H])[H])C([H])([H])c2c([H])c(OC([H])([H])C(=O)C([H])(N([H])C(c3c([H])c([H])c(N([H])C(=O)N4C([H])([H])C([H])([H])C([H])([H])C([H])(n5nc(-c6c([H])c([H])c(Oc7c([H])c([H])c(F)c([H])c7F)c([H])c6[H])c(C(=O)N([H])[H])c5N([H])[H])C4([H])[H])c(F)c3[H])=[N+]([H])[H])C([H])(C([H])([H])[H])C([H])([H])[H])c([H])c([H])c2C1([H])[H]

>  <smiles>  (23) 
[H]c1c([H])c([H])c2c(c1[H])C([H])([H])C([H])([H])C([H])([H])C2([H])N([H])C(=O)C1([H])N(C(=O)C([H])(N([H])C(=O)C([H])(N([H])C([H])([H])[H])C([H])([H])[H])C(C([H])([H])[H])(C([H])([H])[H])C([H])([H])[H])C([H])([H])c2c([H])c(OC([H])([H])C(=O)C([H])(N([H])C(c3c([H])c([H])c(N([H])C(=O)N4C([H])([H])C([H])([H])C([H])([H])C([H])(n5nc(-c6c([H])c([H])c(Oc7c([H])c([H])c(F)c([H])c7F)c([H])c6[H])c(C(=O)N([H])[H])c5N([H])[H])C4([H])[H])c(F)c3[H])=[N+]([H])[H])C([H])(C([H])([H])[H])C([H])([H])[H])c([H])c([H])c2C1([H])[H]

$$$$
23:0:0
     RDKit          3D

 95104  0  0  1  0  0  0  0  0999 V2000
  -29.2480  -23.1830   20.8110 C   0  0  0  0  0  0  0  0  0  0  0  0
  -27.0610  -23.1670   19.8490 C   0  0  0  0  0  3  0  0  0  0  0  0
  -27.6650  -21.7540   19.9130 C   0  0  0  0  0  3  0  0  0  0  0  0
  -28.0490  -24.1310   20.5450 C   0  0  1  0  0  0  0  0  0  0  0  0
  -27.4990  -24.5590   21.9260 C   0  0  0  0  0  1  0  0  0  0  0  0
  -28.9610  -21.8800   20.5630 N   0  0  0  0  0  0  0  0  0  0  0  0
  -30.3320  -23.6130   21.2210 O   0  0  0  0  0  0  0  0  0  0  0  0
  -31.2940  -19.5920   22.4710 C   0  0  0  0  0  3  0  0  0  0  0  0
  -31.1400  -18.3750   21.7790 C   0  0  0  0  0  3  0  0  0  0  0  0
  -30.6010  -20.7470   22.0580 C   0  0  0  0  0  3  0  0  0  0  0  0
  -29.5800  -19.4670   20.2620 C   0  0  0  0  0  3  0  0  0  0  0  0
  -30.2860  -18.2910   20.6590 C   0  0  0  0  0  0  0  0  0  0  0  0
  -29.7270  -20.7100   20.9460 C   0  0  0  0  0  0  0  0  0  0  0  0
  -29.0950  -16.9530   18.7990 C   0  0  0  0  0  1  0  0  0  0  0  0
  -30.2220  -16.9690   19.8500 C   0  0  0  0  0  3  0  0  0  0  0  0
  -30.9440  -14.6370   20.4470 C   0  0  0  0  0  0  0  0  0  0  0  0
  -30.7190  -12.3840   19.4840 C   0  0  0  0  0  2  0  0  0  0  0  0
  -29.8120  -12.5060   18.2400 C   0  0  0  0  0  2  0  0  0  0  0  0
  -28.3280  -12.3790   18.6330 C   0  0  0  0  0  2  0  0  0  0  0  0
  -27.9460  -13.2830   19.8360 C   0  0  0  0  0  3  0  0  0  0  0  0
  -28.9750  -13.1550   20.9860 C   0  0  0  0  0  2  0  0  0  0  0  0
  -30.3110  -13.4320   20.4350 N   0  0  0  0  0  0  0  0  0  0  0  0
  -32.1060  -14.7770   20.0540 O   0  0  0  0  0  0  0  0  0  0  0  0
  -30.1390  -15.7090   20.6300 N   0  0  0  0  0  0  0  0  0  0  0  0
  -29.2330  -15.5020   21.0240 H   0  0  0  0  0  0  0  0  0  0  0  0
  -25.5460  -13.9170   20.5090 C   0  0  0  0  0  0  0  0  0  0  0  0
  -24.4640  -13.1580   20.8620 C   0  0  0  0  0  0  0  0  0  0  0  0
  -24.9090  -11.8010   20.8360 C   0  0  0  0  0  0  0  0  0  0  0  0
  -26.5840  -13.0240   20.2950 N   0  0  0  0  0  0  0  0  0  0  0  0
  -26.2040  -11.7460   20.5490 N   0  0  0  0  0  0  0  0  0  0  0  0
  -24.1660  -10.5480   21.0140 C   0  0  0  0  0  0  0  0  0  0  0  0
  -24.5460   -9.5950   21.9850 C   0  0  0  0  0  3  0  0  0  0  0  0
  -23.8040   -8.4050   22.1490 C   0  0  0  0  0  3  0  0  0  0  0  0
  -22.6680   -8.1600   21.3410 C   0  0  0  0  0  0  0  0  0  0  0  0
  -22.3080   -9.1000   20.3600 C   0  0  0  0  0  3  0  0  0  0  0  0
  -23.0500  -10.2820   20.1940 C   0  0  0  0  0  3  0  0  0  0  0  0
  -21.9030   -7.0210   21.4120 O   0  0  0  0  0  0  0  0  0  0  0  0
  -21.7550   -6.3250   22.5850 C   0  0  0  0  0  0  0  0  0  0  0  0
  -21.1970   -6.9190   23.7380 C   0  0  0  0  0  3  0  0  0  0  0  0
  -21.0000   -6.1470   24.9000 C   0  0  0  0  0  3  0  0  0  0  0  0
  -21.3490   -4.7840   24.9100 C   0  0  0  0  0  0  0  0  0  0  0  0
  -21.9010   -4.1900   23.7610 C   0  0  0  0  0  3  0  0  0  0  0  0
  -22.1000   -4.9590   22.6000 C   0  0  0  0  0  0  0  0  0  0  0  0
  -22.6120   -4.3770   21.4890 F   0  0  0  0  0  0  0  0  0  0  0  0
  -21.1530   -4.0400   26.0240 F   0  0  0  0  0  0  0  0  0  0  0  0
  -23.0680  -13.6530   21.1130 C   0  0  0  0  0  0  0  0  0  0  0  0
  -22.3180  -12.9610   21.9650 N   0  0  0  0  0  0  0  0  0  0  0  0
  -22.6510  -14.6840   20.5890 O   0  0  0  0  0  0  0  0  0  0  0  0
  -22.6690  -12.1270   22.4110 H   0  0  0  0  0  0  0  0  0  0  0  0
  -21.3810  -13.2730   22.1750 H   0  0  0  0  0  0  0  0  0  0  0  0
  -25.7300  -15.2860   20.3360 N   0  0  0  0  0  0  0  0  0  0  0  0
  -24.9670  -15.9480   20.4320 H   0  0  0  0  0  0  0  0  0  0  0  0
  -26.5870  -15.7160   20.0130 H   0  0  0  0  0  0  0  0  0  0  0  0
  -28.3930  -25.3850   19.6420 C   0  0  0  0  0  2  0  0  0  0  0  0
  -28.3030  -26.7100   20.2250 O   0  0  0  0  0  0  0  0  0  0  0  0
  -24.5520  -31.9590   23.2410 C   0  0  0  0  0  0  0  0  0  0  0  0
  -27.1270  -27.4460   20.1740 C   0  0  0  0  0  0  0  0  0  0  0  0
  -23.3170  -30.5520   21.6250 C   0  0  0  0  0  3  0  0  0  0  0  0
  -24.7420  -28.9910   20.1940 C   0  0  0  0  0  0  0  0  0  0  0  0
  -25.8450  -30.8840   21.3970 C   0  0  0  0  0  2  0  0  0  0  0  0
  -25.9110  -29.5050   20.7670 C   0  0  0  0  0  0  0  0  0  0  0  0
  -27.1010  -28.7380   20.7540 C   0  0  0  0  0  3  0  0  0  0  0  0
  -25.9350  -26.9530   19.5900 C   0  0  0  0  0  3  0  0  0  0  0  0
  -24.7510  -27.7150   19.6040 C   0  0  0  0  0  3  0  0  0  0  0  0
  -23.5050  -29.8600   20.2490 C   0  0  0  0  0  2  0  0  0  0  0  0
  -24.5910  -31.1480   22.1450 N   0  0  0  0  0  0  0  0  0  0  0  0
  -23.4800  -32.2430   23.7910 O   0  0  0  0  0  0  0  0  0  0  0  0
  -22.6690  -29.5450   22.6020 C   0  0  0  0  0  0  0  0  0  0  0  0
  -21.3460  -29.3520   22.4760 N   0  0  0  0  0  0  0  0  0  0  0  0
  -23.3540  -28.9380   23.4300 O   0  0  0  0  0  0  0  0  0  0  0  0
  -20.8540  -29.8920   21.7780 H   0  0  0  0  0  0  0  0  0  0  0  0
  -17.9800  -28.1370   22.9780 C   0  0  0  0  0  0  0  0  0  0  0  0
  -20.5330  -28.4230   23.2610 C   0  0  0  0  0  3  0  0  0  0  0  0
  -20.6530  -26.9820   22.7160 C   0  0  0  0  0  2  0  0  0  0  0  0
  -19.5610  -26.6280   21.7010 C   0  0  0  0  0  2  0  0  0  0  0  0
  -18.1730  -26.7740   22.3340 C   0  0  0  0  0  2  0  0  0  0  0  0
  -19.0890  -28.9170   23.4000 C   0  0  0  0  0  0  0  0  0  0  0  0
  -18.8560  -30.1910   23.9630 C   0  0  0  0  0  3  0  0  0  0  0  0
  -17.5460  -30.6840   24.1100 C   0  0  0  0  0  3  0  0  0  0  0  0
  -16.4510  -29.9020   23.7060 C   0  0  0  0  0  3  0  0  0  0  0  0
  -16.6690  -28.6290   23.1460 C   0  0  0  0  0  3  0  0  0  0  0  0
  -25.8490  -32.5880   23.8390 C   0  0  0  0  0  3  0  0  0  0  0  0
  -26.3870  -31.8160   25.1070 C   0  0  1  0  0  0  0  0  0  0  0  0
  -25.3060  -31.5640   26.1850 C   0  0  0  0  0  1  0  0  0  0  0  0
  -26.9810  -30.4470   24.7030 C   0  0  0  0  0  1  0  0  0  0  0  0
  -27.5340  -32.6210   25.7600 C   0  0  0  0  0  1  0  0  0  0  0  0
  -25.5500  -33.9860   24.1710 N   0  0  0  0  0  0  0  0  0  0  0  0
  -25.8870  -35.0380   23.4120 C   0  0  0  0  0  0  0  0  0  0  0  0
  -26.5530  -34.9320   22.3790 O   0  0  0  0  0  0  0  0  0  0  0  0
  -24.9610  -34.1440   24.9760 H   0  0  0  0  0  0  0  0  0  0  0  0
  -24.1810  -36.8500   23.0480 C   0  0  0  0  0  1  0  0  0  0  0  0
  -25.4070  -36.4280   23.8730 C   0  0  0  0  0  3  0  0  0  0  0  0
  -27.5380  -37.2870   24.7370 C   0  0  0  0  0  1  0  0  0  0  0  0
  -26.4500  -37.4730   23.7800 N   0  0  0  0  0  0  0  0  0  0  0  0
  -26.0510  -38.3950   23.9310 H   0  0  0  0  0  0  0  0  0  0  0  0
  1  7  2  0
  2  3  2  0
  2  4  1  0
  3  6  1  0
  4  1  1  0
  4  5  1  1
  6  1  1  0
  6 13  1  0
  9  8  2  0
 10  8  1  0
 11 12  2  0
 11 13  1  0
 12  9  1  0
 13 10  2  0
 15 14  1  0
 15 24  1  0
 15 12  1  0
 16 24  1  0
 17 22  1  0
 18 19  1  0
 18 17  1  0
 20 19  1  0
 20 29  1  0
 20 21  1  0
 22 16  1  0
 22 21  1  0
 23 16  2  0
 24 25  1  0
 26 27  2  0
 27 46  1  0
 28 27  1  0
 28 31  1  0
 29 26  1  0
 29 30  1  0
 30 28  2  0
 31 32  1  0
 32 33  2  0
 34 37  1  0
 34 33  1  0
 35 34  2  0
 36 35  1  0
 36 31  2  0
 37 38  1  0
 38 43  2  0
 38 39  1  0
 39 40  2  0
 40 41  1  0
 41 45  1  0
 42 41  2  0
 43 42  1  0
 44 43  1  0
 46 47  1  0
 47 50  1  0
 47 49  1  0
 48 46  2  0
 51 52  1  0
 51 26  1  0
 53 51  1  0
 54 55  1  0
 54  4  1  0
 56 67  2  0
 57 55  1  0
 57 62  1  0
 58 66  1  0
 58 68  1  0
 59 65  1  0
 59 61  1  0
 60 66  1  0
 61 60  1  0
 62 61  2  0
 63 64  1  0
 63 57  2  0
 64 59  2  0
 65 58  1  0
 66 56  1  0
 68 70  2  0
 69 68  1  0
 71 69  1  0
 72 81  2  0
 72 77  1  0
 73 69  1  0
 73 77  1  0
 74 73  1  0
 75 76  1  0
 75 74  1  0
 76 72  1  0
 77 78  2  0
 78 79  1  0
 80 79  2  0
 81 80  1  0
 82 56  1  0
 82 87  1  0
 82 83  1  0
 83 86  1  1
 83 84  1  0
 85 83  1  0
 87 90  1  0
 88 92  1  0
 88 87  1  0
 89 88  2  0
 92 91  1  0
 94 92  1  0
 94 95  1  0
 94 93  1  0
M  ISO  4  16 100  24 100  54 101  55 101
M  END
>  <TORSDO>  (24) 
F 19

>  <SCORE>  (24) 
-14.452

>  <name>  (24) 
23

>  <ligand_id>  (24) 
23

>  <original_smiles>  (24) 
[H]c1c([H])c([H])c2c(c1[H])C([H])([H])C([H])([H])C([H])([H])C2([H])N([H])C(=O)C1([H])N(C(=O)C([H])(N([H])C(=O)C([H])(N([H])C([H])([H])[H])C([H])([H])[H])C(C([H])([H])[H])(C([H])([H])[H])C([H])([H])[H])C([H])([H])c2c([H])c(OC([H])([H])C3(C([H])([H])[H])C(=O)N(c4c([H])c([H])c([H])c(C([H])(N([H])C(=O)N5C([H])([H])C([H])([H])C([H])([H])C([H])(n6nc(-c7c([H])c([H])c(Oc8c([H])c([H])c(F)c([H])c8F)c([H])c7[H])c(C(=O)N([H])[H])c6N([H])[H])C5([H])[H])C([H])([H])[H])c4[H])C([H])([H])C3([H])[H])c([H])c([H])c2C1([H])[H]

>  <smiles>  (24) 
[H]c1c([H])c([H])c2c(c1[H])C([H])([H])C([H])([H])C([H])([H])C2([H])N([H])C(=O)C1([H])N(C(=O)C([H])(N([H])C(=O)C([H])(N([H])C([H])([H])[H])C([H])([H])[H])C(C([H])([H])[H])(C([H])([H])[H])C([H])([H])[H])C([H])([H])c2c([H])c(OC([H])([H])C3(C([H])([H])[H])C(=O)N(c4c([H])c([H])c([H])c(C([H])(N([H])C(=O)N5C([H])([H])C([H])([H])C([H])([H])C([H])(n6nc(-c7c([H])c([H])c(Oc8c([H])c([H])c(F)c([H])c8F)c([H])c7[H])c(C(=O)N([H])[H])c6N([H])[H])C5([H])[H])C([H])([H])[H])c4[H])C([H])([H])C3([H])[H])c([H])c([H])c2C1([H])[H]

$$$$
24:0:0
     RDKit          3D

 96104  0  0  1  0  0  0  0  0999 V2000
  -28.9210  -20.9920   19.4000 C   0  0  0  0  0  0  0  0  0  0  0  0
  -28.0090  -21.1250   18.4380 N   0  0  0  0  0  4  0  0  0  0  0  0
  -29.4180  -22.0990   20.0040 N   0  0  0  0  0  0  0  0  0  0  0  0
  -27.5810  -20.2920   18.0560 H   0  0  0  0  0  0  0  0  0  0  0  0
  -27.6470  -22.0170   18.1510 H   0  0  0  0  0  0  0  0  0  0  0  0
  -30.1050  -21.9150   20.7240 H   0  0  0  0  0  0  0  0  0  0  0  0
  -29.6170  -18.6690   18.7340 C   0  0  0  0  0  3  0  0  0  0  0  0
  -29.4940  -19.1920   21.1000 C   0  0  0  0  0  3  0  0  0  0  0  0
  -29.9590  -17.3290   19.0390 C   0  0  0  0  0  3  0  0  0  0  0  0
  -29.8160  -17.8430   21.4050 C   0  0  0  0  0  3  0  0  0  0  0  0
  -29.3640  -19.6170   19.7560 C   0  0  0  0  0  0  0  0  0  0  0  0
  -30.0440  -16.8870   20.3840 C   0  0  0  0  0  0  0  0  0  0  0  0
  -30.8660  -14.5380   20.0410 C   0  0  0  0  0  0  0  0  0  0  0  0
  -30.5310  -12.3560   18.9350 C   0  0  0  0  0  2  0  0  0  0  0  0
  -29.5060  -12.5500   17.7940 C   0  0  0  0  0  2  0  0  0  0  0  0
  -28.0650  -12.4010   18.3220 C   0  0  0  0  0  2  0  0  0  0  0  0
  -27.8100  -13.2470   19.5980 C   0  0  0  0  0  3  0  0  0  0  0  0
  -28.9360  -13.0270   20.6340 C   0  0  0  0  0  2  0  0  0  0  0  0
  -30.2250  -13.3360   19.9890 N   0  0  0  0  0  0  0  0  0  0  0  0
  -31.9240  -14.7560   19.4380 O   0  0  0  0  0  0  0  0  0  0  0  0
  -30.2370  -15.5060   20.7430 N   0  0  0  0  0  0  0  0  0  0  0  0
  -29.5940  -15.1570   21.4380 H   0  0  0  0  0  0  0  0  0  0  0  0
  -25.4950  -13.8630   20.5360 C   0  0  0  0  0  0  0  0  0  0  0  0
  -24.4410  -13.0910   20.9480 C   0  0  0  0  0  0  0  0  0  0  0  0
  -24.8650  -11.7350   20.8050 C   0  0  0  0  0  0  0  0  0  0  0  0
  -26.4930  -12.9740   20.1700 N   0  0  0  0  0  0  0  0  0  0  0  0
  -26.1240  -11.6870   20.3920 N   0  0  0  0  0  0  0  0  0  0  0  0
  -24.1260  -10.4780   20.9900 C   0  0  0  0  0  0  0  0  0  0  0  0
  -24.5570   -9.4960   21.9110 C   0  0  0  0  0  3  0  0  0  0  0  0
  -23.8210   -8.3040   22.0800 C   0  0  0  0  0  3  0  0  0  0  0  0
  -22.6420   -8.0820   21.3280 C   0  0  0  0  0  0  0  0  0  0  0  0
  -22.2320   -9.0530   20.3970 C   0  0  0  0  0  3  0  0  0  0  0  0
  -22.9660  -10.2380   20.2270 C   0  0  0  0  0  3  0  0  0  0  0  0
  -21.8790   -6.9410   21.4080 O   0  0  0  0  0  0  0  0  0  0  0  0
  -21.7650   -6.2320   22.5790 C   0  0  0  0  0  0  0  0  0  0  0  0
  -21.2070   -6.8040   23.7420 C   0  0  0  0  0  3  0  0  0  0  0  0
  -21.0430   -6.0190   24.9010 C   0  0  0  0  0  3  0  0  0  0  0  0
  -21.4280   -4.6650   24.8950 C   0  0  0  0  0  0  0  0  0  0  0  0
  -21.9810   -4.0920   23.7350 C   0  0  0  0  0  3  0  0  0  0  0  0
  -22.1450   -4.8750   22.5790 C   0  0  0  0  0  0  0  0  0  0  0  0
  -22.6570   -4.3160   21.4570 F   0  0  0  0  0  0  0  0  0  0  0  0
  -21.2620   -3.9080   26.0050 F   0  0  0  0  0  0  0  0  0  0  0  0
  -23.0830  -13.5810   21.3610 C   0  0  0  0  0  0  0  0  0  0  0  0
  -22.4130  -12.8500   22.2450 N   0  0  0  0  0  0  0  0  0  0  0  0
  -22.6290  -14.6420   20.9350 O   0  0  0  0  0  0  0  0  0  0  0  0
  -22.7950  -11.9880   22.6070 H   0  0  0  0  0  0  0  0  0  0  0  0
  -21.5060  -13.1560   22.5670 H   0  0  0  0  0  0  0  0  0  0  0  0
  -25.6820  -15.2380   20.4240 N   0  0  0  0  0  0  0  0  0  0  0  0
  -24.9440  -15.9010   20.6330 H   0  0  0  0  0  0  0  0  0  0  0  0
  -26.5190  -15.6750   20.0590 H   0  0  0  0  0  0  0  0  0  0  0  0
  -30.4400  -24.1990   19.1520 C   0  0  0  0  0  1  0  0  0  0  0  0
  -29.1660  -23.5550   19.7260 C   0  0  0  0  0  3  0  0  0  0  0  0
  -28.4280  -25.6470   21.0680 C   0  0  0  0  0  3  0  0  0  0  0  0
  -28.6780  -24.3120   20.9800 C   0  0  0  0  0  0  0  0  0  0  0  0
  -28.4440  -23.4590   22.2210 C   0  0  0  0  0  1  0  0  0  0  0  0
  -28.5220  -26.6110   20.0810 O   0  0  0  0  0  0  0  0  0  0  0  0
  -24.5310  -31.6990   23.0990 C   0  0  0  0  0  0  0  0  0  0  0  0
  -27.3980  -27.4050   20.0030 C   0  0  0  0  0  0  0  0  0  0  0  0
  -23.4170  -30.2890   21.4020 C   0  0  0  0  0  3  0  0  0  0  0  0
  -24.9620  -28.8390   19.9760 C   0  0  0  0  0  0  0  0  0  0  0  0
  -25.9340  -30.7440   21.2710 C   0  0  0  0  0  2  0  0  0  0  0  0
  -26.0880  -29.3900   20.6020 C   0  0  0  0  0  0  0  0  0  0  0  0
  -27.3150  -28.6810   20.6150 C   0  0  0  0  0  3  0  0  0  0  0  0
  -26.2600  -26.8750   19.3660 C   0  0  0  0  0  3  0  0  0  0  0  0
  -25.0430  -27.5820   19.3530 C   0  0  0  0  0  3  0  0  0  0  0  0
  -23.6840  -29.6480   20.0130 C   0  0  0  0  0  2  0  0  0  0  0  0
  -24.6450  -30.9240   21.9830 N   0  0  0  0  0  0  0  0  0  0  0  0
  -23.4280  -31.9200   23.6190 O   0  0  0  0  0  0  0  0  0  0  0  0
  -22.7850  -29.2240   22.3270 C   0  0  0  0  0  0  0  0  0  0  0  0
  -21.4640  -29.0230   22.1930 N   0  0  0  0  0  0  0  0  0  0  0  0
  -23.4780  -28.5840   23.1220 O   0  0  0  0  0  0  0  0  0  0  0  0
  -20.9660  -29.5960   21.5260 H   0  0  0  0  0  0  0  0  0  0  0  0
  -18.1010  -27.7920   22.6870 C   0  0  0  0  0  0  0  0  0  0  0  0
  -20.6620  -28.0490   22.9330 C   0  0  0  0  0  3  0  0  0  0  0  0
  -20.7590  -26.6460   22.2920 C   0  0  0  0  0  2  0  0  0  0  0  0
  -19.6460  -26.3660   21.2780 C   0  0  0  0  0  2  0  0  0  0  0  0
  -18.2720  -26.4760   21.9470 C   0  0  0  0  0  2  0  0  0  0  0  0
  -19.2230  -28.5380   23.1350 C   0  0  0  0  0  0  0  0  0  0  0  0
  -19.0080  -29.7720   23.7880 C   0  0  0  0  0  3  0  0  0  0  0  0
  -17.7040  -30.2590   23.9960 C   0  0  0  0  0  3  0  0  0  0  0  0
  -16.5960  -29.5090   23.5610 C   0  0  0  0  0  3  0  0  0  0  0  0
  -16.7960  -28.2790   22.9120 C   0  0  0  0  0  3  0  0  0  0  0  0
  -25.7770  -32.3670   23.7600 C   0  0  0  0  0  3  0  0  0  0  0  0
  -26.2990  -31.5890   25.0280 C   0  0  1  0  0  0  0  0  0  0  0  0
  -25.1970  -31.2880   26.0690 C   0  0  0  0  0  1  0  0  0  0  0  0
  -26.9450  -30.2450   24.6180 C   0  0  0  0  0  1  0  0  0  0  0  0
  -27.4040  -32.4130   25.7300 C   0  0  0  0  0  1  0  0  0  0  0  0
  -25.4070  -33.7440   24.1100 N   0  0  0  0  0  0  0  0  0  0  0  0
  -25.7120  -34.8230   23.3760 C   0  0  0  0  0  0  0  0  0  0  0  0
  -26.4030  -34.7660   22.3560 O   0  0  0  0  0  0  0  0  0  0  0  0
  -24.7900  -33.8590   24.9010 H   0  0  0  0  0  0  0  0  0  0  0  0
  -23.9220  -36.5560   23.0210 C   0  0  0  0  0  1  0  0  0  0  0  0
  -25.1610  -36.1820   23.8500 C   0  0  0  0  0  3  0  0  0  0  0  0
  -27.2380  -37.1370   24.7470 C   0  0  0  0  0  1  0  0  0  0  0  0
  -26.1540  -37.2750   23.7780 N   0  0  0  0  0  0  0  0  0  0  0  0
  -25.7070  -38.1760   23.9300 H   0  0  0  0  0  0  0  0  0  0  0  0
  1 11  1  0
  1  3  1  0
  2  1  2  0
  3  6  1  0
  4  2  1  0
  5  2  1  0
  7  9  2  0
  7 11  1  0
  8 10  1  0
  9 12  1  0
 11  8  2  0
 12 21  1  0
 12 10  2  0
 13 21  1  0
 14 19  1  0
 15 16  1  0
 15 14  1  0
 17 16  1  0
 17 26  1  0
 17 18  1  0
 19 13  1  0
 19 18  1  0
 20 13  2  0
 21 22  1  0
 23 24  2  0
 24 43  1  0
 25 24  1  0
 25 28  1  0
 26 27  1  0
 26 23  1  0
 27 25  2  0
 28 29  1  0
 29 30  2  0
 31 34  1  0
 31 30  1  0
 32 31  2  0
 33 32  1  0
 33 28  2  0
 34 35  1  0
 35 40  2  0
 35 36  1  0
 36 37  2  0
 38 37  1  0
 38 42  1  0
 39 38  2  0
 40 39  1  0
 41 40  1  0
 43 44  1  0
 44 47  1  0
 44 46  1  0
 45 43  2  0
 48 23  1  0
 48 49  1  0
 50 48  1  0
 52 51  1  0
 52  3  1  0
 52 54  1  0
 54 53  2  0
 54 55  1  0
 56 53  1  0
 57 68  2  0
 58 56  1  0
 58 63  1  0
 59 67  1  0
 59 69  1  0
 60 66  1  0
 60 62  1  0
 61 67  1  0
 62 63  2  0
 62 61  1  0
 64 58  2  0
 65 64  1  0
 65 60  2  0
 66 59  1  0
 67 57  1  0
 69 71  2  0
 70 69  1  0
 72 70  1  0
 73 82  2  0
 73 78  1  0
 74 70  1  0
 74 78  1  0
 75 74  1  0
 76 77  1  0
 76 75  1  0
 77 73  1  0
 78 79  2  0
 79 80  1  0
 81 80  2  0
 82 81  1  0
 83 57  1  0
 83 88  1  0
 83 84  1  0
 84 87  1  1
 84 85  1  0
 86 84  1  0
 88 91  1  0
 89 93  1  0
 89 88  1  0
 90 89  2  0
 93 92  1  0
 95 93  1  0
 95 96  1  0
 95 94  1  0
M  ISO  4  13 100  21 100  53 101  56 101
M  END
>  <TORSDO>  (25) 
F 19

>  <SCORE>  (25) 
-13.482

>  <name>  (25) 
24

>  <ligand_id>  (25) 
24

>  <original_smiles>  (25) 
[H]C(Oc1c([H])c([H])c2c(c1[H])C([H])([H])N(C(=O)C([H])(N([H])C(=O)C([H])(N([H])C([H])([H])[H])C([H])([H])[H])C(C([H])([H])[H])(C([H])([H])[H])C([H])([H])[H])C([H])(C(=O)N([H])C1([H])c3c([H])c([H])c([H])c([H])c3C([H])([H])C([H])([H])C1([H])[H])C2([H])[H])=C(C([H])([H])[H])C([H])([N+]([H])=C(c1c([H])c([H])c(N([H])C(=O)N2C([H])([H])C([H])([H])C([H])([H])C([H])(n3nc(-c4c([H])c([H])c(Oc5c([H])c([H])c(F)c([H])c5F)c([H])c4[H])c(C(=O)N([H])[H])c3N([H])[H])C2([H])[H])c([H])c1[H])N([H])[H])C([H])([H])[H]

>  <smiles>  (25) 
[H]C(Oc1c([H])c([H])c2c(c1[H])C([H])([H])N(C(=O)C([H])(N([H])C(=O)C([H])(N([H])C([H])([H])[H])C([H])([H])[H])C(C([H])([H])[H])(C([H])([H])[H])C([H])([H])[H])C([H])(C(=O)N([H])C1([H])c3c([H])c([H])c([H])c([H])c3C([H])([H])C([H])([H])C1([H])[H])C2([H])[H])=C(C([H])([H])[H])C([H])([N+]([H])=C(c1c([H])c([H])c(N([H])C(=O)N2C([H])([H])C([H])([H])C([H])([H])C([H])(n3nc(-c4c([H])c([H])c(Oc5c([H])c([H])c(F)c([H])c5F)c([H])c4[H])c(C(=O)N([H])[H])c3N([H])[H])C2([H])[H])c([H])c1[H])N([H])[H])C([H])([H])[H]

$$$$
25:0:0
     RDKit          3D

 96105  0  0  1  0  0  0  0  0999 V2000
  -30.4640  -21.9830   17.7720 C   0  0  0  0  0  0  0  0  0  0  0  0
  -31.0530  -21.2600   16.8060 C   0  0  0  0  0  2  0  0  0  0  0  0
  -31.1930  -23.0630   18.5510 C   0  0  0  0  0  2  0  0  0  0  0  0
  -29.0170  -21.7820   18.1850 C   0  0  0  0  0  2  0  0  0  0  0  0
  -30.8900  -22.9870   20.0670 C   0  0  0  0  0  2  0  0  0  0  0  0
  -29.4080  -22.6840   20.4200 C   0  0  0  0  0  3  0  0  0  0  0  0
  -28.9320  -21.4950   19.6250 N   0  0  0  0  0  0  0  0  0  0  0  0
  -29.9930  -19.6590   21.0690 C   0  0  0  0  0  3  0  0  0  0  0  0
  -30.2240  -18.2680   21.3500 C   0  0  0  0  0  3  0  0  0  0  0  0
  -28.6970  -19.0350   19.1720 C   0  0  0  0  0  3  0  0  0  0  0  0
  -28.9400  -17.6520   19.4200 C   0  0  0  0  0  0  0  0  0  0  0  0
  -29.2110  -20.1040   19.9640 C   0  0  0  0  0  0  0  0  0  0  0  0
  -29.7100  -17.2170   20.5370 C   0  0  0  0  0  0  0  0  0  0  0  0
  -28.3180  -16.6550   18.4590 C   0  0  0  0  0  1  0  0  0  0  0  0
  -30.5810  -14.7620   20.6530 C   0  0  0  0  0  0  0  0  0  0  0  0
  -30.4770  -12.4780   19.6670 C   0  0  0  0  0  2  0  0  0  0  0  0
  -29.5930  -12.5510   18.4000 C   0  0  0  0  0  2  0  0  0  0  0  0
  -28.1000  -12.3930   18.7560 C   0  0  0  0  0  2  0  0  0  0  0  0
  -27.6700  -13.2750   19.9580 C   0  0  0  0  0  3  0  0  0  0  0  0
  -28.6730  -13.1630   21.1270 C   0  0  0  0  0  2  0  0  0  0  0  0
  -30.0030  -13.5170   20.6040 N   0  0  0  0  0  0  0  0  0  0  0  0
  -31.7570  -14.9320   20.3190 O   0  0  0  0  0  0  0  0  0  0  0  0
  -29.7360  -15.8060   20.9520 N   0  0  0  0  0  0  0  0  0  0  0  0
  -28.8410  -15.4650   21.2670 H   0  0  0  0  0  0  0  0  0  0  0  0
  -25.2420  -13.8830   20.5380 C   0  0  0  0  0  0  0  0  0  0  0  0
  -24.1600  -13.1120   20.8640 C   0  0  0  0  0  0  0  0  0  0  0  0
  -24.6280  -11.7630   20.8860 C   0  0  0  0  0  0  0  0  0  0  0  0
  -26.3010  -13.0010   20.3770 N   0  0  0  0  0  0  0  0  0  0  0  0
  -25.9330  -11.7230   20.6460 N   0  0  0  0  0  0  0  0  0  0  0  0
  -23.8980  -10.5020   21.0640 C   0  0  0  0  0  0  0  0  0  0  0  0
  -24.3000   -9.5470   22.0240 C   0  0  0  0  0  3  0  0  0  0  0  0
  -23.5710   -8.3490   22.1910 C   0  0  0  0  0  3  0  0  0  0  0  0
  -22.4270   -8.0990   21.3960 C   0  0  0  0  0  0  0  0  0  0  0  0
  -22.0450   -9.0430   20.4260 C   0  0  0  0  0  3  0  0  0  0  0  0
  -22.7750  -10.2320   20.2580 C   0  0  0  0  0  3  0  0  0  0  0  0
  -21.6740   -6.9530   21.4690 O   0  0  0  0  0  0  0  0  0  0  0  0
  -21.5930   -6.2170   22.6240 C   0  0  0  0  0  0  0  0  0  0  0  0
  -21.1490   -6.7830   23.8390 C   0  0  0  0  0  3  0  0  0  0  0  0
  -21.0160   -5.9740   24.9850 C   0  0  0  0  0  3  0  0  0  0  0  0
  -21.3180   -4.6000   24.9160 C   0  0  0  0  0  0  0  0  0  0  0  0
  -21.7550   -4.0340   23.7060 C   0  0  0  0  0  3  0  0  0  0  0  0
  -21.8900   -4.8410   22.5630 C   0  0  0  0  0  0  0  0  0  0  0  0
  -22.2920   -4.2870   21.3940 F   0  0  0  0  0  0  0  0  0  0  0  0
  -21.1820   -3.8210   26.0150 F   0  0  0  0  0  0  0  0  0  0  0  0
  -22.7490  -13.5890   21.0530 C   0  0  0  0  0  0  0  0  0  0  0  0
  -21.9800  -12.9080   21.8970 N   0  0  0  0  0  0  0  0  0  0  0  0
  -22.3340  -14.6000   20.4900 O   0  0  0  0  0  0  0  0  0  0  0  0
  -22.3280  -12.0900   22.3760 H   0  0  0  0  0  0  0  0  0  0  0  0
  -21.0310  -13.2090   22.0670 H   0  0  0  0  0  0  0  0  0  0  0  0
  -25.4090  -15.2500   20.3460 N   0  0  0  0  0  0  0  0  0  0  0  0
  -24.6330  -15.9010   20.4130 H   0  0  0  0  0  0  0  0  0  0  0  0
  -26.2770  -15.6980   20.0830 H   0  0  0  0  0  0  0  0  0  0  0  0
  -28.4810  -24.0200   20.4940 C   0  0  0  0  0  0  0  0  0  0  0  0
  -27.5570  -24.0560   21.3110 O   0  0  0  0  0  0  0  0  0  0  0  0
  -28.6720  -25.3010   19.5810 C   0  0  0  0  0  2  0  0  0  0  0  0
  -28.5020  -26.6240   20.2270 O   0  0  0  0  0  0  0  0  0  0  0  0
  -24.6830  -31.9180   23.2390 C   0  0  0  0  0  0  0  0  0  0  0  0
  -27.3350  -27.3980   20.1580 C   0  0  0  0  0  0  0  0  0  0  0  0
  -23.4810  -30.5030   21.6070 C   0  0  0  0  0  3  0  0  0  0  0  0
  -24.9380  -28.9630   20.1700 C   0  0  0  0  0  0  0  0  0  0  0  0
  -26.0120  -30.8540   21.4020 C   0  0  0  0  0  2  0  0  0  0  0  0
  -26.1010  -29.4760   20.7570 C   0  0  0  0  0  0  0  0  0  0  0  0
  -27.2960  -28.7010   20.7450 C   0  0  0  0  0  3  0  0  0  0  0  0
  -26.1470  -26.9270   19.5580 C   0  0  0  0  0  3  0  0  0  0  0  0
  -24.9620  -27.6950   19.5650 C   0  0  0  0  0  3  0  0  0  0  0  0
  -23.6900  -29.8220   20.2280 C   0  0  0  0  0  2  0  0  0  0  0  0
  -24.7440  -31.1100   22.1390 N   0  0  0  0  0  0  0  0  0  0  0  0
  -23.6020  -32.1850   23.7830 O   0  0  0  0  0  0  0  0  0  0  0  0
  -22.8370  -29.4840   22.5760 C   0  0  0  0  0  0  0  0  0  0  0  0
  -21.5120  -29.2930   22.4590 N   0  0  0  0  0  0  0  0  0  0  0  0
  -23.5280  -28.8670   23.3910 O   0  0  0  0  0  0  0  0  0  0  0  0
  -21.0130  -29.8440   21.7750 H   0  0  0  0  0  0  0  0  0  0  0  0
  -18.1530  -28.0550   22.9720 C   0  0  0  0  0  0  0  0  0  0  0  0
  -20.7080  -28.3490   23.2360 C   0  0  0  0  0  3  0  0  0  0  0  0
  -20.8280  -26.9170   22.6660 C   0  0  0  0  0  2  0  0  0  0  0  0
  -19.7280  -26.5750   21.6560 C   0  0  0  0  0  2  0  0  0  0  0  0
  -18.3460  -26.7050   22.3020 C   0  0  0  0  0  2  0  0  0  0  0  0
  -19.2620  -28.8340   23.3960 C   0  0  0  0  0  0  0  0  0  0  0  0
  -19.0280  -30.0960   23.9830 C   0  0  0  0  0  3  0  0  0  0  0  0
  -17.7170  -30.5820   24.1490 C   0  0  0  0  0  3  0  0  0  0  0  0
  -16.6220  -29.7990   23.7410 C   0  0  0  0  0  3  0  0  0  0  0  0
  -16.8410  -28.5390   23.1590 C   0  0  0  0  0  3  0  0  0  0  0  0
  -25.9650  -32.5640   23.8510 C   0  0  0  0  0  3  0  0  0  0  0  0
  -26.5090  -31.7890   25.1150 C   0  0  1  0  0  0  0  0  0  0  0  0
  -25.4330  -31.5290   26.1960 C   0  0  0  0  0  1  0  0  0  0  0  0
  -27.1030  -30.4220   24.7050 C   0  0  0  0  0  1  0  0  0  0  0  0
  -27.6590  -32.5910   25.7680 C   0  0  0  0  0  1  0  0  0  0  0  0
  -25.6390  -33.9540   24.2000 N   0  0  0  0  0  0  0  0  0  0  0  0
  -25.9440  -35.0200   23.4470 C   0  0  0  0  0  0  0  0  0  0  0  0
  -26.5980  -34.9360   22.4040 O   0  0  0  0  0  0  0  0  0  0  0  0
  -25.0540  -34.0920   25.0120 H   0  0  0  0  0  0  0  0  0  0  0  0
  -24.1790  -36.7870   23.1450 C   0  0  0  0  0  1  0  0  0  0  0  0
  -25.4440  -36.3970   23.9260 C   0  0  0  0  0  3  0  0  0  0  0  0
  -27.5830  -37.3080   24.7150 C   0  0  0  0  0  1  0  0  0  0  0  0
  -26.4560  -37.4670   23.8000 N   0  0  0  0  0  0  0  0  0  0  0  0
  -26.0400  -38.3790   23.9660 H   0  0  0  0  0  0  0  0  0  0  0  0
  1  4  1  0
  1  3  1  0
  2  1  2  0
  3  5  1  0
  4  7  1  0
  5  6  1  0
  6 53  1  0
  7 12  1  0
  7  6  1  0
  8  9  1  0
 10 11  2  0
 10 12  1  0
 11 13  1  0
 12  8  2  0
 13 23  1  0
 13  9  2  0
 14 11  1  0
 15 23  1  0
 16 21  1  0
 17 18  1  0
 17 16  1  0
 19 18  1  0
 19 28  1  0
 19 20  1  0
 21 15  1  0
 21 20  1  0
 22 15  2  0
 23 24  1  0
 25 26  2  0
 26 27  1  0
 26 45  1  0
 27 30  1  0
 28 25  1  0
 28 29  1  0
 29 27  2  0
 30 31  1  0
 31 32  2  0
 33 36  1  0
 33 32  1  0
 34 33  2  0
 35 34  1  0
 35 30  2  0
 36 37  1  0
 37 38  1  0
 38 39  2  0
 40 39  1  0
 40 44  1  0
 41 40  2  0
 42 37  2  0
 42 41  1  0
 43 42  1  0
 45 46  1  0
 46 49  1  0
 46 48  1  0
 47 45  2  0
 50 51  1  0
 50 25  1  0
 52 50  1  0
 53 54  2  0
 55 56  1  0
 55 53  1  0
 57 68  2  0
 58 56  1  0
 58 63  1  0
 59 67  1  0
 59 69  1  0
 60 66  1  0
 60 62  1  0
 61 67  1  0
 62 61  1  0
 63 62  2  0
 64 65  1  0
 64 58  2  0
 65 60  2  0
 66 59  1  0
 67 57  1  0
 69 71  2  0
 70 69  1  0
 72 70  1  0
 73 82  2  0
 73 78  1  0
 74 70  1  0
 74 78  1  0
 75 74  1  0
 76 77  1  0
 76 75  1  0
 77 73  1  0
 78 79  2  0
 79 80  1  0
 81 80  2  0
 82 81  1  0
 83 57  1  0
 83 88  1  0
 83 84  1  0
 84 87  1  1
 84 85  1  0
 86 84  1  0
 88 91  1  0
 89 93  1  0
 89 88  1  0
 90 89  2  0
 93 92  1  0
 95 93  1  0
 95 96  1  0
 95 94  1  0
M  ISO  4  15 100  23 100  55 101  56 101
M  END
>  <TORSDO>  (26) 
F 19

>  <SCORE>  (26) 
-14.154

>  <name>  (26) 
25

>  <ligand_id>  (26) 
25

>  <original_smiles>  (26) 
[H]C([H])=C1C([H])([H])N(c2c([H])c([H])c(N([H])C(=O)N3C([H])([H])C([H])([H])C([H])([H])C([H])(n4nc(-c5c([H])c([H])c(Oc6c([H])c([H])c(F)c([H])c6F)c([H])c5[H])c(C(=O)N([H])[H])c4N([H])[H])C3([H])[H])c(C([H])([H])[H])c2[H])C([H])(C(=O)C([H])([H])Oc2c([H])c([H])c3c(c2[H])C([H])([H])N(C(=O)C([H])(N([H])C(=O)C([H])(N([H])C([H])([H])[H])C([H])([H])[H])C(C([H])([H])[H])(C([H])([H])[H])C([H])([H])[H])C([H])(C(=O)N([H])C2([H])c4c([H])c([H])c([H])c([H])c4C([H])([H])C([H])([H])C2([H])[H])C3([H])[H])C([H])([H])C1([H])[H]

>  <smiles>  (26) 
[H]C([H])=C1C([H])([H])N(c2c([H])c([H])c(N([H])C(=O)N3C([H])([H])C([H])([H])C([H])([H])C([H])(n4nc(-c5c([H])c([H])c(Oc6c([H])c([H])c(F)c([H])c6F)c([H])c5[H])c(C(=O)N([H])[H])c4N([H])[H])C3([H])[H])c(C([H])([H])[H])c2[H])C([H])(C(=O)C([H])([H])Oc2c([H])c([H])c3c(c2[H])C([H])([H])N(C(=O)C([H])(N([H])C(=O)C([H])(N([H])C([H])([H])[H])C([H])([H])[H])C(C([H])([H])[H])(C([H])([H])[H])C([H])([H])[H])C([H])(C(=O)N([H])C2([H])c4c([H])c([H])c([H])c([H])c4C([H])([H])C([H])([H])C2([H])[H])C3([H])[H])C([H])([H])C1([H])[H]

$$$$
26:0:0
     RDKit          3D

 98107  0  0  1  0  0  0  0  0999 V2000
  -28.7340  -21.8150   21.2240 C   0  0  0  0  0  0  0  0  0  0  0  0
  -29.4750  -22.6070   19.2120 C   0  0  0  0  0  2  0  0  0  0  0  0
  -29.0730  -23.9300   19.9950 C   0  0  0  0  0  3  0  0  0  0  0  0
  -28.2510  -23.2980   21.1580 C   0  0  1  0  0  0  0  0  0  0  0  0
  -26.7300  -23.3010   20.8970 C   0  0  0  0  0  1  0  0  0  0  0  0
  -28.5420  -24.0260   22.4880 C   0  0  0  0  0  1  0  0  0  0  0  0
  -29.4030  -21.4120   20.1250 N   0  0  0  0  0  0  0  0  0  0  0  0
  -28.5090  -21.1050   22.2100 O   0  0  0  0  0  0  0  0  0  0  0  0
  -31.5820  -20.3430   19.7460 C   0  0  0  0  0  3  0  0  0  0  0  0
  -32.0160  -17.9380   19.8610 C   0  0  0  0  0  3  0  0  0  0  0  0
  -30.2080  -20.1620   20.0140 C   0  0  0  0  0  0  0  0  0  0  0  0
  -32.4700  -19.2580   19.6770 C   0  0  0  0  0  0  0  0  0  0  0  0
  -30.6530  -17.6230   20.1050 C   0  0  0  0  0  0  0  0  0  0  0  0
  -29.7590  -18.7790   20.1900 C   0  0  0  0  0  0  0  0  0  0  0  0
  -28.4470  -18.5440   20.4210 F   0  0  0  0  0  0  0  0  0  0  0  0
  -30.9000  -15.0040   19.9820 C   0  0  0  0  0  0  0  0  0  0  0  0
  -30.5850  -12.7380   18.9880 C   0  0  0  0  0  2  0  0  0  0  0  0
  -29.6040  -12.8280   17.8010 C   0  0  0  0  0  2  0  0  0  0  0  0
  -28.1550  -12.6610   18.2960 C   0  0  0  0  0  2  0  0  0  0  0  0
  -27.8430  -13.5450   19.5340 C   0  0  0  0  0  3  0  0  0  0  0  0
  -28.9520  -13.4700   20.6070 C   0  0  0  0  0  2  0  0  0  0  0  0
  -30.2190  -13.8060   19.9490 N   0  0  0  0  0  0  0  0  0  0  0  0
  -32.0640  -15.0100   19.5800 O   0  0  0  0  0  0  0  0  0  0  0  0
  -30.2250  -16.1930   20.2590 N   0  0  0  0  0  0  0  0  0  0  0  0
  -29.2680  -16.0720   20.5550 H   0  0  0  0  0  0  0  0  0  0  0  0
  -25.5080  -14.1240   20.4210 C   0  0  0  0  0  0  0  0  0  0  0  0
  -24.4540  -13.3440   20.8110 C   0  0  0  0  0  0  0  0  0  0  0  0
  -24.8950  -11.9910   20.6900 C   0  0  0  0  0  0  0  0  0  0  0  0
  -26.5250  -13.2450   20.0850 N   0  0  0  0  0  0  0  0  0  0  0  0
  -26.1670  -11.9540   20.3090 N   0  0  0  0  0  0  0  0  0  0  0  0
  -24.1620  -10.7280   20.8580 C   0  0  0  0  0  0  0  0  0  0  0  0
  -24.5890   -9.7410   21.7730 C   0  0  0  0  0  3  0  0  0  0  0  0
  -23.8550   -8.5460   21.9300 C   0  0  0  0  0  3  0  0  0  0  0  0
  -22.6790   -8.3290   21.1730 C   0  0  0  0  0  0  0  0  0  0  0  0
  -22.2710   -9.3060   20.2470 C   0  0  0  0  0  3  0  0  0  0  0  0
  -23.0060  -10.4930   20.0880 C   0  0  0  0  0  3  0  0  0  0  0  0
  -21.9160   -7.1880   21.2410 O   0  0  0  0  0  0  0  0  0  0  0  0
  -21.8260   -6.4510   22.3950 C   0  0  0  0  0  0  0  0  0  0  0  0
  -21.3040   -6.9970   23.5880 C   0  0  0  0  0  3  0  0  0  0  0  0
  -21.1630   -6.1850   24.7320 C   0  0  0  0  0  3  0  0  0  0  0  0
  -21.5340   -4.8270   24.6820 C   0  0  0  0  0  0  0  0  0  0  0  0
  -22.0490   -4.2810   23.4930 C   0  0  0  0  0  3  0  0  0  0  0  0
  -22.1910   -5.0910   22.3520 C   0  0  0  0  0  0  0  0  0  0  0  0
  -22.6680   -4.5530   21.2030 F   0  0  0  0  0  0  0  0  0  0  0  0
  -21.3920   -4.0450   25.7780 F   0  0  0  0  0  0  0  0  0  0  0  0
  -23.0810  -13.8230   21.1820 C   0  0  0  0  0  0  0  0  0  0  0  0
  -22.3940  -13.0960   22.0550 N   0  0  0  0  0  0  0  0  0  0  0  0
  -22.6300  -14.8770   20.7350 O   0  0  0  0  0  0  0  0  0  0  0  0
  -22.7720  -12.2420   22.4360 H   0  0  0  0  0  0  0  0  0  0  0  0
  -21.4760  -13.3970   22.3470 H   0  0  0  0  0  0  0  0  0  0  0  0
  -25.6810  -15.4990   20.3000 N   0  0  0  0  0  0  0  0  0  0  0  0
  -24.9330  -16.1560   20.4940 H   0  0  0  0  0  0  0  0  0  0  0  0
  -26.5160  -15.9480   19.9440 H   0  0  0  0  0  0  0  0  0  0  0  0
  -33.8240  -19.4900   19.4320 N   0  0  0  0  0  0  0  0  0  0  0  0
  -34.2050  -20.4220   19.5530 H   0  0  0  0  0  0  0  0  0  0  0  0
  -34.5010  -18.7520   19.6040 H   0  0  0  0  0  0  0  0  0  0  0  0
  -28.4430  -25.1780   19.1590 C   0  0  0  0  0  2  0  0  0  0  0  0
  -28.4300  -26.6100   19.6400 O   0  0  0  0  0  0  0  0  0  0  0  0
  -24.5930  -31.7660   23.0070 C   0  0  0  0  0  0  0  0  0  0  0  0
  -27.2770  -27.4370   19.6280 C   0  0  0  0  0  0  0  0  0  0  0  0
  -23.3930  -30.3990   21.3420 C   0  0  0  0  0  3  0  0  0  0  0  0
  -24.8540  -28.9910   19.7790 C   0  0  0  0  0  0  0  0  0  0  0  0
  -25.9130  -30.8220   21.0930 C   0  0  0  0  0  2  0  0  0  0  0  0
  -26.0250  -29.4800   20.3720 C   0  0  0  0  0  0  0  0  0  0  0  0
  -27.2330  -28.7130   20.2910 C   0  0  0  0  0  3  0  0  0  0  0  0
  -26.0780  -27.0310   18.9970 C   0  0  0  0  0  3  0  0  0  0  0  0
  -24.8860  -27.7740   19.0830 C   0  0  0  0  0  3  0  0  0  0  0  0
  -23.5860  -29.8100   19.9200 C   0  0  0  0  0  2  0  0  0  0  0  0
  -24.6530  -31.0160   21.8690 N   0  0  0  0  0  0  0  0  0  0  0  0
  -23.5180  -31.9710   23.5910 O   0  0  0  0  0  0  0  0  0  0  0  0
  -22.8130  -29.3060   22.2690 C   0  0  0  0  0  0  0  0  0  0  0  0
  -21.4940  -29.0690   22.1730 N   0  0  0  0  0  0  0  0  0  0  0  0
  -23.5460  -28.6760   23.0360 O   0  0  0  0  0  0  0  0  0  0  0  0
  -20.9590  -29.6350   21.5300 H   0  0  0  0  0  0  0  0  0  0  0  0
  -18.1950  -27.6710   22.7010 C   0  0  0  0  0  0  0  0  0  0  0  0
  -20.7430  -28.0580   22.9190 C   0  0  0  0  0  3  0  0  0  0  0  0
  -20.9040  -26.6600   22.2770 C   0  0  0  0  0  2  0  0  0  0  0  0
  -19.7940  -26.3220   21.2770 C   0  0  0  0  0  2  0  0  0  0  0  0
  -18.4240  -26.3640   21.9600 C   0  0  0  0  0  2  0  0  0  0  0  0
  -19.2830  -28.4740   23.1360 C   0  0  0  0  0  0  0  0  0  0  0  0
  -19.0150  -29.6950   23.7910 C   0  0  0  0  0  3  0  0  0  0  0  0
  -17.6900  -30.1180   24.0120 C   0  0  0  0  0  3  0  0  0  0  0  0
  -16.6170  -29.3120   23.5910 C   0  0  0  0  0  3  0  0  0  0  0  0
  -16.8700  -28.0900   22.9430 C   0  0  0  0  0  3  0  0  0  0  0  0
  -25.8680  -32.4270   23.6160 C   0  0  0  0  0  3  0  0  0  0  0  0
  -26.4470  -31.6310   24.8500 C   0  0  1  0  0  0  0  0  0  0  0  0
  -25.3910  -31.3130   25.9350 C   0  0  0  0  0  1  0  0  0  0  0  0
  -27.0730  -30.2930   24.3930 C   0  0  0  0  0  1  0  0  0  0  0  0
  -27.5860  -32.4460   25.5100 C   0  0  0  0  0  1  0  0  0  0  0  0
  -25.5140  -33.8000   24.0090 N   0  0  0  0  0  0  0  0  0  0  0  0
  -25.8030  -34.8960   23.2970 C   0  0  0  0  0  0  0  0  0  0  0  0
  -26.4680  -34.8620   22.2570 O   0  0  0  0  0  0  0  0  0  0  0  0
  -24.9200  -33.8970   24.8210 H   0  0  0  0  0  0  0  0  0  0  0  0
  -24.0250  -36.6550   23.0210 C   0  0  0  0  0  1  0  0  0  0  0  0
  -25.2750  -36.2450   23.8180 C   0  0  0  0  0  3  0  0  0  0  0  0
  -27.3730  -37.1590   24.7150 C   0  0  0  0  0  1  0  0  0  0  0  0
  -26.2790  -37.3320   23.7600 N   0  0  0  0  0  0  0  0  0  0  0  0
  -25.8460  -38.2340   23.9350 H   0  0  0  0  0  0  0  0  0  0  0  0
  1  8  2  0
  2  3  1  0
  2  7  1  0
  3 57  1  0
  3  4  1  0
  4  1  1  0
  4  6  1  1
  5  4  1  0
  7  1  1  0
  9 11  1  0
 10 13  2  0
 11  7  1  0
 11 14  2  0
 12  9  2  0
 12 10  1  0
 13 14  1  0
 13 24  1  0
 14 15  1  0
 16 24  1  0
 17 22  1  0
 18 19  1  0
 18 17  1  0
 20 19  1  0
 20 29  1  0
 20 21  1  0
 22 16  1  0
 22 21  1  0
 23 16  2  0
 24 25  1  0
 26 27  2  0
 27 46  1  0
 28 27  1  0
 28 31  1  0
 29 30  1  0
 29 26  1  0
 30 28  2  0
 31 32  1  0
 32 33  2  0
 34 37  1  0
 34 33  1  0
 35 34  2  0
 36 35  1  0
 36 31  2  0
 37 38  1  0
 38 39  1  0
 39 40  2  0
 41 40  1  0
 41 45  1  0
 42 41  2  0
 43 38  2  0
 43 42  1  0
 44 43  1  0
 46 47  1  0
 47 50  1  0
 47 49  1  0
 48 46  2  0
 51 26  1  0
 51 52  1  0
 53 51  1  0
 54 55  1  0
 54 56  1  0
 54 12  1  0
 57 58  1  0
 59 70  2  0
 60 58  1  0
 60 65  1  0
 61 69  1  0
 61 71  1  0
 62 68  1  0
 62 64  1  0
 63 69  1  0
 64 63  1  0
 65 64  2  0
 66 67  1  0
 66 60  2  0
 67 62  2  0
 68 61  1  0
 69 59  1  0
 71 73  2  0
 72 71  1  0
 74 72  1  0
 75 84  2  0
 75 80  1  0
 76 72  1  0
 76 80  1  0
 77 76  1  0
 78 79  1  0
 78 77  1  0
 79 75  1  0
 80 81  2  0
 81 82  1  0
 83 82  2  0
 84 83  1  0
 85 59  1  0
 85 90  1  0
 85 86  1  0
 86 89  1  1
 86 87  1  0
 88 86  1  0
 90 93  1  0
 91 95  1  0
 91 90  1  0
 92 91  2  0
 95 94  1  0
 97 95  1  0
 97 98  1  0
 97 96  1  0
M  ISO  4  16 100  24 100  57 101  58 101
M  END
>  <TORSDO>  (27) 
F 19

>  <SCORE>  (27) 
-13.571

>  <name>  (27) 
26

>  <ligand_id>  (27) 
26

>  <original_smiles>  (27) 
[H]c1c([H])c([H])c2c(c1[H])C([H])([H])C([H])([H])C([H])([H])C2([H])N([H])C(=O)C1([H])N(C(=O)C([H])(N([H])C(=O)C([H])(N([H])C([H])([H])[H])C([H])([H])[H])C(C([H])([H])[H])(C([H])([H])[H])C([H])([H])[H])C([H])([H])c2c([H])c(OC([H])([H])C3([H])C([H])([H])N(c4c([H])c(N([H])[H])c([H])c(N([H])C(=O)N5C([H])([H])C([H])([H])C([H])([H])C([H])(n6nc(-c7c([H])c([H])c(Oc8c([H])c([H])c(F)c([H])c8F)c([H])c7[H])c(C(=O)N([H])[H])c6N([H])[H])C5([H])[H])c4F)C(=O)C3(C([H])([H])[H])C([H])([H])[H])c([H])c([H])c2C1([H])[H]

>  <smiles>  (27) 
[H]c1c([H])c([H])c2c(c1[H])C([H])([H])C([H])([H])C([H])([H])C2([H])N([H])C(=O)C1([H])N(C(=O)C([H])(N([H])C(=O)C([H])(N([H])C([H])([H])[H])C([H])([H])[H])C(C([H])([H])[H])(C([H])([H])[H])C([H])([H])[H])C([H])([H])c2c([H])c(OC([H])([H])C3([H])C([H])([H])N(c4c([H])c(N([H])[H])c([H])c(N([H])C(=O)N5C([H])([H])C([H])([H])C([H])([H])C([H])(n6nc(-c7c([H])c([H])c(Oc8c([H])c([H])c(F)c([H])c8F)c([H])c7[H])c(C(=O)N([H])[H])c6N([H])[H])C5([H])[H])c4F)C(=O)C3(C([H])([H])[H])C([H])([H])[H])c([H])c([H])c2C1([H])[H]

$$$$
27:0:0
     RDKit          3D

 94103  0  0  1  0  0  0  0  0999 V2000
  -28.4560  -22.3220   19.5720 C   0  0  0  0  0  0  0  0  0  0  0  0
  -29.0970  -21.8680   21.7090 C   0  0  0  0  0  2  0  0  0  0  0  0
  -28.1460  -23.6900   20.3140 C   0  0  0  0  0  3  0  0  0  0  0  0
  -28.9860  -23.4210   21.5720 C   0  0  0  0  0  3  0  0  0  0  0  0
  -28.4410  -24.0890   22.8410 C   0  0  0  0  0  1  0  0  0  0  0  0
  -28.9780  -21.3140   20.3630 N   0  0  0  0  0  0  0  0  0  0  0  0
  -28.1920  -22.1810   18.3730 O   0  0  0  0  0  0  0  0  0  0  0  0
  -29.3990  -18.6750   20.3590 C   0  0  0  0  0  3  0  0  0  0  0  0
  -30.8070  -20.2400   19.1250 C   0  0  0  0  0  3  0  0  0  0  0  0
  -31.2640  -17.8280   19.0440 C   0  0  0  0  0  3  0  0  0  0  0  0
  -29.6780  -20.0570   19.9530 C   0  0  0  0  0  0  0  0  0  0  0  0
  -30.1950  -17.5180   19.9270 C   0  0  0  0  0  0  0  0  0  0  0  0
  -31.5730  -19.1530   18.6710 C   0  0  0  0  0  0  0  0  0  0  0  0
  -32.6310  -19.3940   17.8550 F   0  0  0  0  0  0  0  0  0  0  0  0
  -30.6970  -14.9170   20.1920 C   0  0  0  0  0  0  0  0  0  0  0  0
  -30.5120  -12.6010   19.2780 C   0  0  0  0  0  2  0  0  0  0  0  0
  -29.5630  -12.5980   18.0590 C   0  0  0  0  0  2  0  0  0  0  0  0
  -28.1070  -12.4040   18.5160 C   0  0  0  0  0  2  0  0  0  0  0  0
  -27.7210  -13.3410   19.6900 C   0  0  0  0  0  3  0  0  0  0  0  0
  -28.7870  -13.3330   20.8080 C   0  0  0  0  0  2  0  0  0  0  0  0
  -30.0700  -13.6860   20.1870 N   0  0  0  0  0  0  0  0  0  0  0  0
  -31.8970  -14.9630   19.9190 O   0  0  0  0  0  0  0  0  0  0  0  0
  -29.9230  -16.0830   20.3020 N   0  0  0  0  0  0  0  0  0  0  0  0
  -28.9790  -15.9020   20.6070 H   0  0  0  0  0  0  0  0  0  0  0  0
  -25.3380  -13.9200   20.4370 C   0  0  0  0  0  0  0  0  0  0  0  0
  -24.2790  -13.1400   20.8200 C   0  0  0  0  0  0  0  0  0  0  0  0
  -24.7500  -11.7940   20.7910 C   0  0  0  0  0  0  0  0  0  0  0  0
  -26.3860  -13.0460   20.1990 N   0  0  0  0  0  0  0  0  0  0  0  0
  -26.0400  -11.7610   20.4810 N   0  0  0  0  0  0  0  0  0  0  0  0
  -24.0310  -10.5260   20.9870 C   0  0  0  0  0  0  0  0  0  0  0  0
  -24.4670   -9.5680   21.9280 C   0  0  0  0  0  3  0  0  0  0  0  0
  -23.7480   -8.3660   22.1110 C   0  0  0  0  0  3  0  0  0  0  0  0
  -22.5780   -8.1170   21.3530 C   0  0  0  0  0  0  0  0  0  0  0  0
  -22.1640   -9.0630   20.3990 C   0  0  0  0  0  3  0  0  0  0  0  0
  -22.8840  -10.2560   20.2140 C   0  0  0  0  0  3  0  0  0  0  0  0
  -21.8300   -6.9680   21.4470 O   0  0  0  0  0  0  0  0  0  0  0  0
  -21.7790   -6.2360   22.6060 C   0  0  0  0  0  0  0  0  0  0  0  0
  -21.3280   -6.7960   23.8220 C   0  0  0  0  0  3  0  0  0  0  0  0
  -21.2230   -5.9900   24.9730 C   0  0  0  0  0  3  0  0  0  0  0  0
  -21.5620   -4.6250   24.9110 C   0  0  0  0  0  0  0  0  0  0  0  0
  -22.0020   -4.0620   23.6990 C   0  0  0  0  0  3  0  0  0  0  0  0
  -22.1090   -4.8660   22.5500 C   0  0  0  0  0  0  0  0  0  0  0  0
  -22.5160   -4.3160   21.3800 F   0  0  0  0  0  0  0  0  0  0  0  0
  -21.4530   -3.8460   26.0120 F   0  0  0  0  0  0  0  0  0  0  0  0
  -22.8810  -13.6120   21.0900 C   0  0  0  0  0  0  0  0  0  0  0  0
  -22.1590  -12.9100   21.9590 N   0  0  0  0  0  0  0  0  0  0  0  0
  -22.4380  -14.6340   20.5700 O   0  0  0  0  0  0  0  0  0  0  0  0
  -22.5320  -12.0840   22.3990 H   0  0  0  0  0  0  0  0  0  0  0  0
  -21.2200  -13.2050   22.1830 H   0  0  0  0  0  0  0  0  0  0  0  0
  -25.4950  -15.2900   20.2440 N   0  0  0  0  0  0  0  0  0  0  0  0
  -24.7170  -15.9370   20.3210 H   0  0  0  0  0  0  0  0  0  0  0  0
  -26.3240  -15.7140   19.8480 H   0  0  0  0  0  0  0  0  0  0  0  0
  -28.4070  -25.0890   19.5190 C   0  0  0  0  0  2  0  0  0  0  0  0
  -28.3430  -26.4850   20.0860 O   0  0  0  0  0  0  0  0  0  0  0  0
  -24.6890  -31.9090   23.1730 C   0  0  0  0  0  0  0  0  0  0  0  0
  -27.2240  -27.3440   20.0200 C   0  0  0  0  0  0  0  0  0  0  0  0
  -23.4500  -30.5310   21.5410 C   0  0  0  0  0  3  0  0  0  0  0  0
  -24.8680  -28.9890   20.0640 C   0  0  0  0  0  0  0  0  0  0  0  0
  -25.9850  -30.8390   21.3130 C   0  0  0  0  0  2  0  0  0  0  0  0
  -26.0490  -29.4630   20.6470 C   0  0  0  0  0  0  0  0  0  0  0  0
  -27.2270  -28.6510   20.6200 C   0  0  0  0  0  3  0  0  0  0  0  0
  -26.0210  -26.9310   19.4110 C   0  0  0  0  0  3  0  0  0  0  0  0
  -24.8580  -27.7300   19.4360 C   0  0  0  0  0  3  0  0  0  0  0  0
  -23.6380  -29.8750   20.1470 C   0  0  0  0  0  2  0  0  0  0  0  0
  -24.7280  -31.1090   22.0660 N   0  0  0  0  0  0  0  0  0  0  0  0
  -23.6190  -32.1780   23.7370 O   0  0  0  0  0  0  0  0  0  0  0  0
  -22.8100  -29.5010   22.5040 C   0  0  0  0  0  0  0  0  0  0  0  0
  -21.4830  -29.3210   22.4000 N   0  0  0  0  0  0  0  0  0  0  0  0
  -23.5040  -28.8720   23.3090 O   0  0  0  0  0  0  0  0  0  0  0  0
  -20.9840  -29.8830   21.7240 H   0  0  0  0  0  0  0  0  0  0  0  0
  -18.1200  -28.0890   22.9340 C   0  0  0  0  0  0  0  0  0  0  0  0
  -20.6790  -28.3730   23.1740 C   0  0  0  0  0  3  0  0  0  0  0  0
  -20.7870  -26.9460   22.5920 C   0  0  0  0  0  2  0  0  0  0  0  0
  -19.6750  -26.6190   21.5900 C   0  0  0  0  0  2  0  0  0  0  0  0
  -18.2980  -26.7450   22.2480 C   0  0  0  0  0  2  0  0  0  0  0  0
  -19.2370  -28.8600   23.3550 C   0  0  0  0  0  0  0  0  0  0  0  0
  -19.0170  -30.1150   23.9600 C   0  0  0  0  0  3  0  0  0  0  0  0
  -17.7130  -30.6080   24.1440 C   0  0  0  0  0  3  0  0  0  0  0  0
  -16.6090  -29.8370   23.7400 C   0  0  0  0  0  3  0  0  0  0  0  0
  -16.8120  -28.5790   23.1430 C   0  0  0  0  0  3  0  0  0  0  0  0
  -25.9860  -32.5280   23.7780 C   0  0  0  0  0  3  0  0  0  0  0  0
  -25.6760  -33.9140   24.1490 N   0  0  0  0  0  0  0  0  0  0  0  0
  -25.9840  -34.9890   23.4100 C   0  0  0  0  0  0  0  0  0  0  0  0
  -26.6310  -34.9180   22.3620 O   0  0  0  0  0  0  0  0  0  0  0  0
  -25.1000  -34.0410   24.9660 H   0  0  0  0  0  0  0  0  0  0  0  0
  -24.2470  -36.7910   23.1400 C   0  0  0  0  0  1  0  0  0  0  0  0
  -25.5030  -36.3630   23.9150 C   0  0  0  0  0  3  0  0  0  0  0  0
  -27.6490  -37.2370   24.7290 C   0  0  0  0  0  1  0  0  0  0  0  0
  -26.5290  -37.4240   23.8100 N   0  0  0  0  0  0  0  0  0  0  0  0
  -26.1250  -38.3390   23.9890 H   0  0  0  0  0  0  0  0  0  0  0  0
  -26.5400  -31.7270   25.0230 C   0  0  1  0  0  0  0  0  0  0  0  0
  -25.4780  -31.4580   26.1160 C   0  0  0  0  0  1  0  0  0  0  0  0
  -27.1230  -30.3610   24.5850 C   0  0  0  0  0  1  0  0  0  0  0  0
  -27.7070  -32.5120   25.6700 C   0  0  0  0  0  1  0  0  0  0  0  0
  1  3  1  0
  1  6  1  0
  3 53  1  0
  3  4  1  0
  4  2  1  0
  4  5  1  0
  6  2  1  0
  7  1  2  0
  9 11  2  0
 10 12  1  0
 11  8  1  0
 11  6  1  0
 12 23  1  0
 12  8  2  0
 13 10  2  0
 13  9  1  0
 14 13  1  0
 15 23  1  0
 16 21  1  0
 17 18  1  0
 17 16  1  0
 19 18  1  0
 19 28  1  0
 19 20  1  0
 21 15  1  0
 21 20  1  0
 22 15  2  0
 23 24  1  0
 25 26  2  0
 26 45  1  0
 27 26  1  0
 27 30  1  0
 28 25  1  0
 28 29  1  0
 29 27  2  0
 30 31  1  0
 31 32  2  0
 33 36  1  0
 33 32  1  0
 34 33  2  0
 35 34  1  0
 35 30  2  0
 36 37  1  0
 37 38  1  0
 38 39  2  0
 40 39  1  0
 40 44  1  0
 41 40  2  0
 42 37  2  0
 42 41  1  0
 43 42  1  0
 45 46  1  0
 46 49  1  0
 46 48  1  0
 47 45  2  0
 50 51  1  0
 50 25  1  0
 52 50  1  0
 53 54  1  0
 55 66  2  0
 56 54  1  0
 56 61  1  0
 57 65  1  0
 57 67  1  0
 58 64  1  0
 58 60  1  0
 59 65  1  0
 60 59  1  0
 61 60  2  0
 62 63  1  0
 62 56  2  0
 63 58  2  0
 64 57  1  0
 65 55  1  0
 67 69  2  0
 68 67  1  0
 70 68  1  0
 71 80  2  0
 71 76  1  0
 72 68  1  0
 72 76  1  0
 73 72  1  0
 74 75  1  0
 74 73  1  0
 75 71  1  0
 76 77  2  0
 77 78  1  0
 79 78  2  0
 80 79  1  0
 81 55  1  0
 81 82  1  0
 81 91  1  0
 82 85  1  0
 83 87  1  0
 83 82  1  0
 84 83  2  0
 87 86  1  0
 89 87  1  0
 89 90  1  0
 89 88  1  0
 91 94  1  1
 91 92  1  0
 93 91  1  0
M  ISO  4  15 100  23 100  53 101  54 101
M  END
>  <TORSDO>  (28) 
F 18

>  <SCORE>  (28) 
-14.474

>  <name>  (28) 
27

>  <ligand_id>  (28) 
27

>  <original_smiles>  (28) 
[H]c1c([H])c([H])c2c(c1[H])C([H])([H])C([H])([H])C([H])([H])C2([H])N([H])C(=O)C1([H])N(C(=O)C([H])(N([H])C(=O)C([H])(N([H])C([H])([H])[H])C([H])([H])[H])C(C([H])([H])[H])(C([H])([H])[H])C([H])([H])[H])C([H])([H])c2c([H])c(OC([H])([H])C3([H])C(=O)N(c4c([H])c(F)c([H])c(N([H])C(=O)N5C([H])([H])C([H])([H])C([H])([H])C([H])(n6nc(-c7c([H])c([H])c(Oc8c([H])c([H])c(F)c([H])c8F)c([H])c7[H])c(C(=O)N([H])[H])c6N([H])[H])C5([H])[H])c4[H])C([H])([H])C3([H])C([H])([H])[H])c([H])c([H])c2C1([H])[H]

>  <smiles>  (28) 
[H]c1c([H])c([H])c2c(c1[H])C([H])([H])C([H])([H])C([H])([H])C2([H])N([H])C(=O)C1([H])N(C(=O)C([H])(N([H])C(=O)C([H])(N([H])C([H])([H])[H])C([H])([H])[H])C(C([H])([H])[H])(C([H])([H])[H])C([H])([H])[H])C([H])([H])c2c([H])c(OC([H])([H])C3([H])C(=O)N(c4c([H])c(F)c([H])c(N([H])C(=O)N5C([H])([H])C([H])([H])C([H])([H])C([H])(n6nc(-c7c([H])c([H])c(Oc8c([H])c([H])c(F)c([H])c8F)c([H])c7[H])c(C(=O)N([H])[H])c6N([H])[H])C5([H])[H])c4[H])C([H])([H])C3([H])C([H])([H])[H])c([H])c([H])c2C1([H])[H]

$$$$
28:0:0
     RDKit          3D

 94103  0  0  1  0  0  0  0  0999 V2000
  -25.8370  -23.3590   20.2550 C   0  0  0  0  0  0  0  0  0  0  0  0
  -26.7840  -24.2840   20.0030 C   0  0  0  0  0  0  0  0  0  0  0  0
  -26.0400  -22.1700   19.4380 C   0  0  0  0  0  0  0  0  0  0  0  0
  -27.5570  -23.6740   18.8400 C   0  0  0  0  0  2  0  0  0  0  0  0
  -24.7990  -23.1470   21.3720 C   0  0  0  0  0  1  0  0  0  0  0  0
  -27.2860  -22.1480   18.8450 N   0  0  0  0  0  0  0  0  0  0  0  0
  -25.2150  -21.2190   19.2540 O   0  0  0  0  0  0  0  0  0  0  0  0
  -28.5870  -20.5030   20.3770 C   0  0  0  0  0  3  0  0  0  0  0  0
  -27.9860  -19.7770   18.1390 C   0  0  0  0  0  3  0  0  0  0  0  0
  -29.0710  -19.1540   20.6740 C   0  0  0  0  0  3  0  0  0  0  0  0
  -28.5710  -18.4680   18.4390 C   0  0  0  0  0  3  0  0  0  0  0  0
  -28.0620  -20.8860   19.0810 C   0  0  0  0  0  0  0  0  0  0  0  0
  -29.3340  -18.1710   19.6310 C   0  0  0  0  0  0  0  0  0  0  0  0
  -31.0530  -15.8320   19.7060 C   0  0  0  0  0  0  0  0  0  0  0  0
  -31.0180  -13.4020   18.8870 C   0  0  0  0  0  2  0  0  0  0  0  0
  -30.0290  -12.9240   17.8010 C   0  0  0  0  0  2  0  0  0  0  0  0
  -28.6750  -12.5900   18.4150 C   0  0  0  0  0  2  0  0  0  0  0  0
  -28.1990  -13.7410   19.3300 C   0  0  0  0  0  3  0  0  0  0  0  0
  -29.2460  -14.1120   20.3800 C   0  0  0  0  0  2  0  0  0  0  0  0
  -30.4130  -14.5730   19.6540 N   0  0  0  0  0  0  0  0  0  0  0  0
  -32.2690  -15.6660   19.5650 O   0  0  0  0  0  0  0  0  0  0  0  0
  -30.5660  -17.2700   19.6740 N   0  0  0  0  0  0  0  0  0  0  0  0
  -25.9120  -14.3720   20.2550 C   0  0  0  0  0  0  0  0  0  0  0  0
  -24.8470  -13.6230   20.6730 C   0  0  0  0  0  0  0  0  0  0  0  0
  -25.2610  -12.2600   20.5780 C   0  0  0  0  0  0  0  0  0  0  0  0
  -26.9090  -13.4680   19.9320 N   0  0  0  0  0  0  0  0  0  0  0  0
  -26.5330  -12.1890   20.1930 N   0  0  0  0  0  0  0  0  0  0  0  0
  -24.5110  -11.0180   20.7760 C   0  0  0  0  0  0  0  0  0  0  0  0
  -24.8860  -10.0870   21.7670 C   0  0  0  0  0  3  0  0  0  0  0  0
  -24.1400   -8.9040   21.9510 C   0  0  0  0  0  3  0  0  0  0  0  0
  -23.0080   -8.6510   21.1400 C   0  0  0  0  0  0  0  0  0  0  0  0
  -22.6540   -9.5750   20.1400 C   0  0  0  0  0  3  0  0  0  0  0  0
  -23.4020  -10.7470   19.9570 C   0  0  0  0  0  3  0  0  0  0  0  0
  -22.2330   -7.5210   21.2320 O   0  0  0  0  0  0  0  0  0  0  0  0
  -21.9990   -6.9090   22.4370 C   0  0  0  0  0  0  0  0  0  0  0  0
  -21.3770   -7.5860   23.5100 C   0  0  0  0  0  3  0  0  0  0  0  0
  -21.0920   -6.8960   24.7050 C   0  0  0  0  0  3  0  0  0  0  0  0
  -21.4190   -5.5330   24.8270 C   0  0  0  0  0  0  0  0  0  0  0  0
  -22.0350   -4.8570   23.7600 C   0  0  0  0  0  3  0  0  0  0  0  0
  -22.3230   -5.5440   22.5670 C   0  0  0  0  0  0  0  0  0  0  0  0
  -22.8960   -4.8850   21.5310 F   0  0  0  0  0  0  0  0  0  0  0  0
  -21.1390   -4.8690   25.9710 F   0  0  0  0  0  0  0  0  0  0  0  0
  -23.4820  -14.1410   21.0270 C   0  0  0  0  0  0  0  0  0  0  0  0
  -22.7870  -13.4570   21.9310 N   0  0  0  0  0  0  0  0  0  0  0  0
  -23.0470  -15.1900   20.5480 O   0  0  0  0  0  0  0  0  0  0  0  0
  -23.1470  -12.6100   22.3390 H   0  0  0  0  0  0  0  0  0  0  0  0
  -21.8740  -13.7850   22.2100 H   0  0  0  0  0  0  0  0  0  0  0  0
  -26.1030  -15.7420   20.0950 N   0  0  0  0  0  0  0  0  0  0  0  0
  -25.3660  -16.4100   20.2800 H   0  0  0  0  0  0  0  0  0  0  0  0
  -26.9470  -16.1640   19.7230 H   0  0  0  0  0  0  0  0  0  0  0  0
  -31.6070  -19.6940   19.0900 C   0  0  0  0  0  1  0  0  0  0  0  0
  -31.7340  -18.1630   19.4130 C   0  0  0  0  0  2  0  0  0  0  0  0
  -27.1250  -25.6340   20.8130 C   0  0  0  0  0  2  0  0  0  0  0  0
  -28.0400  -26.7140   20.2940 O   0  0  0  0  0  0  0  0  0  0  0  0
  -24.7950  -32.0920   23.5910 C   0  0  0  0  0  0  0  0  0  0  0  0
  -27.2830  -27.8410   20.0940 C   0  0  0  0  0  0  0  0  0  0  0  0
  -23.6140  -30.8340   21.8450 C   0  0  0  0  0  3  0  0  0  0  0  0
  -25.0500  -29.5450   20.1720 C   0  0  0  0  0  0  0  0  0  0  0  0
  -26.1260  -31.2200   21.6470 C   0  0  0  0  0  2  0  0  0  0  0  0
  -26.1910  -29.9020   20.9000 C   0  0  0  0  0  0  0  0  0  0  0  0
  -27.2970  -29.0040   20.9370 C   0  0  0  0  0  3  0  0  0  0  0  0
  -26.1980  -27.6830   19.1980 C   0  0  0  0  0  3  0  0  0  0  0  0
  -25.0680  -28.4680   19.2850 C   0  0  0  0  0  3  0  0  0  0  0  0
  -23.7860  -30.3680   20.3840 C   0  0  0  0  0  2  0  0  0  0  0  0
  -24.8800  -31.3830   22.4190 N   0  0  0  0  0  0  0  0  0  0  0  0
  -23.6980  -32.2930   24.1370 O   0  0  0  0  0  0  0  0  0  0  0  0
  -22.9960  -29.6830   22.6580 C   0  0  0  0  0  0  0  0  0  0  0  0
  -21.6830  -29.4710   22.4820 N   0  0  0  0  0  0  0  0  0  0  0  0
  -23.6740  -28.9910   23.4240 O   0  0  0  0  0  0  0  0  0  0  0  0
  -21.1790  -30.0940   21.8600 H   0  0  0  0  0  0  0  0  0  0  0  0
  -18.3260  -28.1370   22.6970 C   0  0  0  0  0  0  0  0  0  0  0  0
  -20.8610  -28.4340   23.1070 C   0  0  0  0  0  3  0  0  0  0  0  0
  -21.0510  -27.0780   22.3930 C   0  0  0  0  0  2  0  0  0  0  0  0
  -19.9920  -26.8020   21.3250 C   0  0  0  0  0  2  0  0  0  0  0  0
  -18.5760  -26.8580   21.9180 C   0  0  0  0  0  2  0  0  0  0  0  0
  -19.3990  -28.8850   23.2390 C   0  0  0  0  0  0  0  0  0  0  0  0
  -19.1240  -30.0930   23.9130 C   0  0  0  0  0  3  0  0  0  0  0  0
  -17.8010  -30.5480   24.0520 C   0  0  0  0  0  3  0  0  0  0  0  0
  -16.7350  -29.7830   23.5340 C   0  0  0  0  0  3  0  0  0  0  0  0
  -17.0040  -28.5790   22.8590 C   0  0  0  0  0  3  0  0  0  0  0  0
  -26.0400  -32.6890   24.3010 C   0  0  0  0  0  3  0  0  0  0  0  0
  -26.4710  -31.8920   25.6020 C   0  0  1  0  0  0  0  0  0  0  0  0
  -25.3240  -31.6130   26.6060 C   0  0  0  0  0  1  0  0  0  0  0  0
  -27.0810  -30.5410   25.1920 C   0  0  0  0  0  1  0  0  0  0  0  0
  -27.5810  -32.6680   26.3620 C   0  0  0  0  0  1  0  0  0  0  0  0
  -25.7630  -34.1010   24.6300 N   0  0  0  0  0  0  0  0  0  0  0  0
  -26.1490  -35.1470   23.8820 C   0  0  0  0  0  0  0  0  0  0  0  0
  -26.8620  -35.0240   22.8830 O   0  0  0  0  0  0  0  0  0  0  0  0
  -25.1850  -34.2600   25.4460 H   0  0  0  0  0  0  0  0  0  0  0  0
  -24.5030  -36.9890   23.4360 C   0  0  0  0  0  1  0  0  0  0  0  0
  -25.6870  -36.5490   24.3130 C   0  0  0  0  0  3  0  0  0  0  0  0
  -27.8100  -37.3640   25.2450 C   0  0  0  0  0  1  0  0  0  0  0  0
  -26.7590  -37.5680   24.2500 N   0  0  0  0  0  0  0  0  0  0  0  0
  -26.3870  -38.5070   24.3890 H   0  0  0  0  0  0  0  0  0  0  0  0
  1  5  1  0
  2  1  2  0
  2 53  1  0
  3  1  1  0
  4  6  1  0
  4  2  1  0
  6 12  1  0
  6  3  1  0
  7  3  2  0
  8 10  1  0
  9 11  2  0
  9 12  1  0
 11 13  1  0
 12  8  2  0
 13 22  1  0
 13 10  2  0
 15 20  1  0
 16 17  1  0
 16 15  1  0
 18 17  1  0
 18 26  1  0
 18 19  1  0
 20 14  1  0
 20 19  1  0
 21 14  2  0
 22 14  1  0
 23 24  2  0
 24 43  1  0
 25 24  1  0
 25 28  1  0
 26 27  1  0
 26 23  1  0
 27 25  2  0
 28 29  1  0
 29 30  2  0
 31 34  1  0
 31 30  1  0
 32 31  2  0
 33 32  1  0
 33 28  2  0
 34 35  1  0
 35 40  2  0
 35 36  1  0
 36 37  2  0
 37 38  1  0
 38 42  1  0
 39 38  2  0
 40 39  1  0
 41 40  1  0
 43 44  1  0
 44 47  1  0
 44 46  1  0
 45 43  2  0
 48 23  1  0
 48 49  1  0
 50 48  1  0
 51 52  1  0
 52 22  1  0
 54 53  1  0
 55 66  2  0
 56 54  1  0
 56 61  1  0
 57 65  1  0
 57 67  1  0
 58 64  1  0
 58 60  1  0
 59 65  1  0
 60 61  2  0
 60 59  1  0
 62 63  1  0
 62 56  2  0
 63 58  2  0
 64 57  1  0
 65 55  1  0
 67 69  2  0
 68 67  1  0
 70 68  1  0
 71 80  2  0
 71 76  1  0
 72 68  1  0
 72 76  1  0
 73 72  1  0
 74 75  1  0
 74 73  1  0
 75 71  1  0
 76 77  2  0
 77 78  1  0
 79 78  2  0
 80 79  1  0
 81 55  1  0
 81 86  1  0
 81 82  1  0
 82 85  1  1
 82 83  1  0
 84 82  1  0
 86 89  1  0
 87 91  1  0
 87 86  1  0
 88 87  2  0
 91 90  1  0
 93 91  1  0
 93 94  1  0
 93 92  1  0
M  ISO  4  14 100  22 100  53 101  54 101
M  END
>  <TORSDO>  (29) 
F 19

>  <SCORE>  (29) 
-12.367

>  <name>  (29) 
28

>  <ligand_id>  (29) 
28

>  <original_smiles>  (29) 
[H]c1c([H])c([H])c2c(c1[H])C([H])([H])C([H])([H])C([H])([H])C2([H])N([H])C(=O)C1([H])N(C(=O)C([H])(N([H])C(=O)C([H])(N([H])C([H])([H])[H])C([H])([H])[H])C(C([H])([H])[H])(C([H])([H])[H])C([H])([H])[H])C([H])([H])c2c([H])c(OC([H])([H])C3=C(C([H])([H])[H])C(=O)N(c4c([H])c([H])c(N(C(=O)N5C([H])([H])C([H])([H])C([H])([H])C([H])(n6nc(-c7c([H])c([H])c(Oc8c([H])c([H])c(F)c([H])c8F)c([H])c7[H])c(C(=O)N([H])[H])c6N([H])[H])C5([H])[H])C([H])([H])C([H])([H])[H])c([H])c4[H])C3([H])[H])c([H])c([H])c2C1([H])[H]

>  <smiles>  (29) 
[H]c1c([H])c([H])c2c(c1[H])C([H])([H])C([H])([H])C([H])([H])C2([H])N([H])C(=O)C1([H])N(C(=O)C([H])(N([H])C(=O)C([H])(N([H])C([H])([H])[H])C([H])([H])[H])C(C([H])([H])[H])(C([H])([H])[H])C([H])([H])[H])C([H])([H])c2c([H])c(OC([H])([H])C3=C(C([H])([H])[H])C(=O)N(c4c([H])c([H])c(N(C(=O)N5C([H])([H])C([H])([H])C([H])([H])C([H])(n6nc(-c7c([H])c([H])c(Oc8c([H])c([H])c(F)c([H])c8F)c([H])c7[H])c(C(=O)N([H])[H])c6N([H])[H])C5([H])[H])C([H])([H])C([H])([H])[H])c([H])c4[H])C3([H])[H])c([H])c([H])c2C1([H])[H]

$$$$
29:0:0
     RDKit          3D

 95104  0  0  1  0  0  0  0  0999 V2000
  -28.9520  -23.0460   20.0570 C   0  0  0  0  0  0  0  0  0  0  0  0
  -29.2430  -24.3840   19.9780 C   0  0  0  0  0  0  0  0  0  0  0  0
  -28.1500  -20.8760   20.6940 C   0  0  0  0  0  2  0  0  0  0  0  0
  -27.7300  -22.3510   20.6570 C   0  0  2  0  0  0  0  0  0  0  0  0
  -30.5340  -24.8740   19.3460 C   0  0  0  0  0  1  0  0  0  0  0  0
  -26.5110  -22.4950   19.7250 C   0  0  0  0  0  1  0  0  0  0  0  0
  -27.3850  -22.8290   22.0820 C   0  0  0  0  0  1  0  0  0  0  0  0
  -29.2770  -20.7530   19.7910 N   0  0  0  0  0  0  0  0  0  0  0  0
  -29.8280  -22.0800   19.5900 O   0  0  0  0  0  0  0  0  0  0  0  0
  -32.4520  -19.0150   20.7500 C   0  0  0  0  0  3  0  0  0  0  0  0
  -31.5380  -20.0340   20.4160 C   0  0  0  0  0  3  0  0  0  0  0  0
  -32.0500  -17.6650   20.7650 C   0  0  0  0  0  3  0  0  0  0  0  0
  -29.7980  -18.3490   20.1480 C   0  0  0  0  0  3  0  0  0  0  0  0
  -30.1970  -19.7210   20.1150 C   0  0  0  0  0  0  0  0  0  0  0  0
  -30.7210  -17.2980   20.4400 C   0  0  0  0  0  0  0  0  0  0  0  0
  -31.0110  -14.8210   20.0230 C   0  0  0  0  0  0  0  0  0  0  0  0
  -30.6650  -12.6110   18.9710 C   0  0  0  0  0  2  0  0  0  0  0  0
  -29.6830  -12.7730   17.7930 C   0  0  0  0  0  2  0  0  0  0  0  0
  -28.2250  -12.6500   18.2800 C   0  0  0  0  0  2  0  0  0  0  0  0
  -27.9330  -13.5260   19.5290 C   0  0  0  0  0  3  0  0  0  0  0  0
  -29.0310  -13.3590   20.6030 C   0  0  0  0  0  2  0  0  0  0  0  0
  -30.3270  -13.6420   19.9680 N   0  0  0  0  0  0  0  0  0  0  0  0
  -32.1440  -14.9300   19.5480 O   0  0  0  0  0  0  0  0  0  0  0  0
  -30.3080  -15.9100   20.4400 N   0  0  0  0  0  0  0  0  0  0  0  0
  -29.3430  -15.7260   20.6670 H   0  0  0  0  0  0  0  0  0  0  0  0
  -25.5890  -14.1640   20.3710 C   0  0  0  0  0  0  0  0  0  0  0  0
  -24.5220  -13.4060   20.7730 C   0  0  0  0  0  0  0  0  0  0  0  0
  -24.9510  -12.0450   20.6900 C   0  0  0  0  0  0  0  0  0  0  0  0
  -26.6010  -13.2660   20.0680 N   0  0  0  0  0  0  0  0  0  0  0  0
  -26.2240  -11.9860   20.3180 N   0  0  0  0  0  0  0  0  0  0  0  0
  -24.2040  -10.7950   20.8850 C   0  0  0  0  0  0  0  0  0  0  0  0
  -24.6020   -9.8410   21.8470 C   0  0  0  0  0  3  0  0  0  0  0  0
  -23.8570   -8.6550   22.0290 C   0  0  0  0  0  3  0  0  0  0  0  0
  -22.7010   -8.4170   21.2480 C   0  0  0  0  0  0  0  0  0  0  0  0
  -22.3240   -9.3600   20.2760 C   0  0  0  0  0  3  0  0  0  0  0  0
  -23.0690  -10.5360   20.0920 C   0  0  0  0  0  3  0  0  0  0  0  0
  -21.9300   -7.2820   21.3390 O   0  0  0  0  0  0  0  0  0  0  0  0
  -21.7820   -6.6050   22.5220 C   0  0  0  0  0  0  0  0  0  0  0  0
  -21.2110   -7.2110   23.6630 C   0  0  0  0  0  3  0  0  0  0  0  0
  -21.0150   -6.4580   24.8370 C   0  0  0  0  0  3  0  0  0  0  0  0
  -21.3780   -5.0980   24.8700 C   0  0  0  0  0  0  0  0  0  0  0  0
  -21.9410   -4.4910   23.7350 C   0  0  0  0  0  3  0  0  0  0  0  0
  -22.1400   -5.2430   22.5640 C   0  0  0  0  0  0  0  0  0  0  0  0
  -22.6630   -4.6470   21.4640 F   0  0  0  0  0  0  0  0  0  0  0  0
  -21.1820   -4.3720   25.9960 F   0  0  0  0  0  0  0  0  0  0  0  0
  -23.1520  -13.9070   21.1230 C   0  0  0  0  0  0  0  0  0  0  0  0
  -22.4520  -13.2100   22.0120 N   0  0  0  0  0  0  0  0  0  0  0  0
  -22.7110  -14.9520   20.6440 O   0  0  0  0  0  0  0  0  0  0  0  0
  -22.8200  -12.3640   22.4190 H   0  0  0  0  0  0  0  0  0  0  0  0
  -21.5330  -13.5280   22.2880 H   0  0  0  0  0  0  0  0  0  0  0  0
  -25.7790  -15.5340   20.2170 N   0  0  0  0  0  0  0  0  0  0  0  0
  -25.0330  -16.2030   20.3730 H   0  0  0  0  0  0  0  0  0  0  0  0
  -26.6160  -15.9570   19.8350 H   0  0  0  0  0  0  0  0  0  0  0  0
  -28.3410  -25.5230   20.5090 C   0  0  0  0  0  2  0  0  0  0  0  0
  -28.5090  -26.8330   19.8890 O   0  0  0  0  0  0  0  0  0  0  0  0
  -24.6520  -31.9090   23.1530 C   0  0  0  0  0  0  0  0  0  0  0  0
  -27.3660  -27.6160   19.8960 C   0  0  0  0  0  0  0  0  0  0  0  0
  -23.4700  -30.5430   21.4650 C   0  0  0  0  0  3  0  0  0  0  0  0
  -24.9500  -29.0990   19.9680 C   0  0  0  0  0  0  0  0  0  0  0  0
  -25.9890  -30.9600   21.2710 C   0  0  0  0  0  2  0  0  0  0  0  0
  -26.1030  -29.6160   20.5720 C   0  0  0  0  0  0  0  0  0  0  0  0
  -27.3180  -28.8850   20.5300 C   0  0  0  0  0  3  0  0  0  0  0  0
  -26.1980  -27.1340   19.2670 C   0  0  0  0  0  3  0  0  0  0  0  0
  -24.9940  -27.8590   19.3100 C   0  0  0  0  0  3  0  0  0  0  0  0
  -23.6860  -29.9260   20.0590 C   0  0  0  0  0  2  0  0  0  0  0  0
  -24.7220  -31.1510   22.0220 N   0  0  0  0  0  0  0  0  0  0  0  0
  -23.5680  -32.1350   23.7090 O   0  0  0  0  0  0  0  0  0  0  0  0
  -22.8480  -29.4700   22.3890 C   0  0  0  0  0  0  0  0  0  0  0  0
  -21.5250  -29.2670   22.2670 N   0  0  0  0  0  0  0  0  0  0  0  0
  -23.5510  -28.8270   23.1720 O   0  0  0  0  0  0  0  0  0  0  0  0
  -21.0180  -29.8410   21.6090 H   0  0  0  0  0  0  0  0  0  0  0  0
  -18.1720  -28.0190   22.7860 C   0  0  0  0  0  0  0  0  0  0  0  0
  -20.7350  -28.2810   23.0050 C   0  0  0  0  0  3  0  0  0  0  0  0
  -20.8320  -26.8850   22.3460 C   0  0  0  0  0  2  0  0  0  0  0  0
  -19.7040  -26.6100   21.3450 C   0  0  0  0  0  2  0  0  0  0  0  0
  -18.3400  -26.7100   22.0320 C   0  0  0  0  0  2  0  0  0  0  0  0
  -19.2970  -28.7640   23.2290 C   0  0  0  0  0  0  0  0  0  0  0  0
  -19.0860  -29.9920   23.8930 C   0  0  0  0  0  3  0  0  0  0  0  0
  -17.7830  -30.4730   24.1210 C   0  0  0  0  0  3  0  0  0  0  0  0
  -16.6730  -29.7230   23.6960 C   0  0  0  0  0  3  0  0  0  0  0  0
  -16.8690  -28.4960   23.0350 C   0  0  0  0  0  3  0  0  0  0  0  0
  -25.9260  -32.5470   23.7900 C   0  0  0  0  0  3  0  0  0  0  0  0
  -25.6010  -33.9360   24.1350 N   0  0  0  0  0  0  0  0  0  0  0  0
  -25.9320  -35.0020   23.3920 C   0  0  0  0  0  0  0  0  0  0  0  0
  -26.6150  -34.9170   22.3690 O   0  0  0  0  0  0  0  0  0  0  0  0
  -24.9980  -34.0760   24.9330 H   0  0  0  0  0  0  0  0  0  0  0  0
  -24.1960  -36.7850   23.0300 C   0  0  0  0  0  1  0  0  0  0  0  0
  -25.4240  -36.3790   23.8600 C   0  0  0  0  0  3  0  0  0  0  0  0
  -27.5300  -37.2770   24.7520 C   0  0  0  0  0  1  0  0  0  0  0  0
  -26.4520  -37.4410   23.7790 N   0  0  0  0  0  0  0  0  0  0  0  0
  -26.0360  -38.3580   23.9180 H   0  0  0  0  0  0  0  0  0  0  0  0
  -26.4450  -31.7650   25.0590 C   0  0  1  0  0  0  0  0  0  0  0  0
  -25.3470  -31.4950   26.1140 C   0  0  0  0  0  1  0  0  0  0  0  0
  -27.0510  -30.4020   24.6510 C   0  0  0  0  0  1  0  0  0  0  0  0
  -27.5780  -32.5660   25.7410 C   0  0  0  0  0  1  0  0  0  0  0  0
  1  4  1  0
  2  1  2  0
  2 54  1  0
  4  3  1  0
  4  7  1  1
  5  2  1  0
  6  4  1  0
  8 14  1  0
  8  3  1  0
  9  8  1  0
  9  1  1  0
 10 12  1  0
 11 10  2  0
 13 15  1  0
 14 13  2  0
 14 11  1  0
 15 12  2  0
 16 24  1  0
 17 22  1  0
 18 19  1  0
 18 17  1  0
 20 19  1  0
 20 29  1  0
 20 21  1  0
 22 16  1  0
 22 21  1  0
 23 16  2  0
 24 15  1  0
 24 25  1  0
 26 27  2  0
 27 46  1  0
 28 27  1  0
 28 31  1  0
 29 30  1  0
 29 26  1  0
 30 28  2  0
 31 32  1  0
 32 33  2  0
 34 37  1  0
 34 33  1  0
 35 34  2  0
 36 35  1  0
 36 31  2  0
 37 38  1  0
 38 43  2  0
 38 39  1  0
 39 40  2  0
 40 41  1  0
 41 45  1  0
 42 41  2  0
 43 42  1  0
 44 43  1  0
 46 47  1  0
 47 50  1  0
 47 49  1  0
 48 46  2  0
 51 26  1  0
 51 52  1  0
 53 51  1  0
 55 57  1  0
 55 54  1  0
 56 67  2  0
 57 62  1  0
 58 66  1  0
 58 68  1  0
 59 65  1  0
 59 61  1  0
 60 66  1  0
 61 60  1  0
 62 61  2  0
 63 64  1  0
 63 57  2  0
 64 59  2  0
 65 58  1  0
 66 56  1  0
 68 70  2  0
 69 68  1  0
 71 69  1  0
 72 81  2  0
 72 77  1  0
 73 69  1  0
 73 77  1  0
 74 73  1  0
 75 76  1  0
 75 74  1  0
 76 72  1  0
 77 78  2  0
 78 79  1  0
 80 79  2  0
 81 80  1  0
 82 56  1  0
 82 83  1  0
 82 92  1  0
 83 86  1  0
 84 88  1  0
 84 83  1  0
 85 84  2  0
 88 87  1  0
 90 88  1  0
 90 91  1  0
 90 89  1  0
 92 95  1  1
 92 93  1  0
 94 92  1  0
M  ISO  4  16 100  24 100  54 101  55 101
M  END
>  <TORSDO>  (30) 
F 18

>  <SCORE>  (30) 
-14.097

>  <name>  (30) 
29

>  <ligand_id>  (30) 
29

>  <original_smiles>  (30) 
[H]c1c([H])c(N([H])C(=O)N2C([H])([H])C([H])([H])C([H])([H])C([H])(n3nc(-c4c([H])c([H])c(Oc5c([H])c([H])c(F)c([H])c5F)c([H])c4[H])c(C(=O)N([H])[H])c3N([H])[H])C2([H])[H])c([H])c(N2OC(=C(C([H])([H])[H])C([H])([H])Oc3c([H])c([H])c4c(c3[H])C([H])([H])N(C(=O)C([H])(N([H])C(=O)C([H])(N([H])C([H])([H])[H])C([H])([H])[H])C(C([H])([H])[H])(C([H])([H])[H])C([H])([H])[H])C([H])(C(=O)N([H])C3([H])c5c([H])c([H])c([H])c([H])c5C([H])([H])C([H])([H])C3([H])[H])C4([H])[H])C(C([H])([H])[H])(C([H])([H])[H])C2([H])[H])c1[H]

>  <smiles>  (30) 
[H]c1c([H])c(N([H])C(=O)N2C([H])([H])C([H])([H])C([H])([H])C([H])(n3nc(-c4c([H])c([H])c(Oc5c([H])c([H])c(F)c([H])c5F)c([H])c4[H])c(C(=O)N([H])[H])c3N([H])[H])C2([H])[H])c([H])c(N2OC(=C(C([H])([H])[H])C([H])([H])Oc3c([H])c([H])c4c(c3[H])C([H])([H])N(C(=O)C([H])(N([H])C(=O)C([H])(N([H])C([H])([H])[H])C([H])([H])[H])C(C([H])([H])[H])(C([H])([H])[H])C([H])([H])[H])C([H])(C(=O)N([H])C3([H])c5c([H])c([H])c([H])c([H])c5C([H])([H])C([H])([H])C3([H])[H])C4([H])[H])C(C([H])([H])[H])(C([H])([H])[H])C2([H])[H])c1[H]

$$$$
30:0:0
     RDKit          3D

 98106  0  0  1  0  0  0  0  0999 V2000
  -29.7910  -21.6560   21.0020 C   0  0  0  0  0  0  0  0  0  0  0  0
  -30.5270  -22.0640   22.0390 N   0  0  0  0  0  4  0  0  0  0  0  0
  -29.1190  -22.6450   20.3170 N   0  0  0  0  0  0  0  0  0  0  0  0
  -31.0070  -21.3750   22.5960 H   0  0  0  0  0  0  0  0  0  0  0  0
  -30.5710  -23.0260   22.3250 H   0  0  0  0  0  0  0  0  0  0  0  0
  -28.6940  -22.3550   19.4470 H   0  0  0  0  0  0  0  0  0  0  0  0
  -30.9780  -19.3900   21.0100 C   0  0  0  0  0  3  0  0  0  0  0  0
  -31.0020  -17.9620   20.9490 C   0  0  0  0  0  3  0  0  0  0  0  0
  -28.6610  -19.4150   20.3590 C   0  0  0  0  0  3  0  0  0  0  0  0
  -29.8040  -20.1600   20.7430 C   0  0  0  0  0  0  0  0  0  0  0  0
  -29.8410  -17.2220   20.6170 C   0  0  0  0  0  0  0  0  0  0  0  0
  -28.6810  -17.9880   20.3080 C   0  0  0  0  0  0  0  0  0  0  0  0
  -27.5460  -17.3250   19.9760 F   0  0  0  0  0  0  0  0  0  0  0  0
  -30.5700  -14.7350   20.3920 C   0  0  0  0  0  0  0  0  0  0  0  0
  -30.3860  -12.4900   19.3360 C   0  0  0  0  0  2  0  0  0  0  0  0
  -29.4360  -12.5980   18.1200 C   0  0  0  0  0  2  0  0  0  0  0  0
  -27.9620  -12.4420   18.5490 C   0  0  0  0  0  2  0  0  0  0  0  0
  -27.6020  -13.3140   19.7800 C   0  0  0  0  0  3  0  0  0  0  0  0
  -28.6610  -13.1620   20.8960 C   0  0  0  0  0  2  0  0  0  0  0  0
  -29.9680  -13.5070   20.3170 N   0  0  0  0  0  0  0  0  0  0  0  0
  -31.7410  -14.9060   20.0380 O   0  0  0  0  0  0  0  0  0  0  0  0
  -29.7180  -15.7700   20.6630 N   0  0  0  0  0  0  0  0  0  0  0  0
  -28.7680  -15.4610   20.7910 H   0  0  0  0  0  0  0  0  0  0  0  0
  -25.2100  -13.9320   20.4920 C   0  0  0  0  0  0  0  0  0  0  0  0
  -24.1390  -13.1630   20.8620 C   0  0  0  0  0  0  0  0  0  0  0  0
  -24.5960  -11.8110   20.8380 C   0  0  0  0  0  0  0  0  0  0  0  0
  -26.2510  -13.0440   20.2650 N   0  0  0  0  0  0  0  0  0  0  0  0
  -25.8860  -11.7650   20.5330 N   0  0  0  0  0  0  0  0  0  0  0  0
  -23.8640  -10.5530   21.0300 C   0  0  0  0  0  0  0  0  0  0  0  0
  -24.2940   -9.5840   21.9640 C   0  0  0  0  0  3  0  0  0  0  0  0
  -23.5650   -8.3900   22.1430 C   0  0  0  0  0  3  0  0  0  0  0  0
  -22.3900   -8.1550   21.3900 C   0  0  0  0  0  0  0  0  0  0  0  0
  -21.9790   -9.1130   20.4460 C   0  0  0  0  0  3  0  0  0  0  0  0
  -22.7090  -10.2990   20.2650 C   0  0  0  0  0  3  0  0  0  0  0  0
  -21.6300   -7.0150   21.4800 O   0  0  0  0  0  0  0  0  0  0  0  0
  -21.5770   -6.2740   22.6340 C   0  0  0  0  0  0  0  0  0  0  0  0
  -21.1410   -6.8300   23.8570 C   0  0  0  0  0  3  0  0  0  0  0  0
  -21.0370   -6.0150   25.0020 C   0  0  0  0  0  3  0  0  0  0  0  0
  -21.3580   -4.6470   24.9260 C   0  0  0  0  0  0  0  0  0  0  0  0
  -21.7860   -4.0910   23.7080 C   0  0  0  0  0  3  0  0  0  0  0  0
  -21.8930   -4.9030   22.5640 C   0  0  0  0  0  0  0  0  0  0  0  0
  -22.2860   -4.3570   21.3890 F   0  0  0  0  0  0  0  0  0  0  0  0
  -21.2490   -3.8630   26.0230 F   0  0  0  0  0  0  0  0  0  0  0  0
  -22.7430  -13.6480   21.1300 C   0  0  0  0  0  0  0  0  0  0  0  0
  -22.0130  -12.9610   21.9990 N   0  0  0  0  0  0  0  0  0  0  0  0
  -22.3090  -14.6720   20.6020 O   0  0  0  0  0  0  0  0  0  0  0  0
  -22.3760  -12.1320   22.4470 H   0  0  0  0  0  0  0  0  0  0  0  0
  -21.0760  -13.2660   22.2210 H   0  0  0  0  0  0  0  0  0  0  0  0
  -25.3780  -15.3010   20.3080 N   0  0  0  0  0  0  0  0  0  0  0  0
  -24.6080  -15.9500   20.4240 H   0  0  0  0  0  0  0  0  0  0  0  0
  -26.2210  -15.7590   19.9830 H   0  0  0  0  0  0  0  0  0  0  0  0
  -29.2320  -24.1590   20.5370 C   0  0  0  0  0  3  0  0  0  0  0  0
  -30.5360  -24.6420   19.8920 C   0  0  0  0  0  0  0  0  0  0  0  0
  -30.8320  -24.4670   18.7090 O   0  0  0  0  0  0  0  0  0  0  0  0
  -32.6050  -25.6960   20.4520 C   0  0  0  0  0  1  0  0  0  0  0  0
  -31.3300  -25.1970   20.8220 O   0  0  0  0  0  0  0  0  0  0  0  0
  -28.0250  -25.0870   20.0660 C   0  0  0  0  0  2  0  0  0  0  0  0
  -28.1850  -26.5550   20.2050 O   0  0  0  0  0  0  0  0  0  0  0  0
  -24.5030  -31.9480   23.2160 C   0  0  0  0  0  0  0  0  0  0  0  0
  -27.0550  -27.3840   20.1420 C   0  0  0  0  0  0  0  0  0  0  0  0
  -23.2670  -30.5470   21.5990 C   0  0  0  0  0  3  0  0  0  0  0  0
  -24.6890  -28.9890   20.1580 C   0  0  0  0  0  0  0  0  0  0  0  0
  -25.8000  -30.8690   21.3670 C   0  0  0  0  0  2  0  0  0  0  0  0
  -25.8690  -29.4880   20.7250 C   0  0  0  0  0  0  0  0  0  0  0  0
  -27.0520  -28.6960   20.7060 C   0  0  0  0  0  3  0  0  0  0  0  0
  -25.8560  -26.9400   19.5400 C   0  0  0  0  0  3  0  0  0  0  0  0
  -24.6840  -27.7200   19.5560 C   0  0  0  0  0  3  0  0  0  0  0  0
  -23.4560  -29.8640   20.2190 C   0  0  0  0  0  2  0  0  0  0  0  0
  -24.5440  -31.1370   22.1180 N   0  0  0  0  0  0  0  0  0  0  0  0
  -23.4300  -32.2260   23.7710 O   0  0  0  0  0  0  0  0  0  0  0  0
  -22.6220  -29.5340   22.5760 C   0  0  0  0  0  0  0  0  0  0  0  0
  -21.2960  -29.3470   22.4650 N   0  0  0  0  0  0  0  0  0  0  0  0
  -23.3130  -28.9220   23.3940 O   0  0  0  0  0  0  0  0  0  0  0  0
  -20.7950  -29.8940   21.7780 H   0  0  0  0  0  0  0  0  0  0  0  0
  -17.9400  -28.1030   22.9740 C   0  0  0  0  0  0  0  0  0  0  0  0
  -20.4920  -28.4130   23.2550 C   0  0  0  0  0  3  0  0  0  0  0  0
  -20.6230  -26.9700   22.7150 C   0  0  0  0  0  2  0  0  0  0  0  0
  -19.5340  -26.6030   21.7020 C   0  0  0  0  0  2  0  0  0  0  0  0
  -18.1450  -26.7400   22.3320 C   0  0  0  0  0  2  0  0  0  0  0  0
  -19.0430  -28.8930   23.3940 C   0  0  0  0  0  0  0  0  0  0  0  0
  -18.7980  -30.1640   23.9550 C   0  0  0  0  0  3  0  0  0  0  0  0
  -17.4840  -30.6490   24.0990 C   0  0  0  0  0  3  0  0  0  0  0  0
  -16.3960  -29.8540   23.6990 C   0  0  0  0  0  3  0  0  0  0  0  0
  -16.6250  -28.5830   23.1410 C   0  0  0  0  0  3  0  0  0  0  0  0
  -25.7980  -32.5830   23.8100 C   0  0  0  0  0  3  0  0  0  0  0  0
  -25.4960  -33.9810   24.1470 N   0  0  0  0  0  0  0  0  0  0  0  0
  -25.8290  -35.0350   23.3890 C   0  0  0  0  0  0  0  0  0  0  0  0
  -26.4880  -34.9310   22.3520 O   0  0  0  0  0  0  0  0  0  0  0  0
  -24.9100  -34.1360   24.9540 H   0  0  0  0  0  0  0  0  0  0  0  0
  -24.1140  -36.8420   23.0450 C   0  0  0  0  0  1  0  0  0  0  0  0
  -25.3500  -36.4230   23.8570 C   0  0  0  0  0  3  0  0  0  0  0  0
  -27.4880  -37.2870   24.6990 C   0  0  0  0  0  1  0  0  0  0  0  0
  -26.3900  -37.4710   23.7530 N   0  0  0  0  0  0  0  0  0  0  0  0
  -25.9890  -38.3920   23.9070 H   0  0  0  0  0  0  0  0  0  0  0  0
  -26.3410  -31.8120   25.0760 C   0  0  1  0  0  0  0  0  0  0  0  0
  -25.2710  -31.5780   26.1670 C   0  0  0  0  0  1  0  0  0  0  0  0
  -26.9130  -30.4350   24.6690 C   0  0  0  0  0  1  0  0  0  0  0  0
  -27.5040  -32.6050   25.7150 C   0  0  0  0  0  1  0  0  0  0  0  0
  1  2  2  0
  2  5  1  0
  2  4  1  0
  3 52  1  0
  3  1  1  0
  6  3  1  0
  8  7  1  0
  9 10  1  0
 10  1  1  0
 10  7  2  0
 11 22  1  0
 11  8  2  0
 12  9  2  0
 12 11  1  0
 13 12  1  0
 14 22  1  0
 15 20  1  0
 16 17  1  0
 16 15  1  0
 18 17  1  0
 18 27  1  0
 18 19  1  0
 20 14  1  0
 20 19  1  0
 21 14  2  0
 22 23  1  0
 24 25  2  0
 25 44  1  0
 26 25  1  0
 26 29  1  0
 27 24  1  0
 27 28  1  0
 28 26  2  0
 29 30  1  0
 30 31  2  0
 32 35  1  0
 32 31  1  0
 33 32  2  0
 34 33  1  0
 34 29  2  0
 35 36  1  0
 36 37  1  0
 37 38  2  0
 39 38  1  0
 39 43  1  0
 40 39  2  0
 41 36  2  0
 41 40  1  0
 42 41  1  0
 44 45  1  0
 45 48  1  0
 45 47  1  0
 46 44  2  0
 49 50  1  0
 49 24  1  0
 51 49  1  0
 52 57  1  0
 53 52  1  0
 53 56  1  0
 54 53  2  0
 55 56  1  0
 57 58  1  0
 59 70  2  0
 60 58  1  0
 60 65  1  0
 61 69  1  0
 61 71  1  0
 62 68  1  0
 62 64  1  0
 63 69  1  0
 64 63  1  0
 65 64  2  0
 66 67  1  0
 66 60  2  0
 67 62  2  0
 68 61  1  0
 69 59  1  0
 71 73  2  0
 72 71  1  0
 74 72  1  0
 75 84  2  0
 75 80  1  0
 76 72  1  0
 76 80  1  0
 77 76  1  0
 78 79  1  0
 78 77  1  0
 79 75  1  0
 80 81  2  0
 81 82  1  0
 83 82  2  0
 84 83  1  0
 85 59  1  0
 85 86  1  0
 85 95  1  0
 86 89  1  0
 87 91  1  0
 87 86  1  0
 88 87  2  0
 91 90  1  0
 93 91  1  0
 93 94  1  0
 93 92  1  0
 95 98  1  1
 95 96  1  0
 97 95  1  0
M  ISO  4  14 100  22 100  57 101  58 101
M  END
>  <TORSDO>  (31) 
F 21

>  <SCORE>  (31) 
-14.026

>  <name>  (31) 
30

>  <ligand_id>  (31) 
30

>  <original_smiles>  (31) 
[H]c1c([H])c([H])c2c(c1[H])C([H])([H])C([H])([H])C([H])([H])C2([H])N([H])C(=O)C1([H])N(C(=O)C([H])(N([H])C(=O)C([H])(N([H])C([H])([H])[H])C([H])([H])[H])C(C([H])([H])[H])(C([H])([H])[H])C([H])([H])[H])C([H])([H])c2c([H])c(OC([H])([H])C([H])(C(=O)OC([H])([H])[H])[N+]([H])=C(c3c([H])c([H])c(N([H])C(=O)N4C([H])([H])C([H])([H])C([H])([H])C([H])(n5nc(-c6c([H])c([H])c(Oc7c([H])c([H])c(F)c([H])c7F)c([H])c6[H])c(C(=O)N([H])[H])c5N([H])[H])C4([H])[H])c(F)c3[H])N([H])[H])c([H])c([H])c2C1([H])[H]

>  <smiles>  (31) 
[H]c1c([H])c([H])c2c(c1[H])C([H])([H])C([H])([H])C([H])([H])C2([H])N([H])C(=O)C1([H])N(C(=O)C([H])(N([H])C(=O)C([H])(N([H])C([H])([H])[H])C([H])([H])[H])C(C([H])([H])[H])(C([H])([H])[H])C([H])([H])[H])C([H])([H])c2c([H])c(OC([H])([H])C([H])(C(=O)OC([H])([H])[H])[N+]([H])=C(c3c([H])c([H])c(N([H])C(=O)N4C([H])([H])C([H])([H])C([H])([H])C([H])(n5nc(-c6c([H])c([H])c(Oc7c([H])c([H])c(F)c([H])c7F)c([H])c6[H])c(C(=O)N([H])[H])c5N([H])[H])C4([H])[H])c(F)c3[H])N([H])[H])c([H])c([H])c2C1([H])[H]

$$$$
31:0:0
     RDKit          3D

 97105  0  0  1  0  0  0  0  0999 V2000
  -29.4460  -17.2800   20.1490 C   0  0  0  0  0  3  0  0  0  0  0  0
  -27.8040  -20.1520   18.1910 C   0  0  0  0  0  2  0  0  0  0  0  0
  -28.2670  -21.6150   18.3610 C   0  0  0  0  0  2  0  0  0  0  0  0
  -27.9920  -19.2450   19.4310 C   0  0  0  0  0  2  0  0  0  0  0  0
  -30.2350  -20.3150   19.4540 C   0  0  0  0  0  2  0  0  0  0  0  0
  -29.8030  -21.8340   18.4230 C   0  0  0  0  0  3  0  0  0  0  0  0
  -29.4050  -18.7930   19.6520 N   0  0  0  0  0  0  0  0  0  0  0  0
  -28.3100  -16.9030   20.7330 N   0  0  0  0  0  0  0  0  0  0  0  0
  -28.2350  -15.9400   21.0300 H   0  0  0  0  0  0  0  0  0  0  0  0
  -27.5810  -17.5400   20.9930 H   0  0  0  0  0  0  0  0  0  0  0  0
  -30.6610  -14.1770   20.9600 C   0  0  0  0  0  1  0  0  0  0  0  0
  -30.9270  -16.1170   18.6960 C   0  0  0  0  0  3  0  0  0  0  0  0
  -31.4970  -12.8170   19.2600 C   0  0  0  0  0  2  0  0  0  0  0  0
  -31.4570  -15.0880   17.6530 C   0  0  0  0  0  3  0  0  0  0  0  0
  -30.4480  -15.8970   20.1890 C   0  0  0  0  0  3  0  0  0  0  0  0
  -31.8240  -13.5830   17.8810 C   0  0  0  0  0  3  0  0  0  0  0  0
  -33.2510  -13.4430   17.4510 C   0  0  0  0  0  2  0  0  0  0  0  0
  -33.6800  -13.8460   19.9390 C   0  0  0  0  0  0  0  0  0  0  0  0
  -32.6950  -11.8390   20.6400 C   0  0  0  0  0  3  0  0  0  0  0  0
  -31.5130  -10.5270   20.2790 C   0  0  0  0  0  3  0  0  0  0  0  0
  -29.9140  -10.5780   19.5360 C   0  0  0  0  0  2  0  0  0  0  0  0
  -28.9210  -12.0330   19.3240 C   0  0  0  0  0  3  0  0  0  0  0  0
  -29.6920  -13.8090   19.0610 C   0  0  0  0  0  1  0  0  0  0  0  0
  -32.4470  -13.5510   20.1880 N   0  0  0  0  0  0  0  0  0  0  0  0
  -34.4700  -13.9040   20.8260 O   0  0  0  0  0  0  0  0  0  0  0  0
  -34.0800  -13.7930   18.6330 N   0  0  0  0  0  0  0  0  0  0  0  0
  -35.0550  -13.9760   18.4640 H   0  0  0  0  0  0  0  0  0  0  0  0
  -27.2710  -12.8570   21.0100 C   0  0  0  0  0  3  0  0  0  0  0  0
  -26.0630  -12.3090   21.3240 C   0  0  0  0  0  0  0  0  0  0  0  0
  -26.1280  -10.9210   21.0340 C   0  0  0  0  0  0  0  0  0  0  0  0
  -27.9500  -11.8570   20.3950 N   0  0  0  0  0  0  0  0  0  0  0  0
  -27.3270  -10.6500   20.5980 N   0  0  0  0  0  2  0  0  0  0  0  0
  -25.0890   -9.8740   21.0120 C   0  0  0  0  0  0  0  0  0  0  0  0
  -25.1920   -8.7010   21.7920 C   0  0  0  0  0  3  0  0  0  0  0  0
  -24.1390   -7.7610   21.8000 C   0  0  0  0  0  3  0  0  0  0  0  0
  -22.9780   -7.9870   21.0170 C   0  0  0  0  0  0  0  0  0  0  0  0
  -22.9090   -9.1330   20.2080 C   0  0  0  0  0  3  0  0  0  0  0  0
  -23.9550  -10.0700   20.2000 C   0  0  0  0  0  3  0  0  0  0  0  0
  -21.9140   -7.1230   20.9560 O   0  0  0  0  0  0  0  0  0  0  0  0
  -21.4310   -6.4860   22.0690 C   0  0  0  0  0  0  0  0  0  0  0  0
  -20.9820   -7.1990   23.2030 C   0  0  0  0  0  3  0  0  0  0  0  0
  -20.4320   -6.5030   24.2990 C   0  0  0  0  0  3  0  0  0  0  0  0
  -20.3220   -5.1000   24.2590 C   0  0  0  0  0  0  0  0  0  0  0  0
  -20.7620   -4.3910   23.1290 C   0  0  0  0  0  3  0  0  0  0  0  0
  -21.3100   -5.0800   22.0360 C   0  0  0  0  0  0  0  0  0  0  0  0
  -21.7140   -4.3910   20.9400 F   0  0  0  0  0  0  0  0  0  0  0  0
  -19.7860   -4.4350   25.3110 F   0  0  0  0  0  0  0  0  0  0  0  0
  -24.8680  -13.1060   21.6880 C   0  0  0  0  0  0  0  0  0  0  0  0
  -23.9720  -12.5220   22.4720 N   0  0  0  0  0  0  0  0  0  0  0  0
  -24.7490  -14.2700   21.3130 O   0  0  0  0  0  0  0  0  0  0  0  0
  -24.0960  -11.5720   22.7920 H   0  0  0  0  0  0  0  0  0  0  0  0
  -23.1480  -13.0280   22.7570 H   0  0  0  0  0  0  0  0  0  0  0  0
  -27.7560  -14.1440   21.0500 N   0  0  0  0  0  0  0  0  0  0  0  0
  -27.1160  -14.9030   21.2700 H   0  0  0  0  0  0  0  0  0  0  0  0
  -28.5250  -14.4140   20.4520 H   0  0  0  0  0  0  0  0  0  0  0  0
  -29.8850  -23.7540   18.3450 C   0  0  0  0  0  2  0  0  0  0  0  0
  -29.4010  -25.2600   17.6750 O   0  0  0  0  0  0  0  0  0  0  0  0
  -26.7760  -29.4410   23.4670 C   0  0  0  0  0  0  0  0  0  0  0  0
  -28.5820  -26.3920   18.2790 C   0  0  0  0  0  0  0  0  0  0  0  0
  -25.3260  -28.9790   21.5370 C   0  0  0  0  0  3  0  0  0  0  0  0
  -26.4970  -28.2410   19.3500 C   0  0  0  0  0  0  0  0  0  0  0  0
  -27.8690  -29.2150   21.1730 C   0  0  0  0  0  2  0  0  0  0  0  0
  -27.7710  -28.2570   19.9360 C   0  0  0  0  0  0  0  0  0  0  0  0
  -28.8120  -27.3710   19.3830 C   0  0  0  0  0  3  0  0  0  0  0  0
  -27.3210  -26.6020   17.6900 C   0  0  0  0  0  3  0  0  0  0  0  0
  -26.3090  -27.4570   18.1980 C   0  0  0  0  0  3  0  0  0  0  0  0
  -25.3610  -29.0390   19.9840 C   0  0  0  0  0  2  0  0  0  0  0  0
  -26.6870  -29.2150   22.1150 N   0  0  0  0  0  0  0  0  0  0  0  0
  -25.7700  -29.4400   24.1980 O   0  0  0  0  0  0  0  0  0  0  0  0
  -24.6960  -27.6360   22.0000 C   0  0  0  0  0  0  0  0  0  0  0  0
  -23.4250  -27.3820   21.6340 N   0  0  0  0  0  0  0  0  0  0  0  0
  -25.3630  -26.8330   22.6570 O   0  0  0  0  0  0  0  0  0  0  0  0
  -22.9310  -28.0890   21.1070 H   0  0  0  0  0  0  0  0  0  0  0  0
  -20.3000  -25.6260   21.0580 C   0  0  0  0  0  0  0  0  0  0  0  0
  -22.6830  -26.1460   21.9200 C   0  0  0  0  0  3  0  0  0  0  0  0
  -23.1540  -24.9940   21.0030 C   0  0  0  0  0  2  0  0  0  0  0  0
  -22.3120  -24.8560   19.7300 C   0  0  0  0  0  2  0  0  0  0  0  0
  -20.8440  -24.5980   20.0810 C   0  0  0  0  0  2  0  0  0  0  0  0
  -21.1640  -26.3640   21.9100 C   0  0  0  0  0  0  0  0  0  0  0  0
  -20.6090  -27.3270   22.7790 C   0  0  0  0  0  3  0  0  0  0  0  0
  -19.2200  -27.5590   22.8040 C   0  0  0  0  0  3  0  0  0  0  0  0
  -18.3690  -26.8170   21.9660 C   0  0  0  0  0  3  0  0  0  0  0  0
  -18.9090  -25.8500   21.1000 C   0  0  0  0  0  3  0  0  0  0  0  0
  -28.1420  -29.7210   24.1590 C   0  0  0  0  0  3  0  0  0  0  0  0
  -28.7350  -28.4540   24.8940 C   0  0  1  0  0  0  0  0  0  0  0  0
  -27.7400  -27.7730   25.8630 C   0  0  0  0  0  1  0  0  0  0  0  0
  -29.1980  -27.3860   23.8770 C   0  0  0  0  0  1  0  0  0  0  0  0
  -29.9890  -28.8590   25.7050 C   0  0  0  0  0  1  0  0  0  0  0  0
  -27.9470  -30.8180   25.1250 N   0  0  0  0  0  0  0  0  0  0  0  0
  -28.4230  -32.0620   24.9820 C   0  0  0  0  0  0  0  0  0  0  0  0
  -29.1360  -32.3970   24.0330 O   0  0  0  0  0  0  0  0  0  0  0  0
  -27.3270  -30.6310   25.8990 H   0  0  0  0  0  0  0  0  0  0  0  0
  -26.9910  -34.0650   25.5180 C   0  0  0  0  0  1  0  0  0  0  0  0
  -28.0560  -33.1010   26.0650 C   0  0  0  0  0  3  0  0  0  0  0  0
  -30.1460  -33.0840   27.3570 C   0  0  0  0  0  1  0  0  0  0  0  0
  -29.2170  -33.8770   26.5560 N   0  0  0  0  0  0  0  0  0  0  0  0
  -28.9110  -34.6670   27.1170 H   0  0  0  0  0  0  0  0  0  0  0  0
  1 15  1  0
  1  8  1  0
  2  3  1  0
  2  4  1  0
  3  6  1  0
  4  7  1  0
  5  7  1  0
  6 56  1  0
  6  5  1  0
  7  1  1  0
  8 10  1  0
  8  9  1  0
 12 15  1  0
 13 24  1  0
 14 12  2  0
 15 11  1  0
 16 14  1  0
 16 13  1  0
 17 16  1  0
 17 26  1  0
 18 24  1  0
 18 25  2  0
 20 19  2  0
 21 20  1  0
 22 23  1  0
 22 21  1  0
 22 31  1  0
 24 19  1  0
 26 18  1  0
 27 26  1  0
 28 53  1  0
 28 29  1  0
 29 48  1  0
 30 29  2  0
 31 32  1  0
 31 28  1  0
 32 30  1  0
 33 30  1  0
 33 34  1  0
 34 35  2  0
 36 35  1  0
 37 36  2  0
 38 37  1  0
 38 33  2  0
 39 36  1  0
 39 40  1  0
 40 41  1  0
 41 42  2  0
 43 42  1  0
 43 47  1  0
 44 43  2  0
 45 40  2  0
 45 44  1  0
 46 45  1  0
 48 49  1  0
 49 52  1  0
 49 51  1  0
 50 48  2  0
 53 54  1  0
 55 53  1  0
 57 59  1  0
 57 56  1  0
 58 69  2  0
 59 64  1  0
 60 70  1  0
 60 68  1  0
 61 63  1  0
 61 67  1  0
 62 68  1  0
 63 62  1  0
 64 63  2  0
 65 66  1  0
 65 59  2  0
 66 61  2  0
 67 60  1  0
 68 58  1  0
 70 72  2  0
 71 70  1  0
 73 71  1  0
 74 83  2  0
 74 79  1  0
 75 71  1  0
 76 75  1  0
 77 78  1  0
 77 76  1  0
 78 74  1  0
 79 75  1  0
 79 80  2  0
 80 81  1  0
 82 81  2  0
 83 82  1  0
 84 58  1  0
 84 85  1  0
 84 89  1  0
 85 88  1  1
 85 86  1  0
 87 85  1  0
 89 92  1  0
 90 89  1  0
 90 94  1  0
 91 90  2  0
 94 93  1  0
 94 96  1  0
 96 97  1  0
 96 95  1  0
M  ISO  4  18 100  26 100  56 101  57 101
M  END
>  <TORSDO>  (32) 
F 19

>  <SCORE>  (32) 
-9.647

>  <name>  (32) 
31

>  <ligand_id>  (32) 
31

>  <original_smiles>  (32) 
[H]c1c([H])c([H])c2c(c1[H])C([H])([H])C([H])([H])C([H])([H])C2([H])N([H])C(=O)C1([H])N(C(=O)C([H])(N([H])C(=O)C([H])(N([H])C([H])([H])[H])C([H])([H])[H])C(C([H])([H])[H])(C([H])([H])[H])C([H])([H])[H])C([H])([H])c2c([H])c(OC([H])([H])C3([H])C([H])([H])N(C(c4c([H])c([H])c(C([H])([H])N([H])C(=O)N5C([H])([H])C([H])([H])C([H])([H])C([H])(n6nc(-c7c([H])c([H])c(Oc8c([H])c([H])c(F)c([H])c8F)c([H])c7[H])c(C(=O)N([H])[H])c6N([H])[H])C5([H])[H])c([H])c4[H])=[N+]([H])[H])C([H])([H])C([H])([H])C3([H])[H])c([H])c([H])c2C1([H])[H]

>  <smiles>  (32) 
[H]c1c([H])c([H])c2c(c1[H])C([H])([H])C([H])([H])C([H])([H])C2([H])N([H])C(=O)C1([H])N(C(=O)C([H])(N([H])C(=O)C([H])(N([H])C([H])([H])[H])C([H])([H])[H])C(C([H])([H])[H])(C([H])([H])[H])C([H])([H])[H])C([H])([H])c2c([H])c(OC([H])([H])C3([H])C([H])([H])N(C(c4c([H])c([H])c(C([H])([H])N([H])C(=O)N5C([H])([H])C([H])([H])C([H])([H])C([H])(n6nc(-c7c([H])c([H])c(Oc8c([H])c([H])c(F)c([H])c8F)c([H])c7[H])c(C(=O)N([H])[H])c6N([H])[H])C5([H])[H])c([H])c4[H])=[N+]([H])[H])C([H])([H])C([H])([H])C3([H])[H])c([H])c([H])c2C1([H])[H]

$$$$
32:0:0
     RDKit          3D

 94103  0  0  1  0  0  0  0  0999 V2000
  -29.6290  -22.7430   22.6610 C   0  0  0  0  0  0  0  0  0  0  0  0
  -29.4560  -21.2890   22.1430 C   0  0  0  0  0  2  0  0  0  0  0  0
  -28.5710  -22.2970   20.0170 C   0  0  0  0  0  2  0  0  0  0  0  0
  -29.0150  -23.7790   20.4520 C   0  0  0  0  0  3  0  0  0  0  0  0
  -29.3790  -23.8040   21.8700 N   0  0  0  0  0  0  0  0  0  0  0  0
  -29.2660  -21.1360   20.6960 N   0  0  0  0  0  0  0  0  0  0  0  0
  -30.0100  -22.9170   23.8170 O   0  0  0  0  0  0  0  0  0  0  0  0
  -29.4830  -24.7210   22.2850 H   0  0  0  0  0  0  0  0  0  0  0  0
  -30.0160  -18.5570   18.0430 C   0  0  0  0  0  3  0  0  0  0  0  0
  -29.7140  -19.7630   18.7050 C   0  0  0  0  0  3  0  0  0  0  0  0
  -30.1200  -17.3440   18.7480 C   0  0  0  0  0  3  0  0  0  0  0  0
  -29.6020  -18.5430   20.8010 C   0  0  0  0  0  3  0  0  0  0  0  0
  -29.5060  -19.8250   20.1020 C   0  0  0  0  0  0  0  0  0  0  0  0
  -29.9180  -17.2750   20.1420 C   0  0  0  0  0  0  0  0  0  0  0  0
  -30.6310  -14.7940   20.3490 C   0  0  0  0  0  0  0  0  0  0  0  0
  -30.3970  -12.5310   19.3210 C   0  0  0  0  0  2  0  0  0  0  0  0
  -29.4590  -12.6220   18.0930 C   0  0  0  0  0  2  0  0  0  0  0  0
  -27.9880  -12.4590   18.5210 C   0  0  0  0  0  2  0  0  0  0  0  0
  -27.6240  -13.3410   19.7410 C   0  0  0  0  0  3  0  0  0  0  0  0
  -28.6810  -13.2380   20.8700 C   0  0  0  0  0  2  0  0  0  0  0  0
  -29.9880  -13.5740   20.2910 N   0  0  0  0  0  0  0  0  0  0  0  0
  -31.7850  -14.8920   19.9150 O   0  0  0  0  0  0  0  0  0  0  0  0
  -29.9460  -15.9260   20.7680 N   0  0  0  0  0  0  0  0  0  0  0  0
  -29.2050  -15.7560   21.4300 H   0  0  0  0  0  0  0  0  0  0  0  0
  -25.2340  -13.9360   20.4600 C   0  0  0  0  0  0  0  0  0  0  0  0
  -24.1690  -13.1650   20.8360 C   0  0  0  0  0  0  0  0  0  0  0  0
  -24.6310  -11.8120   20.8130 C   0  0  0  0  0  0  0  0  0  0  0  0
  -26.2790  -13.0560   20.2310 N   0  0  0  0  0  0  0  0  0  0  0  0
  -25.9220  -11.7750   20.5050 N   0  0  0  0  0  0  0  0  0  0  0  0
  -23.9030  -10.5510   21.0090 C   0  0  0  0  0  0  0  0  0  0  0  0
  -24.3370   -9.5840   21.9430 C   0  0  0  0  0  3  0  0  0  0  0  0
  -23.6100   -8.3900   22.1280 C   0  0  0  0  0  3  0  0  0  0  0  0
  -22.4320   -8.1540   21.3790 C   0  0  0  0  0  0  0  0  0  0  0  0
  -22.0140   -9.1090   20.4340 C   0  0  0  0  0  3  0  0  0  0  0  0
  -22.7450  -10.2960   20.2480 C   0  0  0  0  0  3  0  0  0  0  0  0
  -21.6760   -7.0120   21.4740 O   0  0  0  0  0  0  0  0  0  0  0  0
  -21.6300   -6.2690   22.6270 C   0  0  0  0  0  0  0  0  0  0  0  0
  -21.2190   -6.8280   23.8570 C   0  0  0  0  0  3  0  0  0  0  0  0
  -21.1240   -6.0130   25.0030 C   0  0  0  0  0  3  0  0  0  0  0  0
  -21.4290   -4.6420   24.9200 C   0  0  0  0  0  0  0  0  0  0  0  0
  -21.8330   -4.0830   23.6950 C   0  0  0  0  0  3  0  0  0  0  0  0
  -21.9300   -4.8950   22.5510 C   0  0  0  0  0  0  0  0  0  0  0  0
  -22.3000   -4.3480   21.3680 F   0  0  0  0  0  0  0  0  0  0  0  0
  -21.3300   -3.8560   26.0170 F   0  0  0  0  0  0  0  0  0  0  0  0
  -22.7720  -13.6460   21.1040 C   0  0  0  0  0  0  0  0  0  0  0  0
  -22.0430  -12.9590   21.9750 N   0  0  0  0  0  0  0  0  0  0  0  0
  -22.3340  -14.6680   20.5760 O   0  0  0  0  0  0  0  0  0  0  0  0
  -22.4070  -12.1330   22.4270 H   0  0  0  0  0  0  0  0  0  0  0  0
  -21.1040  -13.2640   22.1960 H   0  0  0  0  0  0  0  0  0  0  0  0
  -25.3970  -15.3070   20.2720 N   0  0  0  0  0  0  0  0  0  0  0  0
  -24.6280  -15.9600   20.3790 H   0  0  0  0  0  0  0  0  0  0  0  0
  -26.2480  -15.7410   19.9350 H   0  0  0  0  0  0  0  0  0  0  0  0
  -28.0030  -24.9740   20.0670 C   0  0  0  0  0  2  0  0  0  0  0  0
  -28.2790  -26.4340   20.2660 O   0  0  0  0  0  0  0  0  0  0  0  0
  -24.6210  -31.9350   23.2340 C   0  0  0  0  0  0  0  0  0  0  0  0
  -27.1870  -27.3310   20.1870 C   0  0  0  0  0  0  0  0  0  0  0  0
  -23.4050  -30.5370   21.6060 C   0  0  0  0  0  3  0  0  0  0  0  0
  -24.8380  -28.9840   20.1690 C   0  0  0  0  0  0  0  0  0  0  0  0
  -25.9450  -30.8420   21.4090 C   0  0  0  0  0  2  0  0  0  0  0  0
  -26.0150  -29.4600   20.7630 C   0  0  0  0  0  0  0  0  0  0  0  0
  -27.1900  -28.6440   20.7630 C   0  0  0  0  0  3  0  0  0  0  0  0
  -25.9890  -26.9320   19.5450 C   0  0  0  0  0  3  0  0  0  0  0  0
  -24.8310  -27.7310   19.5440 C   0  0  0  0  0  3  0  0  0  0  0  0
  -23.6080  -29.8650   20.2250 C   0  0  0  0  0  2  0  0  0  0  0  0
  -24.6780  -31.1210   22.1400 N   0  0  0  0  0  0  0  0  0  0  0  0
  -23.5400  -32.2210   23.7700 O   0  0  0  0  0  0  0  0  0  0  0  0
  -22.7440  -29.5230   22.5720 C   0  0  0  0  0  0  0  0  0  0  0  0
  -21.4170  -29.3490   22.4520 N   0  0  0  0  0  0  0  0  0  0  0  0
  -23.4240  -28.9010   23.3940 O   0  0  0  0  0  0  0  0  0  0  0  0
  -20.9300  -29.9060   21.7630 H   0  0  0  0  0  0  0  0  0  0  0  0
  -18.0370  -28.1620   22.9690 C   0  0  0  0  0  0  0  0  0  0  0  0
  -20.5950  -28.4190   23.2300 C   0  0  0  0  0  3  0  0  0  0  0  0
  -20.6930  -26.9850   22.6610 C   0  0  0  0  0  2  0  0  0  0  0  0
  -19.5860  -26.6580   21.6530 C   0  0  0  0  0  2  0  0  0  0  0  0
  -18.2080  -26.8080   22.3010 C   0  0  0  0  0  2  0  0  0  0  0  0
  -19.1580  -28.9250   23.3900 C   0  0  0  0  0  0  0  0  0  0  0  0
  -18.9410  -30.1900   23.9760 C   0  0  0  0  0  3  0  0  0  0  0  0
  -17.6360  -30.6930   24.1470 C   0  0  0  0  0  3  0  0  0  0  0  0
  -16.5300  -29.9250   23.7390 C   0  0  0  0  0  3  0  0  0  0  0  0
  -16.7330  -28.6610   23.1560 C   0  0  0  0  0  3  0  0  0  0  0  0
  -25.9070  -32.5690   23.8500 C   0  0  0  0  0  3  0  0  0  0  0  0
  -25.5990  -33.9660   24.1880 N   0  0  0  0  0  0  0  0  0  0  0  0
  -25.9160  -35.0210   23.4250 C   0  0  0  0  0  0  0  0  0  0  0  0
  -26.5700  -34.9210   22.3810 O   0  0  0  0  0  0  0  0  0  0  0  0
  -25.0210  -34.1160   25.0000 H   0  0  0  0  0  0  0  0  0  0  0  0
  -24.1780  -36.8110   23.1020 C   0  0  0  0  0  1  0  0  0  0  0  0
  -25.4340  -36.4070   23.8920 C   0  0  0  0  0  3  0  0  0  0  0  0
  -27.5820  -37.2940   24.6900 C   0  0  0  0  0  1  0  0  0  0  0  0
  -26.4630  -37.4630   23.7650 N   0  0  0  0  0  0  0  0  0  0  0  0
  -26.0570  -38.3820   23.9190 H   0  0  0  0  0  0  0  0  0  0  0  0
  -26.4330  -31.7940   25.1200 C   0  0  1  0  0  0  0  0  0  0  0  0
  -25.3470  -31.5520   26.1960 C   0  0  0  0  0  1  0  0  0  0  0  0
  -27.0140  -30.4180   24.7200 C   0  0  0  0  0  1  0  0  0  0  0  0
  -27.5910  -32.5850   25.7740 C   0  0  0  0  0  1  0  0  0  0  0  0
  1  7  2  0
  2  1  1  0
  3  4  1  0
  3  6  1  0
  4 53  1  0
  4  5  1  0
  5  8  1  0
  5  1  1  0
  6  2  1  0
  9 10  2  0
  9 11  1  0
 10 13  1  0
 11 14  2  0
 13  6  1  0
 13 12  2  0
 14 23  1  0
 14 12  1  0
 15 23  1  0
 16 21  1  0
 17 18  1  0
 17 16  1  0
 19 18  1  0
 19 28  1  0
 19 20  1  0
 21 15  1  0
 21 20  1  0
 22 15  2  0
 23 24  1  0
 25 26  2  0
 26 45  1  0
 27 26  1  0
 27 30  1  0
 28 25  1  0
 28 29  1  0
 29 27  2  0
 30 31  1  0
 31 32  2  0
 33 36  1  0
 33 32  1  0
 34 33  2  0
 35 34  1  0
 35 30  2  0
 36 37  1  0
 37 38  1  0
 38 39  2  0
 40 39  1  0
 40 44  1  0
 41 40  2  0
 42 37  2  0
 42 41  1  0
 43 42  1  0
 45 46  1  0
 46 49  1  0
 46 48  1  0
 47 45  2  0
 50 51  1  0
 50 25  1  0
 52 50  1  0
 53 54  1  0
 55 66  2  0
 56 54  1  0
 56 61  1  0
 57 65  1  0
 57 67  1  0
 58 64  1  0
 58 60  1  0
 59 65  1  0
 60 61  2  0
 60 59  1  0
 62 56  2  0
 63 62  1  0
 63 58  2  0
 64 57  1  0
 65 55  1  0
 67 69  2  0
 68 67  1  0
 70 68  1  0
 71 80  2  0
 71 76  1  0
 72 68  1  0
 72 76  1  0
 73 72  1  0
 74 75  1  0
 74 73  1  0
 75 71  1  0
 76 77  2  0
 77 78  1  0
 79 78  2  0
 80 79  1  0
 81 55  1  0
 81 82  1  0
 81 91  1  0
 82 85  1  0
 83 87  1  0
 83 82  1  0
 84 83  2  0
 87 86  1  0
 89 87  1  0
 89 90  1  0
 89 88  1  0
 91 94  1  1
 91 92  1  0
 93 91  1  0
M  ISO  4  15 100  23 100  53 101  54 101
M  END
>  <TORSDO>  (33) 
F 18

>  <SCORE>  (33) 
-14.978

>  <name>  (33) 
32

>  <ligand_id>  (33) 
32

>  <original_smiles>  (33) 
[H]c1c([H])c(N([H])C(=O)N2C([H])([H])C([H])([H])C([H])([H])C([H])(n3nc(-c4c([H])c([H])c(Oc5c([H])c([H])c(F)c([H])c5F)c([H])c4[H])c(C(=O)N([H])[H])c3N([H])[H])C2([H])[H])c([H])c(N2C([H])([H])C(=O)N([H])C([H])(C([H])([H])Oc3c([H])c([H])c4c(c3[H])C([H])([H])N(C(=O)C([H])(N([H])C(=O)C([H])(N([H])C([H])([H])[H])C([H])([H])[H])C(C([H])([H])[H])(C([H])([H])[H])C([H])([H])[H])C([H])(C(=O)N([H])C3([H])c5c([H])c([H])c([H])c([H])c5C([H])([H])C([H])([H])C3([H])[H])C4([H])[H])C2([H])[H])c1[H]

>  <smiles>  (33) 
[H]c1c([H])c(N([H])C(=O)N2C([H])([H])C([H])([H])C([H])([H])C([H])(n3nc(-c4c([H])c([H])c(Oc5c([H])c([H])c(F)c([H])c5F)c([H])c4[H])c(C(=O)N([H])[H])c3N([H])[H])C2([H])[H])c([H])c(N2C([H])([H])C(=O)N([H])C([H])(C([H])([H])Oc3c([H])c([H])c4c(c3[H])C([H])([H])N(C(=O)C([H])(N([H])C(=O)C([H])(N([H])C([H])([H])[H])C([H])([H])[H])C(C([H])([H])[H])(C([H])([H])[H])C([H])([H])[H])C([H])(C(=O)N([H])C3([H])c5c([H])c([H])c([H])c([H])c5C([H])([H])C([H])([H])C3([H])[H])C4([H])[H])C2([H])[H])c1[H]

$$$$
33:0:0
     RDKit          3D

 97106  0  0  1  0  0  0  0  0999 V2000
  -27.1570  -19.8450   19.4950 C   0  0  0  0  0  3  0  0  0  0  0  0
  -27.2340  -18.5760   18.9090 C   0  0  0  0  0  3  0  0  0  0  0  0
  -29.1420  -19.3860   20.7700 C   0  0  0  0  0  3  0  0  0  0  0  0
  -29.2230  -18.0690   20.2360 C   0  0  0  0  0  0  0  0  0  0  0  0
  -28.1180  -20.3080   20.4200 C   0  0  0  0  0  0  0  0  0  0  0  0
  -28.2680  -17.6900   19.2450 C   0  0  0  0  0  0  0  0  0  0  0  0
  -30.8850  -14.7800   20.7190 C   0  0  0  0  0  0  0  0  0  0  0  0
  -30.6880  -12.5670   19.6770 C   0  0  0  0  0  2  0  0  0  0  0  0
  -29.7990  -12.7020   18.4240 C   0  0  0  0  0  2  0  0  0  0  0  0
  -28.3120  -12.5390   18.7910 C   0  0  0  0  0  2  0  0  0  0  0  0
  -27.8890  -13.4150   20.0020 C   0  0  0  0  0  3  0  0  0  0  0  0
  -28.8980  -13.2960   21.1660 C   0  0  0  0  0  2  0  0  0  0  0  0
  -30.2400  -13.5850   20.6350 N   0  0  0  0  0  0  0  0  0  0  0  0
  -32.0930  -14.8930   20.4930 O   0  0  0  0  0  0  0  0  0  0  0  0
  -30.3510  -17.1570   20.6880 C   0  0  0  0  0  0  0  0  0  0  0  0
  -30.0530  -15.8410   20.7540 N   0  0  0  0  0  0  0  0  0  0  0  0
  -31.4420  -17.6450   21.0060 O   0  0  0  0  0  0  0  0  0  0  0  0
  -29.0800  -15.6260   20.6200 H   0  0  0  0  0  0  0  0  0  0  0  0
  -25.4650  -14.0120   20.6170 C   0  0  0  0  0  0  0  0  0  0  0  0
  -24.3880  -13.2290   20.9430 C   0  0  0  0  0  0  0  0  0  0  0  0
  -24.8610  -11.8810   20.9240 C   0  0  0  0  0  0  0  0  0  0  0  0
  -26.5230  -13.1350   20.4270 N   0  0  0  0  0  0  0  0  0  0  0  0
  -26.1630  -11.8520   20.6730 N   0  0  0  0  0  0  0  0  0  0  0  0
  -24.1390  -10.6130   21.0730 C   0  0  0  0  0  0  0  0  0  0  0  0
  -24.5410   -9.6410   22.0150 C   0  0  0  0  0  3  0  0  0  0  0  0
  -23.8200   -8.4350   22.1510 C   0  0  0  0  0  3  0  0  0  0  0  0
  -22.6850   -8.1930   21.3420 C   0  0  0  0  0  0  0  0  0  0  0  0
  -22.3030   -9.1550   20.3900 C   0  0  0  0  0  3  0  0  0  0  0  0
  -23.0240  -10.3510   20.2520 C   0  0  0  0  0  3  0  0  0  0  0  0
  -21.9360   -7.0410   21.3900 O   0  0  0  0  0  0  0  0  0  0  0  0
  -21.8400   -6.2920   22.5360 C   0  0  0  0  0  0  0  0  0  0  0  0
  -21.3310   -6.8310   23.7370 C   0  0  0  0  0  3  0  0  0  0  0  0
  -21.1820   -6.0080   24.8710 C   0  0  0  0  0  3  0  0  0  0  0  0
  -21.5310   -4.6450   24.8030 C   0  0  0  0  0  0  0  0  0  0  0  0
  -22.0320   -4.1060   23.6060 C   0  0  0  0  0  3  0  0  0  0  0  0
  -22.1820   -4.9260   22.4750 C   0  0  0  0  0  0  0  0  0  0  0  0
  -22.6460   -4.3950   21.3160 F   0  0  0  0  0  0  0  0  0  0  0  0
  -21.3820   -3.8520   25.8900 F   0  0  0  0  0  0  0  0  0  0  0  0
  -22.9760  -13.6930   21.1540 C   0  0  0  0  0  0  0  0  0  0  0  0
  -22.2180  -12.9870   21.9870 N   0  0  0  0  0  0  0  0  0  0  0  0
  -22.5500  -14.7150   20.6170 O   0  0  0  0  0  0  0  0  0  0  0  0
  -22.5720  -12.1620   22.4440 H   0  0  0  0  0  0  0  0  0  0  0  0
  -21.2690  -13.2800   22.1700 H   0  0  0  0  0  0  0  0  0  0  0  0
  -25.6320  -15.3840   20.4430 N   0  0  0  0  0  0  0  0  0  0  0  0
  -24.8580  -16.0330   20.5110 H   0  0  0  0  0  0  0  0  0  0  0  0
  -26.4490  -15.7950   20.0030 H   0  0  0  0  0  0  0  0  0  0  0  0
  -27.9610  -23.6160   20.8520 C   0  0  0  0  0  0  0  0  0  0  0  0
  -26.9860  -22.5730   20.9530 C   0  0  0  0  0  0  0  0  0  0  0  0
  -27.7940  -24.9580   20.8590 C   0  0  0  0  0  3  0  0  0  0  0  0
  -29.0770  -22.6020   20.6940 C   0  0  0  0  0  2  0  0  0  0  0  0
  -28.0100  -21.6200   20.9740 N   0  0  0  0  0  0  0  0  0  0  0  0
  -25.7740  -22.5880   20.8600 O   0  0  0  0  0  0  0  0  0  0  0  0
  -28.8620  -26.0420   20.7490 C   0  0  0  0  0  2  0  0  0  0  0  0
  -28.6130  -27.0050   19.7090 O   0  0  0  0  0  0  0  0  0  0  0  0
  -24.7190  -31.8600   23.2190 C   0  0  0  0  0  0  0  0  0  0  0  0
  -27.4430  -27.7240   19.8130 C   0  0  0  0  0  0  0  0  0  0  0  0
  -23.5370  -30.5630   21.4720 C   0  0  0  0  0  3  0  0  0  0  0  0
  -25.0200  -29.1710   19.9370 C   0  0  0  0  0  0  0  0  0  0  0  0
  -26.0530  -30.9900   21.3040 C   0  0  0  0  0  2  0  0  0  0  0  0
  -26.1670  -29.6710   20.5680 C   0  0  0  0  0  0  0  0  0  0  0  0
  -27.3840  -28.9530   20.5070 C   0  0  0  0  0  3  0  0  0  0  0  0
  -26.2870  -27.2470   19.1630 C   0  0  0  0  0  3  0  0  0  0  0  0
  -25.0730  -27.9540   19.2330 C   0  0  0  0  0  3  0  0  0  0  0  0
  -23.7590  -29.9990   20.0440 C   0  0  0  0  0  2  0  0  0  0  0  0
  -24.7870  -31.1510   22.0570 N   0  0  0  0  0  0  0  0  0  0  0  0
  -23.6330  -32.0660   23.7800 O   0  0  0  0  0  0  0  0  0  0  0  0
  -22.9110  -29.4580   22.3520 C   0  0  0  0  0  0  0  0  0  0  0  0
  -21.5840  -29.2800   22.2390 N   0  0  0  0  0  0  0  0  0  0  0  0
  -23.6140  -28.7700   23.0960 O   0  0  0  0  0  0  0  0  0  0  0  0
  -21.0760  -29.8880   21.6140 H   0  0  0  0  0  0  0  0  0  0  0  0
  -18.2250  -28.0430   22.7140 C   0  0  0  0  0  0  0  0  0  0  0  0
  -20.7890  -28.2720   22.9390 C   0  0  0  0  0  3  0  0  0  0  0  0
  -20.8710  -26.9020   22.2260 C   0  0  0  0  0  2  0  0  0  0  0  0
  -19.7410  -26.6800   21.2150 C   0  0  0  0  0  2  0  0  0  0  0  0
  -18.3790  -26.7620   21.9120 C   0  0  0  0  0  2  0  0  0  0  0  0
  -19.3560  -28.7590   23.1850 C   0  0  0  0  0  0  0  0  0  0  0  0
  -19.1580  -29.9590   23.9010 C   0  0  0  0  0  3  0  0  0  0  0  0
  -17.8600  -30.4440   24.1490 C   0  0  0  0  0  3  0  0  0  0  0  0
  -16.7430  -29.7220   23.6930 C   0  0  0  0  0  3  0  0  0  0  0  0
  -16.9260  -28.5230   22.9820 C   0  0  0  0  0  3  0  0  0  0  0  0
  -25.9930  -32.4670   23.8830 C   0  0  0  0  0  3  0  0  0  0  0  0
  -26.5100  -31.6310   25.1180 C   0  0  1  0  0  0  0  0  0  0  0  0
  -25.4140  -31.3300   26.1660 C   0  0  0  0  0  1  0  0  0  0  0  0
  -27.1020  -30.2800   24.6540 C   0  0  0  0  0  1  0  0  0  0  0  0
  -27.6540  -32.3940   25.8250 C   0  0  0  0  0  1  0  0  0  0  0  0
  -25.6720  -33.8430   24.2820 N   0  0  0  0  0  0  0  0  0  0  0  0
  -25.9930  -34.9340   23.5740 C   0  0  0  0  0  0  0  0  0  0  0  0
  -26.6620  -34.8880   22.5370 O   0  0  0  0  0  0  0  0  0  0  0  0
  -25.0760  -33.9510   25.0900 H   0  0  0  0  0  0  0  0  0  0  0  0
  -24.2360  -36.7160   23.3120 C   0  0  0  0  0  1  0  0  0  0  0  0
  -25.4890  -36.2930   24.0950 C   0  0  0  0  0  3  0  0  0  0  0  0
  -27.6160  -37.1700   24.9540 C   0  0  0  0  0  1  0  0  0  0  0  0
  -26.5070  -37.3640   24.0230 N   0  0  0  0  0  0  0  0  0  0  0  0
  -26.0900  -38.2710   24.2120 H   0  0  0  0  0  0  0  0  0  0  0  0
  -28.2860  -16.4830   18.5420 N   0  0  0  0  0  0  0  0  0  0  0  0
  -27.7060  -16.4360   17.7090 H   0  0  0  0  0  0  0  0  0  0  0  0
  -29.1770  -16.0290   18.3820 H   0  0  0  0  0  0  0  0  0  0  0  0
  1  5  1  0
  2  6  1  0
  2  1  2  0
  4 15  1  0
  4  3  1  0
  5  3  2  0
  5 51  1  0
  6  4  2  0
  7 16  1  0
  8 13  1  0
  9 10  1  0
  9  8  1  0
 11 10  1  0
 11 22  1  0
 11 12  1  0
 13  7  1  0
 13 12  1  0
 14  7  2  0
 15 16  1  0
 15 17  2  0
 18 16  1  0
 19 20  2  0
 20 39  1  0
 21 20  1  0
 21 24  1  0
 22 19  1  0
 22 23  1  0
 23 21  2  0
 24 25  1  0
 25 26  2  0
 27 30  1  0
 27 26  1  0
 28 27  2  0
 29 28  1  0
 29 24  2  0
 30 31  1  0
 31 32  1  0
 32 33  2  0
 34 33  1  0
 34 38  1  0
 35 34  2  0
 36 31  2  0
 36 35  1  0
 37 36  1  0
 39 40  1  0
 40 43  1  0
 40 42  1  0
 41 39  2  0
 44 45  1  0
 44 19  1  0
 46 44  1  0
 47 49  2  0
 47 48  1  0
 48 51  1  0
 50 47  1  0
 50 51  1  0
 52 48  2  0
 53 49  1  0
 54 56  1  0
 54 53  1  0
 55 66  2  0
 56 61  1  0
 57 65  1  0
 57 67  1  0
 58 64  1  0
 58 60  1  0
 59 65  1  0
 60 59  1  0
 61 60  2  0
 62 63  1  0
 62 56  2  0
 63 58  2  0
 64 57  1  0
 65 55  1  0
 67 69  2  0
 68 67  1  0
 70 68  1  0
 71 80  2  0
 71 76  1  0
 72 68  1  0
 72 76  1  0
 73 72  1  0
 74 75  1  0
 74 73  1  0
 75 71  1  0
 76 77  2  0
 77 78  1  0
 79 78  2  0
 80 79  1  0
 81 55  1  0
 81 86  1  0
 81 82  1  0
 82 85  1  1
 82 83  1  0
 84 82  1  0
 86 89  1  0
 87 91  1  0
 87 86  1  0
 88 87  2  0
 91 90  1  0
 93 91  1  0
 93 94  1  0
 93 92  1  0
 95  6  1  0
 96 95  1  0
 97 95  1  0
M  ISO  4   7 100  16 100  53 101  54 101
M  END
>  <TORSDO>  (34) 
F 19

>  <SCORE>  (34) 
-13.812

>  <name>  (34) 
33

>  <ligand_id>  (34) 
33

>  <original_smiles>  (34) 
[H]C(=C1C(=O)N(c2c([H])c([H])c(N([H])[H])c(C(=O)N([H])C(=O)N3C([H])([H])C([H])([H])C([H])([H])C([H])(n4nc(-c5c([H])c([H])c(Oc6c([H])c([H])c(F)c([H])c6F)c([H])c5[H])c(C(=O)N([H])[H])c4N([H])[H])C3([H])[H])c2[H])C1([H])[H])C([H])([H])Oc1c([H])c([H])c2c(c1[H])C([H])([H])N(C(=O)C([H])(N([H])C(=O)C([H])(N([H])C([H])([H])[H])C([H])([H])[H])C(C([H])([H])[H])(C([H])([H])[H])C([H])([H])[H])C([H])(C(=O)N([H])C1([H])c3c([H])c([H])c([H])c([H])c3C([H])([H])C([H])([H])C1([H])[H])C2([H])[H]

>  <smiles>  (34) 
[H]C(=C1C(=O)N(c2c([H])c([H])c(N([H])[H])c(C(=O)N([H])C(=O)N3C([H])([H])C([H])([H])C([H])([H])C([H])(n4nc(-c5c([H])c([H])c(Oc6c([H])c([H])c(F)c([H])c6F)c([H])c5[H])c(C(=O)N([H])[H])c4N([H])[H])C3([H])[H])c2[H])C1([H])[H])C([H])([H])Oc1c([H])c([H])c2c(c1[H])C([H])([H])N(C(=O)C([H])(N([H])C(=O)C([H])(N([H])C([H])([H])[H])C([H])([H])[H])C(C([H])([H])[H])(C([H])([H])[H])C([H])([H])[H])C([H])(C(=O)N([H])C1([H])c3c([H])c([H])c([H])c([H])c3C([H])([H])C([H])([H])C1([H])[H])C2([H])[H]

$$$$
35:0:0
     RDKit          3D

 96105  0  0  1  0  0  0  0  0999 V2000
  -29.7720  -18.0680   21.5910 C   0  0  0  0  0  3  0  0  0  0  0  0
  -29.6350  -19.4720   21.4300 C   0  0  0  0  0  3  0  0  0  0  0  0
  -30.2990  -19.2350   19.1410 C   0  0  0  0  0  3  0  0  0  0  0  0
  -30.2130  -17.1750   20.5610 C   0  0  0  0  0  0  0  0  0  0  0  0
  -29.9320  -20.1060   20.2080 C   0  0  0  0  0  0  0  0  0  0  0  0
  -30.4220  -17.8180   19.2910 C   0  0  0  0  0  0  0  0  0  0  0  0
  -30.4600  -24.3910   19.9090 C   0  0  0  0  0  3  0  0  0  0  0  0
  -29.1840  -23.9790   19.8420 C   0  0  0  0  0  0  0  0  0  0  0  0
  -31.6300  -23.4390   20.0660 C   0  0  0  0  0  2  0  0  0  0  0  0
  -28.8480  -22.4490   19.9580 C   0  0  0  0  0  2  0  0  0  0  0  0
  -31.3030  -22.0080   19.6020 C   0  0  0  0  0  2  0  0  0  0  0  0
  -30.0190  -21.5360   20.1160 N   0  0  0  0  0  0  0  0  0  0  0  0
  -28.0230  -24.9890   19.6090 C   0  0  0  0  0  2  0  0  0  0  0  0
  -28.2970  -26.4370   19.7440 O   0  0  0  0  0  0  0  0  0  0  0  0
  -24.6360  -31.6650   23.0900 C   0  0  0  0  0  0  0  0  0  0  0  0
  -27.1750  -27.2790   19.7560 C   0  0  0  0  0  0  0  0  0  0  0  0
  -23.3860  -30.3130   21.4500 C   0  0  0  0  0  3  0  0  0  0  0  0
  -24.7970  -28.8530   19.9030 C   0  0  0  0  0  0  0  0  0  0  0  0
  -25.9120  -30.6800   21.1790 C   0  0  0  0  0  2  0  0  0  0  0  0
  -25.9830  -29.3350   20.4710 C   0  0  0  0  0  0  0  0  0  0  0  0
  -27.1780  -28.5600   20.3870 C   0  0  0  0  0  3  0  0  0  0  0  0
  -25.9590  -26.8550   19.1650 C   0  0  0  0  0  3  0  0  0  0  0  0
  -24.7860  -27.6220   19.2390 C   0  0  0  0  0  3  0  0  0  0  0  0
  -23.5530  -29.7030   20.0360 C   0  0  0  0  0  2  0  0  0  0  0  0
  -24.6660  -30.9020   21.9620 N   0  0  0  0  0  0  0  0  0  0  0  0
  -23.5710  -31.9020   23.6810 O   0  0  0  0  0  0  0  0  0  0  0  0
  -22.7830  -29.2430   22.3920 C   0  0  0  0  0  0  0  0  0  0  0  0
  -21.4680  -29.0000   22.2700 N   0  0  0  0  0  0  0  0  0  0  0  0
  -23.4980  -28.6350   23.1940 O   0  0  0  0  0  0  0  0  0  0  0  0
  -20.9470  -29.5460   21.5970 H   0  0  0  0  0  0  0  0  0  0  0  0
  -18.1650  -27.5930   22.7290 C   0  0  0  0  0  0  0  0  0  0  0  0
  -20.6990  -28.0120   23.0300 C   0  0  0  0  0  3  0  0  0  0  0  0
  -20.8980  -26.5900   22.4580 C   0  0  0  0  0  2  0  0  0  0  0  0
  -19.8320  -26.1980   21.4300 C   0  0  0  0  0  2  0  0  0  0  0  0
  -18.4340  -26.2570   22.0560 C   0  0  0  0  0  2  0  0  0  0  0  0
  -19.2290  -28.4240   23.1710 C   0  0  0  0  0  0  0  0  0  0  0  0
  -18.9240  -29.6700   23.7580 C   0  0  0  0  0  3  0  0  0  0  0  0
  -17.5880  -30.0880   23.9100 C   0  0  0  0  0  3  0  0  0  0  0  0
  -16.5390  -29.2550   23.4840 C   0  0  0  0  0  3  0  0  0  0  0  0
  -16.8280  -28.0110   22.8970 C   0  0  0  0  0  3  0  0  0  0  0  0
  -25.9340  -32.2970   23.6780 C   0  0  0  0  0  3  0  0  0  0  0  0
  -26.5170  -31.4860   24.9010 C   0  0  1  0  0  0  0  0  0  0  0  0
  -25.4710  -31.1660   25.9940 C   0  0  0  0  0  1  0  0  0  0  0  0
  -27.1300  -30.1470   24.4300 C   0  0  0  0  0  1  0  0  0  0  0  0
  -27.6660  -32.2870   25.5570 C   0  0  0  0  0  1  0  0  0  0  0  0
  -25.6130  -33.6760   24.0800 N   0  0  0  0  0  0  0  0  0  0  0  0
  -25.8940  -34.7650   23.3520 C   0  0  0  0  0  0  0  0  0  0  0  0
  -26.5240  -34.7160   22.2910 O   0  0  0  0  0  0  0  0  0  0  0  0
  -25.0520  -33.7820   24.9130 H   0  0  0  0  0  0  0  0  0  0  0  0
  -24.1260  -36.5400   23.1330 C   0  0  0  0  0  1  0  0  0  0  0  0
  -25.4010  -36.1250   23.8850 C   0  0  0  0  0  3  0  0  0  0  0  0
  -27.5460  -37.0130   24.6860 C   0  0  0  0  0  1  0  0  0  0  0  0
  -26.4110  -37.2010   23.7850 N   0  0  0  0  0  0  0  0  0  0  0  0
  -25.9950  -38.1060   23.9850 H   0  0  0  0  0  0  0  0  0  0  0  0
  -30.4080  -15.6760   20.9460 C   0  0  0  0  0  0  0  0  0  0  0  0
  -30.2150  -15.3190   22.1530 N   0  0  0  0  0  0  0  0  0  0  0  0
  -29.9120  -16.0910   22.7320 H   0  0  0  0  0  0  0  0  0  0  0  0
  -30.9410  -14.6000   19.9300 C   0  0  0  0  0  0  0  0  0  0  0  0
  -30.5860  -12.4560   18.7090 C   0  0  0  0  0  2  0  0  0  0  0  0
  -29.5590  -12.6500   17.5680 C   0  0  0  0  0  2  0  0  0  0  0  0
  -28.1150  -12.4900   18.0880 C   0  0  0  0  0  2  0  0  0  0  0  0
  -27.8660  -13.2990   19.3860 C   0  0  0  0  0  3  0  0  0  0  0  0
  -28.9820  -13.0150   20.4090 C   0  0  0  0  0  2  0  0  0  0  0  0
  -30.2650  -13.4070   19.7960 N   0  0  0  0  0  0  0  0  0  0  0  0
  -31.9830  -14.8110   19.2940 O   0  0  0  0  0  0  0  0  0  0  0  0
  -25.5360  -13.9320   20.2640 C   0  0  0  0  0  0  0  0  0  0  0  0
  -24.4820  -13.1740   20.6940 C   0  0  0  0  0  0  0  0  0  0  0  0
  -24.9130  -11.8140   20.6040 C   0  0  0  0  0  0  0  0  0  0  0  0
  -26.5440  -13.0370   19.9440 N   0  0  0  0  0  0  0  0  0  0  0  0
  -26.1770  -11.7590   20.2070 N   0  0  0  0  0  0  0  0  0  0  0  0
  -24.1790  -10.5620   20.8180 C   0  0  0  0  0  0  0  0  0  0  0  0
  -24.5920   -9.6180   21.7850 C   0  0  0  0  0  3  0  0  0  0  0  0
  -23.8570   -8.4300   21.9850 C   0  0  0  0  0  3  0  0  0  0  0  0
  -22.6940   -8.1790   21.2170 C   0  0  0  0  0  0  0  0  0  0  0  0
  -22.2970   -9.1110   20.2430 C   0  0  0  0  0  3  0  0  0  0  0  0
  -23.0330  -10.2900   20.0430 C   0  0  0  0  0  3  0  0  0  0  0  0
  -21.9360   -7.0360   21.3220 O   0  0  0  0  0  0  0  0  0  0  0  0
  -21.7780   -6.3880   22.5210 C   0  0  0  0  0  0  0  0  0  0  0  0
  -21.2170   -7.0280   23.6470 C   0  0  0  0  0  3  0  0  0  0  0  0
  -21.0130   -6.3040   24.8380 C   0  0  0  0  0  3  0  0  0  0  0  0
  -21.3550   -4.9400   24.9010 C   0  0  0  0  0  0  0  0  0  0  0  0
  -21.9070   -4.2990   23.7790 C   0  0  0  0  0  3  0  0  0  0  0  0
  -22.1170   -5.0210   22.5910 C   0  0  0  0  0  0  0  0  0  0  0  0
  -22.6330   -4.3950   21.5040 F   0  0  0  0  0  0  0  0  0  0  0  0
  -21.1500   -4.2400   26.0410 F   0  0  0  0  0  0  0  0  0  0  0  0
  -23.1190  -13.6720   21.0720 C   0  0  0  0  0  0  0  0  0  0  0  0
  -22.4460  -12.9780   21.9820 N   0  0  0  0  0  0  0  0  0  0  0  0
  -22.6640  -14.7120   20.5950 O   0  0  0  0  0  0  0  0  0  0  0  0
  -22.8320  -12.1370   22.3820 H   0  0  0  0  0  0  0  0  0  0  0  0
  -21.5360  -13.2990   22.2820 H   0  0  0  0  0  0  0  0  0  0  0  0
  -25.7140  -15.3020   20.0980 N   0  0  0  0  0  0  0  0  0  0  0  0
  -24.9530  -15.9570   20.2510 H   0  0  0  0  0  0  0  0  0  0  0  0
  -26.5350  -15.7290   19.6860 H   0  0  0  0  0  0  0  0  0  0  0  0
  -30.7770  -17.1110   18.1390 N   0  0  0  0  0  0  0  0  0  0  0  0
  -31.3440  -16.2730   18.2790 H   0  0  0  0  0  0  0  0  0  0  0  0
  -31.0840  -17.6370   17.3280 H   0  0  0  0  0  0  0  0  0  0  0  0
  2  1  1  0
  3  6  2  0
  3  5  1  0
  4 55  1  0
  4  1  2  0
  5  2  2  0
  6  4  1  0
  7  9  1  0
  8  7  2  0
  8 10  1  0
 10 12  1  0
 11  9  1  0
 11 12  1  0
 12  5  1  0
 13 14  1  0
 13  8  1  0
 14 16  1  0
 15 26  2  0
 16 21  1  0
 17 25  1  0
 17 27  1  0
 18 24  1  0
 18 20  1  0
 19 25  1  0
 20 19  1  0
 21 20  2  0
 22 23  1  0
 22 16  2  0
 23 18  2  0
 24 17  1  0
 25 15  1  0
 27 29  2  0
 28 27  1  0
 30 28  1  0
 31 40  2  0
 31 36  1  0
 32 28  1  0
 32 36  1  0
 33 32  1  0
 34 35  1  0
 34 33  1  0
 35 31  1  0
 36 37  2  0
 37 38  1  0
 39 38  2  0
 40 39  1  0
 41 15  1  0
 41 46  1  0
 41 42  1  0
 42 45  1  1
 42 43  1  0
 44 42  1  0
 46 49  1  0
 47 51  1  0
 47 46  1  0
 48 47  2  0
 51 50  1  0
 53 51  1  0
 53 54  1  0
 53 52  1  0
 55 56  2  0
 56 57  1  0
 58 55  1  0
 59 64  1  0
 60 61  1  0
 60 59  1  0
 62 61  1  0
 62 69  1  0
 62 63  1  0
 64 58  1  0
 64 63  1  0
 65 58  2  0
 66 67  2  0
 67 86  1  0
 68 67  1  0
 68 71  1  0
 69 70  1  0
 69 66  1  0
 70 68  2  0
 71 72  1  0
 72 73  2  0
 74 77  1  0
 74 73  1  0
 75 74  2  0
 76 75  1  0
 76 71  2  0
 77 78  1  0
 78 83  2  0
 78 79  1  0
 79 80  2  0
 80 81  1  0
 81 85  1  0
 82 81  2  0
 83 82  1  0
 84 83  1  0
 86 87  1  0
 87 90  1  0
 87 89  1  0
 88 86  2  0
 91 92  1  0
 91 66  1  0
 93 91  1  0
 94 95  1  0
 94  6  1  0
 96 94  1  0
M  ISO  4  13 101  14 101  55 100  58 100
M  END
>  <TORSDO>  (35) 
F 20

>  <SCORE>  (35) 
-12.699

>  <name>  (35) 
35

>  <ligand_id>  (35) 
35

>  <original_smiles>  (35) 
[H]N=C(C(=O)N1C([H])([H])C([H])([H])C([H])([H])C([H])(n2nc(-c3c([H])c([H])c(Oc4c([H])c([H])c(F)c([H])c4F)c([H])c3[H])c(C(=O)N([H])[H])c2N([H])[H])C1([H])[H])c1c([H])c([H])c(N2C([H])([H])C(C([H])([H])Oc3c([H])c([H])c4c(c3[H])C([H])([H])N(C(=O)C([H])(N([H])C(=O)C([H])(N([H])C([H])([H])[H])C([H])([H])[H])C(C([H])([H])[H])(C([H])([H])[H])C([H])([H])[H])C([H])(C(=O)N([H])C3([H])c5c([H])c([H])c([H])c([H])c5C([H])([H])C([H])([H])C3([H])[H])C4([H])[H])=C([H])C([H])([H])C2([H])[H])c([H])c1N([H])[H]

>  <smiles>  (35) 
[H]N=C(C(=O)N1C([H])([H])C([H])([H])C([H])([H])C([H])(n2nc(-c3c([H])c([H])c(Oc4c([H])c([H])c(F)c([H])c4F)c([H])c3[H])c(C(=O)N([H])[H])c2N([H])[H])C1([H])[H])c1c([H])c([H])c(N2C([H])([H])C(C([H])([H])Oc3c([H])c([H])c4c(c3[H])C([H])([H])N(C(=O)C([H])(N([H])C(=O)C([H])(N([H])C([H])([H])[H])C([H])([H])[H])C(C([H])([H])[H])(C([H])([H])[H])C([H])([H])[H])C([H])(C(=O)N([H])C3([H])c5c([H])c([H])c([H])c([H])c5C([H])([H])C([H])([H])C3([H])[H])C4([H])[H])=C([H])C([H])([H])C2([H])[H])c([H])c1N([H])[H]

$$$$
36:0:0
     RDKit          3D

 96104  0  0  1  0  0  0  0  0999 V2000
  -29.9940  -21.6780   20.7110 C   0  0  0  0  0  0  0  0  0  0  0  0
  -30.8840  -22.1130   21.5970 N   0  0  0  0  0  4  0  0  0  0  0  0
  -29.2430  -22.6270   20.0480 N   0  0  0  0  0  0  0  0  0  0  0  0
  -31.4030  -21.4460   22.1490 H   0  0  0  0  0  0  0  0  0  0  0  0
  -31.0010  -23.0930   21.7860 H   0  0  0  0  0  0  0  0  0  0  0  0
  -28.4770  -22.2160   19.5290 H   0  0  0  0  0  0  0  0  0  0  0  0
  -31.1470  -19.4030   20.5340 C   0  0  0  0  0  3  0  0  0  0  0  0
  -31.1640  -17.9730   20.5020 C   0  0  0  0  0  3  0  0  0  0  0  0
  -28.7440  -19.4150   20.4640 C   0  0  0  0  0  3  0  0  0  0  0  0
  -29.9420  -20.1690   20.5370 C   0  0  0  0  0  0  0  0  0  0  0  0
  -29.9600  -17.2210   20.4750 C   0  0  0  0  0  0  0  0  0  0  0  0
  -28.7580  -17.9850   20.4430 C   0  0  0  0  0  0  0  0  0  0  0  0
  -27.5790  -17.3190   20.4040 F   0  0  0  0  0  0  0  0  0  0  0  0
  -30.6550  -14.7270   20.1270 C   0  0  0  0  0  0  0  0  0  0  0  0
  -30.4060  -12.5250   18.9930 C   0  0  0  0  0  2  0  0  0  0  0  0
  -29.4070  -12.6970   17.8260 C   0  0  0  0  0  2  0  0  0  0  0  0
  -27.9530  -12.5220   18.3120 C   0  0  0  0  0  2  0  0  0  0  0  0
  -27.6500  -13.3380   19.5960 C   0  0  0  0  0  3  0  0  0  0  0  0
  -28.7570  -13.1390   20.6560 C   0  0  0  0  0  2  0  0  0  0  0  0
  -30.0400  -13.5040   20.0360 N   0  0  0  0  0  0  0  0  0  0  0  0
  -31.8070  -14.8970   19.7150 O   0  0  0  0  0  0  0  0  0  0  0  0
  -29.8460  -15.7610   20.5180 N   0  0  0  0  0  0  0  0  0  0  0  0
  -28.9240  -15.4540   20.7840 H   0  0  0  0  0  0  0  0  0  0  0  0
  -25.2810  -13.9150   20.4100 C   0  0  0  0  0  0  0  0  0  0  0  0
  -24.2330  -13.1300   20.8060 C   0  0  0  0  0  0  0  0  0  0  0  0
  -24.7020  -11.7830   20.7440 C   0  0  0  0  0  0  0  0  0  0  0  0
  -26.3220  -13.0440   20.1280 N   0  0  0  0  0  0  0  0  0  0  0  0
  -25.9810  -11.7560   20.3880 N   0  0  0  0  0  0  0  0  0  0  0  0
  -23.9900  -10.5150   20.9450 C   0  0  0  0  0  0  0  0  0  0  0  0
  -24.4360   -9.5580   21.8830 C   0  0  0  0  0  3  0  0  0  0  0  0
  -23.7230   -8.3550   22.0720 C   0  0  0  0  0  3  0  0  0  0  0  0
  -22.5510   -8.0990   21.3210 C   0  0  0  0  0  0  0  0  0  0  0  0
  -22.1240   -9.0450   20.3720 C   0  0  0  0  0  3  0  0  0  0  0  0
  -22.8370  -10.2390   20.1830 C   0  0  0  0  0  3  0  0  0  0  0  0
  -21.8090   -6.9470   21.4190 O   0  0  0  0  0  0  0  0  0  0  0  0
  -21.7450   -6.2280   22.5860 C   0  0  0  0  0  0  0  0  0  0  0  0
  -21.2540   -6.7940   23.7830 C   0  0  0  0  0  3  0  0  0  0  0  0
  -21.1410   -6.0000   24.9420 C   0  0  0  0  0  3  0  0  0  0  0  0
  -21.5080   -4.6420   24.9040 C   0  0  0  0  0  0  0  0  0  0  0  0
  -21.9910   -4.0760   23.7110 C   0  0  0  0  0  3  0  0  0  0  0  0
  -22.1060   -4.8660   22.5560 C   0  0  0  0  0  0  0  0  0  0  0  0
  -22.5530   -4.3110   21.4030 F   0  0  0  0  0  0  0  0  0  0  0  0
  -21.3920   -3.8760   26.0140 F   0  0  0  0  0  0  0  0  0  0  0  0
  -22.8440  -13.5970   21.1360 C   0  0  0  0  0  0  0  0  0  0  0  0
  -22.1500  -12.8800   22.0130 N   0  0  0  0  0  0  0  0  0  0  0  0
  -22.3850  -14.6300   20.6510 O   0  0  0  0  0  0  0  0  0  0  0  0
  -22.5370  -12.0440   22.4250 H   0  0  0  0  0  0  0  0  0  0  0  0
  -21.2190  -13.1720   22.2750 H   0  0  0  0  0  0  0  0  0  0  0  0
  -25.4260  -15.2880   20.2500 N   0  0  0  0  0  0  0  0  0  0  0  0
  -24.6600  -15.9270   20.4290 H   0  0  0  0  0  0  0  0  0  0  0  0
  -26.2770  -15.7720   19.9890 H   0  0  0  0  0  0  0  0  0  0  0  0
  -30.7740  -24.6910   20.1710 C   0  0  0  0  0  1  0  0  0  0  0  0
  -29.2010  -24.3370   18.2870 C   0  0  0  0  0  1  0  0  0  0  0  0
  -29.3730  -24.1490   19.8070 C   0  0  1  0  0  0  0  0  0  0  0  0
  -28.2940  -25.1030   20.4970 C   0  0  0  0  0  2  0  0  0  0  0  0
  -28.4240  -26.5600   20.2230 O   0  0  0  0  0  0  0  0  0  0  0  0
  -24.6210  -31.8950   23.2580 C   0  0  0  0  0  0  0  0  0  0  0  0
  -27.2810  -27.3700   20.2080 C   0  0  0  0  0  0  0  0  0  0  0  0
  -23.4320  -30.4900   21.6110 C   0  0  0  0  0  3  0  0  0  0  0  0
  -24.9000  -28.9510   20.1890 C   0  0  0  0  0  0  0  0  0  0  0  0
  -25.9680  -30.8320   21.4340 C   0  0  0  0  0  2  0  0  0  0  0  0
  -26.0610  -29.4550   20.7880 C   0  0  0  0  0  0  0  0  0  0  0  0
  -27.2560  -28.6770   20.7850 C   0  0  0  0  0  3  0  0  0  0  0  0
  -26.1000  -26.9190   19.5780 C   0  0  0  0  0  3  0  0  0  0  0  0
  -24.9220  -27.6890   19.5750 C   0  0  0  0  0  3  0  0  0  0  0  0
  -23.6550  -29.8160   20.2320 C   0  0  0  0  0  2  0  0  0  0  0  0
  -24.6930  -31.0900   22.1580 N   0  0  0  0  0  0  0  0  0  0  0  0
  -23.5340  -32.1620   23.7910 O   0  0  0  0  0  0  0  0  0  0  0  0
  -22.7760  -29.4670   22.5680 C   0  0  0  0  0  0  0  0  0  0  0  0
  -21.4500  -29.2840   22.4400 N   0  0  0  0  0  0  0  0  0  0  0  0
  -23.4570  -28.8410   23.3840 O   0  0  0  0  0  0  0  0  0  0  0  0
  -20.9600  -29.8420   21.7550 H   0  0  0  0  0  0  0  0  0  0  0  0
  -18.0740  -28.0890   22.9460 C   0  0  0  0  0  0  0  0  0  0  0  0
  -20.6340  -28.3410   23.2060 C   0  0  0  0  0  3  0  0  0  0  0  0
  -20.7310  -26.9150   22.6170 C   0  0  0  0  0  2  0  0  0  0  0  0
  -19.6240  -26.6040   21.6040 C   0  0  0  0  0  2  0  0  0  0  0  0
  -18.2460  -26.7450   22.2570 C   0  0  0  0  0  2  0  0  0  0  0  0
  -19.1970  -28.8450   23.3770 C   0  0  0  0  0  0  0  0  0  0  0  0
  -18.9830  -30.1030   23.9810 C   0  0  0  0  0  3  0  0  0  0  0  0
  -17.6800  -30.6050   24.1590 C   0  0  0  0  0  3  0  0  0  0  0  0
  -16.5720  -29.8450   23.7440 C   0  0  0  0  0  3  0  0  0  0  0  0
  -16.7700  -28.5880   23.1430 C   0  0  0  0  0  3  0  0  0  0  0  0
  -25.8980  -32.5340   23.8860 C   0  0  0  0  0  3  0  0  0  0  0  0
  -26.4040  -31.7750   25.1750 C   0  0  1  0  0  0  0  0  0  0  0  0
  -25.3000  -31.5410   26.2330 C   0  0  0  0  0  1  0  0  0  0  0  0
  -26.9970  -30.3970   24.8010 C   0  0  0  0  0  1  0  0  0  0  0  0
  -27.5430  -32.5790   25.8430 C   0  0  0  0  0  1  0  0  0  0  0  0
  -25.5850  -33.9350   24.2010 N   0  0  0  0  0  0  0  0  0  0  0  0
  -25.9260  -34.9810   23.4380 C   0  0  0  0  0  0  0  0  0  0  0  0
  -26.6080  -34.8700   22.4150 O   0  0  0  0  0  0  0  0  0  0  0  0
  -24.9790  -34.0960   24.9920 H   0  0  0  0  0  0  0  0  0  0  0  0
  -24.2120  -36.7790   23.0380 C   0  0  0  0  0  1  0  0  0  0  0  0
  -25.4330  -36.3740   23.8780 C   0  0  0  0  0  3  0  0  0  0  0  0
  -27.5480  -37.2590   24.7570 C   0  0  0  0  0  1  0  0  0  0  0  0
  -26.4710  -37.4230   23.7840 N   0  0  0  0  0  0  0  0  0  0  0  0
  -26.0650  -38.3450   23.9140 H   0  0  0  0  0  0  0  0  0  0  0  0
  1  2  2  0
  2  5  1  0
  2  4  1  0
  3  1  1  0
  6  3  1  0
  7 10  1  0
  8  7  2  0
  9 10  2  0
 10  1  1  0
 11  8  1  0
 11 22  1  0
 12  9  1  0
 12 11  2  0
 13 12  1  0
 14 22  1  0
 15 20  1  0
 16 17  1  0
 16 15  1  0
 18 17  1  0
 18 27  1  0
 18 19  1  0
 20 14  1  0
 20 19  1  0
 21 14  2  0
 22 23  1  0
 24 25  2  0
 25 44  1  0
 26 25  1  0
 26 29  1  0
 27 28  1  0
 27 24  1  0
 28 26  2  0
 29 30  1  0
 30 31  2  0
 32 35  1  0
 32 31  1  0
 33 32  2  0
 34 33  1  0
 34 29  2  0
 35 36  1  0
 36 37  1  0
 37 38  2  0
 39 38  1  0
 39 43  1  0
 40 39  2  0
 41 36  2  0
 41 40  1  0
 42 41  1  0
 44 45  1  0
 45 48  1  0
 45 47  1  0
 46 44  2  0
 49 24  1  0
 49 50  1  0
 51 49  1  0
 54 53  1  6
 54  3  1  0
 54 52  1  0
 54 55  1  0
 56 55  1  0
 57 68  2  0
 58 56  1  0
 58 63  1  0
 59 67  1  0
 59 69  1  0
 60 66  1  0
 60 62  1  0
 61 67  1  0
 62 61  1  0
 63 62  2  0
 64 58  2  0
 65 64  1  0
 65 60  2  0
 66 59  1  0
 67 57  1  0
 69 71  2  0
 70 69  1  0
 72 70  1  0
 73 82  2  0
 73 78  1  0
 74 70  1  0
 74 78  1  0
 75 74  1  0
 76 77  1  0
 76 75  1  0
 77 73  1  0
 78 79  2  0
 79 80  1  0
 81 80  2  0
 82 81  1  0
 83 57  1  0
 83 88  1  0
 83 84  1  0
 84 87  1  1
 84 85  1  0
 86 84  1  0
 88 91  1  0
 89 93  1  0
 89 88  1  0
 90 89  2  0
 93 92  1  0
 95 93  1  0
 95 96  1  0
 95 94  1  0
M  ISO  4  14 100  22 100  55 101  56 101
M  END
>  <TORSDO>  (36) 
F 19

>  <SCORE>  (36) 
-14.581

>  <name>  (36) 
36

>  <ligand_id>  (36) 
36

>  <original_smiles>  (36) 
[H]c1c([H])c([H])c2c(c1[H])C([H])([H])C([H])([H])C([H])([H])C2([H])N([H])C(=O)C1([H])N(C(=O)C([H])(N([H])C(=O)C([H])(N([H])C([H])([H])[H])C([H])([H])[H])C(C([H])([H])[H])(C([H])([H])[H])C([H])([H])[H])C([H])([H])c2c([H])c(OC([H])([H])C([N+]([H])=C(c3c([H])c([H])c(N([H])C(=O)N4C([H])([H])C([H])([H])C([H])([H])C([H])(n5nc(-c6c([H])c([H])c(Oc7c([H])c([H])c(F)c([H])c7F)c([H])c6[H])c(C(=O)N([H])[H])c5N([H])[H])C4([H])[H])c(F)c3[H])N([H])[H])(C([H])([H])[H])C([H])([H])[H])c([H])c([H])c2C1([H])[H]

>  <smiles>  (36) 
[H]c1c([H])c([H])c2c(c1[H])C([H])([H])C([H])([H])C([H])([H])C2([H])N([H])C(=O)C1([H])N(C(=O)C([H])(N([H])C(=O)C([H])(N([H])C([H])([H])[H])C([H])([H])[H])C(C([H])([H])[H])(C([H])([H])[H])C([H])([H])[H])C([H])([H])c2c([H])c(OC([H])([H])C([N+]([H])=C(c3c([H])c([H])c(N([H])C(=O)N4C([H])([H])C([H])([H])C([H])([H])C([H])(n5nc(-c6c([H])c([H])c(Oc7c([H])c([H])c(F)c([H])c7F)c([H])c6[H])c(C(=O)N([H])[H])c5N([H])[H])C4([H])[H])c(F)c3[H])N([H])[H])(C([H])([H])[H])C([H])([H])[H])c([H])c([H])c2C1([H])[H]

$$$$
37:0:0
     RDKit          3D

 94103  0  0  1  0  0  0  0  0999 V2000
  -29.5150  -21.0550   19.5090 C   0  0  0  0  0  0  0  0  0  0  0  0
  -28.4220  -21.5200   21.5390 C   0  0  0  0  0  2  0  0  0  0  0  0
  -28.8310  -20.0100   21.4270 C   0  0  0  0  0  2  0  0  0  0  0  0
  -28.6320  -22.1870   20.1560 C   0  0  0  0  0  3  0  0  0  0  0  0
  -29.6310  -19.8620   20.2150 N   0  0  0  0  0  0  0  0  0  0  0  0
  -30.0220  -21.2460   18.3990 O   0  0  0  0  0  0  0  0  0  0  0  0
  -33.1760  -19.2480   19.4850 C   0  0  0  0  0  3  0  0  0  0  0  0
  -33.1580  -18.0570   18.7650 C   0  0  0  0  0  3  0  0  0  0  0  0
  -31.9950  -19.6720   20.1020 C   0  0  0  0  0  3  0  0  0  0  0  0
  -32.0440  -17.2140   18.8670 C   0  0  0  0  0  3  0  0  0  0  0  0
  -30.7830  -18.9220   20.0620 C   0  0  0  0  0  0  0  0  0  0  0  0
  -30.9260  -17.4770   19.7140 C   0  0  0  0  0  0  0  0  0  0  0  0
  -30.7640  -14.9240   20.1820 C   0  0  0  0  0  0  0  0  0  0  0  0
  -30.4280  -12.6610   19.1950 C   0  0  0  0  0  2  0  0  0  0  0  0
  -29.4860  -12.7200   17.9790 C   0  0  0  0  0  2  0  0  0  0  0  0
  -28.0260  -12.5500   18.4380 C   0  0  0  0  0  2  0  0  0  0  0  0
  -27.6680  -13.4450   19.6570 C   0  0  0  0  0  3  0  0  0  0  0  0
  -28.7540  -13.4250   20.7540 C   0  0  0  0  0  2  0  0  0  0  0  0
  -30.0200  -13.7640   20.1000 N   0  0  0  0  0  0  0  0  0  0  0  0
  -31.9820  -14.7910   20.0820 O   0  0  0  0  0  0  0  0  0  0  0  0
  -30.1910  -16.2170   20.1110 N   0  0  0  0  0  0  0  0  0  0  0  0
  -29.2010  -16.2930   20.2900 H   0  0  0  0  0  0  0  0  0  0  0  0
  -25.2970  -14.0030   20.4470 C   0  0  0  0  0  0  0  0  0  0  0  0
  -24.2450  -13.2170   20.8290 C   0  0  0  0  0  0  0  0  0  0  0  0
  -24.7190  -11.8700   20.7860 C   0  0  0  0  0  0  0  0  0  0  0  0
  -26.3430  -13.1330   20.1850 N   0  0  0  0  0  0  0  0  0  0  0  0
  -26.0060  -11.8460   20.4580 N   0  0  0  0  0  0  0  0  0  0  0  0
  -24.0050  -10.6010   20.9800 C   0  0  0  0  0  0  0  0  0  0  0  0
  -24.4410   -9.6400   21.9200 C   0  0  0  0  0  3  0  0  0  0  0  0
  -23.7230   -8.4390   22.1020 C   0  0  0  0  0  3  0  0  0  0  0  0
  -22.5540   -8.1870   21.3460 C   0  0  0  0  0  0  0  0  0  0  0  0
  -22.1380   -9.1370   20.3950 C   0  0  0  0  0  3  0  0  0  0  0  0
  -22.8570  -10.3290   20.2090 C   0  0  0  0  0  3  0  0  0  0  0  0
  -21.8090   -7.0370   21.4370 O   0  0  0  0  0  0  0  0  0  0  0  0
  -21.7410   -6.3140   22.6010 C   0  0  0  0  0  0  0  0  0  0  0  0
  -21.2610   -6.8780   23.8030 C   0  0  0  0  0  3  0  0  0  0  0  0
  -21.1420   -6.0780   24.9570 C   0  0  0  0  0  3  0  0  0  0  0  0
  -21.4950   -4.7160   24.9110 C   0  0  0  0  0  0  0  0  0  0  0  0
  -21.9680   -4.1520   23.7140 C   0  0  0  0  0  3  0  0  0  0  0  0
  -22.0880   -4.9480   22.5610 C   0  0  0  0  0  0  0  0  0  0  0  0
  -22.5250   -4.3940   21.4050 F   0  0  0  0  0  0  0  0  0  0  0  0
  -21.3750   -3.9470   26.0190 F   0  0  0  0  0  0  0  0  0  0  0  0
  -22.8480  -13.6820   21.1190 C   0  0  0  0  0  0  0  0  0  0  0  0
  -22.1350  -12.9820   21.9920 N   0  0  0  0  0  0  0  0  0  0  0  0
  -22.3970  -14.7050   20.6030 O   0  0  0  0  0  0  0  0  0  0  0  0
  -22.5120  -12.1560   22.4330 H   0  0  0  0  0  0  0  0  0  0  0  0
  -21.1970  -13.2770   22.2250 H   0  0  0  0  0  0  0  0  0  0  0  0
  -25.4440  -15.3740   20.2720 N   0  0  0  0  0  0  0  0  0  0  0  0
  -24.6690  -16.0170   20.3970 H   0  0  0  0  0  0  0  0  0  0  0  0
  -26.2770  -15.8250   19.9160 H   0  0  0  0  0  0  0  0  0  0  0  0
  -30.1300  -24.1280   21.1530 C   0  0  0  0  0  1  0  0  0  0  0  0
  -29.0930  -23.7730   20.0760 C   0  0  0  0  0  3  0  0  0  0  0  0
  -27.9810  -24.9580   19.9790 C   0  0  0  0  0  2  0  0  0  0  0  0
  -28.2870  -26.4420   20.0440 O   0  0  0  0  0  0  0  0  0  0  0  0
  -24.6600  -31.9180   23.2250 C   0  0  0  0  0  0  0  0  0  0  0  0
  -27.2020  -27.3610   20.0340 C   0  0  0  0  0  0  0  0  0  0  0  0
  -23.4310  -30.5520   21.5830 C   0  0  0  0  0  3  0  0  0  0  0  0
  -24.8560  -29.0310   20.0980 C   0  0  0  0  0  0  0  0  0  0  0  0
  -25.9740  -30.8580   21.3650 C   0  0  0  0  0  2  0  0  0  0  0  0
  -26.0420  -29.4890   20.6840 C   0  0  0  0  0  0  0  0  0  0  0  0
  -27.2210  -28.6690   20.6370 C   0  0  0  0  0  3  0  0  0  0  0  0
  -25.9860  -26.9840   19.4190 C   0  0  0  0  0  3  0  0  0  0  0  0
  -24.8350  -27.7880   19.4550 C   0  0  0  0  0  3  0  0  0  0  0  0
  -23.6230  -29.9100   20.1850 C   0  0  0  0  0  2  0  0  0  0  0  0
  -24.7090  -31.1270   22.1120 N   0  0  0  0  0  0  0  0  0  0  0  0
  -23.5840  -32.1820   23.7830 O   0  0  0  0  0  0  0  0  0  0  0  0
  -22.7850  -29.5130   22.5330 C   0  0  0  0  0  0  0  0  0  0  0  0
  -21.4590  -29.3240   22.4180 N   0  0  0  0  0  0  0  0  0  0  0  0
  -23.4770  -28.8840   23.3370 O   0  0  0  0  0  0  0  0  0  0  0  0
  -20.9570  -29.8860   21.7450 H   0  0  0  0  0  0  0  0  0  0  0  0
  -18.0980  -28.0740   22.9290 C   0  0  0  0  0  0  0  0  0  0  0  0
  -20.6560  -28.3660   23.1830 C   0  0  0  0  0  3  0  0  0  0  0  0
  -20.7720  -26.9420   22.5920 C   0  0  0  0  0  2  0  0  0  0  0  0
  -19.6680  -26.6160   21.5820 C   0  0  0  0  0  2  0  0  0  0  0  0
  -18.2890  -26.7340   22.2370 C   0  0  0  0  0  2  0  0  0  0  0  0
  -19.2100  -28.8480   23.3590 C   0  0  0  0  0  0  0  0  0  0  0  0
  -18.9770  -30.1010   23.9660 C   0  0  0  0  0  3  0  0  0  0  0  0
  -17.6650  -30.5810   24.1470 C   0  0  0  0  0  3  0  0  0  0  0  0
  -16.5690  -29.8050   23.7320 C   0  0  0  0  0  3  0  0  0  0  0  0
  -16.7870  -28.5530   23.1290 C   0  0  0  0  0  3  0  0  0  0  0  0
  -25.9490  -32.5440   23.8380 C   0  0  0  0  0  3  0  0  0  0  0  0
  -26.4780  -31.7610   25.1030 C   0  0  1  0  0  0  0  0  0  0  0  0
  -25.3970  -31.5170   26.1830 C   0  0  0  0  0  1  0  0  0  0  0  0
  -27.0530  -30.3860   24.6960 C   0  0  0  0  0  1  0  0  0  0  0  0
  -27.6370  -32.5490   25.7590 C   0  0  0  0  0  1  0  0  0  0  0  0
  -25.6450  -33.9390   24.1860 N   0  0  0  0  0  0  0  0  0  0  0  0
  -25.9400  -34.9990   23.4210 C   0  0  0  0  0  0  0  0  0  0  0  0
  -26.5680  -34.9030   22.3620 O   0  0  0  0  0  0  0  0  0  0  0  0
  -25.0850  -34.0860   25.0130 H   0  0  0  0  0  0  0  0  0  0  0  0
  -24.1810  -36.7780   23.1600 C   0  0  0  0  0  1  0  0  0  0  0  0
  -25.4660  -36.3820   23.9040 C   0  0  0  0  0  3  0  0  0  0  0  0
  -27.6300  -37.2910   24.6290 C   0  0  0  0  0  1  0  0  0  0  0  0
  -26.4810  -37.4450   23.7390 N   0  0  0  0  0  0  0  0  0  0  0  0
  -26.0740  -38.3610   23.9040 H   0  0  0  0  0  0  0  0  0  0  0  0
  1  4  1  0
  1  5  1  0
  3  2  1  0
  4 52  1  0
  4  2  1  0
  5  3  1  0
  6  1  2  0
  7  9  1  0
  8 10  1  0
  8  7  2  0
 10 12  2  0
 11  9  2  0
 11  5  1  0
 12 11  1  0
 12 21  1  0
 14 19  1  0
 15 16  1  0
 15 14  1  0
 17 16  1  0
 17 26  1  0
 17 18  1  0
 19 13  1  0
 19 18  1  0
 20 13  2  0
 21 13  1  0
 21 22  1  0
 23 24  2  0
 24 43  1  0
 25 24  1  0
 25 28  1  0
 26 23  1  0
 26 27  1  0
 27 25  2  0
 28 29  1  0
 29 30  2  0
 31 34  1  0
 31 30  1  0
 32 31  2  0
 33 32  1  0
 33 28  2  0
 34 35  1  0
 35 36  1  0
 36 37  2  0
 38 37  1  0
 38 42  1  0
 39 38  2  0
 40 35  2  0
 40 39  1  0
 41 40  1  0
 43 44  1  0
 44 47  1  0
 44 46  1  0
 45 43  2  0
 48 49  1  0
 48 23  1  0
 50 48  1  0
 52 51  1  0
 53 54  1  0
 53 52  1  0
 55 66  2  0
 56 54  1  0
 56 61  1  0
 57 65  1  0
 57 67  1  0
 58 64  1  0
 58 60  1  0
 59 65  1  0
 60 59  1  0
 61 60  2  0
 62 63  1  0
 62 56  2  0
 63 58  2  0
 64 57  1  0
 65 55  1  0
 67 69  2  0
 68 67  1  0
 70 68  1  0
 71 80  2  0
 71 76  1  0
 72 68  1  0
 72 76  1  0
 73 72  1  0
 74 75  1  0
 74 73  1  0
 75 71  1  0
 76 77  2  0
 77 78  1  0
 79 78  2  0
 80 79  1  0
 81 55  1  0
 81 86  1  0
 81 82  1  0
 82 85  1  1
 82 83  1  0
 84 82  1  0
 86 89  1  0
 87 91  1  0
 87 86  1  0
 88 87  2  0
 91 90  1  0
 93 94  1  0
 93 91  1  0
 93 92  1  0
M  ISO  4  13 100  21 100  53 101  54 101
M  END
>  <TORSDO>  (37) 
F 19

>  <SCORE>  (37) 
-13.956

>  <name>  (37) 
37

>  <ligand_id>  (37) 
37

>  <original_smiles>  (37) 
[H]c1c([H])c([H])c(N2C(=O)C([H])(C([H])(C([H])([H])[H])C([H])([H])Oc3c([H])c([H])c4c(c3[H])C([H])([H])N(C(=O)C([H])(N([H])C(=O)C([H])(N([H])C([H])([H])[H])C([H])([H])[H])C(C([H])([H])[H])(C([H])([H])[H])C([H])([H])[H])C([H])(C(=O)N([H])C3([H])c5c([H])c([H])c([H])c([H])c5C([H])([H])C([H])([H])C3([H])[H])C4([H])[H])C([H])([H])C2([H])[H])c(N([H])C(=O)N2C([H])([H])C([H])([H])C([H])([H])C([H])(n3nc(-c4c([H])c([H])c(Oc5c([H])c([H])c(F)c([H])c5F)c([H])c4[H])c(C(=O)N([H])[H])c3N([H])[H])C2([H])[H])c1[H]

>  <smiles>  (37) 
[H]c1c([H])c([H])c(N2C(=O)C([H])(C([H])(C([H])([H])[H])C([H])([H])Oc3c([H])c([H])c4c(c3[H])C([H])([H])N(C(=O)C([H])(N([H])C(=O)C([H])(N([H])C([H])([H])[H])C([H])([H])[H])C(C([H])([H])[H])(C([H])([H])[H])C([H])([H])[H])C([H])(C(=O)N([H])C3([H])c5c([H])c([H])c([H])c([H])c5C([H])([H])C([H])([H])C3([H])[H])C4([H])[H])C([H])([H])C2([H])[H])c(N([H])C(=O)N2C([H])([H])C([H])([H])C([H])([H])C([H])(n3nc(-c4c([H])c([H])c(Oc5c([H])c([H])c(F)c([H])c5F)c([H])c4[H])c(C(=O)N([H])[H])c3N([H])[H])C2([H])[H])c1[H]

$$$$
38:0:0
     RDKit          3D

 95104  0  0  1  0  0  0  0  0999 V2000
  -28.7170  -22.5240   20.0070 C   0  0  0  0  0  3  0  0  0  0  0  0
  -29.0070  -23.8500   20.1530 C   0  0  0  0  0  0  0  0  0  0  0  0
  -30.3570  -23.8660   20.6670 C   0  0  0  0  0  0  0  0  0  0  0  0
  -31.0730  -24.9640   20.9560 C   0  0  0  0  0  1  0  0  0  0  0  0
  -30.8640  -22.4300   20.8240 C   0  0  0  0  0  3  0  0  0  0  0  0
  -29.7360  -21.6130   20.3660 N   0  0  0  0  0  0  0  0  0  0  0  0
  -30.9380  -19.4340   20.8190 C   0  0  0  0  0  3  0  0  0  0  0  0
  -30.9880  -18.0030   20.8550 C   0  0  0  0  0  3  0  0  0  0  0  0
  -28.7160  -19.3550   19.9180 C   0  0  0  0  0  3  0  0  0  0  0  0
  -29.7950  -20.1650   20.3690 C   0  0  0  0  0  0  0  0  0  0  0  0
  -29.8890  -17.2110   20.4320 C   0  0  0  0  0  0  0  0  0  0  0  0
  -28.7670  -17.9270   19.9350 C   0  0  0  0  0  0  0  0  0  0  0  0
  -30.5990  -14.6980   20.3640 C   0  0  0  0  0  0  0  0  0  0  0  0
  -30.3810  -12.4530   19.3190 C   0  0  0  0  0  2  0  0  0  0  0  0
  -29.4160  -12.5780   18.1190 C   0  0  0  0  0  2  0  0  0  0  0  0
  -27.9490  -12.4130   18.5690 C   0  0  0  0  0  2  0  0  0  0  0  0
  -27.6050  -13.2710   19.8160 C   0  0  0  0  0  3  0  0  0  0  0  0
  -28.6850  -13.1310   20.9130 C   0  0  0  0  0  2  0  0  0  0  0  0
  -29.9840  -13.4730   20.3080 N   0  0  0  0  0  0  0  0  0  0  0  0
  -31.7770  -14.8460   20.0300 O   0  0  0  0  0  0  0  0  0  0  0  0
  -29.7610  -15.7600   20.5730 N   0  0  0  0  0  0  0  0  0  0  0  0
  -28.8000  -15.4770   20.6880 H   0  0  0  0  0  0  0  0  0  0  0  0
  -25.2220  -13.8630   20.5740 C   0  0  0  0  0  0  0  0  0  0  0  0
  -24.1590  -13.0850   20.9450 C   0  0  0  0  0  0  0  0  0  0  0  0
  -24.6210  -11.7350   20.8970 C   0  0  0  0  0  0  0  0  0  0  0  0
  -26.2640  -12.9860   20.3200 N   0  0  0  0  0  0  0  0  0  0  0  0
  -25.9090  -11.7000   20.5760 N   0  0  0  0  0  0  0  0  0  0  0  0
  -23.8970  -10.4710   21.0850 C   0  0  0  0  0  0  0  0  0  0  0  0
  -24.3450   -9.4910   21.9990 C   0  0  0  0  0  3  0  0  0  0  0  0
  -23.6210   -8.2930   22.1730 C   0  0  0  0  0  3  0  0  0  0  0  0
  -22.4360   -8.0640   21.4350 C   0  0  0  0  0  0  0  0  0  0  0  0
  -22.0060   -9.0320   20.5100 C   0  0  0  0  0  3  0  0  0  0  0  0
  -22.7310  -10.2220   20.3320 C   0  0  0  0  0  3  0  0  0  0  0  0
  -21.6820   -6.9190   21.5220 O   0  0  0  0  0  0  0  0  0  0  0  0
  -21.6530   -6.1600   22.6640 C   0  0  0  0  0  0  0  0  0  0  0  0
  -21.2360   -6.6930   23.9030 C   0  0  0  0  0  3  0  0  0  0  0  0
  -21.1580   -5.8600   25.0370 C   0  0  0  0  0  3  0  0  0  0  0  0
  -21.4840   -4.4960   24.9330 C   0  0  0  0  0  0  0  0  0  0  0  0
  -21.8930   -3.9610   23.6990 C   0  0  0  0  0  3  0  0  0  0  0  0
  -21.9750   -4.7910   22.5670 C   0  0  0  0  0  0  0  0  0  0  0  0
  -22.3500   -4.2660   21.3760 F   0  0  0  0  0  0  0  0  0  0  0  0
  -21.4000   -3.6930   26.0200 F   0  0  0  0  0  0  0  0  0  0  0  0
  -22.7650  -13.5590   21.2380 C   0  0  0  0  0  0  0  0  0  0  0  0
  -22.0470  -12.8540   22.1040 N   0  0  0  0  0  0  0  0  0  0  0  0
  -22.3210  -14.5910   20.7340 O   0  0  0  0  0  0  0  0  0  0  0  0
  -22.4170  -12.0180   22.5310 H   0  0  0  0  0  0  0  0  0  0  0  0
  -21.1110  -13.1520   22.3420 H   0  0  0  0  0  0  0  0  0  0  0  0
  -25.3740  -15.2370   20.4140 N   0  0  0  0  0  0  0  0  0  0  0  0
  -24.6010  -15.8730   20.5650 H   0  0  0  0  0  0  0  0  0  0  0  0
  -26.2230  -15.7300   20.1380 H   0  0  0  0  0  0  0  0  0  0  0  0
  -27.6940  -17.1910   19.4220 N   0  0  0  0  0  0  0  0  0  0  0  0
  -27.0060  -17.7480   18.9260 H   0  0  0  0  0  0  0  0  0  0  0  0
  -27.9960  -16.4310   18.8240 H   0  0  0  0  0  0  0  0  0  0  0  0
  -28.0380  -25.0430   19.8060 C   0  0  0  0  0  2  0  0  0  0  0  0
  -28.2870  -26.4540   20.2090 O   0  0  0  0  0  0  0  0  0  0  0  0
  -24.5840  -31.8900   23.2660 C   0  0  0  0  0  0  0  0  0  0  0  0
  -27.1790  -27.3310   20.1680 C   0  0  0  0  0  0  0  0  0  0  0  0
  -23.3730  -30.4990   21.6270 C   0  0  0  0  0  3  0  0  0  0  0  0
  -24.8170  -28.9600   20.1900 C   0  0  0  0  0  0  0  0  0  0  0  0
  -25.9170  -30.8100   21.4410 C   0  0  0  0  0  2  0  0  0  0  0  0
  -25.9920  -29.4350   20.7840 C   0  0  0  0  0  0  0  0  0  0  0  0
  -27.1760  -28.6310   20.7690 C   0  0  0  0  0  3  0  0  0  0  0  0
  -25.9740  -26.9270   19.5400 C   0  0  0  0  0  3  0  0  0  0  0  0
  -24.8100  -27.7100   19.5620 C   0  0  0  0  0  3  0  0  0  0  0  0
  -23.5810  -29.8340   20.2440 C   0  0  0  0  0  2  0  0  0  0  0  0
  -24.6440  -31.0830   22.1670 N   0  0  0  0  0  0  0  0  0  0  0  0
  -23.5010  -32.1680   23.8030 O   0  0  0  0  0  0  0  0  0  0  0  0
  -22.7130  -29.4770   22.5850 C   0  0  0  0  0  0  0  0  0  0  0  0
  -21.3880  -29.2910   22.4520 N   0  0  0  0  0  0  0  0  0  0  0  0
  -23.3900  -28.8560   23.4070 O   0  0  0  0  0  0  0  0  0  0  0  0
  -20.9010  -29.8420   21.7600 H   0  0  0  0  0  0  0  0  0  0  0  0
  -18.0160  -28.0750   22.9360 C   0  0  0  0  0  0  0  0  0  0  0  0
  -20.5710  -28.3510   23.2210 C   0  0  0  0  0  3  0  0  0  0  0  0
  -20.6860  -26.9180   22.6530 C   0  0  0  0  0  2  0  0  0  0  0  0
  -19.5920  -26.5830   21.6340 C   0  0  0  0  0  2  0  0  0  0  0  0
  -18.2050  -26.7230   22.2680 C   0  0  0  0  0  2  0  0  0  0  0  0
  -19.1270  -28.8460   23.3690 C   0  0  0  0  0  0  0  0  0  0  0  0
  -18.8960  -30.1110   23.9530 C   0  0  0  0  0  3  0  0  0  0  0  0
  -17.5870  -30.6040   24.1080 C   0  0  0  0  0  3  0  0  0  0  0  0
  -16.4900  -29.8290   23.6920 C   0  0  0  0  0  3  0  0  0  0  0  0
  -16.7050  -28.5670   23.1110 C   0  0  0  0  0  3  0  0  0  0  0  0
  -25.8700  -32.5190   23.8840 C   0  0  0  0  0  3  0  0  0  0  0  0
  -26.3790  -31.7530   25.1680 C   0  0  1  0  0  0  0  0  0  0  0  0
  -25.2830  -31.5290   26.2330 C   0  0  0  0  0  1  0  0  0  0  0  0
  -26.9570  -30.3700   24.7890 C   0  0  0  0  0  1  0  0  0  0  0  0
  -27.5320  -32.5470   25.8260 C   0  0  0  0  0  1  0  0  0  0  0  0
  -25.5660  -33.9210   24.2060 N   0  0  0  0  0  0  0  0  0  0  0  0
  -25.8950  -34.9670   23.4350 C   0  0  0  0  0  0  0  0  0  0  0  0
  -26.5550  -34.8530   22.3980 O   0  0  0  0  0  0  0  0  0  0  0  0
  -24.9800  -34.0850   25.0110 H   0  0  0  0  0  0  0  0  0  0  0  0
  -24.1690  -36.7620   23.0800 C   0  0  0  0  0  1  0  0  0  0  0  0
  -25.4150  -36.3600   23.8850 C   0  0  0  0  0  3  0  0  0  0  0  0
  -27.5560  -37.2470   24.6960 C   0  0  0  0  0  1  0  0  0  0  0  0
  -26.4510  -37.4090   23.7550 N   0  0  0  0  0  0  0  0  0  0  0  0
  -26.0480  -38.3320   23.8950 H   0  0  0  0  0  0  0  0  0  0  0  0
  1  2  2  0
  1  6  1  0
  2  3  1  0
  3  5  2  0
  3  4  1  0
  6 10  1  0
  6  5  1  0
  7  8  1  0
  9 12  2  0
  9 10  1  0
 10  7  2  0
 11 21  1  0
 11  8  2  0
 12 11  1  0
 13 21  1  0
 14 19  1  0
 15 16  1  0
 15 14  1  0
 17 16  1  0
 17 26  1  0
 17 18  1  0
 19 13  1  0
 19 18  1  0
 20 13  2  0
 21 22  1  0
 23 24  2  0
 24 43  1  0
 25 24  1  0
 25 28  1  0
 26 23  1  0
 26 27  1  0
 27 25  2  0
 28 29  1  0
 29 30  2  0
 31 34  1  0
 31 30  1  0
 32 31  2  0
 33 32  1  0
 33 28  2  0
 34 35  1  0
 35 36  1  0
 36 37  2  0
 38 37  1  0
 38 42  1  0
 39 38  2  0
 40 35  2  0
 40 39  1  0
 41 40  1  0
 43 44  1  0
 44 47  1  0
 44 46  1  0
 45 43  2  0
 48 49  1  0
 48 23  1  0
 50 48  1  0
 51 12  1  0
 52 51  1  0
 53 51  1  0
 54  2  1  0
 54 55  1  0
 56 67  2  0
 57 55  1  0
 57 62  1  0
 58 66  1  0
 58 68  1  0
 59 65  1  0
 59 61  1  0
 60 66  1  0
 61 60  1  0
 62 61  2  0
 63 64  1  0
 63 57  2  0
 64 59  2  0
 65 58  1  0
 66 56  1  0
 68 70  2  0
 69 68  1  0
 71 69  1  0
 72 81  2  0
 72 77  1  0
 73 69  1  0
 73 77  1  0
 74 73  1  0
 75 76  1  0
 75 74  1  0
 76 72  1  0
 77 78  2  0
 78 79  1  0
 80 79  2  0
 81 80  1  0
 82 56  1  0
 82 87  1  0
 82 83  1  0
 83 86  1  1
 83 84  1  0
 85 83  1  0
 87 90  1  0
 88 92  1  0
 88 87  1  0
 89 88  2  0
 92 91  1  0
 94 92  1  0
 94 95  1  0
 94 93  1  0
M  ISO  4  13 100  21 100  54 101  55 101
M  END
>  <TORSDO>  (38) 
F 19

>  <SCORE>  (38) 
-14.903

>  <name>  (38) 
38

>  <ligand_id>  (38) 
38

>  <original_smiles>  (38) 
[H]C([H])=C1C(C([H])([H])Oc2c([H])c([H])c3c(c2[H])C([H])([H])N(C(=O)C([H])(N([H])C(=O)C([H])(N([H])C([H])([H])[H])C([H])([H])[H])C(C([H])([H])[H])(C([H])([H])[H])C([H])([H])[H])C([H])(C(=O)N([H])C2([H])c4c([H])c([H])c([H])c([H])c4C([H])([H])C([H])([H])C2([H])[H])C3([H])[H])=C([H])N(c2c([H])c([H])c(N([H])C(=O)N3C([H])([H])C([H])([H])C([H])([H])C([H])(n4nc(-c5c([H])c([H])c(Oc6c([H])c([H])c(F)c([H])c6F)c([H])c5[H])c(C(=O)N([H])[H])c4N([H])[H])C3([H])[H])c(N([H])[H])c2[H])C1([H])[H]

>  <smiles>  (38) 
[H]C([H])=C1C(C([H])([H])Oc2c([H])c([H])c3c(c2[H])C([H])([H])N(C(=O)C([H])(N([H])C(=O)C([H])(N([H])C([H])([H])[H])C([H])([H])[H])C(C([H])([H])[H])(C([H])([H])[H])C([H])([H])[H])C([H])(C(=O)N([H])C2([H])c4c([H])c([H])c([H])c([H])c4C([H])([H])C([H])([H])C2([H])[H])C3([H])[H])=C([H])N(c2c([H])c([H])c(N([H])C(=O)N3C([H])([H])C([H])([H])C([H])([H])C([H])(n4nc(-c5c([H])c([H])c(Oc6c([H])c([H])c(F)c([H])c6F)c([H])c5[H])c(C(=O)N([H])[H])c4N([H])[H])C3([H])[H])c(N([H])[H])c2[H])C1([H])[H]

$$$$
39:0:0
     RDKit          3D

 95 96  0  0  1  0  0  0  0  0999 V2000
  -21.8580  -27.3700   24.2410 C   0  0  0  0  0  3  0  0  0  0  0  0
  -20.2300  -27.7710   21.2760 C   0  0  0  0  0  1  0  0  0  0  0  0
  -20.3140  -25.7680   23.2520 C   0  0  0  0  0  1  0  0  0  0  0  0
  -21.5130  -28.7470   22.0960 C   0  0  0  0  0  2  0  0  0  0  0  0
  -20.9050  -30.2000   21.9430 C   0  0  0  0  0  1  0  0  0  0  0  0
  -21.8650  -25.6320   24.1180 N   0  0  0  0  0  2  0  0  0  0  0  0
  -22.0560  -27.9260   25.3270 O   0  0  0  0  0  0  0  0  0  0  0  0
  -25.5850  -22.2920   23.3320 C   0  0  0  0  0  3  0  0  0  0  0  0
  -24.6210  -23.5740   23.7490 C   0  0  0  0  0  3  0  0  0  0  0  0
  -23.0600  -22.6480   22.8890 C   0  0  0  0  0  3  0  0  0  0  0  0
  -25.5460  -20.8680   22.5980 C   0  0  0  0  0  3  0  0  0  0  0  0
  -24.0200  -21.3520   22.4640 C   0  0  0  0  0  0  0  0  0  0  0  0
  -23.1090  -24.0720   23.6310 C   0  0  0  0  0  3  0  0  0  0  0  0
  -23.1960  -20.3160   21.7220 C   0  0  0  0  0  1  0  0  0  0  0  0
  -27.0140  -19.2410   22.1730 C   0  0  0  0  0 15  0  0  0  0  0  0
  -29.0780  -16.2230   21.0120 C   0  0  0  0  0  0  0  0  0  0  0  0
  -30.1170  -13.7590   19.8180 C   0  0  0  0  0  2  0  0  0  0  0  0
  -29.5260  -12.9600   18.5660 C   0  0  0  0  0  2  0  0  0  0  0  0
  -28.1710  -12.3280   18.8840 C   0  0  0  0  0  2  0  0  0  0  0  0
  -27.4690  -13.2840   19.8540 C   0  0  0  0  0  3  0  0  0  0  0  0
  -28.2570  -13.6550   21.1110 C   0  0  0  0  0  2  0  0  0  0  0  0
  -29.1250  -14.7160   20.6570 N   0  0  0  0  0  0  0  0  0  0  0  0
  -30.3370  -16.3760   20.7730 O   0  0  0  0  0  0  0  0  0  0  0  0
  -27.8200  -17.4070   21.4910 N   0  0  0  0  0  2  0  0  0  0  0  0
  -27.0080  -16.8020   21.5270 H   0  0  0  0  0  0  0  0  0  0  0  0
  -25.1630  -13.8110   20.5640 C   0  0  0  0  0  0  0  0  0  0  0  0
  -24.1160  -13.0280   20.9300 C   0  0  0  0  0  0  0  0  0  0  0  0
  -24.5880  -11.6780   20.8730 C   0  0  0  0  0  0  0  0  0  0  0  0
  -26.1710  -12.9210   20.2730 N   0  0  0  0  0  0  0  0  0  0  0  0
  -25.8670  -11.6370   20.5370 N   0  0  0  0  0  0  0  0  0  0  0  0
  -23.8770  -10.4180   21.0460 C   0  0  0  0  0  0  0  0  0  0  0  0
  -24.3460   -9.4150   21.9200 C   0  0  0  0  0  3  0  0  0  0  0  0
  -23.6210   -8.2150   22.0750 C   0  0  0  0  0  3  0  0  0  0  0  0
  -22.4190   -8.0170   21.3540 C   0  0  0  0  0  0  0  0  0  0  0  0
  -21.9760   -9.0100   20.4630 C   0  0  0  0  0  3  0  0  0  0  0  0
  -22.7000  -10.2000   20.3060 C   0  0  0  0  0  3  0  0  0  0  0  0
  -21.6580   -6.8770   21.4230 O   0  0  0  0  0  0  0  0  0  0  0  0
  -21.6820   -6.0670   22.5290 C   0  0  0  0  0  0  0  0  0  0  0  0
  -21.3980   -6.5600   23.8220 C   0  0  0  0  0  3  0  0  0  0  0  0
  -21.3650   -5.6770   24.9190 C   0  0  0  0  0  3  0  0  0  0  0  0
  -21.6050   -4.3030   24.7250 C   0  0  0  0  0  0  0  0  0  0  0  0
  -21.8820   -3.8110   23.4370 C   0  0  0  0  0  3  0  0  0  0  0  0
  -21.9180   -4.6910   22.3420 C   0  0  0  0  0  0  0  0  0  0  0  0
  -22.1660   -4.2100   21.1000 F   0  0  0  0  0  0  0  0  0  0  0  0
  -21.5640   -3.4530   25.7770 F   0  0  0  0  0  0  0  0  0  0  0  0
  -22.7300  -13.5100   21.2060 C   0  0  0  0  0  0  0  0  0  0  0  0
  -22.0010  -12.8100   22.0640 N   0  0  0  0  0  0  0  0  0  0  0  0
  -22.3090  -14.5460   20.6940 O   0  0  0  0  0  0  0  0  0  0  0  0
  -22.3640  -11.9750   22.4980 H   0  0  0  0  0  0  0  0  0  0  0  0
  -21.0660  -13.1130   22.2910 H   0  0  0  0  0  0  0  0  0  0  0  0
  -25.3500  -15.1890   20.4340 N   0  0  0  0  0  0  0  0  0  0  0  0
  -24.5740  -15.8320   20.5520 H   0  0  0  0  0  0  0  0  0  0  0  0
  -26.1150  -15.5820   19.9020 H   0  0  0  0  0  0  0  0  0  0  0  0
  -22.8700  -28.1580   20.3550 C   0  0  0  0  0 15  0  0  0  0  0  0
  -24.5780  -27.2450   20.4040 O   0  0  0  0  0  1  0  0  0  0  0  0
  -24.7550  -31.9160   23.2860 C   0  0  0  0  0  0  0  0  0  0  0  0
  -26.0330  -27.3940   20.2350 C   0  0  0  0  0  3  0  0  0  0  0  0
  -23.8480  -30.2490   21.7750 C   0  0  0  0  0  3  0  0  0  0  0  0
  -25.1300  -29.6660   19.6650 C   0  0  0  0  0  3  0  0  0  0  0  0
  -26.2220  -30.8510   21.5560 C   0  0  0  0  0  2  0  0  0  0  0  0
  -26.1530  -29.6810   20.6070 C   0  0  0  0  0  3  0  0  0  0  0  0
  -26.7650  -28.4570   20.8410 C   0  0  0  0  0  2  0  0  0  0  0  0
  -25.9710  -27.5110   18.8810 C   0  0  0  0  0  2  0  0  0  0  0  0
  -25.1450  -28.6440   18.6510 C   0  0  0  0  0  2  0  0  0  0  0  0
  -23.9640  -30.4790   20.1790 C   0  0  0  0  0  2  0  0  0  0  0  0
  -24.9380  -31.0640   22.2550 N   0  0  0  0  0  0  0  0  0  0  0  0
  -23.6430  -32.1840   23.7730 O   0  0  0  0  0  0  0  0  0  0  0  0
  -23.9670  -28.8210   22.6780 C   0  0  0  0  0  0  0  0  0  0  0  0
  -23.5050  -27.4290   22.4670 N   0  0  0  0  0  0  0  0  0  0  0  0
  -24.2120  -28.9850   23.8380 O   0  0  0  0  0  0  0  0  0  0  0  0
  -24.0760  -26.7930   23.0080 H   0  0  0  0  0  0  0  0  0  0  0  0
  -18.2800  -27.5540   22.9090 C   0  0  0  0  0  0  0  0  0  0  0  0
  -21.9390  -26.6240   22.0290 C   0  0  0  0  0  3  0  0  0  0  0  0
  -21.1410  -25.5400   20.9750 C   0  0  0  0  0  3  0  0  0  0  0  0
  -19.3600  -25.5400   20.9000 C   0  0  0  0  0  2  0  0  0  0  0  0
  -18.1460  -26.2880   21.8980 C   0  0  0  0  0  2  0  0  0  0  0  0
  -19.6620  -27.9520   23.3900 C   0  0  0  0  0  3  0  0  0  0  0  0
  -19.4450  -29.2770   24.0740 C   0  0  0  0  0  3  0  0  0  0  0  0
  -18.2250  -30.0730   24.1570 C   0  0  0  0  0  3  0  0  0  0  0  0
  -17.0080  -29.5950   23.6550 C   0  0  0  0  0  3  0  0  0  0  0  0
  -17.0620  -28.3230   23.0650 C   0  0  0  0  0  3  0  0  0  0  0  0
  -26.0070  -32.5340   23.9180 C   0  0  0  0  0  3  0  0  0  0  0  0
  -26.5030  -31.6940   25.1500 C   0  0  1  0  0  0  0  0  0  0  0  0
  -25.3990  -31.3900   26.1910 C   0  0  0  0  0  1  0  0  0  0  0  0
  -27.1400  -30.3470   24.7260 C   0  0  0  0  0  1  0  0  0  0  0  0
  -27.6320  -32.4770   25.8480 C   0  0  0  0  0  1  0  0  0  0  0  0
  -25.6560  -33.9030   24.2900 N   0  0  0  0  0  0  0  0  0  0  0  0
  -25.9130  -34.9690   23.5250 C   0  0  0  0  0  0  0  0  0  0  0  0
  -26.5430  -34.9000   22.4650 O   0  0  0  0  0  0  0  0  0  0  0  0
  -25.0950  -34.0250   25.1200 H   0  0  0  0  0  0  0  0  0  0  0  0
  -24.1510  -36.7410   23.2530 C   0  0  0  0  0  1  0  0  0  0  0  0
  -25.4090  -36.3310   24.0330 C   0  0  0  0  0  3  0  0  0  0  0  0
  -27.5620  -37.1880   24.8420 C   0  0  0  0  0  1  0  0  0  0  0  0
  -26.4270  -37.3990   23.9460 N   0  0  0  0  0  0  0  0  0  0  0  0
  -26.0160  -38.3020   24.1660 H   0  0  0  0  0  0  0  0  0  0  0  0
  1  7  2  0
  2  4  1  0
  3  6  1  0
  5  4  1  0
  6  1  1  0
  8  9  1  0
 10 13  1  0
 11  8  2  0
 12 11  1  0
 12 10  2  0
 13  9  2  0
 14 12  1  0
 16 24  1  0
 17 22  1  0
 18 19  1  0
 18 17  1  0
 20 19  1  0
 20 29  1  0
 20 21  1  0
 22 16  1  0
 22 21  1  0
 23 16  2  0
 24 25  1  0
 26 27  2  0
 27 46  1  0
 28 27  1  0
 28 31  1  0
 29 30  1  0
 29 26  1  0
 30 28  2  0
 31 32  1  0
 32 33  2  0
 34 37  1  0
 34 33  1  0
 35 34  2  0
 36 35  1  0
 36 31  2  0
 37 38  1  0
 38 39  1  0
 39 40  2  0
 41 40  1  0
 41 45  1  0
 42 41  2  0
 43 38  2  0
 43 42  1  0
 44 43  1  0
 46 47  1  0
 47 50  1  0
 47 49  1  0
 48 46  2  0
 51 52  1  0
 51 26  1  0
 53 51  1  0
 56 67  2  0
 57 55  1  0
 57 62  1  0
 58 66  1  0
 58 68  1  0
 59 64  1  0
 59 65  1  0
 59 61  1  0
 60 66  1  0
 61 62  1  0
 61 60  1  0
 63 57  1  0
 64 63  1  0
 65 58  1  0
 66 56  1  0
 68 70  2  0
 69 68  1  0
 69 71  1  0
 72 81  2  0
 72 77  1  0
 73 69  1  0
 74 73  2  0
 75 74  1  0
 75 76  1  0
 76 72  1  0
 77 78  2  0
 78 79  1  0
 80 79  2  0
 81 80  1  0
 82 56  1  0
 82 87  1  0
 82 83  1  0
 83 86  1  1
 83 84  1  0
 85 83  1  0
 87 90  1  0
 88 92  1  0
 88 87  1  0
 89 88  2  0
 92 91  1  0
 94 92  1  0
 94 95  1  0
 94 93  1  0
M  ISO  4  16 100  24 100  54 101  55 101
M  END
>  <TORSDO>  (39) 
F 19

>  <SCORE>  (39) 
45.719

>  <name>  (39) 
39

>  <ligand_id>  (39) 
39

>  <original_smiles>  (39) 
[H]c1c([H])c([H])c2c(c1[H])C([H])([H])C([H])([H])C([H])([H])C2([H])N([H])C(=O)C1([H])N(C(=O)C([H])(N([H])C(=O)C([H])(N([H])C([H])([H])[H])C([H])([H])[H])C(C([H])([H])[H])(C([H])([H])[H])C([H])([H])[H])C([H])([H])c2c([H])c(OC([H])([H])C3(C([H])([H])[H])C(=O)N(c4c([H])c([H])c(C([H])([H])N([H])C(=O)N5C([H])([H])C([H])([H])C([H])([H])C([H])(n6nc(-c7c([H])c([H])c(Oc8c([H])c([H])c(F)c([H])c8F)c([H])c7[H])c(C(=O)N([H])[H])c6N([H])[H])C5([H])[H])c(C([H])([H])[H])c4[H])C([H])([H])C3([H])[H])c([H])c([H])c2C1([H])[H]

>  <smiles>  (39) 
[H]c1c([H])c([H])c2c(c1[H])C([H])([H])C([H])([H])C([H])([H])C2([H])N([H])C(=O)C1([H])N(C(=O)C([H])(N([H])C(=O)C([H])(N([H])C([H])([H])[H])C([H])([H])[H])C(C([H])([H])[H])(C([H])([H])[H])C([H])([H])[H])C([H])([H])c2c([H])c(OC([H])([H])C3(C([H])([H])[H])C(=O)N(c4c([H])c([H])c(C([H])([H])N([H])C(=O)N5C([H])([H])C([H])([H])C([H])([H])C([H])(n6nc(-c7c([H])c([H])c(Oc8c([H])c([H])c(F)c([H])c8F)c([H])c7[H])c(C(=O)N([H])[H])c6N([H])[H])C5([H])[H])c(C([H])([H])[H])c4[H])C([H])([H])C3([H])[H])c([H])c([H])c2C1([H])[H]

$$$$
40:0:0
     RDKit          3D

 97105  0  0  1  0  0  0  0  0999 V2000
  -29.3240  -21.1910   20.6120 C   0  0  0  0  0  0  0  0  0  0  0  0
  -30.0420  -21.5780   21.6520 N   0  0  0  0  0  4  0  0  0  0  0  0
  -28.5240  -22.1630   20.0460 N   0  0  0  0  0  0  0  0  0  0  0  0
  -30.6890  -20.9340   22.0730 H   0  0  0  0  0  0  0  0  0  0  0  0
  -29.8840  -22.4800   22.0640 H   0  0  0  0  0  0  0  0  0  0  0  0
  -27.8490  -21.7830   19.3810 H   0  0  0  0  0  0  0  0  0  0  0  0
  -29.5640  -18.5010   20.7590 C   0  0  0  0  0  3  0  0  0  0  0  0
  -29.9210  -19.7570   18.6950 C   0  0  0  0  0  3  0  0  0  0  0  0
  -30.3490  -17.3430   18.7620 C   0  0  0  0  0  3  0  0  0  0  0  0
  -29.5490  -19.7810   20.0550 C   0  0  0  0  0  0  0  0  0  0  0  0
  -29.9490  -17.2420   20.1150 C   0  0  0  0  0  0  0  0  0  0  0  0
  -30.3280  -18.5670   18.0670 C   0  0  0  0  0  0  0  0  0  0  0  0
  -30.7210  -18.6020   16.7730 F   0  0  0  0  0  0  0  0  0  0  0  0
  -30.5970  -14.7370   20.3560 C   0  0  0  0  0  0  0  0  0  0  0  0
  -30.3570  -12.4680   19.3450 C   0  0  0  0  0  2  0  0  0  0  0  0
  -29.4210  -12.5720   18.1190 C   0  0  0  0  0  2  0  0  0  0  0  0
  -27.9470  -12.4140   18.5410 C   0  0  0  0  0  2  0  0  0  0  0  0
  -27.5900  -13.2830   19.7750 C   0  0  0  0  0  3  0  0  0  0  0  0
  -28.6510  -13.1780   20.8960 C   0  0  0  0  0  2  0  0  0  0  0  0
  -29.9550  -13.5170   20.3120 N   0  0  0  0  0  0  0  0  0  0  0  0
  -31.7580  -14.8260   19.9410 O   0  0  0  0  0  0  0  0  0  0  0  0
  -29.8870  -15.8770   20.7130 N   0  0  0  0  0  0  0  0  0  0  0  0
  -29.0870  -15.6990   21.3010 H   0  0  0  0  0  0  0  0  0  0  0  0
  -25.1960  -13.8710   20.5000 C   0  0  0  0  0  0  0  0  0  0  0  0
  -24.1350  -13.0980   20.8750 C   0  0  0  0  0  0  0  0  0  0  0  0
  -24.6000  -11.7440   20.8480 C   0  0  0  0  0  0  0  0  0  0  0  0
  -26.2450  -12.9930   20.2670 N   0  0  0  0  0  0  0  0  0  0  0  0
  -25.8920  -11.7090   20.5390 N   0  0  0  0  0  0  0  0  0  0  0  0
  -23.8770  -10.4820   21.0420 C   0  0  0  0  0  0  0  0  0  0  0  0
  -24.3230   -9.5090   21.9640 C   0  0  0  0  0  3  0  0  0  0  0  0
  -23.5960   -8.3130   22.1520 C   0  0  0  0  0  3  0  0  0  0  0  0
  -22.4090   -8.0790   21.4180 C   0  0  0  0  0  0  0  0  0  0  0  0
  -21.9840   -9.0400   20.4840 C   0  0  0  0  0  3  0  0  0  0  0  0
  -22.7120  -10.2250   20.2940 C   0  0  0  0  0  3  0  0  0  0  0  0
  -21.6580   -6.9330   21.5100 O   0  0  0  0  0  0  0  0  0  0  0  0
  -21.6330   -6.1780   22.6560 C   0  0  0  0  0  0  0  0  0  0  0  0
  -21.2550   -6.7240   23.9020 C   0  0  0  0  0  3  0  0  0  0  0  0
  -21.1830   -5.8940   25.0400 C   0  0  0  0  0  3  0  0  0  0  0  0
  -21.4780   -4.5220   24.9310 C   0  0  0  0  0  0  0  0  0  0  0  0
  -21.8530   -3.9760   23.6920 C   0  0  0  0  0  3  0  0  0  0  0  0
  -21.9280   -4.8030   22.5580 C   0  0  0  0  0  0  0  0  0  0  0  0
  -22.2660   -4.2690   21.3590 F   0  0  0  0  0  0  0  0  0  0  0  0
  -21.4020   -3.7230   26.0220 F   0  0  0  0  0  0  0  0  0  0  0  0
  -22.7360  -13.5670   21.1460 C   0  0  0  0  0  0  0  0  0  0  0  0
  -22.0100  -12.8790   22.0210 N   0  0  0  0  0  0  0  0  0  0  0  0
  -22.2940  -14.5910   20.6220 O   0  0  0  0  0  0  0  0  0  0  0  0
  -22.3850  -12.0530   22.4680 H   0  0  0  0  0  0  0  0  0  0  0  0
  -21.0730  -13.1840   22.2450 H   0  0  0  0  0  0  0  0  0  0  0  0
  -25.3600  -15.2410   20.3160 N   0  0  0  0  0  0  0  0  0  0  0  0
  -24.6020  -15.9020   20.4370 H   0  0  0  0  0  0  0  0  0  0  0  0
  -26.2100  -15.6810   19.9960 H   0  0  0  0  0  0  0  0  0  0  0  0
  -28.7080  -23.6440   19.6450 C   0  0  0  0  0  3  0  0  0  0  0  0
  -28.1050  -23.6080   18.2280 C   0  0  0  0  0  0  0  0  0  0  0  0
  -28.4390  -24.7000   17.2400 C   0  0  0  0  0  1  0  0  0  0  0  0
  -27.3630  -22.6870   17.8560 O   0  0  0  0  0  0  0  0  0  0  0  0
  -28.0040  -24.8570   20.4650 C   0  0  0  0  0  2  0  0  0  0  0  0
  -28.2610  -26.3320   20.1810 O   0  0  0  0  0  0  0  0  0  0  0  0
  -24.6200  -31.8830   23.2340 C   0  0  0  0  0  0  0  0  0  0  0  0
  -27.1820  -27.2490   20.1770 C   0  0  0  0  0  0  0  0  0  0  0  0
  -23.4120  -30.4870   21.6050 C   0  0  0  0  0  3  0  0  0  0  0  0
  -24.8480  -28.9240   20.1700 C   0  0  0  0  0  0  0  0  0  0  0  0
  -25.9640  -30.7680   21.4230 C   0  0  0  0  0  2  0  0  0  0  0  0
  -26.0290  -29.3860   20.7680 C   0  0  0  0  0  0  0  0  0  0  0  0
  -27.2020  -28.5640   20.7560 C   0  0  0  0  0  3  0  0  0  0  0  0
  -25.9880  -26.8610   19.5380 C   0  0  0  0  0  3  0  0  0  0  0  0
  -24.8340  -27.6650   19.5450 C   0  0  0  0  0  3  0  0  0  0  0  0
  -23.6220  -29.8150   20.2230 C   0  0  0  0  0  2  0  0  0  0  0  0
  -24.6860  -31.0660   22.1400 N   0  0  0  0  0  0  0  0  0  0  0  0
  -23.5360  -32.1670   23.7660 O   0  0  0  0  0  0  0  0  0  0  0  0
  -22.7430  -29.4730   22.5670 C   0  0  0  0  0  0  0  0  0  0  0  0
  -21.4160  -29.2920   22.4380 N   0  0  0  0  0  0  0  0  0  0  0  0
  -23.4190  -28.8490   23.3910 O   0  0  0  0  0  0  0  0  0  0  0  0
  -20.9320  -29.8440   21.7430 H   0  0  0  0  0  0  0  0  0  0  0  0
  -18.0450  -28.0770   22.9370 C   0  0  0  0  0  0  0  0  0  0  0  0
  -20.6010  -28.3560   23.2130 C   0  0  0  0  0  3  0  0  0  0  0  0
  -20.7120  -26.9200   22.6510 C   0  0  0  0  0  2  0  0  0  0  0  0
  -19.6170  -26.5810   21.6360 C   0  0  0  0  0  2  0  0  0  0  0  0
  -18.2310  -26.7250   22.2710 C   0  0  0  0  0  2  0  0  0  0  0  0
  -19.1560  -28.8510   23.3640 C   0  0  0  0  0  0  0  0  0  0  0  0
  -18.9280  -30.1170   23.9470 C   0  0  0  0  0  3  0  0  0  0  0  0
  -17.6180  -30.6100   24.1040 C   0  0  0  0  0  3  0  0  0  0  0  0
  -16.5210  -29.8350   23.6920 C   0  0  0  0  0  3  0  0  0  0  0  0
  -16.7340  -28.5720   23.1140 C   0  0  0  0  0  3  0  0  0  0  0  0
  -25.9000  -32.5210   23.8530 C   0  0  0  0  0  3  0  0  0  0  0  0
  -26.4170  -31.7540   25.1340 C   0  0  1  0  0  0  0  0  0  0  0  0
  -25.3250  -31.5180   26.2060 C   0  0  0  0  0  1  0  0  0  0  0  0
  -27.0000  -30.3750   24.7480 C   0  0  0  0  0  1  0  0  0  0  0  0
  -27.5680  -32.5520   25.7870 C   0  0  0  0  0  1  0  0  0  0  0  0
  -25.5830  -33.9180   24.1860 N   0  0  0  0  0  0  0  0  0  0  0  0
  -25.9090  -34.9760   23.4310 C   0  0  0  0  0  0  0  0  0  0  0  0
  -26.5750  -34.8760   22.3970 O   0  0  0  0  0  0  0  0  0  0  0  0
  -24.9890  -34.0660   24.9890 H   0  0  0  0  0  0  0  0  0  0  0  0
  -24.1720  -36.7660   23.0920 C   0  0  0  0  0  1  0  0  0  0  0  0
  -25.4200  -36.3630   23.8940 C   0  0  0  0  0  3  0  0  0  0  0  0
  -27.5630  -37.2490   24.7060 C   0  0  0  0  0  1  0  0  0  0  0  0
  -26.4490  -37.4210   23.7740 N   0  0  0  0  0  0  0  0  0  0  0  0
  -26.0430  -38.3400   23.9310 H   0  0  0  0  0  0  0  0  0  0  0  0
  1  2  2  0
  2  5  1  0
  2  4  1  0
  3  1  1  0
  6  3  1  0
  8 10  1  0
  9 11  2  0
 10  1  1  0
 10  7  2  0
 11 22  1  0
 11  7  1  0
 12  8  2  0
 12  9  1  0
 13 12  1  0
 14 22  1  0
 15 20  1  0
 16 17  1  0
 16 15  1  0
 18 17  1  0
 18 27  1  0
 18 19  1  0
 20 14  1  0
 20 19  1  0
 21 14  2  0
 22 23  1  0
 24 25  2  0
 25 44  1  0
 26 25  1  0
 26 29  1  0
 27 24  1  0
 27 28  1  0
 28 26  2  0
 29 30  1  0
 30 31  2  0
 32 35  1  0
 32 31  1  0
 33 32  2  0
 34 33  1  0
 34 29  2  0
 35 36  1  0
 36 37  1  0
 37 38  2  0
 39 38  1  0
 39 43  1  0
 40 39  2  0
 41 36  2  0
 41 40  1  0
 42 41  1  0
 44 45  1  0
 45 48  1  0
 45 47  1  0
 46 44  2  0
 49 50  1  0
 49 24  1  0
 51 49  1  0
 52  3  1  0
 52 56  1  0
 53 52  1  0
 54 53  1  0
 55 53  2  0
 57 56  1  0
 58 69  2  0
 59 57  1  0
 59 64  1  0
 60 68  1  0
 60 70  1  0
 61 67  1  0
 61 63  1  0
 62 68  1  0
 63 62  1  0
 64 63  2  0
 65 66  1  0
 65 59  2  0
 66 61  2  0
 67 60  1  0
 68 58  1  0
 70 72  2  0
 71 70  1  0
 73 71  1  0
 74 83  2  0
 74 79  1  0
 75 71  1  0
 75 79  1  0
 76 75  1  0
 77 78  1  0
 77 76  1  0
 78 74  1  0
 79 80  2  0
 80 81  1  0
 82 81  2  0
 83 82  1  0
 84 58  1  0
 84 89  1  0
 84 85  1  0
 85 88  1  1
 85 86  1  0
 87 85  1  0
 89 92  1  0
 90 94  1  0
 90 89  1  0
 91 90  2  0
 94 93  1  0
 96 94  1  0
 96 97  1  0
 96 95  1  0
M  ISO  4  14 100  22 100  56 101  57 101
M  END
>  <TORSDO>  (40) 
F 20

>  <SCORE>  (40) 
-14.198

>  <name>  (40) 
40

>  <ligand_id>  (40) 
40

>  <original_smiles>  (40) 
[H]c1c([H])c([H])c2c(c1[H])C([H])([H])C([H])([H])C([H])([H])C2([H])N([H])C(=O)C1([H])N(C(=O)C([H])(N([H])C(=O)C([H])(N([H])C([H])([H])[H])C([H])([H])[H])C(C([H])([H])[H])(C([H])([H])[H])C([H])([H])[H])C([H])([H])c2c([H])c(OC([H])([H])C([H])(C(=O)C([H])([H])[H])[N+]([H])=C(c3c([H])c(F)c([H])c(N([H])C(=O)N4C([H])([H])C([H])([H])C([H])([H])C([H])(n5nc(-c6c([H])c([H])c(Oc7c([H])c([H])c(F)c([H])c7F)c([H])c6[H])c(C(=O)N([H])[H])c5N([H])[H])C4([H])[H])c3[H])N([H])[H])c([H])c([H])c2C1([H])[H]

>  <smiles>  (40) 
[H]c1c([H])c([H])c2c(c1[H])C([H])([H])C([H])([H])C([H])([H])C2([H])N([H])C(=O)C1([H])N(C(=O)C([H])(N([H])C(=O)C([H])(N([H])C([H])([H])[H])C([H])([H])[H])C(C([H])([H])[H])(C([H])([H])[H])C([H])([H])[H])C([H])([H])c2c([H])c(OC([H])([H])C([H])(C(=O)C([H])([H])[H])[N+]([H])=C(c3c([H])c(F)c([H])c(N([H])C(=O)N4C([H])([H])C([H])([H])C([H])([H])C([H])(n5nc(-c6c([H])c([H])c(Oc7c([H])c([H])c(F)c([H])c7F)c([H])c6[H])c(C(=O)N([H])[H])c5N([H])[H])C4([H])[H])c3[H])N([H])[H])c([H])c([H])c2C1([H])[H]

$$$$
41:0:0
     RDKit          3D

 96105  0  0  1  0  0  0  0  0999 V2000
  -28.6120  -22.4350   20.9580 C   0  0  0  0  0  3  0  0  0  0  0  0
  -28.6190  -23.6450   20.3130 C   0  0  0  0  0  0  0  0  0  0  0  0
  -29.5230  -21.8360   18.9490 C   0  0  0  0  0  2  0  0  0  0  0  0
  -29.2490  -23.4010   18.9520 C   0  0  1  0  0  0  0  0  0  0  0  0
  -28.2830  -23.7880   17.8230 C   0  0  0  0  0  1  0  0  0  0  0  0
  -30.5650  -24.1870   18.8240 C   0  0  0  0  0  1  0  0  0  0  0  0
  -29.0690  -21.2960   20.2350 N   0  0  0  0  0  0  0  0  0  0  0  0
  -30.2790  -20.0010   21.9270 C   0  0  0  0  0  3  0  0  0  0  0  0
  -29.4450  -18.6890   20.0590 C   0  0  0  0  0  3  0  0  0  0  0  0
  -30.6950  -17.5770   21.8310 C   0  0  0  0  0  3  0  0  0  0  0  0
  -29.5720  -20.0020   20.7040 C   0  0  0  0  0  0  0  0  0  0  0  0
  -30.8360  -18.8250   22.4760 C   0  0  0  0  0  0  0  0  0  0  0  0
  -29.9880  -17.4400   20.6160 C   0  0  0  0  0  0  0  0  0  0  0  0
  -30.5490  -14.9080   20.0550 C   0  0  0  0  0  0  0  0  0  0  0  0
  -30.3480  -12.6330   19.0040 C   0  0  0  0  0  2  0  0  0  0  0  0
  -29.3490  -12.6780   17.8270 C   0  0  0  0  0  2  0  0  0  0  0  0
  -27.9040  -12.4730   18.3260 C   0  0  0  0  0  2  0  0  0  0  0  0
  -27.5690  -13.3500   19.5620 C   0  0  0  0  0  3  0  0  0  0  0  0
  -28.6820  -13.2830   20.6280 C   0  0  0  0  0  2  0  0  0  0  0  0
  -29.9320  -13.6780   19.9670 N   0  0  0  0  0  0  0  0  0  0  0  0
  -31.7480  -15.0040   19.7770 O   0  0  0  0  0  0  0  0  0  0  0  0
  -29.7390  -16.0470   20.1240 N   0  0  0  0  0  0  0  0  0  0  0  0
  -28.7680  -15.8430   19.9480 H   0  0  0  0  0  0  0  0  0  0  0  0
  -25.2140  -13.9050   20.4120 C   0  0  0  0  0  0  0  0  0  0  0  0
  -24.1730  -13.1160   20.8180 C   0  0  0  0  0  0  0  0  0  0  0  0
  -24.6490  -11.7710   20.7490 C   0  0  0  0  0  0  0  0  0  0  0  0
  -26.2560  -13.0410   20.1160 N   0  0  0  0  0  0  0  0  0  0  0  0
  -25.9260  -11.7500   20.3840 N   0  0  0  0  0  0  0  0  0  0  0  0
  -23.9440  -10.4990   20.9530 C   0  0  0  0  0  0  0  0  0  0  0  0
  -24.3940   -9.5450   21.8920 C   0  0  0  0  0  3  0  0  0  0  0  0
  -23.6870   -8.3390   22.0830 C   0  0  0  0  0  3  0  0  0  0  0  0
  -22.5160   -8.0760   21.3340 C   0  0  0  0  0  0  0  0  0  0  0  0
  -22.0850   -9.0180   20.3830 C   0  0  0  0  0  3  0  0  0  0  0  0
  -22.7920  -10.2160   20.1910 C   0  0  0  0  0  3  0  0  0  0  0  0
  -21.7800   -6.9200   21.4340 O   0  0  0  0  0  0  0  0  0  0  0  0
  -21.7170   -6.2060   22.6030 C   0  0  0  0  0  0  0  0  0  0  0  0
  -21.2330   -6.7760   23.8000 C   0  0  0  0  0  3  0  0  0  0  0  0
  -21.1210   -5.9870   24.9620 C   0  0  0  0  0  3  0  0  0  0  0  0
  -21.4830   -4.6270   24.9270 C   0  0  0  0  0  0  0  0  0  0  0  0
  -21.9600   -4.0550   23.7340 C   0  0  0  0  0  3  0  0  0  0  0  0
  -22.0740   -4.8430   22.5760 C   0  0  0  0  0  0  0  0  0  0  0  0
  -22.5150   -4.2800   21.4240 F   0  0  0  0  0  0  0  0  0  0  0  0
  -21.3670   -3.8670   26.0410 F   0  0  0  0  0  0  0  0  0  0  0  0
  -22.7840  -13.5750   21.1530 C   0  0  0  0  0  0  0  0  0  0  0  0
  -22.0970  -12.8560   22.0340 N   0  0  0  0  0  0  0  0  0  0  0  0
  -22.3190  -14.6060   20.6700 O   0  0  0  0  0  0  0  0  0  0  0  0
  -22.4870  -12.0220   22.4450 H   0  0  0  0  0  0  0  0  0  0  0  0
  -21.1670  -13.1460   22.3010 H   0  0  0  0  0  0  0  0  0  0  0  0
  -25.3520  -15.2810   20.2460 N   0  0  0  0  0  0  0  0  0  0  0  0
  -24.5770  -15.9170   20.4010 H   0  0  0  0  0  0  0  0  0  0  0  0
  -26.1690  -15.7440   19.8710 H   0  0  0  0  0  0  0  0  0  0  0  0
  -31.5190  -18.8880   23.6910 N   0  0  0  0  0  0  0  0  0  0  0  0
  -31.7600  -19.7760   24.1230 H   0  0  0  0  0  0  0  0  0  0  0  0
  -32.0300  -18.0870   24.0510 H   0  0  0  0  0  0  0  0  0  0  0  0
  -27.9380  -25.0270   20.7830 C   0  0  0  0  0  2  0  0  0  0  0  0
  -28.2700  -26.4080   20.2500 O   0  0  0  0  0  0  0  0  0  0  0  0
  -24.5870  -31.9450   23.2350 C   0  0  0  0  0  0  0  0  0  0  0  0
  -27.2030  -27.3430   20.1950 C   0  0  0  0  0  0  0  0  0  0  0  0
  -23.3920  -30.5510   21.5870 C   0  0  0  0  0  3  0  0  0  0  0  0
  -24.8540  -29.0030   20.1580 C   0  0  0  0  0  0  0  0  0  0  0  0
  -25.9380  -30.8570   21.4200 C   0  0  0  0  0  2  0  0  0  0  0  0
  -26.0230  -29.4780   20.7680 C   0  0  0  0  0  0  0  0  0  0  0  0
  -27.2040  -28.6630   20.7710 C   0  0  0  0  0  3  0  0  0  0  0  0
  -26.0180  -26.9500   19.5390 C   0  0  0  0  0  3  0  0  0  0  0  0
  -24.8570  -27.7490   19.5290 C   0  0  0  0  0  3  0  0  0  0  0  0
  -23.6150  -29.8800   20.2060 C   0  0  0  0  0  2  0  0  0  0  0  0
  -24.6570  -31.1370   22.1360 N   0  0  0  0  0  0  0  0  0  0  0  0
  -23.5000  -32.2190   23.7660 O   0  0  0  0  0  0  0  0  0  0  0  0
  -22.7240  -29.5320   22.5420 C   0  0  0  0  0  0  0  0  0  0  0  0
  -21.3960  -29.3630   22.4190 N   0  0  0  0  0  0  0  0  0  0  0  0
  -23.4000  -28.8960   23.3550 O   0  0  0  0  0  0  0  0  0  0  0  0
  -20.9090  -29.9260   21.7360 H   0  0  0  0  0  0  0  0  0  0  0  0
  -18.0140  -28.1800   22.9340 C   0  0  0  0  0  0  0  0  0  0  0  0
  -20.5760  -28.4220   23.1870 C   0  0  0  0  0  3  0  0  0  0  0  0
  -20.6650  -26.9950   22.5990 C   0  0  0  0  0  2  0  0  0  0  0  0
  -19.5540  -26.6880   21.5890 C   0  0  0  0  0  2  0  0  0  0  0  0
  -18.1770  -26.8360   22.2440 C   0  0  0  0  0  2  0  0  0  0  0  0
  -19.1410  -28.9320   23.3630 C   0  0  0  0  0  0  0  0  0  0  0  0
  -18.9330  -30.1900   23.9700 C   0  0  0  0  0  3  0  0  0  0  0  0
  -17.6320  -30.6950   24.1510 C   0  0  0  0  0  3  0  0  0  0  0  0
  -16.5200  -29.9400   23.7370 C   0  0  0  0  0  3  0  0  0  0  0  0
  -16.7120  -28.6850   23.1340 C   0  0  0  0  0  3  0  0  0  0  0  0
  -25.8650  -32.5790   23.8650 C   0  0  0  0  0  3  0  0  0  0  0  0
  -26.3710  -31.8120   25.1490 C   0  0  1  0  0  0  0  0  0  0  0  0
  -25.2690  -31.5780   26.2080 C   0  0  0  0  0  1  0  0  0  0  0  0
  -26.9590  -30.4330   24.7690 C   0  0  0  0  0  1  0  0  0  0  0  0
  -27.5150  -32.6100   25.8170 C   0  0  0  0  0  1  0  0  0  0  0  0
  -25.5510  -33.9790   24.1910 N   0  0  0  0  0  0  0  0  0  0  0  0
  -25.8920  -35.0330   23.4380 C   0  0  0  0  0  0  0  0  0  0  0  0
  -26.5730  -34.9290   22.4130 O   0  0  0  0  0  0  0  0  0  0  0  0
  -24.9490  -34.1330   24.9860 H   0  0  0  0  0  0  0  0  0  0  0  0
  -24.1770  -36.8360   23.0640 C   0  0  0  0  0  1  0  0  0  0  0  0
  -25.4040  -36.4230   23.8930 C   0  0  0  0  0  3  0  0  0  0  0  0
  -27.5270  -37.2990   24.7640 C   0  0  0  0  0  1  0  0  0  0  0  0
  -26.4420  -37.4720   23.7990 N   0  0  0  0  0  0  0  0  0  0  0  0
  -26.0370  -38.3930   23.9400 H   0  0  0  0  0  0  0  0  0  0  0  0
  2 55  1  0
  2  1  2  0
  3  4  1  0
  3  7  1  0
  4  2  1  0
  4  5  1  6
  6  4  1  0
  7 11  1  0
  7  1  1  0
  8 12  1  0
  9 13  2  0
  9 11  1  0
 10 12  2  0
 11  8  2  0
 12 52  1  0
 13 10  1  0
 14 22  1  0
 15 20  1  0
 16 17  1  0
 16 15  1  0
 18 17  1  0
 18 27  1  0
 18 19  1  0
 20 14  1  0
 20 19  1  0
 21 14  2  0
 22 13  1  0
 23 22  1  0
 24 25  2  0
 25 44  1  0
 26 25  1  0
 26 29  1  0
 27 28  1  0
 27 24  1  0
 28 26  2  0
 29 30  1  0
 30 31  2  0
 32 35  1  0
 32 31  1  0
 33 32  2  0
 34 33  1  0
 34 29  2  0
 35 36  1  0
 36 37  1  0
 37 38  2  0
 39 38  1  0
 39 43  1  0
 40 39  2  0
 41 36  2  0
 41 40  1  0
 42 41  1  0
 44 45  1  0
 45 48  1  0
 45 47  1  0
 46 44  2  0
 49 50  1  0
 49 24  1  0
 51 49  1  0
 52 54  1  0
 52 53  1  0
 56 55  1  0
 57 68  2  0
 58 56  1  0
 58 63  1  0
 59 67  1  0
 59 69  1  0
 60 66  1  0
 60 62  1  0
 61 67  1  0
 62 63  2  0
 62 61  1  0
 64 58  2  0
 65 64  1  0
 65 60  2  0
 66 59  1  0
 67 57  1  0
 69 71  2  0
 70 69  1  0
 72 70  1  0
 73 82  2  0
 73 78  1  0
 74 70  1  0
 74 78  1  0
 75 74  1  0
 76 77  1  0
 76 75  1  0
 77 73  1  0
 78 79  2  0
 79 80  1  0
 81 80  2  0
 82 81  1  0
 83 57  1  0
 83 88  1  0
 83 84  1  0
 84 87  1  1
 84 85  1  0
 86 84  1  0
 88 91  1  0
 89 93  1  0
 89 88  1  0
 90 89  2  0
 93 92  1  0
 95 93  1  0
 95 96  1  0
 95 94  1  0
M  ISO  4  14 100  22 100  55 101  56 101
M  END
>  <TORSDO>  (41) 
F 19

>  <SCORE>  (41) 
-14.164

>  <name>  (41) 
41

>  <ligand_id>  (41) 
41

>  <original_smiles>  (41) 
[H]C1=C(C([H])([H])Oc2c([H])c([H])c3c(c2[H])C([H])([H])N(C(=O)C([H])(N([H])C(=O)C([H])(N([H])C([H])([H])[H])C([H])([H])[H])C(C([H])([H])[H])(C([H])([H])[H])C([H])([H])[H])C([H])(C(=O)N([H])C2([H])c4c([H])c([H])c([H])c([H])c4C([H])([H])C([H])([H])C2([H])[H])C3([H])[H])C(C([H])([H])[H])(C([H])([H])[H])C([H])([H])N1c1c([H])c(N([H])[H])c([H])c(N([H])C(=O)N2C([H])([H])C([H])([H])C([H])([H])C([H])(n3nc(-c4c([H])c([H])c(Oc5c([H])c([H])c(F)c([H])c5F)c([H])c4[H])c(C(=O)N([H])[H])c3N([H])[H])C2([H])[H])c1[H]

>  <smiles>  (41) 
[H]C1=C(C([H])([H])Oc2c([H])c([H])c3c(c2[H])C([H])([H])N(C(=O)C([H])(N([H])C(=O)C([H])(N([H])C([H])([H])[H])C([H])([H])[H])C(C([H])([H])[H])(C([H])([H])[H])C([H])([H])[H])C([H])(C(=O)N([H])C2([H])c4c([H])c([H])c([H])c([H])c4C([H])([H])C([H])([H])C2([H])[H])C3([H])[H])C(C([H])([H])[H])(C([H])([H])[H])C([H])([H])N1c1c([H])c(N([H])[H])c([H])c(N([H])C(=O)N2C([H])([H])C([H])([H])C([H])([H])C([H])(n3nc(-c4c([H])c([H])c(Oc5c([H])c([H])c(F)c([H])c5F)c([H])c4[H])c(C(=O)N([H])[H])c3N([H])[H])C2([H])[H])c1[H]

$$$$
42:0:0
     RDKit          3D

 95104  0  0  1  0  0  0  0  0999 V2000
  -28.8460  -22.4540   19.8320 C   0  0  0  0  0  3  0  0  0  0  0  0
  -28.8080  -23.6670   20.4730 C   0  0  0  0  0  0  0  0  0  0  0  0
  -29.5180  -23.3860   21.7060 C   0  0  0  0  0  0  0  0  0  0  0  0
  -29.7440  -24.2840   22.6760 C   0  0  0  0  0  1  0  0  0  0  0  0
  -29.9720  -21.9080   21.7470 C   0  0  0  0  0  3  0  0  0  0  0  0
  -29.4780  -21.3470   20.4860 N   0  0  0  0  0  0  0  0  0  0  0  0
  -29.8710  -19.8490   18.5910 C   0  0  0  0  0  3  0  0  0  0  0  0
  -30.4780  -17.4760   18.7510 C   0  0  0  0  0  3  0  0  0  0  0  0
  -30.1230  -18.8000   20.7670 C   0  0  0  0  0  3  0  0  0  0  0  0
  -30.1670  -18.6110   17.9690 C   0  0  0  0  0  0  0  0  0  0  0  0
  -29.8280  -20.0110   19.9950 C   0  0  0  0  0  0  0  0  0  0  0  0
  -30.4520  -17.5070   20.1610 C   0  0  0  0  0  0  0  0  0  0  0  0
  -31.2860  -15.0520   20.4440 C   0  0  0  0  0  0  0  0  0  0  0  0
  -31.0390  -12.8080   19.3760 C   0  0  0  0  0  2  0  0  0  0  0  0
  -30.1410  -12.9720   18.1290 C   0  0  0  0  0  2  0  0  0  0  0  0
  -28.6540  -12.8320   18.5110 C   0  0  0  0  0  2  0  0  0  0  0  0
  -28.2800  -13.6740   19.7610 C   0  0  0  0  0  3  0  0  0  0  0  0
  -29.3080  -13.5070   20.9020 C   0  0  0  0  0  2  0  0  0  0  0  0
  -30.6340  -13.8390   20.3620 N   0  0  0  0  0  0  0  0  0  0  0  0
  -32.4570  -15.1400   20.0630 O   0  0  0  0  0  0  0  0  0  0  0  0
  -30.5850  -16.1870   20.8420 N   0  0  0  0  0  0  0  0  0  0  0  0
  -29.7850  -15.9530   21.4090 H   0  0  0  0  0  0  0  0  0  0  0  0
  -25.8760  -14.2980   20.4010 C   0  0  0  0  0  0  0  0  0  0  0  0
  -24.7870  -13.5430   20.7390 C   0  0  0  0  0  0  0  0  0  0  0  0
  -25.2320  -12.1850   20.7330 C   0  0  0  0  0  0  0  0  0  0  0  0
  -26.9160  -13.4040   20.2050 N   0  0  0  0  0  0  0  0  0  0  0  0
  -26.5320  -12.1270   20.4670 N   0  0  0  0  0  0  0  0  0  0  0  0
  -24.4810  -10.9350   20.9060 C   0  0  0  0  0  0  0  0  0  0  0  0
  -24.8220   -9.9990   21.9060 C   0  0  0  0  0  3  0  0  0  0  0  0
  -24.0710   -8.8140   22.0670 C   0  0  0  0  0  3  0  0  0  0  0  0
  -22.9630   -8.5590   21.2240 C   0  0  0  0  0  0  0  0  0  0  0  0
  -22.6400   -9.4820   20.2140 C   0  0  0  0  0  3  0  0  0  0  0  0
  -23.3940  -10.6570   20.0530 C   0  0  0  0  0  3  0  0  0  0  0  0
  -22.1930   -7.4220   21.2880 O   0  0  0  0  0  0  0  0  0  0  0  0
  -21.9640   -6.7720   22.4750 C   0  0  0  0  0  0  0  0  0  0  0  0
  -21.3630   -7.4210   23.5760 C   0  0  0  0  0  3  0  0  0  0  0  0
  -21.0830   -6.6980   24.7520 C   0  0  0  0  0  3  0  0  0  0  0  0
  -21.3940   -5.3270   24.8270 C   0  0  0  0  0  0  0  0  0  0  0  0
  -21.9880   -4.6790   23.7300 C   0  0  0  0  0  3  0  0  0  0  0  0
  -22.2690   -5.3980   22.5560 C   0  0  0  0  0  0  0  0  0  0  0  0
  -22.8210   -4.7640   21.4940 F   0  0  0  0  0  0  0  0  0  0  0  0
  -21.1200   -4.6300   25.9530 F   0  0  0  0  0  0  0  0  0  0  0  0
  -23.3890  -14.0430   20.9610 C   0  0  0  0  0  0  0  0  0  0  0  0
  -22.6380  -13.3970   21.8480 N   0  0  0  0  0  0  0  0  0  0  0  0
  -22.9680  -15.0470   20.3860 O   0  0  0  0  0  0  0  0  0  0  0  0
  -22.9890  -12.5870   22.3370 H   0  0  0  0  0  0  0  0  0  0  0  0
  -21.7020  -13.7190   22.0410 H   0  0  0  0  0  0  0  0  0  0  0  0
  -26.0680  -15.6670   20.2250 N   0  0  0  0  0  0  0  0  0  0  0  0
  -25.3120  -16.3350   20.3140 H   0  0  0  0  0  0  0  0  0  0  0  0
  -26.9410  -16.0930   19.9420 H   0  0  0  0  0  0  0  0  0  0  0  0
  -30.1410  -18.4640   16.4830 C   0  0  0  0  0  0  0  0  0  0  0  0
  -29.2580  -19.4160   15.6800 C   0  0  0  0  0  1  0  0  0  0  0  0
  -30.7640  -17.5900   15.8770 O   0  0  0  0  0  0  0  0  0  0  0  0
  -28.0180  -24.9740   19.9640 C   0  0  0  0  0  2  0  0  0  0  0  0
  -28.3190  -26.4350   20.2700 O   0  0  0  0  0  0  0  0  0  0  0  0
  -24.6320  -32.0360   23.2100 C   0  0  0  0  0  0  0  0  0  0  0  0
  -27.2450  -27.3780   20.1870 C   0  0  0  0  0  0  0  0  0  0  0  0
  -23.4320  -30.6060   21.6020 C   0  0  0  0  0  3  0  0  0  0  0  0
  -24.8850  -29.0500   20.1790 C   0  0  0  0  0  0  0  0  0  0  0  0
  -25.9790  -30.9120   21.4110 C   0  0  0  0  0  2  0  0  0  0  0  0
  -26.0610  -29.5210   20.7740 C   0  0  0  0  0  0  0  0  0  0  0  0
  -27.2400  -28.6970   20.7740 C   0  0  0  0  0  3  0  0  0  0  0  0
  -26.0450  -27.0110   19.5290 C   0  0  0  0  0  3  0  0  0  0  0  0
  -24.8850  -27.8020   19.5450 C   0  0  0  0  0  3  0  0  0  0  0  0
  -23.6450  -29.9210   20.2270 C   0  0  0  0  0  2  0  0  0  0  0  0
  -24.7010  -31.2050   22.1280 N   0  0  0  0  0  0  0  0  0  0  0  0
  -23.5470  -32.3140   23.7450 O   0  0  0  0  0  0  0  0  0  0  0  0
  -22.7800  -29.5970   22.5800 C   0  0  0  0  0  0  0  0  0  0  0  0
  -21.4680  -29.3510   22.4180 N   0  0  0  0  0  0  0  0  0  0  0  0
  -23.4560  -29.0380   23.4480 O   0  0  0  0  0  0  0  0  0  0  0  0
  -20.9790  -29.8560   21.6920 H   0  0  0  0  0  0  0  0  0  0  0  0
  -18.1460  -27.9690   22.8240 C   0  0  0  0  0  0  0  0  0  0  0  0
  -20.6670  -28.4070   23.2000 C   0  0  0  0  0  3  0  0  0  0  0  0
  -20.8840  -26.9540   22.7170 C   0  0  0  0  0  2  0  0  0  0  0  0
  -19.8570  -26.5060   21.6710 C   0  0  0  0  0  2  0  0  0  0  0  0
  -18.4380  -26.5970   22.2360 C   0  0  0  0  0  2  0  0  0  0  0  0
  -19.1920  -28.8230   23.2610 C   0  0  0  0  0  0  0  0  0  0  0  0
  -18.8640  -30.0990   23.7700 C   0  0  0  0  0  3  0  0  0  0  0  0
  -17.5240  -30.5220   23.8460 C   0  0  0  0  0  3  0  0  0  0  0  0
  -16.4920  -29.6670   23.4240 C   0  0  0  0  0  3  0  0  0  0  0  0
  -16.8040  -28.3920   22.9190 C   0  0  0  0  0  3  0  0  0  0  0  0
  -25.9100  -32.6910   23.8140 C   0  0  0  0  0  3  0  0  0  0  0  0
  -26.4570  -31.9300   25.0830 C   0  0  1  0  0  0  0  0  0  0  0  0
  -25.3670  -31.6050   26.1330 C   0  0  0  0  0  1  0  0  0  0  0  0
  -27.1290  -30.5970   24.6800 C   0  0  0  0  0  1  0  0  0  0  0  0
  -27.5460  -32.7830   25.7750 C   0  0  0  0  0  1  0  0  0  0  0  0
  -25.5770  -34.0830   24.1540 N   0  0  0  0  0  0  0  0  0  0  0  0
  -25.9320  -35.1530   23.4290 C   0  0  0  0  0  0  0  0  0  0  0  0
  -26.6430  -35.0720   22.4230 O   0  0  0  0  0  0  0  0  0  0  0  0
  -24.9460  -34.2180   24.9300 H   0  0  0  0  0  0  0  0  0  0  0  0
  -24.2220  -36.9560   23.0300 C   0  0  0  0  0  1  0  0  0  0  0  0
  -25.4200  -36.5310   23.8930 C   0  0  0  0  0  3  0  0  0  0  0  0
  -27.5130  -37.3940   24.8470 C   0  0  0  0  0  1  0  0  0  0  0  0
  -26.4560  -37.5870   23.8580 N   0  0  0  0  0  0  0  0  0  0  0  0
  -26.0420  -38.5020   24.0110 H   0  0  0  0  0  0  0  0  0  0  0  0
  1  2  2  0
  1  6  1  0
  2  3  1  0
  3  5  2  0
  3  4  1  0
  6  5  1  0
  7 11  1  0
  8 12  2  0
 10  7  2  0
 10  8  1  0
 11  6  1  0
 11  9  2  0
 12  9  1  0
 12 21  1  0
 13 21  1  0
 14 19  1  0
 15 16  1  0
 15 14  1  0
 17 16  1  0
 17 26  1  0
 17 18  1  0
 19 13  1  0
 19 18  1  0
 20 13  2  0
 21 22  1  0
 23 24  2  0
 24 43  1  0
 25 24  1  0
 25 28  1  0
 26 23  1  0
 26 27  1  0
 27 25  2  0
 28 29  1  0
 29 30  2  0
 31 34  1  0
 31 30  1  0
 32 31  2  0
 33 32  1  0
 33 28  2  0
 34 35  1  0
 35 40  2  0
 35 36  1  0
 36 37  2  0
 37 38  1  0
 38 42  1  0
 39 38  2  0
 40 39  1  0
 41 40  1  0
 43 44  1  0
 44 47  1  0
 44 46  1  0
 45 43  2  0
 48 49  1  0
 48 23  1  0
 50 48  1  0
 51 10  1  0
 52 51  1  0
 53 51  2  0
 54 55  1  0
 54  2  1  0
 56 67  2  0
 57 55  1  0
 57 62  1  0
 58 66  1  0
 58 68  1  0
 59 65  1  0
 59 61  1  0
 60 66  1  0
 61 60  1  0
 62 61  2  0
 63 64  1  0
 63 57  2  0
 64 59  2  0
 65 58  1  0
 66 56  1  0
 68 70  2  0
 69 68  1  0
 71 69  1  0
 72 81  2  0
 72 77  1  0
 73 69  1  0
 73 77  1  0
 74 73  1  0
 75 76  1  0
 75 74  1  0
 76 72  1  0
 77 78  2  0
 78 79  1  0
 80 79  2  0
 81 80  1  0
 82 56  1  0
 82 87  1  0
 82 83  1  0
 83 86  1  1
 83 84  1  0
 85 83  1  0
 87 90  1  0
 88 92  1  0
 88 87  1  0
 89 88  2  0
 92 91  1  0
 94 92  1  0
 94 95  1  0
 94 93  1  0
M  ISO  4  13 100  21 100  54 101  55 101
M  END
>  <TORSDO>  (42) 
F 19

>  <SCORE>  (42) 
-13.556

>  <name>  (42) 
42

>  <ligand_id>  (42) 
42

>  <original_smiles>  (42) 
[H]C([H])=C1C(C([H])([H])Oc2c([H])c([H])c3c(c2[H])C([H])([H])N(C(=O)C([H])(N([H])C(=O)C([H])(N([H])C([H])([H])[H])C([H])([H])[H])C(C([H])([H])[H])(C([H])([H])[H])C([H])([H])[H])C([H])(C(=O)N([H])C2([H])c4c([H])c([H])c([H])c([H])c4C([H])([H])C([H])([H])C2([H])[H])C3([H])[H])=C([H])N(c2c([H])c(C(=O)C([H])([H])[H])c([H])c(N([H])C(=O)N3C([H])([H])C([H])([H])C([H])([H])C([H])(n4nc(-c5c([H])c([H])c(Oc6c([H])c([H])c(F)c([H])c6F)c([H])c5[H])c(C(=O)N([H])[H])c4N([H])[H])C3([H])[H])c2[H])C1([H])[H]

>  <smiles>  (42) 
[H]C([H])=C1C(C([H])([H])Oc2c([H])c([H])c3c(c2[H])C([H])([H])N(C(=O)C([H])(N([H])C(=O)C([H])(N([H])C([H])([H])[H])C([H])([H])[H])C(C([H])([H])[H])(C([H])([H])[H])C([H])([H])[H])C([H])(C(=O)N([H])C2([H])c4c([H])c([H])c([H])c([H])c4C([H])([H])C([H])([H])C2([H])[H])C3([H])[H])=C([H])N(c2c([H])c(C(=O)C([H])([H])[H])c([H])c(N([H])C(=O)N3C([H])([H])C([H])([H])C([H])([H])C([H])(n4nc(-c5c([H])c([H])c(Oc6c([H])c([H])c(F)c([H])c6F)c([H])c5[H])c(C(=O)N([H])[H])c4N([H])[H])C3([H])[H])c2[H])C1([H])[H]

$$$$
43:0:0
     RDKit          3D

 98106  0  0  1  0  0  0  0  0999 V2000
  -29.6230  -21.1500   19.5960 C   0  0  0  0  0  0  0  0  0  0  0  0
  -29.0870  -23.5870   20.1390 C   0  0  0  0  0  0  0  0  0  0  0  0
  -29.2680  -22.1670   20.4320 N   0  0  0  0  0  0  0  0  0  0  0  0
  -29.8990  -21.4020   18.3110 N   0  0  0  0  0  4  0  0  0  0  0  0
  -29.2330  -24.0220   18.9900 O   0  0  0  0  0  0  0  0  0  0  0  0
  -29.1110  -21.8620   21.3810 H   0  0  0  0  0  0  0  0  0  0  0  0
  -30.2450  -20.6760   17.7040 H   0  0  0  0  0  0  0  0  0  0  0  0
  -29.8200  -22.3520   17.9700 H   0  0  0  0  0  0  0  0  0  0  0  0
  -30.4230  -19.2960   21.1780 C   0  0  0  0  0  3  0  0  0  0  0  0
  -30.5360  -17.9140   21.5010 C   0  0  0  0  0  3  0  0  0  0  0  0
  -29.1360  -18.7110   19.2090 C   0  0  0  0  0  3  0  0  0  0  0  0
  -29.7210  -19.7190   20.0190 C   0  0  0  0  0  0  0  0  0  0  0  0
  -29.9640  -16.9160   20.6740 C   0  0  0  0  0  0  0  0  0  0  0  0
  -29.2520  -17.3370   19.5280 C   0  0  0  0  0  0  0  0  0  0  0  0
  -28.6510  -16.4190   18.7340 F   0  0  0  0  0  0  0  0  0  0  0  0
  -30.6540  -14.5480   20.3900 C   0  0  0  0  0  0  0  0  0  0  0  0
  -30.3670  -12.3800   19.2330 C   0  0  0  0  0  2  0  0  0  0  0  0
  -29.4110  -12.5870   18.0390 C   0  0  0  0  0  2  0  0  0  0  0  0
  -27.9420  -12.4410   18.4800 C   0  0  0  0  0  2  0  0  0  0  0  0
  -27.6170  -13.2650   19.7550 C   0  0  0  0  0  3  0  0  0  0  0  0
  -28.6820  -13.0340   20.8500 C   0  0  0  0  0  2  0  0  0  0  0  0
  -30.0030  -13.3530   20.2780 N   0  0  0  0  0  0  0  0  0  0  0  0
  -31.7600  -14.7500   19.8770 O   0  0  0  0  0  0  0  0  0  0  0  0
  -29.9880  -15.5260   21.0410 N   0  0  0  0  0  0  0  0  0  0  0  0
  -29.1570  -15.2050   21.5120 H   0  0  0  0  0  0  0  0  0  0  0  0
  -25.2280  -13.8790   20.4880 C   0  0  0  0  0  0  0  0  0  0  0  0
  -24.1600  -13.1100   20.8620 C   0  0  0  0  0  0  0  0  0  0  0  0
  -24.6140  -11.7550   20.8200 C   0  0  0  0  0  0  0  0  0  0  0  0
  -26.2670  -12.9930   20.2420 N   0  0  0  0  0  0  0  0  0  0  0  0
  -25.9010  -11.7120   20.4980 N   0  0  0  0  0  0  0  0  0  0  0  0
  -23.8850  -10.4960   21.0100 C   0  0  0  0  0  0  0  0  0  0  0  0
  -24.3040   -9.5350   21.9560 C   0  0  0  0  0  3  0  0  0  0  0  0
  -23.5740   -8.3400   22.1340 C   0  0  0  0  0  3  0  0  0  0  0  0
  -22.4120   -8.0960   21.3650 C   0  0  0  0  0  0  0  0  0  0  0  0
  -22.0110   -9.0470   20.4080 C   0  0  0  0  0  3  0  0  0  0  0  0
  -22.7410  -10.2330   20.2300 C   0  0  0  0  0  3  0  0  0  0  0  0
  -21.6570   -6.9520   21.4500 O   0  0  0  0  0  0  0  0  0  0  0  0
  -21.5750   -6.2270   22.6120 C   0  0  0  0  0  0  0  0  0  0  0  0
  -21.0750   -6.7900   23.8070 C   0  0  0  0  0  3  0  0  0  0  0  0
  -20.9430   -5.9900   24.9600 C   0  0  0  0  0  3  0  0  0  0  0  0
  -21.3040   -4.6300   24.9200 C   0  0  0  0  0  0  0  0  0  0  0  0
  -21.7980   -4.0670   23.7300 C   0  0  0  0  0  3  0  0  0  0  0  0
  -21.9310   -4.8640   22.5780 C   0  0  0  0  0  0  0  0  0  0  0  0
  -22.3880   -4.3130   21.4290 F   0  0  0  0  0  0  0  0  0  0  0  0
  -21.1700   -3.8600   26.0240 F   0  0  0  0  0  0  0  0  0  0  0  0
  -22.7680  -13.5920   21.1520 C   0  0  0  0  0  0  0  0  0  0  0  0
  -22.0400  -12.8900   22.0140 N   0  0  0  0  0  0  0  0  0  0  0  0
  -22.3320  -14.6270   20.6480 O   0  0  0  0  0  0  0  0  0  0  0  0
  -22.4030  -12.0510   22.4430 H   0  0  0  0  0  0  0  0  0  0  0  0
  -21.1070  -13.1970   22.2500 H   0  0  0  0  0  0  0  0  0  0  0  0
  -25.3990  -15.2490   20.3150 N   0  0  0  0  0  0  0  0  0  0  0  0
  -24.6330  -15.9050   20.4250 H   0  0  0  0  0  0  0  0  0  0  0  0
  -26.2370  -15.6780   19.9470 H   0  0  0  0  0  0  0  0  0  0  0  0
  -28.4690  -25.7240   21.3280 C   0  0  0  0  0  3  0  0  0  0  0  0
  -28.7270  -24.3840   21.3230 C   0  0  0  0  0  0  0  0  0  0  0  0
  -28.6410  -23.7210   22.4910 O   0  0  0  0  0  0  0  0  0  0  0  0
  -28.4000  -24.3490   23.1600 H   0  0  0  0  0  0  0  0  0  0  0  0
  -28.4730  -26.6280   20.2790 O   0  0  0  0  0  0  0  0  0  0  0  0
  -24.6250  -31.8900   23.2470 C   0  0  0  0  0  0  0  0  0  0  0  0
  -27.3590  -27.4440   20.2260 C   0  0  0  0  0  0  0  0  0  0  0  0
  -23.4620  -30.4750   21.5850 C   0  0  0  0  0  3  0  0  0  0  0  0
  -24.9590  -28.9510   20.1840 C   0  0  0  0  0  0  0  0  0  0  0  0
  -25.9920  -30.8520   21.4350 C   0  0  0  0  0  2  0  0  0  0  0  0
  -26.1040  -29.4800   20.7950 C   0  0  0  0  0  0  0  0  0  0  0  0
  -27.3110  -28.7340   20.8140 C   0  0  0  0  0  3  0  0  0  0  0  0
  -26.2020  -26.9390   19.6020 C   0  0  0  0  0  3  0  0  0  0  0  0
  -25.0050  -27.6810   19.5810 C   0  0  0  0  0  3  0  0  0  0  0  0
  -23.7060  -29.7980   20.2100 C   0  0  0  0  0  2  0  0  0  0  0  0
  -24.7100  -31.0870   22.1470 N   0  0  0  0  0  0  0  0  0  0  0  0
  -23.5310  -32.1520   23.7670 O   0  0  0  0  0  0  0  0  0  0  0  0
  -22.8010  -29.4490   22.5340 C   0  0  0  0  0  0  0  0  0  0  0  0
  -21.4760  -29.2710   22.3990 N   0  0  0  0  0  0  0  0  0  0  0  0
  -23.4780  -28.8170   23.3500 O   0  0  0  0  0  0  0  0  0  0  0  0
  -20.9910  -29.8350   21.7140 H   0  0  0  0  0  0  0  0  0  0  0  0
  -18.0920  -28.0990   22.8880 C   0  0  0  0  0  0  0  0  0  0  0  0
  -20.6530  -28.3290   23.1560 C   0  0  0  0  0  3  0  0  0  0  0  0
  -20.7400  -26.9050   22.5580 C   0  0  0  0  0  2  0  0  0  0  0  0
  -19.6330  -26.6080   21.5420 C   0  0  0  0  0  2  0  0  0  0  0  0
  -18.2550  -26.7580   22.1930 C   0  0  0  0  0  2  0  0  0  0  0  0
  -19.2190  -28.8430   23.3260 C   0  0  0  0  0  0  0  0  0  0  0  0
  -19.0140  -30.1000   23.9370 C   0  0  0  0  0  3  0  0  0  0  0  0
  -17.7140  -30.6120   24.1110 C   0  0  0  0  0  3  0  0  0  0  0  0
  -16.6020  -29.8630   23.6910 C   0  0  0  0  0  3  0  0  0  0  0  0
  -16.7920  -28.6090   23.0850 C   0  0  0  0  0  3  0  0  0  0  0  0
  -25.8930  -32.5350   23.8890 C   0  0  0  0  0  3  0  0  0  0  0  0
  -26.3900  -31.7760   25.1810 C   0  0  1  0  0  0  0  0  0  0  0  0
  -25.2770  -31.5350   26.2270 C   0  0  0  0  0  1  0  0  0  0  0  0
  -26.9930  -30.4010   24.8090 C   0  0  0  0  0  1  0  0  0  0  0  0
  -27.5190  -32.5850   25.8620 C   0  0  0  0  0  1  0  0  0  0  0  0
  -25.5700  -33.9340   24.2010 N   0  0  0  0  0  0  0  0  0  0  0  0
  -25.9020  -34.9800   23.4330 C   0  0  0  0  0  0  0  0  0  0  0  0
  -26.5850  -34.8700   22.4110 O   0  0  0  0  0  0  0  0  0  0  0  0
  -24.9630  -34.0910   24.9930 H   0  0  0  0  0  0  0  0  0  0  0  0
  -24.1690  -36.7570   23.0350 C   0  0  0  0  0  1  0  0  0  0  0  0
  -25.4000  -36.3690   23.8700 C   0  0  0  0  0  3  0  0  0  0  0  0
  -27.5100  -37.2820   24.7310 C   0  0  0  0  0  1  0  0  0  0  0  0
  -26.4260  -37.4280   23.7610 N   0  0  0  0  0  0  0  0  0  0  0  0
  -26.0110  -38.3470   23.8860 H   0  0  0  0  0  0  0  0  0  0  0  0
  1 12  1  0
  1  3  1  0
  2  3  1  0
  2 55  1  0
  3  6  1  0
  4  1  2  0
  5  2  2  0
  7  4  1  0
  8  4  1  0
  9 10  1  0
 11 14  2  0
 11 12  1  0
 12  9  2  0
 13 24  1  0
 13 10  2  0
 14 13  1  0
 15 14  1  0
 16 24  1  0
 17 22  1  0
 18 19  1  0
 18 17  1  0
 20 19  1  0
 20 29  1  0
 20 21  1  0
 22 16  1  0
 22 21  1  0
 23 16  2  0
 24 25  1  0
 26 27  2  0
 27 46  1  0
 28 27  1  0
 28 31  1  0
 29 26  1  0
 29 30  1  0
 30 28  2  0
 31 32  1  0
 32 33  2  0
 34 37  1  0
 34 33  1  0
 35 34  2  0
 36 35  1  0
 36 31  2  0
 37 38  1  0
 38 39  1  0
 39 40  2  0
 41 40  1  0
 41 45  1  0
 42 41  2  0
 43 38  2  0
 43 42  1  0
 44 43  1  0
 46 47  1  0
 47 50  1  0
 47 49  1  0
 48 46  2  0
 51 52  1  0
 51 26  1  0
 53 51  1  0
 55 54  2  0
 55 56  1  0
 56 57  1  0
 58 54  1  0
 59 70  2  0
 60 58  1  0
 60 65  1  0
 61 69  1  0
 61 71  1  0
 62 68  1  0
 62 64  1  0
 63 69  1  0
 64 65  2  0
 64 63  1  0
 66 60  2  0
 67 66  1  0
 67 62  2  0
 68 61  1  0
 69 59  1  0
 71 73  2  0
 72 71  1  0
 74 72  1  0
 75 84  2  0
 75 80  1  0
 76 72  1  0
 76 80  1  0
 77 76  1  0
 78 79  1  0
 78 77  1  0
 79 75  1  0
 80 81  2  0
 81 82  1  0
 83 82  2  0
 84 83  1  0
 85 59  1  0
 85 90  1  0
 85 86  1  0
 86 89  1  1
 86 87  1  0
 88 86  1  0
 90 93  1  0
 91 95  1  0
 91 90  1  0
 92 91  2  0
 95 94  1  0
 97 95  1  0
 97 98  1  0
 97 96  1  0
M  ISO  4  16 100  24 100  54 101  58 101
M  END
>  <TORSDO>  (43) 
F 19

>  <SCORE>  (43) 
-14.935

>  <name>  (43) 
43

>  <ligand_id>  (43) 
43

>  <original_smiles>  (43) 
[H]OC(C(=O)N([H])C(c1c([H])c([H])c(N([H])C(=O)N2C([H])([H])C([H])([H])C([H])([H])C([H])(n3nc(-c4c([H])c([H])c(Oc5c([H])c([H])c(F)c([H])c5F)c([H])c4[H])c(C(=O)N([H])[H])c3N([H])[H])C2([H])[H])c(F)c1[H])=[N+]([H])[H])=C([H])Oc1c([H])c([H])c2c(c1[H])C([H])([H])N(C(=O)C([H])(N([H])C(=O)C([H])(N([H])C([H])([H])[H])C([H])([H])[H])C(C([H])([H])[H])(C([H])([H])[H])C([H])([H])[H])C([H])(C(=O)N([H])C1([H])c3c([H])c([H])c([H])c([H])c3C([H])([H])C([H])([H])C1([H])[H])C2([H])[H]

>  <smiles>  (43) 
[H]OC(C(=O)N([H])C(c1c([H])c([H])c(N([H])C(=O)N2C([H])([H])C([H])([H])C([H])([H])C([H])(n3nc(-c4c([H])c([H])c(Oc5c([H])c([H])c(F)c([H])c5F)c([H])c4[H])c(C(=O)N([H])[H])c3N([H])[H])C2([H])[H])c(F)c1[H])=[N+]([H])[H])=C([H])Oc1c([H])c([H])c2c(c1[H])C([H])([H])N(C(=O)C([H])(N([H])C(=O)C([H])(N([H])C([H])([H])[H])C([H])([H])[H])C(C([H])([H])[H])(C([H])([H])[H])C([H])([H])[H])C([H])(C(=O)N([H])C1([H])c3c([H])c([H])c([H])c([H])c3C([H])([H])C([H])([H])C1([H])[H])C2([H])[H]

$$$$
44:0:0
     RDKit          3D

 95104  0  0  1  0  0  0  0  0999 V2000
  -29.6770  -22.8510   20.2280 C   0  0  0  0  0  0  0  0  0  0  0  0
  -31.2810  -21.2200   21.2190 C   0  0  0  0  0  0  0  0  0  0  0  0
  -30.5950  -24.8690   21.1540 C   0  0  0  0  0  2  0  0  0  0  0  0
  -31.4630  -23.6470   21.4600 C   0  0  0  0  0  2  0  0  0  0  0  0
  -29.6280  -24.4020   20.0740 C   0  0  0  0  0  3  0  0  0  0  0  0
  -30.7530  -22.4610   20.9540 N   0  0  0  0  0  0  0  0  0  0  0  0
  -28.8420  -22.1110   19.7020 O   0  0  0  0  0  0  0  0  0  0  0  0
  -32.3040  -21.1380   21.9120 O   0  0  0  0  0  0  0  0  0  0  0  0
  -29.6810  -19.2490   21.4510 C   0  0  0  0  0  3  0  0  0  0  0  0
  -29.4400  -17.8560   21.3230 C   0  0  0  0  0  3  0  0  0  0  0  0
  -31.2540  -17.6780   19.7390 C   0  0  0  0  0  3  0  0  0  0  0  0
  -30.7370  -19.8780   20.7500 C   0  0  0  0  0  0  0  0  0  0  0  0
  -30.2520  -17.0290   20.5070 C   0  0  0  0  0  0  0  0  0  0  0  0
  -31.5010  -19.0730   19.8640 C   0  0  0  0  0  0  0  0  0  0  0  0
  -32.5320  -19.6160   19.1730 F   0  0  0  0  0  0  0  0  0  0  0  0
  -30.7030  -14.5520   19.9960 C   0  0  0  0  0  0  0  0  0  0  0  0
  -30.3480  -12.3480   18.9250 C   0  0  0  0  0  2  0  0  0  0  0  0
  -29.3400  -12.5130   17.7690 C   0  0  0  0  0  2  0  0  0  0  0  0
  -27.8890  -12.3960   18.2840 C   0  0  0  0  0  2  0  0  0  0  0  0
  -27.6270  -13.2640   19.5420 C   0  0  0  0  0  3  0  0  0  0  0  0
  -28.7440  -13.0680   20.5930 C   0  0  0  0  0  2  0  0  0  0  0  0
  -30.0330  -13.3630   19.9440 N   0  0  0  0  0  0  0  0  0  0  0  0
  -31.8230  -14.6880   19.4950 O   0  0  0  0  0  0  0  0  0  0  0  0
  -29.9970  -15.6000   20.5020 N   0  0  0  0  0  0  0  0  0  0  0  0
  -29.1290  -15.3200   20.9320 H   0  0  0  0  0  0  0  0  0  0  0  0
  -25.3030  -13.9190   20.4350 C   0  0  0  0  0  0  0  0  0  0  0  0
  -24.2380  -13.1670   20.8500 C   0  0  0  0  0  0  0  0  0  0  0  0
  -24.6520  -11.8030   20.7480 C   0  0  0  0  0  0  0  0  0  0  0  0
  -26.3010  -13.0140   20.1050 N   0  0  0  0  0  0  0  0  0  0  0  0
  -25.9160  -11.7350   20.3520 N   0  0  0  0  0  0  0  0  0  0  0  0
  -23.9000  -10.5580   20.9500 C   0  0  0  0  0  0  0  0  0  0  0  0
  -24.3330   -9.5700   21.8620 C   0  0  0  0  0  3  0  0  0  0  0  0
  -23.5820   -8.3910   22.0510 C   0  0  0  0  0  3  0  0  0  0  0  0
  -22.3830   -8.1890   21.3270 C   0  0  0  0  0  0  0  0  0  0  0  0
  -21.9670   -9.1660   20.4030 C   0  0  0  0  0  3  0  0  0  0  0  0
  -22.7190  -10.3380   20.2140 C   0  0  0  0  0  3  0  0  0  0  0  0
  -21.6020   -7.0640   21.4250 O   0  0  0  0  0  0  0  0  0  0  0  0
  -21.5330   -6.3360   22.5860 C   0  0  0  0  0  0  0  0  0  0  0  0
  -21.0800   -6.9050   23.7960 C   0  0  0  0  0  3  0  0  0  0  0  0
  -20.9570   -6.1030   24.9480 C   0  0  0  0  0  3  0  0  0  0  0  0
  -21.2790   -4.7330   24.8910 C   0  0  0  0  0  0  0  0  0  0  0  0
  -21.7280   -4.1640   23.6860 C   0  0  0  0  0  3  0  0  0  0  0  0
  -21.8500   -4.9630   22.5350 C   0  0  0  0  0  0  0  0  0  0  0  0
  -22.2620   -4.4060   21.3710 F   0  0  0  0  0  0  0  0  0  0  0  0
  -21.1540   -3.9620   25.9970 F   0  0  0  0  0  0  0  0  0  0  0  0
  -22.8770  -13.6780   21.2290 C   0  0  0  0  0  0  0  0  0  0  0  0
  -22.1850  -12.9820   22.1260 N   0  0  0  0  0  0  0  0  0  0  0  0
  -22.4360  -14.7290   20.7660 O   0  0  0  0  0  0  0  0  0  0  0  0
  -22.5540  -12.1330   22.5270 H   0  0  0  0  0  0  0  0  0  0  0  0
  -21.2750  -13.3080   22.4190 H   0  0  0  0  0  0  0  0  0  0  0  0
  -25.4970  -15.2890   20.2890 N   0  0  0  0  0  0  0  0  0  0  0  0
  -24.7560  -15.9580   20.4660 H   0  0  0  0  0  0  0  0  0  0  0  0
  -26.3270  -15.7180   19.8990 H   0  0  0  0  0  0  0  0  0  0  0  0
  -28.2460  -25.1300   20.1530 C   0  0  0  0  0  2  0  0  0  0  0  0
  -28.3570  -26.5860   20.1530 O   0  0  0  0  0  0  0  0  0  0  0  0
  -24.5150  -31.8110   23.2100 C   0  0  0  0  0  0  0  0  0  0  0  0
  -27.1860  -27.3360   20.1410 C   0  0  0  0  0  0  0  0  0  0  0  0
  -23.3200  -30.3920   21.5780 C   0  0  0  0  0  3  0  0  0  0  0  0
  -24.7830  -28.8620   20.1540 C   0  0  0  0  0  0  0  0  0  0  0  0
  -25.8500  -30.7590   21.3780 C   0  0  0  0  0  2  0  0  0  0  0  0
  -25.9450  -29.3860   20.7340 C   0  0  0  0  0  0  0  0  0  0  0  0
  -27.1490  -28.6360   20.7120 C   0  0  0  0  0  3  0  0  0  0  0  0
  -25.9950  -26.8370   19.5610 C   0  0  0  0  0  3  0  0  0  0  0  0
  -24.8050  -27.5890   19.5630 C   0  0  0  0  0  3  0  0  0  0  0  0
  -23.5340  -29.7150   20.2010 C   0  0  0  0  0  2  0  0  0  0  0  0
  -24.5800  -31.0040   22.1120 N   0  0  0  0  0  0  0  0  0  0  0  0
  -23.4300  -32.0780   23.7470 O   0  0  0  0  0  0  0  0  0  0  0  0
  -22.6770  -29.3690   22.5430 C   0  0  0  0  0  0  0  0  0  0  0  0
  -21.3620  -29.1410   22.3890 N   0  0  0  0  0  0  0  0  0  0  0  0
  -23.3600  -28.7820   23.3860 O   0  0  0  0  0  0  0  0  0  0  0  0
  -20.8710  -29.6680   21.6800 H   0  0  0  0  0  0  0  0  0  0  0  0
  -18.0300  -27.7970   22.7950 C   0  0  0  0  0  0  0  0  0  0  0  0
  -20.5580  -28.1910   23.1600 C   0  0  0  0  0  3  0  0  0  0  0  0
  -20.7530  -26.7470   22.6420 C   0  0  0  0  0  2  0  0  0  0  0  0
  -19.7120  -26.3360   21.5960 C   0  0  0  0  0  2  0  0  0  0  0  0
  -18.2990  -26.4350   22.1760 C   0  0  0  0  0  2  0  0  0  0  0  0
  -19.0910  -28.6280   23.2420 C   0  0  0  0  0  0  0  0  0  0  0  0
  -18.7870  -29.8980   23.7760 C   0  0  0  0  0  3  0  0  0  0  0  0
  -17.4540  -30.3410   23.8680 C   0  0  0  0  0  3  0  0  0  0  0  0
  -16.4060  -29.5080   23.4380 C   0  0  0  0  0  3  0  0  0  0  0  0
  -16.6940  -28.2380   22.9080 C   0  0  0  0  0  3  0  0  0  0  0  0
  -25.7930  -32.4570   23.8250 C   0  0  0  0  0  3  0  0  0  0  0  0
  -25.4660  -33.8490   24.1650 N   0  0  0  0  0  0  0  0  0  0  0  0
  -25.7810  -34.9100   23.4120 C   0  0  0  0  0  0  0  0  0  0  0  0
  -26.4500  -34.8230   22.3790 O   0  0  0  0  0  0  0  0  0  0  0  0
  -24.8680  -33.9890   24.9670 H   0  0  0  0  0  0  0  0  0  0  0  0
  -24.0350  -36.6880   23.0660 C   0  0  0  0  0  1  0  0  0  0  0  0
  -25.2760  -36.2890   23.8800 C   0  0  0  0  0  3  0  0  0  0  0  0
  -27.3910  -37.1920   24.7390 C   0  0  0  0  0  1  0  0  0  0  0  0
  -26.2990  -37.3540   23.7840 N   0  0  0  0  0  0  0  0  0  0  0  0
  -25.8810  -38.2690   23.9300 H   0  0  0  0  0  0  0  0  0  0  0  0
  -26.3320  -31.6890   25.0950 C   0  0  1  0  0  0  0  0  0  0  0  0
  -25.2490  -31.4240   26.1680 C   0  0  0  0  0  1  0  0  0  0  0  0
  -26.9410  -30.3260   24.6940 C   0  0  0  0  0  1  0  0  0  0  0  0
  -27.4710  -32.5020   25.7550 C   0  0  0  0  0  1  0  0  0  0  0  0
  1  6  1  0
  2  8  2  0
  3  4  1  0
  5 54  1  0
  5  1  1  0
  5  3  1  0
  6  2  1  0
  6  4  1  0
  7  1  2  0
 10  9  1  0
 11 14  2  0
 11 13  1  0
 12  2  1  0
 12  9  2  0
 13 10  2  0
 14 12  1  0
 15 14  1  0
 16 24  1  0
 17 22  1  0
 18 19  1  0
 18 17  1  0
 20 19  1  0
 20 29  1  0
 20 21  1  0
 22 16  1  0
 22 21  1  0
 23 16  2  0
 24 13  1  0
 24 25  1  0
 26 27  2  0
 27 46  1  0
 28 27  1  0
 28 31  1  0
 29 30  1  0
 29 26  1  0
 30 28  2  0
 31 32  1  0
 32 33  2  0
 34 37  1  0
 34 33  1  0
 35 34  2  0
 36 35  1  0
 36 31  2  0
 37 38  1  0
 38 39  1  0
 39 40  2  0
 41 40  1  0
 41 45  1  0
 42 41  2  0
 43 38  2  0
 43 42  1  0
 44 43  1  0
 46 47  1  0
 47 50  1  0
 47 49  1  0
 48 46  2  0
 51 26  1  0
 51 52  1  0
 53 51  1  0
 55 54  1  0
 56 67  2  0
 57 55  1  0
 57 62  1  0
 58 66  1  0
 58 68  1  0
 59 65  1  0
 59 61  1  0
 60 66  1  0
 61 60  1  0
 62 61  2  0
 63 64  1  0
 63 57  2  0
 64 59  2  0
 65 58  1  0
 66 56  1  0
 68 70  2  0
 69 68  1  0
 71 69  1  0
 72 81  2  0
 72 77  1  0
 73 69  1  0
 73 77  1  0
 74 73  1  0
 75 76  1  0
 75 74  1  0
 76 72  1  0
 77 78  2  0
 78 79  1  0
 80 79  2  0
 81 80  1  0
 82 56  1  0
 82 83  1  0
 82 92  1  0
 83 86  1  0
 84 88  1  0
 84 83  1  0
 85 84  2  0
 88 87  1  0
 90 88  1  0
 90 91  1  0
 90 89  1  0
 92 95  1  1
 92 93  1  0
 94 92  1  0
M  ISO  4  16 100  24 100  54 101  55 101
M  END
>  <TORSDO>  (44) 
F 18

>  <SCORE>  (44) 
-13.723

>  <name>  (44) 
44

>  <ligand_id>  (44) 
44

>  <original_smiles>  (44) 
[H]c1c([H])c([H])c2c(c1[H])C([H])([H])C([H])([H])C([H])([H])C2([H])N([H])C(=O)C1([H])N(C(=O)C([H])(N([H])C(=O)C([H])(N([H])C([H])([H])[H])C([H])([H])[H])C(C([H])([H])[H])(C([H])([H])[H])C([H])([H])[H])C([H])([H])c2c([H])c(OC([H])([H])C3([H])C(=O)N(C(=O)c4c([H])c([H])c(N([H])C(=O)N5C([H])([H])C([H])([H])C([H])([H])C([H])(n6nc(-c7c([H])c([H])c(Oc8c([H])c([H])c(F)c([H])c8F)c([H])c7[H])c(C(=O)N([H])[H])c6N([H])[H])C5([H])[H])c([H])c4F)C([H])([H])C3([H])[H])c([H])c([H])c2C1([H])[H]

>  <smiles>  (44) 
[H]c1c([H])c([H])c2c(c1[H])C([H])([H])C([H])([H])C([H])([H])C2([H])N([H])C(=O)C1([H])N(C(=O)C([H])(N([H])C(=O)C([H])(N([H])C([H])([H])[H])C([H])([H])[H])C(C([H])([H])[H])(C([H])([H])[H])C([H])([H])[H])C([H])([H])c2c([H])c(OC([H])([H])C3([H])C(=O)N(C(=O)c4c([H])c([H])c(N([H])C(=O)N5C([H])([H])C([H])([H])C([H])([H])C([H])(n6nc(-c7c([H])c([H])c(Oc8c([H])c([H])c(F)c([H])c8F)c([H])c7[H])c(C(=O)N([H])[H])c6N([H])[H])C5([H])[H])c([H])c4F)C([H])([H])C3([H])[H])c([H])c([H])c2C1([H])[H]

$$$$
45:0:0
     RDKit          3D

 93101  0  0  1  0  0  0  0  0999 V2000
  -29.3890  -22.7080   21.1690 C   0  0  0  0  0  0  0  0  0  0  0  0
  -28.8180  -21.5730   20.7490 N   0  0  0  0  0  0  0  0  0  0  0  0
  -29.4340  -23.0560   22.3500 O   0  0  0  0  0  0  0  0  0  0  0  0
  -28.7710  -21.4580   19.7450 H   0  0  0  0  0  0  0  0  0  0  0  0
  -28.7700  -20.3130   21.4900 C   0  0  0  0  0  2  0  0  0  0  0  0
  -31.6950  -18.7980   19.5180 C   0  0  0  0  0  3  0  0  0  0  0  0
  -30.8290  -19.7230   20.1070 C   0  0  0  0  0  3  0  0  0  0  0  0
  -31.5080  -17.4270   19.7350 C   0  0  0  0  0  3  0  0  0  0  0  0
  -29.5550  -17.8980   21.1120 C   0  0  0  0  0  3  0  0  0  0  0  0
  -29.7450  -19.2870   20.9030 C   0  0  0  0  0  0  0  0  0  0  0  0
  -30.4320  -16.9410   20.5310 C   0  0  0  0  0  0  0  0  0  0  0  0
  -30.7770  -14.4820   20.1470 C   0  0  0  0  0  0  0  0  0  0  0  0
  -30.3710  -12.3400   19.0090 C   0  0  0  0  0  2  0  0  0  0  0  0
  -29.4010  -12.5900   17.8390 C   0  0  0  0  0  2  0  0  0  0  0  0
  -27.9430  -12.4600   18.3160 C   0  0  0  0  0  2  0  0  0  0  0  0
  -27.6590  -13.2730   19.6070 C   0  0  0  0  0  3  0  0  0  0  0  0
  -28.7540  -13.0600   20.6770 C   0  0  0  0  0  2  0  0  0  0  0  0
  -30.0600  -13.3290   20.0570 N   0  0  0  0  0  0  0  0  0  0  0  0
  -31.8930  -14.5790   19.6320 O   0  0  0  0  0  0  0  0  0  0  0  0
  -30.1700  -15.5360   20.7330 N   0  0  0  0  0  0  0  0  0  0  0  0
  -29.3190  -15.3100   21.2270 H   0  0  0  0  0  0  0  0  0  0  0  0
  -25.2880  -13.8550   20.4070 C   0  0  0  0  0  0  0  0  0  0  0  0
  -24.2340  -13.0750   20.8070 C   0  0  0  0  0  0  0  0  0  0  0  0
  -24.7000  -11.7260   20.7540 C   0  0  0  0  0  0  0  0  0  0  0  0
  -26.3260  -12.9830   20.1340 N   0  0  0  0  0  0  0  0  0  0  0  0
  -25.9790  -11.6960   20.3950 N   0  0  0  0  0  0  0  0  0  0  0  0
  -23.9840  -10.4610   20.9640 C   0  0  0  0  0  0  0  0  0  0  0  0
  -24.4300   -9.5070   21.9050 C   0  0  0  0  0  3  0  0  0  0  0  0
  -23.7160   -8.3070   22.1020 C   0  0  0  0  0  3  0  0  0  0  0  0
  -22.5410   -8.0490   21.3590 C   0  0  0  0  0  0  0  0  0  0  0  0
  -22.1120   -8.9910   20.4080 C   0  0  0  0  0  3  0  0  0  0  0  0
  -22.8250  -10.1850   20.2100 C   0  0  0  0  0  3  0  0  0  0  0  0
  -21.7990   -6.8990   21.4660 O   0  0  0  0  0  0  0  0  0  0  0  0
  -21.7370   -6.1880   22.6380 C   0  0  0  0  0  0  0  0  0  0  0  0
  -21.2790   -6.7720   23.8380 C   0  0  0  0  0  3  0  0  0  0  0  0
  -21.1670   -5.9890   25.0030 C   0  0  0  0  0  3  0  0  0  0  0  0
  -21.4970   -4.6210   24.9680 C   0  0  0  0  0  0  0  0  0  0  0  0
  -21.9450   -4.0340   23.7720 C   0  0  0  0  0  3  0  0  0  0  0  0
  -22.0600   -4.8150   22.6080 C   0  0  0  0  0  0  0  0  0  0  0  0
  -22.4740   -4.2410   21.4530 F   0  0  0  0  0  0  0  0  0  0  0  0
  -21.3780   -3.8660   26.0850 F   0  0  0  0  0  0  0  0  0  0  0  0
  -22.8480  -13.5460   21.1370 C   0  0  0  0  0  0  0  0  0  0  0  0
  -22.1540  -12.8440   22.0270 N   0  0  0  0  0  0  0  0  0  0  0  0
  -22.3880  -14.5760   20.6420 O   0  0  0  0  0  0  0  0  0  0  0  0
  -22.5390  -12.0100   22.4450 H   0  0  0  0  0  0  0  0  0  0  0  0
  -21.2260  -13.1460   22.2920 H   0  0  0  0  0  0  0  0  0  0  0  0
  -25.4470  -15.2250   20.2350 N   0  0  0  0  0  0  0  0  0  0  0  0
  -24.6950  -15.8870   20.3850 H   0  0  0  0  0  0  0  0  0  0  0  0
  -26.2990  -15.6600   19.8960 H   0  0  0  0  0  0  0  0  0  0  0  0
  -30.1110  -23.5050   20.0770 C   0  0  0  0  0  2  0  0  0  0  0  0
  -29.9400  -25.0270   20.1280 C   0  0  0  0  0  2  0  0  0  0  0  0
  -28.4940  -25.4890   19.9520 C   0  0  0  0  0  2  0  0  0  0  0  0
  -28.4940  -26.8950   20.1270 O   0  0  0  0  0  0  0  0  0  0  0  0
  -24.5910  -31.9140   23.2260 C   0  0  0  0  0  0  0  0  0  0  0  0
  -27.2840  -27.5430   20.1280 C   0  0  0  0  0  0  0  0  0  0  0  0
  -23.3930  -30.5090   21.5800 C   0  0  0  0  0  3  0  0  0  0  0  0
  -24.8640  -28.9960   20.1450 C   0  0  0  0  0  0  0  0  0  0  0  0
  -25.9130  -30.9020   21.3790 C   0  0  0  0  0  2  0  0  0  0  0  0
  -26.0100  -29.5370   20.7360 C   0  0  0  0  0  0  0  0  0  0  0  0
  -27.2200  -28.8160   20.7310 C   0  0  0  0  0  3  0  0  0  0  0  0
  -26.1170  -27.0040   19.5310 C   0  0  0  0  0  3  0  0  0  0  0  0
  -24.9100  -27.7270   19.5390 C   0  0  0  0  0  3  0  0  0  0  0  0
  -23.6050  -29.8330   20.1950 C   0  0  0  0  0  2  0  0  0  0  0  0
  -24.6500  -31.1220   22.1200 N   0  0  0  0  0  0  0  0  0  0  0  0
  -23.5110  -32.1760   23.7700 O   0  0  0  0  0  0  0  0  0  0  0  0
  -22.7640  -29.4740   22.5390 C   0  0  0  0  0  0  0  0  0  0  0  0
  -21.4390  -29.2910   22.4210 N   0  0  0  0  0  0  0  0  0  0  0  0
  -23.4590  -28.8440   23.3410 O   0  0  0  0  0  0  0  0  0  0  0  0
  -20.9370  -29.8640   21.7570 H   0  0  0  0  0  0  0  0  0  0  0  0
  -18.0720  -28.0990   22.9200 C   0  0  0  0  0  0  0  0  0  0  0  0
  -20.6280  -28.3460   23.1870 C   0  0  0  0  0  3  0  0  0  0  0  0
  -20.7250  -26.9210   22.5960 C   0  0  0  0  0  2  0  0  0  0  0  0
  -19.6250  -26.6230   21.5740 C   0  0  0  0  0  2  0  0  0  0  0  0
  -18.2400  -26.7630   22.2150 C   0  0  0  0  0  2  0  0  0  0  0  0
  -19.1940  -28.8500   23.3580 C   0  0  0  0  0  0  0  0  0  0  0  0
  -18.9810  -30.1060   23.9660 C   0  0  0  0  0  3  0  0  0  0  0  0
  -17.6790  -30.6110   24.1430 C   0  0  0  0  0  3  0  0  0  0  0  0
  -16.5700  -29.8530   23.7270 C   0  0  0  0  0  3  0  0  0  0  0  0
  -16.7660  -28.6000   23.1210 C   0  0  0  0  0  3  0  0  0  0  0  0
  -25.8750  -32.5510   23.8480 C   0  0  0  0  0  3  0  0  0  0  0  0
  -25.5660  -33.9480   24.1740 N   0  0  0  0  0  0  0  0  0  0  0  0
  -25.8990  -34.9970   23.4120 C   0  0  0  0  0  0  0  0  0  0  0  0
  -26.5810  -34.8930   22.3890 O   0  0  0  0  0  0  0  0  0  0  0  0
  -24.9560  -34.1050   24.9640 H   0  0  0  0  0  0  0  0  0  0  0  0
  -24.1740  -36.7820   23.0300 C   0  0  0  0  0  1  0  0  0  0  0  0
  -25.4030  -36.3830   23.8600 C   0  0  0  0  0  3  0  0  0  0  0  0
  -27.5220  -37.2720   24.7190 C   0  0  0  0  0  1  0  0  0  0  0  0
  -26.4330  -37.4370   23.7620 N   0  0  0  0  0  0  0  0  0  0  0  0
  -26.0220  -38.3570   23.8960 H   0  0  0  0  0  0  0  0  0  0  0  0
  -26.4010  -31.7790   25.1210 C   0  0  1  0  0  0  0  0  0  0  0  0
  -25.3140  -31.5350   26.1900 C   0  0  0  0  0  1  0  0  0  0  0  0
  -26.9960  -30.4060   24.7250 C   0  0  0  0  0  1  0  0  0  0  0  0
  -27.5500  -32.5780   25.7810 C   0  0  0  0  0  1  0  0  0  0  0  0
  1  3  2  0
  2  1  1  0
  2  5  1  0
  4  2  1  0
  6  8  2  0
  6  7  1  0
  7 10  2  0
  8 11  1  0
 10  9  1  0
 10  5  1  0
 11 20  1  0
 11  9  2  0
 12 20  1  0
 13 18  1  0
 14 15  1  0
 14 13  1  0
 16 15  1  0
 16 25  1  0
 16 17  1  0
 18 12  1  0
 18 17  1  0
 19 12  2  0
 20 21  1  0
 22 23  2  0
 23 42  1  0
 24 23  1  0
 24 27  1  0
 25 26  1  0
 25 22  1  0
 26 24  2  0
 27 28  1  0
 28 29  2  0
 30 33  1  0
 30 29  1  0
 31 30  2  0
 32 31  1  0
 32 27  2  0
 33 34  1  0
 34 35  1  0
 35 36  2  0
 37 36  1  0
 37 41  1  0
 38 37  2  0
 39 34  2  0
 39 38  1  0
 40 39  1  0
 42 43  1  0
 43 46  1  0
 43 45  1  0
 44 42  2  0
 47 48  1  0
 47 22  1  0
 49 47  1  0
 50 51  1  0
 50  1  1  0
 52 53  1  0
 52 51  1  0
 53 55  1  0
 54 65  2  0
 55 60  1  0
 56 64  1  0
 56 66  1  0
 57 63  1  0
 57 59  1  0
 58 64  1  0
 59 58  1  0
 60 59  2  0
 61 62  1  0
 61 55  2  0
 62 57  2  0
 63 56  1  0
 64 54  1  0
 66 68  2  0
 67 66  1  0
 69 67  1  0
 70 79  2  0
 70 75  1  0
 71 67  1  0
 71 75  1  0
 72 71  1  0
 73 74  1  0
 73 72  1  0
 74 70  1  0
 75 76  2  0
 76 77  1  0
 78 77  2  0
 79 78  1  0
 80 54  1  0
 80 81  1  0
 80 90  1  0
 81 84  1  0
 82 86  1  0
 82 81  1  0
 83 82  2  0
 86 85  1  0
 88 86  1  0
 88 89  1  0
 88 87  1  0
 90 93  1  1
 90 91  1  0
 92 90  1  0
M  ISO  4  12 100  20 100  52 101  53 101
M  END
>  <TORSDO>  (45) 
F 21

>  <SCORE>  (45) 
-12.996

>  <name>  (45) 
45

>  <ligand_id>  (45) 
45

>  <original_smiles>  (45) 
[H]c1c([H])c(N([H])C(=O)N2C([H])([H])C([H])([H])C([H])([H])C([H])(n3nc(-c4c([H])c([H])c(Oc5c([H])c([H])c(F)c([H])c5F)c([H])c4[H])c(C(=O)N([H])[H])c3N([H])[H])C2([H])[H])c([H])c(C([H])([H])N([H])C(=O)C([H])([H])C([H])([H])C([H])([H])Oc2c([H])c([H])c3c(c2[H])C([H])([H])N(C(=O)C([H])(N([H])C(=O)C([H])(N([H])C([H])([H])[H])C([H])([H])[H])C(C([H])([H])[H])(C([H])([H])[H])C([H])([H])[H])C([H])(C(=O)N([H])C2([H])c4c([H])c([H])c([H])c([H])c4C([H])([H])C([H])([H])C2([H])[H])C3([H])[H])c1[H]

>  <smiles>  (45) 
[H]c1c([H])c(N([H])C(=O)N2C([H])([H])C([H])([H])C([H])([H])C([H])(n3nc(-c4c([H])c([H])c(Oc5c([H])c([H])c(F)c([H])c5F)c([H])c4[H])c(C(=O)N([H])[H])c3N([H])[H])C2([H])[H])c([H])c(C([H])([H])N([H])C(=O)C([H])([H])C([H])([H])C([H])([H])Oc2c([H])c([H])c3c(c2[H])C([H])([H])N(C(=O)C([H])(N([H])C(=O)C([H])(N([H])C([H])([H])[H])C([H])([H])[H])C(C([H])([H])[H])(C([H])([H])[H])C([H])([H])[H])C([H])(C(=O)N([H])C2([H])c4c([H])c([H])c([H])c([H])c4C([H])([H])C([H])([H])C2([H])[H])C3([H])[H])c1[H]

$$$$
46:0:0
     RDKit          3D

 94103  0  0  1  0  0  0  0  0999 V2000
  -27.3950  -21.2390   19.9990 C   0  0  0  0  0  2  0  0  0  0  0  0
  -26.9650  -22.6930   20.2590 C   0  0  0  0  0  3  0  0  0  0  0  0
  -28.2530  -23.5520   20.1510 C   0  0  0  0  0  3  0  0  0  0  0  0
  -25.8010  -23.1240   19.3550 C   0  0  0  0  0  1  0  0  0  0  0  0
  -28.6970  -21.1260   20.6190 N   0  0  0  0  0  0  0  0  0  0  0  0
  -29.2190  -22.5390   20.6840 O   0  0  0  0  0  0  0  0  0  0  0  0
  -31.1980  -17.8000   19.3460 C   0  0  0  0  0  3  0  0  0  0  0  0
  -31.4350  -19.1260   18.9250 C   0  0  0  0  0  3  0  0  0  0  0  0
  -29.2970  -18.6010   20.6030 C   0  0  0  0  0  3  0  0  0  0  0  0
  -29.5330  -19.9980   20.2100 C   0  0  0  0  0  0  0  0  0  0  0  0
  -30.1210  -17.4590   20.1950 C   0  0  0  0  0  0  0  0  0  0  0  0
  -30.6190  -20.2160   19.3220 C   0  0  0  0  0  0  0  0  0  0  0  0
  -30.6410  -14.8560   20.3160 C   0  0  0  0  0  0  0  0  0  0  0  0
  -30.4400  -12.5660   19.3260 C   0  0  0  0  0  2  0  0  0  0  0  0
  -29.5030  -12.6400   18.1010 C   0  0  0  0  0  2  0  0  0  0  0  0
  -28.0350  -12.4530   18.5360 C   0  0  0  0  0  2  0  0  0  0  0  0
  -27.6610  -13.3380   19.7540 C   0  0  0  0  0  3  0  0  0  0  0  0
  -28.7240  -13.2670   20.8730 C   0  0  0  0  0  2  0  0  0  0  0  0
  -30.0140  -13.6260   20.2740 N   0  0  0  0  0  0  0  0  0  0  0  0
  -31.8320  -14.9150   19.9960 O   0  0  0  0  0  0  0  0  0  0  0  0
  -29.8840  -16.0130   20.5470 N   0  0  0  0  0  0  0  0  0  0  0  0
  -28.9640  -15.8140   20.9170 H   0  0  0  0  0  0  0  0  0  0  0  0
  -25.2800  -13.9150   20.5080 C   0  0  0  0  0  0  0  0  0  0  0  0
  -24.2200  -13.1370   20.8820 C   0  0  0  0  0  0  0  0  0  0  0  0
  -24.6860  -11.7870   20.8400 C   0  0  0  0  0  0  0  0  0  0  0  0
  -26.3230  -13.0400   20.2550 N   0  0  0  0  0  0  0  0  0  0  0  0
  -25.9740  -11.7540   20.5190 N   0  0  0  0  0  0  0  0  0  0  0  0
  -23.9620  -10.5220   21.0280 C   0  0  0  0  0  0  0  0  0  0  0  0
  -24.3900   -9.5570   21.9660 C   0  0  0  0  0  3  0  0  0  0  0  0
  -23.6660   -8.3590   22.1420 C   0  0  0  0  0  3  0  0  0  0  0  0
  -22.4990   -8.1160   21.3780 C   0  0  0  0  0  0  0  0  0  0  0  0
  -22.0910   -9.0690   20.4290 C   0  0  0  0  0  3  0  0  0  0  0  0
  -22.8160  -10.2590   20.2510 C   0  0  0  0  0  3  0  0  0  0  0  0
  -21.7480   -6.9680   21.4620 O   0  0  0  0  0  0  0  0  0  0  0  0
  -21.6780   -6.2370   22.6200 C   0  0  0  0  0  0  0  0  0  0  0  0
  -21.2040   -6.7960   23.8270 C   0  0  0  0  0  3  0  0  0  0  0  0
  -21.0820   -5.9900   24.9770 C   0  0  0  0  0  3  0  0  0  0  0  0
  -21.4250   -4.6250   24.9210 C   0  0  0  0  0  0  0  0  0  0  0  0
  -21.8920   -4.0660   23.7190 C   0  0  0  0  0  3  0  0  0  0  0  0
  -22.0150   -4.8700   22.5700 C   0  0  0  0  0  0  0  0  0  0  0  0
  -22.4460   -4.3200   21.4090 F   0  0  0  0  0  0  0  0  0  0  0  0
  -21.3010   -3.8490   26.0220 F   0  0  0  0  0  0  0  0  0  0  0  0
  -22.8240  -13.6100   21.1630 C   0  0  0  0  0  0  0  0  0  0  0  0
  -22.0980  -12.9060   22.0270 N   0  0  0  0  0  0  0  0  0  0  0  0
  -22.3830  -14.6410   20.6550 O   0  0  0  0  0  0  0  0  0  0  0  0
  -22.4640  -12.0720   22.4610 H   0  0  0  0  0  0  0  0  0  0  0  0
  -21.1630  -13.2080   22.2560 H   0  0  0  0  0  0  0  0  0  0  0  0
  -25.4380  -15.2880   20.3330 N   0  0  0  0  0  0  0  0  0  0  0  0
  -24.6670  -15.9370   20.4420 H   0  0  0  0  0  0  0  0  0  0  0  0
  -26.2680  -15.7260   19.9540 H   0  0  0  0  0  0  0  0  0  0  0  0
  -31.6030  -21.6660   17.6670 C   0  0  0  0  0  1  0  0  0  0  0  0
  -30.8360  -21.4970   18.8520 O   0  0  0  0  0  0  0  0  0  0  0  0
  -28.1280  -25.0290   20.8670 C   0  0  0  0  0  2  0  0  0  0  0  0
  -28.3250  -26.3970   20.2470 O   0  0  0  0  0  0  0  0  0  0  0  0
  -24.6020  -31.9170   23.2180 C   0  0  0  0  0  0  0  0  0  0  0  0
  -27.2430  -27.3070   20.2210 C   0  0  0  0  0  0  0  0  0  0  0  0
  -23.4220  -30.5110   21.5680 C   0  0  0  0  0  3  0  0  0  0  0  0
  -24.8930  -28.9550   20.1620 C   0  0  0  0  0  0  0  0  0  0  0  0
  -25.9650  -30.8220   21.4170 C   0  0  0  0  0  2  0  0  0  0  0  0
  -26.0560  -29.4370   20.7760 C   0  0  0  0  0  0  0  0  0  0  0  0
  -27.2400  -28.6260   20.7920 C   0  0  0  0  0  3  0  0  0  0  0  0
  -26.0680  -26.9010   19.5660 C   0  0  0  0  0  3  0  0  0  0  0  0
  -24.9040  -27.6960   19.5400 C   0  0  0  0  0  3  0  0  0  0  0  0
  -23.6570  -29.8350   20.1910 C   0  0  0  0  0  2  0  0  0  0  0  0
  -24.6810  -31.1040   22.1230 N   0  0  0  0  0  0  0  0  0  0  0  0
  -23.5110  -32.1930   23.7410 O   0  0  0  0  0  0  0  0  0  0  0  0
  -22.7500  -29.4960   22.5250 C   0  0  0  0  0  0  0  0  0  0  0  0
  -21.4220  -29.3260   22.3990 N   0  0  0  0  0  0  0  0  0  0  0  0
  -23.4250  -28.8610   23.3410 O   0  0  0  0  0  0  0  0  0  0  0  0
  -20.9350  -29.8890   21.7150 H   0  0  0  0  0  0  0  0  0  0  0  0
  -18.0330  -28.1690   22.9210 C   0  0  0  0  0  0  0  0  0  0  0  0
  -20.5980  -28.3910   23.1670 C   0  0  0  0  0  3  0  0  0  0  0  0
  -20.6740  -26.9660   22.5720 C   0  0  0  0  0  2  0  0  0  0  0  0
  -19.5570  -26.6720   21.5660 C   0  0  0  0  0  2  0  0  0  0  0  0
  -18.1840  -26.8280   22.2240 C   0  0  0  0  0  2  0  0  0  0  0  0
  -19.1670  -28.9100   23.3490 C   0  0  0  0  0  0  0  0  0  0  0  0
  -18.9720  -30.1670   23.9610 C   0  0  0  0  0  3  0  0  0  0  0  0
  -17.6750  -30.6820   24.1500 C   0  0  0  0  0  3  0  0  0  0  0  0
  -16.5560  -29.9380   23.7400 C   0  0  0  0  0  3  0  0  0  0  0  0
  -16.7370  -28.6840   23.1300 C   0  0  0  0  0  3  0  0  0  0  0  0
  -25.8760  -32.5570   23.8520 C   0  0  0  0  0  3  0  0  0  0  0  0
  -26.3790  -31.7930   25.1400 C   0  0  1  0  0  0  0  0  0  0  0  0
  -25.2740  -31.5590   26.1960 C   0  0  0  0  0  1  0  0  0  0  0  0
  -26.9700  -30.4140   24.7660 C   0  0  0  0  0  1  0  0  0  0  0  0
  -27.5190  -32.5940   25.8110 C   0  0  0  0  0  1  0  0  0  0  0  0
  -25.5570  -33.9570   24.1750 N   0  0  0  0  0  0  0  0  0  0  0  0
  -25.8890  -35.0080   23.4150 C   0  0  0  0  0  0  0  0  0  0  0  0
  -26.5680  -34.9040   22.3890 O   0  0  0  0  0  0  0  0  0  0  0  0
  -24.9640  -34.1110   24.9770 H   0  0  0  0  0  0  0  0  0  0  0  0
  -24.1690  -36.8020   23.0280 C   0  0  0  0  0  1  0  0  0  0  0  0
  -25.3930  -36.3970   23.8640 C   0  0  0  0  0  3  0  0  0  0  0  0
  -27.5100  -37.2870   24.7370 C   0  0  0  0  0  1  0  0  0  0  0  0
  -26.4270  -37.4510   23.7700 N   0  0  0  0  0  0  0  0  0  0  0  0
  -26.0170  -38.3720   23.9060 H   0  0  0  0  0  0  0  0  0  0  0  0
  1  2  1  0
  1  5  1  0
  2  4  1  0
  3  2  1  0
  3  6  1  0
  3 53  1  0
  5  6  1  0
  7 11  1  0
  8 12  1  0
  8  7  2  0
 10  9  1  0
 10  5  1  0
 11 21  1  0
 11  9  2  0
 12 10  2  0
 13 21  1  0
 14 19  1  0
 15 16  1  0
 15 14  1  0
 17 16  1  0
 17 26  1  0
 17 18  1  0
 19 13  1  0
 19 18  1  0
 20 13  2  0
 21 22  1  0
 23 24  2  0
 24 43  1  0
 25 24  1  0
 25 28  1  0
 26 23  1  0
 26 27  1  0
 27 25  2  0
 28 29  1  0
 29 30  2  0
 31 34  1  0
 31 30  1  0
 32 31  2  0
 33 32  1  0
 33 28  2  0
 34 35  1  0
 35 36  1  0
 36 37  2  0
 38 37  1  0
 38 42  1  0
 39 38  2  0
 40 35  2  0
 40 39  1  0
 41 40  1  0
 43 44  1  0
 44 47  1  0
 44 46  1  0
 45 43  2  0
 48 49  1  0
 48 23  1  0
 50 48  1  0
 51 52  1  0
 52 12  1  0
 54 53  1  0
 55 66  2  0
 56 54  1  0
 56 61  1  0
 57 65  1  0
 57 67  1  0
 58 64  1  0
 58 60  1  0
 59 65  1  0
 60 61  2  0
 60 59  1  0
 62 56  2  0
 63 62  1  0
 63 58  2  0
 64 57  1  0
 65 55  1  0
 67 69  2  0
 68 67  1  0
 70 68  1  0
 71 80  2  0
 71 76  1  0
 72 68  1  0
 72 76  1  0
 73 72  1  0
 74 75  1  0
 74 73  1  0
 75 71  1  0
 76 77  2  0
 77 78  1  0
 79 78  2  0
 80 79  1  0
 81 55  1  0
 81 86  1  0
 81 82  1  0
 82 85  1  1
 82 83  1  0
 84 82  1  0
 86 89  1  0
 87 91  1  0
 87 86  1  0
 88 87  2  0
 91 90  1  0
 93 91  1  0
 93 94  1  0
 93 92  1  0
M  ISO  4  13 100  21 100  53 101  54 101
M  END
>  <TORSDO>  (46) 
F 19

>  <SCORE>  (46) 
-14.321

>  <name>  (46) 
46

>  <ligand_id>  (46) 
46

>  <original_smiles>  (46) 
[H]c1c([H])c([H])c2c(c1[H])C([H])([H])C([H])([H])C([H])([H])C2([H])N([H])C(=O)C1([H])N(C(=O)C([H])(N([H])C(=O)C([H])(N([H])C([H])([H])[H])C([H])([H])[H])C(C([H])([H])[H])(C([H])([H])[H])C([H])([H])[H])C([H])([H])c2c([H])c(OC([H])([H])C3([H])ON(c4c([H])c(N([H])C(=O)N5C([H])([H])C([H])([H])C([H])([H])C([H])(n6nc(-c7c([H])c([H])c(Oc8c([H])c([H])c(F)c([H])c8F)c([H])c7[H])c(C(=O)N([H])[H])c6N([H])[H])C5([H])[H])c([H])c([H])c4OC([H])([H])[H])C([H])([H])C3([H])C([H])([H])[H])c([H])c([H])c2C1([H])[H]

>  <smiles>  (46) 
[H]c1c([H])c([H])c2c(c1[H])C([H])([H])C([H])([H])C([H])([H])C2([H])N([H])C(=O)C1([H])N(C(=O)C([H])(N([H])C(=O)C([H])(N([H])C([H])([H])[H])C([H])([H])[H])C(C([H])([H])[H])(C([H])([H])[H])C([H])([H])[H])C([H])([H])c2c([H])c(OC([H])([H])C3([H])ON(c4c([H])c(N([H])C(=O)N5C([H])([H])C([H])([H])C([H])([H])C([H])(n6nc(-c7c([H])c([H])c(Oc8c([H])c([H])c(F)c([H])c8F)c([H])c7[H])c(C(=O)N([H])[H])c6N([H])[H])C5([H])[H])c([H])c([H])c4OC([H])([H])[H])C([H])([H])C3([H])C([H])([H])[H])c([H])c([H])c2C1([H])[H]

$$$$
47:0:0
     RDKit          3D

 93101  0  0  1  0  0  0  0  0999 V2000
  -29.2000  -20.6640   20.6590 C   0  0  0  0  0  0  0  0  0  0  0  0
  -27.7070  -20.4020   20.5310 C   0  0  0  0  0  1  0  0  0  0  0  0
  -29.6990  -21.8690   20.6650 N   0  0  0  0  0  0  0  0  0  0  0  0
  -32.3270  -18.5530   21.2960 C   0  0  0  0  0  3  0  0  0  0  0  0
  -31.4660  -19.6510   21.1270 C   0  0  0  0  0  3  0  0  0  0  0  0
  -31.8530  -17.2400   21.1270 C   0  0  0  0  0  3  0  0  0  0  0  0
  -29.6370  -18.1200   20.6400 C   0  0  0  0  0  3  0  0  0  0  0  0
  -30.1000  -19.4660   20.8030 C   0  0  0  0  0  0  0  0  0  0  0  0
  -30.5040  -16.9960   20.7760 C   0  0  0  0  0  0  0  0  0  0  0  0
  -30.6730  -14.5860   20.0750 C   0  0  0  0  0  0  0  0  0  0  0  0
  -30.2930  -12.4280   18.9310 C   0  0  0  0  0  2  0  0  0  0  0  0
  -29.2870  -12.6320   17.7790 C   0  0  0  0  0  2  0  0  0  0  0  0
  -27.8410  -12.4840   18.2880 C   0  0  0  0  0  2  0  0  0  0  0  0
  -27.5730  -13.3090   19.5760 C   0  0  0  0  0  3  0  0  0  0  0  0
  -28.6930  -13.1130   20.6230 C   0  0  0  0  0  2  0  0  0  0  0  0
  -29.9750  -13.4200   19.9740 N   0  0  0  0  0  0  0  0  0  0  0  0
  -31.7850  -14.7220   19.5560 O   0  0  0  0  0  0  0  0  0  0  0  0
  -30.0130  -15.6490   20.6030 N   0  0  0  0  0  0  0  0  0  0  0  0
  -29.0420  -15.4860   20.8210 H   0  0  0  0  0  0  0  0  0  0  0  0
  -25.2270  -13.8990   20.4460 C   0  0  0  0  0  0  0  0  0  0  0  0
  -24.1780  -13.1200   20.8560 C   0  0  0  0  0  0  0  0  0  0  0  0
  -24.6300  -11.7670   20.7610 C   0  0  0  0  0  0  0  0  0  0  0  0
  -26.2520  -13.0210   20.1300 N   0  0  0  0  0  0  0  0  0  0  0  0
  -25.9010  -11.7320   20.3780 N   0  0  0  0  0  0  0  0  0  0  0  0
  -23.9080  -10.5030   20.9570 C   0  0  0  0  0  0  0  0  0  0  0  0
  -24.3450   -9.5420   21.8950 C   0  0  0  0  0  3  0  0  0  0  0  0
  -23.6230   -8.3430   22.0790 C   0  0  0  0  0  3  0  0  0  0  0  0
  -22.4500   -8.0980   21.3250 C   0  0  0  0  0  0  0  0  0  0  0  0
  -22.0340   -9.0470   20.3760 C   0  0  0  0  0  3  0  0  0  0  0  0
  -22.7560  -10.2370   20.1900 C   0  0  0  0  0  3  0  0  0  0  0  0
  -21.6990   -6.9500   21.4180 O   0  0  0  0  0  0  0  0  0  0  0  0
  -21.6090   -6.2420   22.5890 C   0  0  0  0  0  0  0  0  0  0  0  0
  -21.0880   -6.8150   23.7700 C   0  0  0  0  0  3  0  0  0  0  0  0
  -20.9510   -6.0320   24.9320 C   0  0  0  0  0  3  0  0  0  0  0  0
  -21.3220   -4.6740   24.9140 C   0  0  0  0  0  0  0  0  0  0  0  0
  -21.8360   -4.0990   23.7380 C   0  0  0  0  0  3  0  0  0  0  0  0
  -21.9770   -4.8810   22.5790 C   0  0  0  0  0  0  0  0  0  0  0  0
  -22.4520   -4.3180   21.4410 F   0  0  0  0  0  0  0  0  0  0  0  0
  -21.1830   -3.9160   26.0280 F   0  0  0  0  0  0  0  0  0  0  0  0
  -22.8030  -13.5970   21.2250 C   0  0  0  0  0  0  0  0  0  0  0  0
  -22.1180  -12.8690   22.0990 N   0  0  0  0  0  0  0  0  0  0  0  0
  -22.3460  -14.6460   20.7720 O   0  0  0  0  0  0  0  0  0  0  0  0
  -22.5000  -12.0180   22.4840 H   0  0  0  0  0  0  0  0  0  0  0  0
  -21.1950  -13.1660   22.3880 H   0  0  0  0  0  0  0  0  0  0  0  0
  -25.3870  -15.2740   20.2960 N   0  0  0  0  0  0  0  0  0  0  0  0
  -24.6230  -15.9200   20.4590 H   0  0  0  0  0  0  0  0  0  0  0  0
  -26.2060  -15.7210   19.9060 H   0  0  0  0  0  0  0  0  0  0  0  0
  -29.2030  -24.2790   20.5360 C   0  0  0  0  0  0  0  0  0  0  0  0
  -28.8660  -22.9660   20.5880 N   0  0  0  0  0  0  0  0  0  0  0  0
  -30.3700  -24.6890   20.5240 O   0  0  0  0  0  0  0  0  0  0  0  0
  -27.8800  -22.7410   20.5850 H   0  0  0  0  0  0  0  0  0  0  0  0
  -27.9960  -25.2510   20.4850 C   0  0  0  0  0  2  0  0  0  0  0  0
  -28.3010  -26.6550   20.2260 O   0  0  0  0  0  0  0  0  0  0  0  0
  -24.5400  -31.9540   23.2310 C   0  0  0  0  0  0  0  0  0  0  0  0
  -27.1690  -27.4610   20.1720 C   0  0  0  0  0  0  0  0  0  0  0  0
  -23.3300  -30.5410   21.6080 C   0  0  0  0  0  3  0  0  0  0  0  0
  -24.7820  -29.0020   20.1830 C   0  0  0  0  0  0  0  0  0  0  0  0
  -25.8590  -30.8950   21.3960 C   0  0  0  0  0  2  0  0  0  0  0  0
  -25.9480  -29.5180   20.7630 C   0  0  0  0  0  0  0  0  0  0  0  0
  -27.1470  -28.7580   20.7520 C   0  0  0  0  0  3  0  0  0  0  0  0
  -25.9830  -26.9920   19.5580 C   0  0  0  0  0  3  0  0  0  0  0  0
  -24.7970  -27.7420   19.5740 C   0  0  0  0  0  3  0  0  0  0  0  0
  -23.5360  -29.8570   20.2320 C   0  0  0  0  0  2  0  0  0  0  0  0
  -24.5960  -31.1430   22.1370 N   0  0  0  0  0  0  0  0  0  0  0  0
  -23.4600  -32.2270   23.7760 O   0  0  0  0  0  0  0  0  0  0  0  0
  -22.6860  -29.5230   22.5780 C   0  0  0  0  0  0  0  0  0  0  0  0
  -21.3670  -29.3050   22.4350 N   0  0  0  0  0  0  0  0  0  0  0  0
  -23.3700  -28.9280   23.4160 O   0  0  0  0  0  0  0  0  0  0  0  0
  -20.8750  -29.8350   21.7280 H   0  0  0  0  0  0  0  0  0  0  0  0
  -18.0180  -28.0360   22.9120 C   0  0  0  0  0  0  0  0  0  0  0  0
  -20.5640  -28.3650   23.2150 C   0  0  0  0  0  3  0  0  0  0  0  0
  -20.7120  -26.9240   22.6740 C   0  0  0  0  0  2  0  0  0  0  0  0
  -19.6340  -26.5490   21.6520 C   0  0  0  0  0  2  0  0  0  0  0  0
  -18.2380  -26.6770   22.2700 C   0  0  0  0  0  2  0  0  0  0  0  0
  -19.1100  -28.8340   23.3420 C   0  0  0  0  0  0  0  0  0  0  0  0
  -18.8510  -30.1040   23.9030 C   0  0  0  0  0  3  0  0  0  0  0  0
  -17.5320  -30.5780   24.0330 C   0  0  0  0  0  3  0  0  0  0  0  0
  -16.4530  -29.7760   23.6210 C   0  0  0  0  0  3  0  0  0  0  0  0
  -16.6960  -28.5060   23.0670 C   0  0  0  0  0  3  0  0  0  0  0  0
  -25.8260  -32.5980   23.8350 C   0  0  0  0  0  3  0  0  0  0  0  0
  -26.3610  -31.8390   25.1090 C   0  0  1  0  0  0  0  0  0  0  0  0
  -25.2730  -31.5700   26.1750 C   0  0  0  0  0  1  0  0  0  0  0  0
  -26.9790  -30.4760   24.7170 C   0  0  0  0  0  1  0  0  0  0  0  0
  -27.4900  -32.6600   25.7750 C   0  0  0  0  0  1  0  0  0  0  0  0
  -25.5130  -33.9980   24.1580 N   0  0  0  0  0  0  0  0  0  0  0  0
  -25.8290  -35.0450   23.3830 C   0  0  0  0  0  0  0  0  0  0  0  0
  -26.4890  -34.9360   22.3460 O   0  0  0  0  0  0  0  0  0  0  0  0
  -24.9280  -34.1570   24.9650 H   0  0  0  0  0  0  0  0  0  0  0  0
  -24.0910  -36.8240   23.0230 C   0  0  0  0  0  1  0  0  0  0  0  0
  -25.3370  -36.4330   23.8330 C   0  0  0  0  0  3  0  0  0  0  0  0
  -27.4650  -37.3400   24.6590 C   0  0  0  0  0  1  0  0  0  0  0  0
  -26.3640  -37.4910   23.7100 N   0  0  0  0  0  0  0  0  0  0  0  0
  -25.9520  -38.4090   23.8500 H   0  0  0  0  0  0  0  0  0  0  0  0
  1  3  2  0
  1  8  1  0
  2  1  1  0
  5  4  2  0
  6  4  1  0
  7  9  1  0
  7  8  2  0
  8  5  1  0
  9  6  2  0
 10 18  1  0
 11 16  1  0
 12 13  1  0
 12 11  1  0
 14 13  1  0
 14 23  1  0
 14 15  1  0
 16 10  1  0
 16 15  1  0
 17 10  2  0
 18  9  1  0
 18 19  1  0
 20 21  2  0
 21 40  1  0
 22 21  1  0
 22 25  1  0
 23 24  1  0
 23 20  1  0
 24 22  2  0
 25 26  1  0
 26 27  2  0
 28 31  1  0
 28 27  1  0
 29 28  2  0
 30 29  1  0
 30 25  2  0
 31 32  1  0
 32 33  1  0
 33 34  2  0
 35 34  1  0
 35 39  1  0
 36 35  2  0
 37 32  2  0
 37 36  1  0
 38 37  1  0
 40 41  1  0
 41 44  1  0
 41 43  1  0
 42 40  2  0
 45 20  1  0
 45 46  1  0
 47 45  1  0
 48 49  1  0
 49  3  1  0
 50 48  2  0
 51 49  1  0
 52 48  1  0
 53 52  1  0
 54 65  2  0
 55 53  1  0
 55 60  1  0
 56 64  1  0
 56 66  1  0
 57 63  1  0
 57 59  1  0
 58 64  1  0
 59 58  1  0
 60 59  2  0
 61 62  1  0
 61 55  2  0
 62 57  2  0
 63 56  1  0
 64 54  1  0
 66 68  2  0
 67 66  1  0
 69 67  1  0
 70 79  2  0
 70 75  1  0
 71 67  1  0
 71 75  1  0
 72 71  1  0
 73 74  1  0
 73 72  1  0
 74 70  1  0
 75 76  2  0
 76 77  1  0
 78 77  2  0
 79 78  1  0
 80 54  1  0
 80 85  1  0
 80 81  1  0
 81 84  1  1
 81 82  1  0
 83 81  1  0
 85 88  1  0
 86 90  1  0
 86 85  1  0
 87 86  2  0
 90 89  1  0
 92 90  1  0
 92 93  1  0
 92 91  1  0
M  ISO  4  10 100  18 100  52 101  53 101
M  END
>  <TORSDO>  (47) 
F 19

>  <SCORE>  (47) 
-14.025

>  <name>  (47) 
47

>  <ligand_id>  (47) 
47

>  <original_smiles>  (47) 
[H]c1c([H])c(C(=NN([H])C(=O)C([H])([H])Oc2c([H])c([H])c3c(c2[H])C([H])([H])N(C(=O)C([H])(N([H])C(=O)C([H])(N([H])C([H])([H])[H])C([H])([H])[H])C(C([H])([H])[H])(C([H])([H])[H])C([H])([H])[H])C([H])(C(=O)N([H])C2([H])c4c([H])c([H])c([H])c([H])c4C([H])([H])C([H])([H])C2([H])[H])C3([H])[H])C([H])([H])[H])c([H])c(N([H])C(=O)N2C([H])([H])C([H])([H])C([H])([H])C([H])(n3nc(-c4c([H])c([H])c(Oc5c([H])c([H])c(F)c([H])c5F)c([H])c4[H])c(C(=O)N([H])[H])c3N([H])[H])C2([H])[H])c1[H]

>  <smiles>  (47) 
[H]c1c([H])c(C(=NN([H])C(=O)C([H])([H])Oc2c([H])c([H])c3c(c2[H])C([H])([H])N(C(=O)C([H])(N([H])C(=O)C([H])(N([H])C([H])([H])[H])C([H])([H])[H])C(C([H])([H])[H])(C([H])([H])[H])C([H])([H])[H])C([H])(C(=O)N([H])C2([H])c4c([H])c([H])c([H])c([H])c4C([H])([H])C([H])([H])C2([H])[H])C3([H])[H])C([H])([H])[H])c([H])c(N([H])C(=O)N2C([H])([H])C([H])([H])C([H])([H])C([H])(n3nc(-c4c([H])c([H])c(Oc5c([H])c([H])c(F)c([H])c5F)c([H])c4[H])c(C(=O)N([H])[H])c3N([H])[H])C2([H])[H])c1[H]

$$$$
48:0:0
     RDKit          3D

100109  0  0  1  0  0  0  0  0999 V2000
  -32.4930  -23.8570   13.6540 C   0  0  0  0  0  0  0  0  0  0  0  0
  -33.2090  -23.2620   12.4320 C   0  0  0  0  0  2  0  0  0  0  0  0
  -35.3820  -24.2000   13.2820 C   0  0  0  0  0  2  0  0  0  0  0  0
  -34.7140  -24.0770   14.6760 C   0  0  0  0  0  3  0  0  0  0  0  0
  -34.9830  -22.6850   15.2860 C   0  0  0  0  0  1  0  0  0  0  0  0
  -34.4800  -23.9520   12.1570 N   0  0  0  0  0  0  0  0  0  0  0  0
  -33.2530  -24.3350   14.6700 N   0  0  0  0  0  0  0  0  0  0  0  0
  -31.2600  -23.9270   13.6410 O   0  0  0  0  0  0  0  0  0  0  0  0
  -34.7070  -23.3910    9.7560 C   0  0  0  0  0  3  0  0  0  0  0  0
  -35.5900  -25.4910   10.5650 C   0  0  0  0  0  3  0  0  0  0  0  0
  -35.8790  -24.8830    8.2210 C   0  0  0  0  0  3  0  0  0  0  0  0
  -34.9170  -24.2790   10.8450 C   0  0  0  0  0  0  0  0  0  0  0  0
  -35.1880  -23.6780    8.4620 C   0  0  0  0  0  0  0  0  0  0  0  0
  -36.0500  -25.8100    9.2730 C   0  0  0  0  0  0  0  0  0  0  0  0
  -36.3500  -28.2720    9.6530 C   0  0  0  0  0  0  0  0  0  0  0  0
  -37.6780  -29.6970   11.1270 C   0  0  0  0  0  2  0  0  0  0  0  0
  -39.1500  -29.2350   11.0370 C   0  0  0  0  0  2  0  0  0  0  0  0
  -39.4320  -28.0980   12.0420 C   0  0  0  0  0  2  0  0  0  0  0  0
  -38.3730  -26.9660   11.9880 C   0  0  0  0  0  3  0  0  0  0  0  0
  -36.9460  -27.5560   12.0060 C   0  0  0  0  0  2  0  0  0  0  0  0
  -36.8370  -28.5160   10.8970 N   0  0  0  0  0  0  0  0  0  0  0  0
  -36.1060  -29.1540    8.8290 O   0  0  0  0  0  0  0  0  0  0  0  0
  -36.6760  -27.0770    9.1530 N   0  0  0  0  0  0  0  0  0  0  0  0
  -37.1130  -27.1960    8.2510 H   0  0  0  0  0  0  0  0  0  0  0  0
  -39.0700  -24.7030   12.9980 C   0  0  0  0  0  0  0  0  0  0  0  0
  -39.1220  -24.2570   14.2920 C   0  0  0  0  0  0  0  0  0  0  0  0
  -38.6420  -25.3340   15.1000 C   0  0  0  0  0  0  0  0  0  0  0  0
  -38.5700  -25.9950   13.0610 N   0  0  0  0  0  0  0  0  0  0  0  0
  -38.2660  -26.3510   14.3360 N   0  0  0  0  0  0  0  0  0  0  0  0
  -38.5750  -25.4790   16.5600 C   0  0  0  0  0  0  0  0  0  0  0  0
  -37.6530  -24.7420   17.3340 C   0  0  0  0  0  3  0  0  0  0  0  0
  -37.6200  -24.8850   18.7380 C   0  0  0  0  0  3  0  0  0  0  0  0
  -38.5150  -25.7720   19.3820 C   0  0  0  0  0  0  0  0  0  0  0  0
  -39.4170  -26.5210   18.6030 C   0  0  0  0  0  3  0  0  0  0  0  0
  -39.4450  -26.3800   17.2050 C   0  0  0  0  0  3  0  0  0  0  0  0
  -38.5380  -25.9970   20.7370 O   0  0  0  0  0  0  0  0  0  0  0  0
  -38.5530  -24.9620   21.6370 C   0  0  0  0  0  0  0  0  0  0  0  0
  -39.7060  -24.1780   21.8550 C   0  0  0  0  0  3  0  0  0  0  0  0
  -39.6990  -23.1700   22.8390 C   0  0  0  0  0  3  0  0  0  0  0  0
  -38.5430  -22.9470   23.6110 C   0  0  0  0  0  0  0  0  0  0  0  0
  -37.3930  -23.7290   23.3980 C   0  0  0  0  0  3  0  0  0  0  0  0
  -37.4000  -24.7330   22.4150 C   0  0  0  0  0  0  0  0  0  0  0  0
  -36.2970  -25.4990   22.2320 F   0  0  0  0  0  0  0  0  0  0  0  0
  -38.5370  -21.9810   24.5600 F   0  0  0  0  0  0  0  0  0  0  0  0
  -39.6700  -22.9420   14.7660 C   0  0  0  0  0  0  0  0  0  0  0  0
  -38.8120  -21.9390   14.9140 N   0  0  0  0  0  0  0  0  0  0  0  0
  -40.8750  -22.7830   14.9650 O   0  0  0  0  0  0  0  0  0  0  0  0
  -37.8290  -22.0680   14.7330 H   0  0  0  0  0  0  0  0  0  0  0  0
  -39.1400  -21.0330   15.2180 H   0  0  0  0  0  0  0  0  0  0  0  0
  -39.4220  -24.1310   11.7820 N   0  0  0  0  0  0  0  0  0  0  0  0
  -39.8240  -23.2030   11.7150 H   0  0  0  0  0  0  0  0  0  0  0  0
  -39.3110  -24.5880   10.8850 H   0  0  0  0  0  0  0  0  0  0  0  0
  -34.9800  -22.7650    7.4250 N   0  0  0  0  0  0  0  0  0  0  0  0
  -34.6590  -21.8220    7.6300 H   0  0  0  0  0  0  0  0  0  0  0  0
  -35.5160  -22.8300    6.5660 H   0  0  0  0  0  0  0  0  0  0  0  0
  -32.5430  -25.0590   15.7600 C   0  0  0  0  0  2  0  0  0  0  0  0
  -32.2800  -26.5720   15.6360 C   0  0  0  0  0  0  0  0  0  0  0  0
  -32.5430  -27.2290   14.6250 O   0  0  0  0  0  0  0  0  0  0  0  0
  -31.8310  -27.2870   16.9200 C   0  0  0  0  0  2  0  0  0  0  0  0
  -32.6840  -26.9450   18.0210 O   0  0  0  0  0  0  0  0  0  0  0  0
  -34.6760  -33.7580   17.8090 C   0  0  0  0  0  0  0  0  0  0  0  0
  -33.6920  -27.8560   18.2060 C   0  0  0  0  0  0  0  0  0  0  0  0
  -36.5030  -32.0940   17.9160 C   0  0  0  0  0  3  0  0  0  0  0  0
  -35.7950  -29.7060   18.4680 C   0  0  0  0  0  0  0  0  0  0  0  0
  -34.2100  -31.5850   18.9300 C   0  0  0  0  0  2  0  0  0  0  0  0
  -34.4670  -30.1270   18.6240 C   0  0  0  0  0  0  0  0  0  0  0  0
  -33.4070  -29.2040   18.4910 C   0  0  0  0  0  3  0  0  0  0  0  0
  -35.0320  -27.4340   18.0780 C   0  0  0  0  0  3  0  0  0  0  0  0
  -36.0840  -28.3590   18.1920 C   0  0  0  0  0  3  0  0  0  0  0  0
  -36.8720  -30.7560   18.6120 C   0  0  0  0  0  2  0  0  0  0  0  0
  -35.0910  -32.5140   18.1850 N   0  0  0  0  0  0  0  0  0  0  0  0
  -35.4620  -34.5620   17.2870 O   0  0  0  0  0  0  0  0  0  0  0  0
  -36.8240  -31.9650   16.4100 C   0  0  0  0  0  0  0  0  0  0  0  0
  -38.0350  -32.3980   16.0220 N   0  0  0  0  0  0  0  0  0  0  0  0
  -36.0100  -31.4700   15.6290 O   0  0  0  0  0  0  0  0  0  0  0  0
  -38.6400  -32.8020   16.7230 H   0  0  0  0  0  0  0  0  0  0  0  0
  -40.8630  -33.3120   13.9690 C   0  0  0  0  0  0  0  0  0  0  0  0
  -38.5680  -32.3420   14.6610 C   0  0  0  0  0  3  0  0  0  0  0  0
  -39.1800  -30.9550   14.3580 C   0  0  0  0  0  2  0  0  0  0  0  0
  -40.6820  -30.8790   14.6440 C   0  0  0  0  0  2  0  0  0  0  0  0
  -41.4420  -31.9170   13.8140 C   0  0  0  0  0  2  0  0  0  0  0  0
  -39.5190  -33.5110   14.3840 C   0  0  0  0  0  0  0  0  0  0  0  0
  -39.0460  -34.8290   14.5540 C   0  0  0  0  0  3  0  0  0  0  0  0
  -39.8840  -35.9340   14.3110 C   0  0  0  0  0  3  0  0  0  0  0  0
  -41.2090  -35.7310   13.8850 C   0  0  0  0  0  3  0  0  0  0  0  0
  -41.6920  -34.4230   13.7100 C   0  0  0  0  0  3  0  0  0  0  0  0
  -33.2110  -34.2390   18.0420 C   0  0  0  0  0  3  0  0  0  0  0  0
  -33.2750  -35.5780   18.6420 N   0  0  0  0  0  0  0  0  0  0  0  0
  -33.3400  -35.8190   19.9590 C   0  0  0  0  0  0  0  0  0  0  0  0
  -33.2820  -34.9230   20.8080 O   0  0  0  0  0  0  0  0  0  0  0  0
  -33.3810  -36.3550   18.0060 H   0  0  0  0  0  0  0  0  0  0  0  0
  -34.9630  -37.5590   20.7670 C   0  0  0  0  0  1  0  0  0  0  0  0
  -33.4950  -37.2840   20.4050 C   0  0  0  0  0  3  0  0  0  0  0  0
  -31.2120  -37.7380   21.1830 C   0  0  0  0  0  1  0  0  0  0  0  0
  -32.6240  -37.6480   21.5430 N   0  0  0  0  0  0  0  0  0  0  0  0
  -32.9070  -38.5400   21.9430 H   0  0  0  0  0  0  0  0  0  0  0  0
  -32.3440  -34.2540   16.7250 C   0  0  1  0  0  0  0  0  0  0  0  0
  -32.4160  -35.5880   15.9470 C   0  0  0  0  0  1  0  0  0  0  0  0
  -32.7890  -33.1240   15.7670 C   0  0  0  0  0  1  0  0  0  0  0  0
  -30.8600  -33.9810   17.0720 C   0  0  0  0  0  1  0  0  0  0  0  0
  1  7  1  0
  2  1  1  0
  3  4  1  0
  4  5  1  0
  6  2  1  0
  6  3  1  0
  7  4  1  0
  7 56  1  0
  8  1  2  0
  9 12  1  0
 10 12  2  0
 11 13  1  0
 11 14  2  0
 12  6  1  0
 13  9  2  0
 14 10  1  0
 15 21  1  0
 17 16  1  0
 17 18  1  0
 19 20  1  0
 19 18  1  0
 19 28  1  0
 21 16  1  0
 21 20  1  0
 22 15  2  0
 23 14  1  0
 23 15  1  0
 24 23  1  0
 25 28  1  0
 25 26  2  0
 26 45  1  0
 26 27  1  0
 27 30  1  0
 28 29  1  0
 29 27  2  0
 30 35  2  0
 30 31  1  0
 31 32  2  0
 32 33  1  0
 33 36  1  0
 34 33  2  0
 35 34  1  0
 36 37  1  0
 37 38  2  0
 37 42  1  0
 38 39  1  0
 39 40  2  0
 40 44  1  0
 41 40  1  0
 42 41  2  0
 43 42  1  0
 45 46  1  0
 45 47  2  0
 46 49  1  0
 48 46  1  0
 50 25  1  0
 51 50  1  0
 52 50  1  0
 53 54  1  0
 53 13  1  0
 55 53  1  0
 57 56  1  0
 57 59  1  0
 58 57  2  0
 59 60  1  0
 60 62  1  0
 61 71  1  0
 62 67  1  0
 63 73  1  0
 63 71  1  0
 63 70  1  0
 64 70  1  0
 64 66  1  0
 66 65  1  0
 67 66  2  0
 68 69  1  0
 68 62  2  0
 69 64  2  0
 71 65  1  0
 72 61  2  0
 74 73  1  0
 74 76  1  0
 75 73  2  0
 77 82  1  0
 78 74  1  0
 79 80  1  0
 79 78  1  0
 81 77  1  0
 81 80  1  0
 82 83  2  0
 82 78  1  0
 84 83  1  0
 85 84  2  0
 86 85  1  0
 86 77  2  0
 87 61  1  0
 87 88  1  0
 88 89  1  0
 89 93  1  0
 89 90  2  0
 91 88  1  0
 93 92  1  0
 93 95  1  0
 94 95  1  0
 95 96  1  0
 97100  1  1
 97 87  1  0
 98 97  1  0
 99 97  1  0
M  ISO  4  15 100  23 100  59 101  60 101
M  END
>  <TORSDO>  (48) 
F 21

>  <SCORE>  (48) 
-2.957

>  <name>  (48) 
48

>  <ligand_id>  (48) 
48

>  <original_smiles>  (48) 
[H]c1c([H])c([H])c2c(c1[H])C([H])([H])C([H])([H])C([H])([H])C2([H])N([H])C(=O)C1([H])N(C(=O)C([H])(N([H])C(=O)C([H])(N([H])C([H])([H])[H])C([H])([H])[H])C(C([H])([H])[H])(C([H])([H])[H])C([H])([H])[H])C([H])([H])c2c([H])c(OC([H])([H])C(=O)C([H])([H])N3C(=O)C([H])([H])N(c4c([H])c(N([H])[H])c([H])c(N([H])C(=O)N5C([H])([H])C([H])([H])C([H])([H])C([H])(n6nc(-c7c([H])c([H])c(Oc8c([H])c([H])c(F)c([H])c8F)c([H])c7[H])c(C(=O)N([H])[H])c6N([H])[H])C5([H])[H])c4[H])C([H])([H])C3([H])C([H])([H])[H])c([H])c([H])c2C1([H])[H]

>  <smiles>  (48) 
[H]c1c([H])c([H])c2c(c1[H])C([H])([H])C([H])([H])C([H])([H])C2([H])N([H])C(=O)C1([H])N(C(=O)C([H])(N([H])C(=O)C([H])(N([H])C([H])([H])[H])C([H])([H])[H])C(C([H])([H])[H])(C([H])([H])[H])C([H])([H])[H])C([H])([H])c2c([H])c(OC([H])([H])C(=O)C([H])([H])N3C(=O)C([H])([H])N(c4c([H])c(N([H])[H])c([H])c(N([H])C(=O)N5C([H])([H])C([H])([H])C([H])([H])C([H])(n6nc(-c7c([H])c([H])c(Oc8c([H])c([H])c(F)c([H])c8F)c([H])c7[H])c(C(=O)N([H])[H])c6N([H])[H])C5([H])[H])c4[H])C([H])([H])C3([H])C([H])([H])[H])c([H])c([H])c2C1([H])[H]

$$$$
49:0:0
     RDKit          3D

 92101  0  0  1  0  0  0  0  0999 V2000
  -28.6210  -22.6370   21.0590 C   0  0  0  0  0  0  0  0  0  0  0  0
  -29.5700  -22.6790   19.2170 C   0  0  0  0  0  2  0  0  0  0  0  0
  -29.2170  -23.8580   20.2230 C   0  0  2  0  0  0  0  0  0  0  0  0
  -30.3850  -24.4850   20.9900 C   0  0  0  0  0  1  0  0  0  0  0  0
  -29.3640  -21.7130   20.3030 N   0  0  0  0  0  0  0  0  0  0  0  0
  -27.8270  -22.4800   21.9630 O   0  0  0  0  0  0  0  0  0  0  0  0
  -29.0290  -19.3540   21.1970 C   0  0  0  0  0  3  0  0  0  0  0  0
  -30.3760  -19.5220   19.2780 C   0  0  0  0  0  3  0  0  0  0  0  0
  -29.2710  -17.9460   21.2480 C   0  0  0  0  0  3  0  0  0  0  0  0
  -30.6300  -18.1010   19.3110 C   0  0  0  0  0  3  0  0  0  0  0  0
  -29.5830  -20.2420   20.2310 C   0  0  0  0  0  0  0  0  0  0  0  0
  -30.1080  -17.2480   20.3280 C   0  0  0  0  0  0  0  0  0  0  0  0
  -30.8410  -14.8320   19.6180 C   0  0  0  0  0  0  0  0  0  0  0  0
  -30.4360  -12.6430   18.4540 C   0  0  0  0  0  2  0  0  0  0  0  0
  -29.3190  -12.7790   17.3960 C   0  0  0  0  0  2  0  0  0  0  0  0
  -27.9340  -12.5690   18.0350 C   0  0  0  0  0  2  0  0  0  0  0  0
  -27.7570  -13.3960   19.3340 C   0  0  0  0  0  3  0  0  0  0  0  0
  -28.9640  -13.2220   20.2750 C   0  0  0  0  0  2  0  0  0  0  0  0
  -30.1760  -13.6220   19.5380 N   0  0  0  0  0  0  0  0  0  0  0  0
  -31.8300  -15.0370   18.9050 O   0  0  0  0  0  0  0  0  0  0  0  0
  -30.6560  -15.4110   21.9300 C   0  0  0  0  0  1  0  0  0  0  0  0
  -30.4050  -15.7930   20.5280 N   0  0  0  0  0  0  0  0  0  0  0  0
  -25.5440  -13.9570   20.5120 C   0  0  0  0  0  0  0  0  0  0  0  0
  -24.5260  -13.1690   20.9750 C   0  0  0  0  0  0  0  0  0  0  0  0
  -24.9270  -11.8200   20.7250 C   0  0  0  0  0  0  0  0  0  0  0  0
  -26.4990  -13.0880   20.0090 N   0  0  0  0  0  0  0  0  0  0  0  0
  -26.1440  -11.7900   20.1970 N   0  0  0  0  0  0  0  0  0  0  0  0
  -24.1950  -10.5590   20.9050 C   0  0  0  0  0  0  0  0  0  0  0  0
  -24.6680   -9.5480   21.7710 C   0  0  0  0  0  3  0  0  0  0  0  0
  -23.9370   -8.3520   21.9420 C   0  0  0  0  0  3  0  0  0  0  0  0
  -22.7200   -8.1590   21.2450 C   0  0  0  0  0  0  0  0  0  0  0  0
  -22.2660   -9.1570   20.3660 C   0  0  0  0  0  3  0  0  0  0  0  0
  -22.9970  -10.3460   20.1950 C   0  0  0  0  0  3  0  0  0  0  0  0
  -21.9560   -7.0200   21.3290 O   0  0  0  0  0  0  0  0  0  0  0  0
  -21.8480   -6.3100   22.4980 C   0  0  0  0  0  0  0  0  0  0  0  0
  -21.3750   -6.9010   23.6890 C   0  0  0  0  0  3  0  0  0  0  0  0
  -21.2150   -6.1180   24.8490 C   0  0  0  0  0  3  0  0  0  0  0  0
  -21.5170   -4.7430   24.8180 C   0  0  0  0  0  0  0  0  0  0  0  0
  -21.9830   -4.1510   23.6310 C   0  0  0  0  0  3  0  0  0  0  0  0
  -22.1450   -4.9320   22.4740 C   0  0  0  0  0  0  0  0  0  0  0  0
  -22.5740   -4.3520   21.3270 F   0  0  0  0  0  0  0  0  0  0  0  0
  -21.3550   -3.9880   25.9300 F   0  0  0  0  0  0  0  0  0  0  0  0
  -23.2130  -13.6410   21.5270 C   0  0  0  0  0  0  0  0  0  0  0  0
  -22.6350  -12.8880   22.4580 N   0  0  0  0  0  0  0  0  0  0  0  0
  -22.7150  -14.7080   21.1710 O   0  0  0  0  0  0  0  0  0  0  0  0
  -23.0550  -12.0240   22.7650 H   0  0  0  0  0  0  0  0  0  0  0  0
  -21.7600  -13.1820   22.8690 H   0  0  0  0  0  0  0  0  0  0  0  0
  -25.7300  -15.3350   20.4550 N   0  0  0  0  0  0  0  0  0  0  0  0
  -25.0280  -15.9910   20.7790 H   0  0  0  0  0  0  0  0  0  0  0  0
  -26.5420  -15.7890   20.0570 H   0  0  0  0  0  0  0  0  0  0  0  0
  -28.1620  -25.0270   19.8480 C   0  0  0  0  0  2  0  0  0  0  0  0
  -28.3560  -26.4820   20.1930 O   0  0  0  0  0  0  0  0  0  0  0  0
  -24.5930  -31.8910   23.2330 C   0  0  0  0  0  0  0  0  0  0  0  0
  -27.2500  -27.3650   20.1240 C   0  0  0  0  0  0  0  0  0  0  0  0
  -23.4100  -30.5130   21.5630 C   0  0  0  0  0  3  0  0  0  0  0  0
  -24.8800  -28.9940   20.1180 C   0  0  0  0  0  0  0  0  0  0  0  0
  -25.9530  -30.8400   21.4050 C   0  0  0  0  0  2  0  0  0  0  0  0
  -26.0450  -29.4690   20.7360 C   0  0  0  0  0  0  0  0  0  0  0  0
  -27.2310  -28.6670   20.7300 C   0  0  0  0  0  3  0  0  0  0  0  0
  -26.0650  -26.9650   19.4660 C   0  0  0  0  0  3  0  0  0  0  0  0
  -24.8960  -27.7510   19.4720 C   0  0  0  0  0  3  0  0  0  0  0  0
  -23.6390  -29.8640   20.1720 C   0  0  0  0  0  2  0  0  0  0  0  0
  -24.6710  -31.1000   22.1230 N   0  0  0  0  0  0  0  0  0  0  0  0
  -23.5040  -32.1540   23.7640 O   0  0  0  0  0  0  0  0  0  0  0  0
  -22.7460  -29.4770   22.5010 C   0  0  0  0  0  0  0  0  0  0  0  0
  -21.4260  -29.2750   22.3450 N   0  0  0  0  0  0  0  0  0  0  0  0
  -23.4180  -28.8590   23.3320 O   0  0  0  0  0  0  0  0  0  0  0  0
  -20.9420  -29.8250   21.6500 H   0  0  0  0  0  0  0  0  0  0  0  0
  -18.0650  -27.9980   22.7560 C   0  0  0  0  0  0  0  0  0  0  0  0
  -20.6090  -28.3180   23.0940 C   0  0  0  0  0  3  0  0  0  0  0  0
  -20.7590  -26.8900   22.5220 C   0  0  0  0  0  2  0  0  0  0  0  0
  -19.6930  -26.5430   21.4780 C   0  0  0  0  0  2  0  0  0  0  0  0
  -18.2920  -26.6540   22.0840 C   0  0  0  0  0  2  0  0  0  0  0  0
  -19.1540  -28.7850   23.2160 C   0  0  0  0  0  0  0  0  0  0  0  0
  -18.8890  -30.0410   23.8040 C   0  0  0  0  0  3  0  0  0  0  0  0
  -17.5680  -30.5110   23.9380 C   0  0  0  0  0  3  0  0  0  0  0  0
  -16.4930  -29.7200   23.4950 C   0  0  0  0  0  3  0  0  0  0  0  0
  -16.7430  -28.4660   22.9080 C   0  0  0  0  0  3  0  0  0  0  0  0
  -25.8670  -32.5230   23.8730 C   0  0  0  0  0  3  0  0  0  0  0  0
  -25.5600  -33.9270   24.1820 N   0  0  0  0  0  0  0  0  0  0  0  0
  -25.8860  -34.9690   23.4030 C   0  0  0  0  0  0  0  0  0  0  0  0
  -26.5490  -34.8480   22.3700 O   0  0  0  0  0  0  0  0  0  0  0  0
  -24.9750  -34.0960   24.9870 H   0  0  0  0  0  0  0  0  0  0  0  0
  -24.1460  -36.7500   23.0460 C   0  0  0  0  0  1  0  0  0  0  0  0
  -25.4030  -36.3640   23.8430 C   0  0  0  0  0  3  0  0  0  0  0  0
  -27.5480  -37.2740   24.6170 C   0  0  0  0  0  1  0  0  0  0  0  0
  -26.4290  -37.4190   23.6890 N   0  0  0  0  0  0  0  0  0  0  0  0
  -26.0220  -38.3400   23.8240 H   0  0  0  0  0  0  0  0  0  0  0  0
  -26.3500  -31.7640   25.1700 C   0  0  1  0  0  0  0  0  0  0  0  0
  -25.2310  -31.5420   26.2150 C   0  0  0  0  0  1  0  0  0  0  0  0
  -26.9370  -30.3800   24.8100 C   0  0  0  0  0  1  0  0  0  0  0  0
  -27.4870  -32.5610   25.8510 C   0  0  0  0  0  1  0  0  0  0  0  0
  1  6  2  0
  2  3  1  0
  2  5  1  0
  3  4  1  1
  3  1  1  0
  5  1  1  0
  7  9  1  0
  8 10  2  0
  8 11  1  0
 10 12  1  0
 11  5  1  0
 11  7  2  0
 12 22  1  0
 12  9  2  0
 13 22  1  0
 14 19  1  0
 15 16  1  0
 15 14  1  0
 17 16  1  0
 17 26  1  0
 17 18  1  0
 19 13  1  0
 19 18  1  0
 20 13  2  0
 22 21  1  0
 23 24  2  0
 24 43  1  0
 25 28  1  0
 25 24  1  0
 26 27  1  0
 26 23  1  0
 27 25  2  0
 28 29  1  0
 29 30  2  0
 31 34  1  0
 31 30  1  0
 32 31  2  0
 33 32  1  0
 33 28  2  0
 34 35  1  0
 35 36  1  0
 36 37  2  0
 38 37  1  0
 38 42  1  0
 39 38  2  0
 40 35  2  0
 40 39  1  0
 41 40  1  0
 43 44  1  0
 44 46  1  0
 44 47  1  0
 45 43  2  0
 48 23  1  0
 48 49  1  0
 50 48  1  0
 51 52  1  0
 51  3  1  0
 53 64  2  0
 54 52  1  0
 54 59  1  0
 55 63  1  0
 55 65  1  0
 56 62  1  0
 56 58  1  0
 57 63  1  0
 58 57  1  0
 59 58  2  0
 60 61  1  0
 60 54  2  0
 61 56  2  0
 62 55  1  0
 63 53  1  0
 65 67  2  0
 66 65  1  0
 68 66  1  0
 69 78  2  0
 69 74  1  0
 70 66  1  0
 70 74  1  0
 71 70  1  0
 72 73  1  0
 72 71  1  0
 73 69  1  0
 74 75  2  0
 75 76  1  0
 77 76  2  0
 78 77  1  0
 79 53  1  0
 79 80  1  0
 79 89  1  0
 80 83  1  0
 81 85  1  0
 81 80  1  0
 82 81  2  0
 85 84  1  0
 87 88  1  0
 87 85  1  0
 87 86  1  0
 89 92  1  1
 89 90  1  0
 91 89  1  0
M  ISO  4  13 100  22 100  51 101  52 101
M  END
>  <TORSDO>  (49) 
F 18

>  <SCORE>  (49) 
-12.765

>  <name>  (49) 
49

>  <ligand_id>  (49) 
49

>  <original_smiles>  (49) 
[H]c1c([H])c([H])c2c(c1[H])C([H])([H])C([H])([H])C([H])([H])C2([H])N([H])C(=O)C1([H])N(C(=O)C([H])(N([H])C(=O)C([H])(N([H])C([H])([H])[H])C([H])([H])[H])C(C([H])([H])[H])(C([H])([H])[H])C([H])([H])[H])C([H])([H])c2c([H])c(OC([H])([H])C3(C([H])([H])[H])C(=O)N(c4c([H])c([H])c(N(C(=O)N5C([H])([H])C([H])([H])C([H])([H])C([H])(n6nc(-c7c([H])c([H])c(Oc8c([H])c([H])c(F)c([H])c8F)c([H])c7[H])c(C(=O)N([H])[H])c6N([H])[H])C5([H])[H])C([H])([H])[H])c([H])c4[H])C3([H])[H])c([H])c([H])c2C1([H])[H]

>  <smiles>  (49) 
[H]c1c([H])c([H])c2c(c1[H])C([H])([H])C([H])([H])C([H])([H])C2([H])N([H])C(=O)C1([H])N(C(=O)C([H])(N([H])C(=O)C([H])(N([H])C([H])([H])[H])C([H])([H])[H])C(C([H])([H])[H])(C([H])([H])[H])C([H])([H])[H])C([H])([H])c2c([H])c(OC([H])([H])C3(C([H])([H])[H])C(=O)N(c4c([H])c([H])c(N(C(=O)N5C([H])([H])C([H])([H])C([H])([H])C([H])(n6nc(-c7c([H])c([H])c(Oc8c([H])c([H])c(F)c([H])c8F)c([H])c7[H])c(C(=O)N([H])[H])c6N([H])[H])C5([H])[H])C([H])([H])[H])c([H])c4[H])C3([H])[H])c([H])c([H])c2C1([H])[H]

$$$$
50:0:0
     RDKit          3D

 92101  0  0  1  0  0  0  0  0999 V2000
  -28.8300  -23.5230   20.2340 C   0  0  0  0  0  0  0  0  0  0  0  0
  -28.6720  -22.2300   19.7420 C   0  0  0  0  0  0  0  0  0  0  0  0
  -29.8510  -23.3610   21.2520 C   0  0  0  0  0  0  0  0  0  0  0  0
  -30.4290  -24.3590   21.9460 C   0  0  0  0  0  1  0  0  0  0  0  0
  -30.2290  -21.8770   21.4000 C   0  0  0  0  0  3  0  0  0  0  0  0
  -27.7040  -21.8140   18.6420 C   0  0  0  0  0  1  0  0  0  0  0  0
  -29.4410  -21.1890   20.3740 N   0  0  0  0  0  0  0  0  0  0  0  0
  -29.7820  -18.6570   21.0210 C   0  0  0  0  0  3  0  0  0  0  0  0
  -29.7580  -17.8390   18.9470 C   0  0  0  0  0  3  0  0  0  0  0  0
  -29.8750  -17.4090   20.2470 C   0  0  0  0  0  0  0  0  0  0  0  0
  -29.5820  -19.7350   20.1380 C   0  0  0  0  0  0  0  0  0  0  0  0
  -29.5770  -19.2170   18.8660 O   0  0  0  0  0  0  0  0  0  0  0  0
  -30.6030  -14.8490   20.2760 C   0  0  0  0  0  0  0  0  0  0  0  0
  -30.4080  -12.5470   19.2900 C   0  0  0  0  0  2  0  0  0  0  0  0
  -29.4740  -12.6330   18.0620 C   0  0  0  0  0  2  0  0  0  0  0  0
  -28.0020  -12.4600   18.4870 C   0  0  0  0  0  2  0  0  0  0  0  0
  -27.6340  -13.3190   19.7250 C   0  0  0  0  0  3  0  0  0  0  0  0
  -28.6990  -13.2360   20.8410 C   0  0  0  0  0  2  0  0  0  0  0  0
  -29.9930  -13.6040   20.2490 N   0  0  0  0  0  0  0  0  0  0  0  0
  -31.7550  -14.9620   19.8500 O   0  0  0  0  0  0  0  0  0  0  0  0
  -29.8800  -15.9730   20.6950 N   0  0  0  0  0  0  0  0  0  0  0  0
  -29.0710  -15.7220   21.2440 H   0  0  0  0  0  0  0  0  0  0  0  0
  -25.2410  -13.8910   20.4510 C   0  0  0  0  0  0  0  0  0  0  0  0
  -24.1800  -13.1150   20.8280 C   0  0  0  0  0  0  0  0  0  0  0  0
  -24.6460  -11.7650   20.7940 C   0  0  0  0  0  0  0  0  0  0  0  0
  -26.2910  -13.0190   20.2160 N   0  0  0  0  0  0  0  0  0  0  0  0
  -25.9370  -11.7330   20.4800 N   0  0  0  0  0  0  0  0  0  0  0  0
  -23.9210  -10.5010   20.9900 C   0  0  0  0  0  0  0  0  0  0  0  0
  -24.3500   -9.5410   21.9330 C   0  0  0  0  0  3  0  0  0  0  0  0
  -23.6270   -8.3410   22.1160 C   0  0  0  0  0  3  0  0  0  0  0  0
  -22.4600   -8.0940   21.3540 C   0  0  0  0  0  0  0  0  0  0  0  0
  -22.0470   -9.0450   20.4030 C   0  0  0  0  0  3  0  0  0  0  0  0
  -22.7710  -10.2360   20.2190 C   0  0  0  0  0  3  0  0  0  0  0  0
  -21.7060   -6.9480   21.4480 O   0  0  0  0  0  0  0  0  0  0  0  0
  -21.6430   -6.2200   22.6100 C   0  0  0  0  0  0  0  0  0  0  0  0
  -21.1690   -6.7840   23.8140 C   0  0  0  0  0  3  0  0  0  0  0  0
  -21.0520   -5.9840   24.9690 C   0  0  0  0  0  3  0  0  0  0  0  0
  -21.3990   -4.6190   24.9160 C   0  0  0  0  0  0  0  0  0  0  0  0
  -21.8650   -4.0550   23.7140 C   0  0  0  0  0  3  0  0  0  0  0  0
  -21.9830   -4.8540   22.5650 C   0  0  0  0  0  0  0  0  0  0  0  0
  -22.4120   -4.3000   21.4030 F   0  0  0  0  0  0  0  0  0  0  0  0
  -21.2800   -3.8450   26.0220 F   0  0  0  0  0  0  0  0  0  0  0  0
  -22.7840  -13.5930   21.1090 C   0  0  0  0  0  0  0  0  0  0  0  0
  -22.0530  -12.8970   21.9720 N   0  0  0  0  0  0  0  0  0  0  0  0
  -22.3480  -14.6230   20.5980 O   0  0  0  0  0  0  0  0  0  0  0  0
  -22.4070  -12.0580   22.4060 H   0  0  0  0  0  0  0  0  0  0  0  0
  -21.1220  -13.2160   22.2060 H   0  0  0  0  0  0  0  0  0  0  0  0
  -25.4010  -15.2630   20.2680 N   0  0  0  0  0  0  0  0  0  0  0  0
  -24.6170  -15.9030   20.3370 H   0  0  0  0  0  0  0  0  0  0  0  0
  -26.2420  -15.7040   19.9150 H   0  0  0  0  0  0  0  0  0  0  0  0
  -27.9640  -24.8360   19.8420 C   0  0  0  0  0  2  0  0  0  0  0  0
  -28.2440  -26.2940   20.2040 O   0  0  0  0  0  0  0  0  0  0  0  0
  -24.5920  -31.8920   23.2020 C   0  0  0  0  0  0  0  0  0  0  0  0
  -27.1730  -27.2440   20.1370 C   0  0  0  0  0  0  0  0  0  0  0  0
  -23.3830  -30.5000   21.5670 C   0  0  0  0  0  3  0  0  0  0  0  0
  -24.8250  -28.9400   20.1350 C   0  0  0  0  0  0  0  0  0  0  0  0
  -25.9350  -30.7800   21.3900 C   0  0  0  0  0  2  0  0  0  0  0  0
  -26.0070  -29.3990   20.7300 C   0  0  0  0  0  0  0  0  0  0  0  0
  -27.1830  -28.5660   20.7190 C   0  0  0  0  0  3  0  0  0  0  0  0
  -25.9580  -26.8740   19.5080 C   0  0  0  0  0  3  0  0  0  0  0  0
  -24.8080  -27.6840   19.5180 C   0  0  0  0  0  3  0  0  0  0  0  0
  -23.5980  -29.8310   20.1870 C   0  0  0  0  0  2  0  0  0  0  0  0
  -24.6560  -31.0760   22.1080 N   0  0  0  0  0  0  0  0  0  0  0  0
  -23.5100  -32.1740   23.7390 O   0  0  0  0  0  0  0  0  0  0  0  0
  -22.7120  -29.4860   22.5290 C   0  0  0  0  0  0  0  0  0  0  0  0
  -21.3830  -29.3130   22.4060 N   0  0  0  0  0  0  0  0  0  0  0  0
  -23.3900  -28.8600   23.3490 O   0  0  0  0  0  0  0  0  0  0  0  0
  -20.8980  -29.8710   21.7180 H   0  0  0  0  0  0  0  0  0  0  0  0
  -17.9980  -28.1280   22.9190 C   0  0  0  0  0  0  0  0  0  0  0  0
  -20.5600  -28.3770   23.1760 C   0  0  0  0  0  3  0  0  0  0  0  0
  -20.6530  -26.9470   22.5940 C   0  0  0  0  0  2  0  0  0  0  0  0
  -19.5450  -26.6320   21.5850 C   0  0  0  0  0  2  0  0  0  0  0  0
  -18.1670  -26.7820   22.2360 C   0  0  0  0  0  2  0  0  0  0  0  0
  -19.1230  -28.8840   23.3450 C   0  0  0  0  0  0  0  0  0  0  0  0
  -18.9100  -30.1460   23.9430 C   0  0  0  0  0  3  0  0  0  0  0  0
  -17.6070  -30.6490   24.1200 C   0  0  0  0  0  3  0  0  0  0  0  0
  -16.4980  -29.8880   23.7130 C   0  0  0  0  0  3  0  0  0  0  0  0
  -16.6960  -28.6300   23.1170 C   0  0  0  0  0  3  0  0  0  0  0  0
  -25.8760  -32.5210   23.8250 C   0  0  0  0  0  3  0  0  0  0  0  0
  -25.5680  -33.9190   24.1600 N   0  0  0  0  0  0  0  0  0  0  0  0
  -25.8920  -34.9750   23.4040 C   0  0  0  0  0  0  0  0  0  0  0  0
  -26.5560  -34.8750   22.3680 O   0  0  0  0  0  0  0  0  0  0  0  0
  -24.9860  -34.0690   24.9710 H   0  0  0  0  0  0  0  0  0  0  0  0
  -24.1750  -36.7800   23.0580 C   0  0  0  0  0  1  0  0  0  0  0  0
  -25.4110  -36.3630   23.8720 C   0  0  0  0  0  3  0  0  0  0  0  0
  -27.5440  -37.2370   24.7170 C   0  0  0  0  0  1  0  0  0  0  0  0
  -26.4480  -37.4130   23.7680 N   0  0  0  0  0  0  0  0  0  0  0  0
  -26.0430  -38.3350   23.9110 H   0  0  0  0  0  0  0  0  0  0  0  0
  -26.3840  -31.7490   25.1040 C   0  0  1  0  0  0  0  0  0  0  0  0
  -25.2870  -31.5140   26.1690 C   0  0  0  0  0  1  0  0  0  0  0  0
  -26.9680  -30.3710   24.7170 C   0  0  0  0  0  1  0  0  0  0  0  0
  -27.5330  -32.5430   25.7680 C   0  0  0  0  0  1  0  0  0  0  0  0
  1  3  1  0
  2  1  2  0
  2  7  1  0
  3  5  2  0
  3  4  1  0
  6  2  1  0
  7  5  1  0
  9 10  2  0
 10 21  1  0
 10  8  1  0
 11  7  1  0
 11  8  2  0
 12  9  1  0
 12 11  1  0
 13 21  1  0
 14 19  1  0
 15 16  1  0
 15 14  1  0
 17 16  1  0
 17 26  1  0
 17 18  1  0
 19 13  1  0
 19 18  1  0
 20 13  2  0
 21 22  1  0
 23 24  2  0
 24 43  1  0
 25 24  1  0
 25 28  1  0
 26 23  1  0
 26 27  1  0
 27 25  2  0
 28 29  1  0
 29 30  2  0
 31 34  1  0
 31 30  1  0
 32 31  2  0
 33 32  1  0
 33 28  2  0
 34 35  1  0
 35 36  1  0
 36 37  2  0
 38 37  1  0
 38 42  1  0
 39 38  2  0
 40 35  2  0
 40 39  1  0
 41 40  1  0
 43 44  1  0
 44 47  1  0
 44 46  1  0
 45 43  2  0
 48 49  1  0
 48 23  1  0
 50 48  1  0
 51 52  1  0
 51  1  1  0
 53 64  2  0
 54 52  1  0
 54 59  1  0
 55 63  1  0
 55 65  1  0
 56 62  1  0
 56 58  1  0
 57 63  1  0
 58 57  1  0
 59 58  2  0
 60 61  1  0
 60 54  2  0
 61 56  2  0
 62 55  1  0
 63 53  1  0
 65 67  2  0
 66 65  1  0
 68 66  1  0
 69 78  2  0
 69 74  1  0
 70 66  1  0
 70 74  1  0
 71 70  1  0
 72 73  1  0
 72 71  1  0
 73 69  1  0
 74 75  2  0
 75 76  1  0
 77 76  2  0
 78 77  1  0
 79 53  1  0
 79 80  1  0
 79 89  1  0
 80 83  1  0
 81 85  1  0
 81 80  1  0
 82 81  2  0
 85 84  1  0
 87 85  1  0
 87 88  1  0
 87 86  1  0
 89 92  1  1
 89 90  1  0
 91 89  1  0
M  ISO  4  13 100  21 100  51 101  52 101
M  END
>  <TORSDO>  (50) 
F 18

>  <SCORE>  (50) 
-14.724

>  <name>  (50) 
50

>  <ligand_id>  (50) 
50

>  <original_smiles>  (50) 
[H]C([H])=C1C(C([H])([H])Oc2c([H])c([H])c3c(c2[H])C([H])([H])N(C(=O)C([H])(N([H])C(=O)C([H])(N([H])C([H])([H])[H])C([H])([H])[H])C(C([H])([H])[H])(C([H])([H])[H])C([H])([H])[H])C([H])(C(=O)N([H])C2([H])c4c([H])c([H])c([H])c([H])c4C([H])([H])C([H])([H])C2([H])[H])C3([H])[H])=C(C([H])([H])[H])N(c2oc([H])c(N([H])C(=O)N3C([H])([H])C([H])([H])C([H])([H])C([H])(n4nc(-c5c([H])c([H])c(Oc6c([H])c([H])c(F)c([H])c6F)c([H])c5[H])c(C(=O)N([H])[H])c4N([H])[H])C3([H])[H])c2[H])C1([H])[H]

>  <smiles>  (50) 
[H]C([H])=C1C(C([H])([H])Oc2c([H])c([H])c3c(c2[H])C([H])([H])N(C(=O)C([H])(N([H])C(=O)C([H])(N([H])C([H])([H])[H])C([H])([H])[H])C(C([H])([H])[H])(C([H])([H])[H])C([H])([H])[H])C([H])(C(=O)N([H])C2([H])c4c([H])c([H])c([H])c([H])c4C([H])([H])C([H])([H])C2([H])[H])C3([H])[H])=C(C([H])([H])[H])N(c2oc([H])c(N([H])C(=O)N3C([H])([H])C([H])([H])C([H])([H])C([H])(n4nc(-c5c([H])c([H])c(Oc6c([H])c([H])c(F)c([H])c6F)c([H])c5[H])c(C(=O)N([H])[H])c4N([H])[H])C3([H])[H])c2[H])C1([H])[H]

$$$$
51:0:0
     RDKit          3D

 93101  0  0  1  0  0  0  0  0999 V2000
  -29.2440  -21.4600   19.6170 C   0  0  0  0  0  0  0  0  0  0  0  0
  -28.7820  -22.4910   20.3970 N   0  0  0  0  0  0  0  0  0  0  0  0
  -29.5410  -21.7050   18.4460 O   0  0  0  0  0  0  0  0  0  0  0  0
  -28.5070  -22.3000   21.3520 H   0  0  0  0  0  0  0  0  0  0  0  0
  -28.6220  -19.2540   20.9330 C   0  0  0  0  0  3  0  0  0  0  0  0
  -30.5580  -19.2610   19.5130 C   0  0  0  0  0  3  0  0  0  0  0  0
  -28.8140  -17.8480   21.1400 C   0  0  0  0  0  3  0  0  0  0  0  0
  -30.7510  -17.8650   19.7200 C   0  0  0  0  0  3  0  0  0  0  0  0
  -29.4860  -20.0040   20.0890 C   0  0  0  0  0  0  0  0  0  0  0  0
  -29.8660  -17.1040   20.5200 C   0  0  0  0  0  0  0  0  0  0  0  0
  -30.6780  -14.6640   20.0770 C   0  0  0  0  0  0  0  0  0  0  0  0
  -30.4240  -12.4700   18.9170 C   0  0  0  0  0  2  0  0  0  0  0  0
  -29.4060  -12.6670   17.7730 C   0  0  0  0  0  2  0  0  0  0  0  0
  -27.9590  -12.4890   18.2790 C   0  0  0  0  0  2  0  0  0  0  0  0
  -27.6910  -13.2780   19.5890 C   0  0  0  0  0  3  0  0  0  0  0  0
  -28.8130  -13.0480   20.6230 C   0  0  0  0  0  2  0  0  0  0  0  0
  -30.0840  -13.4300   19.9910 N   0  0  0  0  0  0  0  0  0  0  0  0
  -31.7730  -14.8770   19.5500 O   0  0  0  0  0  0  0  0  0  0  0  0
  -29.9330  -15.6470   20.6910 N   0  0  0  0  0  0  0  0  0  0  0  0
  -29.1610  -15.2570   21.2090 H   0  0  0  0  0  0  0  0  0  0  0  0
  -25.3590  -13.8680   20.4840 C   0  0  0  0  0  0  0  0  0  0  0  0
  -24.3090  -13.0870   20.8880 C   0  0  0  0  0  0  0  0  0  0  0  0
  -24.7570  -11.7350   20.7760 C   0  0  0  0  0  0  0  0  0  0  0  0
  -26.3740  -12.9890   20.1420 N   0  0  0  0  0  0  0  0  0  0  0  0
  -26.0220  -11.7010   20.3810 N   0  0  0  0  0  0  0  0  0  0  0  0
  -24.0360  -10.4710   20.9740 C   0  0  0  0  0  0  0  0  0  0  0  0
  -24.4880   -9.4990   21.8940 C   0  0  0  0  0  3  0  0  0  0  0  0
  -23.7690   -8.3000   22.0780 C   0  0  0  0  0  3  0  0  0  0  0  0
  -22.5830   -8.0620   21.3410 C   0  0  0  0  0  0  0  0  0  0  0  0
  -22.1510   -9.0230   20.4120 C   0  0  0  0  0  3  0  0  0  0  0  0
  -22.8700  -10.2150   20.2260 C   0  0  0  0  0  3  0  0  0  0  0  0
  -21.8290   -6.9170   21.4380 O   0  0  0  0  0  0  0  0  0  0  0  0
  -21.7540   -6.2030   22.6060 C   0  0  0  0  0  0  0  0  0  0  0  0
  -21.2620   -6.7730   23.8000 C   0  0  0  0  0  3  0  0  0  0  0  0
  -21.1360   -5.9820   24.9600 C   0  0  0  0  0  3  0  0  0  0  0  0
  -21.4920   -4.6210   24.9260 C   0  0  0  0  0  0  0  0  0  0  0  0
  -21.9800   -4.0500   23.7360 C   0  0  0  0  0  3  0  0  0  0  0  0
  -22.1080   -4.8400   22.5800 C   0  0  0  0  0  0  0  0  0  0  0  0
  -22.5580   -4.2800   21.4310 F   0  0  0  0  0  0  0  0  0  0  0  0
  -21.3670   -3.8570   26.0360 F   0  0  0  0  0  0  0  0  0  0  0  0
  -22.9380  -13.5640   21.2680 C   0  0  0  0  0  0  0  0  0  0  0  0
  -22.2600  -12.8420   22.1550 N   0  0  0  0  0  0  0  0  0  0  0  0
  -22.4780  -14.6100   20.8150 O   0  0  0  0  0  0  0  0  0  0  0  0
  -22.6410  -11.9940   22.5500 H   0  0  0  0  0  0  0  0  0  0  0  0
  -21.3440  -13.1480   22.4480 H   0  0  0  0  0  0  0  0  0  0  0  0
  -25.5300  -15.2440   20.3650 N   0  0  0  0  0  0  0  0  0  0  0  0
  -24.8100  -15.9030   20.6420 H   0  0  0  0  0  0  0  0  0  0  0  0
  -26.3930  -15.6930   20.0820 H   0  0  0  0  0  0  0  0  0  0  0  0
  -28.6700  -23.9130   19.8690 C   0  0  0  0  0  2  0  0  0  0  0  0
  -27.0130  -24.8700   21.5900 C   0  0  0  0  0  1  0  0  0  0  0  0
  -29.4420  -25.2340   21.9100 C   0  0  0  0  0  1  0  0  0  0  0  0
  -28.3410  -25.1410   20.8400 C   0  0  1  0  0  0  0  0  0  0  0  0
  -28.4120  -26.4850   20.1830 O   0  0  0  0  0  0  0  0  0  0  0  0
  -24.6320  -31.8510   23.1330 C   0  0  0  0  0  0  0  0  0  0  0  0
  -27.3000  -27.3330   20.1110 C   0  0  0  0  0  0  0  0  0  0  0  0
  -23.4510  -30.4440   21.4810 C   0  0  0  0  0  3  0  0  0  0  0  0
  -24.9280  -28.9160   20.0530 C   0  0  0  0  0  0  0  0  0  0  0  0
  -25.9860  -30.7970   21.3120 C   0  0  0  0  0  2  0  0  0  0  0  0
  -26.0840  -29.4210   20.6640 C   0  0  0  0  0  0  0  0  0  0  0  0
  -27.2760  -28.6430   20.6760 C   0  0  0  0  0  3  0  0  0  0  0  0
  -26.1390  -26.8870   19.4480 C   0  0  0  0  0  3  0  0  0  0  0  0
  -24.9590  -27.6570   19.4280 C   0  0  0  0  0  3  0  0  0  0  0  0
  -23.6760  -29.7690   20.1020 C   0  0  0  0  0  2  0  0  0  0  0  0
  -24.7070  -31.0490   22.0320 N   0  0  0  0  0  0  0  0  0  0  0  0
  -23.5430  -32.1170   23.6630 O   0  0  0  0  0  0  0  0  0  0  0  0
  -22.7950  -29.4190   22.4400 C   0  0  0  0  0  0  0  0  0  0  0  0
  -21.4660  -29.2530   22.3250 N   0  0  0  0  0  0  0  0  0  0  0  0
  -23.4780  -28.7780   23.2430 O   0  0  0  0  0  0  0  0  0  0  0  0
  -20.9760  -29.8190   21.6460 H   0  0  0  0  0  0  0  0  0  0  0  0
  -18.0780  -28.1030   22.8760 C   0  0  0  0  0  0  0  0  0  0  0  0
  -20.6480  -28.3080   23.0880 C   0  0  0  0  0  3  0  0  0  0  0  0
  -20.7080  -26.8930   22.4720 C   0  0  0  0  0  2  0  0  0  0  0  0
  -19.5750  -26.6180   21.4790 C   0  0  0  0  0  2  0  0  0  0  0  0
  -18.2100  -26.7700   22.1590 C   0  0  0  0  0  2  0  0  0  0  0  0
  -19.2220  -28.8330   23.2970 C   0  0  0  0  0  0  0  0  0  0  0  0
  -19.0430  -30.0840   23.9270 C   0  0  0  0  0  3  0  0  0  0  0  0
  -17.7520  -30.6060   24.1370 C   0  0  0  0  0  3  0  0  0  0  0  0
  -16.6240  -29.8730   23.7320 C   0  0  0  0  0  3  0  0  0  0  0  0
  -16.7860  -28.6220   23.1080 C   0  0  0  0  0  3  0  0  0  0  0  0
  -25.9070  -32.4900   23.7660 C   0  0  0  0  0  3  0  0  0  0  0  0
  -26.4310  -31.7040   25.0310 C   0  0  1  0  0  0  0  0  0  0  0  0
  -25.3380  -31.4290   26.0910 C   0  0  0  0  0  1  0  0  0  0  0  0
  -27.0340  -30.3410   24.6200 C   0  0  0  0  0  1  0  0  0  0  0  0
  -27.5700  -32.5030   25.7070 C   0  0  0  0  0  1  0  0  0  0  0  0
  -25.5760  -33.8780   24.1180 N   0  0  0  0  0  0  0  0  0  0  0  0
  -25.8930  -34.9490   23.3770 C   0  0  0  0  0  0  0  0  0  0  0  0
  -26.5630  -34.8710   22.3440 O   0  0  0  0  0  0  0  0  0  0  0  0
  -24.9720  -34.0110   24.9150 H   0  0  0  0  0  0  0  0  0  0  0  0
  -24.1370  -36.7210   23.0520 C   0  0  0  0  0  1  0  0  0  0  0  0
  -25.3850  -36.3230   23.8550 C   0  0  0  0  0  3  0  0  0  0  0  0
  -27.5030  -37.2270   24.7050 C   0  0  0  0  0  1  0  0  0  0  0  0
  -26.4030  -37.3940   23.7600 N   0  0  0  0  0  0  0  0  0  0  0  0
  -25.9820  -38.3070   23.9170 H   0  0  0  0  0  0  0  0  0  0  0  0
  1  9  1  0
  1  2  1  0
  2  4  1  0
  3  1  2  0
  5  7  1  0
  6  8  2  0
  6  9  1  0
  8 10  1  0
  9  5  2  0
 10 19  1  0
 10  7  2  0
 11 19  1  0
 12 17  1  0
 13 14  1  0
 13 12  1  0
 15 14  1  0
 15 24  1  0
 15 16  1  0
 17 11  1  0
 17 16  1  0
 18 11  2  0
 19 20  1  0
 21 22  2  0
 22 41  1  0
 23 22  1  0
 23 26  1  0
 24 25  1  0
 24 21  1  0
 25 23  2  0
 26 27  1  0
 27 28  2  0
 29 32  1  0
 29 28  1  0
 30 29  2  0
 31 30  1  0
 31 26  2  0
 32 33  1  0
 33 34  1  0
 34 35  2  0
 36 35  1  0
 36 40  1  0
 37 36  2  0
 38 33  2  0
 38 37  1  0
 39 38  1  0
 41 42  1  0
 42 45  1  0
 42 44  1  0
 43 41  2  0
 46 21  1  0
 46 47  1  0
 48 46  1  0
 49  2  1  0
 49 52  1  0
 52 50  1  1
 52 51  1  0
 53 52  1  0
 54 65  2  0
 55 53  1  0
 55 60  1  0
 56 64  1  0
 56 66  1  0
 57 63  1  0
 57 59  1  0
 58 64  1  0
 59 60  2  0
 59 58  1  0
 61 55  2  0
 62 61  1  0
 62 57  2  0
 63 56  1  0
 64 54  1  0
 66 68  2  0
 67 66  1  0
 69 67  1  0
 70 79  2  0
 70 75  1  0
 71 67  1  0
 71 75  1  0
 72 71  1  0
 73 74  1  0
 73 72  1  0
 74 70  1  0
 75 76  2  0
 76 77  1  0
 78 77  2  0
 79 78  1  0
 80 54  1  0
 80 85  1  0
 80 81  1  0
 81 84  1  1
 81 82  1  0
 83 81  1  0
 85 88  1  0
 86 90  1  0
 86 85  1  0
 87 86  2  0
 90 89  1  0
 92 90  1  0
 92 93  1  0
 92 91  1  0
M  ISO  4  11 100  19 100  52 101  53 101
M  END
>  <TORSDO>  (51) 
F 19

>  <SCORE>  (51) 
-13.613

>  <name>  (51) 
51

>  <ligand_id>  (51) 
51

>  <original_smiles>  (51) 
[H]c1c([H])c([H])c2c(c1[H])C([H])([H])C([H])([H])C([H])([H])C2([H])N([H])C(=O)C1([H])N(C(=O)C([H])(N([H])C(=O)C([H])(N([H])C([H])([H])[H])C([H])([H])[H])C(C([H])([H])[H])(C([H])([H])[H])C([H])([H])[H])C([H])([H])c2c([H])c(OC(C([H])([H])[H])(C([H])([H])[H])C([H])([H])N([H])C(=O)c3c([H])c([H])c(N([H])C(=O)N4C([H])([H])C([H])([H])C([H])([H])C([H])(n5nc(-c6c([H])c([H])c(Oc7c([H])c([H])c(F)c([H])c7F)c([H])c6[H])c(C(=O)N([H])[H])c5N([H])[H])C4([H])[H])c([H])c3[H])c([H])c([H])c2C1([H])[H]

>  <smiles>  (51) 
[H]c1c([H])c([H])c2c(c1[H])C([H])([H])C([H])([H])C([H])([H])C2([H])N([H])C(=O)C1([H])N(C(=O)C([H])(N([H])C(=O)C([H])(N([H])C([H])([H])[H])C([H])([H])[H])C(C([H])([H])[H])(C([H])([H])[H])C([H])([H])[H])C([H])([H])c2c([H])c(OC(C([H])([H])[H])(C([H])([H])[H])C([H])([H])N([H])C(=O)c3c([H])c([H])c(N([H])C(=O)N4C([H])([H])C([H])([H])C([H])([H])C([H])(n5nc(-c6c([H])c([H])c(Oc7c([H])c([H])c(F)c([H])c7F)c([H])c6[H])c(C(=O)N([H])[H])c5N([H])[H])C4([H])[H])c([H])c3[H])c([H])c([H])c2C1([H])[H]

$$$$
52:0:0
     RDKit          3D

 97105  0  0  1  0  0  0  0  0999 V2000
  -30.7940  -21.2450   21.3440 C   0  0  0  0  0  0  0  0  0  0  0  0
  -31.8450  -21.6320   22.0680 N   0  0  0  0  0  4  0  0  0  0  0  0
  -29.8640  -22.1690   20.9900 N   0  0  0  0  0  0  0  0  0  0  0  0
  -32.4920  -20.9350   22.4020 H   0  0  0  0  0  0  0  0  0  0  0  0
  -32.0330  -22.5970   22.2790 H   0  0  0  0  0  0  0  0  0  0  0  0
  -29.1770  -21.8720   20.3120 H   0  0  0  0  0  0  0  0  0  0  0  0
  -31.8120  -18.9860   20.8740 C   0  0  0  0  0  3  0  0  0  0  0  0
  -29.3990  -19.1740   21.0380 C   0  0  0  0  0  3  0  0  0  0  0  0
  -31.7020  -17.5790   20.7680 C   0  0  0  0  0  3  0  0  0  0  0  0
  -29.2900  -17.7670   20.9280 C   0  0  0  0  0  3  0  0  0  0  0  0
  -30.6640  -19.8020   21.0380 C   0  0  0  0  0  0  0  0  0  0  0  0
  -30.4350  -16.9430   20.8110 C   0  0  0  0  0  0  0  0  0  0  0  0
  -30.9300  -14.5340   20.1790 C   0  0  0  0  0  0  0  0  0  0  0  0
  -30.5920  -12.3830   19.0110 C   0  0  0  0  0  2  0  0  0  0  0  0
  -29.6010  -12.5980   17.8470 C   0  0  0  0  0  2  0  0  0  0  0  0
  -28.1420  -12.4700   18.3300 C   0  0  0  0  0  2  0  0  0  0  0  0
  -27.8610  -13.2950   19.6140 C   0  0  0  0  0  3  0  0  0  0  0  0
  -28.9540  -13.0450   20.6780 C   0  0  0  0  0  2  0  0  0  0  0  0
  -30.2600  -13.3540   20.0670 N   0  0  0  0  0  0  0  0  0  0  0  0
  -32.0380  -14.7130   19.6640 O   0  0  0  0  0  0  0  0  0  0  0  0
  -30.2290  -15.5220   20.7760 N   0  0  0  0  0  0  0  0  0  0  0  0
  -29.3460  -15.2100   21.1470 H   0  0  0  0  0  0  0  0  0  0  0  0
  -25.4990  -13.9220   20.4300 C   0  0  0  0  0  0  0  0  0  0  0  0
  -24.4370  -13.1580   20.8280 C   0  0  0  0  0  0  0  0  0  0  0  0
  -24.8760  -11.8000   20.7510 C   0  0  0  0  0  0  0  0  0  0  0  0
  -26.5220  -13.0310   20.1400 N   0  0  0  0  0  0  0  0  0  0  0  0
  -26.1520  -11.7500   20.3910 N   0  0  0  0  0  0  0  0  0  0  0  0
  -24.1400  -10.5440   20.9450 C   0  0  0  0  0  0  0  0  0  0  0  0
  -24.5550   -9.5840   21.8940 C   0  0  0  0  0  3  0  0  0  0  0  0
  -23.8210   -8.3920   22.0740 C   0  0  0  0  0  3  0  0  0  0  0  0
  -22.6580   -8.1510   21.3030 C   0  0  0  0  0  0  0  0  0  0  0  0
  -22.2640   -9.0990   20.3430 C   0  0  0  0  0  3  0  0  0  0  0  0
  -22.9980  -10.2830   20.1620 C   0  0  0  0  0  3  0  0  0  0  0  0
  -21.8970   -7.0100   21.3920 O   0  0  0  0  0  0  0  0  0  0  0  0
  -21.7710   -6.3200   22.5710 C   0  0  0  0  0  0  0  0  0  0  0  0
  -21.2170   -6.9120   23.7260 C   0  0  0  0  0  3  0  0  0  0  0  0
  -21.0410   -6.1450   24.8950 C   0  0  0  0  0  3  0  0  0  0  0  0
  -21.4070   -4.7860   24.9090 C   0  0  0  0  0  0  0  0  0  0  0  0
  -21.9530   -4.1930   23.7570 C   0  0  0  0  0  3  0  0  0  0  0  0
  -22.1310   -4.9580   22.5900 C   0  0  0  0  0  0  0  0  0  0  0  0
  -22.6380   -4.3750   21.4770 F   0  0  0  0  0  0  0  0  0  0  0  0
  -21.2310   -4.0470   26.0290 F   0  0  0  0  0  0  0  0  0  0  0  0
  -23.0580  -13.6470   21.1670 C   0  0  0  0  0  0  0  0  0  0  0  0
  -22.3540  -12.9420   22.0470 N   0  0  0  0  0  0  0  0  0  0  0  0
  -22.6130  -14.6890   20.6860 O   0  0  0  0  0  0  0  0  0  0  0  0
  -22.7260  -12.0990   22.4590 H   0  0  0  0  0  0  0  0  0  0  0  0
  -21.4290  -13.2500   22.3120 H   0  0  0  0  0  0  0  0  0  0  0  0
  -25.6770  -15.2930   20.2680 N   0  0  0  0  0  0  0  0  0  0  0  0
  -24.9150  -15.9500   20.3930 H   0  0  0  0  0  0  0  0  0  0  0  0
  -26.4970  -15.7150   19.8510 H   0  0  0  0  0  0  0  0  0  0  0  0
  -28.3860  -23.4930   22.4520 C   0  0  0  0  0  1  0  0  0  0  0  0
  -29.6750  -23.5150   21.6120 C   0  0  0  0  0  3  0  0  0  0  0  0
  -30.3520  -25.9280   21.5680 C   0  0  0  0  0  1  0  0  0  0  0  0
  -30.9020  -24.5090   19.5990 C   0  0  0  0  0  1  0  0  0  0  0  0
  -29.8260  -24.7790   20.6710 C   0  0  1  0  0  0  0  0  0  0  0  0
  -28.5120  -25.2870   19.9790 C   0  0  0  0  0  2  0  0  0  0  0  0
  -28.5790  -26.6990   19.6580 O   0  0  0  0  0  0  0  0  0  0  0  0
  -24.6590  -31.5990   23.0570 C   0  0  0  0  0  0  0  0  0  0  0  0
  -27.3930  -27.4040   19.7060 C   0  0  0  0  0  0  0  0  0  0  0  0
  -23.4760  -30.2630   21.3440 C   0  0  0  0  0  3  0  0  0  0  0  0
  -24.9580  -28.8480   19.8200 C   0  0  0  0  0  0  0  0  0  0  0  0
  -25.9920  -30.7000   21.1450 C   0  0  0  0  0  2  0  0  0  0  0  0
  -26.1080  -29.3700   20.4230 C   0  0  0  0  0  0  0  0  0  0  0  0
  -27.3300  -28.6590   20.3560 C   0  0  0  0  0  3  0  0  0  0  0  0
  -26.2210  -26.8940   19.1010 C   0  0  0  0  0  3  0  0  0  0  0  0
  -25.0090  -27.6110   19.1540 C   0  0  0  0  0  3  0  0  0  0  0  0
  -23.6910  -29.6680   19.9260 C   0  0  0  0  0  2  0  0  0  0  0  0
  -24.7270  -30.8660   21.9070 N   0  0  0  0  0  0  0  0  0  0  0  0
  -23.5750  -31.8110   23.6180 O   0  0  0  0  0  0  0  0  0  0  0  0
  -22.8590  -29.1720   22.2480 C   0  0  0  0  0  0  0  0  0  0  0  0
  -21.5370  -28.9710   22.1290 N   0  0  0  0  0  0  0  0  0  0  0  0
  -23.5660  -28.5120   23.0140 O   0  0  0  0  0  0  0  0  0  0  0  0
  -21.0260  -29.5580   21.4840 H   0  0  0  0  0  0  0  0  0  0  0  0
  -18.1900  -27.7010   22.6240 C   0  0  0  0  0  0  0  0  0  0  0  0
  -20.7520  -27.9700   22.8520 C   0  0  0  0  0  3  0  0  0  0  0  0
  -20.8530  -26.5860   22.1700 C   0  0  0  0  0  2  0  0  0  0  0  0
  -19.7290  -26.3250   21.1620 C   0  0  0  0  0  2  0  0  0  0  0  0
  -18.3630  -26.4070   21.8500 C   0  0  0  0  0  2  0  0  0  0  0  0
  -19.3110  -28.4440   23.0820 C   0  0  0  0  0  0  0  0  0  0  0  0
  -19.0950  -29.6590   23.7660 C   0  0  0  0  0  3  0  0  0  0  0  0
  -17.7900  -30.1320   23.9990 C   0  0  0  0  0  3  0  0  0  0  0  0
  -16.6840  -29.3850   23.5590 C   0  0  0  0  0  3  0  0  0  0  0  0
  -16.8850  -28.1720   22.8780 C   0  0  0  0  0  3  0  0  0  0  0  0
  -25.9330  -32.2270   23.7030 C   0  0  0  0  0  3  0  0  0  0  0  0
  -26.4630  -31.4160   24.9490 C   0  0  1  0  0  0  0  0  0  0  0  0
  -25.3740  -31.1180   26.0050 C   0  0  0  0  0  1  0  0  0  0  0  0
  -27.0710  -30.0660   24.5040 C   0  0  0  0  0  1  0  0  0  0  0  0
  -27.6010  -32.2030   25.6410 C   0  0  0  0  0  1  0  0  0  0  0  0
  -25.6030  -33.6070   24.0840 N   0  0  0  0  0  0  0  0  0  0  0  0
  -25.9300  -34.6930   23.3700 C   0  0  0  0  0  0  0  0  0  0  0  0
  -26.6150  -34.6370   22.3450 O   0  0  0  0  0  0  0  0  0  0  0  0
  -24.9910  -33.7230   24.8790 H   0  0  0  0  0  0  0  0  0  0  0  0
  -24.1910  -36.4800   23.0510 C   0  0  0  0  0  1  0  0  0  0  0  0
  -25.4170  -36.0550   23.8750 C   0  0  0  0  0  3  0  0  0  0  0  0
  -27.5160  -36.9300   24.8010 C   0  0  0  0  0  1  0  0  0  0  0  0
  -26.4420  -37.1210   23.8300 N   0  0  0  0  0  0  0  0  0  0  0  0
  -26.0210  -38.0310   23.9980 H   0  0  0  0  0  0  0  0  0  0  0  0
  1  2  2  0
  2  5  1  0
  2  4  1  0
  3  1  1  0
  3 52  1  0
  6  3  1  0
  7 11  1  0
  8 11  2  0
  9 12  1  0
  9  7  2  0
 10  8  1  0
 11  1  1  0
 12 10  2  0
 13 21  1  0
 14 19  1  0
 15 16  1  0
 15 14  1  0
 17 16  1  0
 17 26  1  0
 17 18  1  0
 19 13  1  0
 19 18  1  0
 20 13  2  0
 21 12  1  0
 21 22  1  0
 23 24  2  0
 24 43  1  0
 25 24  1  0
 25 28  1  0
 26 27  1  0
 26 23  1  0
 27 25  2  0
 28 29  1  0
 29 30  2  0
 31 34  1  0
 31 30  1  0
 32 31  2  0
 33 32  1  0
 33 28  2  0
 34 35  1  0
 35 40  2  0
 35 36  1  0
 36 37  2  0
 37 38  1  0
 38 42  1  0
 39 38  2  0
 40 39  1  0
 41 40  1  0
 43 44  1  0
 44 47  1  0
 44 46  1  0
 45 43  2  0
 48 49  1  0
 48 23  1  0
 50 48  1  0
 52 51  1  0
 55 54  1  6
 55 53  1  0
 55 52  1  0
 56 55  1  0
 57 59  1  0
 57 56  1  0
 58 69  2  0
 59 64  1  0
 60 68  1  0
 60 70  1  0
 61 67  1  0
 61 63  1  0
 62 68  1  0
 63 62  1  0
 64 63  2  0
 65 66  1  0
 65 59  2  0
 66 61  2  0
 67 60  1  0
 68 58  1  0
 70 72  2  0
 71 70  1  0
 73 71  1  0
 74 83  2  0
 74 79  1  0
 75 71  1  0
 75 79  1  0
 76 75  1  0
 77 78  1  0
 77 76  1  0
 78 74  1  0
 79 80  2  0
 80 81  1  0
 82 81  2  0
 83 82  1  0
 84 58  1  0
 84 89  1  0
 84 85  1  0
 85 88  1  1
 85 86  1  0
 87 85  1  0
 89 92  1  0
 90 94  1  0
 90 89  1  0
 91 90  2  0
 94 93  1  0
 96 94  1  0
 96 97  1  0
 96 95  1  0
M  ISO  4  13 100  21 100  56 101  57 101
M  END
>  <TORSDO>  (52) 
F 20

>  <SCORE>  (52) 
-13.242

>  <name>  (52) 
52

>  <ligand_id>  (52) 
52

>  <original_smiles>  (52) 
[H]c1c([H])c([H])c2c(c1[H])C([H])([H])C([H])([H])C([H])([H])C2([H])N([H])C(=O)C1([H])N(C(=O)C([H])(N([H])C(=O)C([H])(N([H])C([H])([H])[H])C([H])([H])[H])C(C([H])([H])[H])(C([H])([H])[H])C([H])([H])[H])C([H])([H])c2c([H])c(OC([H])([H])C(C([H])([H])[H])(C([H])([H])[H])C([H])([N+]([H])=C(c3c([H])c([H])c(N([H])C(=O)N4C([H])([H])C([H])([H])C([H])([H])C([H])(n5nc(-c6c([H])c([H])c(Oc7c([H])c([H])c(F)c([H])c7F)c([H])c6[H])c(C(=O)N([H])[H])c5N([H])[H])C4([H])[H])c([H])c3[H])N([H])[H])C([H])([H])[H])c([H])c([H])c2C1([H])[H]

>  <smiles>  (52) 
[H]c1c([H])c([H])c2c(c1[H])C([H])([H])C([H])([H])C([H])([H])C2([H])N([H])C(=O)C1([H])N(C(=O)C([H])(N([H])C(=O)C([H])(N([H])C([H])([H])[H])C([H])([H])[H])C(C([H])([H])[H])(C([H])([H])[H])C([H])([H])[H])C([H])([H])c2c([H])c(OC([H])([H])C(C([H])([H])[H])(C([H])([H])[H])C([H])([N+]([H])=C(c3c([H])c([H])c(N([H])C(=O)N4C([H])([H])C([H])([H])C([H])([H])C([H])(n5nc(-c6c([H])c([H])c(Oc7c([H])c([H])c(F)c([H])c7F)c([H])c6[H])c(C(=O)N([H])[H])c5N([H])[H])C4([H])[H])c([H])c3[H])N([H])[H])C([H])([H])[H])c([H])c([H])c2C1([H])[H]

$$$$
53:0:0
     RDKit          3D

 96105  0  0  1  0  0  0  0  0999 V2000
  -28.9800  -17.9050   19.7010 C   0  0  0  0  0  3  0  0  0  0  0  0
  -28.6650  -19.2950   19.5240 C   0  0  0  0  0  3  0  0  0  0  0  0
  -30.5830  -19.8940   20.7500 C   0  0  0  0  0  3  0  0  0  0  0  0
  -30.0940  -17.4480   20.4560 C   0  0  0  0  0  0  0  0  0  0  0  0
  -29.4170  -20.3780   20.0800 C   0  0  0  0  0  0  0  0  0  0  0  0
  -30.9180  -18.5110   20.9460 C   0  0  0  0  0  0  0  0  0  0  0  0
  -29.6270  -23.0250   20.4410 C   0  0  0  0  0  0  0  0  0  0  0  0
  -27.9620  -22.5240   19.4100 C   0  0  0  0  0  0  0  0  0  0  0  0
  -28.2990  -23.8260   20.2140 C   0  0  0  0  0  3  0  0  0  0  0  0
  -29.0320  -21.8120   20.0090 N   0  0  0  0  0  0  0  0  0  0  0  0
  -30.7430  -23.2660   20.8560 O   0  0  0  0  0  0  0  0  0  0  0  0
  -27.1180  -22.1750   18.6090 O   0  0  0  0  0  0  0  0  0  0  0  0
  -28.3380  -25.1990   19.3860 C   0  0  0  0  0  2  0  0  0  0  0  0
  -28.2300  -26.5370   20.0400 O   0  0  0  0  0  0  0  0  0  0  0  0
  -24.5110  -31.9050   23.1240 C   0  0  0  0  0  0  0  0  0  0  0  0
  -27.0770  -27.3450   20.0040 C   0  0  0  0  0  0  0  0  0  0  0  0
  -23.2760  -30.5020   21.5110 C   0  0  0  0  0  3  0  0  0  0  0  0
  -24.6990  -28.9500   20.0540 C   0  0  0  0  0  0  0  0  0  0  0  0
  -25.8090  -30.8250   21.2720 C   0  0  0  0  0  2  0  0  0  0  0  0
  -25.8780  -29.4440   20.6240 C   0  0  0  0  0  0  0  0  0  0  0  0
  -27.0640  -28.6520   20.5910 C   0  0  0  0  0  3  0  0  0  0  0  0
  -25.8670  -26.8960   19.4280 C   0  0  0  0  0  3  0  0  0  0  0  0
  -24.6950  -27.6820   19.4500 C   0  0  0  0  0  3  0  0  0  0  0  0
  -23.4610  -29.8230   20.1270 C   0  0  0  0  0  2  0  0  0  0  0  0
  -24.5520  -31.0950   22.0250 N   0  0  0  0  0  0  0  0  0  0  0  0
  -23.4390  -32.1790   23.6830 O   0  0  0  0  0  0  0  0  0  0  0  0
  -22.6360  -29.4860   22.4880 C   0  0  0  0  0  0  0  0  0  0  0  0
  -21.3080  -29.3040   22.3860 N   0  0  0  0  0  0  0  0  0  0  0  0
  -23.3320  -28.8650   23.2940 O   0  0  0  0  0  0  0  0  0  0  0  0
  -20.8030  -29.8620   21.7120 H   0  0  0  0  0  0  0  0  0  0  0  0
  -17.9500  -28.0820   22.9390 C   0  0  0  0  0  0  0  0  0  0  0  0
  -20.5080  -28.3640   23.1710 C   0  0  0  0  0  3  0  0  0  0  0  0
  -20.6140  -26.9300   22.5990 C   0  0  0  0  0  2  0  0  0  0  0  0
  -19.4990  -26.5920   21.6040 C   0  0  0  0  0  2  0  0  0  0  0  0
  -18.1260  -26.7310   22.2690 C   0  0  0  0  0  2  0  0  0  0  0  0
  -19.0670  -28.8550   23.3490 C   0  0  0  0  0  0  0  0  0  0  0  0
  -18.8480  -30.1200   23.9360 C   0  0  0  0  0  3  0  0  0  0  0  0
  -17.5430  -30.6120   24.1180 C   0  0  0  0  0  3  0  0  0  0  0  0
  -16.4380  -29.8370   23.7250 C   0  0  0  0  0  3  0  0  0  0  0  0
  -16.6420  -28.5740   23.1410 C   0  0  0  0  0  3  0  0  0  0  0  0
  -25.8070  -32.5400   23.7190 C   0  0  0  0  0  3  0  0  0  0  0  0
  -26.3660  -31.7540   24.9680 C   0  0  1  0  0  0  0  0  0  0  0  0
  -25.3060  -31.4850   26.0620 C   0  0  0  0  0  1  0  0  0  0  0  0
  -26.9530  -30.3900   24.5370 C   0  0  0  0  0  1  0  0  0  0  0  0
  -27.5260  -32.5500   25.6110 C   0  0  0  0  0  1  0  0  0  0  0  0
  -25.4920  -33.9300   24.0830 N   0  0  0  0  0  0  0  0  0  0  0  0
  -25.7900  -34.9990   23.3340 C   0  0  0  0  0  0  0  0  0  0  0  0
  -26.4290  -34.9210   22.2800 O   0  0  0  0  0  0  0  0  0  0  0  0
  -24.9180  -34.0630   24.9020 H   0  0  0  0  0  0  0  0  0  0  0  0
  -24.0390  -36.7840   23.0600 C   0  0  0  0  0  1  0  0  0  0  0  0
  -25.3050  -36.3740   23.8310 C   0  0  0  0  0  3  0  0  0  0  0  0
  -27.4510  -37.2650   24.6250 C   0  0  0  0  0  1  0  0  0  0  0  0
  -26.3250  -37.4380   23.7090 N   0  0  0  0  0  0  0  0  0  0  0  0
  -25.9150  -38.3530   23.8800 H   0  0  0  0  0  0  0  0  0  0  0  0
  -30.1910  -15.9730   20.9420 C   0  0  0  0  0  0  0  0  0  0  0  0
  -29.7590  -15.7610   22.1160 N   0  0  0  0  0  0  0  0  0  0  0  0
  -29.4020  -16.6160   22.5270 H   0  0  0  0  0  0  0  0  0  0  0  0
  -30.8460  -14.8000   20.0910 C   0  0  0  0  0  0  0  0  0  0  0  0
  -30.5720  -12.5960   18.9370 C   0  0  0  0  0  2  0  0  0  0  0  0
  -29.5640  -12.7560   17.7750 C   0  0  0  0  0  2  0  0  0  0  0  0
  -28.1090  -12.5860   18.2600 C   0  0  0  0  0  2  0  0  0  0  0  0
  -27.8250  -13.3910   19.5540 C   0  0  0  0  0  3  0  0  0  0  0  0
  -28.9330  -13.1440   20.5950 C   0  0  0  0  0  2  0  0  0  0  0  0
  -30.2150  -13.5690   20.0000 N   0  0  0  0  0  0  0  0  0  0  0  0
  -31.9180  -14.9890   19.5040 O   0  0  0  0  0  0  0  0  0  0  0  0
  -25.4720  -13.9890   20.3980 C   0  0  0  0  0  0  0  0  0  0  0  0
  -24.4210  -13.2150   20.8080 C   0  0  0  0  0  0  0  0  0  0  0  0
  -24.8720  -11.8620   20.7270 C   0  0  0  0  0  0  0  0  0  0  0  0
  -26.4980  -13.1070   20.0950 N   0  0  0  0  0  0  0  0  0  0  0  0
  -26.1430  -11.8210   20.3490 N   0  0  0  0  0  0  0  0  0  0  0  0
  -24.1480  -10.6020   20.9300 C   0  0  0  0  0  0  0  0  0  0  0  0
  -24.5870   -9.6390   21.8670 C   0  0  0  0  0  3  0  0  0  0  0  0
  -23.8630   -8.4420   22.0570 C   0  0  0  0  0  3  0  0  0  0  0  0
  -22.6850   -8.2000   21.3100 C   0  0  0  0  0  0  0  0  0  0  0  0
  -22.2660   -9.1500   20.3640 C   0  0  0  0  0  3  0  0  0  0  0  0
  -22.9890  -10.3390   20.1730 C   0  0  0  0  0  3  0  0  0  0  0  0
  -21.9330   -7.0550   21.4100 O   0  0  0  0  0  0  0  0  0  0  0  0
  -21.8420   -6.3520   22.5850 C   0  0  0  0  0  0  0  0  0  0  0  0
  -21.3430   -6.9410   23.7670 C   0  0  0  0  0  3  0  0  0  0  0  0
  -21.2010   -6.1630   24.9350 C   0  0  0  0  0  3  0  0  0  0  0  0
  -21.5460   -4.7990   24.9190 C   0  0  0  0  0  0  0  0  0  0  0  0
  -22.0380   -4.2100   23.7410 C   0  0  0  0  0  3  0  0  0  0  0  0
  -22.1820   -4.9840   22.5760 C   0  0  0  0  0  0  0  0  0  0  0  0
  -22.6360   -4.4080   21.4370 F   0  0  0  0  0  0  0  0  0  0  0  0
  -21.4030   -4.0510   26.0380 F   0  0  0  0  0  0  0  0  0  0  0  0
  -23.0430  -13.6950   21.1620 C   0  0  0  0  0  0  0  0  0  0  0  0
  -22.3620  -12.9950   22.0620 N   0  0  0  0  0  0  0  0  0  0  0  0
  -22.5800  -14.7270   20.6760 O   0  0  0  0  0  0  0  0  0  0  0  0
  -22.7500  -12.1610   22.4770 H   0  0  0  0  0  0  0  0  0  0  0  0
  -21.4390  -13.2980   22.3410 H   0  0  0  0  0  0  0  0  0  0  0  0
  -25.6340  -15.3620   20.2390 N   0  0  0  0  0  0  0  0  0  0  0  0
  -24.8790  -16.0180   20.4040 H   0  0  0  0  0  0  0  0  0  0  0  0
  -26.4780  -15.8060   19.9040 H   0  0  0  0  0  0  0  0  0  0  0  0
  -32.0630  -18.2430   21.7030 N   0  0  0  0  0  0  0  0  0  0  0  0
  -32.1370  -17.3330   22.1450 H   0  0  0  0  0  0  0  0  0  0  0  0
  -32.4260  -18.9880   22.2920 H   0  0  0  0  0  0  0  0  0  0  0  0
  1  4  1  0
  2  1  2  0
  2  5  1  0
  3  6  1  0
  4 55  1  0
  4  6  2  0
  5  3  2  0
  6 94  1  0
  7 11  2  0
  8 10  1  0
  8  9  1  0
  9 13  1  0
  9  7  1  0
 10  5  1  0
 10  7  1  0
 12  8  2  0
 13 14  1  0
 15 26  2  0
 16 14  1  0
 16 21  1  0
 17 25  1  0
 17 27  1  0
 18 24  1  0
 18 20  1  0
 19 25  1  0
 20 19  1  0
 21 20  2  0
 22 23  1  0
 22 16  2  0
 23 18  2  0
 24 17  1  0
 25 15  1  0
 27 29  2  0
 28 27  1  0
 30 28  1  0
 31 40  2  0
 31 36  1  0
 32 28  1  0
 32 36  1  0
 33 32  1  0
 34 35  1  0
 34 33  1  0
 35 31  1  0
 36 37  2  0
 37 38  1  0
 39 38  2  0
 40 39  1  0
 41 15  1  0
 41 46  1  0
 41 42  1  0
 42 45  1  1
 42 43  1  0
 44 42  1  0
 46 49  1  0
 47 51  1  0
 47 46  1  0
 48 47  2  0
 51 50  1  0
 53 51  1  0
 53 54  1  0
 53 52  1  0
 55 56  2  0
 56 57  1  0
 58 55  1  0
 59 64  1  0
 60 61  1  0
 60 59  1  0
 62 61  1  0
 62 69  1  0
 62 63  1  0
 64 58  1  0
 64 63  1  0
 65 58  2  0
 66 67  2  0
 67 86  1  0
 68 67  1  0
 68 71  1  0
 69 70  1  0
 69 66  1  0
 70 68  2  0
 71 72  1  0
 72 73  2  0
 74 77  1  0
 74 73  1  0
 75 74  2  0
 76 75  1  0
 76 71  2  0
 77 78  1  0
 78 79  1  0
 79 80  2  0
 81 80  1  0
 81 85  1  0
 82 81  2  0
 83 78  2  0
 83 82  1  0
 84 83  1  0
 86 87  1  0
 87 90  1  0
 87 89  1  0
 88 86  2  0
 91 66  1  0
 91 92  1  0
 93 91  1  0
 94 95  1  0
 94 96  1  0
M  ISO  4  13 101  14 101  55 100  58 100
M  END
>  <TORSDO>  (53) 
F 20

>  <SCORE>  (53) 
-13.788

>  <name>  (53) 
53

>  <ligand_id>  (53) 
53

>  <original_smiles>  (53) 
[H]N=C(C(=O)N1C([H])([H])C([H])([H])C([H])([H])C([H])(n2nc(-c3c([H])c([H])c(Oc4c([H])c([H])c(F)c([H])c4F)c([H])c3[H])c(C(=O)N([H])[H])c2N([H])[H])C1([H])[H])c1c([H])c([H])c(N2C(=O)C([H])(C([H])([H])Oc3c([H])c([H])c4c(c3[H])C([H])([H])N(C(=O)C([H])(N([H])C(=O)C([H])(N([H])C([H])([H])[H])C([H])([H])[H])C(C([H])([H])[H])(C([H])([H])[H])C([H])([H])[H])C([H])(C(=O)N([H])C3([H])c5c([H])c([H])c([H])c([H])c5C([H])([H])C([H])([H])C3([H])[H])C4([H])[H])C2=O)c([H])c1N([H])[H]

>  <smiles>  (53) 
[H]N=C(C(=O)N1C([H])([H])C([H])([H])C([H])([H])C([H])(n2nc(-c3c([H])c([H])c(Oc4c([H])c([H])c(F)c([H])c4F)c([H])c3[H])c(C(=O)N([H])[H])c2N([H])[H])C1([H])[H])c1c([H])c([H])c(N2C(=O)C([H])(C([H])([H])Oc3c([H])c([H])c4c(c3[H])C([H])([H])N(C(=O)C([H])(N([H])C(=O)C([H])(N([H])C([H])([H])[H])C([H])([H])[H])C(C([H])([H])[H])(C([H])([H])[H])C([H])([H])[H])C([H])(C(=O)N([H])C3([H])c5c([H])c([H])c([H])c([H])c5C([H])([H])C([H])([H])C3([H])[H])C4([H])[H])C2=O)c([H])c1N([H])[H]

$$$$
54:0:0
     RDKit          3D

 94103  0  0  1  0  0  0  0  0999 V2000
  -31.1610  -19.4750   19.1570 C   0  0  0  0  0  3  0  0  0  0  0  0
  -31.3250  -18.0640   19.3250 C   0  0  0  0  0  3  0  0  0  0  0  0
  -29.1300  -17.9590   20.2640 C   0  0  0  0  0  3  0  0  0  0  0  0
  -28.9580  -19.3740   20.1020 C   0  0  0  0  0  0  0  0  0  0  0  0
  -29.9830  -20.1990   19.5230 C   0  0  0  0  0  0  0  0  0  0  0  0
  -30.2990  -17.2550   19.8730 C   0  0  0  0  0  0  0  0  0  0  0  0
  -30.9920  -14.7800   19.3640 C   0  0  0  0  0  0  0  0  0  0  0  0
  -30.6330  -12.5400   18.3280 C   0  0  0  0  0  2  0  0  0  0  0  0
  -29.5210  -12.6570   17.2590 C   0  0  0  0  0  2  0  0  0  0  0  0
  -28.1240  -12.5040   17.8950 C   0  0  0  0  0  2  0  0  0  0  0  0
  -27.9510  -13.3850   19.1630 C   0  0  0  0  0  3  0  0  0  0  0  0
  -29.1520  -13.2140   20.1210 C   0  0  0  0  0  2  0  0  0  0  0  0
  -30.3750  -13.5540   19.3730 N   0  0  0  0  0  0  0  0  0  0  0  0
  -32.0420  -14.9600   18.7350 O   0  0  0  0  0  0  0  0  0  0  0  0
  -30.3310  -15.7930   20.0160 N   0  0  0  0  0  0  0  0  0  0  0  0
  -29.6080  -15.4240   20.6170 H   0  0  0  0  0  0  0  0  0  0  0  0
  -25.7440  -14.0310   20.3090 C   0  0  0  0  0  0  0  0  0  0  0  0
  -24.7000  -13.2770   20.7760 C   0  0  0  0  0  0  0  0  0  0  0  0
  -25.0620  -11.9150   20.5470 C   0  0  0  0  0  0  0  0  0  0  0  0
  -26.6780  -13.1270   19.8290 N   0  0  0  0  0  0  0  0  0  0  0  0
  -26.2820  -11.8420   20.0310 N   0  0  0  0  0  0  0  0  0  0  0  0
  -24.2960  -10.6760   20.7420 C   0  0  0  0  0  0  0  0  0  0  0  0
  -24.7580   -9.6470   21.5920 C   0  0  0  0  0  3  0  0  0  0  0  0
  -23.9940   -8.4750   21.7790 C   0  0  0  0  0  3  0  0  0  0  0  0
  -22.7530   -8.3230   21.1160 C   0  0  0  0  0  0  0  0  0  0  0  0
  -22.3080   -9.3410   20.2530 C   0  0  0  0  0  3  0  0  0  0  0  0
  -23.0720  -10.5050   20.0650 C   0  0  0  0  0  3  0  0  0  0  0  0
  -21.9580   -7.2080   21.2150 O   0  0  0  0  0  0  0  0  0  0  0  0
  -21.8740   -6.4840   22.3760 C   0  0  0  0  0  0  0  0  0  0  0  0
  -21.4500   -7.0700   23.5890 C   0  0  0  0  0  3  0  0  0  0  0  0
  -21.3110   -6.2750   24.7440 C   0  0  0  0  0  3  0  0  0  0  0  0
  -21.5880   -4.8960   24.6880 C   0  0  0  0  0  0  0  0  0  0  0  0
  -22.0060   -4.3100   23.4800 C   0  0  0  0  0  3  0  0  0  0  0  0
  -22.1460   -5.1020   22.3270 C   0  0  0  0  0  0  0  0  0  0  0  0
  -22.5290   -4.5290   21.1610 F   0  0  0  0  0  0  0  0  0  0  0  0
  -21.4480   -4.1300   25.7960 F   0  0  0  0  0  0  0  0  0  0  0  0
  -23.3970  -13.7940   21.3150 C   0  0  0  0  0  0  0  0  0  0  0  0
  -22.7790  -13.0590   22.2330 N   0  0  0  0  0  0  0  0  0  0  0  0
  -22.9430  -14.8800   20.9580 O   0  0  0  0  0  0  0  0  0  0  0  0
  -23.1630  -12.1770   22.5380 H   0  0  0  0  0  0  0  0  0  0  0  0
  -21.9140  -13.3840   22.6370 H   0  0  0  0  0  0  0  0  0  0  0  0
  -25.9680  -15.4020   20.2330 N   0  0  0  0  0  0  0  0  0  0  0  0
  -25.2710  -16.0770   20.5300 H   0  0  0  0  0  0  0  0  0  0  0  0
  -26.7800  -15.8310   19.8070 H   0  0  0  0  0  0  0  0  0  0  0  0
  -30.2830  -23.7710   18.2550 C   0  0  0  0  0  3  0  0  0  0  0  0
  -29.3780  -24.0190   19.2030 C   0  0  0  0  0  0  0  0  0  0  0  0
  -30.6760  -22.2980   18.2020 C   0  0  0  0  0  3  0  0  0  0  0  0
  -29.0670  -22.6850   19.9130 C   0  0  0  0  0  3  0  0  0  0  0  0
  -29.9020  -21.6320   19.2640 N   0  0  0  0  0  0  0  0  0  0  0  0
  -28.7100  -25.3770   19.6300 C   0  0  0  0  0  2  0  0  0  0  0  0
  -28.6270  -26.5080   18.6810 O   0  0  0  0  0  0  0  0  0  0  0  0
  -24.7490  -31.2540   22.4910 C   0  0  0  0  0  0  0  0  0  0  0  0
  -27.4750  -27.2950   18.7970 C   0  0  0  0  0  0  0  0  0  0  0  0
  -23.5480  -29.9930   20.7370 C   0  0  0  0  0  3  0  0  0  0  0  0
  -25.0180  -28.7230   19.0720 C   0  0  0  0  0  0  0  0  0  0  0  0
  -26.0490  -30.4990   20.4900 C   0  0  0  0  0  2  0  0  0  0  0  0
  -26.1810  -29.2180   19.6780 C   0  0  0  0  0  0  0  0  0  0  0  0
  -27.4150  -28.5190   19.5290 C   0  0  0  0  0  3  0  0  0  0  0  0
  -26.2910  -26.8500   18.1700 C   0  0  0  0  0  3  0  0  0  0  0  0
  -25.0740  -27.5460   18.3080 C   0  0  0  0  0  3  0  0  0  0  0  0
  -23.7350  -29.5010   19.2770 C   0  0  0  0  0  2  0  0  0  0  0  0
  -24.8030  -30.5920   21.2990 N   0  0  0  0  0  0  0  0  0  0  0  0
  -23.6810  -31.3950   23.1030 O   0  0  0  0  0  0  0  0  0  0  0  0
  -22.9920  -28.8300   21.5920 C   0  0  0  0  0  0  0  0  0  0  0  0
  -21.6680  -28.6140   21.5310 N   0  0  0  0  0  0  0  0  0  0  0  0
  -23.7470  -28.1290   22.2680 O   0  0  0  0  0  0  0  0  0  0  0  0
  -21.1140  -29.2400   20.9630 H   0  0  0  0  0  0  0  0  0  0  0  0
  -18.3650  -27.2740   22.1540 C   0  0  0  0  0  0  0  0  0  0  0  0
  -20.9360  -27.5460   22.2150 C   0  0  0  0  0  3  0  0  0  0  0  0
  -20.9920  -26.2250   21.4120 C   0  0  0  0  0  2  0  0  0  0  0  0
  -19.7980  -26.0430   20.4690 C   0  0  0  0  0  2  0  0  0  0  0  0
  -18.4860  -26.0530   21.2590 C   0  0  0  0  0  2  0  0  0  0  0  0
  -19.5160  -27.9850   22.5910 C   0  0  0  0  0  0  0  0  0  0  0  0
  -19.3480  -29.1330   23.3940 C   0  0  0  0  0  3  0  0  0  0  0  0
  -18.0620  -29.5700   23.7650 C   0  0  0  0  0  3  0  0  0  0  0  0
  -16.9280  -28.8550   23.3450 C   0  0  0  0  0  3  0  0  0  0  0  0
  -17.0810  -27.7090   22.5450 C   0  0  0  0  0  3  0  0  0  0  0  0
  -26.0250  -31.8850   23.1310 C   0  0  0  0  0  3  0  0  0  0  0  0
  -26.7080  -30.9500   24.2030 C   0  0  1  0  0  0  0  0  0  0  0  0
  -25.7330  -30.4220   25.2810 C   0  0  0  0  0  1  0  0  0  0  0  0
  -27.3640  -29.7270   23.5210 C   0  0  0  0  0  1  0  0  0  0  0  0
  -27.8450  -31.7150   24.9190 C   0  0  0  0  0  1  0  0  0  0  0  0
  -25.6320  -33.1650   23.7400 N   0  0  0  0  0  0  0  0  0  0  0  0
  -25.8190  -34.3640   23.1740 C   0  0  0  0  0  0  0  0  0  0  0  0
  -26.4130  -34.5120   22.1030 O   0  0  0  0  0  0  0  0  0  0  0  0
  -25.0950  -33.1170   24.5940 H   0  0  0  0  0  0  0  0  0  0  0  0
  -23.9270  -36.0200   23.2770 C   0  0  0  0  0  1  0  0  0  0  0  0
  -25.2610  -35.5960   23.9150 C   0  0  0  0  0  3  0  0  0  0  0  0
  -27.3740  -36.5170   24.7570 C   0  0  0  0  0  1  0  0  0  0  0  0
  -26.1910  -36.7450   23.9320 N   0  0  0  0  0  0  0  0  0  0  0  0
  -25.7240  -37.5820   24.2740 H   0  0  0  0  0  0  0  0  0  0  0  0
  -27.6520  -19.8970   20.5760 C   0  0  0  0  0  0  0  0  0  0  0  0
  -26.4390  -19.4710   19.7600 C   0  0  0  0  0  1  0  0  0  0  0  0
  -27.5080  -20.6170   21.5690 O   0  0  0  0  0  0  0  0  0  0  0  0
  1  2  2  0
  1  5  1  0
  2  6  1  0
  4  3  1  0
  4 92  1  0
  5  4  2  0
  6 15  1  0
  6  3  2  0
  7 13  1  0
  7 15  1  0
  8 13  1  0
  9 10  1  0
  9  8  1  0
 11 10  1  0
 11 20  1  0
 11 12  1  0
 13 12  1  0
 14  7  2  0
 15 16  1  0
 17 18  2  0
 18 37  1  0
 19 22  1  0
 19 18  1  0
 20 21  1  0
 20 17  1  0
 21 19  2  0
 22 23  1  0
 23 24  2  0
 25 28  1  0
 25 24  1  0
 26 25  2  0
 27 26  1  0
 27 22  2  0
 28 29  1  0
 29 30  1  0
 30 31  2  0
 32 31  1  0
 32 36  1  0
 33 32  2  0
 34 29  2  0
 34 33  1  0
 35 34  1  0
 37 38  1  0
 38 40  1  0
 38 41  1  0
 39 37  2  0
 42 17  1  0
 42 43  1  0
 44 42  1  0
 45 46  1  0
 46 50  1  0
 46 48  2  0
 47 45  2  0
 47 49  1  0
 49  5  1  0
 49 48  1  0
 51 53  1  0
 51 50  1  0
 52 63  2  0
 53 58  1  0
 54 62  1  0
 54 64  1  0
 55 61  1  0
 55 57  1  0
 56 62  1  0
 57 56  1  0
 58 57  2  0
 59 60  1  0
 59 53  2  0
 60 55  2  0
 61 54  1  0
 62 52  1  0
 64 66  2  0
 65 64  1  0
 67 65  1  0
 68 77  2  0
 68 73  1  0
 69 65  1  0
 69 73  1  0
 70 69  1  0
 71 72  1  0
 71 70  1  0
 72 68  1  0
 73 74  2  0
 74 75  1  0
 76 75  2  0
 77 76  1  0
 78 52  1  0
 78 83  1  0
 78 79  1  0
 79 82  1  1
 79 80  1  0
 81 79  1  0
 83 86  1  0
 84 83  1  0
 84 88  1  0
 85 84  2  0
 88 87  1  0
 88 90  1  0
 90 91  1  0
 90 89  1  0
 92 94  2  0
 93 92  1  0
M  ISO  4   7 100  15 100  50 101  51 101
M  END
>  <TORSDO>  (54) 
F 19

>  <SCORE>  (54) 
-8.304

>  <name>  (54) 
54

>  <ligand_id>  (54) 
54

>  <original_smiles>  (54) 
[H]C1=C(C([H])([H])Oc2c([H])c([H])c3c(c2[H])C([H])([H])N(C(=O)C([H])(N([H])C(=O)C([H])(N([H])C([H])([H])[H])C([H])([H])[H])C(C([H])([H])[H])(C([H])([H])[H])C([H])([H])[H])C([H])(C(=O)N([H])C2([H])c4c([H])c([H])c([H])c([H])c4C([H])([H])C([H])([H])C2([H])[H])C3([H])[H])C([H])([H])N(c2c([H])c([H])c(N([H])C(=O)N3C([H])([H])C([H])([H])C([H])([H])C([H])(n4nc(-c5c([H])c([H])c(Oc6c([H])c([H])c(F)c([H])c6F)c([H])c5[H])c(C(=O)N([H])[H])c4N([H])[H])C3([H])[H])c([H])c2C(=O)C([H])([H])[H])C1([H])[H]

>  <smiles>  (54) 
[H]C1=C(C([H])([H])Oc2c([H])c([H])c3c(c2[H])C([H])([H])N(C(=O)C([H])(N([H])C(=O)C([H])(N([H])C([H])([H])[H])C([H])([H])[H])C(C([H])([H])[H])(C([H])([H])[H])C([H])([H])[H])C([H])(C(=O)N([H])C2([H])c4c([H])c([H])c([H])c([H])c4C([H])([H])C([H])([H])C2([H])[H])C3([H])[H])C([H])([H])N(c2c([H])c([H])c(N([H])C(=O)N3C([H])([H])C([H])([H])C([H])([H])C([H])(n4nc(-c5c([H])c([H])c(Oc6c([H])c([H])c(F)c([H])c6F)c([H])c5[H])c(C(=O)N([H])[H])c4N([H])[H])C3([H])[H])c([H])c2C(=O)C([H])([H])[H])C1([H])[H]

$$$$
55:0:0
     RDKit          3D

 95104  0  0  1  0  0  0  0  0999 V2000
  -30.7160  -25.0020   20.2520 C   0  0  0  0  0  3  0  0  0  0  0  0
  -29.4800  -24.4900   20.4100 C   0  0  0  0  0  0  0  0  0  0  0  0
  -31.9900  -24.2060   20.4870 C   0  0  0  0  0  2  0  0  0  0  0  0
  -29.2650  -23.0360   20.8340 C   0  0  0  0  0  2  0  0  0  0  0  0
  -31.7560  -22.8820   21.2440 C   0  0  0  0  0  2  0  0  0  0  0  0
  -30.5000  -22.2440   20.8530 N   0  0  0  0  0  0  0  0  0  0  0  0
  -31.3520  -18.9140   19.3850 C   0  0  0  0  0  3  0  0  0  0  0  0
  -29.3400  -18.6740   20.7090 C   0  0  0  0  0  3  0  0  0  0  0  0
  -31.4430  -20.2700   19.7630 C   0  0  0  0  0  3  0  0  0  0  0  0
  -29.4170  -20.0410   21.0670 C   0  0  0  0  0  3  0  0  0  0  0  0
  -30.2780  -18.0960   19.8210 C   0  0  0  0  0  0  0  0  0  0  0  0
  -30.4570  -20.8620   20.5770 C   0  0  0  0  0  0  0  0  0  0  0  0
  -31.0800  -16.3270   18.1310 C   0  0  0  0  0  1  0  0  0  0  0  0
  -28.6890  -16.7370   18.4720 C   0  0  0  0  0  1  0  0  0  0  0  0
  -30.0350  -16.6830   19.2290 C   0  0  2  0  0  0  0  0  0  0  0  0
  -30.6710  -14.5460   20.4830 C   0  0  0  0  0  0  0  0  0  0  0  0
  -30.3950  -12.3180   19.5310 C   0  0  0  0  0  2  0  0  0  0  0  0
  -29.4940  -12.4780   18.2880 C   0  0  0  0  0  2  0  0  0  0  0  0
  -28.0070  -12.3710   18.6760 C   0  0  0  0  0  2  0  0  0  0  0  0
  -27.6310  -13.2600   19.8920 C   0  0  0  0  0  3  0  0  0  0  0  0
  -28.6600  -13.1260   21.0390 C   0  0  0  0  0  2  0  0  0  0  0  0
  -30.0020  -13.3630   20.4860 N   0  0  0  0  0  0  0  0  0  0  0  0
  -31.8870  -14.6190   20.3130 O   0  0  0  0  0  0  0  0  0  0  0  0
  -29.8720  -15.6100   20.2500 N   0  0  0  0  0  0  0  0  0  0  0  0
  -28.9140  -15.4500   20.5130 H   0  0  0  0  0  0  0  0  0  0  0  0
  -25.2230  -13.8970   20.5370 C   0  0  0  0  0  0  0  0  0  0  0  0
  -24.1390  -13.1400   20.8870 C   0  0  0  0  0  0  0  0  0  0  0  0
  -24.5900  -11.7840   20.8880 C   0  0  0  0  0  0  0  0  0  0  0  0
  -26.2660  -13.0040   20.3460 N   0  0  0  0  0  0  0  0  0  0  0  0
  -25.8870  -11.7300   20.6180 N   0  0  0  0  0  0  0  0  0  0  0  0
  -23.8490  -10.5310   21.0730 C   0  0  0  0  0  0  0  0  0  0  0  0
  -24.2630   -9.5590   22.0110 C   0  0  0  0  0  3  0  0  0  0  0  0
  -23.5230   -8.3700   22.1840 C   0  0  0  0  0  3  0  0  0  0  0  0
  -22.3540   -8.1440   21.4190 C   0  0  0  0  0  0  0  0  0  0  0  0
  -21.9580   -9.1040   20.4710 C   0  0  0  0  0  3  0  0  0  0  0  0
  -22.6990  -10.2850   20.2960 C   0  0  0  0  0  3  0  0  0  0  0  0
  -21.5870   -7.0060   21.5010 O   0  0  0  0  0  0  0  0  0  0  0  0
  -21.5350   -6.2550   22.6480 C   0  0  0  0  0  0  0  0  0  0  0  0
  -21.1320   -6.8080   23.8830 C   0  0  0  0  0  3  0  0  0  0  0  0
  -21.0240   -5.9840   25.0210 C   0  0  0  0  0  3  0  0  0  0  0  0
  -21.3100   -4.6090   24.9270 C   0  0  0  0  0  0  0  0  0  0  0  0
  -21.7070   -4.0560   23.6970 C   0  0  0  0  0  3  0  0  0  0  0  0
  -21.8160   -4.8770   22.5600 C   0  0  0  0  0  0  0  0  0  0  0  0
  -22.1790   -4.3350   21.3720 F   0  0  0  0  0  0  0  0  0  0  0  0
  -21.2000   -3.8160   26.0180 F   0  0  0  0  0  0  0  0  0  0  0  0
  -22.7380  -13.6320   21.1130 C   0  0  0  0  0  0  0  0  0  0  0  0
  -21.9780  -12.9550   21.9660 N   0  0  0  0  0  0  0  0  0  0  0  0
  -22.3250  -14.6540   20.5650 O   0  0  0  0  0  0  0  0  0  0  0  0
  -22.3210  -12.1290   22.4320 H   0  0  0  0  0  0  0  0  0  0  0  0
  -21.0380  -13.2720   22.1580 H   0  0  0  0  0  0  0  0  0  0  0  0
  -25.4040  -15.2640   20.3430 N   0  0  0  0  0  0  0  0  0  0  0  0
  -24.6380  -15.9230   20.4190 H   0  0  0  0  0  0  0  0  0  0  0  0
  -26.2560  -15.6890   20.0040 H   0  0  0  0  0  0  0  0  0  0  0  0
  -28.2070  -25.2780   20.1150 C   0  0  0  0  0  2  0  0  0  0  0  0
  -28.3620  -26.7080   20.1550 O   0  0  0  0  0  0  0  0  0  0  0  0
  -24.5800  -31.8900   23.2460 C   0  0  0  0  0  0  0  0  0  0  0  0
  -27.1890  -27.4420   20.1380 C   0  0  0  0  0  0  0  0  0  0  0  0
  -23.3560  -30.4920   21.6160 C   0  0  0  0  0  3  0  0  0  0  0  0
  -24.7930  -28.9580   20.1750 C   0  0  0  0  0  0  0  0  0  0  0  0
  -25.8800  -30.8490   21.3890 C   0  0  0  0  0  2  0  0  0  0  0  0
  -25.9590  -29.4780   20.7480 C   0  0  0  0  0  0  0  0  0  0  0  0
  -27.1590  -28.7310   20.7240 C   0  0  0  0  0  3  0  0  0  0  0  0
  -25.9990  -26.9420   19.5560 C   0  0  0  0  0  3  0  0  0  0  0  0
  -24.8070  -27.6890   19.5770 C   0  0  0  0  0  3  0  0  0  0  0  0
  -23.5500  -29.8160   20.2330 C   0  0  0  0  0  2  0  0  0  0  0  0
  -24.6250  -31.0920   22.1430 N   0  0  0  0  0  0  0  0  0  0  0  0
  -23.5030  -32.1620   23.7960 O   0  0  0  0  0  0  0  0  0  0  0  0
  -22.7140  -29.4680   22.5790 C   0  0  0  0  0  0  0  0  0  0  0  0
  -21.3890  -29.2790   22.4580 N   0  0  0  0  0  0  0  0  0  0  0  0
  -23.4030  -28.8470   23.3940 O   0  0  0  0  0  0  0  0  0  0  0  0
  -20.8950  -29.8340   21.7720 H   0  0  0  0  0  0  0  0  0  0  0  0
  -18.0250  -28.0620   22.9540 C   0  0  0  0  0  0  0  0  0  0  0  0
  -20.5800  -28.3400   23.2300 C   0  0  0  0  0  3  0  0  0  0  0  0
  -20.6940  -26.9070   22.6620 C   0  0  0  0  0  2  0  0  0  0  0  0
  -19.5960  -26.5700   21.6470 C   0  0  0  0  0  2  0  0  0  0  0  0
  -18.2120  -26.7100   22.2880 C   0  0  0  0  0  2  0  0  0  0  0  0
  -19.1360  -28.8340   23.3830 C   0  0  0  0  0  0  0  0  0  0  0  0
  -18.9080  -30.1000   23.9640 C   0  0  0  0  0  3  0  0  0  0  0  0
  -17.5990  -30.5940   24.1230 C   0  0  0  0  0  3  0  0  0  0  0  0
  -16.5020  -29.8190   23.7110 C   0  0  0  0  0  3  0  0  0  0  0  0
  -16.7140  -28.5550   23.1320 C   0  0  0  0  0  3  0  0  0  0  0  0
  -25.8710  -32.5190   23.8550 C   0  0  0  0  0  3  0  0  0  0  0  0
  -26.3980  -31.7460   25.1260 C   0  0  1  0  0  0  0  0  0  0  0  0
  -25.3150  -31.5130   26.2050 C   0  0  0  0  0  1  0  0  0  0  0  0
  -26.9730  -30.3670   24.7240 C   0  0  0  0  0  1  0  0  0  0  0  0
  -27.5570  -32.5370   25.7760 C   0  0  0  0  0  1  0  0  0  0  0  0
  -25.5680  -33.9170   24.1860 N   0  0  0  0  0  0  0  0  0  0  0  0
  -25.8950  -34.9670   23.4210 C   0  0  0  0  0  0  0  0  0  0  0  0
  -26.5580  -34.8610   22.3850 O   0  0  0  0  0  0  0  0  0  0  0  0
  -24.9770  -34.0730   24.9900 H   0  0  0  0  0  0  0  0  0  0  0  0
  -24.1680  -36.7620   23.0720 C   0  0  0  0  0  1  0  0  0  0  0  0
  -25.4130  -36.3560   23.8790 C   0  0  0  0  0  3  0  0  0  0  0  0
  -27.5540  -37.2370   24.6950 C   0  0  0  0  0  1  0  0  0  0  0  0
  -26.4470  -37.4080   23.7580 N   0  0  0  0  0  0  0  0  0  0  0  0
  -26.0440  -38.3290   23.9070 H   0  0  0  0  0  0  0  0  0  0  0  0
  1  2  2  0
  1  3  1  0
  2  4  1  0
  3  5  1  0
  4  6  1  0
  6  5  1  0
  7  9  2  0
  7 11  1  0
  8 10  1  0
  9 12  1  0
 11  8  2  0
 12  6  1  0
 12 10  2  0
 15 13  1  6
 14 15  1  0
 15 11  1  0
 15 24  1  0
 16 22  1  0
 17 22  1  0
 18 19  1  0
 18 17  1  0
 20 19  1  0
 20 29  1  0
 20 21  1  0
 22 21  1  0
 23 16  2  0
 24 16  1  0
 24 25  1  0
 26 27  2  0
 27 28  1  0
 27 46  1  0
 28 31  1  0
 29 26  1  0
 29 30  1  0
 30 28  2  0
 31 32  1  0
 32 33  2  0
 34 37  1  0
 34 33  1  0
 35 34  2  0
 36 35  1  0
 36 31  2  0
 37 38  1  0
 38 39  1  0
 39 40  2  0
 41 40  1  0
 41 45  1  0
 42 41  2  0
 43 38  2  0
 43 42  1  0
 44 43  1  0
 46 47  1  0
 47 50  1  0
 47 49  1  0
 48 46  2  0
 51 52  1  0
 51 26  1  0
 53 51  1  0
 54 55  1  0
 54  2  1  0
 56 67  2  0
 57 55  1  0
 57 62  1  0
 58 66  1  0
 58 68  1  0
 59 65  1  0
 59 61  1  0
 60 66  1  0
 61 60  1  0
 62 61  2  0
 63 64  1  0
 63 57  2  0
 64 59  2  0
 65 58  1  0
 66 56  1  0
 68 70  2  0
 69 68  1  0
 71 69  1  0
 72 81  2  0
 72 77  1  0
 73 69  1  0
 73 77  1  0
 74 73  1  0
 75 76  1  0
 75 74  1  0
 76 72  1  0
 77 78  2  0
 78 79  1  0
 80 79  2  0
 81 80  1  0
 82 56  1  0
 82 87  1  0
 82 83  1  0
 83 86  1  1
 83 84  1  0
 85 83  1  0
 87 90  1  0
 88 92  1  0
 88 87  1  0
 89 88  2  0
 92 91  1  0
 94 92  1  0
 94 95  1  0
 94 93  1  0
M  ISO  4  16 100  24 100  54 101  55 101
M  END
>  <TORSDO>  (55) 
F 19

>  <SCORE>  (55) 
-13.504

>  <name>  (55) 
55

>  <ligand_id>  (55) 
55

>  <original_smiles>  (55) 
[H]C1=C(C([H])([H])Oc2c([H])c([H])c3c(c2[H])C([H])([H])N(C(=O)C([H])(N([H])C(=O)C([H])(N([H])C([H])([H])[H])C([H])([H])[H])C(C([H])([H])[H])(C([H])([H])[H])C([H])([H])[H])C([H])(C(=O)N([H])C2([H])c4c([H])c([H])c([H])c([H])c4C([H])([H])C([H])([H])C2([H])[H])C3([H])[H])C([H])([H])N(c2c([H])c([H])c(C(N([H])C(=O)N3C([H])([H])C([H])([H])C([H])([H])C([H])(n4nc(-c5c([H])c([H])c(Oc6c([H])c([H])c(F)c([H])c6F)c([H])c5[H])c(C(=O)N([H])[H])c4N([H])[H])C3([H])[H])(C([H])([H])[H])C([H])([H])[H])c([H])c2[H])C([H])([H])C1([H])[H]

>  <smiles>  (55) 
[H]C1=C(C([H])([H])Oc2c([H])c([H])c3c(c2[H])C([H])([H])N(C(=O)C([H])(N([H])C(=O)C([H])(N([H])C([H])([H])[H])C([H])([H])[H])C(C([H])([H])[H])(C([H])([H])[H])C([H])([H])[H])C([H])(C(=O)N([H])C2([H])c4c([H])c([H])c([H])c([H])c4C([H])([H])C([H])([H])C2([H])[H])C3([H])[H])C([H])([H])N(c2c([H])c([H])c(C(N([H])C(=O)N3C([H])([H])C([H])([H])C([H])([H])C([H])(n4nc(-c5c([H])c([H])c(Oc6c([H])c([H])c(F)c([H])c6F)c([H])c5[H])c(C(=O)N([H])[H])c4N([H])[H])C3([H])[H])(C([H])([H])[H])C([H])([H])[H])c([H])c2[H])C([H])([H])C1([H])[H]

$$$$
56:0:0
     RDKit          3D

 98107  0  0  1  0  0  0  0  0999 V2000
  -29.6810  -23.1510   20.9290 C   0  0  0  0  0  0  0  0  0  0  0  0
  -30.8130  -22.9060   21.8280 C   0  0  0  0  0  0  0  0  0  0  0  0
  -29.0590  -21.9350   20.3260 C   0  0  0  0  0  0  0  0  0  0  0  0
  -30.9720  -23.5860   22.9790 C   0  0  0  0  0  2  0  0  0  0  0  0
  -29.2640  -24.4490   20.7490 C   0  0  0  0  0  3  0  0  0  0  0  0
  -31.8130  -21.8290   21.4830 C   0  0  0  0  0  2  0  0  0  0  0  0
  -31.3280  -20.9770   20.3120 C   0  0  0  0  0  2  0  0  0  0  0  0
  -29.8680  -20.8020   20.2730 N   0  0  0  0  0  0  0  0  0  0  0  0
  -27.8860  -21.9190   19.9390 O   0  0  0  0  0  0  0  0  0  0  0  0
  -28.7280  -19.3650   18.6310 C   0  0  0  0  0  3  0  0  0  0  0  0
  -29.9170  -18.2550   20.4570 C   0  0  0  0  0  3  0  0  0  0  0  0
  -28.9380  -16.9300   18.6650 C   0  0  0  0  0  3  0  0  0  0  0  0
  -29.4670  -19.4730   19.8290 C   0  0  0  0  0  0  0  0  0  0  0  0
  -28.4540  -18.1090   18.0620 C   0  0  0  0  0  0  0  0  0  0  0  0
  -29.6590  -16.9630   19.8800 C   0  0  0  0  0  0  0  0  0  0  0  0
  -30.6310  -14.6330   20.0210 C   0  0  0  0  0  0  0  0  0  0  0  0
  -30.3150  -12.4330   18.9300 C   0  0  0  0  0  2  0  0  0  0  0  0
  -29.3080  -12.6220   17.7740 C   0  0  0  0  0  2  0  0  0  0  0  0
  -27.8590  -12.4690   18.2800 C   0  0  0  0  0  2  0  0  0  0  0  0
  -27.5850  -13.2880   19.5690 C   0  0  0  0  0  3  0  0  0  0  0  0
  -28.7040  -13.0920   20.6170 C   0  0  0  0  0  2  0  0  0  0  0  0
  -29.9870  -13.4230   19.9760 N   0  0  0  0  0  0  0  0  0  0  0  0
  -31.7460  -14.7920   19.5180 O   0  0  0  0  0  0  0  0  0  0  0  0
  -29.9400  -15.6920   20.5370 N   0  0  0  0  0  0  0  0  0  0  0  0
  -29.1770  -15.3850   21.1210 H   0  0  0  0  0  0  0  0  0  0  0  0
  -25.2340  -13.8910   20.4170 C   0  0  0  0  0  0  0  0  0  0  0  0
  -24.1810  -13.1160   20.8280 C   0  0  0  0  0  0  0  0  0  0  0  0
  -24.6360  -11.7640   20.7520 C   0  0  0  0  0  0  0  0  0  0  0  0
  -26.2600  -13.0060   20.1160 N   0  0  0  0  0  0  0  0  0  0  0  0
  -25.9060  -11.7230   20.3740 N   0  0  0  0  0  0  0  0  0  0  0  0
  -23.9130  -10.5030   20.9630 C   0  0  0  0  0  0  0  0  0  0  0  0
  -24.3710   -9.5350   21.8850 C   0  0  0  0  0  3  0  0  0  0  0  0
  -23.6490   -8.3380   22.0810 C   0  0  0  0  0  3  0  0  0  0  0  0
  -22.4550   -8.1020   21.3590 C   0  0  0  0  0  0  0  0  0  0  0  0
  -22.0180   -9.0580   20.4270 C   0  0  0  0  0  3  0  0  0  0  0  0
  -22.7400  -10.2470   20.2270 C   0  0  0  0  0  3  0  0  0  0  0  0
  -21.7020   -6.9550   21.4630 O   0  0  0  0  0  0  0  0  0  0  0  0
  -21.6720   -6.2210   22.6200 C   0  0  0  0  0  0  0  0  0  0  0  0
  -21.2320   -6.7730   23.8440 C   0  0  0  0  0  3  0  0  0  0  0  0
  -21.1500   -5.9610   24.9930 C   0  0  0  0  0  3  0  0  0  0  0  0
  -21.4990   -4.5980   24.9210 C   0  0  0  0  0  0  0  0  0  0  0  0
  -21.9330   -4.0470   23.7020 C   0  0  0  0  0  3  0  0  0  0  0  0
  -22.0160   -4.8560   22.5550 C   0  0  0  0  0  0  0  0  0  0  0  0
  -22.4140   -4.3140   21.3800 F   0  0  0  0  0  0  0  0  0  0  0  0
  -21.4150   -3.8190   26.0240 F   0  0  0  0  0  0  0  0  0  0  0  0
  -22.8050  -13.5970   21.1830 C   0  0  0  0  0  0  0  0  0  0  0  0
  -22.1190  -12.8900   22.0750 N   0  0  0  0  0  0  0  0  0  0  0  0
  -22.3450  -14.6330   20.7060 O   0  0  0  0  0  0  0  0  0  0  0  0
  -22.5050  -12.0540   22.4880 H   0  0  0  0  0  0  0  0  0  0  0  0
  -21.1960  -13.1930   22.3510 H   0  0  0  0  0  0  0  0  0  0  0  0
  -25.4000  -15.2620   20.2540 N   0  0  0  0  0  0  0  0  0  0  0  0
  -24.6550  -15.9250   20.4290 H   0  0  0  0  0  0  0  0  0  0  0  0
  -26.2460  -15.7030   19.9150 H   0  0  0  0  0  0  0  0  0  0  0  0
  -27.6910  -18.0360   16.8990 N   0  0  0  0  0  0  0  0  0  0  0  0
  -27.0610  -18.8110   16.7090 H   0  0  0  0  0  0  0  0  0  0  0  0
  -27.2530  -17.1450   16.6850 H   0  0  0  0  0  0  0  0  0  0  0  0
  -28.1220  -25.1280   19.9670 C   0  0  0  0  0  2  0  0  0  0  0  0
  -28.2160  -26.5890   20.0610 O   0  0  0  0  0  0  0  0  0  0  0  0
  -24.4910  -31.8860   23.1460 C   0  0  0  0  0  0  0  0  0  0  0  0
  -27.0610  -27.3670   20.0400 C   0  0  0  0  0  0  0  0  0  0  0  0
  -23.2590  -30.4960   21.5160 C   0  0  0  0  0  3  0  0  0  0  0  0
  -24.6850  -28.9420   20.0700 C   0  0  0  0  0  0  0  0  0  0  0  0
  -25.7910  -30.8200   21.2950 C   0  0  0  0  0  2  0  0  0  0  0  0
  -25.8580  -29.4430   20.6480 C   0  0  0  0  0  0  0  0  0  0  0  0
  -27.0470  -28.6650   20.6230 C   0  0  0  0  0  3  0  0  0  0  0  0
  -25.8660  -26.8990   19.4480 C   0  0  0  0  0  3  0  0  0  0  0  0
  -24.6880  -27.6740   19.4640 C   0  0  0  0  0  3  0  0  0  0  0  0
  -23.4500  -29.8160   20.1330 C   0  0  0  0  0  2  0  0  0  0  0  0
  -24.5330  -31.0840   22.0430 N   0  0  0  0  0  0  0  0  0  0  0  0
  -23.4160  -32.1650   23.6970 O   0  0  0  0  0  0  0  0  0  0  0  0
  -22.6080  -29.4790   22.4830 C   0  0  0  0  0  0  0  0  0  0  0  0
  -21.2790  -29.3130   22.3750 N   0  0  0  0  0  0  0  0  0  0  0  0
  -23.2960  -28.8430   23.2850 O   0  0  0  0  0  0  0  0  0  0  0  0
  -20.7860  -29.8760   21.6960 H   0  0  0  0  0  0  0  0  0  0  0  0
  -17.8990  -28.1580   22.9280 C   0  0  0  0  0  0  0  0  0  0  0  0
  -20.4640  -28.3780   23.1520 C   0  0  0  0  0  3  0  0  0  0  0  0
  -20.5370  -26.9520   22.5610 C   0  0  0  0  0  2  0  0  0  0  0  0
  -19.4110  -26.6540   21.5640 C   0  0  0  0  0  2  0  0  0  0  0  0
  -18.0440  -26.8120   22.2360 C   0  0  0  0  0  2  0  0  0  0  0  0
  -19.0360  -28.9010   23.3440 C   0  0  0  0  0  0  0  0  0  0  0  0
  -18.8460  -30.1610   23.9490 C   0  0  0  0  0  3  0  0  0  0  0  0
  -17.5520  -30.6800   24.1430 C   0  0  0  0  0  3  0  0  0  0  0  0
  -16.4300  -29.9330   23.7440 C   0  0  0  0  0  3  0  0  0  0  0  0
  -16.6040  -28.6730   23.1430 C   0  0  0  0  0  3  0  0  0  0  0  0
  -25.7850  -32.5110   23.7550 C   0  0  0  0  0  3  0  0  0  0  0  0
  -26.3280  -31.7180   25.0060 C   0  0  1  0  0  0  0  0  0  0  0  0
  -25.2560  -31.4540   26.0900 C   0  0  0  0  0  1  0  0  0  0  0  0
  -26.9090  -30.3520   24.5750 C   0  0  0  0  0  1  0  0  0  0  0  0
  -27.4870  -32.5050   25.6630 C   0  0  0  0  0  1  0  0  0  0  0  0
  -25.4770  -33.9020   24.1150 N   0  0  0  0  0  0  0  0  0  0  0  0
  -25.8020  -34.9700   23.3760 C   0  0  0  0  0  0  0  0  0  0  0  0
  -26.4620  -34.8880   22.3360 O   0  0  0  0  0  0  0  0  0  0  0  0
  -24.8890  -34.0390   24.9240 H   0  0  0  0  0  0  0  0  0  0  0  0
  -24.0860  -36.7810   23.0600 C   0  0  0  0  0  1  0  0  0  0  0  0
  -25.3190  -36.3480   23.8670 C   0  0  0  0  0  3  0  0  0  0  0  0
  -27.4480  -37.2060   24.7410 C   0  0  0  0  0  1  0  0  0  0  0  0
  -26.3570  -37.4000   23.7890 N   0  0  0  0  0  0  0  0  0  0  0  0
  -25.9530  -38.3180   23.9510 H   0  0  0  0  0  0  0  0  0  0  0  0
  1  2  1  0
  2  4  2  0
  3  1  1  0
  5  1  2  0
  6  2  1  0
  7  6  1  0
  8  7  1  0
  8  3  1  0
  9  3  2  0
 10 13  1  0
 12 15  2  0
 13  8  1  0
 13 11  2  0
 14 10  2  0
 14 12  1  0
 15 11  1  0
 15 24  1  0
 16 24  1  0
 17 22  1  0
 18 19  1  0
 18 17  1  0
 20 19  1  0
 20 29  1  0
 20 21  1  0
 22 16  1  0
 22 21  1  0
 23 16  2  0
 24 25  1  0
 26 27  2  0
 27 46  1  0
 28 27  1  0
 28 31  1  0
 29 30  1  0
 29 26  1  0
 30 28  2  0
 31 32  1  0
 32 33  2  0
 34 37  1  0
 34 33  1  0
 35 34  2  0
 36 35  1  0
 36 31  2  0
 37 38  1  0
 38 39  1  0
 39 40  2  0
 41 40  1  0
 41 45  1  0
 42 41  2  0
 43 38  2  0
 43 42  1  0
 44 43  1  0
 46 47  1  0
 47 50  1  0
 47 49  1  0
 48 46  2  0
 51 26  1  0
 51 52  1  0
 53 51  1  0
 54 14  1  0
 55 54  1  0
 56 54  1  0
 57 58  1  0
 57  5  1  0
 59 70  2  0
 60 58  1  0
 60 65  1  0
 61 69  1  0
 61 71  1  0
 62 68  1  0
 62 64  1  0
 63 69  1  0
 64 63  1  0
 65 64  2  0
 66 67  1  0
 66 60  2  0
 67 62  2  0
 68 61  1  0
 69 59  1  0
 71 73  2  0
 72 71  1  0
 74 72  1  0
 75 84  2  0
 75 80  1  0
 76 72  1  0
 76 80  1  0
 77 76  1  0
 78 79  1  0
 78 77  1  0
 79 75  1  0
 80 81  2  0
 81 82  1  0
 83 82  2  0
 84 83  1  0
 85 59  1  0
 85 90  1  0
 85 86  1  0
 86 89  1  1
 86 87  1  0
 88 86  1  0
 90 93  1  0
 91 95  1  0
 91 90  1  0
 92 91  2  0
 95 94  1  0
 97 95  1  0
 97 98  1  0
 97 96  1  0
M  ISO  4  16 100  24 100  57 101  58 101
M  END
>  <TORSDO>  (56) 
F 19

>  <SCORE>  (56) 
-12.913

>  <name>  (56) 
56

>  <ligand_id>  (56) 
56

>  <original_smiles>  (56) 
[H]C([H])=C1C(=C([H])C([H])([H])Oc2c([H])c([H])c3c(c2[H])C([H])([H])N(C(=O)C([H])(N([H])C(=O)C([H])(N([H])C([H])([H])[H])C([H])([H])[H])C(C([H])([H])[H])(C([H])([H])[H])C([H])([H])[H])C([H])(C(=O)N([H])C2([H])c4c([H])c([H])c([H])c([H])c4C([H])([H])C([H])([H])C2([H])[H])C3([H])[H])C(=O)N(c2c([H])c(N([H])[H])c([H])c(N([H])C(=O)N3C([H])([H])C([H])([H])C([H])([H])C([H])(n4nc(-c5c([H])c([H])c(Oc6c([H])c([H])c(F)c([H])c6F)c([H])c5[H])c(C(=O)N([H])[H])c4N([H])[H])C3([H])[H])c2[H])C([H])([H])C1([H])[H]

>  <smiles>  (56) 
[H]C([H])=C1C(=C([H])C([H])([H])Oc2c([H])c([H])c3c(c2[H])C([H])([H])N(C(=O)C([H])(N([H])C(=O)C([H])(N([H])C([H])([H])[H])C([H])([H])[H])C(C([H])([H])[H])(C([H])([H])[H])C([H])([H])[H])C([H])(C(=O)N([H])C2([H])c4c([H])c([H])c([H])c([H])c4C([H])([H])C([H])([H])C2([H])[H])C3([H])[H])C(=O)N(c2c([H])c(N([H])[H])c([H])c(N([H])C(=O)N3C([H])([H])C([H])([H])C([H])([H])C([H])(n4nc(-c5c([H])c([H])c(Oc6c([H])c([H])c(F)c([H])c6F)c([H])c5[H])c(C(=O)N([H])[H])c4N([H])[H])C3([H])[H])c2[H])C([H])([H])C1([H])[H]

$$$$
57:0:0
     RDKit          3D

 98107  0  0  1  0  0  0  0  0999 V2000
  -29.8440  -18.6050   18.3350 C   0  0  0  0  0  3  0  0  0  0  0  0
  -29.3950  -19.9770   20.7260 C   0  0  0  0  0  3  0  0  0  0  0  0
  -29.7500  -17.8560   19.5290 C   0  0  0  0  0  0  0  0  0  0  0  0
  -29.4300  -20.7020   19.5120 C   0  0  0  0  0  0  0  0  0  0  0  0
  -29.5360  -18.5650   20.7510 C   0  0  0  0  0  0  0  0  0  0  0  0
  -29.6970  -19.9990   18.3170 C   0  0  0  0  0  0  0  0  0  0  0  0
  -29.8360  -20.6540   17.1390 F   0  0  0  0  0  0  0  0  0  0  0  0
  -31.0490  -14.4880   20.1260 C   0  0  0  0  0  0  0  0  0  0  0  0
  -30.6460  -12.3320   19.0020 C   0  0  0  0  0  2  0  0  0  0  0  0
  -29.6560  -12.5220   17.8370 C   0  0  0  0  0  2  0  0  0  0  0  0
  -28.2000  -12.4060   18.3340 C   0  0  0  0  0  2  0  0  0  0  0  0
  -27.9160  -13.2520   19.6050 C   0  0  0  0  0  3  0  0  0  0  0  0
  -29.0270  -13.0770   20.6640 C   0  0  0  0  0  2  0  0  0  0  0  0
  -30.3170  -13.3450   20.0130 N   0  0  0  0  0  0  0  0  0  0  0  0
  -32.2270  -14.5620   19.7780 O   0  0  0  0  0  0  0  0  0  0  0  0
  -29.8180  -16.3510   19.3750 C   0  0  0  0  0  0  0  0  0  0  0  0
  -30.3780  -15.6290   20.3660 N   0  0  0  0  0  0  0  0  0  0  0  0
  -29.4400  -15.8680   18.3010 O   0  0  0  0  0  0  0  0  0  0  0  0
  -30.8030  -16.2380   21.0480 H   0  0  0  0  0  0  0  0  0  0  0  0
  -25.5700  -13.8920   20.4330 C   0  0  0  0  0  0  0  0  0  0  0  0
  -24.5040  -13.1320   20.8300 C   0  0  0  0  0  0  0  0  0  0  0  0
  -24.9410  -11.7730   20.7560 C   0  0  0  0  0  0  0  0  0  0  0  0
  -26.5880  -12.9950   20.1450 N   0  0  0  0  0  0  0  0  0  0  0  0
  -26.2170  -11.7160   20.3990 N   0  0  0  0  0  0  0  0  0  0  0  0
  -24.2040  -10.5200   20.9490 C   0  0  0  0  0  0  0  0  0  0  0  0
  -24.6330   -9.5480   21.8790 C   0  0  0  0  0  3  0  0  0  0  0  0
  -23.8970   -8.3570   22.0580 C   0  0  0  0  0  3  0  0  0  0  0  0
  -22.7180   -8.1320   21.3080 C   0  0  0  0  0  0  0  0  0  0  0  0
  -22.3100   -9.0920   20.3660 C   0  0  0  0  0  3  0  0  0  0  0  0
  -23.0460  -10.2740   20.1840 C   0  0  0  0  0  3  0  0  0  0  0  0
  -21.9550   -6.9930   21.3980 O   0  0  0  0  0  0  0  0  0  0  0  0
  -21.8610   -6.2810   22.5660 C   0  0  0  0  0  0  0  0  0  0  0  0
  -21.3590   -6.8570   23.7540 C   0  0  0  0  0  3  0  0  0  0  0  0
  -21.2150   -6.0680   24.9130 C   0  0  0  0  0  3  0  0  0  0  0  0
  -21.5650   -4.7040   24.8850 C   0  0  0  0  0  0  0  0  0  0  0  0
  -22.0600   -4.1280   23.7030 C   0  0  0  0  0  3  0  0  0  0  0  0
  -22.2050   -4.9140   22.5460 C   0  0  0  0  0  0  0  0  0  0  0  0
  -22.6630   -4.3480   21.4030 F   0  0  0  0  0  0  0  0  0  0  0  0
  -21.4200   -3.9450   25.9960 F   0  0  0  0  0  0  0  0  0  0  0  0
  -23.1270  -13.6260   21.1650 C   0  0  0  0  0  0  0  0  0  0  0  0
  -22.4220  -12.9230   22.0450 N   0  0  0  0  0  0  0  0  0  0  0  0
  -22.6860  -14.6680   20.6820 O   0  0  0  0  0  0  0  0  0  0  0  0
  -22.7910  -12.0780   22.4560 H   0  0  0  0  0  0  0  0  0  0  0  0
  -21.4980  -13.2340   22.3120 H   0  0  0  0  0  0  0  0  0  0  0  0
  -25.7500  -15.2630   20.2710 N   0  0  0  0  0  0  0  0  0  0  0  0
  -24.9970  -15.9270   20.4100 H   0  0  0  0  0  0  0  0  0  0  0  0
  -26.5880  -15.6870   19.8950 H   0  0  0  0  0  0  0  0  0  0  0  0
  -28.4130  -22.7680   18.5540 C   0  0  0  0  0  0  0  0  0  0  0  0
  -29.6480  -23.0310   20.5160 C   0  0  0  0  0  2  0  0  0  0  0  0
  -29.4040  -24.4000   19.8610 C   0  0  0  0  0  3  0  0  0  0  0  0
  -29.2050  -22.1140   19.4870 N   0  0  0  0  0  0  0  0  0  0  0  0
  -27.7170  -22.2920   17.6570 O   0  0  0  0  0  0  0  0  0  0  0  0
  -28.4860  -24.0720   18.8290 O   0  0  0  0  0  0  0  0  0  0  0  0
  -28.8230  -25.4690   20.8020 C   0  0  0  0  0  2  0  0  0  0  0  0
  -28.8650  -26.7620   20.1840 O   0  0  0  0  0  0  0  0  0  0  0  0
  -24.7460  -31.7060   23.1870 C   0  0  0  0  0  0  0  0  0  0  0  0
  -27.6660  -27.4320   20.1530 C   0  0  0  0  0  0  0  0  0  0  0  0
  -23.6480  -30.2760   21.4920 C   0  0  0  0  0  3  0  0  0  0  0  0
  -25.2080  -28.8180   20.0960 C   0  0  0  0  0  0  0  0  0  0  0  0
  -26.1580  -30.7500   21.3720 C   0  0  0  0  0  2  0  0  0  0  0  0
  -26.3220  -29.3920   20.7230 C   0  0  0  0  0  0  0  0  0  0  0  0
  -27.5560  -28.7080   20.7440 C   0  0  0  0  0  3  0  0  0  0  0  0
  -26.5400  -26.8650   19.5170 C   0  0  0  0  0  3  0  0  0  0  0  0
  -25.3120  -27.5530   19.4890 C   0  0  0  0  0  3  0  0  0  0  0  0
  -23.9270  -29.6200   20.1120 C   0  0  0  0  0  2  0  0  0  0  0  0
  -24.8660  -30.9250   22.0760 N   0  0  0  0  0  0  0  0  0  0  0  0
  -23.6390  -31.9260   23.6980 O   0  0  0  0  0  0  0  0  0  0  0  0
  -23.0130  -29.2180   22.4210 C   0  0  0  0  0  0  0  0  0  0  0  0
  -21.6970  -28.9980   22.2650 N   0  0  0  0  0  0  0  0  0  0  0  0
  -23.7000  -28.5970   23.2360 O   0  0  0  0  0  0  0  0  0  0  0  0
  -21.2030  -29.5530   21.5790 H   0  0  0  0  0  0  0  0  0  0  0  0
  -18.3490  -27.7090   22.6840 C   0  0  0  0  0  0  0  0  0  0  0  0
  -20.8950  -28.0220   23.0000 C   0  0  0  0  0  3  0  0  0  0  0  0
  -21.0410  -26.6090   22.3910 C   0  0  0  0  0  2  0  0  0  0  0  0
  -19.9620  -26.2850   21.3530 C   0  0  0  0  0  2  0  0  0  0  0  0
  -18.5680  -26.3820   21.9800 C   0  0  0  0  0  2  0  0  0  0  0  0
  -19.4420  -28.4870   23.1490 C   0  0  0  0  0  0  0  0  0  0  0  0
  -19.1850  -29.7320   23.7660 C   0  0  0  0  0  3  0  0  0  0  0  0
  -17.8660  -30.1980   23.9220 C   0  0  0  0  0  3  0  0  0  0  0  0
  -16.7860  -29.4170   23.4750 C   0  0  0  0  0  3  0  0  0  0  0  0
  -17.0290  -28.1750   22.8610 C   0  0  0  0  0  3  0  0  0  0  0  0
  -25.9880  -32.3800   23.8530 C   0  0  0  0  0  3  0  0  0  0  0  0
  -26.4880  -31.6240   25.1440 C   0  0  1  0  0  0  0  0  0  0  0  0
  -25.3680  -31.3440   26.1730 C   0  0  0  0  0  1  0  0  0  0  0  0
  -27.1320  -30.2700   24.7680 C   0  0  0  0  0  1  0  0  0  0  0  0
  -27.5860  -32.4570   25.8470 C   0  0  0  0  0  1  0  0  0  0  0  0
  -25.6200  -33.7660   24.1700 N   0  0  0  0  0  0  0  0  0  0  0  0
  -25.9330  -34.8270   23.4130 C   0  0  0  0  0  0  0  0  0  0  0  0
  -26.6310  -34.7440   22.3990 O   0  0  0  0  0  0  0  0  0  0  0  0
  -25.0020  -33.9020   24.9550 H   0  0  0  0  0  0  0  0  0  0  0  0
  -24.1470  -36.5490   23.0060 C   0  0  0  0  0  1  0  0  0  0  0  0
  -25.3820  -36.1970   23.8500 C   0  0  0  0  0  3  0  0  0  0  0  0
  -27.4550  -37.1700   24.7350 C   0  0  0  0  0  1  0  0  0  0  0  0
  -26.3760  -37.2880   23.7580 N   0  0  0  0  0  0  0  0  0  0  0  0
  -25.9300  -38.1930   23.8870 H   0  0  0  0  0  0  0  0  0  0  0  0
  -29.4350  -17.9400   21.9990 N   0  0  0  0  0  0  0  0  0  0  0  0
  -29.1100  -18.4940   22.7880 H   0  0  0  0  0  0  0  0  0  0  0  0
  -29.1160  -16.9790   22.0620 H   0  0  0  0  0  0  0  0  0  0  0  0
  1  3  1  0
  2  5  1  0
  3  5  2  0
  4  2  2  0
  5 96  1  0
  6  1  2  0
  6  4  1  0
  7  6  1  0
  8 17  1  0
  9 14  1  0
 10 11  1  0
 10  9  1  0
 12 11  1  0
 12 23  1  0
 12 13  1  0
 14  8  1  0
 14 13  1  0
 15  8  2  0
 16  3  1  0
 16 17  1  0
 17 19  1  0
 18 16  2  0
 20 21  2  0
 21 40  1  0
 22 21  1  0
 22 25  1  0
 23 24  1  0
 23 20  1  0
 24 22  2  0
 25 26  1  0
 26 27  2  0
 28 31  1  0
 28 27  1  0
 29 28  2  0
 30 29  1  0
 30 25  2  0
 31 32  1  0
 32 33  1  0
 33 34  2  0
 35 34  1  0
 35 39  1  0
 36 35  2  0
 37 32  2  0
 37 36  1  0
 38 37  1  0
 40 41  1  0
 41 44  1  0
 41 43  1  0
 42 40  2  0
 45 46  1  0
 45 20  1  0
 47 45  1  0
 48 53  1  0
 48 51  1  0
 50 49  1  0
 50 54  1  0
 51  4  1  0
 51 49  1  0
 52 48  2  0
 53 50  1  0
 55 54  1  0
 56 67  2  0
 57 55  1  0
 57 62  1  0
 58 66  1  0
 58 68  1  0
 59 65  1  0
 59 61  1  0
 60 66  1  0
 61 62  2  0
 61 60  1  0
 63 57  2  0
 64 63  1  0
 64 59  2  0
 65 58  1  0
 66 56  1  0
 68 70  2  0
 69 68  1  0
 71 69  1  0
 72 81  2  0
 72 77  1  0
 73 69  1  0
 73 77  1  0
 74 73  1  0
 75 76  1  0
 75 74  1  0
 76 72  1  0
 77 78  2  0
 78 79  1  0
 80 79  2  0
 81 80  1  0
 82 56  1  0
 82 87  1  0
 82 83  1  0
 83 86  1  1
 83 84  1  0
 85 83  1  0
 87 90  1  0
 88 92  1  0
 88 87  1  0
 89 88  2  0
 92 91  1  0
 94 92  1  0
 94 95  1  0
 94 93  1  0
 96 98  1  0
 96 97  1  0
M  ISO  4   8 100  17 100  54 101  55 101
M  END
>  <TORSDO>  (57) 
F 19

>  <SCORE>  (57) 
-13.314

>  <name>  (57) 
57

>  <ligand_id>  (57) 
57

>  <original_smiles>  (57) 
[H]c1c([H])c([H])c2c(c1[H])C([H])([H])C([H])([H])C([H])([H])C2([H])N([H])C(=O)C1([H])N(C(=O)C([H])(N([H])C(=O)C([H])(N([H])C([H])([H])[H])C([H])([H])[H])C(C([H])([H])[H])(C([H])([H])[H])C([H])([H])[H])C([H])([H])c2c([H])c(OC([H])([H])C3([H])OC(=O)N(c4c([H])c(N([H])[H])c(C(=O)N([H])C(=O)N5C([H])([H])C([H])([H])C([H])([H])C([H])(n6nc(-c7c([H])c([H])c(Oc8c([H])c([H])c(F)c([H])c8F)c([H])c7[H])c(C(=O)N([H])[H])c6N([H])[H])C5([H])[H])c([H])c4F)C3([H])[H])c([H])c([H])c2C1([H])[H]

>  <smiles>  (57) 
[H]c1c([H])c([H])c2c(c1[H])C([H])([H])C([H])([H])C([H])([H])C2([H])N([H])C(=O)C1([H])N(C(=O)C([H])(N([H])C(=O)C([H])(N([H])C([H])([H])[H])C([H])([H])[H])C(C([H])([H])[H])(C([H])([H])[H])C([H])([H])[H])C([H])([H])c2c([H])c(OC([H])([H])C3([H])OC(=O)N(c4c([H])c(N([H])[H])c(C(=O)N([H])C(=O)N5C([H])([H])C([H])([H])C([H])([H])C([H])(n6nc(-c7c([H])c([H])c(Oc8c([H])c([H])c(F)c([H])c8F)c([H])c7[H])c(C(=O)N([H])[H])c6N([H])[H])C5([H])[H])c([H])c4F)C3([H])[H])c([H])c([H])c2C1([H])[H]

$$$$
58:0:0
     RDKit          3D

 97106  0  0  1  0  0  0  0  0999 V2000
  -29.7000  -21.9410   21.1290 C   0  0  0  0  0  0  0  0  0  0  0  0
  -27.9460  -22.2630   19.5840 C   0  0  0  0  0  2  0  0  0  0  0  0
  -28.3740  -20.7880   19.6380 C   0  0  0  0  0  2  0  0  0  0  0  0
  -28.5240  -22.9040   20.8550 C   0  0  1  0  0  0  0  0  0  0  0  0
  -27.5340  -22.7610   22.0400 C   0  0  0  0  0  1  0  0  0  0  0  0
  -29.5840  -20.7640   20.4550 N   0  0  0  0  0  0  0  0  0  0  0  0
  -30.5970  -22.2520   21.9190 O   0  0  0  0  0  0  0  0  0  0  0  0
  -31.8170  -19.6940   20.7430 C   0  0  0  0  0  3  0  0  0  0  0  0
  -29.8660  -18.2640   20.4470 C   0  0  0  0  0  3  0  0  0  0  0  0
  -32.0740  -17.2710   20.7490 C   0  0  0  0  0  3  0  0  0  0  0  0
  -30.4160  -19.5800   20.5570 C   0  0  0  0  0  0  0  0  0  0  0  0
  -32.6360  -18.5550   20.8490 C   0  0  0  0  0  0  0  0  0  0  0  0
  -30.6870  -17.1000   20.5220 C   0  0  0  0  0  0  0  0  0  0  0  0
  -30.7570  -14.6770   19.9260 C   0  0  0  0  0  0  0  0  0  0  0  0
  -30.3750  -12.4330   18.9660 C   0  0  0  0  0  2  0  0  0  0  0  0
  -29.3930  -12.5360   17.7820 C   0  0  0  0  0  2  0  0  0  0  0  0
  -27.9390  -12.4390   18.2800 C   0  0  0  0  0  2  0  0  0  0  0  0
  -27.6490  -13.3820   19.4780 C   0  0  0  0  0  3  0  0  0  0  0  0
  -28.7490  -13.2730   20.5600 C   0  0  0  0  0  2  0  0  0  0  0  0
  -30.0450  -13.5150   19.9110 N   0  0  0  0  0  0  0  0  0  0  0  0
  -31.8650  -14.7660   19.3910 O   0  0  0  0  0  0  0  0  0  0  0  0
  -30.1270  -15.7780   20.4070 N   0  0  0  0  0  0  0  0  0  0  0  0
  -29.1560  -15.6620   20.6540 H   0  0  0  0  0  0  0  0  0  0  0  0
  -25.3280  -14.0670   20.3460 C   0  0  0  0  0  0  0  0  0  0  0  0
  -24.2500  -13.3310   20.7580 C   0  0  0  0  0  0  0  0  0  0  0  0
  -24.6480  -11.9620   20.6640 C   0  0  0  0  0  0  0  0  0  0  0  0
  -26.3160  -13.1490   20.0310 N   0  0  0  0  0  0  0  0  0  0  0  0
  -25.9150  -11.8760   20.2790 N   0  0  0  0  0  0  0  0  0  0  0  0
  -23.8770  -10.7270   20.8620 C   0  0  0  0  0  0  0  0  0  0  0  0
  -24.2460   -9.7740   21.8380 C   0  0  0  0  0  3  0  0  0  0  0  0
  -23.4770   -8.6050   22.0230 C   0  0  0  0  0  3  0  0  0  0  0  0
  -22.3270   -8.3780   21.2300 C   0  0  0  0  0  0  0  0  0  0  0  0
  -21.9780   -9.3180   20.2440 C   0  0  0  0  0  3  0  0  0  0  0  0
  -22.7460  -10.4800   20.0580 C   0  0  0  0  0  3  0  0  0  0  0  0
  -21.5360   -7.2590   21.3210 O   0  0  0  0  0  0  0  0  0  0  0  0
  -21.3410   -6.6100   22.5140 C   0  0  0  0  0  0  0  0  0  0  0  0
  -20.7630   -7.2560   23.6280 C   0  0  0  0  0  3  0  0  0  0  0  0
  -20.5180   -6.5330   24.8130 C   0  0  0  0  0  3  0  0  0  0  0  0
  -20.8410   -5.1650   24.8830 C   0  0  0  0  0  0  0  0  0  0  0  0
  -21.4110   -4.5180   23.7730 C   0  0  0  0  0  3  0  0  0  0  0  0
  -21.6580   -5.2390   22.5900 C   0  0  0  0  0  0  0  0  0  0  0  0
  -22.1890   -4.6060   21.5170 F   0  0  0  0  0  0  0  0  0  0  0  0
  -20.5980   -4.4670   26.0180 F   0  0  0  0  0  0  0  0  0  0  0  0
  -22.8930  -13.8600   21.1250 C   0  0  0  0  0  0  0  0  0  0  0  0
  -22.1870  -13.1700   22.0160 N   0  0  0  0  0  0  0  0  0  0  0  0
  -22.4720  -14.9180   20.6600 O   0  0  0  0  0  0  0  0  0  0  0  0
  -22.5420  -12.3130   22.4120 H   0  0  0  0  0  0  0  0  0  0  0  0
  -21.2800  -13.5060   22.3040 H   0  0  0  0  0  0  0  0  0  0  0  0
  -25.5430  -15.4330   20.1940 N   0  0  0  0  0  0  0  0  0  0  0  0
  -24.8120  -16.1170   20.3590 H   0  0  0  0  0  0  0  0  0  0  0  0
  -26.3870  -15.8420   19.8110 H   0  0  0  0  0  0  0  0  0  0  0  0
  -34.0090  -18.7030   21.0470 N   0  0  0  0  0  0  0  0  0  0  0  0
  -34.3710  -19.5960   21.3690 H   0  0  0  0  0  0  0  0  0  0  0  0
  -34.5510  -17.9100   21.3770 H   0  0  0  0  0  0  0  0  0  0  0  0
  -28.9470  -24.4140   20.6750 C   0  0  0  0  0  2  0  0  0  0  0  0
  -27.8440  -25.3300   20.0690 C   0  0  0  0  0  2  0  0  0  0  0  0
  -28.1030  -26.7590   20.0360 O   0  0  0  0  0  0  0  0  0  0  0  0
  -24.5090  -32.0140   23.2830 C   0  0  0  0  0  0  0  0  0  0  0  0
  -26.9720  -27.5670   20.0300 C   0  0  0  0  0  0  0  0  0  0  0  0
  -23.2250  -30.6490   21.6730 C   0  0  0  0  0  3  0  0  0  0  0  0
  -24.6030  -29.1320   20.1570 C   0  0  0  0  0  0  0  0  0  0  0  0
  -25.7480  -30.9810   21.3790 C   0  0  0  0  0  2  0  0  0  0  0  0
  -25.7950  -29.6210   20.7070 C   0  0  0  0  0  0  0  0  0  0  0  0
  -26.9830  -28.8480   20.6400 C   0  0  0  0  0  3  0  0  0  0  0  0
  -25.7600  -27.1210   19.4470 C   0  0  0  0  0  3  0  0  0  0  0  0
  -24.5830  -27.8830   19.5210 C   0  0  0  0  0  3  0  0  0  0  0  0
  -23.3700  -29.9990   20.2730 C   0  0  0  0  0  2  0  0  0  0  0  0
  -24.5150  -31.2280   22.1680 N   0  0  0  0  0  0  0  0  0  0  0  0
  -23.4530  -32.2870   23.8700 O   0  0  0  0  0  0  0  0  0  0  0  0
  -22.6050  -29.6140   22.6420 C   0  0  0  0  0  0  0  0  0  0  0  0
  -21.2960  -29.3570   22.4890 N   0  0  0  0  0  0  0  0  0  0  0  0
  -23.3010  -29.0470   23.4890 O   0  0  0  0  0  0  0  0  0  0  0  0
  -20.7930  -29.8700   21.7790 H   0  0  0  0  0  0  0  0  0  0  0  0
  -18.0070  -27.9050   22.8580 C   0  0  0  0  0  0  0  0  0  0  0  0
  -20.5120  -28.3960   23.2650 C   0  0  0  0  0  3  0  0  0  0  0  0
  -20.7680  -26.9500   22.7810 C   0  0  0  0  0  2  0  0  0  0  0  0
  -19.7630  -26.4800   21.7250 C   0  0  0  0  0  2  0  0  0  0  0  0
  -18.3360  -26.5410   22.2770 C   0  0  0  0  0  2  0  0  0  0  0  0
  -19.0290  -28.7820   23.3080 C   0  0  0  0  0  0  0  0  0  0  0  0
  -18.6700  -30.0530   23.8070 C   0  0  0  0  0  3  0  0  0  0  0  0
  -17.3210  -30.4500   23.8660 C   0  0  0  0  0  3  0  0  0  0  0  0
  -16.3120  -29.5700   23.4340 C   0  0  0  0  0  3  0  0  0  0  0  0
  -16.6550  -28.3010   22.9360 C   0  0  0  0  0  3  0  0  0  0  0  0
  -25.8240  -32.6270   23.8560 C   0  0  0  0  0  3  0  0  0  0  0  0
  -26.3810  -31.8420   25.1070 C   0  0  1  0  0  0  0  0  0  0  0  0
  -25.3160  -31.5680   26.1940 C   0  0  0  0  0  1  0  0  0  0  0  0
  -26.9760  -30.4810   24.6770 C   0  0  0  0  0  1  0  0  0  0  0  0
  -27.5340  -32.6430   25.7570 C   0  0  0  0  0  1  0  0  0  0  0  0
  -25.5440  -34.0270   24.2040 N   0  0  0  0  0  0  0  0  0  0  0  0
  -25.8710  -35.0790   23.4420 C   0  0  0  0  0  0  0  0  0  0  0  0
  -26.5120  -34.9720   22.3930 O   0  0  0  0  0  0  0  0  0  0  0  0
  -24.9740  -34.1850   25.0210 H   0  0  0  0  0  0  0  0  0  0  0  0
  -24.1610  -36.8990   23.1400 C   0  0  0  0  0  1  0  0  0  0  0  0
  -25.4150  -36.4710   23.9200 C   0  0  0  0  0  3  0  0  0  0  0  0
  -27.5800  -37.3180   24.7100 C   0  0  0  0  0  1  0  0  0  0  0  0
  -26.4600  -37.5090   23.7910 N   0  0  0  0  0  0  0  0  0  0  0  0
  -26.0710  -38.4340   23.9540 H   0  0  0  0  0  0  0  0  0  0  0  0
  1  7  2  0
  2  3  1  0
  2  4  1  0
  3  6  1  0
  4  1  1  0
  4  5  1  1
  6 11  1  0
  6  1  1  0
  8 12  1  0
  9 13  2  0
  9 11  1  0
 10 12  2  0
 11  8  2  0
 12 52  1  0
 13 10  1  0
 14 22  1  0
 15 20  1  0
 16 17  1  0
 16 15  1  0
 18 17  1  0
 18 27  1  0
 18 19  1  0
 20 14  1  0
 20 19  1  0
 21 14  2  0
 22 13  1  0
 22 23  1  0
 24 25  2  0
 25 44  1  0
 26 25  1  0
 26 29  1  0
 27 28  1  0
 27 24  1  0
 28 26  2  0
 29 30  1  0
 30 31  2  0
 32 35  1  0
 32 31  1  0
 33 32  2  0
 34 33  1  0
 34 29  2  0
 35 36  1  0
 36 41  2  0
 36 37  1  0
 37 38  2  0
 38 39  1  0
 39 43  1  0
 40 39  2  0
 41 40  1  0
 42 41  1  0
 44 45  1  0
 45 48  1  0
 45 47  1  0
 46 44  2  0
 49 24  1  0
 49 50  1  0
 51 49  1  0
 52 53  1  0
 52 54  1  0
 55  4  1  0
 56 55  1  0
 57 56  1  0
 58 69  2  0
 59 57  1  0
 59 64  1  0
 60 68  1  0
 60 70  1  0
 61 67  1  0
 61 63  1  0
 62 68  1  0
 63 62  1  0
 64 63  2  0
 65 66  1  0
 65 59  2  0
 66 61  2  0
 67 60  1  0
 68 58  1  0
 70 72  2  0
 71 70  1  0
 73 71  1  0
 74 83  2  0
 74 79  1  0
 75 71  1  0
 75 79  1  0
 76 75  1  0
 77 78  1  0
 77 76  1  0
 78 74  1  0
 79 80  2  0
 80 81  1  0
 82 81  2  0
 83 82  1  0
 84 58  1  0
 84 89  1  0
 84 85  1  0
 85 88  1  1
 85 86  1  0
 87 85  1  0
 89 92  1  0
 90 94  1  0
 90 89  1  0
 91 90  2  0
 94 93  1  0
 96 94  1  0
 96 97  1  0
 96 95  1  0
M  ISO  4  14 100  22 100  56 101  57 101
M  END
>  <TORSDO>  (58) 
F 20

>  <SCORE>  (58) 
-13.277

>  <name>  (58) 
58

>  <ligand_id>  (58) 
58

>  <original_smiles>  (58) 
[H]c1c([H])c([H])c2c(c1[H])C([H])([H])C([H])([H])C([H])([H])C2([H])N([H])C(=O)C1([H])N(C(=O)C([H])(N([H])C(=O)C([H])(N([H])C([H])([H])[H])C([H])([H])[H])C(C([H])([H])[H])(C([H])([H])[H])C([H])([H])[H])C([H])([H])c2c([H])c(OC([H])([H])C([H])([H])C3(C([H])([H])[H])C(=O)N(c4c([H])c(N([H])[H])c([H])c(N([H])C(=O)N5C([H])([H])C([H])([H])C([H])([H])C([H])(n6nc(-c7c([H])c([H])c(Oc8c([H])c([H])c(F)c([H])c8F)c([H])c7[H])c(C(=O)N([H])[H])c6N([H])[H])C5([H])[H])c4[H])C([H])([H])C3([H])[H])c([H])c([H])c2C1([H])[H]

>  <smiles>  (58) 
[H]c1c([H])c([H])c2c(c1[H])C([H])([H])C([H])([H])C([H])([H])C2([H])N([H])C(=O)C1([H])N(C(=O)C([H])(N([H])C(=O)C([H])(N([H])C([H])([H])[H])C([H])([H])[H])C(C([H])([H])[H])(C([H])([H])[H])C([H])([H])[H])C([H])([H])c2c([H])c(OC([H])([H])C([H])([H])C3(C([H])([H])[H])C(=O)N(c4c([H])c(N([H])[H])c([H])c(N([H])C(=O)N5C([H])([H])C([H])([H])C([H])([H])C([H])(n6nc(-c7c([H])c([H])c(Oc8c([H])c([H])c(F)c([H])c8F)c([H])c7[H])c(C(=O)N([H])[H])c6N([H])[H])C5([H])[H])c4[H])C([H])([H])C3([H])[H])c([H])c([H])c2C1([H])[H]

$$$$
59:0:0
     RDKit          3D

 93102  0  0  1  0  0  0  0  0999 V2000
  -28.9030  -22.8110   20.1090 C   0  0  0  0  0  3  0  0  0  0  0  0
  -28.1870  -23.8240   19.4990 C   0  0  0  0  0  0  0  0  0  0  0  0
  -27.1300  -23.1080   18.8100 C   0  0  0  0  0  0  0  0  0  0  0  0
  -26.3040  -23.5910   17.8670 C   0  0  0  0  0  1  0  0  0  0  0  0
  -27.1630  -21.6430   19.1620 C   0  0  0  0  0  3  0  0  0  0  0  0
  -28.3810  -21.4830   19.9570 N   0  0  0  0  0  0  0  0  0  0  0  0
  -30.0480  -19.7050   20.8430 C   0  0  0  0  0  3  0  0  0  0  0  0
  -30.4710  -18.3250   20.9330 C   0  0  0  0  0  3  0  0  0  0  0  0
  -28.1460  -19.0100   19.6080 C   0  0  0  0  0  3  0  0  0  0  0  0
  -28.5790  -17.6530   19.6330 C   0  0  0  0  0  0  0  0  0  0  0  0
  -28.8670  -20.1140   20.1510 C   0  0  0  0  0  0  0  0  0  0  0  0
  -29.7660  -17.2410   20.3170 C   0  0  0  0  0  0  0  0  0  0  0  0
  -27.7450  -16.7020   18.7840 C   0  0  0  0  0  1  0  0  0  0  0  0
  -30.8250  -14.9080   20.9540 C   0  0  0  0  0  0  0  0  0  0  0  0
  -30.7220  -12.5760   20.1090 C   0  0  0  0  0  2  0  0  0  0  0  0
  -29.9000  -12.5370   18.8040 C   0  0  0  0  0  2  0  0  0  0  0  0
  -28.4000  -12.3760   19.1120 C   0  0  0  0  0  2  0  0  0  0  0  0
  -27.8960  -13.3210   20.2370 C   0  0  0  0  0  3  0  0  0  0  0  0
  -28.8570  -13.3630   21.4410 C   0  0  0  0  0  2  0  0  0  0  0  0
  -30.1830  -13.6920   20.9080 N   0  0  0  0  0  0  0  0  0  0  0  0
  -32.0430  -14.9230   21.1470 O   0  0  0  0  0  0  0  0  0  0  0  0
  -31.1130  -15.9240   18.8230 C   0  0  0  0  0  1  0  0  0  0  0  0
  -30.3340  -15.8860   20.0810 N   0  0  0  0  0  0  0  0  0  0  0  0
  -25.4460  -13.9060   20.7170 C   0  0  0  0  0  0  0  0  0  0  0  0
  -24.3530  -13.1280   20.9800 C   0  0  0  0  0  0  0  0  0  0  0  0
  -24.8320  -11.7840   21.0370 C   0  0  0  0  0  0  0  0  0  0  0  0
  -26.5170  -13.0340   20.6130 N   0  0  0  0  0  0  0  0  0  0  0  0
  -26.1480  -11.7540   20.8730 N   0  0  0  0  0  0  0  0  0  0  0  0
  -24.1050  -10.5180   21.1830 C   0  0  0  0  0  0  0  0  0  0  0  0
  -24.4710   -9.5660   22.1590 C   0  0  0  0  0  3  0  0  0  0  0  0
  -23.7440   -8.3630   22.2940 C   0  0  0  0  0  3  0  0  0  0  0  0
  -22.6370   -8.1060   21.4510 C   0  0  0  0  0  0  0  0  0  0  0  0
  -22.2920   -9.0470   20.4650 C   0  0  0  0  0  3  0  0  0  0  0  0
  -23.0190  -10.2410   20.3290 C   0  0  0  0  0  3  0  0  0  0  0  0
  -21.8880   -6.9550   21.4920 O   0  0  0  0  0  0  0  0  0  0  0  0
  -21.7710   -6.2150   22.6420 C   0  0  0  0  0  0  0  0  0  0  0  0
  -21.2610   -6.7670   23.8360 C   0  0  0  0  0  3  0  0  0  0  0  0
  -21.0930   -5.9530   24.9730 C   0  0  0  0  0  3  0  0  0  0  0  0
  -21.4250   -4.5860   24.9160 C   0  0  0  0  0  0  0  0  0  0  0  0
  -21.9290   -4.0320   23.7270 C   0  0  0  0  0  3  0  0  0  0  0  0
  -22.0990   -4.8450   22.5910 C   0  0  0  0  0  0  0  0  0  0  0  0
  -22.5640   -4.3020   21.4410 F   0  0  0  0  0  0  0  0  0  0  0  0
  -21.2570   -3.8010   26.0050 F   0  0  0  0  0  0  0  0  0  0  0  0
  -22.9300  -13.5940   21.0810 C   0  0  0  0  0  0  0  0  0  0  0  0
  -22.1210  -12.9230   21.8930 N   0  0  0  0  0  0  0  0  0  0  0  0
  -22.5390  -14.5910   20.4750 O   0  0  0  0  0  0  0  0  0  0  0  0
  -22.4470  -12.1200   22.4110 H   0  0  0  0  0  0  0  0  0  0  0  0
  -21.1610  -13.2190   22.0020 H   0  0  0  0  0  0  0  0  0  0  0  0
  -25.6130  -15.2750   20.5390 N   0  0  0  0  0  0  0  0  0  0  0  0
  -24.8380  -15.9270   20.5970 H   0  0  0  0  0  0  0  0  0  0  0  0
  -26.5060  -15.7270   20.3980 H   0  0  0  0  0  0  0  0  0  0  0  0
  -28.5740  -25.3440   19.1970 C   0  0  0  0  0  2  0  0  0  0  0  0
  -28.3110  -26.4970   20.1030 O   0  0  0  0  0  0  0  0  0  0  0  0
  -24.5900  -31.8790   23.1700 C   0  0  0  0  0  0  0  0  0  0  0  0
  -27.1970  -27.3540   20.0220 C   0  0  0  0  0  0  0  0  0  0  0  0
  -23.3780  -30.4960   21.5220 C   0  0  0  0  0  3  0  0  0  0  0  0
  -24.8220  -28.9680   20.0610 C   0  0  0  0  0  0  0  0  0  0  0  0
  -25.9170  -30.8210   21.3230 C   0  0  0  0  0  2  0  0  0  0  0  0
  -25.9950  -29.4510   20.6540 C   0  0  0  0  0  0  0  0  0  0  0  0
  -27.1810  -28.6530   20.6300 C   0  0  0  0  0  3  0  0  0  0  0  0
  -25.9920  -26.9200   19.4370 C   0  0  0  0  0  3  0  0  0  0  0  0
  -24.8230  -27.7070   19.4460 C   0  0  0  0  0  3  0  0  0  0  0  0
  -23.5830  -29.8370   20.1330 C   0  0  0  0  0  2  0  0  0  0  0  0
  -24.6470  -31.0820   22.0620 N   0  0  0  0  0  0  0  0  0  0  0  0
  -23.5090  -32.1470   23.7160 O   0  0  0  0  0  0  0  0  0  0  0  0
  -22.7250  -29.4670   22.4770 C   0  0  0  0  0  0  0  0  0  0  0  0
  -21.3960  -29.2970   22.3670 N   0  0  0  0  0  0  0  0  0  0  0  0
  -23.4130  -28.8270   23.2760 O   0  0  0  0  0  0  0  0  0  0  0  0
  -20.9010  -29.8660   21.6950 H   0  0  0  0  0  0  0  0  0  0  0  0
  -18.0200  -28.1130   22.9050 C   0  0  0  0  0  0  0  0  0  0  0  0
  -20.5840  -28.3500   23.1350 C   0  0  0  0  0  3  0  0  0  0  0  0
  -20.6670  -26.9290   22.5310 C   0  0  0  0  0  2  0  0  0  0  0  0
  -19.5460  -26.6330   21.5300 C   0  0  0  0  0  2  0  0  0  0  0  0
  -18.1760  -26.7750   22.2010 C   0  0  0  0  0  2  0  0  0  0  0  0
  -19.1510  -28.8600   23.3300 C   0  0  0  0  0  0  0  0  0  0  0  0
  -18.9510  -30.1120   23.9500 C   0  0  0  0  0  3  0  0  0  0  0  0
  -17.6530  -30.6180   24.1490 C   0  0  0  0  0  3  0  0  0  0  0  0
  -16.5370  -29.8670   23.7400 C   0  0  0  0  0  3  0  0  0  0  0  0
  -16.7210  -28.6160   23.1250 C   0  0  0  0  0  3  0  0  0  0  0  0
  -25.8750  -32.5090   23.7900 C   0  0  0  0  0  3  0  0  0  0  0  0
  -25.5650  -33.9040   24.1380 N   0  0  0  0  0  0  0  0  0  0  0  0
  -25.9060  -34.9670   23.3970 C   0  0  0  0  0  0  0  0  0  0  0  0
  -26.5860  -34.8760   22.3710 O   0  0  0  0  0  0  0  0  0  0  0  0
  -24.9630  -34.0480   24.9360 H   0  0  0  0  0  0  0  0  0  0  0  0
  -24.1930  -36.7760   23.0460 C   0  0  0  0  0  1  0  0  0  0  0  0
  -25.4180  -36.3500   23.8700 C   0  0  0  0  0  3  0  0  0  0  0  0
  -27.5420  -37.2110   24.7530 C   0  0  0  0  0  1  0  0  0  0  0  0
  -26.4580  -37.4000   23.7920 N   0  0  0  0  0  0  0  0  0  0  0  0
  -26.0540  -38.3190   23.9480 H   0  0  0  0  0  0  0  0  0  0  0  0
  -26.4000  -31.7280   25.0580 C   0  0  1  0  0  0  0  0  0  0  0  0
  -25.3150  -31.4860   26.1330 C   0  0  0  0  0  1  0  0  0  0  0  0
  -26.9770  -30.3500   24.6530 C   0  0  0  0  0  1  0  0  0  0  0  0
  -27.5580  -32.5140   25.7160 C   0  0  0  0  0  1  0  0  0  0  0  0
  2  1  2  0
  3  5  2  0
  3  2  1  0
  4  3  1  0
  5  6  1  0
  6  1  1  0
  6 11  1  0
  7  8  1  0
  9 10  2  0
  9 11  1  0
 10 12  1  0
 11  7  2  0
 12  8  2  0
 13 10  1  0
 14 21  2  0
 15 20  1  0
 16 17  1  0
 16 15  1  0
 18 17  1  0
 18 27  1  0
 18 19  1  0
 20 14  1  0
 20 19  1  0
 22 23  1  0
 23 12  1  0
 23 14  1  0
 24 25  2  0
 25 26  1  0
 25 44  1  0
 26 29  1  0
 27 24  1  0
 27 28  1  0
 28 26  2  0
 29 30  1  0
 30 31  2  0
 32 35  1  0
 32 31  1  0
 33 32  2  0
 34 33  1  0
 34 29  2  0
 35 36  1  0
 36 37  1  0
 37 38  2  0
 39 38  1  0
 39 43  1  0
 40 39  2  0
 41 36  2  0
 41 40  1  0
 42 41  1  0
 44 45  1  0
 45 48  1  0
 45 47  1  0
 46 44  2  0
 49 50  1  0
 49 24  1  0
 51 49  1  0
 52  2  1  0
 52 53  1  0
 54 65  2  0
 55 53  1  0
 55 60  1  0
 56 64  1  0
 56 66  1  0
 57 63  1  0
 57 59  1  0
 58 64  1  0
 59 58  1  0
 60 59  2  0
 61 62  1  0
 61 55  2  0
 62 57  2  0
 63 56  1  0
 64 54  1  0
 66 68  2  0
 67 66  1  0
 69 67  1  0
 70 79  2  0
 70 75  1  0
 71 67  1  0
 71 75  1  0
 72 71  1  0
 73 74  1  0
 73 72  1  0
 74 70  1  0
 75 76  2  0
 76 77  1  0
 78 77  2  0
 79 78  1  0
 80 54  1  0
 80 81  1  0
 80 90  1  0
 81 84  1  0
 82 86  1  0
 82 81  1  0
 83 82  2  0
 86 85  1  0
 88 86  1  0
 88 89  1  0
 88 87  1  0
 90 93  1  1
 90 91  1  0
 92 90  1  0
M  ISO  4  14 100  23 100  52 101  53 101
M  END
>  <TORSDO>  (59) 
F 18

>  <SCORE>  (59) 
-14.738

>  <name>  (59) 
59

>  <ligand_id>  (59) 
59

>  <original_smiles>  (59) 
[H]C([H])=C1C(C([H])([H])Oc2c([H])c([H])c3c(c2[H])C([H])([H])N(C(=O)C([H])(N([H])C(=O)C([H])(N([H])C([H])([H])[H])C([H])([H])[H])C(C([H])([H])[H])(C([H])([H])[H])C([H])([H])[H])C([H])(C(=O)N([H])C2([H])c4c([H])c([H])c([H])c([H])c4C([H])([H])C([H])([H])C2([H])[H])C3([H])[H])=C([H])N(c2c([H])c([H])c(N(C(=O)N3C([H])([H])C([H])([H])C([H])([H])C([H])(n4nc(-c5c([H])c([H])c(Oc6c([H])c([H])c(F)c([H])c6F)c([H])c5[H])c(C(=O)N([H])[H])c4N([H])[H])C3([H])[H])C([H])([H])[H])c(C([H])([H])[H])c2[H])C1([H])[H]

>  <smiles>  (59) 
[H]C([H])=C1C(C([H])([H])Oc2c([H])c([H])c3c(c2[H])C([H])([H])N(C(=O)C([H])(N([H])C(=O)C([H])(N([H])C([H])([H])[H])C([H])([H])[H])C(C([H])([H])[H])(C([H])([H])[H])C([H])([H])[H])C([H])(C(=O)N([H])C2([H])c4c([H])c([H])c([H])c([H])c4C([H])([H])C([H])([H])C2([H])[H])C3([H])[H])=C([H])N(c2c([H])c([H])c(N(C(=O)N3C([H])([H])C([H])([H])C([H])([H])C([H])(n4nc(-c5c([H])c([H])c(Oc6c([H])c([H])c(F)c([H])c6F)c([H])c5[H])c(C(=O)N([H])[H])c4N([H])[H])C3([H])[H])C([H])([H])[H])c(C([H])([H])[H])c2[H])C1([H])[H]

$$$$
60:0:0
     RDKit          3D

 98106  0  0  1  0  0  0  0  0999 V2000
  -30.5100  -21.3860   21.1110 C   0  0  0  0  0  0  0  0  0  0  0  0
  -29.6300  -22.1550   20.4340 N   0  0  0  0  0  0  0  0  0  0  0  0
  -31.3780  -21.8940   21.8280 O   0  0  0  0  0  0  0  0  0  0  0  0
  -28.9570  -21.6800   19.8500 H   0  0  0  0  0  0  0  0  0  0  0  0
  -29.2110  -19.2240   20.7300 C   0  0  0  0  0  3  0  0  0  0  0  0
  -31.4920  -17.6100   20.9900 C   0  0  0  0  0  3  0  0  0  0  0  0
  -30.4560  -19.8660   20.9380 C   0  0  0  0  0  0  0  0  0  0  0  0
  -31.6090  -19.0220   21.0620 C   0  0  0  0  0  0  0  0  0  0  0  0
  -30.2390  -16.9830   20.8000 C   0  0  0  0  0  0  0  0  0  0  0  0
  -29.1040  -17.8140   20.6680 C   0  0  0  0  0  0  0  0  0  0  0  0
  -27.8900  -17.2420   20.4880 F   0  0  0  0  0  0  0  0  0  0  0  0
  -30.7520  -14.5720   20.2080 C   0  0  0  0  0  0  0  0  0  0  0  0
  -30.4190  -12.4420   18.9970 C   0  0  0  0  0  2  0  0  0  0  0  0
  -29.4180  -12.6800   17.8470 C   0  0  0  0  0  2  0  0  0  0  0  0
  -27.9650  -12.5290   18.3400 C   0  0  0  0  0  2  0  0  0  0  0  0
  -27.6890  -13.3200   19.6460 C   0  0  0  0  0  3  0  0  0  0  0  0
  -28.7950  -13.0530   20.6940 C   0  0  0  0  0  2  0  0  0  0  0  0
  -30.0900  -13.3870   20.0760 N   0  0  0  0  0  0  0  0  0  0  0  0
  -31.8660  -14.7630   19.7110 O   0  0  0  0  0  0  0  0  0  0  0  0
  -30.0300  -15.5610   20.7820 N   0  0  0  0  0  0  0  0  0  0  0  0
  -29.1110  -15.2750   21.0850 H   0  0  0  0  0  0  0  0  0  0  0  0
  -25.3260  -13.9110   20.4740 C   0  0  0  0  0  0  0  0  0  0  0  0
  -24.2720  -13.1300   20.8660 C   0  0  0  0  0  0  0  0  0  0  0  0
  -24.7290  -11.7790   20.7830 C   0  0  0  0  0  0  0  0  0  0  0  0
  -26.3580  -13.0350   20.1770 N   0  0  0  0  0  0  0  0  0  0  0  0
  -26.0050  -11.7460   20.4200 N   0  0  0  0  0  0  0  0  0  0  0  0
  -24.0100  -10.5130   20.9730 C   0  0  0  0  0  0  0  0  0  0  0  0
  -24.4420   -9.5520   21.9140 C   0  0  0  0  0  3  0  0  0  0  0  0
  -23.7220   -8.3500   22.0900 C   0  0  0  0  0  3  0  0  0  0  0  0
  -22.5570   -8.1020   21.3270 C   0  0  0  0  0  0  0  0  0  0  0  0
  -22.1460   -9.0510   20.3760 C   0  0  0  0  0  3  0  0  0  0  0  0
  -22.8660  -10.2440   20.1960 C   0  0  0  0  0  3  0  0  0  0  0  0
  -21.8100   -6.9520   21.4120 O   0  0  0  0  0  0  0  0  0  0  0  0
  -21.7060   -6.2470   22.5850 C   0  0  0  0  0  0  0  0  0  0  0  0
  -21.1770   -6.8270   23.7590 C   0  0  0  0  0  3  0  0  0  0  0  0
  -21.0240   -6.0460   24.9220 C   0  0  0  0  0  3  0  0  0  0  0  0
  -21.3880   -4.6870   24.9120 C   0  0  0  0  0  0  0  0  0  0  0  0
  -21.9090   -4.1060   23.7420 C   0  0  0  0  0  3  0  0  0  0  0  0
  -22.0650   -4.8840   22.5810 C   0  0  0  0  0  0  0  0  0  0  0  0
  -22.5480   -4.3140   21.4510 F   0  0  0  0  0  0  0  0  0  0  0  0
  -21.2330   -3.9340   26.0260 F   0  0  0  0  0  0  0  0  0  0  0  0
  -22.8890  -13.6010   21.2130 C   0  0  0  0  0  0  0  0  0  0  0  0
  -22.1950  -12.8780   22.0850 N   0  0  0  0  0  0  0  0  0  0  0  0
  -22.4330  -14.6440   20.7450 O   0  0  0  0  0  0  0  0  0  0  0  0
  -22.5770  -12.0340   22.4850 H   0  0  0  0  0  0  0  0  0  0  0  0
  -21.2690  -13.1740   22.3590 H   0  0  0  0  0  0  0  0  0  0  0  0
  -25.4840  -15.2860   20.3310 N   0  0  0  0  0  0  0  0  0  0  0  0
  -24.7320  -15.9360   20.5260 H   0  0  0  0  0  0  0  0  0  0  0  0
  -26.3500  -15.7530   20.0900 H   0  0  0  0  0  0  0  0  0  0  0  0
  -32.8960  -19.5280   21.2650 N   0  0  0  0  0  0  0  0  0  0  0  0
  -33.5950  -18.9110   21.6670 H   0  0  0  0  0  0  0  0  0  0  0  0
  -32.9580  -20.4740   21.6360 H   0  0  0  0  0  0  0  0  0  0  0  0
  -29.6720  -23.6400   20.3390 C   0  0  0  0  0  2  0  0  0  0  0  0
  -28.9710  -24.0310   22.7360 C   0  0  0  0  0  1  0  0  0  0  0  0
  -27.2340  -23.9820   20.9500 C   0  0  0  0  0  1  0  0  0  0  0  0
  -28.6770  -24.4110   21.2690 C   0  0  2  0  0  0  0  0  0  0  0  0
  -28.8280  -25.9790   21.1670 C   0  0  0  0  0  2  0  0  0  0  0  0
  -28.4320  -26.6130   19.9360 O   0  0  0  0  0  0  0  0  0  0  0  0
  -24.5750  -31.7700   23.1100 C   0  0  0  0  0  0  0  0  0  0  0  0
  -27.2880  -27.3840   19.9880 C   0  0  0  0  0  0  0  0  0  0  0  0
  -23.3970  -30.3770   21.4420 C   0  0  0  0  0  3  0  0  0  0  0  0
  -24.8800  -28.8760   20.0040 C   0  0  0  0  0  0  0  0  0  0  0  0
  -25.9200  -30.7610   21.2680 C   0  0  0  0  0  2  0  0  0  0  0  0
  -26.0290  -29.3960   20.6170 C   0  0  0  0  0  0  0  0  0  0  0  0
  -27.2350  -28.6540   20.6160 C   0  0  0  0  0  3  0  0  0  0  0  0
  -26.1290  -26.8950   19.3510 C   0  0  0  0  0  3  0  0  0  0  0  0
  -24.9260  -27.6230   19.3710 C   0  0  0  0  0  3  0  0  0  0  0  0
  -23.6250  -29.7200   20.0540 C   0  0  0  0  0  2  0  0  0  0  0  0
  -24.6480  -30.9850   21.9970 N   0  0  0  0  0  0  0  0  0  0  0  0
  -23.4860  -32.0210   23.6480 O   0  0  0  0  0  0  0  0  0  0  0  0
  -22.7530  -29.3330   22.3840 C   0  0  0  0  0  0  0  0  0  0  0  0
  -21.4270  -29.1510   22.2620 N   0  0  0  0  0  0  0  0  0  0  0  0
  -23.4420  -28.6920   23.1820 O   0  0  0  0  0  0  0  0  0  0  0  0
  -20.9320  -29.7210   21.5900 H   0  0  0  0  0  0  0  0  0  0  0  0
  -18.0540  -27.9670   22.7820 C   0  0  0  0  0  0  0  0  0  0  0  0
  -20.6170  -28.1950   23.0170 C   0  0  0  0  0  3  0  0  0  0  0  0
  -20.6980  -26.7830   22.3940 C   0  0  0  0  0  2  0  0  0  0  0  0
  -19.5760  -26.5010   21.3890 C   0  0  0  0  0  2  0  0  0  0  0  0
  -18.2070  -26.6380   22.0620 C   0  0  0  0  0  2  0  0  0  0  0  0
  -19.1860  -28.7050   23.2170 C   0  0  0  0  0  0  0  0  0  0  0  0
  -18.9890  -29.9520   23.8510 C   0  0  0  0  0  3  0  0  0  0  0  0
  -17.6910  -30.4570   24.0560 C   0  0  0  0  0  3  0  0  0  0  0  0
  -16.5730  -29.7150   23.6390 C   0  0  0  0  0  3  0  0  0  0  0  0
  -16.7550  -28.4720   23.0070 C   0  0  0  0  0  3  0  0  0  0  0  0
  -25.8490  -32.4080   23.7450 C   0  0  0  0  0  3  0  0  0  0  0  0
  -25.5170  -33.7940   24.1040 N   0  0  0  0  0  0  0  0  0  0  0  0
  -25.8360  -34.8670   23.3680 C   0  0  0  0  0  0  0  0  0  0  0  0
  -26.5110  -34.7950   22.3380 O   0  0  0  0  0  0  0  0  0  0  0  0
  -24.9180  -33.9220   24.9060 H   0  0  0  0  0  0  0  0  0  0  0  0
  -24.0910  -36.6460   23.0340 C   0  0  0  0  0  1  0  0  0  0  0  0
  -25.3250  -36.2370   23.8530 C   0  0  0  0  0  3  0  0  0  0  0  0
  -27.4310  -37.1330   24.7440 C   0  0  0  0  0  1  0  0  0  0  0  0
  -26.3460  -37.3050   23.7810 N   0  0  0  0  0  0  0  0  0  0  0  0
  -25.9250  -38.2170   23.9380 H   0  0  0  0  0  0  0  0  0  0  0  0
  -26.3800  -31.6170   25.0040 C   0  0  1  0  0  0  0  0  0  0  0  0
  -25.2910  -31.3350   26.0640 C   0  0  0  0  0  1  0  0  0  0  0  0
  -26.9890  -30.2600   24.5780 C   0  0  0  0  0  1  0  0  0  0  0  0
  -27.5150  -32.4160   25.6830 C   0  0  0  0  0  1  0  0  0  0  0  0
  1  3  2  0
  2  1  1  0
  4  2  1  0
  5  7  1  0
  6  8  1  0
  7  8  2  0
  7  1  1  0
  8 50  1  0
  9  6  2  0
 10  5  2  0
 10  9  1  0
 11 10  1  0
 12 20  1  0
 13 18  1  0
 14 15  1  0
 14 13  1  0
 16 15  1  0
 16 25  1  0
 16 17  1  0
 18 12  1  0
 18 17  1  0
 19 12  2  0
 20  9  1  0
 20 21  1  0
 22 23  2  0
 23 42  1  0
 24 23  1  0
 24 27  1  0
 25 26  1  0
 25 22  1  0
 26 24  2  0
 27 28  1  0
 28 29  2  0
 30 33  1  0
 30 29  1  0
 31 30  2  0
 32 31  1  0
 32 27  2  0
 33 34  1  0
 34 35  1  0
 35 36  2  0
 37 36  1  0
 37 41  1  0
 38 37  2  0
 39 34  2  0
 39 38  1  0
 40 39  1  0
 42 43  1  0
 43 46  1  0
 43 45  1  0
 44 42  2  0
 47 22  1  0
 47 48  1  0
 49 47  1  0
 50 52  1  0
 50 51  1  0
 53  2  1  0
 53 56  1  0
 56 55  1  6
 56 54  1  0
 57 56  1  0
 58 60  1  0
 58 57  1  0
 59 70  2  0
 60 65  1  0
 61 69  1  0
 61 71  1  0
 62 68  1  0
 62 64  1  0
 63 69  1  0
 64 63  1  0
 65 64  2  0
 66 67  1  0
 66 60  2  0
 67 62  2  0
 68 61  1  0
 69 59  1  0
 71 73  2  0
 72 71  1  0
 74 72  1  0
 75 84  2  0
 75 80  1  0
 76 72  1  0
 76 80  1  0
 77 76  1  0
 78 79  1  0
 78 77  1  0
 79 75  1  0
 80 81  2  0
 81 82  1  0
 83 82  2  0
 84 83  1  0
 85 59  1  0
 85 86  1  0
 85 95  1  0
 86 89  1  0
 87 91  1  0
 87 86  1  0
 88 87  2  0
 91 90  1  0
 93 91  1  0
 93 94  1  0
 93 92  1  0
 95 98  1  1
 95 96  1  0
 97 95  1  0
M  ISO  4  12 100  20 100  57 101  58 101
M  END
>  <TORSDO>  (60) 
F 21

>  <SCORE>  (60) 
-13.993

>  <name>  (60) 
60

>  <ligand_id>  (60) 
60

>  <original_smiles>  (60) 
[H]c1c([H])c([H])c2c(c1[H])C([H])([H])C([H])([H])C([H])([H])C2([H])N([H])C(=O)C1([H])N(C(=O)C([H])(N([H])C(=O)C([H])(N([H])C([H])([H])[H])C([H])([H])[H])C(C([H])([H])[H])(C([H])([H])[H])C([H])([H])[H])C([H])([H])c2c([H])c(OC([H])([H])C(C([H])([H])[H])(C([H])([H])[H])C([H])([H])N([H])C(=O)c3c([H])c(F)c(N([H])C(=O)N4C([H])([H])C([H])([H])C([H])([H])C([H])(n5nc(-c6c([H])c([H])c(Oc7c([H])c([H])c(F)c([H])c7F)c([H])c6[H])c(C(=O)N([H])[H])c5N([H])[H])C4([H])[H])c([H])c3N([H])[H])c([H])c([H])c2C1([H])[H]

>  <smiles>  (60) 
[H]c1c([H])c([H])c2c(c1[H])C([H])([H])C([H])([H])C([H])([H])C2([H])N([H])C(=O)C1([H])N(C(=O)C([H])(N([H])C(=O)C([H])(N([H])C([H])([H])[H])C([H])([H])[H])C(C([H])([H])[H])(C([H])([H])[H])C([H])([H])[H])C([H])([H])c2c([H])c(OC([H])([H])C(C([H])([H])[H])(C([H])([H])[H])C([H])([H])N([H])C(=O)c3c([H])c(F)c(N([H])C(=O)N4C([H])([H])C([H])([H])C([H])([H])C([H])(n5nc(-c6c([H])c([H])c(Oc7c([H])c([H])c(F)c([H])c7F)c([H])c6[H])c(C(=O)N([H])[H])c5N([H])[H])C4([H])[H])c([H])c3N([H])[H])c([H])c([H])c2C1([H])[H]

$$$$
61:0:0
     RDKit          3D

 97106  0  0  1  0  0  0  0  0999 V2000
  -29.5400  -23.3160   18.8270 C   0  0  0  0  0  0  0  0  0  0  0  0
  -29.6080  -20.8120   18.8010 C   0  0  0  0  0  3  0  0  0  0  0  0
  -29.6500  -23.6840   21.2040 C   0  0  0  0  0  2  0  0  0  0  0  0
  -29.9090  -22.1990   20.8790 C   0  0  0  0  0  2  0  0  0  0  0  0
  -29.5620  -24.4520   19.8630 C   0  0  1  0  0  0  0  0  0  0  0  0
  -30.7960  -25.3550   19.6430 C   0  0  0  0  0  1  0  0  0  0  0  0
  -29.6560  -22.0190   19.4400 N   0  0  0  0  0  0  0  0  0  0  0  0
  -29.3630  -20.7380   17.4890 N   0  0  0  0  0  0  0  0  0  0  0  0
  -29.4210  -23.4960   17.6080 O   0  0  0  0  0  0  0  0  0  0  0  0
  -29.2320  -19.8410   17.0460 H   0  0  0  0  0  0  0  0  0  0  0  0
  -29.2290  -21.5920   16.9620 H   0  0  0  0  0  0  0  0  0  0  0  0
  -28.9070  -18.9830   20.3990 C   0  0  0  0  0  3  0  0  0  0  0  0
  -30.8830  -18.7000   19.0100 C   0  0  0  0  0  3  0  0  0  0  0  0
  -29.0330  -17.6440   20.8410 C   0  0  0  0  0  3  0  0  0  0  0  0
  -31.0200  -17.3740   19.4680 C   0  0  0  0  0  3  0  0  0  0  0  0
  -29.8180  -19.5100   19.4570 C   0  0  0  0  0  0  0  0  0  0  0  0
  -30.0740  -16.8110   20.3660 C   0  0  0  0  0  0  0  0  0  0  0  0
  -30.7240  -14.4130   20.1930 C   0  0  0  0  0  0  0  0  0  0  0  0
  -30.3220  -12.2980   19.0130 C   0  0  0  0  0  2  0  0  0  0  0  0
  -29.3430  -12.5740   17.8530 C   0  0  0  0  0  2  0  0  0  0  0  0
  -27.8860  -12.4450   18.3370 C   0  0  0  0  0  2  0  0  0  0  0  0
  -27.6140  -13.2390   19.6420 C   0  0  0  0  0  3  0  0  0  0  0  0
  -28.7110  -12.9770   20.7010 C   0  0  0  0  0  2  0  0  0  0  0  0
  -30.0200  -13.2550   20.0880 N   0  0  0  0  0  0  0  0  0  0  0  0
  -31.8450  -14.5490   19.6940 O   0  0  0  0  0  0  0  0  0  0  0  0
  -30.0740  -15.4370   20.7730 N   0  0  0  0  0  0  0  0  0  0  0  0
  -29.2750  -15.1530   21.3180 H   0  0  0  0  0  0  0  0  0  0  0  0
  -25.2430  -13.8560   20.4370 C   0  0  0  0  0  0  0  0  0  0  0  0
  -24.1800  -13.0910   20.8360 C   0  0  0  0  0  0  0  0  0  0  0  0
  -24.6280  -11.7350   20.7780 C   0  0  0  0  0  0  0  0  0  0  0  0
  -26.2740  -12.9690   20.1640 N   0  0  0  0  0  0  0  0  0  0  0  0
  -25.9070  -11.6880   20.4230 N   0  0  0  0  0  0  0  0  0  0  0  0
  -23.8980  -10.4790   20.9860 C   0  0  0  0  0  0  0  0  0  0  0  0
  -24.3510   -9.5040   21.9030 C   0  0  0  0  0  3  0  0  0  0  0  0
  -23.6210   -8.3110   22.0990 C   0  0  0  0  0  3  0  0  0  0  0  0
  -22.4240   -8.0840   21.3820 C   0  0  0  0  0  0  0  0  0  0  0  0
  -21.9890   -9.0470   20.4560 C   0  0  0  0  0  3  0  0  0  0  0  0
  -22.7180  -10.2300   20.2570 C   0  0  0  0  0  3  0  0  0  0  0  0
  -21.6680   -6.9410   21.4850 O   0  0  0  0  0  0  0  0  0  0  0  0
  -21.6490   -6.1930   22.6330 C   0  0  0  0  0  0  0  0  0  0  0  0
  -21.2580   -6.7420   23.8730 C   0  0  0  0  0  3  0  0  0  0  0  0
  -21.1840   -5.9210   25.0150 C   0  0  0  0  0  3  0  0  0  0  0  0
  -21.4910   -4.5500   24.9200 C   0  0  0  0  0  0  0  0  0  0  0  0
  -21.8750   -4.0000   23.6840 C   0  0  0  0  0  3  0  0  0  0  0  0
  -21.9510   -4.8190   22.5440 C   0  0  0  0  0  0  0  0  0  0  0  0
  -22.3020   -4.2790   21.3520 F   0  0  0  0  0  0  0  0  0  0  0  0
  -21.4130   -3.7600   26.0170 F   0  0  0  0  0  0  0  0  0  0  0  0
  -22.7970  -13.5810   21.1570 C   0  0  0  0  0  0  0  0  0  0  0  0
  -22.0910  -12.8890   22.0430 N   0  0  0  0  0  0  0  0  0  0  0  0
  -22.3530  -14.6140   20.6580 O   0  0  0  0  0  0  0  0  0  0  0  0
  -22.4610  -12.0570   22.4760 H   0  0  0  0  0  0  0  0  0  0  0  0
  -21.1640  -13.2030   22.2920 H   0  0  0  0  0  0  0  0  0  0  0  0
  -25.4150  -15.2260   20.2660 N   0  0  0  0  0  0  0  0  0  0  0  0
  -24.6560  -15.8860   20.3980 H   0  0  0  0  0  0  0  0  0  0  0  0
  -26.2530  -15.6560   19.8960 H   0  0  0  0  0  0  0  0  0  0  0  0
  -28.2650  -25.2920   19.6950 C   0  0  0  0  0  2  0  0  0  0  0  0
  -28.3400  -26.6390   20.1930 O   0  0  0  0  0  0  0  0  0  0  0  0
  -24.5780  -31.8590   23.2260 C   0  0  0  0  0  0  0  0  0  0  0  0
  -27.1760  -27.3870   20.1530 C   0  0  0  0  0  0  0  0  0  0  0  0
  -23.3600  -30.4650   21.5870 C   0  0  0  0  0  3  0  0  0  0  0  0
  -24.8000  -28.9320   20.1550 C   0  0  0  0  0  0  0  0  0  0  0  0
  -25.8870  -30.8090   21.3850 C   0  0  0  0  0  2  0  0  0  0  0  0
  -25.9630  -29.4370   20.7490 C   0  0  0  0  0  0  0  0  0  0  0  0
  -27.1500  -28.6680   20.7540 C   0  0  0  0  0  3  0  0  0  0  0  0
  -25.9870  -26.9080   19.5440 C   0  0  0  0  0  3  0  0  0  0  0  0
  -24.8050  -27.6670   19.5530 C   0  0  0  0  0  3  0  0  0  0  0  0
  -23.5650  -29.8000   20.2010 C   0  0  0  0  0  2  0  0  0  0  0  0
  -24.6270  -31.0590   22.1250 N   0  0  0  0  0  0  0  0  0  0  0  0
  -23.4990  -32.1350   23.7700 O   0  0  0  0  0  0  0  0  0  0  0  0
  -22.7110  -29.4400   22.5450 C   0  0  0  0  0  0  0  0  0  0  0  0
  -21.3840  -29.2690   22.4250 N   0  0  0  0  0  0  0  0  0  0  0  0
  -23.3950  -28.8060   23.3520 O   0  0  0  0  0  0  0  0  0  0  0  0
  -20.8930  -29.8350   21.7460 H   0  0  0  0  0  0  0  0  0  0  0  0
  -18.0030  -28.1050   22.9410 C   0  0  0  0  0  0  0  0  0  0  0  0
  -20.5640  -28.3350   23.1960 C   0  0  0  0  0  3  0  0  0  0  0  0
  -20.6480  -26.9070   22.6110 C   0  0  0  0  0  2  0  0  0  0  0  0
  -19.5350  -26.6010   21.6030 C   0  0  0  0  0  2  0  0  0  0  0  0
  -18.1600  -26.7570   22.2590 C   0  0  0  0  0  2  0  0  0  0  0  0
  -19.1320  -28.8530   23.3670 C   0  0  0  0  0  0  0  0  0  0  0  0
  -18.9330  -30.1160   23.9640 C   0  0  0  0  0  3  0  0  0  0  0  0
  -17.6350  -30.6320   24.1400 C   0  0  0  0  0  3  0  0  0  0  0  0
  -16.5190  -29.8810   23.7290 C   0  0  0  0  0  3  0  0  0  0  0  0
  -16.7040  -28.6190   23.1380 C   0  0  0  0  0  3  0  0  0  0  0  0
  -25.8700  -32.4830   23.8400 C   0  0  0  0  0  3  0  0  0  0  0  0
  -25.5640  -33.8780   24.1850 N   0  0  0  0  0  0  0  0  0  0  0  0
  -25.8800  -34.9340   23.4250 C   0  0  0  0  0  0  0  0  0  0  0  0
  -26.5330  -34.8400   22.3830 O   0  0  0  0  0  0  0  0  0  0  0  0
  -24.9770  -34.0270   24.9940 H   0  0  0  0  0  0  0  0  0  0  0  0
  -24.1370  -36.7190   23.1090 C   0  0  0  0  0  1  0  0  0  0  0  0
  -25.3940  -36.3180   23.8980 C   0  0  0  0  0  3  0  0  0  0  0  0
  -27.5430  -37.2020   24.6910 C   0  0  0  0  0  1  0  0  0  0  0  0
  -26.4200  -37.3780   23.7740 N   0  0  0  0  0  0  0  0  0  0  0  0
  -26.0120  -38.2920   23.9460 H   0  0  0  0  0  0  0  0  0  0  0  0
  -26.4000  -31.6980   25.1020 C   0  0  1  0  0  0  0  0  0  0  0  0
  -25.3180  -31.4480   26.1780 C   0  0  0  0  0  1  0  0  0  0  0  0
  -26.9800  -30.3260   24.6860 C   0  0  0  0  0  1  0  0  0  0  0  0
  -27.5590  -32.4830   25.7590 C   0  0  0  0  0  1  0  0  0  0  0  0
  1  7  1  0
  1  5  1  0
  2  8  1  0
  2  7  1  0
  2 16  1  0
  4  3  1  0
  5  6  1  6
  5  3  1  0
  7  4  1  0
  9  1  2  0
 10  8  1  0
 11  8  1  0
 12 14  1  0
 13 16  1  0
 13 15  2  0
 15 17  1  0
 16 12  2  0
 17 26  1  0
 17 14  2  0
 18 26  1  0
 19 24  1  0
 20 21  1  0
 20 19  1  0
 22 21  1  0
 22 31  1  0
 22 23  1  0
 24 18  1  0
 24 23  1  0
 25 18  2  0
 26 27  1  0
 28 29  2  0
 29 48  1  0
 30 29  1  0
 30 33  1  0
 31 32  1  0
 31 28  1  0
 32 30  2  0
 33 34  1  0
 34 35  2  0
 36 39  1  0
 36 35  1  0
 37 36  2  0
 38 37  1  0
 38 33  2  0
 39 40  1  0
 40 41  1  0
 41 42  2  0
 43 42  1  0
 43 47  1  0
 44 43  2  0
 45 40  2  0
 45 44  1  0
 46 45  1  0
 48 49  1  0
 49 52  1  0
 49 51  1  0
 50 48  2  0
 53 54  1  0
 53 28  1  0
 55 53  1  0
 56  5  1  0
 56 57  1  0
 58 69  2  0
 59 57  1  0
 59 64  1  0
 60 68  1  0
 60 70  1  0
 61 67  1  0
 61 63  1  0
 62 68  1  0
 63 64  2  0
 63 62  1  0
 65 66  1  0
 65 59  2  0
 66 61  2  0
 67 60  1  0
 68 58  1  0
 70 72  2  0
 71 70  1  0
 73 71  1  0
 74 83  2  0
 74 79  1  0
 75 71  1  0
 75 79  1  0
 76 75  1  0
 77 78  1  0
 77 76  1  0
 78 74  1  0
 79 80  2  0
 80 81  1  0
 82 81  2  0
 83 82  1  0
 84 58  1  0
 84 85  1  0
 84 94  1  0
 85 88  1  0
 86 90  1  0
 86 85  1  0
 87 86  2  0
 90 89  1  0
 92 90  1  0
 92 93  1  0
 92 91  1  0
 94 97  1  1
 94 95  1  0
 96 94  1  0
M  ISO  4  18 100  26 100  56 101  57 101
M  END
>  <TORSDO>  (61) 
F 18

>  <SCORE>  (61) 
-14.810

>  <name>  (61) 
61

>  <ligand_id>  (61) 
61

>  <original_smiles>  (61) 
[H]c1c([H])c([H])c2c(c1[H])C([H])([H])C([H])([H])C([H])([H])C2([H])N([H])C(=O)C1([H])N(C(=O)C([H])(N([H])C(=O)C([H])(N([H])C([H])([H])[H])C([H])([H])[H])C(C([H])([H])[H])(C([H])([H])[H])C([H])([H])[H])C([H])([H])c2c([H])c(OC([H])([H])C3(C([H])([H])[H])C(=O)N(C(c4c([H])c([H])c(N([H])C(=O)N5C([H])([H])C([H])([H])C([H])([H])C([H])(n6nc(-c7c([H])c([H])c(Oc8c([H])c([H])c(F)c([H])c8F)c([H])c7[H])c(C(=O)N([H])[H])c6N([H])[H])C5([H])[H])c([H])c4[H])=[N+]([H])[H])C([H])([H])C3([H])[H])c([H])c([H])c2C1([H])[H]

>  <smiles>  (61) 
[H]c1c([H])c([H])c2c(c1[H])C([H])([H])C([H])([H])C([H])([H])C2([H])N([H])C(=O)C1([H])N(C(=O)C([H])(N([H])C(=O)C([H])(N([H])C([H])([H])[H])C([H])([H])[H])C(C([H])([H])[H])(C([H])([H])[H])C([H])([H])[H])C([H])([H])c2c([H])c(OC([H])([H])C3(C([H])([H])[H])C(=O)N(C(c4c([H])c([H])c(N([H])C(=O)N5C([H])([H])C([H])([H])C([H])([H])C([H])(n6nc(-c7c([H])c([H])c(Oc8c([H])c([H])c(F)c([H])c8F)c([H])c7[H])c(C(=O)N([H])[H])c6N([H])[H])C5([H])[H])c([H])c4[H])=[N+]([H])[H])C([H])([H])C3([H])[H])c([H])c([H])c2C1([H])[H]

$$$$
62:0:0
     RDKit          3D

 98107  0  0  1  0  0  0  0  0999 V2000
  -29.9010  -23.5440   19.6810 C   0  0  0  0  0  0  0  0  0  0  0  0
  -30.7990  -21.4590   22.5890 C   0  0  0  0  0  2  0  0  0  0  0  0
  -30.7880  -22.8640   21.9890 C   0  0  0  0  0  2  0  0  0  0  0  0
  -30.6510  -21.2730   20.2170 C   0  0  0  0  0  2  0  0  0  0  0  0
  -31.3270  -20.6350   21.4280 C   0  0  0  0  0  3  0  0  0  0  0  0
  -30.4680  -22.6830   20.5620 N   0  0  0  0  0  0  0  0  0  0  0  0
  -29.5490  -23.1550   18.5590 O   0  0  0  0  0  0  0  0  0  0  0  0
  -32.1790  -18.2600   21.2860 C   0  0  0  0  0  3  0  0  0  0  0  0
  -29.8250  -18.6190   21.8190 C   0  0  0  0  0  3  0  0  0  0  0  0
  -31.9560  -16.8740   21.2500 C   0  0  0  0  0  3  0  0  0  0  0  0
  -29.5960  -17.2330   21.7730 C   0  0  0  0  0  3  0  0  0  0  0  0
  -31.1040  -19.1390   21.5310 C   0  0  0  0  0  0  0  0  0  0  0  0
  -30.6510  -16.3650   21.4260 C   0  0  0  0  0  0  0  0  0  0  0  0
  -30.6670  -14.3420   20.0910 C   0  0  0  0  0  0  0  0  0  0  0  0
  -30.1620  -12.3650   18.7110 C   0  0  0  0  0  2  0  0  0  0  0  0
  -29.1240  -12.7000   17.6260 C   0  0  0  0  0  2  0  0  0  0  0  0
  -27.6910  -12.5430   18.1720 C   0  0  0  0  0  2  0  0  0  0  0  0
  -27.4900  -13.2840   19.5200 C   0  0  0  0  0  3  0  0  0  0  0  0
  -28.6220  -12.9280   20.5070 C   0  0  0  0  0  2  0  0  0  0  0  0
  -29.9170  -13.2340   19.8700 N   0  0  0  0  0  0  0  0  0  0  0  0
  -31.5990  -14.6820   19.3540 O   0  0  0  0  0  0  0  0  0  0  0  0
  -30.3600  -15.0020   21.2170 N   0  0  0  0  0  0  0  0  0  0  0  0
  -29.5820  -14.6210   21.7330 H   0  0  0  0  0  0  0  0  0  0  0  0
  -25.1620  -13.8730   20.4580 C   0  0  0  0  0  0  0  0  0  0  0  0
  -24.1230  -13.0880   20.8820 C   0  0  0  0  0  0  0  0  0  0  0  0
  -24.5660  -11.7380   20.7380 C   0  0  0  0  0  0  0  0  0  0  0  0
  -26.1760  -12.9990   20.0940 N   0  0  0  0  0  0  0  0  0  0  0  0
  -25.8210  -11.7060   20.3140 N   0  0  0  0  0  0  0  0  0  0  0  0
  -23.8470  -10.4710   20.9260 C   0  0  0  0  0  0  0  0  0  0  0  0
  -24.2990   -9.4970   21.8440 C   0  0  0  0  0  3  0  0  0  0  0  0
  -23.5830   -8.2940   22.0190 C   0  0  0  0  0  3  0  0  0  0  0  0
  -22.4010   -8.0560   21.2790 C   0  0  0  0  0  0  0  0  0  0  0  0
  -21.9690   -9.0190   20.3500 C   0  0  0  0  0  3  0  0  0  0  0  0
  -22.6860  -10.2140   20.1710 C   0  0  0  0  0  3  0  0  0  0  0  0
  -21.6540   -6.9060   21.3650 O   0  0  0  0  0  0  0  0  0  0  0  0
  -21.5620   -6.1940   22.5350 C   0  0  0  0  0  0  0  0  0  0  0  0
  -21.0630   -6.7720   23.7220 C   0  0  0  0  0  3  0  0  0  0  0  0
  -20.9190   -5.9850   24.8820 C   0  0  0  0  0  3  0  0  0  0  0  0
  -21.2620   -4.6200   24.8550 C   0  0  0  0  0  0  0  0  0  0  0  0
  -21.7510   -4.0410   23.6710 C   0  0  0  0  0  3  0  0  0  0  0  0
  -21.8980   -4.8260   22.5140 C   0  0  0  0  0  0  0  0  0  0  0  0
  -22.3520   -4.2570   21.3710 F   0  0  0  0  0  0  0  0  0  0  0  0
  -21.1150   -3.8620   25.9670 F   0  0  0  0  0  0  0  0  0  0  0  0
  -22.7600  -13.5580   21.3060 C   0  0  0  0  0  0  0  0  0  0  0  0
  -22.1150  -12.8290   22.2100 N   0  0  0  0  0  0  0  0  0  0  0  0
  -22.2810  -14.6030   20.8690 O   0  0  0  0  0  0  0  0  0  0  0  0
  -22.5170  -11.9830   22.5860 H   0  0  0  0  0  0  0  0  0  0  0  0
  -21.2030  -13.1230   22.5320 H   0  0  0  0  0  0  0  0  0  0  0  0
  -25.3250  -15.2500   20.3380 N   0  0  0  0  0  0  0  0  0  0  0  0
  -24.5720  -15.9010   20.5360 H   0  0  0  0  0  0  0  0  0  0  0  0
  -26.1430  -15.6930   19.9390 H   0  0  0  0  0  0  0  0  0  0  0  0
  -28.6010  -25.5690   19.7530 C   0  0  0  0  0  3  0  0  0  0  0  0
  -29.7350  -24.9280   20.1070 C   0  0  0  0  0  0  0  0  0  0  0  0
  -30.7820  -25.6790   20.8520 N   0  0  0  0  0  4  0  0  0  0  0  0
  -30.9760  -26.5500   20.3970 H   0  0  0  0  0  0  0  0  0  0  0  0
  -31.6420  -25.1620   20.8870 H   0  0  0  0  0  0  0  0  0  0  0  0
  -30.4930  -25.8830   21.7910 H   0  0  0  0  0  0  0  0  0  0  0  0
  -28.3940  -26.8830   20.0660 O   0  0  0  0  0  0  0  0  0  0  0  0
  -24.5240  -31.8490   23.2610 C   0  0  0  0  0  0  0  0  0  0  0  0
  -27.1500  -27.4730   20.0990 C   0  0  0  0  0  0  0  0  0  0  0  0
  -23.2850  -30.4500   21.6340 C   0  0  0  0  0  3  0  0  0  0  0  0
  -24.7180  -28.9200   20.1770 C   0  0  0  0  0  0  0  0  0  0  0  0
  -25.8000  -30.8290   21.3840 C   0  0  0  0  0  2  0  0  0  0  0  0
  -25.8770  -29.4610   20.7430 C   0  0  0  0  0  0  0  0  0  0  0  0
  -27.0870  -28.7410   20.7080 C   0  0  0  0  0  3  0  0  0  0  0  0
  -25.9700  -26.9300   19.5310 C   0  0  0  0  0  3  0  0  0  0  0  0
  -24.7580  -27.6500   19.5740 C   0  0  0  0  0  3  0  0  0  0  0  0
  -23.4670  -29.7670   20.2490 C   0  0  0  0  0  2  0  0  0  0  0  0
  -24.5560  -31.0570   22.1530 N   0  0  0  0  0  0  0  0  0  0  0  0
  -23.4550  -32.1130   23.8290 O   0  0  0  0  0  0  0  0  0  0  0  0
  -22.6570  -29.4260   22.6040 C   0  0  0  0  0  0  0  0  0  0  0  0
  -21.3380  -29.2090   22.4740 N   0  0  0  0  0  0  0  0  0  0  0  0
  -23.3530  -28.8200   23.4260 O   0  0  0  0  0  0  0  0  0  0  0  0
  -20.8370  -29.7420   21.7810 H   0  0  0  0  0  0  0  0  0  0  0  0
  -17.9950  -27.9490   22.9780 C   0  0  0  0  0  0  0  0  0  0  0  0
  -20.5460  -28.2620   23.2550 C   0  0  0  0  0  3  0  0  0  0  0  0
  -20.6800  -26.8300   22.6910 C   0  0  0  0  0  2  0  0  0  0  0  0
  -19.5870  -26.4740   21.6760 C   0  0  0  0  0  2  0  0  0  0  0  0
  -18.2000  -26.5970   22.3150 C   0  0  0  0  0  2  0  0  0  0  0  0
  -19.0960  -28.7360   23.4050 C   0  0  0  0  0  0  0  0  0  0  0  0
  -18.8490  -30.0020   23.9830 C   0  0  0  0  0  3  0  0  0  0  0  0
  -17.5340  -30.4770   24.1400 C   0  0  0  0  0  3  0  0  0  0  0  0
  -16.4470  -29.6860   23.7290 C   0  0  0  0  0  3  0  0  0  0  0  0
  -16.6790  -28.4250   23.1540 C   0  0  0  0  0  3  0  0  0  0  0  0
  -25.8200  -32.4790   23.8590 C   0  0  0  0  0  3  0  0  0  0  0  0
  -26.3650  -31.7030   25.1200 C   0  0  1  0  0  0  0  0  0  0  0  0
  -25.2920  -31.4670   26.2080 C   0  0  0  0  0  1  0  0  0  0  0  0
  -26.9360  -30.3260   24.7070 C   0  0  0  0  0  1  0  0  0  0  0  0
  -27.5330  -32.4930   25.7550 C   0  0  0  0  0  1  0  0  0  0  0  0
  -25.5190  -33.8750   24.1970 N   0  0  0  0  0  0  0  0  0  0  0  0
  -25.8090  -34.9230   23.4150 C   0  0  0  0  0  0  0  0  0  0  0  0
  -26.4260  -34.8180   22.3500 O   0  0  0  0  0  0  0  0  0  0  0  0
  -24.9620  -34.0350   25.0240 H   0  0  0  0  0  0  0  0  0  0  0  0
  -24.0390  -36.6900   23.1470 C   0  0  0  0  0  1  0  0  0  0  0  0
  -25.3340  -36.3120   23.8870 C   0  0  0  0  0  3  0  0  0  0  0  0
  -27.5060  -37.2300   24.5780 C   0  0  0  0  0  1  0  0  0  0  0  0
  -26.3450  -37.3760   23.7000 N   0  0  0  0  0  0  0  0  0  0  0  0
  -25.9380  -38.2920   23.8610 H   0  0  0  0  0  0  0  0  0  0  0  0
  1 53  1  0
  1  6  1  0
  3  2  1  0
  4  6  1  0
  4  5  1  0
  5 12  1  0
  5  2  1  0
  6  3  1  0
  7  1  2  0
  8 12  1  0
 10  8  2  0
 10 13  1  0
 11  9  1  0
 12  9  2  0
 13 11  2  0
 14 22  1  0
 15 20  1  0
 16 17  1  0
 16 15  1  0
 18 17  1  0
 18 27  1  0
 18 19  1  0
 20 14  1  0
 20 19  1  0
 21 14  2  0
 22 13  1  0
 22 23  1  0
 24 25  2  0
 25 44  1  0
 26 25  1  0
 26 29  1  0
 27 28  1  0
 27 24  1  0
 28 26  2  0
 29 30  1  0
 30 31  2  0
 32 35  1  0
 32 31  1  0
 33 32  2  0
 34 33  1  0
 34 29  2  0
 35 36  1  0
 36 37  1  0
 37 38  2  0
 39 38  1  0
 39 43  1  0
 40 39  2  0
 41 36  2  0
 41 40  1  0
 42 41  1  0
 44 45  1  0
 45 48  1  0
 45 47  1  0
 46 44  2  0
 49 24  1  0
 49 50  1  0
 51 49  1  0
 52 58  1  0
 52 53  2  0
 53 54  1  0
 54 56  1  0
 54 57  1  0
 55 54  1  0
 58 60  1  0
 59 70  2  0
 60 65  1  0
 61 69  1  0
 61 71  1  0
 62 68  1  0
 62 64  1  0
 63 69  1  0
 64 63  1  0
 65 64  2  0
 66 67  1  0
 66 60  2  0
 67 62  2  0
 68 61  1  0
 69 59  1  0
 71 73  2  0
 72 71  1  0
 74 72  1  0
 75 84  2  0
 75 80  1  0
 76 72  1  0
 76 80  1  0
 77 76  1  0
 78 79  1  0
 78 77  1  0
 79 75  1  0
 80 81  2  0
 81 82  1  0
 83 82  2  0
 84 83  1  0
 85 59  1  0
 85 90  1  0
 85 86  1  0
 86 89  1  1
 86 87  1  0
 88 86  1  0
 90 93  1  0
 91 95  1  0
 91 90  1  0
 92 91  2  0
 95 94  1  0
 97 98  1  0
 97 95  1  0
 97 96  1  0
M  ISO  4  14 100  22 100  52 101  58 101
M  END
>  <TORSDO>  (62) 
F 19

>  <SCORE>  (62) 
-13.201

>  <name>  (62) 
62

>  <ligand_id>  (62) 
62

>  <original_smiles>  (62) 
[H]C(Oc1c([H])c([H])c2c(c1[H])C([H])([H])N(C(=O)C([H])(N([H])C(=O)C([H])(N([H])C([H])([H])[H])C([H])([H])[H])C(C([H])([H])[H])(C([H])([H])[H])C([H])([H])[H])C([H])(C(=O)N([H])C1([H])c3c([H])c([H])c([H])c([H])c3C([H])([H])C([H])([H])C1([H])[H])C2([H])[H])=C(C(=O)N1C([H])([H])C([H])([H])C([H])(c2c([H])c([H])c(N([H])C(=O)N3C([H])([H])C([H])([H])C([H])([H])C([H])(n4nc(-c5c([H])c([H])c(Oc6c([H])c([H])c(F)c([H])c6F)c([H])c5[H])c(C(=O)N([H])[H])c4N([H])[H])C3([H])[H])c([H])c2[H])C1([H])[H])[N+]([H])([H])[H]

>  <smiles>  (62) 
[H]C(Oc1c([H])c([H])c2c(c1[H])C([H])([H])N(C(=O)C([H])(N([H])C(=O)C([H])(N([H])C([H])([H])[H])C([H])([H])[H])C(C([H])([H])[H])(C([H])([H])[H])C([H])([H])[H])C([H])(C(=O)N([H])C1([H])c3c([H])c([H])c([H])c([H])c3C([H])([H])C([H])([H])C1([H])[H])C2([H])[H])=C(C(=O)N1C([H])([H])C([H])([H])C([H])(c2c([H])c([H])c(N([H])C(=O)N3C([H])([H])C([H])([H])C([H])([H])C([H])(n4nc(-c5c([H])c([H])c(Oc6c([H])c([H])c(F)c([H])c6F)c([H])c5[H])c(C(=O)N([H])[H])c4N([H])[H])C3([H])[H])c([H])c2[H])C1([H])[H])[N+]([H])([H])[H]

$$$$
63:0:0
     RDKit          3D

 98107  0  0  1  0  0  0  0  0999 V2000
  -30.1170  -23.4670   19.7890 C   0  0  0  0  0  3  0  0  0  0  0  0
  -28.9590  -24.0810   20.1300 C   0  0  0  0  0  0  0  0  0  0  0  0
  -28.0730  -23.3460   21.0260 C   0  0  0  0  0  0  0  0  0  0  0  0
  -30.5470  -22.1220   20.2040 C   0  0  0  0  0  0  0  0  0  0  0  0
  -26.9490  -23.8970   21.5140 C   0  0  0  0  0  2  0  0  0  0  0  0
  -28.4260  -21.9120   21.4300 C   0  0  0  0  0  2  0  0  0  0  0  0
  -29.6010  -21.3020   20.7650 N   0  0  0  0  0  0  0  0  0  0  0  0
  -31.7110  -21.7550   20.0220 O   0  0  0  0  0  0  0  0  0  0  0  0
  -30.5000  -19.0750   19.9240 C   0  0  0  0  0  3  0  0  0  0  0  0
  -30.6070  -17.6630   20.0150 C   0  0  0  0  0  3  0  0  0  0  0  0
  -29.1240  -19.1060   21.9040 C   0  0  0  0  0  3  0  0  0  0  0  0
  -29.1730  -17.6830   21.9720 C   0  0  0  0  0  0  0  0  0  0  0  0
  -29.7620  -19.8440   20.8690 C   0  0  0  0  0  0  0  0  0  0  0  0
  -29.9460  -16.9440   21.0390 C   0  0  0  0  0  0  0  0  0  0  0  0
  -30.6570  -14.5340   20.5530 C   0  0  0  0  0  0  0  0  0  0  0  0
  -30.4310  -12.3380   19.4320 C   0  0  0  0  0  2  0  0  0  0  0  0
  -29.4990  -12.5180   18.2130 C   0  0  0  0  0  2  0  0  0  0  0  0
  -28.0190  -12.3760   18.6200 C   0  0  0  0  0  2  0  0  0  0  0  0
  -27.6610  -13.2110   19.8800 C   0  0  0  0  0  3  0  0  0  0  0  0
  -28.7030  -12.9970   21.0000 C   0  0  0  0  0  2  0  0  0  0  0  0
  -30.0330  -13.3240   20.4520 N   0  0  0  0  0  0  0  0  0  0  0  0
  -31.7760  -14.7430   20.0720 O   0  0  0  0  0  0  0  0  0  0  0  0
  -29.9270  -15.5050   21.1490 N   0  0  0  0  0  0  0  0  0  0  0  0
  -29.1410  -15.1650   21.6800 H   0  0  0  0  0  0  0  0  0  0  0  0
  -25.2560  -13.8130   20.5670 C   0  0  0  0  0  0  0  0  0  0  0  0
  -24.1840  -13.0420   20.9220 C   0  0  0  0  0  0  0  0  0  0  0  0
  -24.6400  -11.6880   20.8750 C   0  0  0  0  0  0  0  0  0  0  0  0
  -26.3020  -12.9330   20.3400 N   0  0  0  0  0  0  0  0  0  0  0  0
  -25.9340  -11.6480   20.5800 N   0  0  0  0  0  0  0  0  0  0  0  0
  -23.9060  -10.4270   21.0400 C   0  0  0  0  0  0  0  0  0  0  0  0
  -24.3610   -9.4180   21.9190 C   0  0  0  0  0  3  0  0  0  0  0  0
  -23.6290   -8.2220   22.0770 C   0  0  0  0  0  3  0  0  0  0  0  0
  -22.4280   -8.0240   21.3540 C   0  0  0  0  0  0  0  0  0  0  0  0
  -21.9890   -9.0220   20.4650 C   0  0  0  0  0  3  0  0  0  0  0  0
  -22.7210  -10.2110   20.3070 C   0  0  0  0  0  3  0  0  0  0  0  0
  -21.6640   -6.8830   21.4240 O   0  0  0  0  0  0  0  0  0  0  0  0
  -21.6850   -6.0690   22.5280 C   0  0  0  0  0  0  0  0  0  0  0  0
  -21.3980   -6.5610   23.8200 C   0  0  0  0  0  3  0  0  0  0  0  0
  -21.3680   -5.6790   24.9180 C   0  0  0  0  0  3  0  0  0  0  0  0
  -21.6060   -4.3050   24.7240 C   0  0  0  0  0  0  0  0  0  0  0  0
  -21.8810   -3.8120   23.4370 C   0  0  0  0  0  3  0  0  0  0  0  0
  -21.9200   -4.6920   22.3420 C   0  0  0  0  0  0  0  0  0  0  0  0
  -22.1700   -4.2100   21.1010 F   0  0  0  0  0  0  0  0  0  0  0  0
  -21.5660   -3.4550   25.7770 F   0  0  0  0  0  0  0  0  0  0  0  0
  -22.7850  -13.5190   21.1860 C   0  0  0  0  0  0  0  0  0  0  0  0
  -22.0490  -12.8180   22.0400 N   0  0  0  0  0  0  0  0  0  0  0  0
  -22.3520  -14.5480   20.6700 O   0  0  0  0  0  0  0  0  0  0  0  0
  -22.4090  -11.9860   22.4840 H   0  0  0  0  0  0  0  0  0  0  0  0
  -21.1100  -13.1190   22.2540 H   0  0  0  0  0  0  0  0  0  0  0  0
  -25.4210  -15.1850   20.3950 N   0  0  0  0  0  0  0  0  0  0  0  0
  -24.6390  -15.8240   20.4650 H   0  0  0  0  0  0  0  0  0  0  0  0
  -26.2540  -15.6140   20.0160 H   0  0  0  0  0  0  0  0  0  0  0  0
  -27.2340  -17.0440   23.1400 C   0  0  0  0  0  0  0  0  0  0  0  0
  -26.5660  -16.1990   24.2040 C   0  0  0  0  0  1  0  0  0  0  0  0
  -26.2760  -17.9220   22.3480 C   0  0  0  0  0  1  0  0  0  0  0  0
  -28.4970  -16.9680   22.9740 N   0  0  0  0  0  0  0  0  0  0  0  0
  -28.5510  -25.3850   19.3830 C   0  0  0  0  0  2  0  0  0  0  0  0
  -28.3930  -26.6030   20.1670 O   0  0  0  0  0  0  0  0  0  0  0  0
  -24.6200  -31.8640   23.2080 C   0  0  0  0  0  0  0  0  0  0  0  0
  -27.2300  -27.3730   20.1010 C   0  0  0  0  0  0  0  0  0  0  0  0
  -23.4110  -30.4910   21.5480 C   0  0  0  0  0  3  0  0  0  0  0  0
  -24.8560  -28.9560   20.1130 C   0  0  0  0  0  0  0  0  0  0  0  0
  -25.9480  -30.8120   21.3720 C   0  0  0  0  0  2  0  0  0  0  0  0
  -26.0210  -29.4440   20.7150 C   0  0  0  0  0  0  0  0  0  0  0  0
  -27.2060  -28.6620   20.7040 C   0  0  0  0  0  3  0  0  0  0  0  0
  -26.0300  -26.9170   19.5000 C   0  0  0  0  0  3  0  0  0  0  0  0
  -24.8580  -27.6940   19.5040 C   0  0  0  0  0  3  0  0  0  0  0  0
  -23.6230  -29.8300   20.1620 C   0  0  0  0  0  2  0  0  0  0  0  0
  -24.6780  -31.0710   22.1000 N   0  0  0  0  0  0  0  0  0  0  0  0
  -23.5380  -32.1420   23.7430 O   0  0  0  0  0  0  0  0  0  0  0  0
  -22.7450  -29.4640   22.4950 C   0  0  0  0  0  0  0  0  0  0  0  0
  -21.4170  -29.3030   22.3690 N   0  0  0  0  0  0  0  0  0  0  0  0
  -23.4200  -28.8180   23.3020 O   0  0  0  0  0  0  0  0  0  0  0  0
  -20.9330  -29.8800   21.6950 H   0  0  0  0  0  0  0  0  0  0  0  0
  -18.0280  -28.1360   22.8480 C   0  0  0  0  0  0  0  0  0  0  0  0
  -20.5880  -28.3660   23.1280 C   0  0  0  0  0  3  0  0  0  0  0  0
  -20.6770  -26.9390   22.5400 C   0  0  0  0  0  2  0  0  0  0  0  0
  -19.5750  -26.6370   21.5200 C   0  0  0  0  0  2  0  0  0  0  0  0
  -18.1930  -26.7900   22.1620 C   0  0  0  0  0  2  0  0  0  0  0  0
  -19.1530  -28.8840   23.2870 C   0  0  0  0  0  0  0  0  0  0  0  0
  -18.9460  -30.1440   23.8890 C   0  0  0  0  0  3  0  0  0  0  0  0
  -17.6460  -30.6570   24.0560 C   0  0  0  0  0  3  0  0  0  0  0  0
  -16.5350  -29.9070   23.6320 C   0  0  0  0  0  3  0  0  0  0  0  0
  -16.7270  -28.6490   23.0350 C   0  0  0  0  0  3  0  0  0  0  0  0
  -25.9070  -32.4800   23.8390 C   0  0  0  0  0  3  0  0  0  0  0  0
  -26.4480  -31.6590   25.0730 C   0  0  1  0  0  0  0  0  0  0  0  0
  -25.3740  -31.3770   26.1490 C   0  0  0  0  0  1  0  0  0  0  0  0
  -27.0290  -30.3000   24.6160 C   0  0  0  0  0  1  0  0  0  0  0  0
  -27.6050  -32.4310   25.7490 C   0  0  0  0  0  1  0  0  0  0  0  0
  -25.5920  -33.8600   24.2300 N   0  0  0  0  0  0  0  0  0  0  0  0
  -25.9050  -34.9470   23.5110 C   0  0  0  0  0  0  0  0  0  0  0  0
  -26.5600  -34.8920   22.4670 O   0  0  0  0  0  0  0  0  0  0  0  0
  -25.0100  -33.9750   25.0470 H   0  0  0  0  0  0  0  0  0  0  0  0
  -24.1480  -36.7310   23.2630 C   0  0  0  0  0  1  0  0  0  0  0  0
  -25.4110  -36.3100   24.0320 C   0  0  0  0  0  3  0  0  0  0  0  0
  -27.5590  -37.1800   24.8450 C   0  0  0  0  0  1  0  0  0  0  0  0
  -26.4290  -37.3790   23.9420 N   0  0  0  0  0  0  0  0  0  0  0  0
  -26.0170  -38.2860   24.1450 H   0  0  0  0  0  0  0  0  0  0  0  0
  1  2  2  0
  1  4  1  0
  2  3  1  0
  3  6  1  0
  3  5  2  0
  4  7  1  0
  7 13  1  0
  7  6  1  0
  8  4  2  0
  9 10  2  0
  9 13  1  0
 10 14  1  0
 11 12  1  0
 12 56  1  0
 13 11  2  0
 14 23  1  0
 14 12  2  0
 15 23  1  0
 16 21  1  0
 17 18  1  0
 17 16  1  0
 19 18  1  0
 19 28  1  0
 19 20  1  0
 21 15  1  0
 21 20  1  0
 22 15  2  0
 23 24  1  0
 25 26  2  0
 26 45  1  0
 27 26  1  0
 27 30  1  0
 28 25  1  0
 28 29  1  0
 29 27  2  0
 30 31  1  0
 31 32  2  0
 33 36  1  0
 33 32  1  0
 34 33  2  0
 35 34  1  0
 35 30  2  0
 36 37  1  0
 37 38  1  0
 38 39  2  0
 40 39  1  0
 40 44  1  0
 41 40  2  0
 42 37  2  0
 42 41  1  0
 43 42  1  0
 45 46  1  0
 46 49  1  0
 46 48  1  0
 47 45  2  0
 50 51  1  0
 50 25  1  0
 52 50  1  0
 53 54  1  0
 55 53  1  0
 56 53  2  0
 57  2  1  0
 57 58  1  0
 59 70  2  0
 60 58  1  0
 60 65  1  0
 61 69  1  0
 61 71  1  0
 62 68  1  0
 62 64  1  0
 63 69  1  0
 64 63  1  0
 65 64  2  0
 66 67  1  0
 66 60  2  0
 67 62  2  0
 68 61  1  0
 69 59  1  0
 71 73  2  0
 72 71  1  0
 74 72  1  0
 75 84  2  0
 75 80  1  0
 76 72  1  0
 76 80  1  0
 77 76  1  0
 78 79  1  0
 78 77  1  0
 79 75  1  0
 80 81  2  0
 81 82  1  0
 83 82  2  0
 84 83  1  0
 85 59  1  0
 85 90  1  0
 85 86  1  0
 86 89  1  1
 86 87  1  0
 88 86  1  0
 90 93  1  0
 91 95  1  0
 91 90  1  0
 92 91  2  0
 95 94  1  0
 97 95  1  0
 97 98  1  0
 97 96  1  0
M  ISO  4  15 100  23 100  57 101  58 101
M  END
>  <TORSDO>  (63) 
F 19

>  <SCORE>  (63) 
19.392

>  <name>  (63) 
63

>  <ligand_id>  (63) 
63

>  <original_smiles>  (63) 
[H]C([H])=C1C(C([H])([H])Oc2c([H])c([H])c3c(c2[H])C([H])([H])N(C(=O)C([H])(N([H])C(=O)C([H])(N([H])C([H])([H])[H])C([H])([H])[H])C(C([H])([H])[H])(C([H])([H])[H])C([H])([H])[H])C([H])(C(=O)N([H])C2([H])c4c([H])c([H])c([H])c([H])c4C([H])([H])C([H])([H])C2([H])[H])C3([H])[H])=C([H])C(=O)N(c2c([H])c([H])c(N([H])C(=O)N3C([H])([H])C([H])([H])C([H])([H])C([H])(n4nc(-c5c([H])c([H])c(Oc6c([H])c([H])c(F)c([H])c6F)c([H])c5[H])c(C(=O)N([H])[H])c4N([H])[H])C3([H])[H])c(N=C(C([H])([H])[H])C([H])([H])[H])c2[H])C1([H])[H]

>  <smiles>  (63) 
[H]C([H])=C1C(C([H])([H])Oc2c([H])c([H])c3c(c2[H])C([H])([H])N(C(=O)C([H])(N([H])C(=O)C([H])(N([H])C([H])([H])[H])C([H])([H])[H])C(C([H])([H])[H])(C([H])([H])[H])C([H])([H])[H])C([H])(C(=O)N([H])C2([H])c4c([H])c([H])c([H])c([H])c4C([H])([H])C([H])([H])C2([H])[H])C3([H])[H])=C([H])C(=O)N(c2c([H])c([H])c(N([H])C(=O)N3C([H])([H])C([H])([H])C([H])([H])C([H])(n4nc(-c5c([H])c([H])c(Oc6c([H])c([H])c(F)c([H])c6F)c([H])c5[H])c(C(=O)N([H])[H])c4N([H])[H])C3([H])[H])c(N=C(C([H])([H])[H])C([H])([H])[H])c2[H])C1([H])[H]

$$$$
64:0:0
     RDKit          3D

 97106  0  0  1  0  0  0  0  0999 V2000
  -29.3930  -20.3800   20.7420 C   0  0  0  0  0  3  0  0  0  0  0  0
  -29.4150  -18.9750   20.5820 C   0  0  0  0  0  3  0  0  0  0  0  0
  -31.5810  -20.5400   19.7160 C   0  0  0  0  0  3  0  0  0  0  0  0
  -31.6200  -19.1360   19.5460 C   0  0  0  0  0  0  0  0  0  0  0  0
  -30.4720  -21.1890   20.3130 C   0  0  0  0  0  0  0  0  0  0  0  0
  -30.5350  -18.3350   20.0030 C   0  0  0  0  0  0  0  0  0  0  0  0
  -32.8160  -18.5330   18.8160 C   0  0  0  0  0  1  0  0  0  0  0  0
  -30.1150  -15.8640   20.5340 C   0  0  0  0  0  0  0  0  0  0  0  0
  -29.2400  -15.9960   21.5660 N   0  0  0  0  0  4  0  0  0  0  0  0
  -30.5860  -16.8920   19.7840 N   0  0  0  0  0  0  0  0  0  0  0  0
  -28.9430  -16.9050   21.8900 H   0  0  0  0  0  0  0  0  0  0  0  0
  -29.0140  -15.1850   22.1300 H   0  0  0  0  0  0  0  0  0  0  0  0
  -31.2890  -16.5130   19.1650 H   0  0  0  0  0  0  0  0  0  0  0  0
  -30.7220  -14.5230   20.0560 C   0  0  0  0  0  0  0  0  0  0  0  0
  -30.2830  -12.3970   18.9300 C   0  0  0  0  0  2  0  0  0  0  0  0
  -29.2860  -12.6680   17.7810 C   0  0  0  0  0  2  0  0  0  0  0  0
  -27.8330  -12.5550   18.2840 C   0  0  0  0  0  2  0  0  0  0  0  0
  -27.5850  -13.3320   19.6060 C   0  0  0  0  0  3  0  0  0  0  0  0
  -28.7070  -13.0680   20.6340 C   0  0  0  0  0  2  0  0  0  0  0  0
  -30.0000  -13.3670   20.0030 N   0  0  0  0  0  0  0  0  0  0  0  0
  -31.8290  -14.6440   19.5250 O   0  0  0  0  0  0  0  0  0  0  0  0
  -25.2310  -13.9020   20.4740 C   0  0  0  0  0  0  0  0  0  0  0  0
  -24.1840  -13.1150   20.8740 C   0  0  0  0  0  0  0  0  0  0  0  0
  -24.6480  -11.7670   20.7820 C   0  0  0  0  0  0  0  0  0  0  0  0
  -26.2630  -13.0340   20.1580 N   0  0  0  0  0  0  0  0  0  0  0  0
  -25.9200  -11.7420   20.4020 N   0  0  0  0  0  0  0  0  0  0  0  0
  -23.9400  -10.4960   20.9810 C   0  0  0  0  0  0  0  0  0  0  0  0
  -24.4030   -9.5250   21.8950 C   0  0  0  0  0  3  0  0  0  0  0  0
  -23.6900   -8.3220   22.0840 C   0  0  0  0  0  3  0  0  0  0  0  0
  -22.4990   -8.0820   21.3580 C   0  0  0  0  0  0  0  0  0  0  0  0
  -22.0550   -9.0420   20.4330 C   0  0  0  0  0  3  0  0  0  0  0  0
  -22.7680  -10.2370   20.2410 C   0  0  0  0  0  3  0  0  0  0  0  0
  -21.7560   -6.9300   21.4570 O   0  0  0  0  0  0  0  0  0  0  0  0
  -21.7100   -6.1990   22.6170 C   0  0  0  0  0  0  0  0  0  0  0  0
  -21.2590   -6.7570   23.8340 C   0  0  0  0  0  3  0  0  0  0  0  0
  -21.1650   -5.9530   24.9850 C   0  0  0  0  0  3  0  0  0  0  0  0
  -21.5090   -4.5880   24.9240 C   0  0  0  0  0  0  0  0  0  0  0  0
  -21.9550   -4.0310   23.7130 C   0  0  0  0  0  3  0  0  0  0  0  0
  -22.0530   -4.8330   22.5630 C   0  0  0  0  0  0  0  0  0  0  0  0
  -22.4620   -4.2860   21.3940 F   0  0  0  0  0  0  0  0  0  0  0  0
  -21.4130   -3.8120   26.0280 F   0  0  0  0  0  0  0  0  0  0  0  0
  -22.8040  -13.5780   21.2380 C   0  0  0  0  0  0  0  0  0  0  0  0
  -22.1290  -12.8540   22.1240 N   0  0  0  0  0  0  0  0  0  0  0  0
  -22.3330  -14.6140   20.7710 O   0  0  0  0  0  0  0  0  0  0  0  0
  -22.5210  -12.0120   22.5220 H   0  0  0  0  0  0  0  0  0  0  0  0
  -21.2030  -13.1400   22.4090 H   0  0  0  0  0  0  0  0  0  0  0  0
  -25.3890  -15.2780   20.3430 N   0  0  0  0  0  0  0  0  0  0  0  0
  -24.6640  -15.9330   20.6090 H   0  0  0  0  0  0  0  0  0  0  0  0
  -26.2850  -15.7220   20.1690 H   0  0  0  0  0  0  0  0  0  0  0  0
  -29.4140  -23.4240   20.9190 C   0  0  0  0  0  3  0  0  0  0  0  0
  -29.6960  -24.7350   20.8270 C   0  0  0  0  0  0  0  0  0  0  0  0
  -31.0170  -24.8340   20.2570 C   0  0  0  0  0  0  0  0  0  0  0  0
  -31.6860  -25.9750   20.0140 C   0  0  0  0  0  1  0  0  0  0  0  0
  -31.5400  -23.4400   19.9840 C   0  0  0  0  0  3  0  0  0  0  0  0
  -30.4370  -22.5990   20.4560 N   0  0  0  0  0  0  0  0  0  0  0  0
  -28.7870  -25.8860   21.2620 C   0  0  0  0  0  2  0  0  0  0  0  0
  -28.5810  -26.8220   20.2040 O   0  0  0  0  0  0  0  0  0  0  0  0
  -24.6290  -31.9270   23.2650 C   0  0  0  0  0  0  0  0  0  0  0  0
  -27.4010  -27.5210   20.2630 C   0  0  0  0  0  0  0  0  0  0  0  0
  -23.4740  -30.4990   21.6070 C   0  0  0  0  0  3  0  0  0  0  0  0
  -24.9770  -28.9680   20.2280 C   0  0  0  0  0  0  0  0  0  0  0  0
  -25.9940  -30.8940   21.4560 C   0  0  0  0  0  2  0  0  0  0  0  0
  -26.1130  -29.5170   20.8370 C   0  0  0  0  0  0  0  0  0  0  0  0
  -27.3300  -28.7990   20.8560 C   0  0  0  0  0  3  0  0  0  0  0  0
  -26.2520  -26.9740   19.6590 C   0  0  0  0  0  3  0  0  0  0  0  0
  -25.0390  -27.6900   19.6430 C   0  0  0  0  0  3  0  0  0  0  0  0
  -23.7190  -29.8090   20.2390 C   0  0  0  0  0  2  0  0  0  0  0  0
  -24.7150  -31.1200   22.1690 N   0  0  0  0  0  0  0  0  0  0  0  0
  -23.5340  -32.1870   23.7820 O   0  0  0  0  0  0  0  0  0  0  0  0
  -22.8160  -29.4770   22.5610 C   0  0  0  0  0  0  0  0  0  0  0  0
  -21.4950  -29.2830   22.4120 N   0  0  0  0  0  0  0  0  0  0  0  0
  -23.4900  -28.8590   23.3890 O   0  0  0  0  0  0  0  0  0  0  0  0
  -21.0120  -29.8350   21.7150 H   0  0  0  0  0  0  0  0  0  0  0  0
  -18.1190  -28.0820   22.8720 C   0  0  0  0  0  0  0  0  0  0  0  0
  -20.6730  -28.3390   23.1680 C   0  0  0  0  0  3  0  0  0  0  0  0
  -20.7830  -26.9120   22.5830 C   0  0  0  0  0  2  0  0  0  0  0  0
  -19.6900  -26.5950   21.5580 C   0  0  0  0  0  2  0  0  0  0  0  0
  -18.3030  -26.7370   22.1890 C   0  0  0  0  0  2  0  0  0  0  0  0
  -19.2340  -28.8420   23.3160 C   0  0  0  0  0  0  0  0  0  0  0  0
  -19.0100  -30.1030   23.9120 C   0  0  0  0  0  3  0  0  0  0  0  0
  -17.7040  -30.6040   24.0670 C   0  0  0  0  0  3  0  0  0  0  0  0
  -16.6040  -29.8410   23.6410 C   0  0  0  0  0  3  0  0  0  0  0  0
  -16.8120  -28.5820   23.0510 C   0  0  0  0  0  3  0  0  0  0  0  0
  -25.8950  -32.5750   23.9080 C   0  0  0  0  0  3  0  0  0  0  0  0
  -26.3910  -31.8220   25.2030 C   0  0  1  0  0  0  0  0  0  0  0  0
  -25.2770  -31.5820   26.2490 C   0  0  0  0  0  1  0  0  0  0  0  0
  -26.9990  -30.4480   24.8360 C   0  0  0  0  0  1  0  0  0  0  0  0
  -27.5170  -32.6360   25.8840 C   0  0  0  0  0  1  0  0  0  0  0  0
  -25.5700  -33.9740   24.2100 N   0  0  0  0  0  0  0  0  0  0  0  0
  -25.9160  -35.0180   23.4440 C   0  0  0  0  0  0  0  0  0  0  0  0
  -26.6120  -34.9040   22.4320 O   0  0  0  0  0  0  0  0  0  0  0  0
  -24.9590  -34.1380   24.9960 H   0  0  0  0  0  0  0  0  0  0  0  0
  -24.1880  -36.7930   23.0080 C   0  0  0  0  0  1  0  0  0  0  0  0
  -25.4040  -36.4090   23.8650 C   0  0  0  0  0  3  0  0  0  0  0  0
  -27.5050  -37.3190   24.7550 C   0  0  0  0  0  1  0  0  0  0  0  0
  -26.4350  -37.4660   23.7720 N   0  0  0  0  0  0  0  0  0  0  0  0
  -26.0190  -38.3870   23.8930 H   0  0  0  0  0  0  0  0  0  0  0  0
  2  1  1  0
  3  5  1  0
  4  3  2  0
  4  6  1  0
  5 55  1  0
  5  1  2  0
  6  2  2  0
  7  4  1  0
  8  9  2  0
  9 11  1  0
  9 12  1  0
 10  6  1  0
 10  8  1  0
 13 10  1  0
 14  8  1  0
 15 20  1  0
 16 17  1  0
 16 15  1  0
 18 17  1  0
 18 25  1  0
 18 19  1  0
 20 14  1  0
 20 19  1  0
 21 14  2  0
 22 23  2  0
 23 42  1  0
 24 23  1  0
 24 27  1  0
 25 26  1  0
 25 22  1  0
 26 24  2  0
 27 28  1  0
 28 29  2  0
 30 33  1  0
 30 29  1  0
 31 30  2  0
 32 31  1  0
 32 27  2  0
 33 34  1  0
 34 35  1  0
 35 36  2  0
 37 36  1  0
 37 41  1  0
 38 37  2  0
 39 34  2  0
 39 38  1  0
 40 39  1  0
 42 43  1  0
 43 46  1  0
 43 45  1  0
 44 42  2  0
 47 22  1  0
 47 48  1  0
 49 47  1  0
 51 50  2  0
 51 56  1  0
 52 51  1  0
 53 52  1  0
 54 52  2  0
 54 55  1  0
 55 50  1  0
 57 59  1  0
 57 56  1  0
 58 69  2  0
 59 64  1  0
 60 68  1  0
 60 70  1  0
 61 67  1  0
 61 63  1  0
 62 68  1  0
 63 64  2  0
 63 62  1  0
 65 59  2  0
 66 65  1  0
 66 61  2  0
 67 60  1  0
 68 58  1  0
 70 72  2  0
 71 70  1  0
 73 71  1  0
 74 83  2  0
 74 79  1  0
 75 71  1  0
 75 79  1  0
 76 75  1  0
 77 78  1  0
 77 76  1  0
 78 74  1  0
 79 80  2  0
 80 81  1  0
 82 81  2  0
 83 82  1  0
 84 58  1  0
 84 89  1  0
 84 85  1  0
 85 88  1  1
 85 86  1  0
 87 85  1  0
 89 92  1  0
 90 94  1  0
 90 89  1  0
 91 90  2  0
 94 93  1  0
 96 94  1  0
 96 97  1  0
 96 95  1  0
M  ISO  4   8 100  14 100  56 101  57 101
M  END
>  <TORSDO>  (64) 
F 19

>  <SCORE>  (64) 
-14.241

>  <name>  (64) 
64

>  <ligand_id>  (64) 
64

>  <original_smiles>  (64) 
[H]C([H])=C1C(C([H])([H])Oc2c([H])c([H])c3c(c2[H])C([H])([H])N(C(=O)C([H])(N([H])C(=O)C([H])(N([H])C([H])([H])[H])C([H])([H])[H])C(C([H])([H])[H])(C([H])([H])[H])C([H])([H])[H])C([H])(C(=O)N([H])C2([H])c4c([H])c([H])c([H])c([H])c4C([H])([H])C([H])([H])C2([H])[H])C3([H])[H])=C([H])N(c2c([H])c([H])c([N+]([H])=C(C(=O)N3C([H])([H])C([H])([H])C([H])([H])C([H])(n4nc(-c5c([H])c([H])c(Oc6c([H])c([H])c(F)c([H])c6F)c([H])c5[H])c(C(=O)N([H])[H])c4N([H])[H])C3([H])[H])N([H])[H])c(C([H])([H])[H])c2[H])C1([H])[H]

>  <smiles>  (64) 
[H]C([H])=C1C(C([H])([H])Oc2c([H])c([H])c3c(c2[H])C([H])([H])N(C(=O)C([H])(N([H])C(=O)C([H])(N([H])C([H])([H])[H])C([H])([H])[H])C(C([H])([H])[H])(C([H])([H])[H])C([H])([H])[H])C([H])(C(=O)N([H])C2([H])c4c([H])c([H])c([H])c([H])c4C([H])([H])C([H])([H])C2([H])[H])C3([H])[H])=C([H])N(c2c([H])c([H])c([N+]([H])=C(C(=O)N3C([H])([H])C([H])([H])C([H])([H])C([H])(n4nc(-c5c([H])c([H])c(Oc6c([H])c([H])c(F)c([H])c6F)c([H])c5[H])c(C(=O)N([H])[H])c4N([H])[H])C3([H])[H])N([H])[H])c(C([H])([H])[H])c2[H])C1([H])[H]

$$$$
65:0:0
     RDKit          3D

 94103  0  0  1  0  0  0  0  0999 V2000
  -28.7770  -22.3790   20.0450 C   0  0  0  0  0  3  0  0  0  0  0  0
  -28.8500  -23.6750   20.5520 C   0  0  0  0  0  0  0  0  0  0  0  0
  -29.6750  -23.8050   21.7630 C   0  0  0  0  0  0  0  0  0  0  0  0
  -29.7710  -24.9490   22.4650 C   0  0  0  0  0  2  0  0  0  0  0  0
  -30.4770  -22.5970   22.2520 C   0  0  0  0  0  2  0  0  0  0  0  0
  -29.7720  -21.2490   21.9890 C   0  0  0  0  0  2  0  0  0  0  0  0
  -29.3240  -21.1570   20.6010 N   0  0  0  0  0  0  0  0  0  0  0  0
  -30.7650  -18.6870   18.0980 C   0  0  0  0  0  3  0  0  0  0  0  0
  -30.6320  -17.4380   18.7310 C   0  0  0  0  0  3  0  0  0  0  0  0
  -29.5690  -18.5680   20.5940 C   0  0  0  0  0  3  0  0  0  0  0  0
  -30.3270  -19.8930   18.6910 C   0  0  0  0  0  0  0  0  0  0  0  0
  -29.6990  -19.8910   19.9700 C   0  0  0  0  0  0  0  0  0  0  0  0
  -30.0390  -17.3150   20.0060 C   0  0  0  0  0  0  0  0  0  0  0  0
  -30.6110  -21.1780   17.9250 C   0  0  0  0  0  1  0  0  0  0  0  0
  -30.6160  -14.7900   20.3440 C   0  0  0  0  0  0  0  0  0  0  0  0
  -30.4090  -12.5030   19.3750 C   0  0  0  0  0  2  0  0  0  0  0  0
  -29.4900  -12.5810   18.1360 C   0  0  0  0  0  2  0  0  0  0  0  0
  -28.0120  -12.4260   18.5430 C   0  0  0  0  0  2  0  0  0  0  0  0
  -27.6280  -13.3120   19.7580 C   0  0  0  0  0  3  0  0  0  0  0  0
  -28.6760  -13.2290   20.8920 C   0  0  0  0  0  2  0  0  0  0  0  0
  -29.9820  -13.5660   20.3150 N   0  0  0  0  0  0  0  0  0  0  0  0
  -31.8050  -14.8610   20.0190 O   0  0  0  0  0  0  0  0  0  0  0  0
  -29.8730  -15.9460   20.5780 N   0  0  0  0  0  0  0  0  0  0  0  0
  -28.9930  -15.7840   21.0440 H   0  0  0  0  0  0  0  0  0  0  0  0
  -25.2300  -13.9020   20.4510 C   0  0  0  0  0  0  0  0  0  0  0  0
  -24.1600  -13.1290   20.8170 C   0  0  0  0  0  0  0  0  0  0  0  0
  -24.6280  -11.7790   20.8090 C   0  0  0  0  0  0  0  0  0  0  0  0
  -26.2790  -13.0230   20.2370 N   0  0  0  0  0  0  0  0  0  0  0  0
  -25.9230  -11.7420   20.5160 N   0  0  0  0  0  0  0  0  0  0  0  0
  -23.9010  -10.5180   21.0040 C   0  0  0  0  0  0  0  0  0  0  0  0
  -24.3240   -9.5590   21.9510 C   0  0  0  0  0  3  0  0  0  0  0  0
  -23.5980   -8.3630   22.1330 C   0  0  0  0  0  3  0  0  0  0  0  0
  -22.4320   -8.1170   21.3700 C   0  0  0  0  0  0  0  0  0  0  0  0
  -22.0260   -9.0630   20.4130 C   0  0  0  0  0  3  0  0  0  0  0  0
  -22.7540  -10.2510   20.2280 C   0  0  0  0  0  3  0  0  0  0  0  0
  -21.6760   -6.9720   21.4620 O   0  0  0  0  0  0  0  0  0  0  0  0
  -21.6190   -6.2380   22.6210 C   0  0  0  0  0  0  0  0  0  0  0  0
  -21.1880   -6.8030   23.8420 C   0  0  0  0  0  3  0  0  0  0  0  0
  -21.0810   -5.9950   24.9920 C   0  0  0  0  0  3  0  0  0  0  0  0
  -21.3910   -4.6240   24.9220 C   0  0  0  0  0  0  0  0  0  0  0  0
  -21.8140   -4.0580   23.7060 C   0  0  0  0  0  3  0  0  0  0  0  0
  -21.9250   -4.8640   22.5580 C   0  0  0  0  0  0  0  0  0  0  0  0
  -22.3130   -4.3090   21.3840 F   0  0  0  0  0  0  0  0  0  0  0  0
  -21.2800   -3.8460   26.0230 F   0  0  0  0  0  0  0  0  0  0  0  0
  -22.7590  -13.6060   21.0610 C   0  0  0  0  0  0  0  0  0  0  0  0
  -22.0160  -12.9210   21.9240 N   0  0  0  0  0  0  0  0  0  0  0  0
  -22.3280  -14.6240   20.5210 O   0  0  0  0  0  0  0  0  0  0  0  0
  -22.3770  -12.0980   22.3860 H   0  0  0  0  0  0  0  0  0  0  0  0
  -21.0740  -13.2220   22.1270 H   0  0  0  0  0  0  0  0  0  0  0  0
  -25.3950  -15.2700   20.2550 N   0  0  0  0  0  0  0  0  0  0  0  0
  -24.6260  -15.9260   20.3440 H   0  0  0  0  0  0  0  0  0  0  0  0
  -26.2420  -15.7000   19.9090 H   0  0  0  0  0  0  0  0  0  0  0  0
  -28.0220  -24.8920   19.9060 C   0  0  0  0  0  2  0  0  0  0  0  0
  -28.2590  -26.3580   20.2010 O   0  0  0  0  0  0  0  0  0  0  0  0
  -24.5930  -31.8710   23.2290 C   0  0  0  0  0  0  0  0  0  0  0  0
  -27.1720  -27.2720   20.1340 C   0  0  0  0  0  0  0  0  0  0  0  0
  -23.3790  -30.4800   21.5910 C   0  0  0  0  0  3  0  0  0  0  0  0
  -24.8200  -28.9340   20.1450 C   0  0  0  0  0  0  0  0  0  0  0  0
  -25.9230  -30.7800   21.4000 C   0  0  0  0  0  2  0  0  0  0  0  0
  -25.9960  -29.4020   20.7440 C   0  0  0  0  0  0  0  0  0  0  0  0
  -27.1730  -28.5820   20.7330 C   0  0  0  0  0  3  0  0  0  0  0  0
  -25.9740  -26.8930   19.4830 C   0  0  0  0  0  3  0  0  0  0  0  0
  -24.8150  -27.6880   19.5040 C   0  0  0  0  0  3  0  0  0  0  0  0
  -23.5840  -29.8130   20.2070 C   0  0  0  0  0  2  0  0  0  0  0  0
  -24.6510  -31.0630   22.1280 N   0  0  0  0  0  0  0  0  0  0  0  0
  -23.5120  -32.1480   23.7700 O   0  0  0  0  0  0  0  0  0  0  0  0
  -22.7190  -29.4620   22.5520 C   0  0  0  0  0  0  0  0  0  0  0  0
  -21.3910  -29.2920   22.4360 N   0  0  0  0  0  0  0  0  0  0  0  0
  -23.4010  -28.8280   23.3610 O   0  0  0  0  0  0  0  0  0  0  0  0
  -20.9000  -29.8540   21.7550 H   0  0  0  0  0  0  0  0  0  0  0  0
  -18.0140  -28.0910   22.9490 C   0  0  0  0  0  0  0  0  0  0  0  0
  -20.5740  -28.3520   23.2090 C   0  0  0  0  0  3  0  0  0  0  0  0
  -20.6740  -26.9230   22.6320 C   0  0  0  0  0  2  0  0  0  0  0  0
  -19.5700  -26.5990   21.6220 C   0  0  0  0  0  2  0  0  0  0  0  0
  -18.1890  -26.7420   22.2710 C   0  0  0  0  0  2  0  0  0  0  0  0
  -19.1350  -28.8530   23.3760 C   0  0  0  0  0  0  0  0  0  0  0  0
  -18.9170  -30.1150   23.9700 C   0  0  0  0  0  3  0  0  0  0  0  0
  -17.6120  -30.6140   24.1430 C   0  0  0  0  0  3  0  0  0  0  0  0
  -16.5070  -29.8480   23.7350 C   0  0  0  0  0  3  0  0  0  0  0  0
  -16.7090  -28.5870   23.1440 C   0  0  0  0  0  3  0  0  0  0  0  0
  -25.8790  -32.5010   23.8470 C   0  0  0  0  0  3  0  0  0  0  0  0
  -25.5720  -33.9010   24.1790 N   0  0  0  0  0  0  0  0  0  0  0  0
  -25.9020  -34.9550   23.4200 C   0  0  0  0  0  0  0  0  0  0  0  0
  -26.5670  -34.8510   22.3860 O   0  0  0  0  0  0  0  0  0  0  0  0
  -24.9840  -34.0550   24.9850 H   0  0  0  0  0  0  0  0  0  0  0  0
  -24.1790  -36.7550   23.0740 C   0  0  0  0  0  1  0  0  0  0  0  0
  -25.4190  -36.3430   23.8840 C   0  0  0  0  0  3  0  0  0  0  0  0
  -27.5570  -37.2190   24.7160 C   0  0  0  0  0  1  0  0  0  0  0  0
  -26.4550  -37.3940   23.7740 N   0  0  0  0  0  0  0  0  0  0  0  0
  -26.0520  -38.3160   23.9220 H   0  0  0  0  0  0  0  0  0  0  0  0
  -26.3980  -31.7300   25.1230 C   0  0  1  0  0  0  0  0  0  0  0  0
  -25.3070  -31.4940   26.1950 C   0  0  0  0  0  1  0  0  0  0  0  0
  -26.9760  -30.3500   24.7330 C   0  0  0  0  0  1  0  0  0  0  0  0
  -27.5530  -32.5220   25.7780 C   0  0  0  0  0  1  0  0  0  0  0  0
  1  2  2  0
  1  7  1  0
  2  3  1  0
  3  5  1  0
  3  4  2  0
  6  5  1  0
  7  6  1  0
  8 11  2  0
  8  9  1  0
  9 13  2  0
 11 12  1  0
 12 10  2  0
 12  7  1  0
 13 23  1  0
 13 10  1  0
 14 11  1  0
 15 23  1  0
 16 21  1  0
 17 18  1  0
 17 16  1  0
 19 18  1  0
 19 28  1  0
 19 20  1  0
 21 15  1  0
 21 20  1  0
 22 15  2  0
 23 24  1  0
 25 26  2  0
 26 45  1  0
 27 26  1  0
 27 30  1  0
 28 25  1  0
 28 29  1  0
 29 27  2  0
 30 31  1  0
 31 32  2  0
 33 36  1  0
 33 32  1  0
 34 33  2  0
 35 34  1  0
 35 30  2  0
 36 37  1  0
 37 38  1  0
 38 39  2  0
 40 39  1  0
 40 44  1  0
 41 40  2  0
 42 37  2  0
 42 41  1  0
 43 42  1  0
 45 46  1  0
 46 49  1  0
 46 48  1  0
 47 45  2  0
 50 51  1  0
 50 25  1  0
 52 50  1  0
 53 54  1  0
 53  2  1  0
 55 66  2  0
 56 54  1  0
 56 61  1  0
 57 65  1  0
 57 67  1  0
 58 64  1  0
 58 60  1  0
 59 65  1  0
 60 59  1  0
 61 60  2  0
 62 63  1  0
 62 56  2  0
 63 58  2  0
 64 57  1  0
 65 55  1  0
 67 69  2  0
 68 67  1  0
 70 68  1  0
 71 80  2  0
 71 76  1  0
 72 68  1  0
 72 76  1  0
 73 72  1  0
 74 75  1  0
 74 73  1  0
 75 71  1  0
 76 77  2  0
 77 78  1  0
 79 78  2  0
 80 79  1  0
 81 55  1  0
 81 82  1  0
 81 91  1  0
 82 85  1  0
 83 87  1  0
 83 82  1  0
 84 83  2  0
 87 86  1  0
 89 87  1  0
 89 90  1  0
 89 88  1  0
 91 94  1  1
 91 92  1  0
 93 91  1  0
M  ISO  4  15 100  23 100  53 101  54 101
M  END
>  <TORSDO>  (65) 
F 18

>  <SCORE>  (65) 
-14.936

>  <name>  (65) 
65

>  <ligand_id>  (65) 
65

>  <original_smiles>  (65) 
[H]C([H])=C1C(C([H])([H])Oc2c([H])c([H])c3c(c2[H])C([H])([H])N(C(=O)C([H])(N([H])C(=O)C([H])(N([H])C([H])([H])[H])C([H])([H])[H])C(C([H])([H])[H])(C([H])([H])[H])C([H])([H])[H])C([H])(C(=O)N([H])C2([H])c4c([H])c([H])c([H])c([H])c4C([H])([H])C([H])([H])C2([H])[H])C3([H])[H])=C([H])N(c2c([H])c(N([H])C(=O)N3C([H])([H])C([H])([H])C([H])([H])C([H])(n4nc(-c5c([H])c([H])c(Oc6c([H])c([H])c(F)c([H])c6F)c([H])c5[H])c(C(=O)N([H])[H])c4N([H])[H])C3([H])[H])c([H])c([H])c2C([H])([H])[H])C([H])([H])C1([H])[H]

>  <smiles>  (65) 
[H]C([H])=C1C(C([H])([H])Oc2c([H])c([H])c3c(c2[H])C([H])([H])N(C(=O)C([H])(N([H])C(=O)C([H])(N([H])C([H])([H])[H])C([H])([H])[H])C(C([H])([H])[H])(C([H])([H])[H])C([H])([H])[H])C([H])(C(=O)N([H])C2([H])c4c([H])c([H])c([H])c([H])c4C([H])([H])C([H])([H])C2([H])[H])C3([H])[H])=C([H])N(c2c([H])c(N([H])C(=O)N3C([H])([H])C([H])([H])C([H])([H])C([H])(n4nc(-c5c([H])c([H])c(Oc6c([H])c([H])c(F)c([H])c6F)c([H])c5[H])c(C(=O)N([H])[H])c4N([H])[H])C3([H])[H])c([H])c([H])c2C([H])([H])[H])C([H])([H])C1([H])[H]

$$$$
66:0:0
     RDKit          3D

 96104  0  0  1  0  0  0  0  0999 V2000
  -29.0940  -20.6910   20.8550 C   0  0  0  0  0  0  0  0  0  0  0  0
  -28.5230  -23.1650   20.7640 C   0  0  0  0  0  0  0  0  0  0  0  0
  -29.3230  -21.9830   20.4680 N   0  0  0  0  0  0  0  0  0  0  0  0
  -27.9760  -20.3490   21.5060 N   0  0  0  0  0  4  0  0  0  0  0  0
  -27.4990  -23.0460   21.4500 O   0  0  0  0  0  0  0  0  0  0  0  0
  -30.1560  -22.0630   19.9070 H   0  0  0  0  0  0  0  0  0  0  0  0
  -27.8580  -19.4200   21.8790 H   0  0  0  0  0  0  0  0  0  0  0  0
  -27.3110  -21.0760   21.7390 H   0  0  0  0  0  0  0  0  0  0  0  0
  -32.4290  -18.9180   20.4790 C   0  0  0  0  0  3  0  0  0  0  0  0
  -31.4600  -19.9330   20.5820 C   0  0  0  0  0  3  0  0  0  0  0  0
  -32.0470  -17.5640   20.4340 C   0  0  0  0  0  3  0  0  0  0  0  0
  -29.7090  -18.2280   20.5660 C   0  0  0  0  0  3  0  0  0  0  0  0
  -30.0870  -19.6060   20.6340 C   0  0  0  0  0  0  0  0  0  0  0  0
  -30.6800  -17.1880   20.4640 C   0  0  0  0  0  0  0  0  0  0  0  0
  -30.9420  -14.7290   19.9560 C   0  0  0  0  0  0  0  0  0  0  0  0
  -30.6040  -12.5020   18.9400 C   0  0  0  0  0  2  0  0  0  0  0  0
  -29.6020  -12.6230   17.7740 C   0  0  0  0  0  2  0  0  0  0  0  0
  -28.1570  -12.4800   18.2870 C   0  0  0  0  0  2  0  0  0  0  0  0
  -27.8660  -13.3780   19.5200 C   0  0  0  0  0  3  0  0  0  0  0  0
  -28.9820  -13.2540   20.5830 C   0  0  0  0  0  2  0  0  0  0  0  0
  -30.2660  -13.5450   19.9260 N   0  0  0  0  0  0  0  0  0  0  0  0
  -32.0470  -14.8510   19.4220 O   0  0  0  0  0  0  0  0  0  0  0  0
  -30.2680  -15.8020   20.4420 N   0  0  0  0  0  0  0  0  0  0  0  0
  -29.3270  -15.6070   20.7480 H   0  0  0  0  0  0  0  0  0  0  0  0
  -25.5370  -13.9890   20.4190 C   0  0  0  0  0  0  0  0  0  0  0  0
  -24.4830  -13.2200   20.8310 C   0  0  0  0  0  0  0  0  0  0  0  0
  -24.9160  -11.8630   20.7170 C   0  0  0  0  0  0  0  0  0  0  0  0
  -26.5470  -13.1020   20.0830 N   0  0  0  0  0  0  0  0  0  0  0  0
  -26.1820  -11.8160   20.3200 N   0  0  0  0  0  0  0  0  0  0  0  0
  -24.1820  -10.6070   20.9080 C   0  0  0  0  0  0  0  0  0  0  0  0
  -24.5950   -9.6460   21.8570 C   0  0  0  0  0  3  0  0  0  0  0  0
  -23.8620   -8.4520   22.0350 C   0  0  0  0  0  3  0  0  0  0  0  0
  -22.7000   -8.2120   21.2640 C   0  0  0  0  0  0  0  0  0  0  0  0
  -22.3060   -9.1610   20.3050 C   0  0  0  0  0  3  0  0  0  0  0  0
  -23.0390  -10.3450   20.1240 C   0  0  0  0  0  3  0  0  0  0  0  0
  -21.9400   -7.0720   21.3510 O   0  0  0  0  0  0  0  0  0  0  0  0
  -21.7950   -6.3900   22.5340 C   0  0  0  0  0  0  0  0  0  0  0  0
  -21.2070   -6.9880   23.6700 C   0  0  0  0  0  3  0  0  0  0  0  0
  -21.0150   -6.2310   24.8440 C   0  0  0  0  0  3  0  0  0  0  0  0
  -21.4000   -4.8780   24.8800 C   0  0  0  0  0  0  0  0  0  0  0  0
  -21.9800   -4.2800   23.7470 C   0  0  0  0  0  3  0  0  0  0  0  0
  -22.1740   -5.0330   22.5760 C   0  0  0  0  0  0  0  0  0  0  0  0
  -22.7140   -4.4470   21.4810 F   0  0  0  0  0  0  0  0  0  0  0  0
  -21.2080   -4.1470   26.0030 F   0  0  0  0  0  0  0  0  0  0  0  0
  -23.1160  -13.7080   21.2170 C   0  0  0  0  0  0  0  0  0  0  0  0
  -22.4320  -12.9840   22.0950 N   0  0  0  0  0  0  0  0  0  0  0  0
  -22.6660  -14.7650   20.7750 O   0  0  0  0  0  0  0  0  0  0  0  0
  -22.8100  -12.1270   22.4740 H   0  0  0  0  0  0  0  0  0  0  0  0
  -21.5180  -13.2910   22.3960 H   0  0  0  0  0  0  0  0  0  0  0  0
  -25.7140  -15.3630   20.2810 N   0  0  0  0  0  0  0  0  0  0  0  0
  -24.9630  -16.0220   20.4560 H   0  0  0  0  0  0  0  0  0  0  0  0
  -26.5340  -15.7970   19.8760 H   0  0  0  0  0  0  0  0  0  0  0  0
  -28.3080  -25.5740   20.5640 C   0  0  0  0  0  3  0  0  0  0  0  0
  -28.9980  -24.4540   20.2160 C   0  0  0  0  0  0  0  0  0  0  0  0
  -30.2000  -24.4920   19.2860 C   0  0  0  0  0  1  0  0  0  0  0  0
  -28.5430  -26.8730   20.1310 O   0  0  0  0  0  0  0  0  0  0  0  0
  -24.7240  -31.9550   23.4030 C   0  0  0  0  0  0  0  0  0  0  0  0
  -27.4230  -27.6870   20.1130 C   0  0  0  0  0  0  0  0  0  0  0  0
  -23.5460  -30.6390   21.6730 C   0  0  0  0  0  3  0  0  0  0  0  0
  -25.0280  -29.1990   20.1740 C   0  0  0  0  0  0  0  0  0  0  0  0
  -26.0750  -31.0210   21.5250 C   0  0  0  0  0  2  0  0  0  0  0  0
  -26.1790  -29.6890   20.8050 C   0  0  0  0  0  0  0  0  0  0  0  0
  -27.3840  -28.9410   20.7730 C   0  0  0  0  0  3  0  0  0  0  0  0
  -26.2590  -27.2310   19.4570 C   0  0  0  0  0  3  0  0  0  0  0  0
  -25.0640  -27.9710   19.4940 C   0  0  0  0  0  3  0  0  0  0  0  0
  -23.7760  -30.0440   20.2590 C   0  0  0  0  0  2  0  0  0  0  0  0
  -24.8000  -31.2170   22.2590 N   0  0  0  0  0  0  0  0  0  0  0  0
  -23.6340  -32.1890   23.9440 O   0  0  0  0  0  0  0  0  0  0  0  0
  -22.8920  -29.5610   22.5670 C   0  0  0  0  0  0  0  0  0  0  0  0
  -21.5730  -29.3640   22.4030 N   0  0  0  0  0  0  0  0  0  0  0  0
  -23.5690  -28.9070   23.3660 O   0  0  0  0  0  0  0  0  0  0  0  0
  -21.0890  -29.9450   21.7350 H   0  0  0  0  0  0  0  0  0  0  0  0
  -18.2030  -28.1170   22.7990 C   0  0  0  0  0  0  0  0  0  0  0  0
  -20.7570  -28.3750   23.1090 C   0  0  0  0  0  3  0  0  0  0  0  0
  -20.8750  -26.9830   22.4490 C   0  0  0  0  0  2  0  0  0  0  0  0
  -19.7840  -26.7140   21.4070 C   0  0  0  0  0  2  0  0  0  0  0  0
  -18.3960  -26.8120   22.0460 C   0  0  0  0  0  2  0  0  0  0  0  0
  -19.3130  -28.8590   23.2850 C   0  0  0  0  0  0  0  0  0  0  0  0
  -19.0800  -30.0850   23.9470 C   0  0  0  0  0  3  0  0  0  0  0  0
  -17.7710  -30.5670   24.1290 C   0  0  0  0  0  3  0  0  0  0  0  0
  -16.6750  -29.8210   23.6620 C   0  0  0  0  0  3  0  0  0  0  0  0
  -16.8930  -28.5970   23.0030 C   0  0  0  0  0  3  0  0  0  0  0  0
  -25.9980  -32.5610   24.0700 C   0  0  0  0  0  3  0  0  0  0  0  0
  -25.6960  -33.9560   24.4160 N   0  0  0  0  0  0  0  0  0  0  0  0
  -26.0500  -35.0160   23.6760 C   0  0  0  0  0  0  0  0  0  0  0  0
  -26.7340  -34.9220   22.6540 O   0  0  0  0  0  0  0  0  0  0  0  0
  -25.0900  -34.1040   25.2090 H   0  0  0  0  0  0  0  0  0  0  0  0
  -24.3420  -36.8280   23.3170 C   0  0  0  0  0  1  0  0  0  0  0  0
  -25.5650  -36.4020   24.1450 C   0  0  0  0  0  3  0  0  0  0  0  0
  -27.6850  -37.2620   25.0360 C   0  0  0  0  0  1  0  0  0  0  0  0
  -26.6070  -37.4480   24.0670 N   0  0  0  0  0  0  0  0  0  0  0  0
  -26.2050  -38.3700   24.2130 H   0  0  0  0  0  0  0  0  0  0  0  0
  -26.4730  -31.7610   25.3440 C   0  0  1  0  0  0  0  0  0  0  0  0
  -25.3450  -31.5020   26.3710 C   0  0  0  0  0  1  0  0  0  0  0  0
  -27.0640  -30.3900   24.9390 C   0  0  0  0  0  1  0  0  0  0  0  0
  -27.6030  -32.5360   26.0600 C   0  0  0  0  0  1  0  0  0  0  0  0
  1  4  2  0
  2  5  2  0
  3  2  1  0
  3  1  1  0
  4  8  1  0
  4  7  1  0
  6  3  1  0
  9 10  1  0
 10 13  2  0
 11 14  1  0
 11  9  2  0
 12 13  1  0
 13  1  1  0
 14 12  2  0
 15 23  1  0
 16 21  1  0
 17 18  1  0
 17 16  1  0
 19 18  1  0
 19 28  1  0
 19 20  1  0
 21 15  1  0
 21 20  1  0
 22 15  2  0
 23 14  1  0
 23 24  1  0
 25 26  2  0
 26 45  1  0
 27 26  1  0
 27 30  1  0
 28 29  1  0
 28 25  1  0
 29 27  2  0
 30 31  1  0
 31 32  2  0
 33 36  1  0
 33 32  1  0
 34 33  2  0
 35 34  1  0
 35 30  2  0
 36 37  1  0
 37 42  2  0
 37 38  1  0
 38 39  2  0
 39 40  1  0
 40 44  1  0
 41 40  2  0
 42 41  1  0
 43 42  1  0
 45 46  1  0
 46 49  1  0
 46 48  1  0
 47 45  2  0
 50 25  1  0
 50 51  1  0
 52 50  1  0
 54 53  2  0
 54  2  1  0
 55 54  1  0
 56 53  1  0
 57 68  2  0
 58 56  1  0
 58 63  1  0
 59 67  1  0
 59 69  1  0
 60 66  1  0
 60 62  1  0
 61 67  1  0
 62 61  1  0
 63 62  2  0
 64 65  1  0
 64 58  2  0
 65 60  2  0
 66 59  1  0
 67 57  1  0
 69 71  2  0
 70 69  1  0
 72 70  1  0
 73 82  2  0
 73 78  1  0
 74 70  1  0
 74 78  1  0
 75 74  1  0
 76 77  1  0
 76 75  1  0
 77 73  1  0
 78 79  2  0
 79 80  1  0
 81 80  2  0
 82 81  1  0
 83 57  1  0
 83 84  1  0
 83 93  1  0
 84 87  1  0
 85 89  1  0
 85 84  1  0
 86 85  2  0
 89 88  1  0
 91 89  1  0
 91 92  1  0
 91 90  1  0
 93 96  1  1
 93 94  1  0
 95 93  1  0
M  ISO  4  15 100  23 100  53 101  56 101
M  END
>  <TORSDO>  (66) 
F 18

>  <SCORE>  (66) 
-14.239

>  <name>  (66) 
66

>  <ligand_id>  (66) 
66

>  <original_smiles>  (66) 
[H]C(Oc1c([H])c([H])c2c(c1[H])C([H])([H])N(C(=O)C([H])(N([H])C(=O)C([H])(N([H])C([H])([H])[H])C([H])([H])[H])C(C([H])([H])[H])(C([H])([H])[H])C([H])([H])[H])C([H])(C(=O)N([H])C1([H])c3c([H])c([H])c([H])c([H])c3C([H])([H])C([H])([H])C1([H])[H])C2([H])[H])=C(C(=O)N([H])C(c1c([H])c([H])c([H])c(N([H])C(=O)N2C([H])([H])C([H])([H])C([H])([H])C([H])(n3nc(-c4c([H])c([H])c(Oc5c([H])c([H])c(F)c([H])c5F)c([H])c4[H])c(C(=O)N([H])[H])c3N([H])[H])C2([H])[H])c1[H])=[N+]([H])[H])C([H])([H])[H]

>  <smiles>  (66) 
[H]C(Oc1c([H])c([H])c2c(c1[H])C([H])([H])N(C(=O)C([H])(N([H])C(=O)C([H])(N([H])C([H])([H])[H])C([H])([H])[H])C(C([H])([H])[H])(C([H])([H])[H])C([H])([H])[H])C([H])(C(=O)N([H])C1([H])c3c([H])c([H])c([H])c([H])c3C([H])([H])C([H])([H])C1([H])[H])C2([H])[H])=C(C(=O)N([H])C(c1c([H])c([H])c([H])c(N([H])C(=O)N2C([H])([H])C([H])([H])C([H])([H])C([H])(n3nc(-c4c([H])c([H])c(Oc5c([H])c([H])c(F)c([H])c5F)c([H])c4[H])c(C(=O)N([H])[H])c3N([H])[H])C2([H])[H])c1[H])=[N+]([H])[H])C([H])([H])[H]

$$$$
67:0:0
     RDKit          3D

 95103  0  0  1  0  0  0  0  0999 V2000
  -29.3190  -22.7980   20.1800 N   0  0  0  0  0  0  0  0  0  0  0  0
  -29.3560  -22.5500   19.1880 H   0  0  0  0  0  0  0  0  0  0  0  0
  -30.0930  -21.9310   22.4490 O   0  0  0  0  0  0  0  0  0  0  0  0
  -31.7910  -22.1870   20.5990 O   0  0  0  0  0  0  0  0  0  0  0  0
  -30.4470  -21.7720   21.0290 S   0  0  2  0  0  0  0  0  0  0  0  0
  -28.8990  -17.9180   20.7840 C   0  0  0  0  0  3  0  0  0  0  0  0
  -31.1910  -17.7910   20.0190 C   0  0  0  0  0  3  0  0  0  0  0  0
  -29.0010  -19.3320   20.8850 C   0  0  0  0  0  3  0  0  0  0  0  0
  -31.2940  -19.2090   20.1190 C   0  0  0  0  0  3  0  0  0  0  0  0
  -30.0010  -17.1100   20.3990 C   0  0  0  0  0  0  0  0  0  0  0  0
  -30.2070  -19.9950   20.5840 C   0  0  0  0  0  0  0  0  0  0  0  0
  -30.6240  -14.6240   20.0540 C   0  0  0  0  0  0  0  0  0  0  0  0
  -30.3380  -12.4290   18.9460 C   0  0  0  0  0  2  0  0  0  0  0  0
  -29.3380  -12.6120   17.7820 C   0  0  0  0  0  2  0  0  0  0  0  0
  -27.8830  -12.4650   18.2840 C   0  0  0  0  0  2  0  0  0  0  0  0
  -27.5940  -13.3040   19.5560 C   0  0  0  0  0  3  0  0  0  0  0  0
  -28.7010  -13.0820   20.6130 C   0  0  0  0  0  2  0  0  0  0  0  0
  -29.9900  -13.4160   19.9830 N   0  0  0  0  0  0  0  0  0  0  0  0
  -31.7750  -14.7800   19.6350 O   0  0  0  0  0  0  0  0  0  0  0  0
  -29.8280  -15.6670   20.4270 N   0  0  0  0  0  0  0  0  0  0  0  0
  -28.9140  -15.3670   20.7350 H   0  0  0  0  0  0  0  0  0  0  0  0
  -25.2550  -13.9340   20.4310 C   0  0  0  0  0  0  0  0  0  0  0  0
  -24.1930  -13.1720   20.8450 C   0  0  0  0  0  0  0  0  0  0  0  0
  -24.6260  -11.8130   20.7480 C   0  0  0  0  0  0  0  0  0  0  0  0
  -26.2640  -13.0400   20.1050 N   0  0  0  0  0  0  0  0  0  0  0  0
  -25.8920  -11.7590   20.3570 N   0  0  0  0  0  0  0  0  0  0  0  0
  -23.8900  -10.5580   20.9490 C   0  0  0  0  0  0  0  0  0  0  0  0
  -24.3300   -9.5800   21.8650 C   0  0  0  0  0  3  0  0  0  0  0  0
  -23.5980   -8.3860   22.0480 C   0  0  0  0  0  3  0  0  0  0  0  0
  -22.4100   -8.1640   21.3120 C   0  0  0  0  0  0  0  0  0  0  0  0
  -21.9870   -9.1330   20.3870 C   0  0  0  0  0  3  0  0  0  0  0  0
  -22.7190  -10.3180   20.2010 C   0  0  0  0  0  3  0  0  0  0  0  0
  -21.6460   -7.0250   21.4060 O   0  0  0  0  0  0  0  0  0  0  0  0
  -21.5780   -6.3000   22.5680 C   0  0  0  0  0  0  0  0  0  0  0  0
  -21.1130   -6.8680   23.7760 C   0  0  0  0  0  3  0  0  0  0  0  0
  -20.9870   -6.0660   24.9290 C   0  0  0  0  0  3  0  0  0  0  0  0
  -21.3210   -4.6970   24.8740 C   0  0  0  0  0  0  0  0  0  0  0  0
  -21.7790   -4.1320   23.6700 C   0  0  0  0  0  3  0  0  0  0  0  0
  -21.9030   -4.9320   22.5210 C   0  0  0  0  0  0  0  0  0  0  0  0
  -22.3240   -4.3750   21.3590 F   0  0  0  0  0  0  0  0  0  0  0  0
  -21.1980   -3.9240   25.9780 F   0  0  0  0  0  0  0  0  0  0  0  0
  -22.8190  -13.6640   21.2010 C   0  0  0  0  0  0  0  0  0  0  0  0
  -22.1150  -12.9640   22.0810 N   0  0  0  0  0  0  0  0  0  0  0  0
  -22.3760  -14.7120   20.7300 O   0  0  0  0  0  0  0  0  0  0  0  0
  -22.4790  -12.1210   22.5030 H   0  0  0  0  0  0  0  0  0  0  0  0
  -21.1930  -13.2830   22.3440 H   0  0  0  0  0  0  0  0  0  0  0  0
  -25.4390  -15.3050   20.2840 N   0  0  0  0  0  0  0  0  0  0  0  0
  -24.6920  -15.9680   20.4500 H   0  0  0  0  0  0  0  0  0  0  0  0
  -26.2480  -15.7230   19.8430 H   0  0  0  0  0  0  0  0  0  0  0  0
  -29.5530  -24.2830   20.2540 C   0  0  0  0  0  3  0  0  0  0  0  0
  -30.5540  -24.7000   19.1710 C   0  0  0  0  0  0  0  0  0  0  0  0
  -31.4260  -25.9160   19.4440 C   0  0  0  0  0  1  0  0  0  0  0  0
  -30.6480  -24.0670   18.1130 O   0  0  0  0  0  0  0  0  0  0  0  0
  -28.2300  -25.1290   20.1130 C   0  0  0  0  0  2  0  0  0  0  0  0
  -28.3590  -26.5870   20.2210 O   0  0  0  0  0  0  0  0  0  0  0  0
  -24.5550  -31.8940   23.1840 C   0  0  0  0  0  0  0  0  0  0  0  0
  -27.2030  -27.3680   20.1640 C   0  0  0  0  0  0  0  0  0  0  0  0
  -23.3610  -30.4790   21.5490 C   0  0  0  0  0  3  0  0  0  0  0  0
  -24.8180  -28.9280   20.1400 C   0  0  0  0  0  0  0  0  0  0  0  0
  -25.8920  -30.8210   21.3650 C   0  0  0  0  0  2  0  0  0  0  0  0
  -25.9790  -29.4420   20.7290 C   0  0  0  0  0  0  0  0  0  0  0  0
  -27.1710  -28.6710   20.7370 C   0  0  0  0  0  3  0  0  0  0  0  0
  -26.0180  -26.8920   19.5570 C   0  0  0  0  0  3  0  0  0  0  0  0
  -24.8370  -27.6580   19.5450 C   0  0  0  0  0  3  0  0  0  0  0  0
  -23.5800  -29.7980   20.1710 C   0  0  0  0  0  2  0  0  0  0  0  0
  -24.6200  -31.0830   22.0880 N   0  0  0  0  0  0  0  0  0  0  0  0
  -23.4680  -32.1710   23.7150 O   0  0  0  0  0  0  0  0  0  0  0  0
  -22.7050  -29.4630   22.5140 C   0  0  0  0  0  0  0  0  0  0  0  0
  -21.3820  -29.2720   22.3790 N   0  0  0  0  0  0  0  0  0  0  0  0
  -23.3850  -28.8510   23.3420 O   0  0  0  0  0  0  0  0  0  0  0  0
  -20.8950  -29.8270   21.6880 H   0  0  0  0  0  0  0  0  0  0  0  0
  -18.0090  -28.0580   22.8700 C   0  0  0  0  0  0  0  0  0  0  0  0
  -20.5640  -28.3350   23.1520 C   0  0  0  0  0  3  0  0  0  0  0  0
  -20.6770  -26.9000   22.5890 C   0  0  0  0  0  2  0  0  0  0  0  0
  -19.5820  -26.5620   21.5710 C   0  0  0  0  0  2  0  0  0  0  0  0
  -18.1960  -26.7030   22.2070 C   0  0  0  0  0  2  0  0  0  0  0  0
  -19.1220  -28.8300   23.3010 C   0  0  0  0  0  0  0  0  0  0  0  0
  -18.8930  -30.0960   23.8820 C   0  0  0  0  0  3  0  0  0  0  0  0
  -17.5870  -30.5890   24.0400 C   0  0  0  0  0  3  0  0  0  0  0  0
  -16.4880  -29.8180   23.6230 C   0  0  0  0  0  3  0  0  0  0  0  0
  -16.7010  -28.5530   23.0450 C   0  0  0  0  0  3  0  0  0  0  0  0
  -25.8350  -32.5320   23.8080 C   0  0  0  0  0  3  0  0  0  0  0  0
  -25.5170  -33.9280   24.1360 N   0  0  0  0  0  0  0  0  0  0  0  0
  -25.8420  -34.9820   23.3740 C   0  0  0  0  0  0  0  0  0  0  0  0
  -26.5110  -34.8800   22.3420 O   0  0  0  0  0  0  0  0  0  0  0  0
  -24.9140  -34.0780   24.9320 H   0  0  0  0  0  0  0  0  0  0  0  0
  -24.1050  -36.7640   23.0130 C   0  0  0  0  0  1  0  0  0  0  0  0
  -25.3450  -36.3670   23.8290 C   0  0  0  0  0  3  0  0  0  0  0  0
  -27.4780  -37.2590   24.6600 C   0  0  0  0  0  1  0  0  0  0  0  0
  -26.3720  -37.4280   23.7210 N   0  0  0  0  0  0  0  0  0  0  0  0
  -25.9600  -38.3440   23.8780 H   0  0  0  0  0  0  0  0  0  0  0  0
  -26.3530  -31.7640   25.0860 C   0  0  1  0  0  0  0  0  0  0  0  0
  -25.2580  -31.5300   26.1530 C   0  0  0  0  0  1  0  0  0  0  0  0
  -26.9430  -30.3880   24.6970 C   0  0  0  0  0  1  0  0  0  0  0  0
  -27.5010  -32.5660   25.7440 C   0  0  0  0  0  1  0  0  0  0  0  0
  1 50  1  0
  5  1  1  6
  2  1  1  0
  4  5  2  0
  5  3  2  0
  6  8  1  0
  7  9  2  0
  7 10  1  0
  9 11  1  0
 10 20  1  0
 10  6  2  0
 11  8  2  0
 11  5  1  0
 12 20  1  0
 13 18  1  0
 14 15  1  0
 14 13  1  0
 16 15  1  0
 16 25  1  0
 16 17  1  0
 18 12  1  0
 18 17  1  0
 19 12  2  0
 20 21  1  0
 22 23  2  0
 23 42  1  0
 24 23  1  0
 24 27  1  0
 25 26  1  0
 25 22  1  0
 26 24  2  0
 27 28  1  0
 28 29  2  0
 30 33  1  0
 30 29  1  0
 31 30  2  0
 32 31  1  0
 32 27  2  0
 33 34  1  0
 34 35  1  0
 35 36  2  0
 37 36  1  0
 37 41  1  0
 38 37  2  0
 39 34  2  0
 39 38  1  0
 40 39  1  0
 42 43  1  0
 43 46  1  0
 43 45  1  0
 44 42  2  0
 47 22  1  0
 47 48  1  0
 49 47  1  0
 50 54  1  0
 51 52  1  0
 51 50  1  0
 53 51  2  0
 54 55  1  0
 56 67  2  0
 57 55  1  0
 57 62  1  0
 58 66  1  0
 58 68  1  0
 59 65  1  0
 59 61  1  0
 60 66  1  0
 61 62  2  0
 61 60  1  0
 63 57  2  0
 64 63  1  0
 64 59  2  0
 65 58  1  0
 66 56  1  0
 68 70  2  0
 69 68  1  0
 71 69  1  0
 72 81  2  0
 72 77  1  0
 73 69  1  0
 73 77  1  0
 74 73  1  0
 75 76  1  0
 75 74  1  0
 76 72  1  0
 77 78  2  0
 78 79  1  0
 80 79  2  0
 81 80  1  0
 82 56  1  0
 82 83  1  0
 82 92  1  0
 83 86  1  0
 84 88  1  0
 84 83  1  0
 85 84  2  0
 88 87  1  0
 90 88  1  0
 90 91  1  0
 90 89  1  0
 92 95  1  1
 92 93  1  0
 94 92  1  0
M  ISO  4  12 100  20 100  54 101  55 101
M  END
>  <TORSDO>  (67) 
F 21

>  <SCORE>  (67) 
-13.433

>  <name>  (67) 
67

>  <ligand_id>  (67) 
67

>  <original_smiles>  (67) 
[H]c1c([H])c([H])c2c(c1[H])C([H])([H])C([H])([H])C([H])([H])C2([H])N([H])C(=O)C1([H])N(C(=O)C([H])(N([H])C(=O)C([H])(N([H])C([H])([H])[H])C([H])([H])[H])C(C([H])([H])[H])(C([H])([H])[H])C([H])([H])[H])C([H])([H])c2c([H])c(OC([H])([H])C([H])(C(=O)C([H])([H])[H])N([H])S(=O)(=O)c3c([H])c([H])c(N([H])C(=O)N4C([H])([H])C([H])([H])C([H])([H])C([H])(n5nc(-c6c([H])c([H])c(Oc7c([H])c([H])c(F)c([H])c7F)c([H])c6[H])c(C(=O)N([H])[H])c5N([H])[H])C4([H])[H])c([H])c3[H])c([H])c([H])c2C1([H])[H]

>  <smiles>  (67) 
[H]c1c([H])c([H])c2c(c1[H])C([H])([H])C([H])([H])C([H])([H])C2([H])N([H])C(=O)C1([H])N(C(=O)C([H])(N([H])C(=O)C([H])(N([H])C([H])([H])[H])C([H])([H])[H])C(C([H])([H])[H])(C([H])([H])[H])C([H])([H])[H])C([H])([H])c2c([H])c(OC([H])([H])C([H])(C(=O)C([H])([H])[H])N([H])S(=O)(=O)c3c([H])c([H])c(N([H])C(=O)N4C([H])([H])C([H])([H])C([H])([H])C([H])(n5nc(-c6c([H])c([H])c(Oc7c([H])c([H])c(F)c([H])c7F)c([H])c6[H])c(C(=O)N([H])[H])c5N([H])[H])C4([H])[H])c([H])c3[H])c([H])c([H])c2C1([H])[H]

$$$$
68:0:0
     RDKit          3D

 98107  0  0  1  0  0  0  0  0999 V2000
  -28.1570  -22.7900   19.6790 C   0  0  0  0  0  0  0  0  0  0  0  0
  -27.5220  -21.8400   18.8000 C   0  0  0  0  0  0  0  0  0  0  0  0
  -29.1340  -22.0100   20.4690 C   0  0  0  0  0  0  0  0  0  0  0  0
  -26.6550  -22.1030   17.8030 C   0  0  0  0  0  2  0  0  0  0  0  0
  -27.8270  -24.1250   19.7550 C   0  0  0  0  0  3  0  0  0  0  0  0
  -27.9840  -20.4580   19.1400 C   0  0  0  0  0  2  0  0  0  0  0  0
  -29.0710  -20.6810   20.0940 N   0  0  0  0  0  0  0  0  0  0  0  0
  -29.8870  -22.4670   21.3350 O   0  0  0  0  0  0  0  0  0  0  0  0
  -31.3380  -19.8330   20.7130 C   0  0  0  0  0  3  0  0  0  0  0  0
  -31.8500  -17.4440   20.8270 C   0  0  0  0  0  3  0  0  0  0  0  0
  -29.9770  -19.5730   20.4140 C   0  0  0  0  0  0  0  0  0  0  0  0
  -32.2600  -18.7870   20.9200 C   0  0  0  0  0  0  0  0  0  0  0  0
  -30.5070  -17.1160   20.5280 C   0  0  0  0  0  0  0  0  0  0  0  0
  -29.5790  -18.1890   20.3470 C   0  0  0  0  0  0  0  0  0  0  0  0
  -28.2910  -17.8540   20.0920 F   0  0  0  0  0  0  0  0  0  0  0  0
  -30.7780  -14.6620   20.0000 C   0  0  0  0  0  0  0  0  0  0  0  0
  -30.4550  -12.4430   18.9460 C   0  0  0  0  0  2  0  0  0  0  0  0
  -29.4480  -12.5780   17.7840 C   0  0  0  0  0  2  0  0  0  0  0  0
  -28.0000  -12.4390   18.2930 C   0  0  0  0  0  2  0  0  0  0  0  0
  -27.7160  -13.3140   19.5460 C   0  0  0  0  0  3  0  0  0  0  0  0
  -28.8340  -13.1620   20.6020 C   0  0  0  0  0  2  0  0  0  0  0  0
  -30.1140  -13.4690   19.9480 N   0  0  0  0  0  0  0  0  0  0  0  0
  -31.8990  -14.7950   19.4970 O   0  0  0  0  0  0  0  0  0  0  0  0
  -30.0770  -15.7330   20.4570 N   0  0  0  0  0  0  0  0  0  0  0  0
  -29.1080  -15.5590   20.6770 H   0  0  0  0  0  0  0  0  0  0  0  0
  -25.3840  -13.9260   20.4340 C   0  0  0  0  0  0  0  0  0  0  0  0
  -24.3290  -13.1590   20.8450 C   0  0  0  0  0  0  0  0  0  0  0  0
  -24.7620  -11.8010   20.7360 C   0  0  0  0  0  0  0  0  0  0  0  0
  -26.3950  -13.0370   20.1040 N   0  0  0  0  0  0  0  0  0  0  0  0
  -26.0300  -11.7510   20.3450 N   0  0  0  0  0  0  0  0  0  0  0  0
  -24.0270  -10.5450   20.9290 C   0  0  0  0  0  0  0  0  0  0  0  0
  -24.4660   -9.5640   21.8470 C   0  0  0  0  0  3  0  0  0  0  0  0
  -23.7300   -8.3750   22.0300 C   0  0  0  0  0  3  0  0  0  0  0  0
  -22.5400   -8.1550   21.2960 C   0  0  0  0  0  0  0  0  0  0  0  0
  -22.1210   -9.1240   20.3670 C   0  0  0  0  0  3  0  0  0  0  0  0
  -22.8580  -10.3040   20.1820 C   0  0  0  0  0  3  0  0  0  0  0  0
  -21.7760   -7.0180   21.3880 O   0  0  0  0  0  0  0  0  0  0  0  0
  -21.7060   -6.2900   22.5490 C   0  0  0  0  0  0  0  0  0  0  0  0
  -21.2190   -6.8460   23.7520 C   0  0  0  0  0  3  0  0  0  0  0  0
  -21.1040   -6.0420   24.9040 C   0  0  0  0  0  3  0  0  0  0  0  0
  -21.4580   -4.6820   24.8530 C   0  0  0  0  0  0  0  0  0  0  0  0
  -21.9350   -4.1250   23.6530 C   0  0  0  0  0  3  0  0  0  0  0  0
  -22.0560   -4.9260   22.5050 C   0  0  0  0  0  0  0  0  0  0  0  0
  -22.4960   -4.3770   21.3480 F   0  0  0  0  0  0  0  0  0  0  0  0
  -21.3390   -3.9080   25.9580 F   0  0  0  0  0  0  0  0  0  0  0  0
  -22.9610  -13.6480   21.2260 C   0  0  0  0  0  0  0  0  0  0  0  0
  -22.2750  -12.9330   22.1080 N   0  0  0  0  0  0  0  0  0  0  0  0
  -22.5110  -14.7000   20.7740 O   0  0  0  0  0  0  0  0  0  0  0  0
  -22.6510  -12.0790   22.4940 H   0  0  0  0  0  0  0  0  0  0  0  0
  -21.3610  -13.2450   22.4020 H   0  0  0  0  0  0  0  0  0  0  0  0
  -25.5590  -15.3010   20.2890 N   0  0  0  0  0  0  0  0  0  0  0  0
  -24.8140  -15.9640   20.4730 H   0  0  0  0  0  0  0  0  0  0  0  0
  -26.3960  -15.7460   19.9320 H   0  0  0  0  0  0  0  0  0  0  0  0
  -33.5930  -19.0870   21.2040 N   0  0  0  0  0  0  0  0  0  0  0  0
  -33.8680  -20.0310   21.4620 H   0  0  0  0  0  0  0  0  0  0  0  0
  -34.2270  -18.3690   21.5410 H   0  0  0  0  0  0  0  0  0  0  0  0
  -28.2590  -25.2620   20.7200 C   0  0  0  0  0  2  0  0  0  0  0  0
  -28.3230  -26.6270   20.1700 O   0  0  0  0  0  0  0  0  0  0  0  0
  -24.5570  -31.9620   23.2210 C   0  0  0  0  0  0  0  0  0  0  0  0
  -27.1730  -27.4160   20.1910 C   0  0  0  0  0  0  0  0  0  0  0  0
  -23.3500  -30.5470   21.5960 C   0  0  0  0  0  3  0  0  0  0  0  0
  -24.7990  -28.9910   20.1800 C   0  0  0  0  0  0  0  0  0  0  0  0
  -25.8850  -30.8840   21.3940 C   0  0  0  0  0  2  0  0  0  0  0  0
  -25.9670  -29.5010   20.7610 C   0  0  0  0  0  0  0  0  0  0  0  0
  -27.1600  -28.7280   20.7460 C   0  0  0  0  0  3  0  0  0  0  0  0
  -25.9810  -26.9360   19.6130 C   0  0  0  0  0  3  0  0  0  0  0  0
  -24.8070  -27.7110   19.6020 C   0  0  0  0  0  3  0  0  0  0  0  0
  -23.5570  -29.8550   20.2220 C   0  0  0  0  0  2  0  0  0  0  0  0
  -24.6170  -31.1460   22.1300 N   0  0  0  0  0  0  0  0  0  0  0  0
  -23.4750  -32.2410   23.7590 O   0  0  0  0  0  0  0  0  0  0  0  0
  -22.6960  -29.5330   22.5650 C   0  0  0  0  0  0  0  0  0  0  0  0
  -21.3750  -29.3320   22.4270 N   0  0  0  0  0  0  0  0  0  0  0  0
  -23.3770  -28.9340   23.4020 O   0  0  0  0  0  0  0  0  0  0  0  0
  -20.8870  -29.8740   21.7270 H   0  0  0  0  0  0  0  0  0  0  0  0
  -18.0150  -28.0770   22.8970 C   0  0  0  0  0  0  0  0  0  0  0  0
  -20.5620  -28.3920   23.2010 C   0  0  0  0  0  3  0  0  0  0  0  0
  -20.7010  -26.9500   22.6580 C   0  0  0  0  0  2  0  0  0  0  0  0
  -19.6210  -26.5860   21.6340 C   0  0  0  0  0  2  0  0  0  0  0  0
  -18.2270  -26.7180   22.2530 C   0  0  0  0  0  2  0  0  0  0  0  0
  -19.1120  -28.8700   23.3290 C   0  0  0  0  0  0  0  0  0  0  0  0
  -18.8580  -30.1410   23.8890 C   0  0  0  0  0  3  0  0  0  0  0  0
  -17.5410  -30.6210   24.0210 C   0  0  0  0  0  3  0  0  0  0  0  0
  -16.4600  -29.8260   23.6070 C   0  0  0  0  0  3  0  0  0  0  0  0
  -16.6970  -28.5550   23.0540 C   0  0  0  0  0  3  0  0  0  0  0  0
  -25.8410  -32.6010   23.8350 C   0  0  0  0  0  3  0  0  0  0  0  0
  -26.3690  -31.8390   25.1120 C   0  0  1  0  0  0  0  0  0  0  0  0
  -25.2820  -31.5920   26.1840 C   0  0  0  0  0  1  0  0  0  0  0  0
  -26.9670  -30.4670   24.7240 C   0  0  0  0  0  1  0  0  0  0  0  0
  -27.5120  -32.6490   25.7690 C   0  0  0  0  0  1  0  0  0  0  0  0
  -25.5260  -33.9980   24.1610 N   0  0  0  0  0  0  0  0  0  0  0  0
  -25.8530  -35.0500   23.3980 C   0  0  0  0  0  0  0  0  0  0  0  0
  -26.5230  -34.9470   22.3680 O   0  0  0  0  0  0  0  0  0  0  0  0
  -24.9420  -34.1570   24.9670 H   0  0  0  0  0  0  0  0  0  0  0  0
  -24.1330  -36.8490   23.0230 C   0  0  0  0  0  1  0  0  0  0  0  0
  -25.3600  -36.4370   23.8540 C   0  0  0  0  0  3  0  0  0  0  0  0
  -27.4800  -37.3230   24.7280 C   0  0  0  0  0  1  0  0  0  0  0  0
  -26.3960  -37.4910   23.7630 N   0  0  0  0  0  0  0  0  0  0  0  0
  -25.9860  -38.4110   23.9080 H   0  0  0  0  0  0  0  0  0  0  0  0
  1  5  2  0
  1  3  1  0
  2  6  1  0
  2  1  1  0
  3  8  2  0
  4  2  2  0
  5 57  1  0
  6  7  1  0
  7 11  1  0
  7  3  1  0
  9 12  1  0
 10 12  2  0
 11  9  2  0
 12 54  1  0
 13 10  1  0
 14 11  1  0
 14 13  2  0
 15 14  1  0
 16 24  1  0
 17 22  1  0
 18 19  1  0
 18 17  1  0
 20 19  1  0
 20 29  1  0
 20 21  1  0
 22 16  1  0
 22 21  1  0
 23 16  2  0
 24 13  1  0
 24 25  1  0
 26 27  2  0
 27 46  1  0
 28 27  1  0
 28 31  1  0
 29 30  1  0
 29 26  1  0
 30 28  2  0
 31 32  1  0
 32 33  2  0
 34 37  1  0
 34 33  1  0
 35 34  2  0
 36 35  1  0
 36 31  2  0
 37 38  1  0
 38 39  1  0
 39 40  2  0
 41 40  1  0
 41 45  1  0
 42 41  2  0
 43 38  2  0
 43 42  1  0
 44 43  1  0
 46 47  1  0
 47 50  1  0
 47 49  1  0
 48 46  2  0
 51 26  1  0
 51 52  1  0
 53 51  1  0
 54 55  1  0
 54 56  1  0
 58 60  1  0
 58 57  1  0
 59 70  2  0
 60 65  1  0
 61 69  1  0
 61 71  1  0
 62 68  1  0
 62 64  1  0
 63 69  1  0
 64 63  1  0
 65 64  2  0
 66 60  2  0
 67 66  1  0
 67 62  2  0
 68 61  1  0
 69 59  1  0
 71 73  2  0
 72 71  1  0
 74 72  1  0
 75 84  2  0
 75 80  1  0
 76 72  1  0
 76 80  1  0
 77 76  1  0
 78 79  1  0
 78 77  1  0
 79 75  1  0
 80 81  2  0
 81 82  1  0
 83 82  2  0
 84 83  1  0
 85 59  1  0
 85 90  1  0
 85 86  1  0
 86 89  1  1
 86 87  1  0
 88 86  1  0
 90 93  1  0
 91 95  1  0
 91 90  1  0
 92 91  2  0
 95 94  1  0
 97 95  1  0
 97 98  1  0
 97 96  1  0
M  ISO  4  16 100  24 100  57 101  58 101
M  END
>  <TORSDO>  (68) 
F 19

>  <SCORE>  (68) 
-14.820

>  <name>  (68) 
68

>  <ligand_id>  (68) 
68

>  <original_smiles>  (68) 
[H]C([H])=C1C(=C([H])C([H])([H])Oc2c([H])c([H])c3c(c2[H])C([H])([H])N(C(=O)C([H])(N([H])C(=O)C([H])(N([H])C([H])([H])[H])C([H])([H])[H])C(C([H])([H])[H])(C([H])([H])[H])C([H])([H])[H])C([H])(C(=O)N([H])C2([H])c4c([H])c([H])c([H])c([H])c4C([H])([H])C([H])([H])C2([H])[H])C3([H])[H])C(=O)N(c2c([H])c(N([H])[H])c([H])c(N([H])C(=O)N3C([H])([H])C([H])([H])C([H])([H])C([H])(n4nc(-c5c([H])c([H])c(Oc6c([H])c([H])c(F)c([H])c6F)c([H])c5[H])c(C(=O)N([H])[H])c4N([H])[H])C3([H])[H])c2F)C1([H])[H]

>  <smiles>  (68) 
[H]C([H])=C1C(=C([H])C([H])([H])Oc2c([H])c([H])c3c(c2[H])C([H])([H])N(C(=O)C([H])(N([H])C(=O)C([H])(N([H])C([H])([H])[H])C([H])([H])[H])C(C([H])([H])[H])(C([H])([H])[H])C([H])([H])[H])C([H])(C(=O)N([H])C2([H])c4c([H])c([H])c([H])c([H])c4C([H])([H])C([H])([H])C2([H])[H])C3([H])[H])C(=O)N(c2c([H])c(N([H])[H])c([H])c(N([H])C(=O)N3C([H])([H])C([H])([H])C([H])([H])C([H])(n4nc(-c5c([H])c([H])c(Oc6c([H])c([H])c(F)c([H])c6F)c([H])c5[H])c(C(=O)N([H])[H])c4N([H])[H])C3([H])[H])c2F)C1([H])[H]

$$$$
69:0:0
     RDKit          3D

 97106  0  0  1  0  0  0  0  0999 V2000
  -30.1870  -23.8390   21.0580 C   0  0  0  0  0  0  0  0  0  0  0  0
  -30.6690  -22.4600   21.0880 C   0  0  0  0  0  0  0  0  0  0  0  0
  -31.0410  -24.8650   21.2390 C   0  0  0  0  0  2  0  0  0  0  0  0
  -28.5150  -22.4570   20.2000 C   0  0  0  0  0  2  0  0  0  0  0  0
  -28.7260  -23.9510   20.6790 C   0  0  1  0  0  0  0  0  0  0  0  0
  -27.8360  -24.1970   21.9160 C   0  0  0  0  0  1  0  0  0  0  0  0
  -29.6960  -21.6380   20.6160 N   0  0  0  0  0  0  0  0  0  0  0  0
  -31.7760  -22.0990   21.5000 O   0  0  0  0  0  0  0  0  0  0  0  0
  -31.0220  -19.4640   20.3700 C   0  0  0  0  0  3  0  0  0  0  0  0
  -31.1070  -18.0430   20.2580 C   0  0  0  0  0  3  0  0  0  0  0  0
  -28.6400  -19.3260   20.5970 C   0  0  0  0  0  3  0  0  0  0  0  0
  -29.7860  -20.1620   20.5400 C   0  0  0  0  0  0  0  0  0  0  0  0
  -29.9590  -17.2150   20.3160 C   0  0  0  0  0  0  0  0  0  0  0  0
  -28.7210  -17.9050   20.4750 C   0  0  0  0  0  0  0  0  0  0  0  0
  -30.6980  -14.7580   20.4490 C   0  0  0  0  0  0  0  0  0  0  0  0
  -30.5380  -12.4280   19.5960 C   0  0  0  0  0  2  0  0  0  0  0  0
  -29.6420  -12.3800   18.3380 C   0  0  0  0  0  2  0  0  0  0  0  0
  -28.1460  -12.3100   18.7060 C   0  0  0  0  0  2  0  0  0  0  0  0
  -27.7250  -13.2400   19.8820 C   0  0  0  0  0  3  0  0  0  0  0  0
  -28.7540  -13.2280   21.0310 C   0  0  0  0  0  2  0  0  0  0  0  0
  -30.0640  -13.5370   20.4430 N   0  0  0  0  0  0  0  0  0  0  0  0
  -31.9300  -14.8170   20.4160 O   0  0  0  0  0  0  0  0  0  0  0  0
  -29.9100  -15.7450   18.4140 C   0  0  0  0  0  1  0  0  0  0  0  0
  -29.9880  -15.8100   19.8850 N   0  0  0  0  0  0  0  0  0  0  0  0
  -25.3000  -13.8120   20.5130 C   0  0  0  0  0  0  0  0  0  0  0  0
  -24.2320  -13.0280   20.8470 C   0  0  0  0  0  0  0  0  0  0  0  0
  -24.7230  -11.6880   20.8680 C   0  0  0  0  0  0  0  0  0  0  0  0
  -26.3730  -12.9480   20.3440 N   0  0  0  0  0  0  0  0  0  0  0  0
  -26.0260  -11.6660   20.6240 N   0  0  0  0  0  0  0  0  0  0  0  0
  -24.0090  -10.4190   21.0540 C   0  0  0  0  0  0  0  0  0  0  0  0
  -24.4330   -9.4680   22.0090 C   0  0  0  0  0  3  0  0  0  0  0  0
  -23.7160   -8.2660   22.1830 C   0  0  0  0  0  3  0  0  0  0  0  0
  -22.5640   -8.0070   21.4030 C   0  0  0  0  0  0  0  0  0  0  0  0
  -22.1610   -8.9470   20.4390 C   0  0  0  0  0  3  0  0  0  0  0  0
  -22.8800  -10.1410   20.2620 C   0  0  0  0  0  3  0  0  0  0  0  0
  -21.8200   -6.8560   21.4850 O   0  0  0  0  0  0  0  0  0  0  0  0
  -21.7620   -6.1170   22.6390 C   0  0  0  0  0  0  0  0  0  0  0  0
  -21.3190   -6.6750   23.8580 C   0  0  0  0  0  3  0  0  0  0  0  0
  -21.2100   -5.8620   25.0050 C   0  0  0  0  0  3  0  0  0  0  0  0
  -21.5340   -4.4940   24.9320 C   0  0  0  0  0  0  0  0  0  0  0  0
  -21.9710   -3.9360   23.7190 C   0  0  0  0  0  3  0  0  0  0  0  0
  -22.0820   -4.7460   22.5750 C   0  0  0  0  0  0  0  0  0  0  0  0
  -22.4830   -4.1990   21.4000 F   0  0  0  0  0  0  0  0  0  0  0  0
  -21.4220   -3.7120   26.0310 F   0  0  0  0  0  0  0  0  0  0  0  0
  -22.8180  -13.4890   21.0470 C   0  0  0  0  0  0  0  0  0  0  0  0
  -22.0690  -12.8110   21.9090 N   0  0  0  0  0  0  0  0  0  0  0  0
  -22.3840  -14.4890   20.4780 O   0  0  0  0  0  0  0  0  0  0  0  0
  -22.4300  -12.0030   22.3950 H   0  0  0  0  0  0  0  0  0  0  0  0
  -21.1190  -13.1040   22.0880 H   0  0  0  0  0  0  0  0  0  0  0  0
  -25.4200  -15.1800   20.3280 N   0  0  0  0  0  0  0  0  0  0  0  0
  -24.6220  -15.7690   20.5340 H   0  0  0  0  0  0  0  0  0  0  0  0
  -26.2980  -15.6810   20.4600 H   0  0  0  0  0  0  0  0  0  0  0  0
  -27.5410  -17.1790   20.3970 N   0  0  0  0  0  0  0  0  0  0  0  0
  -26.6980  -17.7360   20.2930 H   0  0  0  0  0  0  0  0  0  0  0  0
  -27.5960  -16.4760   19.6690 H   0  0  0  0  0  0  0  0  0  0  0  0
  -28.4230  -25.1090   19.6180 C   0  0  0  0  0  2  0  0  0  0  0  0
  -28.3920  -26.5290   20.0580 O   0  0  0  0  0  0  0  0  0  0  0  0
  -24.6460  -31.8630   23.1360 C   0  0  0  0  0  0  0  0  0  0  0  0
  -27.2400  -27.3350   20.0080 C   0  0  0  0  0  0  0  0  0  0  0  0
  -23.4310  -30.4780   21.4950 C   0  0  0  0  0  3  0  0  0  0  0  0
  -24.8670  -28.9500   20.0410 C   0  0  0  0  0  0  0  0  0  0  0  0
  -25.9720  -30.8020   21.2910 C   0  0  0  0  0  2  0  0  0  0  0  0
  -26.0400  -29.4300   20.6300 C   0  0  0  0  0  0  0  0  0  0  0  0
  -27.2250  -28.6360   20.5990 C   0  0  0  0  0  3  0  0  0  0  0  0
  -26.0310  -26.9050   19.4050 C   0  0  0  0  0  3  0  0  0  0  0  0
  -24.8660  -27.6950   19.4180 C   0  0  0  0  0  3  0  0  0  0  0  0
  -23.6340  -29.8260   20.1040 C   0  0  0  0  0  2  0  0  0  0  0  0
  -24.7040  -31.0650   22.0290 N   0  0  0  0  0  0  0  0  0  0  0  0
  -23.5650  -32.1320   23.6770 O   0  0  0  0  0  0  0  0  0  0  0  0
  -22.7820  -29.4460   22.4480 C   0  0  0  0  0  0  0  0  0  0  0  0
  -21.4530  -29.2780   22.3370 N   0  0  0  0  0  0  0  0  0  0  0  0
  -23.4700  -28.8050   23.2460 O   0  0  0  0  0  0  0  0  0  0  0  0
  -20.9630  -29.8440   21.6590 H   0  0  0  0  0  0  0  0  0  0  0  0
  -18.0730  -28.1020   22.8760 C   0  0  0  0  0  0  0  0  0  0  0  0
  -20.6380  -28.3370   23.1070 C   0  0  0  0  0  3  0  0  0  0  0  0
  -20.7190  -26.9150   22.5070 C   0  0  0  0  0  2  0  0  0  0  0  0
  -19.5960  -26.6160   21.5080 C   0  0  0  0  0  2  0  0  0  0  0  0
  -18.2260  -26.7630   22.1780 C   0  0  0  0  0  2  0  0  0  0  0  0
  -19.2050  -28.8490   23.2990 C   0  0  0  0  0  0  0  0  0  0  0  0
  -19.0060  -30.1030   23.9160 C   0  0  0  0  0  3  0  0  0  0  0  0
  -17.7070  -30.6110   24.1150 C   0  0  0  0  0  3  0  0  0  0  0  0
  -16.5900  -29.8600   23.7080 C   0  0  0  0  0  3  0  0  0  0  0  0
  -16.7730  -28.6090   23.0950 C   0  0  0  0  0  3  0  0  0  0  0  0
  -25.9300  -32.4940   23.7570 C   0  0  0  0  0  3  0  0  0  0  0  0
  -26.4710  -31.6980   25.0080 C   0  0  1  0  0  0  0  0  0  0  0  0
  -25.3980  -31.4210   26.0870 C   0  0  0  0  0  1  0  0  0  0  0  0
  -27.0600  -30.3370   24.5740 C   0  0  0  0  0  1  0  0  0  0  0  0
  -27.6270  -32.4860   25.6680 C   0  0  0  0  0  1  0  0  0  0  0  0
  -25.6100  -33.8820   24.1260 N   0  0  0  0  0  0  0  0  0  0  0  0
  -25.9240  -34.9570   23.3900 C   0  0  0  0  0  0  0  0  0  0  0  0
  -26.5870  -34.8860   22.3520 O   0  0  0  0  0  0  0  0  0  0  0  0
  -25.0290  -34.0140   24.9400 H   0  0  0  0  0  0  0  0  0  0  0  0
  -24.1820  -36.7460   23.0890 C   0  0  0  0  0  1  0  0  0  0  0  0
  -25.4270  -36.3290   23.8880 C   0  0  0  0  0  3  0  0  0  0  0  0
  -27.5580  -37.2010   24.7410 C   0  0  0  0  0  1  0  0  0  0  0  0
  -26.4520  -37.3920   23.8040 N   0  0  0  0  0  0  0  0  0  0  0  0
  -26.0420  -38.3040   23.9800 H   0  0  0  0  0  0  0  0  0  0  0  0
  1  2  1  0
  1  3  2  0
  2  8  2  0
  4  7  1  0
  4  5  1  0
  5  1  1  0
  5  6  1  1
  7  2  1  0
  9 12  1  0
 10 13  1  0
 10  9  2  0
 12 11  2  0
 12  7  1  0
 13 14  2  0
 14 11  1  0
 16 21  1  0
 17 18  1  0
 17 16  1  0
 19 18  1  0
 19 28  1  0
 19 20  1  0
 21 15  1  0
 21 20  1  0
 22 15  2  0
 23 24  1  0
 24 13  1  0
 24 15  1  0
 25 26  2  0
 26 27  1  0
 26 45  1  0
 27 30  1  0
 28 25  1  0
 28 29  1  0
 29 27  2  0
 30 31  1  0
 31 32  2  0
 33 36  1  0
 33 32  1  0
 34 33  2  0
 35 34  1  0
 35 30  2  0
 36 37  1  0
 37 38  1  0
 38 39  2  0
 40 39  1  0
 40 44  1  0
 41 40  2  0
 42 37  2  0
 42 41  1  0
 43 42  1  0
 45 46  1  0
 46 49  1  0
 46 48  1  0
 47 45  2  0
 50 52  1  0
 50 25  1  0
 50 51  1  0
 53 14  1  0
 54 53  1  0
 55 53  1  0
 56 57  1  0
 56  5  1  0
 58 69  2  0
 59 57  1  0
 59 64  1  0
 60 68  1  0
 60 70  1  0
 61 67  1  0
 61 63  1  0
 62 68  1  0
 63 62  1  0
 64 63  2  0
 65 66  1  0
 65 59  2  0
 66 61  2  0
 67 60  1  0
 68 58  1  0
 70 72  2  0
 71 70  1  0
 73 71  1  0
 74 83  2  0
 74 79  1  0
 75 71  1  0
 75 79  1  0
 76 75  1  0
 77 78  1  0
 77 76  1  0
 78 74  1  0
 79 80  2  0
 80 81  1  0
 82 81  2  0
 83 82  1  0
 84 58  1  0
 84 89  1  0
 84 85  1  0
 85 88  1  1
 85 86  1  0
 87 85  1  0
 89 92  1  0
 90 94  1  0
 90 89  1  0
 91 90  2  0
 94 93  1  0
 96 94  1  0
 96 97  1  0
 96 95  1  0
M  ISO  4  15 100  24 100  56 101  57 101
M  END
>  <TORSDO>  (69) 
F 19

>  <SCORE>  (69) 
-14.074

>  <name>  (69) 
69

>  <ligand_id>  (69) 
69

>  <original_smiles>  (69) 
[H]C([H])=C1C(=O)N(c2c([H])c([H])c(N(C(=O)N3C([H])([H])C([H])([H])C([H])([H])C([H])(n4nc(-c5c([H])c([H])c(Oc6c([H])c([H])c(F)c([H])c6F)c([H])c5[H])c(C(=O)N([H])[H])c4N([H])[H])C3([H])[H])C([H])([H])[H])c(N([H])[H])c2[H])C([H])([H])C1(C([H])([H])[H])C([H])([H])Oc1c([H])c([H])c2c(c1[H])C([H])([H])N(C(=O)C([H])(N([H])C(=O)C([H])(N([H])C([H])([H])[H])C([H])([H])[H])C(C([H])([H])[H])(C([H])([H])[H])C([H])([H])[H])C([H])(C(=O)N([H])C1([H])c3c([H])c([H])c([H])c([H])c3C([H])([H])C([H])([H])C1([H])[H])C2([H])[H]

>  <smiles>  (69) 
[H]C([H])=C1C(=O)N(c2c([H])c([H])c(N(C(=O)N3C([H])([H])C([H])([H])C([H])([H])C([H])(n4nc(-c5c([H])c([H])c(Oc6c([H])c([H])c(F)c([H])c6F)c([H])c5[H])c(C(=O)N([H])[H])c4N([H])[H])C3([H])[H])C([H])([H])[H])c(N([H])[H])c2[H])C([H])([H])C1(C([H])([H])[H])C([H])([H])Oc1c([H])c([H])c2c(c1[H])C([H])([H])N(C(=O)C([H])(N([H])C(=O)C([H])(N([H])C([H])([H])[H])C([H])([H])[H])C(C([H])([H])[H])(C([H])([H])[H])C([H])([H])[H])C([H])(C(=O)N([H])C1([H])c3c([H])c([H])c([H])c([H])c3C([H])([H])C([H])([H])C1([H])[H])C2([H])[H]

$$$$
70:0:0
     RDKit          3D

 89 96  0  0  1  0  0  0  0  0999 V2000
  -28.3610  -21.8840   20.3840 C   0  0  0  0  0  0  0  0  0  0  0  0
  -28.9970  -19.2810   20.3770 C   0  0  0  0  0  0  0  0  0  0  0  0
  -29.2330  -20.7200   20.2750 N   0  0  0  0  0  0  0  0  0  0  0  0
  -27.1660  -21.6720   20.6030 O   0  0  0  0  0  0  0  0  0  0  0  0
  -27.8590  -18.8790   20.6310 O   0  0  0  0  0  0  0  0  0  0  0  0
  -30.1970  -20.9520   20.0860 H   0  0  0  0  0  0  0  0  0  0  0  0
  -28.7940  -23.4040   20.2500 C   0  0  0  0  0  3  0  0  0  0  0  0
  -27.9770  -24.5980   20.3350 C   0  0  0  0  0  3  0  0  0  0  0  0
  -28.2440  -26.0730   20.2480 O   0  0  0  0  0  0  0  0  0  0  0  0
  -24.6840  -31.9140   23.2640 C   0  0  0  0  0  0  0  0  0  0  0  0
  -27.2150  -27.1180   20.2240 C   0  0  0  0  0  0  0  0  0  0  0  0
  -23.4740  -30.5280   21.6270 C   0  0  0  0  0  3  0  0  0  0  0  0
  -24.9100  -28.9360   20.1950 C   0  0  0  0  0  0  0  0  0  0  0  0
  -26.0340  -30.7550   21.4630 C   0  0  0  0  0  2  0  0  0  0  0  0
  -26.0970  -29.3550   20.8100 C   0  0  0  0  0  0  0  0  0  0  0  0
  -27.2470  -28.4630   20.8080 C   0  0  0  0  0  3  0  0  0  0  0  0
  -26.0060  -26.8300   19.5570 C   0  0  0  0  0  3  0  0  0  0  0  0
  -24.8820  -27.6900   19.5510 C   0  0  0  0  0  3  0  0  0  0  0  0
  -23.6900  -29.8490   20.2480 C   0  0  0  0  0  2  0  0  0  0  0  0
  -24.7520  -31.0910   22.1720 N   0  0  0  0  0  0  0  0  0  0  0  0
  -23.6010  -32.2060   23.7940 O   0  0  0  0  0  0  0  0  0  0  0  0
  -22.7880  -29.5270   22.5920 C   0  0  0  0  0  0  0  0  0  0  0  0
  -21.4600  -29.3530   22.4610 N   0  0  0  0  0  0  0  0  0  0  0  0
  -23.4550  -28.9070   23.4250 O   0  0  0  0  0  0  0  0  0  0  0  0
  -20.9770  -29.9030   21.7650 H   0  0  0  0  0  0  0  0  0  0  0  0
  -18.0800  -28.1380   22.9580 C   0  0  0  0  0  0  0  0  0  0  0  0
  -20.6380  -28.4160   23.2330 C   0  0  0  0  0  3  0  0  0  0  0  0
  -20.7480  -26.9810   22.6660 C   0  0  0  0  0  2  0  0  0  0  0  0
  -19.6530  -26.6480   21.6490 C   0  0  0  0  0  2  0  0  0  0  0  0
  -18.2670  -26.7880   22.2870 C   0  0  0  0  0  2  0  0  0  0  0  0
  -19.1930  -28.9090   23.3880 C   0  0  0  0  0  0  0  0  0  0  0  0
  -18.9630  -30.1710   23.9790 C   0  0  0  0  0  3  0  0  0  0  0  0
  -17.6550  -30.6630   24.1420 C   0  0  0  0  0  3  0  0  0  0  0  0
  -16.5570  -29.8900   23.7260 C   0  0  0  0  0  3  0  0  0  0  0  0
  -16.7710  -28.6300   23.1400 C   0  0  0  0  0  3  0  0  0  0  0  0
  -25.9650  -32.5470   23.8890 C   0  0  0  0  0  3  0  0  0  0  0  0
  -25.6560  -33.9470   24.2280 N   0  0  0  0  0  0  0  0  0  0  0  0
  -25.9580  -35.0040   23.4630 C   0  0  0  0  0  0  0  0  0  0  0  0
  -26.5870  -34.9050   22.4070 O   0  0  0  0  0  0  0  0  0  0  0  0
  -25.0910  -34.0960   25.0510 H   0  0  0  0  0  0  0  0  0  0  0  0
  -24.2010  -36.7900   23.2000 C   0  0  0  0  0  1  0  0  0  0  0  0
  -25.4860  -36.3920   23.9440 C   0  0  0  0  0  3  0  0  0  0  0  0
  -27.6520  -37.3010   24.6640 C   0  0  0  0  0  1  0  0  0  0  0  0
  -26.5050  -37.4520   23.7720 N   0  0  0  0  0  0  0  0  0  0  0  0
  -26.0980  -38.3710   23.9310 H   0  0  0  0  0  0  0  0  0  0  0  0
  -26.4750  -31.7750   25.1680 C   0  0  1  0  0  0  0  0  0  0  0  0
  -25.3800  -31.5430   26.2360 C   0  0  0  0  0  1  0  0  0  0  0  0
  -27.0540  -30.3940   24.7850 C   0  0  0  0  0  1  0  0  0  0  0  0
  -27.6280  -32.5650   25.8320 C   0  0  0  0  0  1  0  0  0  0  0  0
  -30.7950  -18.1960   18.8350 C   0  0  0  0  0  1  0  0  0  0  0  0
  -30.0940  -17.9980   20.1920 C   0  0  0  0  0  3  0  0  0  0  0  0
  -30.5210  -15.1790   20.2390 C   0  0  0  0  0  0  0  0  0  0  0  0
  -30.4340  -12.7820   19.3370 C   0  0  0  0  0  2  0  0  0  0  0  0
  -29.4870  -12.6580   18.1190 C   0  0  0  0  0  2  0  0  0  0  0  0
  -28.0400  -12.4110   18.5810 C   0  0  0  0  0  2  0  0  0  0  0  0
  -27.6260  -13.3500   19.7420 C   0  0  0  0  0  3  0  0  0  0  0  0
  -28.6980  -13.4400   20.8490 C   0  0  0  0  0  2  0  0  0  0  0  0
  -29.9350  -13.9000   20.2040 N   0  0  0  0  0  0  0  0  0  0  0  0
  -31.7290  -15.2020   19.9730 O   0  0  0  0  0  0  0  0  0  0  0  0
  -29.7640  -16.4130   20.3590 N   0  0  0  0  0  0  0  0  0  0  0  0
  -28.7870  -16.2550   20.5570 H   0  0  0  0  0  0  0  0  0  0  0  0
  -25.2680  -13.8990   20.5560 C   0  0  0  0  0  0  0  0  0  0  0  0
  -24.2140  -13.1140   20.9320 C   0  0  0  0  0  0  0  0  0  0  0  0
  -24.6800  -11.7650   20.8600 C   0  0  0  0  0  0  0  0  0  0  0  0
  -26.3060  -13.0300   20.2700 N   0  0  0  0  0  0  0  0  0  0  0  0
  -25.9650  -11.7390   20.5210 N   0  0  0  0  0  0  0  0  0  0  0  0
  -23.9570  -10.4980   21.0370 C   0  0  0  0  0  0  0  0  0  0  0  0
  -24.3850   -9.5260   21.9670 C   0  0  0  0  0  3  0  0  0  0  0  0
  -23.6600   -8.3250   22.1330 C   0  0  0  0  0  3  0  0  0  0  0  0
  -22.4940   -8.0890   21.3680 C   0  0  0  0  0  0  0  0  0  0  0  0
  -22.0860   -9.0510   20.4260 C   0  0  0  0  0  3  0  0  0  0  0  0
  -22.8120  -10.2410   20.2580 C   0  0  0  0  0  3  0  0  0  0  0  0
  -21.7410   -6.9420   21.4430 O   0  0  0  0  0  0  0  0  0  0  0  0
  -21.6470   -6.2180   22.6040 C   0  0  0  0  0  0  0  0  0  0  0  0
  -21.1440   -6.7830   23.7960 C   0  0  0  0  0  3  0  0  0  0  0  0
  -20.9990   -5.9840   24.9480 C   0  0  0  0  0  3  0  0  0  0  0  0
  -21.3470   -4.6210   24.9090 C   0  0  0  0  0  0  0  0  0  0  0  0
  -21.8440   -4.0550   23.7210 C   0  0  0  0  0  3  0  0  0  0  0  0
  -21.9900   -4.8510   22.5710 C   0  0  0  0  0  0  0  0  0  0  0  0
  -22.4490   -4.2960   21.4240 F   0  0  0  0  0  0  0  0  0  0  0  0
  -21.2010   -3.8510   26.0120 F   0  0  0  0  0  0  0  0  0  0  0  0
  -22.8230  -13.5840   21.2400 C   0  0  0  0  0  0  0  0  0  0  0  0
  -22.1140  -12.8720   22.1080 N   0  0  0  0  0  0  0  0  0  0  0  0
  -22.3750  -14.6180   20.7470 O   0  0  0  0  0  0  0  0  0  0  0  0
  -22.4900  -12.0350   22.5290 H   0  0  0  0  0  0  0  0  0  0  0  0
  -21.1810  -13.1680   22.3580 H   0  0  0  0  0  0  0  0  0  0  0  0
  -25.4230  -15.2740   20.4060 N   0  0  0  0  0  0  0  0  0  0  0  0
  -24.6540  -15.9190   20.5510 H   0  0  0  0  0  0  0  0  0  0  0  0
  -26.2540  -15.7280   20.0500 H   0  0  0  0  0  0  0  0  0  0  0  0
  1  4  2  0
  2  5  2  0
  3  2  1  0
  3  1  1  0
  6  3  1  0
  7  8  2  0
  7  1  1  0
  9  8  1  0
 10 21  2  0
 11  9  1  0
 11 16  1  0
 12 20  1  0
 12 22  1  0
 13 19  1  0
 13 15  1  0
 14 20  1  0
 15 14  1  0
 16 15  2  0
 17 11  2  0
 18 17  1  0
 18 13  2  0
 19 12  1  0
 20 10  1  0
 22 24  2  0
 23 22  1  0
 25 23  1  0
 26 35  2  0
 26 31  1  0
 27 23  1  0
 27 31  1  0
 28 27  1  0
 29 30  1  0
 29 28  1  0
 30 26  1  0
 31 32  2  0
 32 33  1  0
 34 33  2  0
 35 34  1  0
 36 10  1  0
 36 37  1  0
 36 46  1  0
 37 40  1  0
 38 42  1  0
 38 37  1  0
 39 38  2  0
 42 41  1  0
 44 45  1  0
 44 42  1  0
 44 43  1  0
 46 49  1  1
 46 47  1  0
 48 46  1  0
 51 50  1  0
 51 60  1  0
 51  2  1  0
 52 60  1  0
 53 58  1  0
 54 55  1  0
 54 53  1  0
 56 55  1  0
 56 65  1  0
 56 57  1  0
 58 52  1  0
 58 57  1  0
 59 52  2  0
 60 61  1  0
 62 63  2  0
 63 82  1  0
 64 63  1  0
 64 67  1  0
 65 66  1  0
 65 62  1  0
 66 64  2  0
 67 68  1  0
 68 69  2  0
 70 73  1  0
 70 69  1  0
 71 70  2  0
 72 71  1  0
 72 67  2  0
 73 74  1  0
 74 75  1  0
 75 76  2  0
 77 76  1  0
 77 81  1  0
 78 77  2  0
 79 74  2  0
 79 78  1  0
 80 79  1  0
 82 83  1  0
 83 86  1  0
 83 85  1  0
 84 82  2  0
 87 88  1  0
 87 62  1  0
 89 87  1  0
M  ISO  4   8 101   9 101  52 100  60 100
M  END
>  <TORSDO>  (70) 
F 18

>  <SCORE>  (70) 
-14.757

>  <name>  (70) 
70

>  <ligand_id>  (70) 
70

>  <original_smiles>  (70) 
[H]C(Oc1c([H])c([H])c2c(c1[H])C([H])([H])N(C(=O)C([H])(N([H])C(=O)C([H])(N([H])C([H])([H])[H])C([H])([H])[H])C(C([H])([H])[H])(C([H])([H])[H])C([H])([H])[H])C([H])(C(=O)N([H])C1([H])c3c([H])c([H])c([H])c([H])c3C([H])([H])C([H])([H])C1([H])[H])C2([H])[H])=C([H])C(=O)N([H])C(=O)C([H])(N([H])C(=O)N1C([H])([H])C([H])([H])C([H])([H])C([H])(n2nc(-c3c([H])c([H])c(Oc4c([H])c([H])c(F)c([H])c4F)c([H])c3[H])c(C(=O)N([H])[H])c2N([H])[H])C1([H])[H])C([H])([H])[H]

>  <smiles>  (70) 
[H]C(Oc1c([H])c([H])c2c(c1[H])C([H])([H])N(C(=O)C([H])(N([H])C(=O)C([H])(N([H])C([H])([H])[H])C([H])([H])[H])C(C([H])([H])[H])(C([H])([H])[H])C([H])([H])[H])C([H])(C(=O)N([H])C1([H])c3c([H])c([H])c([H])c([H])c3C([H])([H])C([H])([H])C1([H])[H])C2([H])[H])=C([H])C(=O)N([H])C(=O)C([H])(N([H])C(=O)N1C([H])([H])C([H])([H])C([H])([H])C([H])(n2nc(-c3c([H])c([H])c(Oc4c([H])c([H])c(F)c([H])c4F)c([H])c3[H])c(C(=O)N([H])[H])c2N([H])[H])C1([H])[H])C([H])([H])[H]

$$$$
71:0:0
     RDKit          3D

 95104  0  0  1  0  0  0  0  0999 V2000
  -28.8630  -21.8920   19.6870 C   0  0  0  0  0  0  0  0  0  0  0  0
  -28.8630  -20.7070   19.0400 N   0  0  0  0  0  0  0  0  0  0  0  0
  -29.4170  -22.0870   20.7710 O   0  0  0  0  0  0  0  0  0  0  0  0
  -28.4800  -20.7320   18.1050 H   0  0  0  0  0  0  0  0  0  0  0  0
  -30.9710  -14.4740   19.4480 C   0  0  0  0  0  0  0  0  0  0  0  0
  -30.3880  -12.4240   18.1920 C   0  0  0  0  0  2  0  0  0  0  0  0
  -29.2770  -12.7150   17.1640 C   0  0  0  0  0  2  0  0  0  0  0  0
  -27.8870  -12.5710   17.8130 C   0  0  0  0  0  2  0  0  0  0  0  0
  -27.7730  -13.3420   19.1550 C   0  0  0  0  0  3  0  0  0  0  0  0
  -28.9770  -13.0420   20.0710 C   0  0  0  0  0  2  0  0  0  0  0  0
  -30.2110  -13.3480   19.3240 N   0  0  0  0  0  0  0  0  0  0  0  0
  -31.9430  -14.7010   18.7200 O   0  0  0  0  0  0  0  0  0  0  0  0
  -29.7620  -19.0730   20.7360 C   0  0  0  0  0  3  0  0  0  0  0  0
  -29.7000  -17.0740   18.7620 C   0  0  0  0  0  3  0  0  0  0  0  0
  -30.1540  -17.7480   21.0510 C   0  0  0  0  0  0  0  0  0  0  0  0
  -30.1550  -16.7230   20.0610 C   0  0  0  0  0  0  0  0  0  0  0  0
  -29.3360  -19.4130   19.4310 C   0  0  0  0  0  0  0  0  0  0  0  0
  -29.2960  -18.3930   18.4580 C   0  0  0  0  0  0  0  0  0  0  0  0
  -30.5700  -17.4470   22.4800 C   0  0  0  0  0  2  0  0  0  0  0  0
  -30.4300  -15.9620   22.8100 C   0  0  0  0  0  2  0  0  0  0  0  0
  -31.1110  -15.1030   21.7410 C   0  0  0  0  0  2  0  0  0  0  0  0
  -30.5930  -15.3770   20.3910 N   0  0  0  0  0  0  0  0  0  0  0  0
  -28.8580  -18.6830   17.2080 F   0  0  0  0  0  0  0  0  0  0  0  0
  -25.5360  -13.9500   20.2720 C   0  0  0  0  0  0  0  0  0  0  0  0
  -24.5160  -13.1780   20.7580 C   0  0  0  0  0  0  0  0  0  0  0  0
  -24.9240  -11.8210   20.5710 C   0  0  0  0  0  0  0  0  0  0  0  0
  -26.5040  -13.0640   19.8240 N   0  0  0  0  0  0  0  0  0  0  0  0
  -26.1470  -11.7750   20.0590 N   0  0  0  0  0  0  0  0  0  0  0  0
  -24.1980  -10.5650   20.7960 C   0  0  0  0  0  0  0  0  0  0  0  0
  -24.6550   -9.6020   21.7240 C   0  0  0  0  0  3  0  0  0  0  0  0
  -23.9280   -8.4110   21.9350 C   0  0  0  0  0  3  0  0  0  0  0  0
  -22.7300   -8.1720   21.2200 C   0  0  0  0  0  0  0  0  0  0  0  0
  -22.2920   -9.1240   20.2820 C   0  0  0  0  0  3  0  0  0  0  0  0
  -23.0190  -10.3070   20.0680 C   0  0  0  0  0  3  0  0  0  0  0  0
  -21.9730   -7.0330   21.3420 O   0  0  0  0  0  0  0  0  0  0  0  0
  -21.8650   -6.3640   22.5350 C   0  0  0  0  0  0  0  0  0  0  0  0
  -21.3690   -6.9910   23.6990 C   0  0  0  0  0  3  0  0  0  0  0  0
  -21.2090   -6.2480   24.8860 C   0  0  0  0  0  3  0  0  0  0  0  0
  -21.5370   -4.8790   24.9100 C   0  0  0  0  0  0  0  0  0  0  0  0
  -22.0250   -4.2520   23.7500 C   0  0  0  0  0  3  0  0  0  0  0  0
  -22.1860   -4.9920   22.5650 C   0  0  0  0  0  0  0  0  0  0  0  0
  -22.6380   -4.3780   21.4460 F   0  0  0  0  0  0  0  0  0  0  0  0
  -21.3760   -4.1630   26.0470 F   0  0  0  0  0  0  0  0  0  0  0  0
  -23.1950  -13.6650   21.2780 C   0  0  0  0  0  0  0  0  0  0  0  0
  -22.6210  -12.9640   22.2500 N   0  0  0  0  0  0  0  0  0  0  0  0
  -22.6850  -14.7030   20.8580 O   0  0  0  0  0  0  0  0  0  0  0  0
  -23.0500  -12.1240   22.6100 H   0  0  0  0  0  0  0  0  0  0  0  0
  -21.7420  -13.2720   22.6410 H   0  0  0  0  0  0  0  0  0  0  0  0
  -25.7150  -15.3260   20.1570 N   0  0  0  0  0  0  0  0  0  0  0  0
  -25.0020  -15.9900   20.4340 H   0  0  0  0  0  0  0  0  0  0  0  0
  -26.5340  -15.7650   19.7550 H   0  0  0  0  0  0  0  0  0  0  0  0
  -28.1140  -23.0430   18.9790 C   0  0  0  0  0  2  0  0  0  0  0  0
  -28.7360  -24.4710   19.0230 C   0  0  0  0  0  2  0  0  0  0  0  0
  -28.4370  -25.3170   20.2830 C   0  0  0  0  0  2  0  0  0  0  0  0
  -28.5420  -26.7380   20.0350 O   0  0  0  0  0  0  0  0  0  0  0  0
  -24.6260  -31.8590   23.0760 C   0  0  0  0  0  0  0  0  0  0  0  0
  -27.3620  -27.4570   20.0060 C   0  0  0  0  0  0  0  0  0  0  0  0
  -23.4500  -30.4280   21.4370 C   0  0  0  0  0  3  0  0  0  0  0  0
  -24.9360  -28.9220   20.0100 C   0  0  0  0  0  0  0  0  0  0  0  0
  -25.9690  -30.8420   21.2360 C   0  0  0  0  0  2  0  0  0  0  0  0
  -26.0850  -29.4720   20.5940 C   0  0  0  0  0  0  0  0  0  0  0  0
  -27.3020  -28.7500   20.5820 C   0  0  0  0  0  3  0  0  0  0  0  0
  -26.1950  -26.9280   19.4100 C   0  0  0  0  0  3  0  0  0  0  0  0
  -24.9870  -27.6520   19.4130 C   0  0  0  0  0  3  0  0  0  0  0  0
  -23.6740  -29.7520   20.0580 C   0  0  0  0  0  2  0  0  0  0  0  0
  -24.7010  -31.0590   21.9740 N   0  0  0  0  0  0  0  0  0  0  0  0
  -23.5390  -32.1070   23.6160 O   0  0  0  0  0  0  0  0  0  0  0  0
  -22.8230  -29.3950   22.3990 C   0  0  0  0  0  0  0  0  0  0  0  0
  -21.5030  -29.1830   22.2730 N   0  0  0  0  0  0  0  0  0  0  0  0
  -23.5210  -28.7850   23.2150 O   0  0  0  0  0  0  0  0  0  0  0  0
  -20.9990  -29.7290   21.5880 H   0  0  0  0  0  0  0  0  0  0  0  0
  -18.1480  -27.9460   22.8040 C   0  0  0  0  0  0  0  0  0  0  0  0
  -20.7070  -28.2280   23.0450 C   0  0  0  0  0  3  0  0  0  0  0  0
  -20.8160  -26.8050   22.4520 C   0  0  0  0  0  2  0  0  0  0  0  0
  -19.7050  -26.4810   21.4490 C   0  0  0  0  0  2  0  0  0  0  0  0
  -18.3300  -26.6060   22.1130 C   0  0  0  0  0  2  0  0  0  0  0  0
  -19.2640  -28.7160   23.2270 C   0  0  0  0  0  0  0  0  0  0  0  0
  -19.0400  -29.9720   23.8320 C   0  0  0  0  0  3  0  0  0  0  0  0
  -17.7330  -30.4580   24.0180 C   0  0  0  0  0  3  0  0  0  0  0  0
  -16.6310  -29.6850   23.6130 C   0  0  0  0  0  3  0  0  0  0  0  0
  -16.8400  -28.4310   23.0110 C   0  0  0  0  0  3  0  0  0  0  0  0
  -25.8980  -32.5200   23.6940 C   0  0  0  0  0  3  0  0  0  0  0  0
  -26.4630  -31.7350   24.9400 C   0  0  1  0  0  0  0  0  0  0  0  0
  -25.3910  -31.3900   25.9990 C   0  0  0  0  0  1  0  0  0  0  0  0
  -27.1290  -30.4120   24.4930 C   0  0  0  0  0  1  0  0  0  0  0  0
  -27.5650  -32.5720   25.6320 C   0  0  0  0  0  1  0  0  0  0  0  0
  -25.5460  -33.8970   24.0640 N   0  0  0  0  0  0  0  0  0  0  0  0
  -25.8560  -34.9820   23.3420 C   0  0  0  0  0  0  0  0  0  0  0  0
  -26.5400  -34.9320   22.3170 O   0  0  0  0  0  0  0  0  0  0  0  0
  -24.9390  -34.0100   24.8630 H   0  0  0  0  0  0  0  0  0  0  0  0
  -24.1080  -36.7560   22.9900 C   0  0  0  0  0  1  0  0  0  0  0  0
  -25.3220  -36.3400   23.8360 C   0  0  0  0  0  3  0  0  0  0  0  0
  -27.4000  -37.2290   24.7950 C   0  0  0  0  0  1  0  0  0  0  0  0
  -26.3370  -37.4160   23.8120 N   0  0  0  0  0  0  0  0  0  0  0  0
  -25.9060  -38.3220   23.9780 H   0  0  0  0  0  0  0  0  0  0  0  0
  1  3  2  0
  2 17  1  0
  2  1  1  0
  4  2  1  0
  5 22  1  0
  6 11  1  0
  7  8  1  0
  7  6  1  0
  9  8  1  0
  9 27  1  0
  9 10  1  0
 11  5  1  0
 11 10  1  0
 12  5  2  0
 13 15  1  0
 14 16  1  0
 15 19  1  0
 16 22  1  0
 16 15  2  0
 17 13  2  0
 18 14  2  0
 18 17  1  0
 19 20  1  0
 21 20  1  0
 22 21  1  0
 23 18  1  0
 24 25  2  0
 25 44  1  0
 26 25  1  0
 26 29  1  0
 27 28  1  0
 27 24  1  0
 28 26  2  0
 29 30  1  0
 30 31  2  0
 32 35  1  0
 32 31  1  0
 33 32  2  0
 34 33  1  0
 34 29  2  0
 35 36  1  0
 36 41  2  0
 36 37  1  0
 37 38  2  0
 38 39  1  0
 39 43  1  0
 40 39  2  0
 41 40  1  0
 42 41  1  0
 44 45  1  0
 45 47  1  0
 45 48  1  0
 46 44  2  0
 49 24  1  0
 49 50  1  0
 51 49  1  0
 52 53  1  0
 52  1  1  0
 53 54  1  0
 55 54  1  0
 56 67  2  0
 57 55  1  0
 57 62  1  0
 58 66  1  0
 58 68  1  0
 59 65  1  0
 59 61  1  0
 60 66  1  0
 61 60  1  0
 62 61  2  0
 63 64  1  0
 63 57  2  0
 64 59  2  0
 65 58  1  0
 66 56  1  0
 68 70  2  0
 69 68  1  0
 71 69  1  0
 72 81  2  0
 72 77  1  0
 73 69  1  0
 73 77  1  0
 74 73  1  0
 75 76  1  0
 75 74  1  0
 76 72  1  0
 77 78  2  0
 78 79  1  0
 80 79  2  0
 81 80  1  0
 82 56  1  0
 82 87  1  0
 82 83  1  0
 83 86  1  1
 83 84  1  0
 85 83  1  0
 87 90  1  0
 88 92  1  0
 88 87  1  0
 89 88  2  0
 92 91  1  0
 94 92  1  0
 94 95  1  0
 94 93  1  0
M  ISO  4   5 100  22 100  54 101  55 101
M  END
>  <TORSDO>  (71) 
F 19

>  <SCORE>  (71) 
-11.724

>  <name>  (71) 
71

>  <ligand_id>  (71) 
71

>  <original_smiles>  (71) 
[H]c1c([H])c([H])c2c(c1[H])C([H])([H])C([H])([H])C([H])([H])C2([H])N([H])C(=O)C1([H])N(C(=O)C([H])(N([H])C(=O)C([H])(N([H])C([H])([H])[H])C([H])([H])[H])C(C([H])([H])[H])(C([H])([H])[H])C([H])([H])[H])C([H])([H])c2c([H])c(OC([H])([H])C([H])([H])C([H])([H])C(=O)N([H])c3c([H])c4c(c([H])c3F)N(C(=O)N3C([H])([H])C([H])([H])C([H])([H])C([H])(n5nc(-c6c([H])c([H])c(Oc7c([H])c([H])c(F)c([H])c7F)c([H])c6[H])c(C(=O)N([H])[H])c5N([H])[H])C3([H])[H])C([H])([H])C([H])([H])C4([H])[H])c([H])c([H])c2C1([H])[H]

>  <smiles>  (71) 
[H]c1c([H])c([H])c2c(c1[H])C([H])([H])C([H])([H])C([H])([H])C2([H])N([H])C(=O)C1([H])N(C(=O)C([H])(N([H])C(=O)C([H])(N([H])C([H])([H])[H])C([H])([H])[H])C(C([H])([H])[H])(C([H])([H])[H])C([H])([H])[H])C([H])([H])c2c([H])c(OC([H])([H])C([H])([H])C([H])([H])C(=O)N([H])c3c([H])c4c(c([H])c3F)N(C(=O)N3C([H])([H])C([H])([H])C([H])([H])C([H])(n5nc(-c6c([H])c([H])c(Oc7c([H])c([H])c(F)c([H])c7F)c([H])c6[H])c(C(=O)N([H])[H])c5N([H])[H])C3([H])[H])C([H])([H])C([H])([H])C4([H])[H])c([H])c([H])c2C1([H])[H]

$$$$
72:0:0
     RDKit          3D

 94103  0  0  1  0  0  0  0  0999 V2000
  -28.8630  -24.0130   19.9200 C   0  0  0  0  0  0  0  0  0  0  0  0
  -29.0170  -21.4280   18.3470 C   0  0  0  0  0  0  0  0  0  0  0  0
  -28.4680  -25.1730   20.5840 C   0  0  0  0  0  0  0  0  0  0  0  0
  -29.1310  -23.9950   18.4360 C   0  0  0  0  0  2  0  0  0  0  0  0
  -29.0850  -22.5590   20.5510 C   0  0  0  0  0  2  0  0  0  0  0  0
  -28.4460  -22.7610   17.8200 C   0  0  0  0  0  2  0  0  0  0  0  0
  -28.1490  -25.1720   22.0670 C   0  0  0  0  0  1  0  0  0  0  0  0
  -29.3160  -21.3080   19.6720 N   0  0  0  0  0  0  0  0  0  0  0  0
  -29.1860  -20.5180   17.5260 O   0  0  0  0  0  0  0  0  0  0  0  0
  -32.0750  -19.1790   21.2170 C   0  0  0  0  0  3  0  0  0  0  0  0
  -31.2670  -20.2650   20.8130 C   0  0  0  0  0  3  0  0  0  0  0  0
  -31.6920  -17.8410   20.9920 C   0  0  0  0  0  3  0  0  0  0  0  0
  -29.6540  -18.6680   19.9430 C   0  0  0  0  0  3  0  0  0  0  0  0
  -30.0360  -20.0720   20.1450 C   0  0  0  0  0  0  0  0  0  0  0  0
  -30.4610  -17.5180   20.3760 C   0  0  0  0  0  0  0  0  0  0  0  0
  -30.6670  -14.9200   20.0690 C   0  0  0  0  0  0  0  0  0  0  0  0
  -30.4400  -12.6750   18.9300 C   0  0  0  0  0  2  0  0  0  0  0  0
  -29.4210  -12.7530   17.7680 C   0  0  0  0  0  2  0  0  0  0  0  0
  -27.9700  -12.5600   18.2630 C   0  0  0  0  0  2  0  0  0  0  0  0
  -27.6730  -13.3740   19.5490 C   0  0  0  0  0  3  0  0  0  0  0  0
  -28.7990  -13.1710   20.5800 C   0  0  0  0  0  2  0  0  0  0  0  0
  -30.0380  -13.6770   19.9590 N   0  0  0  0  0  0  0  0  0  0  0  0
  -31.8050  -15.0090   19.5890 O   0  0  0  0  0  0  0  0  0  0  0  0
  -28.9310  -16.0500   21.5030 C   0  0  0  0  0  1  0  0  0  0  0  0
  -29.9850  -16.1040   20.4800 N   0  0  0  0  0  0  0  0  0  0  0  0
  -25.3300  -13.9540   20.4300 C   0  0  0  0  0  0  0  0  0  0  0  0
  -24.2850  -13.1710   20.8420 C   0  0  0  0  0  0  0  0  0  0  0  0
  -24.7390  -11.8210   20.7380 C   0  0  0  0  0  0  0  0  0  0  0  0
  -26.3560  -13.0780   20.1070 N   0  0  0  0  0  0  0  0  0  0  0  0
  -26.0080  -11.7880   20.3490 N   0  0  0  0  0  0  0  0  0  0  0  0
  -24.0170  -10.5570   20.9360 C   0  0  0  0  0  0  0  0  0  0  0  0
  -24.4520   -9.5990   21.8790 C   0  0  0  0  0  3  0  0  0  0  0  0
  -23.7320   -8.3980   22.0620 C   0  0  0  0  0  3  0  0  0  0  0  0
  -22.5640   -8.1480   21.3040 C   0  0  0  0  0  0  0  0  0  0  0  0
  -22.1480   -9.0960   20.3520 C   0  0  0  0  0  3  0  0  0  0  0  0
  -22.8670  -10.2880   20.1680 C   0  0  0  0  0  3  0  0  0  0  0  0
  -21.8180   -6.9970   21.3930 O   0  0  0  0  0  0  0  0  0  0  0  0
  -21.7070   -6.3020   22.5690 C   0  0  0  0  0  0  0  0  0  0  0  0
  -21.1700   -6.8910   23.7360 C   0  0  0  0  0  3  0  0  0  0  0  0
  -21.0080   -6.1190   24.9030 C   0  0  0  0  0  3  0  0  0  0  0  0
  -21.3760   -4.7580   24.9050 C   0  0  0  0  0  0  0  0  0  0  0  0
  -21.9050   -4.1690   23.7430 C   0  0  0  0  0  3  0  0  0  0  0  0
  -22.0680   -4.9400   22.5770 C   0  0  0  0  0  0  0  0  0  0  0  0
  -22.5590   -4.3630   21.4550 F   0  0  0  0  0  0  0  0  0  0  0  0
  -21.2120   -4.0140   26.0230 F   0  0  0  0  0  0  0  0  0  0  0  0
  -22.9100  -13.6470   21.2100 C   0  0  0  0  0  0  0  0  0  0  0  0
  -22.2300  -12.9210   22.0920 N   0  0  0  0  0  0  0  0  0  0  0  0
  -22.4510  -14.6930   20.7540 O   0  0  0  0  0  0  0  0  0  0  0  0
  -22.6130  -12.0740   22.4810 H   0  0  0  0  0  0  0  0  0  0  0  0
  -21.3100  -13.2200   22.3820 H   0  0  0  0  0  0  0  0  0  0  0  0
  -25.4760  -15.3280   20.2810 N   0  0  0  0  0  0  0  0  0  0  0  0
  -24.7130  -15.9690   20.4730 H   0  0  0  0  0  0  0  0  0  0  0  0
  -26.2920  -15.7860   19.8990 H   0  0  0  0  0  0  0  0  0  0  0  0
  -28.4490  -26.5010   20.0510 O   0  0  0  0  0  0  0  0  0  0  0  0
  -24.6290  -31.9000   23.1690 C   0  0  0  0  0  0  0  0  0  0  0  0
  -27.3150  -27.3440   20.1200 C   0  0  0  0  0  0  0  0  0  0  0  0
  -23.4510  -30.4800   21.5310 C   0  0  0  0  0  3  0  0  0  0  0  0
  -24.9260  -28.9390   20.1110 C   0  0  0  0  0  0  0  0  0  0  0  0
  -25.9890  -30.8290   21.3480 C   0  0  0  0  0  2  0  0  0  0  0  0
  -26.0910  -29.4450   20.7050 C   0  0  0  0  0  0  0  0  0  0  0  0
  -27.2900  -28.6610   20.6950 C   0  0  0  0  0  3  0  0  0  0  0  0
  -26.1240  -26.8940   19.5180 C   0  0  0  0  0  3  0  0  0  0  0  0
  -24.9450  -27.6690   19.5090 C   0  0  0  0  0  3  0  0  0  0  0  0
  -23.6780  -29.8050   20.1510 C   0  0  0  0  0  2  0  0  0  0  0  0
  -24.7090  -31.0880   22.0730 N   0  0  0  0  0  0  0  0  0  0  0  0
  -23.5400  -32.1610   23.7030 O   0  0  0  0  0  0  0  0  0  0  0  0
  -22.7990  -29.4570   22.4950 C   0  0  0  0  0  0  0  0  0  0  0  0
  -21.4690  -29.2840   22.3860 N   0  0  0  0  0  0  0  0  0  0  0  0
  -23.4860  -28.8250   23.3010 O   0  0  0  0  0  0  0  0  0  0  0  0
  -20.9740  -29.8390   21.7020 H   0  0  0  0  0  0  0  0  0  0  0  0
  -18.0960  -28.0840   22.9270 C   0  0  0  0  0  0  0  0  0  0  0  0
  -20.6590  -28.3400   23.1610 C   0  0  0  0  0  3  0  0  0  0  0  0
  -20.7540  -26.9150   22.5680 C   0  0  0  0  0  2  0  0  0  0  0  0
  -19.6360  -26.6040   21.5680 C   0  0  0  0  0  2  0  0  0  0  0  0
  -18.2620  -26.7430   22.2320 C   0  0  0  0  0  2  0  0  0  0  0  0
  -19.2220  -28.8410   23.3480 C   0  0  0  0  0  0  0  0  0  0  0  0
  -19.0110  -30.0960   23.9580 C   0  0  0  0  0  3  0  0  0  0  0  0
  -17.7090  -30.5960   24.1480 C   0  0  0  0  0  3  0  0  0  0  0  0
  -16.5990  -29.8370   23.7420 C   0  0  0  0  0  3  0  0  0  0  0  0
  -16.7920  -28.5820   23.1380 C   0  0  0  0  0  3  0  0  0  0  0  0
  -25.8990  -32.5530   23.7950 C   0  0  0  0  0  3  0  0  0  0  0  0
  -25.5680  -33.9440   24.1340 N   0  0  0  0  0  0  0  0  0  0  0  0
  -25.8960  -35.0090   23.3920 C   0  0  0  0  0  0  0  0  0  0  0  0
  -26.5820  -34.9250   22.3680 O   0  0  0  0  0  0  0  0  0  0  0  0
  -24.9630  -34.0850   24.9300 H   0  0  0  0  0  0  0  0  0  0  0  0
  -24.1670  -36.7930   23.0040 C   0  0  0  0  0  1  0  0  0  0  0  0
  -25.3820  -36.3870   23.8540 C   0  0  0  0  0  3  0  0  0  0  0  0
  -27.4750  -37.2720   24.7780 C   0  0  0  0  0  1  0  0  0  0  0  0
  -26.4110  -37.4490   23.7940 N   0  0  0  0  0  0  0  0  0  0  0  0
  -25.9940  -38.3640   23.9380 H   0  0  0  0  0  0  0  0  0  0  0  0
  -26.4260  -31.7860   25.0710 C   0  0  1  0  0  0  0  0  0  0  0  0
  -25.3330  -31.5220   26.1340 C   0  0  0  0  0  1  0  0  0  0  0  0
  -27.0350  -30.4220   24.6720 C   0  0  0  0  0  1  0  0  0  0  0  0
  -27.5600  -32.5980   25.7380 C   0  0  0  0  0  1  0  0  0  0  0  0
  1  5  1  0
  1  3  2  0
  2  8  1  0
  3  7  1  0
  4  1  1  0
  6  2  1  0
  6  4  1  0
  8 14  1  0
  8  5  1  0
  9  2  2  0
 11 10  2  0
 12 10  1  0
 13 14  2  0
 13 15  1  0
 14 11  1  0
 15 25  1  0
 15 12  2  0
 16 25  1  0
 17 22  1  0
 18 19  1  0
 18 17  1  0
 20 19  1  0
 20 29  1  0
 20 21  1  0
 22 16  1  0
 22 21  1  0
 23 16  2  0
 25 24  1  0
 26 27  2  0
 27 46  1  0
 28 27  1  0
 28 31  1  0
 29 30  1  0
 29 26  1  0
 30 28  2  0
 31 32  1  0
 32 33  2  0
 34 37  1  0
 34 33  1  0
 35 34  2  0
 36 35  1  0
 36 31  2  0
 37 38  1  0
 38 43  2  0
 38 39  1  0
 39 40  2  0
 40 41  1  0
 41 45  1  0
 42 41  2  0
 43 42  1  0
 44 43  1  0
 46 47  1  0
 47 50  1  0
 47 49  1  0
 48 46  2  0
 51 26  1  0
 51 52  1  0
 53 51  1  0
 54 56  1  0
 54  3  1  0
 55 66  2  0
 56 61  1  0
 57 65  1  0
 57 67  1  0
 58 64  1  0
 58 60  1  0
 59 65  1  0
 60 59  1  0
 61 60  2  0
 62 56  2  0
 63 62  1  0
 63 58  2  0
 64 57  1  0
 65 55  1  0
 67 69  2  0
 68 67  1  0
 70 68  1  0
 71 80  2  0
 71 76  1  0
 72 68  1  0
 72 76  1  0
 73 72  1  0
 74 75  1  0
 74 73  1  0
 75 71  1  0
 76 77  2  0
 77 78  1  0
 79 78  2  0
 80 79  1  0
 81 55  1  0
 81 82  1  0
 81 91  1  0
 82 85  1  0
 83 87  1  0
 83 82  1  0
 84 83  2  0
 87 86  1  0
 89 87  1  0
 89 90  1  0
 89 88  1  0
 91 94  1  1
 91 92  1  0
 93 91  1  0
M  ISO  4   3 101  16 100  25 100  54 101
M  END
>  <TORSDO>  (72) 
F 17

>  <SCORE>  (72) 
-14.817

>  <name>  (72) 
72

>  <ligand_id>  (72) 
72

>  <original_smiles>  (72) 
[H]c1c([H])c(N(C(=O)N2C([H])([H])C([H])([H])C([H])([H])C([H])(n3nc(-c4c([H])c([H])c(Oc5c([H])c([H])c(F)c([H])c5F)c([H])c4[H])c(C(=O)N([H])[H])c3N([H])[H])C2([H])[H])C([H])([H])[H])c([H])c(N2C(=O)C([H])([H])C([H])([H])C(=C(Oc3c([H])c([H])c4c(c3[H])C([H])([H])N(C(=O)C([H])(N([H])C(=O)C([H])(N([H])C([H])([H])[H])C([H])([H])[H])C(C([H])([H])[H])(C([H])([H])[H])C([H])([H])[H])C([H])(C(=O)N([H])C3([H])c5c([H])c([H])c([H])c([H])c5C([H])([H])C([H])([H])C3([H])[H])C4([H])[H])C([H])([H])[H])C2([H])[H])c1[H]

>  <smiles>  (72) 
[H]c1c([H])c(N(C(=O)N2C([H])([H])C([H])([H])C([H])([H])C([H])(n3nc(-c4c([H])c([H])c(Oc5c([H])c([H])c(F)c([H])c5F)c([H])c4[H])c(C(=O)N([H])[H])c3N([H])[H])C2([H])[H])C([H])([H])[H])c([H])c(N2C(=O)C([H])([H])C([H])([H])C(=C(Oc3c([H])c([H])c4c(c3[H])C([H])([H])N(C(=O)C([H])(N([H])C(=O)C([H])(N([H])C([H])([H])[H])C([H])([H])[H])C(C([H])([H])[H])(C([H])([H])[H])C([H])([H])[H])C([H])(C(=O)N([H])C3([H])c5c([H])c([H])c([H])c([H])c5C([H])([H])C([H])([H])C3([H])[H])C4([H])[H])C([H])([H])[H])C2([H])[H])c1[H]

$$$$
73:0:0
     RDKit          3D

 93102  0  0  1  0  0  0  0  0999 V2000
  -28.1760  -22.1410   19.7160 C   0  0  0  0  0  0  0  0  0  0  0  0
  -29.7080  -22.7420   20.9400 C   0  0  0  0  0  2  0  0  0  0  0  0
  -28.3900  -23.5200   20.5400 C   0  0  2  0  0  0  0  0  0  0  0  0
  -27.2940  -23.6380   21.6020 C   0  0  0  0  0  1  0  0  0  0  0  0
  -29.0960  -21.4470   20.5380 N   0  0  0  0  0  0  0  0  0  0  0  0
  -27.5680  -21.7850   18.7270 O   0  0  0  0  0  0  0  0  0  0  0  0
  -29.4150  -18.7060   20.4450 C   0  0  0  0  0  3  0  0  0  0  0  0
  -31.2040  -20.2040   20.9850 C   0  0  0  0  0  3  0  0  0  0  0  0
  -31.5970  -17.7840   20.9900 C   0  0  0  0  0  3  0  0  0  0  0  0
  -29.8340  -20.1180   20.6220 C   0  0  0  0  0  0  0  0  0  0  0  0
  -30.2650  -17.5060   20.6200 C   0  0  0  0  0  0  0  0  0  0  0  0
  -32.0550  -19.1000   21.1610 C   0  0  0  0  0  0  0  0  0  0  0  0
  -33.3460  -19.3090   21.5160 F   0  0  0  0  0  0  0  0  0  0  0  0
  -30.6110  -14.8720   20.3130 C   0  0  0  0  0  0  0  0  0  0  0  0
  -30.4190  -12.5750   19.3030 C   0  0  0  0  0  2  0  0  0  0  0  0
  -29.4660  -12.6060   18.0880 C   0  0  0  0  0  2  0  0  0  0  0  0
  -28.0080  -12.4040   18.5420 C   0  0  0  0  0  2  0  0  0  0  0  0
  -27.6320  -13.2910   19.7570 C   0  0  0  0  0  3  0  0  0  0  0  0
  -28.7090  -13.2530   20.8640 C   0  0  0  0  0  2  0  0  0  0  0  0
  -29.9800  -13.6420   20.2400 N   0  0  0  0  0  0  0  0  0  0  0  0
  -31.8010  -14.9230   19.9890 O   0  0  0  0  0  0  0  0  0  0  0  0
  -29.8580  -16.0490   20.5050 N   0  0  0  0  0  0  0  0  0  0  0  0
  -28.8670  -15.8780   20.5850 H   0  0  0  0  0  0  0  0  0  0  0  0
  -25.2570  -13.8440   20.5400 C   0  0  0  0  0  0  0  0  0  0  0  0
  -24.2060  -13.0550   20.9170 C   0  0  0  0  0  0  0  0  0  0  0  0
  -24.6800  -11.7090   20.8610 C   0  0  0  0  0  0  0  0  0  0  0  0
  -26.3040  -12.9790   20.2720 N   0  0  0  0  0  0  0  0  0  0  0  0
  -25.9660  -11.6880   20.5290 N   0  0  0  0  0  0  0  0  0  0  0  0
  -23.9680  -10.4370   21.0430 C   0  0  0  0  0  0  0  0  0  0  0  0
  -24.4130   -9.4670   21.9680 C   0  0  0  0  0  3  0  0  0  0  0  0
  -23.6980   -8.2620   22.1410 C   0  0  0  0  0  3  0  0  0  0  0  0
  -22.5250   -8.0190   21.3890 C   0  0  0  0  0  0  0  0  0  0  0  0
  -22.0990   -8.9780   20.4540 C   0  0  0  0  0  3  0  0  0  0  0  0
  -22.8140  -10.1750   20.2790 C   0  0  0  0  0  3  0  0  0  0  0  0
  -21.7810   -6.8670   21.4720 O   0  0  0  0  0  0  0  0  0  0  0  0
  -21.7300   -6.1230   22.6240 C   0  0  0  0  0  0  0  0  0  0  0  0
  -21.2680   -6.6670   23.8420 C   0  0  0  0  0  3  0  0  0  0  0  0
  -21.1660   -5.8490   24.9840 C   0  0  0  0  0  3  0  0  0  0  0  0
  -21.5190   -4.4880   24.9100 C   0  0  0  0  0  0  0  0  0  0  0  0
  -21.9750   -3.9440   23.6970 C   0  0  0  0  0  3  0  0  0  0  0  0
  -22.0780   -4.7590   22.5560 C   0  0  0  0  0  0  0  0  0  0  0  0
  -22.4980   -4.2240   21.3850 F   0  0  0  0  0  0  0  0  0  0  0  0
  -21.4150   -3.7000   26.0060 F   0  0  0  0  0  0  0  0  0  0  0  0
  -22.8090  -13.5160   21.2160 C   0  0  0  0  0  0  0  0  0  0  0  0
  -22.0980  -12.7990   22.0780 N   0  0  0  0  0  0  0  0  0  0  0  0
  -22.3570  -14.5480   20.7200 O   0  0  0  0  0  0  0  0  0  0  0  0
  -22.4760  -11.9650   22.5030 H   0  0  0  0  0  0  0  0  0  0  0  0
  -21.1610  -13.0900   22.3210 H   0  0  0  0  0  0  0  0  0  0  0  0
  -25.4040  -15.2190   20.3780 N   0  0  0  0  0  0  0  0  0  0  0  0
  -24.6300  -15.8610   20.5100 H   0  0  0  0  0  0  0  0  0  0  0  0
  -26.2290  -15.6690   20.0030 H   0  0  0  0  0  0  0  0  0  0  0  0
  -28.3820  -24.9300   19.6870 C   0  0  0  0  0  2  0  0  0  0  0  0
  -28.3110  -26.3490   20.2550 O   0  0  0  0  0  0  0  0  0  0  0  0
  -24.5830  -31.8690   23.2230 C   0  0  0  0  0  0  0  0  0  0  0  0
  -27.1970  -27.2380   20.1680 C   0  0  0  0  0  0  0  0  0  0  0  0
  -23.3860  -30.4710   21.5800 C   0  0  0  0  0  3  0  0  0  0  0  0
  -24.8410  -28.9140   20.1500 C   0  0  0  0  0  0  0  0  0  0  0  0
  -25.9310  -30.7710   21.4060 C   0  0  0  0  0  2  0  0  0  0  0  0
  -26.0130  -29.3850   20.7550 C   0  0  0  0  0  0  0  0  0  0  0  0
  -27.1900  -28.5600   20.7490 C   0  0  0  0  0  3  0  0  0  0  0  0
  -25.9940  -26.8430   19.5420 C   0  0  0  0  0  3  0  0  0  0  0  0
  -24.8410  -27.6550   19.5320 C   0  0  0  0  0  3  0  0  0  0  0  0
  -23.6060  -29.7970   20.1990 C   0  0  0  0  0  2  0  0  0  0  0  0
  -24.6530  -31.0570   22.1260 N   0  0  0  0  0  0  0  0  0  0  0  0
  -23.4980  -32.1450   23.7550 O   0  0  0  0  0  0  0  0  0  0  0  0
  -22.7200  -29.4550   22.5390 C   0  0  0  0  0  0  0  0  0  0  0  0
  -21.3930  -29.2780   22.4130 N   0  0  0  0  0  0  0  0  0  0  0  0
  -23.3970  -28.8290   23.3590 O   0  0  0  0  0  0  0  0  0  0  0  0
  -20.9040  -29.8340   21.7260 H   0  0  0  0  0  0  0  0  0  0  0  0
  -18.0150  -28.0760   22.9210 C   0  0  0  0  0  0  0  0  0  0  0  0
  -20.5750  -28.3370   23.1830 C   0  0  0  0  0  3  0  0  0  0  0  0
  -20.6750  -26.9080   22.6010 C   0  0  0  0  0  2  0  0  0  0  0  0
  -19.5700  -26.5890   21.5890 C   0  0  0  0  0  2  0  0  0  0  0  0
  -18.1900  -26.7310   22.2370 C   0  0  0  0  0  2  0  0  0  0  0  0
  -19.1350  -28.8380   23.3510 C   0  0  0  0  0  0  0  0  0  0  0  0
  -18.9160  -30.0960   23.9520 C   0  0  0  0  0  3  0  0  0  0  0  0
  -17.6120  -30.5950   24.1250 C   0  0  0  0  0  3  0  0  0  0  0  0
  -16.5070  -29.8320   23.7090 C   0  0  0  0  0  3  0  0  0  0  0  0
  -16.7090  -28.5740   23.1150 C   0  0  0  0  0  3  0  0  0  0  0  0
  -25.8600  -32.5060   23.8500 C   0  0  0  0  0  3  0  0  0  0  0  0
  -25.5490  -33.9080   24.1710 N   0  0  0  0  0  0  0  0  0  0  0  0
  -25.8840  -34.9570   23.4090 C   0  0  0  0  0  0  0  0  0  0  0  0
  -26.5560  -34.8480   22.3800 O   0  0  0  0  0  0  0  0  0  0  0  0
  -24.9530  -34.0660   24.9700 H   0  0  0  0  0  0  0  0  0  0  0  0
  -24.1630  -36.7560   23.0380 C   0  0  0  0  0  1  0  0  0  0  0  0
  -25.3980  -36.3500   23.8590 C   0  0  0  0  0  3  0  0  0  0  0  0
  -27.5270  -37.2340   24.7050 C   0  0  0  0  0  1  0  0  0  0  0  0
  -26.4350  -37.4000   23.7490 N   0  0  0  0  0  0  0  0  0  0  0  0
  -26.0310  -38.3220   23.8870 H   0  0  0  0  0  0  0  0  0  0  0  0
  -26.3650  -31.7450   25.1380 C   0  0  1  0  0  0  0  0  0  0  0  0
  -25.2620  -31.5180   26.1990 C   0  0  0  0  0  1  0  0  0  0  0  0
  -26.9480  -30.3630   24.7640 C   0  0  0  0  0  1  0  0  0  0  0  0
  -27.5110  -32.5430   25.8030 C   0  0  0  0  0  1  0  0  0  0  0  0
  1  5  1  0
  1  3  1  0
  3  2  1  0
  3  4  1  1
  5 10  1  0
  5  2  1  0
  6  1  2  0
  7 11  2  0
  7 10  1  0
  8 12  1  0
  9 12  2  0
 10  8  2  0
 11  9  1  0
 12 13  1  0
 14 22  1  0
 15 20  1  0
 16 17  1  0
 16 15  1  0
 18 17  1  0
 18 27  1  0
 18 19  1  0
 20 14  1  0
 20 19  1  0
 21 14  2  0
 22 23  1  0
 22 11  1  0
 24 25  2  0
 25 44  1  0
 26 25  1  0
 26 29  1  0
 27 28  1  0
 27 24  1  0
 28 26  2  0
 29 30  1  0
 30 31  2  0
 32 35  1  0
 32 31  1  0
 33 32  2  0
 34 33  1  0
 34 29  2  0
 35 36  1  0
 36 37  1  0
 37 38  2  0
 39 38  1  0
 39 43  1  0
 40 39  2  0
 41 36  2  0
 41 40  1  0
 42 41  1  0
 44 45  1  0
 45 48  1  0
 45 47  1  0
 46 44  2  0
 49 50  1  0
 49 24  1  0
 51 49  1  0
 52 53  1  0
 52  3  1  0
 54 65  2  0
 55 53  1  0
 55 60  1  0
 56 64  1  0
 56 66  1  0
 57 63  1  0
 57 59  1  0
 58 64  1  0
 59 58  1  0
 60 59  2  0
 61 55  2  0
 62 61  1  0
 62 57  2  0
 63 56  1  0
 64 54  1  0
 66 68  2  0
 67 66  1  0
 69 67  1  0
 70 79  2  0
 70 75  1  0
 71 67  1  0
 71 75  1  0
 72 71  1  0
 73 74  1  0
 73 72  1  0
 74 70  1  0
 75 76  2  0
 76 77  1  0
 78 77  2  0
 79 78  1  0
 80 54  1  0
 80 81  1  0
 80 90  1  0
 81 84  1  0
 82 86  1  0
 82 81  1  0
 83 82  2  0
 86 85  1  0
 88 86  1  0
 88 89  1  0
 88 87  1  0
 90 93  1  1
 90 91  1  0
 92 90  1  0
M  ISO  4  14 100  22 100  52 101  53 101
M  END
>  <TORSDO>  (73) 
F 18

>  <SCORE>  (73) 
-15.077

>  <name>  (73) 
73

>  <ligand_id>  (73) 
73

>  <original_smiles>  (73) 
[H]c1c([H])c([H])c2c(c1[H])C([H])([H])C([H])([H])C([H])([H])C2([H])N([H])C(=O)C1([H])N(C(=O)C([H])(N([H])C(=O)C([H])(N([H])C([H])([H])[H])C([H])([H])[H])C(C([H])([H])[H])(C([H])([H])[H])C([H])([H])[H])C([H])([H])c2c([H])c(OC([H])([H])C3(C([H])([H])[H])C(=O)N(c4c([H])c(F)c([H])c(N([H])C(=O)N5C([H])([H])C([H])([H])C([H])([H])C([H])(n6nc(-c7c([H])c([H])c(Oc8c([H])c([H])c(F)c([H])c8F)c([H])c7[H])c(C(=O)N([H])[H])c6N([H])[H])C5([H])[H])c4[H])C3([H])[H])c([H])c([H])c2C1([H])[H]

>  <smiles>  (73) 
[H]c1c([H])c([H])c2c(c1[H])C([H])([H])C([H])([H])C([H])([H])C2([H])N([H])C(=O)C1([H])N(C(=O)C([H])(N([H])C(=O)C([H])(N([H])C([H])([H])[H])C([H])([H])[H])C(C([H])([H])[H])(C([H])([H])[H])C([H])([H])[H])C([H])([H])c2c([H])c(OC([H])([H])C3(C([H])([H])[H])C(=O)N(c4c([H])c(F)c([H])c(N([H])C(=O)N5C([H])([H])C([H])([H])C([H])([H])C([H])(n6nc(-c7c([H])c([H])c(Oc8c([H])c([H])c(F)c([H])c8F)c([H])c7[H])c(C(=O)N([H])[H])c6N([H])[H])C5([H])[H])c4[H])C3([H])[H])c([H])c([H])c2C1([H])[H]

$$$$
74:0:0
     RDKit          3D

 97106  0  0  1  0  0  0  0  0999 V2000
  -30.5110  -21.0580   19.7960 C   0  0  0  0  0  3  0  0  0  0  0  0
  -28.2040  -23.7790   20.9180 C   0  0  0  0  0  2  0  0  0  0  0  0
  -28.7370  -22.3310   21.0870 C   0  0  0  0  0  2  0  0  0  0  0  0
  -29.9430  -23.4810   19.3640 C   0  0  0  0  0  2  0  0  0  0  0  0
  -28.5600  -24.1660   19.4690 C   0  0  1  0  0  0  0  0  0  0  0  0
  -27.5650  -23.4560   18.5020 C   0  0  0  0  0  1  0  0  0  0  0  0
  -29.7900  -22.1830   20.0610 N   0  0  0  0  0  0  0  0  0  0  0  0
  -31.5550  -21.1860   18.9790 N   0  0  0  0  0  0  0  0  0  0  0  0
  -32.0430  -20.3540   18.6940 H   0  0  0  0  0  0  0  0  0  0  0  0
  -31.9220  -22.0800   18.6980 H   0  0  0  0  0  0  0  0  0  0  0  0
  -31.3430  -18.9490   20.8570 C   0  0  0  0  0  3  0  0  0  0  0  0
  -31.2260  -17.5630   21.1180 C   0  0  0  0  0  3  0  0  0  0  0  0
  -28.8970  -17.6540   20.4470 C   0  0  0  0  0  3  0  0  0  0  0  0
  -30.2620  -19.6900   20.3160 C   0  0  0  0  0  0  0  0  0  0  0  0
  -30.0100  -16.8890   20.8670 C   0  0  0  0  0  0  0  0  0  0  0  0
  -29.0250  -19.0270   20.1370 C   0  0  0  0  0  0  0  0  0  0  0  0
  -27.9600  -19.6720   19.5990 F   0  0  0  0  0  0  0  0  0  0  0  0
  -30.6240  -14.4990   20.5070 C   0  0  0  0  0  0  0  0  0  0  0  0
  -30.3710  -12.3420   19.3300 C   0  0  0  0  0  2  0  0  0  0  0  0
  -29.4320  -12.5690   18.1260 C   0  0  0  0  0  2  0  0  0  0  0  0
  -27.9550  -12.4220   18.5480 C   0  0  0  0  0  2  0  0  0  0  0  0
  -27.6130  -13.2380   19.8210 C   0  0  0  0  0  3  0  0  0  0  0  0
  -28.6610  -12.9870   20.9290 C   0  0  0  0  0  2  0  0  0  0  0  0
  -29.9880  -13.3030   20.3740 N   0  0  0  0  0  0  0  0  0  0  0  0
  -31.7570  -14.7050   20.0600 O   0  0  0  0  0  0  0  0  0  0  0  0
  -29.8610  -15.4790   21.0420 N   0  0  0  0  0  0  0  0  0  0  0  0
  -28.9380  -15.1700   21.3050 H   0  0  0  0  0  0  0  0  0  0  0  0
  -25.2040  -13.8480   20.4940 C   0  0  0  0  0  0  0  0  0  0  0  0
  -24.1350  -13.0720   20.8620 C   0  0  0  0  0  0  0  0  0  0  0  0
  -24.6020  -11.7230   20.8430 C   0  0  0  0  0  0  0  0  0  0  0  0
  -26.2540  -12.9660   20.2840 N   0  0  0  0  0  0  0  0  0  0  0  0
  -25.8950  -11.6840   20.5480 N   0  0  0  0  0  0  0  0  0  0  0  0
  -23.8770  -10.4580   21.0330 C   0  0  0  0  0  0  0  0  0  0  0  0
  -24.3060   -9.4950   21.9720 C   0  0  0  0  0  3  0  0  0  0  0  0
  -23.5840   -8.2950   22.1470 C   0  0  0  0  0  3  0  0  0  0  0  0
  -22.4160   -8.0500   21.3850 C   0  0  0  0  0  0  0  0  0  0  0  0
  -22.0080   -9.0040   20.4360 C   0  0  0  0  0  3  0  0  0  0  0  0
  -22.7320  -10.1940   20.2580 C   0  0  0  0  0  3  0  0  0  0  0  0
  -21.6660   -6.9030   21.4720 O   0  0  0  0  0  0  0  0  0  0  0  0
  -21.6140   -6.1640   22.6270 C   0  0  0  0  0  0  0  0  0  0  0  0
  -21.1710   -6.7150   23.8480 C   0  0  0  0  0  3  0  0  0  0  0  0
  -21.0710   -5.9010   24.9940 C   0  0  0  0  0  3  0  0  0  0  0  0
  -21.3990   -4.5350   24.9190 C   0  0  0  0  0  0  0  0  0  0  0  0
  -21.8360   -3.9820   23.7020 C   0  0  0  0  0  3  0  0  0  0  0  0
  -21.9410   -4.7930   22.5580 C   0  0  0  0  0  0  0  0  0  0  0  0
  -22.3410   -4.2500   21.3820 F   0  0  0  0  0  0  0  0  0  0  0  0
  -21.2950   -3.7490   26.0160 F   0  0  0  0  0  0  0  0  0  0  0  0
  -22.7340  -13.5470   21.1180 C   0  0  0  0  0  0  0  0  0  0  0  0
  -21.9990  -12.8480   21.9770 N   0  0  0  0  0  0  0  0  0  0  0  0
  -22.2990  -14.5720   20.5960 O   0  0  0  0  0  0  0  0  0  0  0  0
  -22.3560  -12.0110   22.4130 H   0  0  0  0  0  0  0  0  0  0  0  0
  -21.0650  -13.1560   22.2060 H   0  0  0  0  0  0  0  0  0  0  0  0
  -25.3700  -15.2140   20.2980 N   0  0  0  0  0  0  0  0  0  0  0  0
  -24.6020  -15.8740   20.3660 H   0  0  0  0  0  0  0  0  0  0  0  0
  -26.2000  -15.6240   19.8930 H   0  0  0  0  0  0  0  0  0  0  0  0
  -28.6370  -25.7070   19.1310 C   0  0  0  0  0  2  0  0  0  0  0  0
  -28.4050  -26.6790   20.1770 O   0  0  0  0  0  0  0  0  0  0  0  0
  -24.6110  -31.9130   23.2620 C   0  0  0  0  0  0  0  0  0  0  0  0
  -27.2370  -27.4260   20.1670 C   0  0  0  0  0  0  0  0  0  0  0  0
  -23.4060  -30.5110   21.6260 C   0  0  0  0  0  3  0  0  0  0  0  0
  -24.8510  -28.9710   20.1970 C   0  0  0  0  0  0  0  0  0  0  0  0
  -25.9400  -30.8470   21.4350 C   0  0  0  0  0  2  0  0  0  0  0  0
  -26.0150  -29.4740   20.7910 C   0  0  0  0  0  0  0  0  0  0  0  0
  -27.2080  -28.7060   20.7810 C   0  0  0  0  0  3  0  0  0  0  0  0
  -26.0440  -26.9400   19.5840 C   0  0  0  0  0  3  0  0  0  0  0  0
  -24.8610  -27.7010   19.5990 C   0  0  0  0  0  3  0  0  0  0  0  0
  -23.6120  -29.8390   20.2450 C   0  0  0  0  0  2  0  0  0  0  0  0
  -24.6710  -31.1080   22.1630 N   0  0  0  0  0  0  0  0  0  0  0  0
  -23.5280  -32.1900   23.7970 O   0  0  0  0  0  0  0  0  0  0  0  0
  -22.7530  -29.4900   22.5820 C   0  0  0  0  0  0  0  0  0  0  0  0
  -21.4300  -29.3030   22.4450 N   0  0  0  0  0  0  0  0  0  0  0  0
  -23.4320  -28.8690   23.4040 O   0  0  0  0  0  0  0  0  0  0  0  0
  -20.9430  -29.8520   21.7490 H   0  0  0  0  0  0  0  0  0  0  0  0
  -18.0550  -28.1090   22.9300 C   0  0  0  0  0  0  0  0  0  0  0  0
  -20.6110  -28.3660   23.2110 C   0  0  0  0  0  3  0  0  0  0  0  0
  -20.7160  -26.9350   22.6370 C   0  0  0  0  0  2  0  0  0  0  0  0
  -19.6190  -26.6130   21.6160 C   0  0  0  0  0  2  0  0  0  0  0  0
  -18.2340  -26.7590   22.2560 C   0  0  0  0  0  2  0  0  0  0  0  0
  -19.1710  -28.8700   23.3640 C   0  0  0  0  0  0  0  0  0  0  0  0
  -18.9520  -30.1350   23.9530 C   0  0  0  0  0  3  0  0  0  0  0  0
  -17.6490  -30.6390   24.1100 C   0  0  0  0  0  3  0  0  0  0  0  0
  -16.5450  -29.8740   23.6940 C   0  0  0  0  0  3  0  0  0  0  0  0
  -16.7480  -28.6110   23.1110 C   0  0  0  0  0  3  0  0  0  0  0  0
  -25.8940  -32.5430   23.8810 C   0  0  0  0  0  3  0  0  0  0  0  0
  -25.5890  -33.9450   24.1980 N   0  0  0  0  0  0  0  0  0  0  0  0
  -25.9320  -34.9910   23.4340 C   0  0  0  0  0  0  0  0  0  0  0  0
  -26.6130  -34.8770   22.4110 O   0  0  0  0  0  0  0  0  0  0  0  0
  -24.9820  -34.1080   24.9870 H   0  0  0  0  0  0  0  0  0  0  0  0
  -24.2170  -36.7870   23.0430 C   0  0  0  0  0  1  0  0  0  0  0  0
  -25.4450  -36.3830   23.8760 C   0  0  0  0  0  3  0  0  0  0  0  0
  -27.5700  -37.2640   24.7350 C   0  0  0  0  0  1  0  0  0  0  0  0
  -26.4840  -37.4320   23.7720 N   0  0  0  0  0  0  0  0  0  0  0  0
  -26.0810  -38.3560   23.9050 H   0  0  0  0  0  0  0  0  0  0  0  0
  -26.4050  -31.7770   25.1640 C   0  0  1  0  0  0  0  0  0  0  0  0
  -25.3080  -31.5460   26.2280 C   0  0  0  0  0  1  0  0  0  0  0  0
  -26.9880  -30.3960   24.7810 C   0  0  0  0  0  1  0  0  0  0  0  0
  -27.5540  -32.5720   25.8250 C   0  0  0  0  0  1  0  0  0  0  0  0
  1  8  1  0
  1  7  1  0
  1 14  1  0
  2  3  1  0
  4  5  1  0
  4  7  1  0
  5  6  1  6
  5  2  1  0
  7  3  1  0
  9  8  1  0
 10  8  1  0
 11 12  1  0
 13 15  1  0
 14 11  2  0
 15 26  1  0
 15 12  2  0
 16 14  1  0
 16 13  2  0
 17 16  1  0
 18 26  1  0
 19 24  1  0
 20 21  1  0
 20 19  1  0
 22 21  1  0
 22 31  1  0
 22 23  1  0
 24 18  1  0
 24 23  1  0
 25 18  2  0
 26 27  1  0
 28 29  2  0
 29 48  1  0
 30 29  1  0
 30 33  1  0
 31 28  1  0
 31 32  1  0
 32 30  2  0
 33 34  1  0
 34 35  2  0
 36 39  1  0
 36 35  1  0
 37 36  2  0
 38 37  1  0
 38 33  2  0
 39 40  1  0
 40 41  1  0
 41 42  2  0
 43 42  1  0
 43 47  1  0
 44 43  2  0
 45 40  2  0
 45 44  1  0
 46 45  1  0
 48 49  1  0
 49 52  1  0
 49 51  1  0
 50 48  2  0
 53 54  1  0
 53 28  1  0
 55 53  1  0
 56  5  1  0
 56 57  1  0
 58 69  2  0
 59 57  1  0
 59 64  1  0
 60 68  1  0
 60 70  1  0
 61 67  1  0
 61 63  1  0
 62 68  1  0
 63 62  1  0
 64 63  2  0
 65 66  1  0
 65 59  2  0
 66 61  2  0
 67 60  1  0
 68 58  1  0
 70 72  2  0
 71 70  1  0
 73 71  1  0
 74 83  2  0
 74 79  1  0
 75 71  1  0
 75 79  1  0
 76 75  1  0
 77 78  1  0
 77 76  1  0
 78 74  1  0
 79 80  2  0
 80 81  1  0
 82 81  2  0
 83 82  1  0
 84 58  1  0
 84 85  1  0
 84 94  1  0
 85 88  1  0
 86 90  1  0
 86 85  1  0
 87 86  2  0
 90 89  1  0
 92 90  1  0
 92 93  1  0
 92 91  1  0
 94 97  1  1
 94 95  1  0
 96 94  1  0
M  ISO  4  18 100  26 100  56 101  57 101
M  END
>  <TORSDO>  (74) 
F 18

>  <SCORE>  (74) 
-15.204

>  <name>  (74) 
74

>  <ligand_id>  (74) 
74

>  <original_smiles>  (74) 
[H]c1c([H])c([H])c2c(c1[H])C([H])([H])C([H])([H])C([H])([H])C2([H])N([H])C(=O)C1([H])N(C(=O)C([H])(N([H])C(=O)C([H])(N([H])C([H])([H])[H])C([H])([H])[H])C(C([H])([H])[H])(C([H])([H])[H])C([H])([H])[H])C([H])([H])c2c([H])c(OC([H])([H])C3(C([H])([H])[H])C([H])([H])N(C(c4c([H])c([H])c(N([H])C(=O)N5C([H])([H])C([H])([H])C([H])([H])C([H])(n6nc(-c7c([H])c([H])c(Oc8c([H])c([H])c(F)c([H])c8F)c([H])c7[H])c(C(=O)N([H])[H])c6N([H])[H])C5([H])[H])c([H])c4F)=[N+]([H])[H])C([H])([H])C3([H])[H])c([H])c([H])c2C1([H])[H]

>  <smiles>  (74) 
[H]c1c([H])c([H])c2c(c1[H])C([H])([H])C([H])([H])C([H])([H])C2([H])N([H])C(=O)C1([H])N(C(=O)C([H])(N([H])C(=O)C([H])(N([H])C([H])([H])[H])C([H])([H])[H])C(C([H])([H])[H])(C([H])([H])[H])C([H])([H])[H])C([H])([H])c2c([H])c(OC([H])([H])C3(C([H])([H])[H])C([H])([H])N(C(c4c([H])c([H])c(N([H])C(=O)N5C([H])([H])C([H])([H])C([H])([H])C([H])(n6nc(-c7c([H])c([H])c(Oc8c([H])c([H])c(F)c([H])c8F)c([H])c7[H])c(C(=O)N([H])[H])c6N([H])[H])C5([H])[H])c([H])c4F)=[N+]([H])[H])C([H])([H])C3([H])[H])c([H])c([H])c2C1([H])[H]

$$$$
75:0:0
     RDKit          3D

 94103  0  0  1  0  0  0  0  0999 V2000
  -29.3840  -22.7210   20.0480 C   0  0  0  0  0  0  0  0  0  0  0  0
  -28.1580  -23.8880   18.3800 C   0  0  0  0  0  2  0  0  0  0  0  0
  -28.3560  -22.4040   18.0080 C   0  0  0  0  0  2  0  0  0  0  0  0
  -29.0920  -24.1700   19.5490 C   0  0  0  0  0  3  0  0  0  0  0  0
  -28.9860  -21.7710   19.1670 N   0  0  0  0  0  0  0  0  0  0  0  0
  -29.9740  -22.4950   21.1110 O   0  0  0  0  0  0  0  0  0  0  0  0
  -27.0650  -18.6200   19.8040 C   0  0  0  0  0  3  0  0  0  0  0  0
  -28.0580  -17.6180   19.8300 C   0  0  0  0  0  3  0  0  0  0  0  0
  -27.4090  -19.9700   19.6060 C   0  0  0  0  0  3  0  0  0  0  0  0
  -29.7500  -19.3500   19.5300 C   0  0  0  0  0  3  0  0  0  0  0  0
  -29.4220  -17.9560   19.7120 C   0  0  0  0  0  0  0  0  0  0  0  0
  -28.7460  -20.3670   19.4490 C   0  0  0  0  0  0  0  0  0  0  0  0
  -31.0270  -14.5010   19.8620 C   0  0  0  0  0  0  0  0  0  0  0  0
  -30.9080  -12.1030   19.1620 C   0  0  0  0  0  2  0  0  0  0  0  0
  -29.9340  -11.8670   17.9810 C   0  0  0  0  0  2  0  0  0  0  0  0
  -28.4700  -11.8040   18.4670 C   0  0  0  0  0  2  0  0  0  0  0  0
  -28.1300  -12.9290   19.4850 C   0  0  0  0  0  3  0  0  0  0  0  0
  -29.1780  -12.9510   20.6160 C   0  0  0  0  0  2  0  0  0  0  0  0
  -30.4630  -13.2580   19.9860 N   0  0  0  0  0  0  0  0  0  0  0  0
  -32.1600  -14.5970   19.3710 O   0  0  0  0  0  0  0  0  0  0  0  0
  -30.5310  -16.9100   19.9190 C   0  0  0  0  0  0  0  0  0  0  0  0
  -30.2230  -15.5900   20.1440 N   0  0  0  0  0  0  0  0  0  0  0  0
  -31.6950  -17.3260   19.8030 O   0  0  0  0  0  0  0  0  0  0  0  0
  -29.2730  -15.3980   20.4270 H   0  0  0  0  0  0  0  0  0  0  0  0
  -25.8610  -13.7420   20.3770 C   0  0  0  0  0  0  0  0  0  0  0  0
  -24.7410  -13.0510   20.7720 C   0  0  0  0  0  0  0  0  0  0  0  0
  -25.0750  -11.6660   20.6640 C   0  0  0  0  0  0  0  0  0  0  0  0
  -26.7900  -12.7700   20.0260 N   0  0  0  0  0  0  0  0  0  0  0  0
  -26.3340  -11.5200   20.2850 N   0  0  0  0  0  0  0  0  0  0  0  0
  -24.2610  -10.4660   20.8630 C   0  0  0  0  0  0  0  0  0  0  0  0
  -24.6080   -9.4850   21.8150 C   0  0  0  0  0  3  0  0  0  0  0  0
  -23.7940   -8.3500   22.0090 C   0  0  0  0  0  3  0  0  0  0  0  0
  -22.6140   -8.1840   21.2520 C   0  0  0  0  0  0  0  0  0  0  0  0
  -22.2750   -9.1570   20.3010 C   0  0  0  0  0  3  0  0  0  0  0  0
  -23.0880  -10.2870   20.1040 C   0  0  0  0  0  3  0  0  0  0  0  0
  -21.7830   -7.0950   21.3560 O   0  0  0  0  0  0  0  0  0  0  0  0
  -21.6190   -6.4230   22.5390 C   0  0  0  0  0  0  0  0  0  0  0  0
  -21.1580   -7.0740   23.7040 C   0  0  0  0  0  3  0  0  0  0  0  0
  -20.9450   -6.3370   24.8840 C   0  0  0  0  0  3  0  0  0  0  0  0
  -21.1760   -4.9440   24.8960 C   0  0  0  0  0  0  0  0  0  0  0  0
  -21.6230   -4.2950   23.7380 C   0  0  0  0  0  3  0  0  0  0  0  0
  -21.8410   -5.0290   22.5570 C   0  0  0  0  0  0  0  0  0  0  0  0
  -22.2500   -4.3950   21.4320 F   0  0  0  0  0  0  0  0  0  0  0  0
  -20.9590   -4.2320   26.0270 F   0  0  0  0  0  0  0  0  0  0  0  0
  -23.4130  -13.6410   21.1220 C   0  0  0  0  0  0  0  0  0  0  0  0
  -22.6680  -13.0150   22.0320 N   0  0  0  0  0  0  0  0  0  0  0  0
  -23.0230  -14.6950   20.6160 O   0  0  0  0  0  0  0  0  0  0  0  0
  -22.9700  -12.1560   22.4730 H   0  0  0  0  0  0  0  0  0  0  0  0
  -21.7670  -13.3960   22.2860 H   0  0  0  0  0  0  0  0  0  0  0  0
  -26.1510  -15.0980   20.2920 N   0  0  0  0  0  0  0  0  0  0  0  0
  -26.6050  -15.5020   19.4810 H   0  0  0  0  0  0  0  0  0  0  0  0
  -25.5370  -15.7600   20.7690 H   0  0  0  0  0  0  0  0  0  0  0  0
  -28.4810  -25.1960   20.5880 C   0  0  0  0  0  2  0  0  0  0  0  0
  -28.5610  -26.6230   20.2770 O   0  0  0  0  0  0  0  0  0  0  0  0
  -24.5710  -31.8120   23.2420 C   0  0  0  0  0  0  0  0  0  0  0  0
  -27.3870  -27.3630   20.2710 C   0  0  0  0  0  0  0  0  0  0  0  0
  -23.4490  -30.4080   21.5450 C   0  0  0  0  0  3  0  0  0  0  0  0
  -24.9830  -28.8780   20.1800 C   0  0  0  0  0  0  0  0  0  0  0  0
  -25.9830  -30.7670   21.4710 C   0  0  0  0  0  2  0  0  0  0  0  0
  -26.1080  -29.3990   20.8270 C   0  0  0  0  0  0  0  0  0  0  0  0
  -27.3080  -28.6450   20.8770 C   0  0  0  0  0  3  0  0  0  0  0  0
  -26.2480  -26.8740   19.5980 C   0  0  0  0  0  3  0  0  0  0  0  0
  -25.0470  -27.6170   19.5630 C   0  0  0  0  0  3  0  0  0  0  0  0
  -23.7340  -29.7330   20.1730 C   0  0  0  0  0  2  0  0  0  0  0  0
  -24.6800  -31.0190   22.1410 N   0  0  0  0  0  0  0  0  0  0  0  0
  -23.4690  -32.0630   23.7480 O   0  0  0  0  0  0  0  0  0  0  0  0
  -22.7710  -29.3770   22.4750 C   0  0  0  0  0  0  0  0  0  0  0  0
  -21.4480  -29.1910   22.3110 N   0  0  0  0  0  0  0  0  0  0  0  0
  -23.4370  -28.7400   23.2960 O   0  0  0  0  0  0  0  0  0  0  0  0
  -20.9690  -29.7570   21.6240 H   0  0  0  0  0  0  0  0  0  0  0  0
  -18.0630  -28.0230   22.7700 C   0  0  0  0  0  0  0  0  0  0  0  0
  -20.6200  -28.2400   23.0590 C   0  0  0  0  0  3  0  0  0  0  0  0
  -20.7080  -26.8210   22.4470 C   0  0  0  0  0  2  0  0  0  0  0  0
  -19.6100  -26.5480   21.4160 C   0  0  0  0  0  2  0  0  0  0  0  0
  -18.2270  -26.6910   22.0610 C   0  0  0  0  0  2  0  0  0  0  0  0
  -19.1870  -28.7570   23.2280 C   0  0  0  0  0  0  0  0  0  0  0  0
  -18.9830  -30.0070   23.8480 C   0  0  0  0  0  3  0  0  0  0  0  0
  -17.6850  -30.5210   24.0170 C   0  0  0  0  0  3  0  0  0  0  0  0
  -16.5730  -29.7810   23.5760 C   0  0  0  0  0  3  0  0  0  0  0  0
  -16.7640  -28.5350   22.9570 C   0  0  0  0  0  3  0  0  0  0  0  0
  -25.8230  -32.4610   23.9040 C   0  0  0  0  0  3  0  0  0  0  0  0
  -25.4910  -33.8610   24.1980 N   0  0  0  0  0  0  0  0  0  0  0  0
  -25.8450  -34.9060   23.4350 C   0  0  0  0  0  0  0  0  0  0  0  0
  -26.5530  -34.7980   22.4310 O   0  0  0  0  0  0  0  0  0  0  0  0
  -24.8600  -34.0210   24.9700 H   0  0  0  0  0  0  0  0  0  0  0  0
  -24.1130  -36.6780   22.9950 C   0  0  0  0  0  1  0  0  0  0  0  0
  -25.3310  -36.2950   23.8530 C   0  0  0  0  0  3  0  0  0  0  0  0
  -27.4300  -37.2200   24.7360 C   0  0  0  0  0  1  0  0  0  0  0  0
  -26.3570  -37.3570   23.7540 N   0  0  0  0  0  0  0  0  0  0  0  0
  -25.9390  -38.2770   23.8700 H   0  0  0  0  0  0  0  0  0  0  0  0
  -26.2960  -31.7080   25.2080 C   0  0  1  0  0  0  0  0  0  0  0  0
  -25.1630  -31.4480   26.2250 C   0  0  0  0  0  1  0  0  0  0  0  0
  -26.9230  -30.3380   24.8610 C   0  0  0  0  0  1  0  0  0  0  0  0
  -27.3960  -32.5290   25.9140 C   0  0  0  0  0  1  0  0  0  0  0  0
  1  6  2  0
  2  4  1  0
  3  2  1  0
  3  5  1  0
  4  1  1  0
  4 53  1  0
  5 12  1  0
  5  1  1  0
  7  8  1  0
  9  7  2  0
 10 11  1  0
 11  8  2  0
 11 21  1  0
 12 10  2  0
 12  9  1  0
 13 19  1  0
 13 22  1  0
 14 19  1  0
 15 16  1  0
 15 14  1  0
 17 16  1  0
 17 28  1  0
 17 18  1  0
 19 18  1  0
 20 13  2  0
 21 22  1  0
 22 24  1  0
 23 21  2  0
 25 26  2  0
 26 45  1  0
 27 26  1  0
 27 30  1  0
 28 29  1  0
 28 25  1  0
 29 27  2  0
 30 31  1  0
 31 32  2  0
 33 36  1  0
 33 32  1  0
 34 33  2  0
 35 34  1  0
 35 30  2  0
 36 37  1  0
 37 42  2  0
 37 38  1  0
 38 39  2  0
 39 40  1  0
 40 44  1  0
 41 40  2  0
 42 41  1  0
 43 42  1  0
 45 46  1  0
 46 49  1  0
 46 48  1  0
 47 45  2  0
 50 25  1  0
 50 52  1  0
 51 50  1  0
 54 53  1  0
 55 66  2  0
 56 54  1  0
 56 61  1  0
 57 65  1  0
 57 67  1  0
 58 60  1  0
 59 65  1  0
 60 61  2  0
 60 59  1  0
 62 56  2  0
 63 62  1  0
 63 58  2  0
 64 58  1  0
 64 57  1  0
 65 55  1  0
 67 69  2  0
 68 67  1  0
 70 68  1  0
 71 80  2  0
 71 76  1  0
 72 68  1  0
 72 76  1  0
 73 72  1  0
 74 75  1  0
 74 73  1  0
 75 71  1  0
 76 77  2  0
 77 78  1  0
 79 78  2  0
 80 79  1  0
 81 55  1  0
 81 82  1  0
 81 91  1  0
 82 85  1  0
 83 87  1  0
 83 82  1  0
 84 83  2  0
 87 86  1  0
 89 87  1  0
 89 90  1  0
 89 88  1  0
 91 94  1  1
 91 92  1  0
 93 91  1  0
M  ISO  4  13 100  22 100  53 101  54 101
M  END
>  <TORSDO>  (75) 
F 18

>  <SCORE>  (75) 
-14.302

>  <name>  (75) 
75

>  <ligand_id>  (75) 
75

>  <original_smiles>  (75) 
[H]c1c([H])c(C(=O)N([H])C(=O)N2C([H])([H])C([H])([H])C([H])([H])C([H])(n3nc(-c4c([H])c([H])c(Oc5c([H])c([H])c(F)c([H])c5F)c([H])c4[H])c(C(=O)N([H])[H])c3N([H])[H])C2([H])[H])c([H])c(N2C(=O)C([H])(C([H])([H])Oc3c([H])c([H])c4c(c3[H])C([H])([H])N(C(=O)C([H])(N([H])C(=O)C([H])(N([H])C([H])([H])[H])C([H])([H])[H])C(C([H])([H])[H])(C([H])([H])[H])C([H])([H])[H])C([H])(C(=O)N([H])C3([H])c5c([H])c([H])c([H])c([H])c5C([H])([H])C([H])([H])C3([H])[H])C4([H])[H])C([H])([H])C2([H])[H])c1[H]

>  <smiles>  (75) 
[H]c1c([H])c(C(=O)N([H])C(=O)N2C([H])([H])C([H])([H])C([H])([H])C([H])(n3nc(-c4c([H])c([H])c(Oc5c([H])c([H])c(F)c([H])c5F)c([H])c4[H])c(C(=O)N([H])[H])c3N([H])[H])C2([H])[H])c([H])c(N2C(=O)C([H])(C([H])([H])Oc3c([H])c([H])c4c(c3[H])C([H])([H])N(C(=O)C([H])(N([H])C(=O)C([H])(N([H])C([H])([H])[H])C([H])([H])[H])C(C([H])([H])[H])(C([H])([H])[H])C([H])([H])[H])C([H])(C(=O)N([H])C3([H])c5c([H])c([H])c([H])c([H])c5C([H])([H])C([H])([H])C3([H])[H])C4([H])[H])C([H])([H])C2([H])[H])c1[H]

$$$$
76:0:0
     RDKit          3D

 95104  0  0  1  0  0  0  0  0999 V2000
  -30.2040  -23.4730   19.3010 C   0  0  0  0  0  0  0  0  0  0  0  0
  -29.8140  -21.9780   19.1670 C   0  0  0  0  0  2  0  0  0  0  0  0
  -29.1930  -23.4250   21.6390 C   0  0  0  0  0  2  0  0  0  0  0  0
  -28.6740  -21.9970   21.3240 C   0  0  0  0  0  2  0  0  0  0  0  0
  -29.5700  -24.3470   20.4280 C   0  0  1  0  0  0  0  0  0  0  0  0
  -30.6540  -25.3370   20.9310 C   0  0  0  0  0  1  0  0  0  0  0  0
  -29.6060  -21.2830   20.4460 N   0  0  0  0  0  0  0  0  0  0  0  0
  -31.0000  -23.9620   18.4940 O   0  0  0  0  0  0  0  0  0  0  0  0
  -28.6550  -19.0500   20.9990 C   0  0  0  0  0  3  0  0  0  0  0  0
  -28.7550  -17.6390   21.0620 C   0  0  0  0  0  3  0  0  0  0  0  0
  -30.9590  -17.7410   20.0850 C   0  0  0  0  0  3  0  0  0  0  0  0
  -29.7030  -19.8530   20.4810 C   0  0  0  0  0  0  0  0  0  0  0  0
  -29.9040  -16.9510   20.6080 C   0  0  0  0  0  0  0  0  0  0  0  0
  -30.8610  -19.1590   20.0250 C   0  0  0  0  0  0  0  0  0  0  0  0
  -31.9220  -19.8540   19.5440 F   0  0  0  0  0  0  0  0  0  0  0  0
  -30.6200  -14.5430   20.0880 C   0  0  0  0  0  0  0  0  0  0  0  0
  -30.3070  -12.3830   18.9140 C   0  0  0  0  0  2  0  0  0  0  0  0
  -29.2880  -12.5970   17.7720 C   0  0  0  0  0  2  0  0  0  0  0  0
  -27.8410  -12.4450   18.2850 C   0  0  0  0  0  2  0  0  0  0  0  0
  -27.5800  -13.2510   19.5860 C   0  0  0  0  0  3  0  0  0  0  0  0
  -28.6980  -12.9950   20.6210 C   0  0  0  0  0  2  0  0  0  0  0  0
  -29.9860  -13.3370   19.9890 N   0  0  0  0  0  0  0  0  0  0  0  0
  -31.7180  -14.7550   19.5630 O   0  0  0  0  0  0  0  0  0  0  0  0
  -29.8960  -15.5090   20.7070 N   0  0  0  0  0  0  0  0  0  0  0  0
  -29.0840  -15.1290   21.1710 H   0  0  0  0  0  0  0  0  0  0  0  0
  -25.2340  -13.8540   20.4590 C   0  0  0  0  0  0  0  0  0  0  0  0
  -24.1840  -13.0790   20.8690 C   0  0  0  0  0  0  0  0  0  0  0  0
  -24.6300  -11.7250   20.7680 C   0  0  0  0  0  0  0  0  0  0  0  0
  -26.2550  -12.9720   20.1370 N   0  0  0  0  0  0  0  0  0  0  0  0
  -25.8970  -11.6850   20.3800 N   0  0  0  0  0  0  0  0  0  0  0  0
  -23.9050  -10.4620   20.9630 C   0  0  0  0  0  0  0  0  0  0  0  0
  -24.3550   -9.4880   21.8810 C   0  0  0  0  0  3  0  0  0  0  0  0
  -23.6310   -8.2900   22.0630 C   0  0  0  0  0  3  0  0  0  0  0  0
  -22.4460   -8.0570   21.3270 C   0  0  0  0  0  0  0  0  0  0  0  0
  -22.0150   -9.0220   20.3980 C   0  0  0  0  0  3  0  0  0  0  0  0
  -22.7380  -10.2110   20.2130 C   0  0  0  0  0  3  0  0  0  0  0  0
  -21.6930   -6.9110   21.4200 O   0  0  0  0  0  0  0  0  0  0  0  0
  -21.6170   -6.1920   22.5850 C   0  0  0  0  0  0  0  0  0  0  0  0
  -21.1550   -6.7700   23.7890 C   0  0  0  0  0  3  0  0  0  0  0  0
  -21.0270   -5.9770   24.9460 C   0  0  0  0  0  3  0  0  0  0  0  0
  -21.3500   -4.6070   24.9020 C   0  0  0  0  0  0  0  0  0  0  0  0
  -21.8050   -4.0290   23.7040 C   0  0  0  0  0  3  0  0  0  0  0  0
  -21.9350   -4.8200   22.5480 C   0  0  0  0  0  0  0  0  0  0  0  0
  -22.3540   -4.2530   21.3910 F   0  0  0  0  0  0  0  0  0  0  0  0
  -21.2200   -3.8430   26.0120 F   0  0  0  0  0  0  0  0  0  0  0  0
  -22.8100  -13.5570   21.2430 C   0  0  0  0  0  0  0  0  0  0  0  0
  -22.1350  -12.8420   22.1360 N   0  0  0  0  0  0  0  0  0  0  0  0
  -22.3470  -14.5980   20.7780 O   0  0  0  0  0  0  0  0  0  0  0  0
  -22.5220  -11.9990   22.5320 H   0  0  0  0  0  0  0  0  0  0  0  0
  -21.2150  -13.1430   22.4280 H   0  0  0  0  0  0  0  0  0  0  0  0
  -25.4020  -15.2290   20.3140 N   0  0  0  0  0  0  0  0  0  0  0  0
  -24.6470  -15.8840   20.4860 H   0  0  0  0  0  0  0  0  0  0  0  0
  -26.2240  -15.6680   19.9230 H   0  0  0  0  0  0  0  0  0  0  0  0
  -28.3440  -25.1930   19.8920 C   0  0  0  0  0  2  0  0  0  0  0  0
  -28.4180  -26.6300   20.1380 O   0  0  0  0  0  0  0  0  0  0  0  0
  -24.6240  -31.8410   23.2270 C   0  0  0  0  0  0  0  0  0  0  0  0
  -27.2510  -27.3850   20.1060 C   0  0  0  0  0  0  0  0  0  0  0  0
  -23.4150  -30.4570   21.5750 C   0  0  0  0  0  3  0  0  0  0  0  0
  -24.8630  -28.9300   20.1290 C   0  0  0  0  0  0  0  0  0  0  0  0
  -25.9440  -30.8040   21.3780 C   0  0  0  0  0  2  0  0  0  0  0  0
  -26.0260  -29.4370   20.7210 C   0  0  0  0  0  0  0  0  0  0  0  0
  -27.2220  -28.6750   20.7010 C   0  0  0  0  0  3  0  0  0  0  0  0
  -26.0670  -26.9080   19.4990 C   0  0  0  0  0  3  0  0  0  0  0  0
  -24.8810  -27.6670   19.5130 C   0  0  0  0  0  3  0  0  0  0  0  0
  -23.6220  -29.7930   20.1880 C   0  0  0  0  0  2  0  0  0  0  0  0
  -24.6800  -31.0490   22.1180 N   0  0  0  0  0  0  0  0  0  0  0  0
  -23.5440  -32.1100   23.7710 O   0  0  0  0  0  0  0  0  0  0  0  0
  -22.7620  -29.4280   22.5270 C   0  0  0  0  0  0  0  0  0  0  0  0
  -21.4360  -29.2530   22.4030 N   0  0  0  0  0  0  0  0  0  0  0  0
  -23.4460  -28.7920   23.3330 O   0  0  0  0  0  0  0  0  0  0  0  0
  -20.9460  -29.8190   21.7250 H   0  0  0  0  0  0  0  0  0  0  0  0
  -18.0570  -28.0730   22.9100 C   0  0  0  0  0  0  0  0  0  0  0  0
  -20.6180  -28.3090   23.1660 C   0  0  0  0  0  3  0  0  0  0  0  0
  -20.7070  -26.8870   22.5670 C   0  0  0  0  0  2  0  0  0  0  0  0
  -19.5950  -26.5880   21.5560 C   0  0  0  0  0  2  0  0  0  0  0  0
  -18.2190  -26.7320   22.2140 C   0  0  0  0  0  2  0  0  0  0  0  0
  -19.1840  -28.8210   23.3440 C   0  0  0  0  0  0  0  0  0  0  0  0
  -18.9790  -30.0770   23.9550 C   0  0  0  0  0  3  0  0  0  0  0  0
  -17.6800  -30.5840   24.1380 C   0  0  0  0  0  3  0  0  0  0  0  0
  -16.5670  -29.8340   23.7220 C   0  0  0  0  0  3  0  0  0  0  0  0
  -16.7570  -28.5810   23.1130 C   0  0  0  0  0  3  0  0  0  0  0  0
  -25.9110  -32.4650   23.8520 C   0  0  0  0  0  3  0  0  0  0  0  0
  -25.6070  -33.8630   24.1870 N   0  0  0  0  0  0  0  0  0  0  0  0
  -25.9290  -34.9160   23.4230 C   0  0  0  0  0  0  0  0  0  0  0  0
  -26.5830  -34.8130   22.3830 O   0  0  0  0  0  0  0  0  0  0  0  0
  -25.0230  -34.0170   24.9970 H   0  0  0  0  0  0  0  0  0  0  0  0
  -24.1850  -36.7010   23.1080 C   0  0  0  0  0  1  0  0  0  0  0  0
  -25.4480  -36.3030   23.8890 C   0  0  0  0  0  3  0  0  0  0  0  0
  -27.5970  -37.2020   24.6660 C   0  0  0  0  0  1  0  0  0  0  0  0
  -26.4730  -37.3600   23.7470 N   0  0  0  0  0  0  0  0  0  0  0  0
  -26.0670  -38.2790   23.8980 H   0  0  0  0  0  0  0  0  0  0  0  0
  -26.4260  -31.6860   25.1230 C   0  0  1  0  0  0  0  0  0  0  0  0
  -25.3330  -31.4460   26.1910 C   0  0  0  0  0  1  0  0  0  0  0  0
  -27.0050  -30.3090   24.7220 C   0  0  0  0  0  1  0  0  0  0  0  0
  -27.5790  -32.4740   25.7890 C   0  0  0  0  0  1  0  0  0  0  0  0
  1  5  1  0
  2  1  1  0
  2  7  1  0
  4  3  1  0
  5  6  1  1
  5  3  1  0
  7 12  1  0
  7  4  1  0
  8  1  2  0
  9 10  1  0
 11 13  1  0
 12  9  2  0
 13 24  1  0
 13 10  2  0
 14 11  2  0
 14 12  1  0
 15 14  1  0
 16 24  1  0
 17 22  1  0
 18 19  1  0
 18 17  1  0
 20 19  1  0
 20 29  1  0
 20 21  1  0
 22 16  1  0
 22 21  1  0
 23 16  2  0
 24 25  1  0
 26 27  2  0
 27 46  1  0
 28 27  1  0
 28 31  1  0
 29 30  1  0
 29 26  1  0
 30 28  2  0
 31 32  1  0
 32 33  2  0
 34 37  1  0
 34 33  1  0
 35 34  2  0
 36 35  1  0
 36 31  2  0
 37 38  1  0
 38 39  1  0
 39 40  2  0
 41 40  1  0
 41 45  1  0
 42 41  2  0
 43 38  2  0
 43 42  1  0
 44 43  1  0
 46 47  1  0
 47 50  1  0
 47 49  1  0
 48 46  2  0
 51 26  1  0
 51 52  1  0
 53 51  1  0
 54 55  1  0
 54  5  1  0
 56 67  2  0
 57 55  1  0
 57 62  1  0
 58 66  1  0
 58 68  1  0
 59 65  1  0
 59 61  1  0
 60 66  1  0
 61 60  1  0
 62 61  2  0
 63 64  1  0
 63 57  2  0
 64 59  2  0
 65 58  1  0
 66 56  1  0
 68 70  2  0
 69 68  1  0
 71 69  1  0
 72 81  2  0
 72 77  1  0
 73 69  1  0
 73 77  1  0
 74 73  1  0
 75 76  1  0
 75 74  1  0
 76 72  1  0
 77 78  2  0
 78 79  1  0
 80 79  2  0
 81 80  1  0
 82 56  1  0
 82 83  1  0
 82 92  1  0
 83 86  1  0
 84 88  1  0
 84 83  1  0
 85 84  2  0
 88 87  1  0
 90 88  1  0
 90 91  1  0
 90 89  1  0
 92 95  1  1
 92 93  1  0
 94 92  1  0
M  ISO  4  16 100  24 100  54 101  55 101
M  END
>  <TORSDO>  (76) 
F 18

>  <SCORE>  (76) 
-14.247

>  <name>  (76) 
76

>  <ligand_id>  (76) 
76

>  <original_smiles>  (76) 
[H]c1c([H])c([H])c2c(c1[H])C([H])([H])C([H])([H])C([H])([H])C2([H])N([H])C(=O)C1([H])N(C(=O)C([H])(N([H])C(=O)C([H])(N([H])C([H])([H])[H])C([H])([H])[H])C(C([H])([H])[H])(C([H])([H])[H])C([H])([H])[H])C([H])([H])c2c([H])c(OC([H])([H])C3(C([H])([H])[H])C(=O)C([H])([H])N(c4c([H])c([H])c(N([H])C(=O)N5C([H])([H])C([H])([H])C([H])([H])C([H])(n6nc(-c7c([H])c([H])c(Oc8c([H])c([H])c(F)c([H])c8F)c([H])c7[H])c(C(=O)N([H])[H])c6N([H])[H])C5([H])[H])c([H])c4F)C([H])([H])C3([H])[H])c([H])c([H])c2C1([H])[H]

>  <smiles>  (76) 
[H]c1c([H])c([H])c2c(c1[H])C([H])([H])C([H])([H])C([H])([H])C2([H])N([H])C(=O)C1([H])N(C(=O)C([H])(N([H])C(=O)C([H])(N([H])C([H])([H])[H])C([H])([H])[H])C(C([H])([H])[H])(C([H])([H])[H])C([H])([H])[H])C([H])([H])c2c([H])c(OC([H])([H])C3(C([H])([H])[H])C(=O)C([H])([H])N(c4c([H])c([H])c(N([H])C(=O)N5C([H])([H])C([H])([H])C([H])([H])C([H])(n6nc(-c7c([H])c([H])c(Oc8c([H])c([H])c(F)c([H])c8F)c([H])c7[H])c(C(=O)N([H])[H])c6N([H])[H])C5([H])[H])c([H])c4F)C([H])([H])C3([H])[H])c([H])c([H])c2C1([H])[H]

$$$$
77:0:0
     RDKit          3D

100 99  0  0  1  0  0  0  0  0999 V2000
  -22.8170  -25.1410   19.6490 C   0  0  0  0  0  2  0  0  0  0  0  0
  -24.6720  -22.8840   19.4240 C   0  0  0  0  0  3  0  0  0  0  0  0
  -22.6520  -23.0590   20.6090 C   0  0  0  0  0 15  0  0  0  0  0  0
  -24.0910  -24.3070   19.2180 C   0  0  0  0  0  0  0  0  0  0  0  0
  -21.5270  -25.0030   20.4850 C   0  0  0  0  0  1  0  0  0  0  0  0
  -24.3550  -21.6570   20.1870 C   0  0  0  0  0  1  0  0  0  0  0  0
  -27.6000  -17.9100   19.8050 C   0  0  0  0  0  2  0  0  0  0  0  0
  -29.4490  -15.2370   18.8400 C   0  0  0  0  0  2  0  0  0  0  0  0
  -29.3900  -13.7770   18.0010 C   0  0  0  0  0  2  0  0  0  0  0  0
  -28.4750  -12.7300   18.6190 C   0  0  0  0  0  2  0  0  0  0  0  0
  -27.5760  -13.6410   19.4310 C   0  0  0  0  0  3  0  0  0  0  0  0
  -28.1540  -14.7750   20.3860 C   0  0  0  0  0  2  0  0  0  0  0  0
  -28.1540  -16.1680   19.6180 N   0  0  0  0  0  0  0  0  0  0  0  0
  -28.9510  -17.8770   19.6080 O   0  0  0  0  0  1  0  0  0  0  0  0
  -26.0150  -19.5320   20.0670 N   0  0  0  0  0  1  0  0  0  0  0  0
  -26.8140  -20.1300   19.9000 H   0  0  0  0  0  0  0  0  0  0  0  0
  -25.3950  -13.9600   20.3530 C   0  0  0  0  0  0  0  0  0  0  0  0
  -24.4500  -13.1420   20.8360 C   0  0  0  0  0  0  0  0  0  0  0  0
  -24.9570  -11.8110   20.6900 C   0  0  0  0  0  0  0  0  0  0  0  0
  -26.4190  -13.1240   19.9980 N   0  0  0  0  0  0  0  0  0  0  0  0
  -26.2020  -11.8120   20.2240 N   0  0  0  0  0  0  0  0  0  0  0  0
  -24.2740  -10.5450   20.8970 C   0  0  0  0  0  0  0  0  0  0  0  0
  -24.7290   -9.6040   21.8440 C   0  0  0  0  0  3  0  0  0  0  0  0
  -24.0110   -8.4090   22.0450 C   0  0  0  0  0  3  0  0  0  0  0  0
  -22.8350   -8.1550   21.2980 C   0  0  0  0  0  0  0  0  0  0  0  0
  -22.4100   -9.0860   20.3350 C   0  0  0  0  0  3  0  0  0  0  0  0
  -23.1280  -10.2720   20.1300 C   0  0  0  0  0  3  0  0  0  0  0  0
  -22.0820   -7.0140   21.4120 O   0  0  0  0  0  0  0  0  0  0  0  0
  -21.8950   -6.3980   22.6220 C   0  0  0  0  0  0  0  0  0  0  0  0
  -21.3200   -7.0730   23.7220 C   0  0  0  0  0  3  0  0  0  0  0  0
  -21.0850   -6.3790   24.9260 C   0  0  0  0  0  3  0  0  0  0  0  0
  -21.4110   -5.0130   25.0260 C   0  0  0  0  0  0  0  0  0  0  0  0
  -21.9800   -4.3410   23.9300 C   0  0  0  0  0  3  0  0  0  0  0  0
  -22.2180   -5.0320   22.7300 C   0  0  0  0  0  0  0  0  0  0  0  0
  -22.7460   -4.3760   21.6690 F   0  0  0  0  0  0  0  0  0  0  0  0
  -21.1760   -4.3440   26.1780 F   0  0  0  0  0  0  0  0  0  0  0  0
  -23.1140  -13.6110   21.2900 C   0  0  0  0  0  0  0  0  0  0  0  0
  -22.5190  -12.9030   22.2350 N   0  0  0  0  0  0  0  0  0  0  0  0
  -22.6290  -14.6560   20.8530 O   0  0  0  0  0  0  0  0  0  0  0  0
  -22.9440  -12.0650   22.6010 H   0  0  0  0  0  0  0  0  0  0  0  0
  -21.6260  -13.2020   22.6030 H   0  0  0  0  0  0  0  0  0  0  0  0
  -25.4540  -15.3430   20.1640 N   0  0  0  0  0  0  0  0  0  0  0  0
  -24.6640  -15.9600   20.3150 H   0  0  0  0  0  0  0  0  0  0  0  0
  -26.2270  -15.7600   19.6610 H   0  0  0  0  0  0  0  0  0  0  0  0
  -16.9870  -27.5260   21.8410 C   0  0  0  0  0  0  0  0  0  0  0  0
  -17.8490  -27.8510   22.0890 C   0  0  0  0  0  2  0  0  0  0  0  0
  -16.7680  -29.0060   21.8520 C   0  0  0  0  0  3  0  0  0  0  0  0
  -16.0470  -29.5310   23.1400 C   0  0  0  0  0  1  0  0  0  0  0  0
  -15.8020  -29.3800   20.6570 C   0  0  0  0  0  1  0  0  0  0  0  0
  -19.6630  -27.0620   20.9560 N   0  0  0  0  0  1  0  0  0  0  0  0
  -15.9580  -26.7590   22.0040 O   0  0  0  0  0  1  0  0  0  0  0  0
  -25.0650  -24.9780   18.3460 C   0  0  0  0  0  0  0  0  0  0  0  0
  -24.6340  -25.8050   17.3980 N   0  0  0  0  0  4  0  0  0  0  0  0
  -26.4040  -24.7370   18.4350 N   0  0  0  0  0  0  0  0  0  0  0  0
  -23.6410  -25.9560   17.2830 H   0  0  0  0  0  0  0  0  0  0  0  0
  -25.2560  -26.3960   16.8700 H   0  0  0  0  0  0  0  0  0  0  0  0
  -26.9380  -24.8170   17.5810 H   0  0  0  0  0  0  0  0  0  0  0  0
  -27.1880  -24.2780   19.6430 C   0  0  0  0  0  2  0  0  0  0  0  0
  -28.7530  -24.5290   19.5340 C   0  0  0  0  0  2  0  0  0  0  0  0
  -29.4390  -25.3060   20.5690 O   0  0  0  0  0  0  0  0  0  0  0  0
  -28.9020  -31.0410   24.8860 C   0  0  0  0  0  0  0  0  0  0  0  0
  -29.0160  -26.6040   20.7830 C   0  0  0  0  0  0  0  0  0  0  0  0
  -27.2390  -30.7270   23.0850 C   0  0  0  0  0  3  0  0  0  0  0  0
  -27.8360  -29.1250   21.2660 C   0  0  0  0  0  0  0  0  0  0  0  0
  -29.6150  -29.7830   22.8670 C   0  0  0  0  0  2  0  0  0  0  0  0
  -29.0050  -28.7530   21.9480 C   0  0  0  0  0  0  0  0  0  0  0  0
  -29.5690  -27.4610   21.7650 C   0  0  0  0  0  3  0  0  0  0  0  0
  -28.0060  -27.1450   19.9830 C   0  0  0  0  0  3  0  0  0  0  0  0
  -27.3140  -28.3070   20.2810 C   0  0  0  0  0  3  0  0  0  0  0  0
  -27.2080  -30.4540   21.5720 C   0  0  0  0  0  2  0  0  0  0  0  0
  -28.6240  -30.5670   23.6410 N   0  0  0  0  0  0  0  0  0  0  0  0
  -28.0830  -31.7390   25.5010 O   0  0  0  0  0  0  0  0  0  0  0  0
  -26.3000  -29.7260   23.8130 C   0  0  0  0  0  0  0  0  0  0  0  0
  -25.1800  -29.2610   23.2960 N   0  0  0  0  0  0  0  0  0  0  0  0
  -26.5750  -29.2930   24.9150 O   0  0  0  0  0  0  0  0  0  0  0  0
  -24.9030  -29.5260   22.3600 H   0  0  0  0  0  0  0  0  0  0  0  0
  -21.3890  -27.5290   22.7550 C   0  0  0  0  0  1  0  0  0  0  0  0
  -24.0340  -28.7550   24.1870 C   0  0  0  0  0  3  0  0  0  0  0  0
  -23.9660  -27.2990   24.1570 C   0  0  0  0  0  2  0  0  0  0  0  0
  -22.6790  -26.3950   23.8230 C   0  0  0  0  0  2  0  0  0  0  0  0
  -21.6570  -26.2670   22.7390 C   0  0  0  0  0  2  0  0  0  0  0  0
  -22.6530  -28.9800   23.8240 C   0  0  0  0  0  1  0  0  0  0  0  0
  -23.3060  -30.5810   22.8720 C   0  0  0  0  0  1  0  0  0  0  0  0
  -23.0780  -30.7640   21.0470 C   0  0  0  0  0  2  0  0  0  0  0  0
  -22.1100  -29.4930   19.9280 C   0  0  0  0  0  1  0  0  0  0  0  0
  -21.2800  -27.7550   20.6030 C   0  0  0  0  0  1  0  0  0  0  0  0
  -30.2570  -30.7240   25.5900 C   0  0  0  0  0  3  0  0  0  0  0  0
  -30.2290  -29.3890   26.4360 C   0  0  1  0  0  0  0  0  0  0  0  0
  -29.0280  -29.2920   27.4040 C   0  0  0  0  0  1  0  0  0  0  0  0
  -30.1980  -28.1440   25.5160 C   0  0  0  0  0  1  0  0  0  0  0  0
  -31.5270  -29.2770   27.2680 C   0  0  0  0  0  1  0  0  0  0  0  0
  -30.5770  -31.8740   26.4420 N   0  0  0  0  0  0  0  0  0  0  0  0
  -31.3800  -32.8810   26.0800 C   0  0  0  0  0  0  0  0  0  0  0  0
  -31.9960  -32.8950   25.0110 O   0  0  0  0  0  0  0  0  0  0  0  0
  -30.0640  -31.9500   27.3090 H   0  0  0  0  0  0  0  0  0  0  0  0
  -30.6500  -35.2320   26.5830 C   0  0  0  0  0  1  0  0  0  0  0  0
  -31.5240  -34.0600   27.0580 C   0  0  0  0  0  3  0  0  0  0  0  0
  -33.7480  -33.5620   27.9710 C   0  0  0  0  0  1  0  0  0  0  0  0
  -32.9230  -34.5120   27.2280 N   0  0  0  0  0  0  0  0  0  0  0  0
  -32.9550  -35.4060   27.7110 H   0  0  0  0  0  0  0  0  0  0  0  0
  1  5  1  0
  2  6  1  0
  4  2  2  0
  4  1  1  0
  8 13  1  0
  9 10  1  0
  9  8  1  0
 11 10  1  0
 11 20  1  0
 11 12  1  0
 13  7  1  0
 13 12  1  0
 14  7  1  0
 16 15  1  0
 17 18  2  0
 18 37  1  0
 19 18  1  0
 19 22  1  0
 20 21  1  0
 20 17  1  0
 21 19  2  0
 22 23  1  0
 23 24  2  0
 25 28  1  0
 25 24  1  0
 26 25  2  0
 27 26  1  0
 27 22  2  0
 28 29  1  0
 29 34  2  0
 29 30  1  0
 30 31  2  0
 31 32  1  0
 32 36  1  0
 33 32  2  0
 34 33  1  0
 35 34  1  0
 37 38  1  0
 38 40  1  0
 38 41  1  0
 39 37  2  0
 42 43  1  0
 42 17  1  0
 44 42  1  0
 45 47  1  0
 45 51  1  0
 45 46  2  0
 47 48  1  0
 49 47  1  0
 52 54  1  0
 52  4  1  0
 53 52  2  0
 54 58  1  0
 55 53  1  0
 56 53  1  0
 57 54  1  0
 59 58  1  0
 59 60  1  0
 60 62  1  0
 61 72  2  0
 62 67  1  0
 63 71  1  0
 63 73  1  0
 64 70  1  0
 64 66  1  0
 65 71  1  0
 66 65  1  0
 67 66  2  0
 68 69  1  0
 68 62  2  0
 69 64  2  0
 70 63  1  0
 71 61  1  0
 73 75  2  0
 74 73  1  0
 74 78  1  0
 76 74  1  0
 78 82  1  0
 79 78  1  0
 80 79  1  0
 81 77  1  0
 81 80  1  0
 84 83  1  0
 85 84  1  0
 86 50  1  0
 87 61  1  0
 87 88  1  0
 87 92  1  0
 88 91  1  1
 88 89  1  0
 90 88  1  0
 92 95  1  0
 93 92  1  0
 93 97  1  0
 94 93  2  0
 97 96  1  0
 97 99  1  0
 99100  1  0
 99 98  1  0
M  ISO  4   7 100  15 100  59 101  60 101
M  END
>  <TORSDO>  (77) 
F 20

>  <SCORE>  (77) 
-0.858

>  <name>  (77) 
77

>  <ligand_id>  (77) 
77

>  <original_smiles>  (77) 
[H]c1c([H])c([H])c2c(c1[H])C([H])([H])C([H])([H])C([H])([H])C2([H])N([H])C(=O)C1([H])N(C(=O)C([H])(N([H])C(=O)C([H])(N([H])C([H])([H])[H])C([H])([H])[H])C(C([H])([H])[H])(C([H])([H])[H])C([H])([H])[H])C([H])([H])c2c([H])c(OC([H])([H])C([H])([H])[N+]([H])=C(c3c([H])c(N([H])C(=O)N4C([H])([H])C([H])([H])C([H])([H])C([H])(n5nc(-c6c([H])c([H])c(Oc7c([H])c([H])c(F)c([H])c7F)c([H])c6[H])c(C(=O)N([H])[H])c5N([H])[H])C4([H])[H])c([H])c(N4C(=O)C(C([H])([H])[H])(C([H])([H])[H])C4([H])[H])c3[H])N([H])[H])c([H])c([H])c2C1([H])[H]

>  <smiles>  (77) 
[H]c1c([H])c([H])c2c(c1[H])C([H])([H])C([H])([H])C([H])([H])C2([H])N([H])C(=O)C1([H])N(C(=O)C([H])(N([H])C(=O)C([H])(N([H])C([H])([H])[H])C([H])([H])[H])C(C([H])([H])[H])(C([H])([H])[H])C([H])([H])[H])C([H])([H])c2c([H])c(OC([H])([H])C([H])([H])[N+]([H])=C(c3c([H])c(N([H])C(=O)N4C([H])([H])C([H])([H])C([H])([H])C([H])(n5nc(-c6c([H])c([H])c(Oc7c([H])c([H])c(F)c([H])c7F)c([H])c6[H])c(C(=O)N([H])[H])c5N([H])[H])C4([H])[H])c([H])c(N4C(=O)C(C([H])([H])[H])(C([H])([H])[H])C4([H])[H])c3[H])N([H])[H])c([H])c([H])c2C1([H])[H]

$$$$
78:0:0
     RDKit          3D

 97 99  0  0  1  0  0  0  0  0999 V2000
  -27.8970  -26.8810   14.6940 C   0  0  0  0  0  0  0  0  0  0  0  0
  -28.0970  -27.9920   14.0000 N   0  0  0  0  0  4  0  0  0  0  0  0
  -29.2290  -26.0320   14.4790 N   0  0  0  0  0  0  0  0  0  0  0  0
  -27.4220  -28.7400   14.0570 H   0  0  0  0  0  0  0  0  0  0  0  0
  -28.9420  -28.1300   13.4790 H   0  0  0  0  0  0  0  0  0  0  0  0
  -29.1380  -25.1720   15.0100 H   0  0  0  0  0  0  0  0  0  0  0  0
  -25.8520  -27.2040   16.8970 C   0  0  0  0  0  3  0  0  0  0  0  0
  -24.7870  -27.0450   14.9880 C   0  0  0  0  0  3  0  0  0  0  0  0
  -24.5150  -27.2830   17.6800 C   0  0  0  0  0  3  0  0  0  0  0  0
  -23.4510  -27.1270   15.7700 C   0  0  0  0  0  3  0  0  0  0  0  0
  -26.2220  -27.0660   15.4320 C   0  0  0  0  0  0  0  0  0  0  0  0
  -23.0840  -27.2520   17.2320 C   0  0  0  0  0  0  0  0  0  0  0  0
  -19.8870  -27.2900   18.1250 C   0  0  0  0  0  0  0  0  0  0  0  0
  -17.3680  -26.4720   17.6650 C   0  0  0  0  0  2  0  0  0  0  0  0
  -17.2470  -24.9840   17.2130 C   0  0  0  0  0  2  0  0  0  0  0  0
  -17.6550  -24.8420   15.7370 C   0  0  0  0  0  2  0  0  0  0  0  0
  -18.8890  -25.7250   15.4380 C   0  0  0  0  0  3  0  0  0  0  0  0
  -18.7200  -27.1750   15.8700 C   0  0  0  0  0  2  0  0  0  0  0  0
  -18.7480  -27.0500   17.2860 N   0  0  0  0  0  0  0  0  0  0  0  0
  -19.3710  -27.4270   19.2750 O   0  0  0  0  0  0  0  0  0  0  0  0
  -21.4680  -27.2120   17.9330 N   0  0  0  0  0  0  0  0  0  0  0  0
  -21.6780  -27.1250   18.9160 H   0  0  0  0  0  0  0  0  0  0  0  0
  -20.1760  -24.8390   13.4840 C   0  0  0  0  0  0  0  0  0  0  0  0
  -20.2490  -25.2430   12.1870 C   0  0  0  0  0  0  0  0  0  0  0  0
  -19.4280  -26.4090   12.0870 C   0  0  0  0  0  0  0  0  0  0  0  0
  -19.3100  -25.7280   14.0800 N   0  0  0  0  0  0  0  0  0  0  0  0
  -18.9210  -26.7290   13.2640 N   0  0  0  0  0  0  0  0  0  0  0  0
  -19.0300  -27.1960   10.9240 C   0  0  0  0  0  0  0  0  0  0  0  0
  -19.2370  -28.5920   10.8670 C   0  0  0  0  0  3  0  0  0  0  0  0
  -18.8540  -29.3190    9.7220 C   0  0  0  0  0  3  0  0  0  0  0  0
  -18.2600  -28.6490    8.6260 C   0  0  0  0  0  0  0  0  0  0  0  0
  -18.0310  -27.2660    8.7030 C   0  0  0  0  0  3  0  0  0  0  0  0
  -18.4080  -26.5430    9.8440 C   0  0  0  0  0  3  0  0  0  0  0  0
  -17.8370  -29.2750    7.4790 O   0  0  0  0  0  0  0  0  0  0  0  0
  -16.7150  -28.8610    6.8100 C   0  0  0  0  0  0  0  0  0  0  0  0
  -15.4180  -29.2280    7.2300 C   0  0  0  0  0  3  0  0  0  0  0  0
  -14.2960  -28.8390    6.4700 C   0  0  0  0  0  3  0  0  0  0  0  0
  -14.4700  -28.0930    5.2890 C   0  0  0  0  0  0  0  0  0  0  0  0
  -15.7620  -27.7300    4.8680 C   0  0  0  0  0  3  0  0  0  0  0  0
  -16.8810  -28.1160    5.6260 C   0  0  0  0  0  0  0  0  0  0  0  0
  -18.1250  -27.7820    5.2060 F   0  0  0  0  0  0  0  0  0  0  0  0
  -13.3950  -27.7260    4.5540 F   0  0  0  0  0  0  0  0  0  0  0  0
  -20.9560  -24.5220   11.0840 C   0  0  0  0  0  0  0  0  0  0  0  0
  -22.1490  -24.9760   10.7260 N   0  0  0  0  0  0  0  0  0  0  0  0
  -20.4680  -23.5160   10.5690 O   0  0  0  0  0  0  0  0  0  0  0  0
  -22.5540  -25.7890   11.1660 H   0  0  0  0  0  0  0  0  0  0  0  0
  -22.6660  -24.5030    9.9980 H   0  0  0  0  0  0  0  0  0  0  0  0
  -20.7440  -23.7890   14.2000 N   0  0  0  0  0  0  0  0  0  0  0  0
  -21.3160  -23.0820   13.7530 H   0  0  0  0  0  0  0  0  0  0  0  0
  -20.5440  -23.5840   15.1700 H   0  0  0  0  0  0  0  0  0  0  0  0
  -30.5060  -26.7720   12.2370 C   0  0  0  0  0  1  0  0  0  0  0  0
  -30.8740  -24.4970   13.0970 C   0  0  0  0  0  1  0  0  0  0  0  0
  -30.8240  -25.9860   13.5450 C   0  0  0  0  0  3  0  0  0  0  0  0
  -32.7560  -26.3590   13.7640 C   0  0  0  0  0  2  0  0  0  0  0  0
  -33.1080  -26.4570   14.9490 O   0  0  0  0  0  0  0  0  0  0  0  0
  -34.3170  -26.3810   11.3710 C   0  0  0  0  0 15  0  0  0  0  0  0
  -35.2090  -28.1610   10.8020 O   0  0  0  0  0  1  0  0  0  0  0  0
  -39.4210  -27.8110    7.2690 C   0  0  0  0  0  0  0  0  0  0  0  0
  -35.9760  -29.5260   10.9990 C   0  0  0  0  0  3  0  0  0  0  0  0
  -37.9350  -26.8250    8.9360 C   0  0  0  0  0  3  0  0  0  0  0  0
  -37.8460  -27.9450   11.3230 C   0  0  0  0  0  3  0  0  0  0  0  0
  -39.3570  -28.8270    9.5460 C   0  0  0  0  0  2  0  0  0  0  0  0
  -38.2650  -29.0280   10.5640 C   0  0  0  0  0  3  0  0  0  0  0  0
  -37.2580  -29.9930   10.4710 C   0  0  0  0  0  2  0  0  0  0  0  0
  -36.2370  -29.4380   12.3690 C   0  0  0  0  0  2  0  0  0  0  0  0
  -36.9830  -28.2350   12.4350 C   0  0  0  0  0  2  0  0  0  0  0  0
  -37.8130  -26.6530   10.5210 C   0  0  0  0  0  2  0  0  0  0  0  0
  -38.9880  -27.7960    8.5570 N   0  0  0  0  0  0  0  0  0  0  0  0
  -39.0590  -26.9460    6.4560 O   0  0  0  0  0  0  0  0  0  0  0  0
  -36.6840  -27.3250    8.1660 C   0  0  0  0  0  0  0  0  0  0  0  0
  -36.7880  -28.0180    7.0720 N   0  0  0  0  0  0  0  0  0  0  0  0
  -35.5420  -27.1620    8.5620 O   0  0  0  0  0  0  0  0  0  0  0  0
  -37.6980  -28.3170    6.7460 H   0  0  0  0  0  0  0  0  0  0  0  0
  -35.7220  -30.7490    5.1670 C   0  0  0  0  0  0  0  0  0  0  0  0
  -35.7010  -27.9280    6.0680 C   0  0  0  0  0  2  0  0  0  0  0  0
  -36.1100  -26.7300    4.2470 C   0  0  0  0  0 15  0  0  0  0  0  0
  -36.6920  -28.5070    2.5540 C   0  0  0  0  0 15  0  0  0  0  0  0
  -36.3370  -30.3810    3.4940 C   0  0  0  0  0  1  0  0  0  0  0  0
  -35.5460  -29.6980    6.2410 C   0  0  0  0  0  0  0  0  0  0  0  0
  -35.2730  -30.2240    7.5970 C   0  0  0  0  0  3  0  0  0  0  0  0
  -35.0110  -31.5700    7.9860 C   0  0  0  0  0  3  0  0  0  0  0  0
  -34.9320  -32.5190    6.9630 C   0  0  0  0  0  3  0  0  0  0  0  0
  -35.2750  -32.1060    5.6210 C   0  0  0  0  0  3  0  0  0  0  0  0
  -40.4000  -28.9030    6.7740 C   0  0  0  0  0  3  0  0  0  0  0  0
  -39.7240  -29.9860    5.8490 C   0  0  1  0  0  0  0  0  0  0  0  0
  -38.6990  -30.8860    6.5770 C   0  0  0  0  0  1  0  0  0  0  0  0
  -40.7800  -30.9100    5.2030 C   0  0  0  0  0  1  0  0  0  0  0  0
  -38.9990  -29.2740    4.6830 C   0  0  0  0  0  1  0  0  0  0  0  0
  -41.4580  -28.1900    6.0560 N   0  0  0  0  0  0  0  0  0  0  0  0
  -42.5510  -27.6880    6.6390 C   0  0  0  0  0  0  0  0  0  0  0  0
  -42.8170  -27.8700    7.8310 O   0  0  0  0  0  0  0  0  0  0  0  0
  -41.2760  -27.9570    5.0910 H   0  0  0  0  0  0  0  0  0  0  0  0
  -43.7160  -25.4760    6.3820 C   0  0  0  0  0  1  0  0  0  0  0  0
  -43.5040  -26.8630    5.7570 C   0  0  0  0  0  3  0  0  0  0  0  0
  -45.0750  -27.8140    4.1310 C   0  0  0  0  0  1  0  0  0  0  0  0
  -44.8080  -27.5220    5.5370 N   0  0  0  0  0  0  0  0  0  0  0  0
  -45.5670  -26.9430    5.8890 H   0  0  0  0  0  0  0  0  0  0  0  0
  1 11  1  0
  2  4  1  0
  2  1  2  0
  3  1  1  0
  3  6  1  0
  5  2  1  0
  7  9  1  0
  8 11  1  0
  8 10  2  0
 10 12  1  0
 11  7  2  0
 12  9  2  0
 12 21  1  0
 13 20  2  0
 15 14  1  0
 16 15  1  0
 17 26  1  0
 17 16  1  0
 17 18  1  0
 18 19  1  0
 19 14  1  0
 19 13  1  0
 21 13  1  0
 21 22  1  0
 23 26  1  0
 23 48  1  0
 24 23  2  0
 25 24  1  0
 25 27  2  0
 27 26  1  0
 28 25  1  0
 29 28  1  0
 30 29  2  0
 31 32  2  0
 31 30  1  0
 32 33  1  0
 33 28  2  0
 34 31  1  0
 35 36  1  0
 35 34  1  0
 37 36  2  0
 38 37  1  0
 39 38  2  0
 39 40  1  0
 40 35  2  0
 41 40  1  0
 42 38  1  0
 43 24  1  0
 44 43  1  0
 44 46  1  0
 45 43  2  0
 47 44  1  0
 48 50  1  0
 49 48  1  0
 51 53  1  0
 52 53  1  0
 53  3  1  0
 54 55  2  0
 58 68  1  0
 59 57  1  0
 59 65  1  0
 60 70  1  0
 60 67  1  0
 61 67  1  0
 61 66  1  0
 63 62  1  0
 63 61  1  0
 64 63  1  0
 64 59  1  0
 65 66  1  0
 68 60  1  0
 68 62  1  0
 69 58  2  0
 70 72  2  0
 71 70  1  0
 73 71  1  0
 74 83  2  0
 74 79  1  0
 75 79  1  0
 75 71  1  0
 78 74  1  0
 79 80  2  0
 80 81  1  0
 82 81  2  0
 83 82  1  0
 84 58  1  0
 85 86  1  1
 85 84  1  0
 87 85  1  0
 88 85  1  0
 89 90  1  0
 89 84  1  0
 90 91  2  0
 92 89  1  0
 94 93  1  0
 94 90  1  0
 95 96  1  0
 96 94  1  0
 96 97  1  0
M  ISO  4  13 100  21 100  56 101  57 101
M  END
>  <TORSDO>  (78) 
F 20

>  <SCORE>  (78) 
-5.369

>  <name>  (78) 
78

>  <ligand_id>  (78) 
78

>  <original_smiles>  (78) 
[H]c1c([H])c([H])c2c(c1[H])C([H])([H])C([H])([H])C([H])([H])C2([H])N([H])C(=O)C1([H])N(C(=O)C([H])(N([H])C(=O)C([H])(N([H])C([H])([H])[H])C([H])([H])[H])C(C([H])([H])[H])(C([H])([H])[H])C([H])([H])[H])C([H])([H])c2c([H])c(OC([H])([H])C(=O)C([N+]([H])=C(c3c([H])c([H])c(N([H])C(=O)N4C([H])([H])C([H])([H])C([H])([H])C([H])(n5nc(-c6c([H])c([H])c(Oc7c([H])c([H])c(F)c([H])c7F)c([H])c6[H])c(C(=O)N([H])[H])c5N([H])[H])C4([H])[H])c([H])c3[H])N([H])[H])(C([H])([H])[H])C([H])([H])[H])c([H])c([H])c2C1([H])[H]

>  <smiles>  (78) 
[H]c1c([H])c([H])c2c(c1[H])C([H])([H])C([H])([H])C([H])([H])C2([H])N([H])C(=O)C1([H])N(C(=O)C([H])(N([H])C(=O)C([H])(N([H])C([H])([H])[H])C([H])([H])[H])C(C([H])([H])[H])(C([H])([H])[H])C([H])([H])[H])C([H])([H])c2c([H])c(OC([H])([H])C(=O)C([N+]([H])=C(c3c([H])c([H])c(N([H])C(=O)N4C([H])([H])C([H])([H])C([H])([H])C([H])(n5nc(-c6c([H])c([H])c(Oc7c([H])c([H])c(F)c([H])c7F)c([H])c6[H])c(C(=O)N([H])[H])c5N([H])[H])C4([H])[H])c([H])c3[H])N([H])[H])(C([H])([H])[H])C([H])([H])[H])c([H])c([H])c2C1([H])[H]

$$$$
79:0:0
     RDKit          3D

 94103  0  0  1  0  0  0  0  0999 V2000
  -30.2970  -23.8970   20.5220 C   0  0  0  0  0  3  0  0  0  0  0  0
  -29.0290  -23.8820   20.1170 C   0  0  0  0  0  0  0  0  0  0  0  0
  -28.6590  -22.4580   19.9510 C   0  0  0  0  0  0  0  0  0  0  0  0
  -30.8580  -22.4950   20.6380 C   0  0  0  0  0  2  0  0  0  0  0  0
  -29.7170  -21.6380   20.2740 N   0  0  0  0  0  0  0  0  0  0  0  0
  -27.5590  -22.0600   19.5590 O   0  0  0  0  0  0  0  0  0  0  0  0
  -28.6160  -19.3400   20.3970 C   0  0  0  0  0  3  0  0  0  0  0  0
  -31.0560  -17.9840   20.2470 C   0  0  0  0  0  3  0  0  0  0  0  0
  -29.7790  -20.1520   20.2830 C   0  0  0  0  0  0  0  0  0  0  0  0
  -29.8820  -17.1960   20.3740 C   0  0  0  0  0  0  0  0  0  0  0  0
  -28.6670  -17.9180   20.4420 C   0  0  0  0  0  0  0  0  0  0  0  0
  -31.0070  -19.4170   20.2080 C   0  0  0  0  0  0  0  0  0  0  0  0
  -27.5110  -17.2230   20.5550 F   0  0  0  0  0  0  0  0  0  0  0  0
  -32.1830  -20.0750   20.0860 F   0  0  0  0  0  0  0  0  0  0  0  0
  -30.5780  -14.7000   20.0390 C   0  0  0  0  0  0  0  0  0  0  0  0
  -30.2900  -12.4980   18.9200 C   0  0  0  0  0  2  0  0  0  0  0  0
  -29.2710  -12.6700   17.7720 C   0  0  0  0  0  2  0  0  0  0  0  0
  -27.8260  -12.5060   18.2850 C   0  0  0  0  0  2  0  0  0  0  0  0
  -27.5490  -13.3310   19.5690 C   0  0  0  0  0  3  0  0  0  0  0  0
  -28.6740  -13.1300   20.6110 C   0  0  0  0  0  2  0  0  0  0  0  0
  -29.9510  -13.4820   19.9670 N   0  0  0  0  0  0  0  0  0  0  0  0
  -31.7160  -14.8660   19.5910 O   0  0  0  0  0  0  0  0  0  0  0  0
  -29.7950  -15.7360   20.4670 N   0  0  0  0  0  0  0  0  0  0  0  0
  -28.8900  -15.4250   20.7870 H   0  0  0  0  0  0  0  0  0  0  0  0
  -25.2040  -13.9250   20.4410 C   0  0  0  0  0  0  0  0  0  0  0  0
  -24.1530  -13.1490   20.8470 C   0  0  0  0  0  0  0  0  0  0  0  0
  -24.6030  -11.7970   20.7550 C   0  0  0  0  0  0  0  0  0  0  0  0
  -26.2290  -13.0460   20.1260 N   0  0  0  0  0  0  0  0  0  0  0  0
  -25.8750  -11.7590   20.3730 N   0  0  0  0  0  0  0  0  0  0  0  0
  -23.8800  -10.5340   20.9530 C   0  0  0  0  0  0  0  0  0  0  0  0
  -24.3250   -9.5640   21.8780 C   0  0  0  0  0  3  0  0  0  0  0  0
  -23.6010   -8.3660   22.0630 C   0  0  0  0  0  3  0  0  0  0  0  0
  -22.4170   -8.1310   21.3260 C   0  0  0  0  0  0  0  0  0  0  0  0
  -21.9910   -9.0900   20.3900 C   0  0  0  0  0  3  0  0  0  0  0  0
  -22.7140  -10.2790   20.2020 C   0  0  0  0  0  3  0  0  0  0  0  0
  -21.6650   -6.9850   21.4200 O   0  0  0  0  0  0  0  0  0  0  0  0
  -21.5860   -6.2720   22.5890 C   0  0  0  0  0  0  0  0  0  0  0  0
  -21.1070   -6.8500   23.7850 C   0  0  0  0  0  3  0  0  0  0  0  0
  -20.9760   -6.0630   24.9450 C   0  0  0  0  0  3  0  0  0  0  0  0
  -21.3130   -4.6960   24.9110 C   0  0  0  0  0  0  0  0  0  0  0  0
  -21.7830   -4.1160   23.7200 C   0  0  0  0  0  3  0  0  0  0  0  0
  -21.9160   -4.9020   22.5610 C   0  0  0  0  0  0  0  0  0  0  0  0
  -22.3500   -4.3340   21.4110 F   0  0  0  0  0  0  0  0  0  0  0  0
  -21.1790   -3.9370   26.0230 F   0  0  0  0  0  0  0  0  0  0  0  0
  -22.7770  -13.6280   21.2140 C   0  0  0  0  0  0  0  0  0  0  0  0
  -22.0960  -12.9140   22.1030 N   0  0  0  0  0  0  0  0  0  0  0  0
  -22.3180  -14.6700   20.7470 O   0  0  0  0  0  0  0  0  0  0  0  0
  -22.4800  -12.0730   22.5050 H   0  0  0  0  0  0  0  0  0  0  0  0
  -21.1760  -13.2190   22.3890 H   0  0  0  0  0  0  0  0  0  0  0  0
  -25.3610  -15.2990   20.2960 N   0  0  0  0  0  0  0  0  0  0  0  0
  -24.6080  -15.9460   20.5030 H   0  0  0  0  0  0  0  0  0  0  0  0
  -26.2230  -15.7750   20.0540 H   0  0  0  0  0  0  0  0  0  0  0  0
  -28.0510  -25.0630   19.7940 C   0  0  0  0  0  2  0  0  0  0  0  0
  -28.3490  -26.4840   20.1190 O   0  0  0  0  0  0  0  0  0  0  0  0
  -24.6320  -31.8630   23.2350 C   0  0  0  0  0  0  0  0  0  0  0  0
  -27.2450  -27.3640   20.0780 C   0  0  0  0  0  0  0  0  0  0  0  0
  -23.4280  -30.4950   21.5730 C   0  0  0  0  0  3  0  0  0  0  0  0
  -24.8780  -28.9850   20.1130 C   0  0  0  0  0  0  0  0  0  0  0  0
  -25.9690  -30.8180   21.3930 C   0  0  0  0  0  2  0  0  0  0  0  0
  -26.0500  -29.4540   20.7190 C   0  0  0  0  0  0  0  0  0  0  0  0
  -27.2360  -28.6550   20.6960 C   0  0  0  0  0  3  0  0  0  0  0  0
  -26.0440  -26.9650   19.4380 C   0  0  0  0  0  3  0  0  0  0  0  0
  -24.8770  -27.7450   19.4650 C   0  0  0  0  0  3  0  0  0  0  0  0
  -23.6410  -29.8540   20.1800 C   0  0  0  0  0  2  0  0  0  0  0  0
  -24.6960  -31.0740   22.1230 N   0  0  0  0  0  0  0  0  0  0  0  0
  -23.5490  -32.1280   23.7750 O   0  0  0  0  0  0  0  0  0  0  0  0
  -22.7700  -29.4570   22.5120 C   0  0  0  0  0  0  0  0  0  0  0  0
  -21.4430  -29.2810   22.3870 N   0  0  0  0  0  0  0  0  0  0  0  0
  -23.4510  -28.8120   23.3140 O   0  0  0  0  0  0  0  0  0  0  0  0
  -20.9510  -29.8530   21.7140 H   0  0  0  0  0  0  0  0  0  0  0  0
  -18.0630  -28.0920   22.8900 C   0  0  0  0  0  0  0  0  0  0  0  0
  -20.6260  -28.3300   23.1430 C   0  0  0  0  0  3  0  0  0  0  0  0
  -20.7130  -26.9120   22.5320 C   0  0  0  0  0  2  0  0  0  0  0  0
  -19.6000  -26.6200   21.5200 C   0  0  0  0  0  2  0  0  0  0  0  0
  -18.2260  -26.7580   22.1810 C   0  0  0  0  0  2  0  0  0  0  0  0
  -19.1910  -28.8370   23.3280 C   0  0  0  0  0  0  0  0  0  0  0  0
  -18.9840  -30.0870   23.9520 C   0  0  0  0  0  3  0  0  0  0  0  0
  -17.6830  -30.5910   24.1420 C   0  0  0  0  0  3  0  0  0  0  0  0
  -16.5710  -29.8430   23.7190 C   0  0  0  0  0  3  0  0  0  0  0  0
  -16.7620  -28.5950   23.0990 C   0  0  0  0  0  3  0  0  0  0  0  0
  -25.9140  -32.4860   23.8670 C   0  0  0  0  0  3  0  0  0  0  0  0
  -25.6100  -33.8830   24.2010 N   0  0  0  0  0  0  0  0  0  0  0  0
  -25.9240  -34.9360   23.4330 C   0  0  0  0  0  0  0  0  0  0  0  0
  -26.5710  -34.8320   22.3880 O   0  0  0  0  0  0  0  0  0  0  0  0
  -25.0310  -34.0380   25.0140 H   0  0  0  0  0  0  0  0  0  0  0  0
  -24.1740  -36.7180   23.1300 C   0  0  0  0  0  1  0  0  0  0  0  0
  -25.4450  -36.3250   23.9000 C   0  0  0  0  0  3  0  0  0  0  0  0
  -27.6010  -37.2290   24.6540 C   0  0  0  0  0  1  0  0  0  0  0  0
  -26.4670  -37.3830   23.7450 N   0  0  0  0  0  0  0  0  0  0  0  0
  -26.0590  -38.3020   23.8970 H   0  0  0  0  0  0  0  0  0  0  0  0
  -26.4180  -31.7060   25.1430 C   0  0  1  0  0  0  0  0  0  0  0  0
  -25.3170  -31.4690   26.2020 C   0  0  0  0  0  1  0  0  0  0  0  0
  -26.9970  -30.3260   24.7480 C   0  0  0  0  0  1  0  0  0  0  0  0
  -27.5700  -32.4910   25.8140 C   0  0  0  0  0  1  0  0  0  0  0  0
  1  4  1  0
  2  1  2  0
  3  2  1  0
  3  5  1  0
  5  9  1  0
  5  4  1  0
  6  3  2  0
  7 11  1  0
  8 10  1  0
  9  7  2  0
 10 11  2  0
 10 23  1  0
 11 13  1  0
 12  8  2  0
 12  9  1  0
 14 12  1  0
 15 23  1  0
 16 21  1  0
 17 18  1  0
 17 16  1  0
 19 18  1  0
 19 28  1  0
 19 20  1  0
 21 15  1  0
 21 20  1  0
 22 15  2  0
 23 24  1  0
 25 26  2  0
 26 45  1  0
 27 26  1  0
 27 30  1  0
 28 29  1  0
 28 25  1  0
 29 27  2  0
 30 31  1  0
 31 32  2  0
 33 36  1  0
 33 32  1  0
 34 33  2  0
 35 34  1  0
 35 30  2  0
 36 37  1  0
 37 38  1  0
 38 39  2  0
 40 39  1  0
 40 44  1  0
 41 40  2  0
 42 37  2  0
 42 41  1  0
 43 42  1  0
 45 46  1  0
 46 49  1  0
 46 48  1  0
 47 45  2  0
 50 25  1  0
 50 51  1  0
 52 50  1  0
 53  2  1  0
 53 54  1  0
 55 66  2  0
 56 54  1  0
 56 61  1  0
 57 65  1  0
 57 67  1  0
 58 64  1  0
 58 60  1  0
 59 65  1  0
 60 59  1  0
 61 60  2  0
 62 63  1  0
 62 56  2  0
 63 58  2  0
 64 57  1  0
 65 55  1  0
 67 69  2  0
 68 67  1  0
 70 68  1  0
 71 80  2  0
 71 76  1  0
 72 68  1  0
 72 76  1  0
 73 72  1  0
 74 75  1  0
 74 73  1  0
 75 71  1  0
 76 77  2  0
 77 78  1  0
 79 78  2  0
 80 79  1  0
 81 55  1  0
 81 82  1  0
 81 91  1  0
 82 85  1  0
 83 87  1  0
 83 82  1  0
 84 83  2  0
 87 86  1  0
 89 90  1  0
 89 87  1  0
 89 88  1  0
 91 94  1  1
 91 92  1  0
 93 91  1  0
M  ISO  4  15 100  23 100  53 101  54 101
M  END
>  <TORSDO>  (79) 
F 18

>  <SCORE>  (79) 
-14.977

>  <name>  (79) 
79

>  <ligand_id>  (79) 
79

>  <original_smiles>  (79) 
[H]C1=C(C([H])([H])Oc2c([H])c([H])c3c(c2[H])C([H])([H])N(C(=O)C([H])(N([H])C(=O)C([H])(N([H])C([H])([H])[H])C([H])([H])[H])C(C([H])([H])[H])(C([H])([H])[H])C([H])([H])[H])C([H])(C(=O)N([H])C2([H])c4c([H])c([H])c([H])c([H])c4C([H])([H])C([H])([H])C2([H])[H])C3([H])[H])C(=O)N(c2c([H])c(F)c(N([H])C(=O)N3C([H])([H])C([H])([H])C([H])([H])C([H])(n4nc(-c5c([H])c([H])c(Oc6c([H])c([H])c(F)c([H])c6F)c([H])c5[H])c(C(=O)N([H])[H])c4N([H])[H])C3([H])[H])c([H])c2F)C1([H])[H]

>  <smiles>  (79) 
[H]C1=C(C([H])([H])Oc2c([H])c([H])c3c(c2[H])C([H])([H])N(C(=O)C([H])(N([H])C(=O)C([H])(N([H])C([H])([H])[H])C([H])([H])[H])C(C([H])([H])[H])(C([H])([H])[H])C([H])([H])[H])C([H])(C(=O)N([H])C2([H])c4c([H])c([H])c([H])c([H])c4C([H])([H])C([H])([H])C2([H])[H])C3([H])[H])C(=O)N(c2c([H])c(F)c(N([H])C(=O)N3C([H])([H])C([H])([H])C([H])([H])C([H])(n4nc(-c5c([H])c([H])c(Oc6c([H])c([H])c(F)c([H])c6F)c([H])c5[H])c(C(=O)N([H])[H])c4N([H])[H])C3([H])[H])c([H])c2F)C1([H])[H]

$$$$
80:0:0
     RDKit          3D

 96105  0  0  1  0  0  0  0  0999 V2000
  -29.1710  -17.7700   21.2770 C   0  0  0  0  0  3  0  0  0  0  0  0
  -30.8070  -16.2170   20.4980 C   0  0  0  0  0  3  0  0  0  0  0  0
  -29.9620  -17.9570   18.8940 C   0  0  0  0  0  0  0  0  0  0  0  0
  -29.0770  -18.3120   19.9870 C   0  0  0  0  0  0  0  0  0  0  0  0
  -30.6500  -16.6100   19.1370 C   0  0  0  0  0  0  0  0  0  0  0  0
  -30.1040  -16.7850   21.5550 C   0  0  0  0  0  0  0  0  0  0  0  0
  -30.2490  -16.3050   22.8140 F   0  0  0  0  0  0  0  0  0  0  0  0
  -31.7760  -14.2190   18.5520 C   0  0  0  0  0  0  0  0  0  0  0  0
  -31.4420  -11.7170   18.4450 C   0  0  0  0  0  2  0  0  0  0  0  0
  -30.3460  -11.3500   17.4190 C   0  0  0  0  0  2  0  0  0  0  0  0
  -28.9580  -11.3670   18.0830 C   0  0  0  0  0  2  0  0  0  0  0  0
  -28.7400  -12.6280   18.9600 C   0  0  0  0  0  3  0  0  0  0  0  0
  -29.9460  -12.9320   19.8680 C   0  0  0  0  0  2  0  0  0  0  0  0
  -31.1170  -13.0690   18.9920 N   0  0  0  0  0  0  0  0  0  0  0  0
  -32.9220  -14.0610   18.1240 O   0  0  0  0  0  0  0  0  0  0  0  0
  -31.1390  -15.4720   18.2740 N   0  0  0  0  0  0  0  0  0  0  0  0
  -31.4530  -15.8180   17.3780 H   0  0  0  0  0  0  0  0  0  0  0  0
  -26.7800  -13.6060   20.2760 C   0  0  0  0  0  0  0  0  0  0  0  0
  -25.6420  -13.0470   20.7870 C   0  0  0  0  0  0  0  0  0  0  0  0
  -25.7260  -11.6490   20.5060 C   0  0  0  0  0  0  0  0  0  0  0  0
  -27.4930  -12.5650   19.7120 N   0  0  0  0  0  0  0  0  0  0  0  0
  -26.8810  -11.3670   19.9120 N   0  0  0  0  0  0  0  0  0  0  0  0
  -24.7480  -10.5730   20.7150 C   0  0  0  0  0  0  0  0  0  0  0  0
  -25.0190   -9.4800   21.5680 C   0  0  0  0  0  3  0  0  0  0  0  0
  -24.0530   -8.4710   21.7690 C   0  0  0  0  0  3  0  0  0  0  0  0
  -22.7990   -8.5490   21.1190 C   0  0  0  0  0  0  0  0  0  0  0  0
  -22.5420   -9.6280   20.2540 C   0  0  0  0  0  3  0  0  0  0  0  0
  -23.5070  -10.6280   20.0510 C   0  0  0  0  0  3  0  0  0  0  0  0
  -21.8090   -7.6030   21.2340 O   0  0  0  0  0  0  0  0  0  0  0  0
  -21.5640   -6.9590   22.4200 C   0  0  0  0  0  0  0  0  0  0  0  0
  -21.1960   -7.6610   23.5890 C   0  0  0  0  0  3  0  0  0  0  0  0
  -20.8860   -6.9540   24.7670 C   0  0  0  0  0  3  0  0  0  0  0  0
  -20.9320   -5.5480   24.7780 C   0  0  0  0  0  0  0  0  0  0  0  0
  -21.2930   -4.8460   23.6160 C   0  0  0  0  0  3  0  0  0  0  0  0
  -21.6060   -5.5500   22.4390 C   0  0  0  0  0  0  0  0  0  0  0  0
  -21.9320   -4.8670   21.3150 F   0  0  0  0  0  0  0  0  0  0  0  0
  -20.6250   -4.8680   25.9090 F   0  0  0  0  0  0  0  0  0  0  0  0
  -24.4930  -13.7830   21.4130 C   0  0  0  0  0  0  0  0  0  0  0  0
  -23.8030  -13.1530   22.3580 N   0  0  0  0  0  0  0  0  0  0  0  0
  -24.2300  -14.9420   21.0980 O   0  0  0  0  0  0  0  0  0  0  0  0
  -24.0330  -12.2080   22.6300 H   0  0  0  0  0  0  0  0  0  0  0  0
  -23.0350  -13.6220   22.8160 H   0  0  0  0  0  0  0  0  0  0  0  0
  -27.2550  -14.9130   20.2180 N   0  0  0  0  0  0  0  0  0  0  0  0
  -26.7300  -15.6980   20.5860 H   0  0  0  0  0  0  0  0  0  0  0  0
  -28.1240  -15.1890   19.7770 H   0  0  0  0  0  0  0  0  0  0  0  0
  -30.5920  -20.5770   18.3140 C   0  0  0  0  0  2  0  0  0  0  0  0
  -30.0560  -21.9490   17.7220 C   0  0  0  0  0  2  0  0  0  0  0  0
  -29.8070  -20.6310   15.6940 C   0  0  0  0  0  2  0  0  0  0  0  0
  -29.8930  -19.2410   17.8060 C   0  0  0  0  0  3  0  0  0  0  0  0
  -30.2150  -22.1350   16.1810 C   0  0  0  0  0  3  0  0  0  0  0  0
  -30.2900  -19.3690   16.4010 O   0  0  0  0  0  0  0  0  0  0  0  0
  -29.4460  -23.5000   15.5290 C   0  0  0  0  0  2  0  0  0  0  0  0
  -29.5570  -25.0210   15.8580 O   0  0  0  0  0  0  0  0  0  0  0  0
  -24.3690  -27.7750   20.3130 C   0  0  0  0  0  0  0  0  0  0  0  0
  -28.3910  -25.8570   16.0460 C   0  0  0  0  0  0  0  0  0  0  0  0
  -23.8460  -27.6000   17.9130 C   0  0  0  0  0  3  0  0  0  0  0  0
  -25.8420  -27.2260   16.3390 C   0  0  0  0  0  0  0  0  0  0  0  0
  -26.2760  -27.9690   18.6740 C   0  0  0  0  0  2  0  0  0  0  0  0
  -26.7520  -27.2430   17.4040 C   0  0  0  0  0  0  0  0  0  0  0  0
  -28.0270  -26.5760   17.2560 C   0  0  0  0  0  3  0  0  0  0  0  0
  -27.4540  -25.9690   14.9950 C   0  0  0  0  0  3  0  0  0  0  0  0
  -26.2080  -26.6120   15.1340 C   0  0  0  0  0  3  0  0  0  0  0  0
  -24.4870  -27.8850   16.5290 C   0  0  0  0  0  2  0  0  0  0  0  0
  -24.8330  -27.7670   19.0270 N   0  0  0  0  0  0  0  0  0  0  0  0
  -23.1600  -27.6640   20.5680 O   0  0  0  0  0  0  0  0  0  0  0  0
  -23.1790  -26.2010   17.8900 C   0  0  0  0  0  0  0  0  0  0  0  0
  -22.0750  -26.0600   17.1370 N   0  0  0  0  0  0  0  0  0  0  0  0
  -23.6700  -25.2650   18.5270 O   0  0  0  0  0  0  0  0  0  0  0  0
  -21.7260  -26.8740   16.6510 H   0  0  0  0  0  0  0  0  0  0  0  0
  -19.2960  -24.5690   15.3540 C   0  0  0  0  0  0  0  0  0  0  0  0
  -21.3230  -24.8180   16.9400 C   0  0  0  0  0  3  0  0  0  0  0  0
  -22.0640  -23.8660   15.9730 C   0  0  0  0  0  2  0  0  0  0  0  0
  -21.6210  -24.0220   14.5140 C   0  0  0  0  0  2  0  0  0  0  0  0
  -20.1200  -23.7460   14.3780 C   0  0  0  0  0  2  0  0  0  0  0  0
  -19.8640  -25.0840   16.5480 C   0  0  0  0  0  0  0  0  0  0  0  0
  -19.0610  -25.8690   17.4040 C   0  0  0  0  0  3  0  0  0  0  0  0
  -17.7180  -26.1400   17.0840 C   0  0  0  0  0  3  0  0  0  0  0  0
  -17.1570  -25.6160   15.9060 C   0  0  0  0  0  3  0  0  0  0  0  0
  -17.9430  -24.8280   15.0470 C   0  0  0  0  0  3  0  0  0  0  0  0
  -25.3350  -27.9440   21.5260 C   0  0  0  0  0  3  0  0  0  0  0  0
  -25.8610  -26.5690   22.0960 C   0  0  1  0  0  0  0  0  0  0  0  0
  -24.7370  -25.5500   22.4010 C   0  0  0  0  0  1  0  0  0  0  0  0
  -26.8410  -25.9010   21.1050 C   0  0  0  0  0  1  0  0  0  0  0  0
  -26.6540  -26.8120   23.4010 C   0  0  0  0  0  1  0  0  0  0  0  0
  -24.6130  -28.6880   22.5710 N   0  0  0  0  0  0  0  0  0  0  0  0
  -24.8480  -29.9660   22.9000 C   0  0  0  0  0  0  0  0  0  0  0  0
  -25.7520  -30.6310   22.3870 O   0  0  0  0  0  0  0  0  0  0  0  0
  -23.8220  -28.2240   22.9910 H   0  0  0  0  0  0  0  0  0  0  0  0
  -22.9060  -31.5200   23.2820 C   0  0  0  0  0  1  0  0  0  0  0  0
  -23.9370  -30.6080   23.9650 C   0  0  0  0  0  3  0  0  0  0  0  0
  -25.4660  -30.5380   25.8850 C   0  0  0  0  0  1  0  0  0  0  0  0
  -24.6780  -31.3790   24.9880 N   0  0  0  0  0  0  0  0  0  0  0  0
  -24.0420  -31.9350   25.5520 H   0  0  0  0  0  0  0  0  0  0  0  0
  -28.0320  -19.2440   19.8750 N   0  0  0  0  0  0  0  0  0  0  0  0
  -27.3100  -19.2500   20.5870 H   0  0  0  0  0  0  0  0  0  0  0  0
  -27.6650  -19.4640   18.9550 H   0  0  0  0  0  0  0  0  0  0  0  0
  1  6  1  0
  2  6  2  0
  3  5  2  0
  3  4  1  0
  4  1  2  0
  5  2  1  0
  6  7  1  0
  8 14  1  0
  9 14  1  0
 10 11  1  0
 10  9  1  0
 12 11  1  0
 12 21  1  0
 12 13  1  0
 14 13  1  0
 15  8  2  0
 16  8  1  0
 16  5  1  0
 17 16  1  0
 18 19  2  0
 19 38  1  0
 20 23  1  0
 20 19  1  0
 21 22  1  0
 21 18  1  0
 22 20  2  0
 23 24  1  0
 24 25  2  0
 26 29  1  0
 26 25  1  0
 27 26  2  0
 28 27  1  0
 28 23  2  0
 29 30  1  0
 30 35  2  0
 30 31  1  0
 31 32  2  0
 32 33  1  0
 33 37  1  0
 34 33  2  0
 35 34  1  0
 36 35  1  0
 38 39  1  0
 39 41  1  0
 39 42  1  0
 40 38  2  0
 43 18  1  0
 43 44  1  0
 45 43  1  0
 47 46  1  0
 48 50  1  0
 48 51  1  0
 49 46  1  0
 49  3  1  0
 50 52  1  0
 50 47  1  0
 51 49  1  0
 52 53  1  0
 53 55  1  0
 54 65  2  0
 55 60  1  0
 56 66  1  0
 56 64  1  0
 57 63  1  0
 57 59  1  0
 58 64  1  0
 59 58  1  0
 60 59  2  0
 61 62  1  0
 61 55  2  0
 62 57  2  0
 63 56  1  0
 64 54  1  0
 66 68  2  0
 67 66  1  0
 69 67  1  0
 70 75  1  0
 71 67  1  0
 72 71  1  0
 73 72  1  0
 74 73  1  0
 74 70  1  0
 75 71  1  0
 75 76  2  0
 77 76  1  0
 78 77  2  0
 79 70  2  0
 79 78  1  0
 80 54  1  0
 80 81  1  0
 80 85  1  0
 81 82  1  1
 81 84  1  0
 83 81  1  0
 85 86  1  0
 85 88  1  0
 86 90  1  0
 87 86  2  0
 90 89  1  0
 90 92  1  0
 92 93  1  0
 92 91  1  0
 94  4  1  0
 94 95  1  0
 96 94  1  0
M  ISO  4   8 100  16 100  52 101  53 101
M  END
>  <TORSDO>  (80) 
F 19

>  <SCORE>  (80) 
-8.777

>  <name>  (80) 
80

>  <ligand_id>  (80) 
80

>  <original_smiles>  (80) 
[H]c1c([H])c([H])c2c(c1[H])C([H])([H])C([H])([H])C([H])([H])C2([H])N([H])C(=O)C1([H])N(C(=O)C([H])(N([H])C(=O)C([H])(N([H])C([H])([H])[H])C([H])([H])[H])C(C([H])([H])[H])(C([H])([H])[H])C([H])([H])[H])C([H])([H])c2c([H])c(OC([H])([H])C3([H])C([H])([H])OC([H])(c4c(N([H])[H])c([H])c(F)c([H])c4N([H])C(=O)N4C([H])([H])C([H])([H])C([H])([H])C([H])(n5nc(-c6c([H])c([H])c(Oc7c([H])c([H])c(F)c([H])c7F)c([H])c6[H])c(C(=O)N([H])[H])c5N([H])[H])C4([H])[H])C([H])([H])C3([H])[H])c([H])c([H])c2C1([H])[H]

>  <smiles>  (80) 
[H]c1c([H])c([H])c2c(c1[H])C([H])([H])C([H])([H])C([H])([H])C2([H])N([H])C(=O)C1([H])N(C(=O)C([H])(N([H])C(=O)C([H])(N([H])C([H])([H])[H])C([H])([H])[H])C(C([H])([H])[H])(C([H])([H])[H])C([H])([H])[H])C([H])([H])c2c([H])c(OC([H])([H])C3([H])C([H])([H])OC([H])(c4c(N([H])[H])c([H])c(F)c([H])c4N([H])C(=O)N4C([H])([H])C([H])([H])C([H])([H])C([H])(n5nc(-c6c([H])c([H])c(Oc7c([H])c([H])c(F)c([H])c7F)c([H])c6[H])c(C(=O)N([H])[H])c5N([H])[H])C4([H])[H])C([H])([H])C3([H])[H])c([H])c([H])c2C1([H])[H]

$$$$
81:0:0
     RDKit          3D

 97106  0  0  1  0  0  0  0  0999 V2000
  -29.2790  -22.0520   19.3640 C   0  0  0  0  0  3  0  0  0  0  0  0
  -29.0830  -23.4020   19.3630 C   0  0  0  0  0  0  0  0  0  0  0  0
  -29.5590  -23.3930   21.8050 C   0  0  0  0  0  2  0  0  0  0  0  0
  -30.3570  -22.0860   21.5660 C   0  0  0  0  0  2  0  0  0  0  0  0
  -29.4230  -24.3140   20.5560 C   0  0  1  0  0  0  0  0  0  0  0  0
  -30.7710  -25.0100   20.2800 C   0  0  0  0  0  1  0  0  0  0  0  0
  -29.8490  -21.3240   20.4150 N   0  0  0  0  0  0  0  0  0  0  0  0
  -29.1980  -17.6320   19.8520 C   0  0  0  0  0  3  0  0  0  0  0  0
  -29.1270  -19.0420   19.7330 C   0  0  0  0  0  3  0  0  0  0  0  0
  -30.9480  -19.2580   21.2950 C   0  0  0  0  0  3  0  0  0  0  0  0
  -30.1220  -17.0000   20.7190 C   0  0  0  0  0  0  0  0  0  0  0  0
  -31.0230  -17.8450   21.4260 C   0  0  0  0  0  0  0  0  0  0  0  0
  -29.9810  -19.8990   20.4740 C   0  0  0  0  0  0  0  0  0  0  0  0
  -32.0720  -17.2640   22.3660 C   0  0  0  0  0  1  0  0  0  0  0  0
  -30.0320  -15.5130   20.9860 C   0  0  0  0  0  0  0  0  0  0  0  0
  -29.6910  -15.1330   22.1480 N   0  0  0  0  0  0  0  0  0  0  0  0
  -29.4920  -15.9320   22.7350 H   0  0  0  0  0  0  0  0  0  0  0  0
  -30.4480  -14.5440   19.8560 C   0  0  0  0  0  0  0  0  0  0  0  0
  -30.0420  -12.4630   18.5670 C   0  0  0  0  0  2  0  0  0  0  0  0
  -28.9570  -12.6920   17.4920 C   0  0  0  0  0  2  0  0  0  0  0  0
  -27.5470  -12.4760   18.0750 C   0  0  0  0  0  2  0  0  0  0  0  0
  -27.3430  -13.2280   19.4150 C   0  0  0  0  0  3  0  0  0  0  0  0
  -28.5170  -12.9410   20.3710 C   0  0  0  0  0  2  0  0  0  0  0  0
  -29.7690  -13.3580   19.7120 N   0  0  0  0  0  0  0  0  0  0  0  0
  -31.3960  -14.8480   19.1230 O   0  0  0  0  0  0  0  0  0  0  0  0
  -25.0220  -13.7420   20.3990 C   0  0  0  0  0  0  0  0  0  0  0  0
  -24.0250  -12.9280   20.8630 C   0  0  0  0  0  0  0  0  0  0  0  0
  -24.5170  -11.5930   20.7400 C   0  0  0  0  0  0  0  0  0  0  0  0
  -26.0590  -12.9000   20.0270 N   0  0  0  0  0  0  0  0  0  0  0  0
  -25.7640  -11.6010   20.2860 N   0  0  0  0  0  0  0  0  0  0  0  0
  -23.8540  -10.3040   20.9740 C   0  0  0  0  0  0  0  0  0  0  0  0
  -24.3400   -9.3860   21.9310 C   0  0  0  0  0  3  0  0  0  0  0  0
  -23.6760   -8.1600   22.1480 C   0  0  0  0  0  3  0  0  0  0  0  0
  -22.5120   -7.8430   21.4090 C   0  0  0  0  0  0  0  0  0  0  0  0
  -22.0440   -8.7500   20.4420 C   0  0  0  0  0  3  0  0  0  0  0  0
  -22.7110   -9.9680   20.2230 C   0  0  0  0  0  3  0  0  0  0  0  0
  -21.8140   -6.6660   21.5350 O   0  0  0  0  0  0  0  0  0  0  0  0
  -21.7160   -6.0110   22.7370 C   0  0  0  0  0  0  0  0  0  0  0  0
  -21.1590   -6.6280   23.8780 C   0  0  0  0  0  3  0  0  0  0  0  0
  -21.0150   -5.8960   25.0730 C   0  0  0  0  0  3  0  0  0  0  0  0
  -21.4180   -4.5490   25.1280 C   0  0  0  0  0  0  0  0  0  0  0  0
  -21.9680   -3.9310   23.9910 C   0  0  0  0  0  3  0  0  0  0  0  0
  -22.1150   -4.6610   22.7980 C   0  0  0  0  0  0  0  0  0  0  0  0
  -22.6270   -4.0550   21.6990 F   0  0  0  0  0  0  0  0  0  0  0  0
  -21.2720   -3.8440   26.2730 F   0  0  0  0  0  0  0  0  0  0  0  0
  -22.6540  -13.3540   21.3050 C   0  0  0  0  0  0  0  0  0  0  0  0
  -22.0560  -12.6230   22.2400 N   0  0  0  0  0  0  0  0  0  0  0  0
  -22.1260  -14.3700   20.8570 O   0  0  0  0  0  0  0  0  0  0  0  0
  -22.4970  -11.8010   22.6230 H   0  0  0  0  0  0  0  0  0  0  0  0
  -21.1430  -12.8930   22.5790 H   0  0  0  0  0  0  0  0  0  0  0  0
  -25.1260  -15.1210   20.2470 N   0  0  0  0  0  0  0  0  0  0  0  0
  -24.3580  -15.7470   20.4620 H   0  0  0  0  0  0  0  0  0  0  0  0
  -25.9250  -15.6000   19.8510 H   0  0  0  0  0  0  0  0  0  0  0  0
  -28.2600  -23.4020   17.1120 C   0  0  0  0  0  1  0  0  0  0  0  0
  -28.5290  -24.1070   18.3180 O   0  0  0  0  0  0  0  0  0  0  0  0
  -28.3090  -25.3950   20.8460 C   0  0  0  0  0  2  0  0  0  0  0  0
  -28.4630  -26.7150   20.2620 O   0  0  0  0  0  0  0  0  0  0  0  0
  -24.6410  -31.9870   23.2590 C   0  0  0  0  0  0  0  0  0  0  0  0
  -27.3100  -27.4840   20.2500 C   0  0  0  0  0  0  0  0  0  0  0  0
  -23.4450  -30.5520   21.6370 C   0  0  0  0  0  3  0  0  0  0  0  0
  -24.9100  -28.9990   20.2370 C   0  0  0  0  0  0  0  0  0  0  0  0
  -25.9720  -30.9140   21.4390 C   0  0  0  0  0  2  0  0  0  0  0  0
  -26.0670  -29.5320   20.8190 C   0  0  0  0  0  0  0  0  0  0  0  0
  -27.2740  -28.7840   20.8190 C   0  0  0  0  0  3  0  0  0  0  0  0
  -26.1360  -26.9790   19.6520 C   0  0  0  0  0  3  0  0  0  0  0  0
  -24.9410  -27.7230   19.6490 C   0  0  0  0  0  3  0  0  0  0  0  0
  -23.6610  -29.8530   20.2690 C   0  0  0  0  0  2  0  0  0  0  0  0
  -24.7030  -31.1680   22.1690 N   0  0  0  0  0  0  0  0  0  0  0  0
  -23.5570  -32.2610   23.7930 O   0  0  0  0  0  0  0  0  0  0  0  0
  -22.7950  -29.5450   22.6130 C   0  0  0  0  0  0  0  0  0  0  0  0
  -21.4740  -29.3450   22.4780 N   0  0  0  0  0  0  0  0  0  0  0  0
  -23.4780  -28.9430   23.4460 O   0  0  0  0  0  0  0  0  0  0  0  0
  -20.9830  -29.8830   21.7790 H   0  0  0  0  0  0  0  0  0  0  0  0
  -18.1170  -28.0890   22.9420 C   0  0  0  0  0  0  0  0  0  0  0  0
  -20.6620  -28.4130   23.2600 C   0  0  0  0  0  3  0  0  0  0  0  0
  -20.8090  -26.9690   22.7290 C   0  0  0  0  0  2  0  0  0  0  0  0
  -19.7380  -26.5890   21.7030 C   0  0  0  0  0  2  0  0  0  0  0  0
  -18.3380  -26.7230   22.3110 C   0  0  0  0  0  2  0  0  0  0  0  0
  -19.2100  -28.8880   23.3720 C   0  0  0  0  0  0  0  0  0  0  0  0
  -18.9510  -30.1630   23.9190 C   0  0  0  0  0  3  0  0  0  0  0  0
  -17.6330  -30.6410   24.0430 C   0  0  0  0  0  3  0  0  0  0  0  0
  -16.5550  -29.8390   23.6300 C   0  0  0  0  0  3  0  0  0  0  0  0
  -16.7980  -28.5660   23.0850 C   0  0  0  0  0  3  0  0  0  0  0  0
  -25.9210  -32.6340   23.8710 C   0  0  0  0  0  3  0  0  0  0  0  0
  -26.4550  -31.8720   25.1450 C   0  0  1  0  0  0  0  0  0  0  0  0
  -25.3690  -31.6160   26.2170 C   0  0  0  0  0  1  0  0  0  0  0  0
  -27.0590  -30.5050   24.7510 C   0  0  0  0  0  1  0  0  0  0  0  0
  -27.5920  -32.6880   25.8050 C   0  0  0  0  0  1  0  0  0  0  0  0
  -25.6000  -34.0300   24.1980 N   0  0  0  0  0  0  0  0  0  0  0  0
  -25.9220  -35.0820   23.4340 C   0  0  0  0  0  0  0  0  0  0  0  0
  -26.5900  -34.9810   22.4010 O   0  0  0  0  0  0  0  0  0  0  0  0
  -25.0100  -34.1840   25.0030 H   0  0  0  0  0  0  0  0  0  0  0  0
  -24.1750  -36.8550   23.0730 C   0  0  0  0  0  1  0  0  0  0  0  0
  -25.4200  -36.4670   23.8870 C   0  0  0  0  0  3  0  0  0  0  0  0
  -27.5450  -37.3750   24.7180 C   0  0  0  0  0  1  0  0  0  0  0  0
  -26.4430  -37.5300   23.7720 N   0  0  0  0  0  0  0  0  0  0  0  0
  -26.0270  -38.4450   23.9200 H   0  0  0  0  0  0  0  0  0  0  0  0
  1  7  1  0
  2  1  2  0
  2  5  1  0
  4  3  1  0
  5  6  1  6
  5 56  1  0
  5  3  1  0
  7 13  1  0
  7  4  1  0
  8 11  1  0
  9  8  2  0
  9 13  1  0
 10 12  1  0
 11 15  1  0
 11 12  2  0
 12 14  1  0
 13 10  2  0
 15 16  2  0
 16 17  1  0
 18 15  1  0
 19 24  1  0
 20 21  1  0
 20 19  1  0
 22 21  1  0
 22 29  1  0
 22 23  1  0
 24 18  1  0
 24 23  1  0
 25 18  2  0
 26 27  2  0
 27 46  1  0
 28 27  1  0
 28 31  1  0
 29 30  1  0
 29 26  1  0
 30 28  2  0
 31 32  1  0
 32 33  2  0
 34 37  1  0
 34 33  1  0
 35 34  2  0
 36 35  1  0
 36 31  2  0
 37 38  1  0
 38 43  2  0
 38 39  1  0
 39 40  2  0
 40 41  1  0
 41 45  1  0
 42 41  2  0
 43 42  1  0
 44 43  1  0
 46 47  1  0
 47 50  1  0
 47 49  1  0
 48 46  2  0
 51 26  1  0
 51 52  1  0
 53 51  1  0
 54 55  1  0
 55  2  1  0
 57 56  1  0
 58 69  2  0
 59 57  1  0
 59 64  1  0
 60 68  1  0
 60 70  1  0
 61 67  1  0
 61 63  1  0
 62 68  1  0
 63 62  1  0
 64 63  2  0
 65 59  2  0
 66 65  1  0
 66 61  2  0
 67 60  1  0
 68 58  1  0
 70 72  2  0
 71 70  1  0
 73 71  1  0
 74 83  2  0
 74 79  1  0
 75 71  1  0
 75 79  1  0
 76 75  1  0
 77 78  1  0
 77 76  1  0
 78 74  1  0
 79 80  2  0
 80 81  1  0
 82 81  2  0
 83 82  1  0
 84 58  1  0
 84 89  1  0
 84 85  1  0
 85 88  1  1
 85 86  1  0
 87 85  1  0
 89 92  1  0
 90 94  1  0
 90 89  1  0
 91 90  2  0
 94 93  1  0
 96 94  1  0
 96 97  1  0
 96 95  1  0
M  ISO  4  15 100  18 100  56 101  57 101
M  END
>  <TORSDO>  (81) 
F 20

>  <SCORE>  (81) 
-11.467

>  <name>  (81) 
81

>  <ligand_id>  (81) 
81

>  <original_smiles>  (81) 
[H]N=C(C(=O)N1C([H])([H])C([H])([H])C([H])([H])C([H])(n2nc(-c3c([H])c([H])c(Oc4c([H])c([H])c(F)c([H])c4F)c([H])c3[H])c(C(=O)N([H])[H])c2N([H])[H])C1([H])[H])c1c([H])c([H])c(N2C([H])=C(OC([H])([H])[H])C(C([H])([H])[H])(C([H])([H])Oc3c([H])c([H])c4c(c3[H])C([H])([H])N(C(=O)C([H])(N([H])C(=O)C([H])(N([H])C([H])([H])[H])C([H])([H])[H])C(C([H])([H])[H])(C([H])([H])[H])C([H])([H])[H])C([H])(C(=O)N([H])C3([H])c5c([H])c([H])c([H])c([H])c5C([H])([H])C([H])([H])C3([H])[H])C4([H])[H])C([H])([H])C2([H])[H])c([H])c1C([H])([H])[H]

>  <smiles>  (81) 
[H]N=C(C(=O)N1C([H])([H])C([H])([H])C([H])([H])C([H])(n2nc(-c3c([H])c([H])c(Oc4c([H])c([H])c(F)c([H])c4F)c([H])c3[H])c(C(=O)N([H])[H])c2N([H])[H])C1([H])[H])c1c([H])c([H])c(N2C([H])=C(OC([H])([H])[H])C(C([H])([H])[H])(C([H])([H])Oc3c([H])c([H])c4c(c3[H])C([H])([H])N(C(=O)C([H])(N([H])C(=O)C([H])(N([H])C([H])([H])[H])C([H])([H])[H])C(C([H])([H])[H])(C([H])([H])[H])C([H])([H])[H])C([H])(C(=O)N([H])C3([H])c5c([H])c([H])c([H])c([H])c5C([H])([H])C([H])([H])C3([H])[H])C4([H])[H])C([H])([H])C2([H])[H])c([H])c1C([H])([H])[H]

$$$$
82:0:0
     RDKit          3D

 97106  0  0  1  0  0  0  0  0999 V2000
  -31.2290  -19.3060   20.0540 C   0  0  0  0  0  3  0  0  0  0  0  0
  -30.6560  -20.5970   20.0750 C   0  0  0  0  0  3  0  0  0  0  0  0
  -28.4930  -19.5790   20.4430 C   0  0  0  0  0  3  0  0  0  0  0  0
  -30.4620  -18.1250   20.2190 C   0  0  0  0  0  0  0  0  0  0  0  0
  -29.2650  -20.7680   20.2230 C   0  0  0  0  0  0  0  0  0  0  0  0
  -29.0710  -18.2740   20.4640 C   0  0  0  0  0  0  0  0  0  0  0  0
  -31.0830  -14.4870   19.5770 C   0  0  0  0  0  0  0  0  0  0  0  0
  -30.5940  -12.2550   18.6340 C   0  0  0  0  0  2  0  0  0  0  0  0
  -29.5530  -12.3550   17.5090 C   0  0  0  0  0  2  0  0  0  0  0  0
  -28.1450  -12.1820   18.0990 C   0  0  0  0  0  2  0  0  0  0  0  0
  -27.8950  -13.1540   19.2840 C   0  0  0  0  0  3  0  0  0  0  0  0
  -29.0560  -13.1290   20.3070 C   0  0  0  0  0  2  0  0  0  0  0  0
  -30.3170  -13.3520   19.5830 N   0  0  0  0  0  0  0  0  0  0  0  0
  -32.1690  -14.4930   18.9950 O   0  0  0  0  0  0  0  0  0  0  0  0
  -31.2150  -16.8040   20.2250 C   0  0  0  0  0  0  0  0  0  0  0  0
  -30.5360  -15.6340   20.0550 N   0  0  0  0  0  0  0  0  0  0  0  0
  -32.4430  -16.8690   20.3550 O   0  0  0  0  0  0  0  0  0  0  0  0
  -29.5410  -15.6530   20.2020 H   0  0  0  0  0  0  0  0  0  0  0  0
  -25.6320  -13.8120   20.3080 C   0  0  0  0  0  0  0  0  0  0  0  0
  -24.5830  -13.0610   20.7680 C   0  0  0  0  0  0  0  0  0  0  0  0
  -24.9800  -11.6960   20.6190 C   0  0  0  0  0  0  0  0  0  0  0  0
  -26.6030  -12.9020   19.9150 N   0  0  0  0  0  0  0  0  0  0  0  0
  -26.2200  -11.6220   20.1560 N   0  0  0  0  0  0  0  0  0  0  0  0
  -24.2270  -10.4550   20.8390 C   0  0  0  0  0  0  0  0  0  0  0  0
  -24.6590   -9.4820   21.7670 C   0  0  0  0  0  3  0  0  0  0  0  0
  -23.9130   -8.3020   21.9680 C   0  0  0  0  0  3  0  0  0  0  0  0
  -22.7170   -8.0890   21.2430 C   0  0  0  0  0  0  0  0  0  0  0  0
  -22.3050   -9.0470   20.3010 C   0  0  0  0  0  3  0  0  0  0  0  0
  -23.0520  -10.2200   20.0970 C   0  0  0  0  0  3  0  0  0  0  0  0
  -21.9360   -6.9650   21.3590 O   0  0  0  0  0  0  0  0  0  0  0  0
  -21.8020   -6.3000   22.5520 C   0  0  0  0  0  0  0  0  0  0  0  0
  -21.2690   -6.9240   23.7000 C   0  0  0  0  0  3  0  0  0  0  0  0
  -21.0870   -6.1820   24.8840 C   0  0  0  0  0  3  0  0  0  0  0  0
  -21.4280   -4.8160   24.9200 C   0  0  0  0  0  0  0  0  0  0  0  0
  -21.9550   -4.1920   23.7770 C   0  0  0  0  0  3  0  0  0  0  0  0
  -22.1410   -4.9320   22.5950 C   0  0  0  0  0  0  0  0  0  0  0  0
  -22.6280   -4.3190   21.4890 F   0  0  0  0  0  0  0  0  0  0  0  0
  -21.2450   -4.0990   26.0550 F   0  0  0  0  0  0  0  0  0  0  0  0
  -23.2530  -13.5760   21.2340 C   0  0  0  0  0  0  0  0  0  0  0  0
  -22.6210  -12.8770   22.1720 N   0  0  0  0  0  0  0  0  0  0  0  0
  -22.7850  -14.6280   20.8010 O   0  0  0  0  0  0  0  0  0  0  0  0
  -23.0120  -12.0240   22.5420 H   0  0  0  0  0  0  0  0  0  0  0  0
  -21.7330  -13.2010   22.5230 H   0  0  0  0  0  0  0  0  0  0  0  0
  -25.8450  -15.1800   20.1740 N   0  0  0  0  0  0  0  0  0  0  0  0
  -25.1430  -15.8800   20.3830 H   0  0  0  0  0  0  0  0  0  0  0  0
  -26.7050  -15.5870   19.8250 H   0  0  0  0  0  0  0  0  0  0  0  0
  -28.4630  -24.1900   18.1730 C   0  0  0  0  0  3  0  0  0  0  0  0
  -29.0350  -24.4920   19.3540 C   0  0  0  0  0  0  0  0  0  0  0  0
  -27.8320  -22.8520   17.8620 C   0  0  0  0  0  2  0  0  0  0  0  0
  -29.2270  -23.3760   20.4270 C   0  0  0  0  0  2  0  0  0  0  0  0
  -27.5120  -22.0610   19.1480 C   0  0  0  0  0  2  0  0  0  0  0  0
  -28.6420  -22.0470   20.0730 N   0  0  0  0  0  0  0  0  0  0  0  0
  -29.6070  -25.9130   19.5860 C   0  0  0  0  0  2  0  0  0  0  0  0
  -28.9250  -26.7590   20.5240 O   0  0  0  0  0  0  0  0  0  0  0  0
  -24.7260  -31.6950   23.2420 C   0  0  0  0  0  0  0  0  0  0  0  0
  -27.7530  -27.4520   20.2600 C   0  0  0  0  0  0  0  0  0  0  0  0
  -23.6910  -30.3230   21.4540 C   0  0  0  0  0  3  0  0  0  0  0  0
  -25.3100  -28.8990   20.0670 C   0  0  0  0  0  0  0  0  0  0  0  0
  -26.1990  -30.7820   21.4470 C   0  0  0  0  0  2  0  0  0  0  0  0
  -26.3830  -29.4300   20.7850 C   0  0  0  0  0  0  0  0  0  0  0  0
  -27.5930  -28.7060   20.8910 C   0  0  0  0  0  3  0  0  0  0  0  0
  -26.6790  -26.9560   19.4830 C   0  0  0  0  0  3  0  0  0  0  0  0
  -25.4600  -27.6670   19.3990 C   0  0  0  0  0  3  0  0  0  0  0  0
  -24.0280  -29.7140   20.0600 C   0  0  0  0  0  2  0  0  0  0  0  0
  -24.8850  -30.9460   22.1120 N   0  0  0  0  0  0  0  0  0  0  0  0
  -23.6020  -31.9070   23.7150 O   0  0  0  0  0  0  0  0  0  0  0  0
  -23.0080  -29.2460   22.3220 C   0  0  0  0  0  0  0  0  0  0  0  0
  -21.6820  -29.1060   22.1610 N   0  0  0  0  0  0  0  0  0  0  0  0
  -23.6670  -28.5490   23.0990 O   0  0  0  0  0  0  0  0  0  0  0  0
  -21.2120  -29.7160   21.5080 H   0  0  0  0  0  0  0  0  0  0  0  0
  -18.2640  -28.0110   22.5520 C   0  0  0  0  0  0  0  0  0  0  0  0
  -20.8320  -28.1300   22.8370 C   0  0  0  0  0  3  0  0  0  0  0  0
  -20.8730  -26.7620   22.1100 C   0  0  0  0  0  2  0  0  0  0  0  0
  -19.7540  -26.5900   21.0810 C   0  0  0  0  0  2  0  0  0  0  0  0
  -18.3780  -26.7330   21.7400 C   0  0  0  0  0  2  0  0  0  0  0  0
  -19.4170  -28.6780   23.0500 C   0  0  0  0  0  0  0  0  0  0  0  0
  -19.2540  -29.8860   23.7640 C   0  0  0  0  0  3  0  0  0  0  0  0
  -17.9720  -30.4230   23.9890 C   0  0  0  0  0  3  0  0  0  0  0  0
  -16.8380  -29.7500   23.5060 C   0  0  0  0  0  3  0  0  0  0  0  0
  -16.9830  -28.5480   22.7910 C   0  0  0  0  0  3  0  0  0  0  0  0
  -25.9420  -32.3380   23.9840 C   0  0  0  0  0  3  0  0  0  0  0  0
  -26.3490  -31.5590   25.2950 C   0  0  1  0  0  0  0  0  0  0  0  0
  -25.1690  -31.2950   26.2590 C   0  0  0  0  0  1  0  0  0  0  0  0
  -26.9810  -30.1960   24.9320 C   0  0  0  0  0  1  0  0  0  0  0  0
  -27.4220  -32.3580   26.0730 C   0  0  0  0  0  1  0  0  0  0  0  0
  -25.5870  -33.7300   24.2920 N   0  0  0  0  0  0  0  0  0  0  0  0
  -25.9630  -34.7840   23.5570 C   0  0  0  0  0  0  0  0  0  0  0  0
  -26.7080  -34.6910   22.5780 O   0  0  0  0  0  0  0  0  0  0  0  0
  -24.9200  -33.8790   25.0360 H   0  0  0  0  0  0  0  0  0  0  0  0
  -24.2120  -36.5350   23.1010 C   0  0  0  0  0  1  0  0  0  0  0  0
  -25.4240  -36.1640   23.9740 C   0  0  0  0  0  3  0  0  0  0  0  0
  -27.4890  -37.1150   24.9010 C   0  0  0  0  0  1  0  0  0  0  0  0
  -26.4360  -37.2390   23.8980 N   0  0  0  0  0  0  0  0  0  0  0  0
  -26.0000  -38.1520   24.0030 H   0  0  0  0  0  0  0  0  0  0  0  0
  -28.2610  -17.1600   20.7530 N   0  0  0  0  0  0  0  0  0  0  0  0
  -27.3140  -17.2990   21.0960 H   0  0  0  0  0  0  0  0  0  0  0  0
  -28.6960  -16.3760   21.2300 H   0  0  0  0  0  0  0  0  0  0  0  0
  1  2  2  0
  1  4  1  0
  2  5  1  0
  3  6  1  0
  4 15  1  0
  4  6  2  0
  5  3  2  0
  6 95  1  0
  7 13  1  0
  7 16  1  0
  8 13  1  0
  9 10  1  0
  9  8  1  0
 11 10  1  0
 11 22  1  0
 11 12  1  0
 13 12  1  0
 14  7  2  0
 15 17  2  0
 16 18  1  0
 16 15  1  0
 19 20  2  0
 20 39  1  0
 21 20  1  0
 21 24  1  0
 22 23  1  0
 22 19  1  0
 23 21  2  0
 24 25  1  0
 25 26  2  0
 27 30  1  0
 27 26  1  0
 28 27  2  0
 29 28  1  0
 29 24  2  0
 30 31  1  0
 31 36  2  0
 31 32  1  0
 32 33  2  0
 33 34  1  0
 34 38  1  0
 35 34  2  0
 36 35  1  0
 37 36  1  0
 39 40  1  0
 40 43  1  0
 40 42  1  0
 41 39  2  0
 44 19  1  0
 44 45  1  0
 46 44  1  0
 47 48  2  0
 48 53  1  0
 48 50  1  0
 49 47  1  0
 49 51  1  0
 51 52  1  0
 52  5  1  0
 52 50  1  0
 53 54  1  0
 55 66  2  0
 56 54  1  0
 56 61  1  0
 57 65  1  0
 57 67  1  0
 58 60  1  0
 59 65  1  0
 60 61  2  0
 60 59  1  0
 62 56  2  0
 63 62  1  0
 63 58  2  0
 64 58  1  0
 64 57  1  0
 65 55  1  0
 67 69  2  0
 68 67  1  0
 70 68  1  0
 71 80  2  0
 71 76  1  0
 72 68  1  0
 72 76  1  0
 73 72  1  0
 74 75  1  0
 74 73  1  0
 75 71  1  0
 76 77  2  0
 77 78  1  0
 79 78  2  0
 80 79  1  0
 81 55  1  0
 81 86  1  0
 81 82  1  0
 82 85  1  1
 82 83  1  0
 84 82  1  0
 86 89  1  0
 87 91  1  0
 87 86  1  0
 88 87  2  0
 91 90  1  0
 93 91  1  0
 93 94  1  0
 93 92  1  0
 95 96  1  0
 95 97  1  0
M  ISO  4   7 100  16 100  53 101  54 101
M  END
>  <TORSDO>  (82) 
F 19

>  <SCORE>  (82) 
-13.955

>  <name>  (82) 
82

>  <ligand_id>  (82) 
82

>  <original_smiles>  (82) 
[H]C1=C(C([H])([H])Oc2c([H])c([H])c3c(c2[H])C([H])([H])N(C(=O)C([H])(N([H])C(=O)C([H])(N([H])C([H])([H])[H])C([H])([H])[H])C(C([H])([H])[H])(C([H])([H])[H])C([H])([H])[H])C([H])(C(=O)N([H])C2([H])c4c([H])c([H])c([H])c([H])c4C([H])([H])C([H])([H])C2([H])[H])C3([H])[H])C([H])([H])N(c2c([H])c([H])c(C(=O)N([H])C(=O)N3C([H])([H])C([H])([H])C([H])([H])C([H])(n4nc(-c5c([H])c([H])c(Oc6c([H])c([H])c(F)c([H])c6F)c([H])c5[H])c(C(=O)N([H])[H])c4N([H])[H])C3([H])[H])c(N([H])[H])c2[H])C([H])([H])C1([H])[H]

>  <smiles>  (82) 
[H]C1=C(C([H])([H])Oc2c([H])c([H])c3c(c2[H])C([H])([H])N(C(=O)C([H])(N([H])C(=O)C([H])(N([H])C([H])([H])[H])C([H])([H])[H])C(C([H])([H])[H])(C([H])([H])[H])C([H])([H])[H])C([H])(C(=O)N([H])C2([H])c4c([H])c([H])c([H])c([H])c4C([H])([H])C([H])([H])C2([H])[H])C3([H])[H])C([H])([H])N(c2c([H])c([H])c(C(=O)N([H])C(=O)N3C([H])([H])C([H])([H])C([H])([H])C([H])(n4nc(-c5c([H])c([H])c(Oc6c([H])c([H])c(F)c([H])c6F)c([H])c5[H])c(C(=O)N([H])[H])c4N([H])[H])C3([H])[H])c(N([H])[H])c2[H])C([H])([H])C1([H])[H]

$$$$
83:0:0
     RDKit          3D

 93102  0  0  1  0  0  0  0  0999 V2000
  -28.4610  -22.2670   19.6900 C   0  0  0  0  0  0  0  0  0  0  0  0
  -29.7620  -22.7660   21.2170 C   0  0  0  0  0  2  0  0  0  0  0  0
  -29.1100  -23.6970   20.1120 C   0  0  1  0  0  0  0  0  0  0  0  0
  -30.0190  -24.2240   18.9900 C   0  0  0  0  0  1  0  0  0  0  0  0
  -29.4140  -21.5450   20.4490 N   0  0  0  0  0  0  0  0  0  0  0  0
  -27.5380  -21.8730   19.0070 O   0  0  0  0  0  0  0  0  0  0  0  0
  -31.2070  -18.8090   22.4580 C   0  0  0  0  0  3  0  0  0  0  0  0
  -30.6850  -20.0250   21.9700 C   0  0  0  0  0  3  0  0  0  0  0  0
  -30.9480  -17.5770   21.8340 C   0  0  0  0  0  3  0  0  0  0  0  0
  -29.6080  -18.8160   20.2220 C   0  0  0  0  0  3  0  0  0  0  0  0
  -29.8500  -20.1390   20.8280 C   0  0  0  0  0  0  0  0  0  0  0  0
  -30.1500  -17.5090   20.6770 C   0  0  0  0  0  0  0  0  0  0  0  0
  -30.6490  -14.9420   20.2160 C   0  0  0  0  0  0  0  0  0  0  0  0
  -30.4620  -12.5990   19.3070 C   0  0  0  0  0  2  0  0  0  0  0  0
  -29.5190  -12.5280   18.0840 C   0  0  0  0  0  2  0  0  0  0  0  0
  -28.0500  -12.3830   18.5280 C   0  0  0  0  0  2  0  0  0  0  0  0
  -27.6590  -13.3160   19.7070 C   0  0  0  0  0  3  0  0  0  0  0  0
  -28.7330  -13.3480   20.8150 C   0  0  0  0  0  2  0  0  0  0  0  0
  -30.0020  -13.7140   20.1720 N   0  0  0  0  0  0  0  0  0  0  0  0
  -31.8730  -14.9510   20.0550 O   0  0  0  0  0  0  0  0  0  0  0  0
  -29.2120  -16.2660   18.7610 C   0  0  0  0  0  1  0  0  0  0  0  0
  -29.9210  -16.1530   20.0420 N   0  0  0  0  0  0  0  0  0  0  0  0
  -25.2910  -13.9160   20.4690 C   0  0  0  0  0  0  0  0  0  0  0  0
  -24.2250  -13.1460   20.8410 C   0  0  0  0  0  0  0  0  0  0  0  0
  -24.6850  -11.7930   20.8100 C   0  0  0  0  0  0  0  0  0  0  0  0
  -26.3280  -13.0310   20.2240 N   0  0  0  0  0  0  0  0  0  0  0  0
  -25.9740  -11.7500   20.4970 N   0  0  0  0  0  0  0  0  0  0  0  0
  -23.9560  -10.5340   21.0020 C   0  0  0  0  0  0  0  0  0  0  0  0
  -24.3840   -9.5690   21.9410 C   0  0  0  0  0  3  0  0  0  0  0  0
  -23.6560   -8.3740   22.1200 C   0  0  0  0  0  3  0  0  0  0  0  0
  -22.4850   -8.1350   21.3620 C   0  0  0  0  0  0  0  0  0  0  0  0
  -22.0780   -9.0880   20.4110 C   0  0  0  0  0  3  0  0  0  0  0  0
  -22.8060  -10.2750   20.2290 C   0  0  0  0  0  3  0  0  0  0  0  0
  -21.7290   -6.9920   21.4520 O   0  0  0  0  0  0  0  0  0  0  0  0
  -21.6660   -6.2600   22.6110 C   0  0  0  0  0  0  0  0  0  0  0  0
  -21.2180   -6.8230   23.8250 C   0  0  0  0  0  3  0  0  0  0  0  0
  -21.1040   -6.0180   24.9750 C   0  0  0  0  0  3  0  0  0  0  0  0
  -21.4270   -4.6490   24.9120 C   0  0  0  0  0  0  0  0  0  0  0  0
  -21.8690   -4.0850   23.7010 C   0  0  0  0  0  3  0  0  0  0  0  0
  -21.9850   -4.8890   22.5540 C   0  0  0  0  0  0  0  0  0  0  0  0
  -22.3910   -4.3360   21.3860 F   0  0  0  0  0  0  0  0  0  0  0  0
  -21.3100   -3.8730   26.0140 F   0  0  0  0  0  0  0  0  0  0  0  0
  -22.8300  -13.6270   21.1160 C   0  0  0  0  0  0  0  0  0  0  0  0
  -22.1020  -12.9340   21.9830 N   0  0  0  0  0  0  0  0  0  0  0  0
  -22.3960  -14.6550   20.5970 O   0  0  0  0  0  0  0  0  0  0  0  0
  -22.4660  -12.1030   22.4260 H   0  0  0  0  0  0  0  0  0  0  0  0
  -21.1650  -13.2390   22.2080 H   0  0  0  0  0  0  0  0  0  0  0  0
  -25.4600  -15.2870   20.2920 N   0  0  0  0  0  0  0  0  0  0  0  0
  -24.7020  -15.9470   20.4190 H   0  0  0  0  0  0  0  0  0  0  0  0
  -26.3240  -15.7260   20.0010 H   0  0  0  0  0  0  0  0  0  0  0  0
  -28.0550  -24.8460   20.5590 C   0  0  0  0  0  0  0  0  0  0  0  0
  -27.0380  -24.5570   21.1980 O   0  0  0  0  0  0  0  0  0  0  0  0
  -28.3010  -26.3030   20.2200 O   0  0  0  0  0  0  0  0  0  0  0  0
  -24.6060  -31.8880   23.2210 C   0  0  0  0  0  0  0  0  0  0  0  0
  -27.2410  -27.2610   20.1860 C   0  0  0  0  0  0  0  0  0  0  0  0
  -23.4220  -30.4880   21.5730 C   0  0  0  0  0  3  0  0  0  0  0  0
  -24.8890  -28.9390   20.1510 C   0  0  0  0  0  0  0  0  0  0  0  0
  -25.9690  -30.7910   21.4160 C   0  0  0  0  0  2  0  0  0  0  0  0
  -26.0580  -29.4050   20.7670 C   0  0  0  0  0  0  0  0  0  0  0  0
  -27.2380  -28.5780   20.7770 C   0  0  0  0  0  3  0  0  0  0  0  0
  -26.0510  -26.8890   19.5220 C   0  0  0  0  0  3  0  0  0  0  0  0
  -24.8930  -27.6900   19.5160 C   0  0  0  0  0  3  0  0  0  0  0  0
  -23.6530  -29.8180   20.1930 C   0  0  0  0  0  2  0  0  0  0  0  0
  -24.6850  -31.0750   22.1260 N   0  0  0  0  0  0  0  0  0  0  0  0
  -23.5160  -32.1620   23.7460 O   0  0  0  0  0  0  0  0  0  0  0  0
  -22.7520  -29.4690   22.5280 C   0  0  0  0  0  0  0  0  0  0  0  0
  -21.4230  -29.3020   22.4070 N   0  0  0  0  0  0  0  0  0  0  0  0
  -23.4280  -28.8320   23.3400 O   0  0  0  0  0  0  0  0  0  0  0  0
  -20.9350  -29.8670   21.7260 H   0  0  0  0  0  0  0  0  0  0  0  0
  -18.0390  -28.1210   22.9260 C   0  0  0  0  0  0  0  0  0  0  0  0
  -20.6020  -28.3620   23.1750 C   0  0  0  0  0  3  0  0  0  0  0  0
  -20.6880  -26.9360   22.5840 C   0  0  0  0  0  2  0  0  0  0  0  0
  -19.5760  -26.6310   21.5760 C   0  0  0  0  0  2  0  0  0  0  0  0
  -18.2000  -26.7790   22.2330 C   0  0  0  0  0  2  0  0  0  0  0  0
  -19.1660  -28.8720   23.3540 C   0  0  0  0  0  0  0  0  0  0  0  0
  -18.9600  -30.1280   23.9630 C   0  0  0  0  0  3  0  0  0  0  0  0
  -17.6600  -30.6360   24.1470 C   0  0  0  0  0  3  0  0  0  0  0  0
  -16.5470  -29.8830   23.7340 C   0  0  0  0  0  3  0  0  0  0  0  0
  -16.7370  -28.6270   23.1290 C   0  0  0  0  0  3  0  0  0  0  0  0
  -25.8790  -32.5290   23.8530 C   0  0  0  0  0  3  0  0  0  0  0  0
  -25.5610  -33.9290   24.1740 N   0  0  0  0  0  0  0  0  0  0  0  0
  -25.8990  -34.9810   23.4170 C   0  0  0  0  0  0  0  0  0  0  0  0
  -26.5790  -34.8750   22.3920 O   0  0  0  0  0  0  0  0  0  0  0  0
  -24.9590  -34.0830   24.9690 H   0  0  0  0  0  0  0  0  0  0  0  0
  -24.1780  -36.7760   23.0370 C   0  0  0  0  0  1  0  0  0  0  0  0
  -25.4070  -36.3710   23.8670 C   0  0  0  0  0  3  0  0  0  0  0  0
  -27.5300  -37.2570   24.7290 C   0  0  0  0  0  1  0  0  0  0  0  0
  -26.4420  -37.4230   23.7670 N   0  0  0  0  0  0  0  0  0  0  0  0
  -26.0360  -38.3440   23.9040 H   0  0  0  0  0  0  0  0  0  0  0  0
  -26.3820  -31.7680   25.1410 C   0  0  1  0  0  0  0  0  0  0  0  0
  -25.2770  -31.5360   26.1990 C   0  0  0  0  0  1  0  0  0  0  0  0
  -26.9710  -30.3880   24.7690 C   0  0  0  0  0  1  0  0  0  0  0  0
  -27.5250  -32.5680   25.8090 C   0  0  0  0  0  1  0  0  0  0  0  0
  1  3  1  0
  1  5  1  0
  3  4  1  6
  3 51  1  0
  3  2  1  0
  5 11  1  0
  5  2  1  0
  6  1  2  0
  8  7  1  0
  9  7  2  0
 10 12  2  0
 10 11  1  0
 11  8  2  0
 12  9  1  0
 14 19  1  0
 15 16  1  0
 15 14  1  0
 17 16  1  0
 17 26  1  0
 17 18  1  0
 19 13  1  0
 19 18  1  0
 20 13  2  0
 21 22  1  0
 22 13  1  0
 22 12  1  0
 23 24  2  0
 24 43  1  0
 25 24  1  0
 25 28  1  0
 26 23  1  0
 26 27  1  0
 27 25  2  0
 28 29  1  0
 29 30  2  0
 31 34  1  0
 31 30  1  0
 32 31  2  0
 33 32  1  0
 33 28  2  0
 34 35  1  0
 35 36  1  0
 36 37  2  0
 38 37  1  0
 38 42  1  0
 39 38  2  0
 40 35  2  0
 40 39  1  0
 41 40  1  0
 43 44  1  0
 44 47  1  0
 44 46  1  0
 45 43  2  0
 48 49  1  0
 48 23  1  0
 50 48  1  0
 51 52  2  0
 53 51  1  0
 54 65  2  0
 55 53  1  0
 55 60  1  0
 56 64  1  0
 56 66  1  0
 57 63  1  0
 57 59  1  0
 58 64  1  0
 59 60  2  0
 59 58  1  0
 61 55  2  0
 62 61  1  0
 62 57  2  0
 63 56  1  0
 64 54  1  0
 66 68  2  0
 67 66  1  0
 69 67  1  0
 70 79  2  0
 70 75  1  0
 71 67  1  0
 71 75  1  0
 72 71  1  0
 73 74  1  0
 73 72  1  0
 74 70  1  0
 75 76  2  0
 76 77  1  0
 78 77  2  0
 79 78  1  0
 80 54  1  0
 80 81  1  0
 80 90  1  0
 81 84  1  0
 82 86  1  0
 82 81  1  0
 83 82  2  0
 86 85  1  0
 88 86  1  0
 88 89  1  0
 88 87  1  0
 90 93  1  1
 90 91  1  0
 92 90  1  0
M  ISO  4  13 100  22 100  51 101  53 101
M  END
>  <TORSDO>  (83) 
F 18

>  <SCORE>  (83) 
-14.741

>  <name>  (83) 
83

>  <ligand_id>  (83) 
83

>  <original_smiles>  (83) 
[H]c1c([H])c(N(C(=O)N2C([H])([H])C([H])([H])C([H])([H])C([H])(n3nc(-c4c([H])c([H])c(Oc5c([H])c([H])c(F)c([H])c5F)c([H])c4[H])c(C(=O)N([H])[H])c3N([H])[H])C2([H])[H])C([H])([H])[H])c([H])c(N2C(=O)C(C(=O)Oc3c([H])c([H])c4c(c3[H])C([H])([H])N(C(=O)C([H])(N([H])C(=O)C([H])(N([H])C([H])([H])[H])C([H])([H])[H])C(C([H])([H])[H])(C([H])([H])[H])C([H])([H])[H])C([H])(C(=O)N([H])C3([H])c5c([H])c([H])c([H])c([H])c5C([H])([H])C([H])([H])C3([H])[H])C4([H])[H])(C([H])([H])[H])C2([H])[H])c1[H]

>  <smiles>  (83) 
[H]c1c([H])c(N(C(=O)N2C([H])([H])C([H])([H])C([H])([H])C([H])(n3nc(-c4c([H])c([H])c(Oc5c([H])c([H])c(F)c([H])c5F)c([H])c4[H])c(C(=O)N([H])[H])c3N([H])[H])C2([H])[H])C([H])([H])[H])c([H])c(N2C(=O)C(C(=O)Oc3c([H])c([H])c4c(c3[H])C([H])([H])N(C(=O)C([H])(N([H])C(=O)C([H])(N([H])C([H])([H])[H])C([H])([H])[H])C(C([H])([H])[H])(C([H])([H])[H])C([H])([H])[H])C([H])(C(=O)N([H])C3([H])c5c([H])c([H])c([H])c([H])c5C([H])([H])C([H])([H])C3([H])[H])C4([H])[H])(C([H])([H])[H])C2([H])[H])c1[H]

$$$$
84:0:0
     RDKit          3D

 94103  0  0  1  0  0  0  0  0999 V2000
  -29.8800  -23.2980   21.2380 C   0  0  0  0  0  0  0  0  0  0  0  0
  -30.1420  -21.7900   21.4210 C   0  0  0  0  0  2  0  0  0  0  0  0
  -28.1960  -22.1110   20.1250 C   0  0  0  0  0  2  0  0  0  0  0  0
  -28.8480  -23.5870   20.1460 C   0  0  2  0  0  0  0  0  0  0  0  0
  -29.0650  -21.0510   20.7580 N   0  0  0  0  0  0  0  0  0  0  0  0
  -30.4490  -24.1700   21.9020 O   0  0  0  0  0  0  0  0  0  0  0  0
  -30.4510  -18.7060   18.1600 C   0  0  0  0  0  3  0  0  0  0  0  0
  -29.9810  -19.8650   18.8120 C   0  0  0  0  0  3  0  0  0  0  0  0
  -30.4220  -17.4390   18.7800 C   0  0  0  0  0  3  0  0  0  0  0  0
  -29.4410  -18.4850   20.7410 C   0  0  0  0  0  3  0  0  0  0  0  0
  -29.4660  -19.8080   20.1240 C   0  0  0  0  0  0  0  0  0  0  0  0
  -29.9170  -17.2670   20.0900 C   0  0  0  0  0  0  0  0  0  0  0  0
  -30.5830  -14.7550   20.3530 C   0  0  0  0  0  0  0  0  0  0  0  0
  -30.3890  -12.4700   19.3730 C   0  0  0  0  0  2  0  0  0  0  0  0
  -29.4600  -12.5620   18.1420 C   0  0  0  0  0  2  0  0  0  0  0  0
  -27.9870  -12.3950   18.5630 C   0  0  0  0  0  2  0  0  0  0  0  0
  -27.6130  -13.2700   19.7900 C   0  0  0  0  0  3  0  0  0  0  0  0
  -28.6680  -13.1700   20.9140 C   0  0  0  0  0  2  0  0  0  0  0  0
  -29.9690  -13.5220   20.3300 N   0  0  0  0  0  0  0  0  0  0  0  0
  -31.7590  -14.8540   19.9870 O   0  0  0  0  0  0  0  0  0  0  0  0
  -29.8280  -15.8850   20.6430 N   0  0  0  0  0  0  0  0  0  0  0  0
  -28.9820  -15.6890   21.1590 H   0  0  0  0  0  0  0  0  0  0  0  0
  -25.2180  -13.8550   20.5000 C   0  0  0  0  0  0  0  0  0  0  0  0
  -24.1520  -13.0800   20.8690 C   0  0  0  0  0  0  0  0  0  0  0  0
  -24.6200  -11.7300   20.8490 C   0  0  0  0  0  0  0  0  0  0  0  0
  -26.2660  -12.9790   20.2740 N   0  0  0  0  0  0  0  0  0  0  0  0
  -25.9130  -11.6960   20.5460 N   0  0  0  0  0  0  0  0  0  0  0  0
  -23.8960  -10.4660   21.0450 C   0  0  0  0  0  0  0  0  0  0  0  0
  -24.3410   -9.4970   21.9710 C   0  0  0  0  0  3  0  0  0  0  0  0
  -23.6180   -8.2990   22.1570 C   0  0  0  0  0  3  0  0  0  0  0  0
  -22.4360   -8.0600   21.4150 C   0  0  0  0  0  0  0  0  0  0  0  0
  -22.0110   -9.0180   20.4760 C   0  0  0  0  0  3  0  0  0  0  0  0
  -22.7350  -10.2080   20.2900 C   0  0  0  0  0  3  0  0  0  0  0  0
  -21.6850   -6.9140   21.5080 O   0  0  0  0  0  0  0  0  0  0  0  0
  -21.6640   -6.1590   22.6540 C   0  0  0  0  0  0  0  0  0  0  0  0
  -21.2750   -6.7040   23.8980 C   0  0  0  0  0  3  0  0  0  0  0  0
  -21.1990   -5.8740   25.0360 C   0  0  0  0  0  3  0  0  0  0  0  0
  -21.5030   -4.5030   24.9300 C   0  0  0  0  0  0  0  0  0  0  0  0
  -21.8860   -3.9600   23.6920 C   0  0  0  0  0  3  0  0  0  0  0  0
  -21.9630   -4.7850   22.5560 C   0  0  0  0  0  0  0  0  0  0  0  0
  -22.3120   -4.2530   21.3600 F   0  0  0  0  0  0  0  0  0  0  0  0
  -21.4220   -3.7060   26.0210 F   0  0  0  0  0  0  0  0  0  0  0  0
  -22.7520  -13.5550   21.1290 C   0  0  0  0  0  0  0  0  0  0  0  0
  -22.0220  -12.8640   21.9980 N   0  0  0  0  0  0  0  0  0  0  0  0
  -22.3130  -14.5730   20.5970 O   0  0  0  0  0  0  0  0  0  0  0  0
  -22.3910  -12.0440   22.4550 H   0  0  0  0  0  0  0  0  0  0  0  0
  -21.0780  -13.1590   22.2080 H   0  0  0  0  0  0  0  0  0  0  0  0
  -25.3850  -15.2250   20.3190 N   0  0  0  0  0  0  0  0  0  0  0  0
  -24.6240  -15.8880   20.4190 H   0  0  0  0  0  0  0  0  0  0  0  0
  -26.2390  -15.6560   19.9900 H   0  0  0  0  0  0  0  0  0  0  0  0
  -28.6440  -24.0310   17.5770 C   0  0  0  0  0  1  0  0  0  0  0  0
  -29.5730  -23.8410   18.7970 C   0  0  0  0  0  2  0  0  0  0  0  0
  -27.8860  -24.8640   20.4710 C   0  0  0  0  0  2  0  0  0  0  0  0
  -28.2280  -26.3210   20.2180 O   0  0  0  0  0  0  0  0  0  0  0  0
  -24.6050  -31.8800   23.2320 C   0  0  0  0  0  0  0  0  0  0  0  0
  -27.1620  -27.2540   20.1710 C   0  0  0  0  0  0  0  0  0  0  0  0
  -23.3940  -30.4850   21.6020 C   0  0  0  0  0  3  0  0  0  0  0  0
  -24.8300  -28.9350   20.1630 C   0  0  0  0  0  0  0  0  0  0  0  0
  -25.9420  -30.7730   21.4190 C   0  0  0  0  0  2  0  0  0  0  0  0
  -26.0090  -29.3940   20.7650 C   0  0  0  0  0  0  0  0  0  0  0  0
  -27.1810  -28.5670   20.7590 C   0  0  0  0  0  3  0  0  0  0  0  0
  -25.9700  -26.8880   19.5070 C   0  0  0  0  0  3  0  0  0  0  0  0
  -24.8180  -27.6920   19.5210 C   0  0  0  0  0  3  0  0  0  0  0  0
  -23.6000  -29.8200   20.2180 C   0  0  0  0  0  2  0  0  0  0  0  0
  -24.6670  -31.0650   22.1400 N   0  0  0  0  0  0  0  0  0  0  0  0
  -23.5220  -32.1620   23.7670 O   0  0  0  0  0  0  0  0  0  0  0  0
  -22.7310  -29.4670   22.5620 C   0  0  0  0  0  0  0  0  0  0  0  0
  -21.4030  -29.2950   22.4420 N   0  0  0  0  0  0  0  0  0  0  0  0
  -23.4120  -28.8380   23.3780 O   0  0  0  0  0  0  0  0  0  0  0  0
  -20.9140  -29.8530   21.7570 H   0  0  0  0  0  0  0  0  0  0  0  0
  -18.0260  -28.1010   22.9590 C   0  0  0  0  0  0  0  0  0  0  0  0
  -20.5860  -28.3600   23.2190 C   0  0  0  0  0  3  0  0  0  0  0  0
  -20.6860  -26.9270   22.6470 C   0  0  0  0  0  2  0  0  0  0  0  0
  -19.5790  -26.6000   21.6390 C   0  0  0  0  0  2  0  0  0  0  0  0
  -18.1990  -26.7490   22.2860 C   0  0  0  0  0  2  0  0  0  0  0  0
  -19.1460  -28.8640   23.3810 C   0  0  0  0  0  0  0  0  0  0  0  0
  -18.9290  -30.1280   23.9710 C   0  0  0  0  0  3  0  0  0  0  0  0
  -17.6240  -30.6290   24.1440 C   0  0  0  0  0  3  0  0  0  0  0  0
  -16.5190  -29.8630   23.7350 C   0  0  0  0  0  3  0  0  0  0  0  0
  -16.7200  -28.6010   23.1490 C   0  0  0  0  0  3  0  0  0  0  0  0
  -25.8900  -32.5120   23.8480 C   0  0  0  0  0  3  0  0  0  0  0  0
  -26.4130  -31.7420   25.1210 C   0  0  1  0  0  0  0  0  0  0  0  0
  -25.3250  -31.5060   26.1950 C   0  0  0  0  0  1  0  0  0  0  0  0
  -26.9940  -30.3620   24.7320 C   0  0  0  0  0  1  0  0  0  0  0  0
  -27.5670  -32.5370   25.7770 C   0  0  0  0  0  1  0  0  0  0  0  0
  -25.5780  -33.9090   24.1840 N   0  0  0  0  0  0  0  0  0  0  0  0
  -25.9020  -34.9670   23.4280 C   0  0  0  0  0  0  0  0  0  0  0  0
  -26.5620  -34.8690   22.3890 O   0  0  0  0  0  0  0  0  0  0  0  0
  -24.9910  -34.0580   24.9910 H   0  0  0  0  0  0  0  0  0  0  0  0
  -24.1680  -36.7610   23.0980 C   0  0  0  0  0  1  0  0  0  0  0  0
  -25.4180  -36.3540   23.8940 C   0  0  0  0  0  3  0  0  0  0  0  0
  -27.5620  -37.2390   24.7030 C   0  0  0  0  0  1  0  0  0  0  0  0
  -26.4490  -37.4090   23.7720 N   0  0  0  0  0  0  0  0  0  0  0  0
  -26.0430  -38.3270   23.9270 H   0  0  0  0  0  0  0  0  0  0  0  0
  1  2  1  0
  1  6  2  0
  3  4  1  0
  3  5  1  0
  4 52  1  6
  4 53  1  0
  4  1  1  0
  5  2  1  0
  7  9  2  0
  7  8  1  0
  8 11  2  0
  9 12  1  0
 11 10  1  0
 11  5  1  0
 12 21  1  0
 12 10  2  0
 13 21  1  0
 14 19  1  0
 15 16  1  0
 15 14  1  0
 17 16  1  0
 17 26  1  0
 17 18  1  0
 19 13  1  0
 19 18  1  0
 20 13  2  0
 21 22  1  0
 23 24  2  0
 24 43  1  0
 25 24  1  0
 25 28  1  0
 26 23  1  0
 26 27  1  0
 27 25  2  0
 28 29  1  0
 29 30  2  0
 31 34  1  0
 31 30  1  0
 32 31  2  0
 33 32  1  0
 33 28  2  0
 34 35  1  0
 35 36  1  0
 36 37  2  0
 38 37  1  0
 38 42  1  0
 39 38  2  0
 40 35  2  0
 40 39  1  0
 41 40  1  0
 43 44  1  0
 44 47  1  0
 44 46  1  0
 45 43  2  0
 48 49  1  0
 48 23  1  0
 50 48  1  0
 51 52  1  0
 54 53  1  0
 55 66  2  0
 56 54  1  0
 56 61  1  0
 57 65  1  0
 57 67  1  0
 58 64  1  0
 58 60  1  0
 59 65  1  0
 60 59  1  0
 61 60  2  0
 62 63  1  0
 62 56  2  0
 63 58  2  0
 64 57  1  0
 65 55  1  0
 67 69  2  0
 68 67  1  0
 70 68  1  0
 71 80  2  0
 71 76  1  0
 72 68  1  0
 72 76  1  0
 73 72  1  0
 74 75  1  0
 74 73  1  0
 75 71  1  0
 76 77  2  0
 77 78  1  0
 79 78  2  0
 80 79  1  0
 81 55  1  0
 81 86  1  0
 81 82  1  0
 82 85  1  1
 82 83  1  0
 84 82  1  0
 86 89  1  0
 87 91  1  0
 87 86  1  0
 88 87  2  0
 91 90  1  0
 93 91  1  0
 93 94  1  0
 93 92  1  0
M  ISO  4  13 100  21 100  53 101  54 101
M  END
>  <TORSDO>  (84) 
F 19

>  <SCORE>  (84) 
-14.550

>  <name>  (84) 
84

>  <ligand_id>  (84) 
84

>  <original_smiles>  (84) 
[H]c1c([H])c(N([H])C(=O)N2C([H])([H])C([H])([H])C([H])([H])C([H])(n3nc(-c4c([H])c([H])c(Oc5c([H])c([H])c(F)c([H])c5F)c([H])c4[H])c(C(=O)N([H])[H])c3N([H])[H])C2([H])[H])c([H])c(N2C([H])([H])C(=O)C(C([H])([H])Oc3c([H])c([H])c4c(c3[H])C([H])([H])N(C(=O)C([H])(N([H])C(=O)C([H])(N([H])C([H])([H])[H])C([H])([H])[H])C(C([H])([H])[H])(C([H])([H])[H])C([H])([H])[H])C([H])(C(=O)N([H])C3([H])c5c([H])c([H])c([H])c([H])c5C([H])([H])C([H])([H])C3([H])[H])C4([H])[H])(C([H])([H])C([H])([H])[H])C2([H])[H])c1[H]

>  <smiles>  (84) 
[H]c1c([H])c(N([H])C(=O)N2C([H])([H])C([H])([H])C([H])([H])C([H])(n3nc(-c4c([H])c([H])c(Oc5c([H])c([H])c(F)c([H])c5F)c([H])c4[H])c(C(=O)N([H])[H])c3N([H])[H])C2([H])[H])c([H])c(N2C([H])([H])C(=O)C(C([H])([H])Oc3c([H])c([H])c4c(c3[H])C([H])([H])N(C(=O)C([H])(N([H])C(=O)C([H])(N([H])C([H])([H])[H])C([H])([H])[H])C(C([H])([H])[H])(C([H])([H])[H])C([H])([H])[H])C([H])(C(=O)N([H])C3([H])c5c([H])c([H])c([H])c([H])c5C([H])([H])C([H])([H])C3([H])[H])C4([H])[H])(C([H])([H])C([H])([H])[H])C2([H])[H])c1[H]

$$$$
85:0:0
     RDKit          3D

 93101  0  0  1  0  0  0  0  0999 V2000
  -29.6110  -22.0440   22.7810 O   0  0  0  0  0  0  0  0  0  0  0  0
  -27.5590  -21.6580   21.3590 O   0  0  0  0  0  0  0  0  0  0  0  0
  -29.0280  -21.7250   21.4680 S   0  0  2  0  0  0  0  0  0  0  0  0
  -29.4440  -17.9500   19.6920 C   0  0  0  0  0  3  0  0  0  0  0  0
  -30.7030  -17.9310   21.7590 C   0  0  0  0  0  3  0  0  0  0  0  0
  -29.2040  -19.3490   19.8410 C   0  0  0  0  0  3  0  0  0  0  0  0
  -30.4630  -19.3260   21.9080 C   0  0  0  0  0  3  0  0  0  0  0  0
  -30.1640  -17.2050   20.6690 C   0  0  0  0  0  0  0  0  0  0  0  0
  -29.6710  -20.0510   20.9800 C   0  0  0  0  0  0  0  0  0  0  0  0
  -30.8670  -14.7800   20.1810 C   0  0  0  0  0  0  0  0  0  0  0  0
  -30.6340  -12.5760   19.0550 C   0  0  0  0  0  2  0  0  0  0  0  0
  -29.6430  -12.7260   17.8770 C   0  0  0  0  0  2  0  0  0  0  0  0
  -28.1840  -12.5660   18.3500 C   0  0  0  0  0  2  0  0  0  0  0  0
  -27.8690  -13.4030   19.6200 C   0  0  0  0  0  3  0  0  0  0  0  0
  -28.9610  -13.2000   20.6940 C   0  0  0  0  0  2  0  0  0  0  0  0
  -30.2580  -13.5570   20.0890 N   0  0  0  0  0  0  0  0  0  0  0  0
  -31.9860  -14.9960   19.7030 O   0  0  0  0  0  0  0  0  0  0  0  0
  -30.0890  -15.7610   20.7130 N   0  0  0  0  0  0  0  0  0  0  0  0
  -29.2150  -15.3970   21.0610 H   0  0  0  0  0  0  0  0  0  0  0  0
  -25.4970  -14.0060   20.4170 C   0  0  0  0  0  0  0  0  0  0  0  0
  -24.4400  -13.2310   20.8100 C   0  0  0  0  0  0  0  0  0  0  0  0
  -24.8950  -11.8790   20.7460 C   0  0  0  0  0  0  0  0  0  0  0  0
  -26.5310  -13.1240   20.1390 N   0  0  0  0  0  0  0  0  0  0  0  0
  -26.1750  -11.8390   20.3960 N   0  0  0  0  0  0  0  0  0  0  0  0
  -24.1740  -10.6150   20.9440 C   0  0  0  0  0  0  0  0  0  0  0  0
  -24.5960   -9.6640   21.8970 C   0  0  0  0  0  3  0  0  0  0  0  0
  -23.8740   -8.4650   22.0810 C   0  0  0  0  0  3  0  0  0  0  0  0
  -22.7160   -8.2080   21.3090 C   0  0  0  0  0  0  0  0  0  0  0  0
  -22.3110   -9.1490   20.3450 C   0  0  0  0  0  3  0  0  0  0  0  0
  -23.0340  -10.3400   20.1600 C   0  0  0  0  0  3  0  0  0  0  0  0
  -21.9700   -7.0580   21.3990 O   0  0  0  0  0  0  0  0  0  0  0  0
  -21.8510   -6.3670   22.5770 C   0  0  0  0  0  0  0  0  0  0  0  0
  -21.3220   -6.9670   23.7420 C   0  0  0  0  0  3  0  0  0  0  0  0
  -21.1520   -6.2010   24.9130 C   0  0  0  0  0  3  0  0  0  0  0  0
  -21.4990   -4.8370   24.9180 C   0  0  0  0  0  0  0  0  0  0  0  0
  -22.0220   -4.2370   23.7590 C   0  0  0  0  0  3  0  0  0  0  0  0
  -22.1940   -5.0000   22.5920 C   0  0  0  0  0  0  0  0  0  0  0  0
  -22.6760   -4.4130   21.4710 F   0  0  0  0  0  0  0  0  0  0  0  0
  -21.3300   -4.1000   26.0410 F   0  0  0  0  0  0  0  0  0  0  0  0
  -23.0550  -13.7100   21.1340 C   0  0  0  0  0  0  0  0  0  0  0  0
  -22.3530  -13.0090   22.0180 N   0  0  0  0  0  0  0  0  0  0  0  0
  -22.6010  -14.7410   20.6380 O   0  0  0  0  0  0  0  0  0  0  0  0
  -22.7320  -12.1750   22.4420 H   0  0  0  0  0  0  0  0  0  0  0  0
  -21.4250  -13.3130   22.2790 H   0  0  0  0  0  0  0  0  0  0  0  0
  -25.6580  -15.3780   20.2530 N   0  0  0  0  0  0  0  0  0  0  0  0
  -24.8900  -16.0260   20.3910 H   0  0  0  0  0  0  0  0  0  0  0  0
  -26.4910  -15.8230   19.8900 H   0  0  0  0  0  0  0  0  0  0  0  0
  -29.5430  -24.3780   20.6830 C   0  0  0  0  0  0  0  0  0  0  0  0
  -29.5200  -22.9910   20.3520 N   0  0  0  0  0  0  0  0  0  0  0  0
  -30.0550  -24.7860   21.7310 O   0  0  0  0  0  0  0  0  0  0  0  0
  -29.1750  -22.7450   19.4250 H   0  0  0  0  0  0  0  0  0  0  0  0
  -28.8400  -25.3830   19.7110 C   0  0  0  0  0  2  0  0  0  0  0  0
  -28.8060  -26.7770   20.1920 O   0  0  0  0  0  0  0  0  0  0  0  0
  -24.6750  -31.8110   23.2360 C   0  0  0  0  0  0  0  0  0  0  0  0
  -27.6220  -27.5170   20.1210 C   0  0  0  0  0  0  0  0  0  0  0  0
  -23.5910  -30.3920   21.5290 C   0  0  0  0  0  3  0  0  0  0  0  0
  -25.1620  -28.9700   20.1010 C   0  0  0  0  0  0  0  0  0  0  0  0
  -26.1120  -30.8620   21.4200 C   0  0  0  0  0  2  0  0  0  0  0  0
  -26.2820  -29.5100   20.7420 C   0  0  0  0  0  0  0  0  0  0  0  0
  -27.5100  -28.7900   20.7520 C   0  0  0  0  0  3  0  0  0  0  0  0
  -26.4810  -27.0370   19.4340 C   0  0  0  0  0  3  0  0  0  0  0  0
  -25.2610  -27.7370   19.4400 C   0  0  0  0  0  3  0  0  0  0  0  0
  -23.8760  -29.7700   20.1360 C   0  0  0  0  0  2  0  0  0  0  0  0
  -24.8090  -31.0370   22.1200 N   0  0  0  0  0  0  0  0  0  0  0  0
  -23.5650  -32.0140   23.7490 O   0  0  0  0  0  0  0  0  0  0  0  0
  -22.9660  -29.3130   22.4410 C   0  0  0  0  0  0  0  0  0  0  0  0
  -21.6570  -29.0650   22.2680 N   0  0  0  0  0  0  0  0  0  0  0  0
  -23.6580  -28.7020   23.2580 O   0  0  0  0  0  0  0  0  0  0  0  0
  -21.1580  -29.6170   21.5850 H   0  0  0  0  0  0  0  0  0  0  0  0
  -18.3320  -27.7020   22.6600 C   0  0  0  0  0  0  0  0  0  0  0  0
  -20.8700  -28.0640   22.9890 C   0  0  0  0  0  3  0  0  0  0  0  0
  -21.0470  -26.6590   22.3650 C   0  0  0  0  0  2  0  0  0  0  0  0
  -19.9790  -26.3240   21.3210 C   0  0  0  0  0  2  0  0  0  0  0  0
  -18.5810  -26.3880   21.9400 C   0  0  0  0  0  2  0  0  0  0  0  0
  -19.4070  -28.4960   23.1400 C   0  0  0  0  0  0  0  0  0  0  0  0
  -19.1200  -29.7270   23.7680 C   0  0  0  0  0  3  0  0  0  0  0  0
  -17.7910  -30.1630   23.9290 C   0  0  0  0  0  3  0  0  0  0  0  0
  -16.7310  -29.3640   23.4650 C   0  0  0  0  0  3  0  0  0  0  0  0
  -17.0020  -28.1360   22.8380 C   0  0  0  0  0  3  0  0  0  0  0  0
  -25.9090  -32.4890   23.9080 C   0  0  0  0  0  3  0  0  0  0  0  0
  -26.3920  -31.7490   25.2150 C   0  0  1  0  0  0  0  0  0  0  0  0
  -25.2580  -31.4800   26.2310 C   0  0  0  0  0  1  0  0  0  0  0  0
  -27.0450  -30.3910   24.8660 C   0  0  0  0  0  1  0  0  0  0  0  0
  -27.4790  -32.5900   25.9250 C   0  0  0  0  0  1  0  0  0  0  0  0
  -25.5390  -33.8800   24.2100 N   0  0  0  0  0  0  0  0  0  0  0  0
  -25.8620  -34.9340   23.4490 C   0  0  0  0  0  0  0  0  0  0  0  0
  -26.5740  -34.8420   22.4460 O   0  0  0  0  0  0  0  0  0  0  0  0
  -24.9120  -34.0220   24.9870 H   0  0  0  0  0  0  0  0  0  0  0  0
  -24.0830  -36.6560   23.0050 C   0  0  0  0  0  1  0  0  0  0  0  0
  -25.3060  -36.3090   23.8670 C   0  0  0  0  0  3  0  0  0  0  0  0
  -27.3730  -37.2860   24.7650 C   0  0  0  0  0  1  0  0  0  0  0  0
  -26.3030  -37.3970   23.7770 N   0  0  0  0  0  0  0  0  0  0  0  0
  -25.8590  -38.3030   23.8940 H   0  0  0  0  0  0  0  0  0  0  0  0
  2  3  2  0
  3  1  2  0
  4  6  2  0
  4  8  1  0
  5  7  1  0
  6  9  1  0
  8 18  1  0
  8  5  2  0
  9  3  1  0
  9  7  2  0
 10 18  1  0
 11 16  1  0
 12 13  1  0
 12 11  1  0
 14 13  1  0
 14 23  1  0
 14 15  1  0
 16 10  1  0
 16 15  1  0
 17 10  2  0
 18 19  1  0
 20 21  2  0
 21 40  1  0
 22 21  1  0
 22 25  1  0
 23 24  1  0
 23 20  1  0
 24 22  2  0
 25 26  1  0
 26 27  2  0
 28 31  1  0
 28 27  1  0
 29 28  2  0
 30 29  1  0
 30 25  2  0
 31 32  1  0
 32 37  2  0
 32 33  1  0
 33 34  2  0
 34 35  1  0
 35 39  1  0
 36 35  2  0
 37 36  1  0
 38 37  1  0
 40 41  1  0
 41 44  1  0
 41 43  1  0
 42 40  2  0
 45 46  1  0
 45 20  1  0
 47 45  1  0
 48 50  2  0
 49 48  1  0
  3 49  1  6
 51 49  1  0
 52 53  1  0
 52 48  1  0
 54 65  2  0
 55 53  1  0
 55 60  1  0
 56 64  1  0
 56 66  1  0
 57 63  1  0
 57 59  1  0
 58 64  1  0
 59 60  2  0
 59 58  1  0
 61 62  1  0
 61 55  2  0
 62 57  2  0
 63 56  1  0
 64 54  1  0
 66 68  2  0
 67 66  1  0
 69 67  1  0
 70 79  2  0
 70 75  1  0
 71 67  1  0
 71 75  1  0
 72 71  1  0
 73 74  1  0
 73 72  1  0
 74 70  1  0
 75 76  2  0
 76 77  1  0
 78 77  2  0
 79 78  1  0
 80 54  1  0
 80 85  1  0
 80 81  1  0
 81 84  1  1
 81 82  1  0
 83 81  1  0
 85 88  1  0
 86 90  1  0
 86 85  1  0
 87 86  2  0
 90 89  1  0
 92 90  1  0
 92 93  1  0
 92 91  1  0
M  ISO  4  10 100  18 100  52 101  53 101
M  END
>  <TORSDO>  (85) 
F 19

>  <SCORE>  (85) 
-13.940

>  <name>  (85) 
85

>  <ligand_id>  (85) 
85

>  <original_smiles>  (85) 
[H]c1c([H])c([H])c2c(c1[H])C([H])([H])C([H])([H])C([H])([H])C2([H])N([H])C(=O)C1([H])N(C(=O)C([H])(N([H])C(=O)C([H])(N([H])C([H])([H])[H])C([H])([H])[H])C(C([H])([H])[H])(C([H])([H])[H])C([H])([H])[H])C([H])([H])c2c([H])c(OC([H])([H])C(=O)N([H])S(=O)(=O)c3c([H])c([H])c(N([H])C(=O)N4C([H])([H])C([H])([H])C([H])([H])C([H])(n5nc(-c6c([H])c([H])c(Oc7c([H])c([H])c(F)c([H])c7F)c([H])c6[H])c(C(=O)N([H])[H])c5N([H])[H])C4([H])[H])c([H])c3[H])c([H])c([H])c2C1([H])[H]

>  <smiles>  (85) 
[H]c1c([H])c([H])c2c(c1[H])C([H])([H])C([H])([H])C([H])([H])C2([H])N([H])C(=O)C1([H])N(C(=O)C([H])(N([H])C(=O)C([H])(N([H])C([H])([H])[H])C([H])([H])[H])C(C([H])([H])[H])(C([H])([H])[H])C([H])([H])[H])C([H])([H])c2c([H])c(OC([H])([H])C(=O)N([H])S(=O)(=O)c3c([H])c([H])c(N([H])C(=O)N4C([H])([H])C([H])([H])C([H])([H])C([H])(n5nc(-c6c([H])c([H])c(Oc7c([H])c([H])c(F)c([H])c7F)c([H])c6[H])c(C(=O)N([H])[H])c5N([H])[H])C4([H])[H])c([H])c3[H])c([H])c([H])c2C1([H])[H]

$$$$
86:0:0
     RDKit          3D

 96105  0  0  1  0  0  0  0  0999 V2000
  -28.7710  -19.5890   19.9280 C   0  0  0  0  0  3  0  0  0  0  0  0
  -28.7300  -18.1680   19.9860 C   0  0  0  0  0  3  0  0  0  0  0  0
  -31.0310  -18.1230   20.6240 C   0  0  0  0  0  3  0  0  0  0  0  0
  -31.0800  -19.5580   20.6280 C   0  0  0  0  0  0  0  0  0  0  0  0
  -29.9220  -20.3530   20.2660 C   0  0  0  0  0  0  0  0  0  0  0  0
  -29.8560  -17.3880   20.3490 C   0  0  0  0  0  0  0  0  0  0  0  0
  -30.5770  -14.8920   20.3540 C   0  0  0  0  0  0  0  0  0  0  0  0
  -30.4210  -12.5960   19.4190 C   0  0  0  0  0  2  0  0  0  0  0  0
  -29.4930  -12.6580   18.1850 C   0  0  0  0  0  2  0  0  0  0  0  0
  -28.0170  -12.4890   18.6020 C   0  0  0  0  0  2  0  0  0  0  0  0
  -27.6250  -13.4040   19.7910 C   0  0  0  0  0  3  0  0  0  0  0  0
  -28.6730  -13.3260   20.9270 C   0  0  0  0  0  2  0  0  0  0  0  0
  -29.9840  -13.6560   20.3470 N   0  0  0  0  0  0  0  0  0  0  0  0
  -31.7540  -15.0500   20.0190 O   0  0  0  0  0  0  0  0  0  0  0  0
  -29.7120  -15.9440   20.5190 N   0  0  0  0  0  0  0  0  0  0  0  0
  -28.7660  -15.6360   20.6790 H   0  0  0  0  0  0  0  0  0  0  0  0
  -25.2290  -13.9970   20.5050 C   0  0  0  0  0  0  0  0  0  0  0  0
  -24.1660  -13.2190   20.8710 C   0  0  0  0  0  0  0  0  0  0  0  0
  -24.6310  -11.8680   20.8400 C   0  0  0  0  0  0  0  0  0  0  0  0
  -26.2760  -13.1180   20.2730 N   0  0  0  0  0  0  0  0  0  0  0  0
  -25.9220  -11.8340   20.5380 N   0  0  0  0  0  0  0  0  0  0  0  0
  -23.9110  -10.6030   21.0270 C   0  0  0  0  0  0  0  0  0  0  0  0
  -24.3470   -9.6330   21.9570 C   0  0  0  0  0  3  0  0  0  0  0  0
  -23.6250   -8.4330   22.1310 C   0  0  0  0  0  3  0  0  0  0  0  0
  -22.4540   -8.1930   21.3740 C   0  0  0  0  0  0  0  0  0  0  0  0
  -22.0360   -9.1520   20.4330 C   0  0  0  0  0  3  0  0  0  0  0  0
  -22.7590  -10.3430   20.2580 C   0  0  0  0  0  3  0  0  0  0  0  0
  -21.7030   -7.0450   21.4570 O   0  0  0  0  0  0  0  0  0  0  0  0
  -21.6570   -6.2970   22.6070 C   0  0  0  0  0  0  0  0  0  0  0  0
  -21.1920   -6.8360   23.8260 C   0  0  0  0  0  3  0  0  0  0  0  0
  -21.0940   -6.0140   24.9670 C   0  0  0  0  0  3  0  0  0  0  0  0
  -21.4550   -4.6560   24.8890 C   0  0  0  0  0  0  0  0  0  0  0  0
  -21.9150   -4.1170   23.6750 C   0  0  0  0  0  3  0  0  0  0  0  0
  -22.0130   -4.9360   22.5360 C   0  0  0  0  0  0  0  0  0  0  0  0
  -22.4380   -4.4070   21.3630 F   0  0  0  0  0  0  0  0  0  0  0  0
  -21.3550   -3.8640   25.9830 F   0  0  0  0  0  0  0  0  0  0  0  0
  -22.7650  -13.6890   21.1410 C   0  0  0  0  0  0  0  0  0  0  0  0
  -22.0400  -12.9910   22.0080 N   0  0  0  0  0  0  0  0  0  0  0  0
  -22.3200  -14.7090   20.6150 O   0  0  0  0  0  0  0  0  0  0  0  0
  -22.4100  -12.1630   22.4530 H   0  0  0  0  0  0  0  0  0  0  0  0
  -21.1010  -13.2850   22.2330 H   0  0  0  0  0  0  0  0  0  0  0  0
  -25.3880  -15.3690   20.3220 N   0  0  0  0  0  0  0  0  0  0  0  0
  -24.6140  -16.0180   20.4000 H   0  0  0  0  0  0  0  0  0  0  0  0
  -26.2300  -15.8040   19.9720 H   0  0  0  0  0  0  0  0  0  0  0  0
  -28.8300  -22.6730   20.6040 C   0  0  0  0  0  0  0  0  0  0  0  0
  -30.2360  -24.0680   19.3340 C   0  0  0  0  0  2  0  0  0  0  0  0
  -30.8870  -22.6900   19.6050 C   0  0  0  0  0  2  0  0  0  0  0  0
  -29.1220  -24.2000   20.3710 C   0  0  0  0  0  3  0  0  0  0  0  0
  -29.8510  -21.8400   20.2060 N   0  0  0  0  0  0  0  0  0  0  0  0
  -27.7790  -22.2980   21.1340 O   0  0  0  0  0  0  0  0  0  0  0  0
  -27.9250  -25.1950   19.9930 C   0  0  0  0  0  2  0  0  0  0  0  0
  -28.1370  -26.6690   19.9800 O   0  0  0  0  0  0  0  0  0  0  0  0
  -24.5080  -31.9930   23.1980 C   0  0  0  0  0  0  0  0  0  0  0  0
  -27.0090  -27.5140   19.9620 C   0  0  0  0  0  0  0  0  0  0  0  0
  -23.2380  -30.6360   21.5670 C   0  0  0  0  0  3  0  0  0  0  0  0
  -24.6370  -29.1250   20.0460 C   0  0  0  0  0  0  0  0  0  0  0  0
  -25.7650  -30.9660   21.2940 C   0  0  0  0  0  2  0  0  0  0  0  0
  -25.8240  -29.6000   20.6180 C   0  0  0  0  0  0  0  0  0  0  0  0
  -27.0080  -28.8070   20.5690 C   0  0  0  0  0  3  0  0  0  0  0  0
  -25.7980  -27.0900   19.3630 C   0  0  0  0  0  3  0  0  0  0  0  0
  -24.6270  -27.8750   19.4080 C   0  0  0  0  0  3  0  0  0  0  0  0
  -23.4020  -30.0030   20.1570 C   0  0  0  0  0  2  0  0  0  0  0  0
  -24.5240  -31.2170   22.0740 N   0  0  0  0  0  0  0  0  0  0  0  0
  -23.4520  -32.2540   23.7890 O   0  0  0  0  0  0  0  0  0  0  0  0
  -22.6210  -29.5900   22.5260 C   0  0  0  0  0  0  0  0  0  0  0  0
  -21.2970  -29.3830   22.4260 N   0  0  0  0  0  0  0  0  0  0  0  0
  -23.3330  -28.9690   23.3230 O   0  0  0  0  0  0  0  0  0  0  0  0
  -20.7770  -29.9350   21.7590 H   0  0  0  0  0  0  0  0  0  0  0  0
  -17.9750  -28.0490   22.9380 C   0  0  0  0  0  0  0  0  0  0  0  0
  -20.5190  -28.4190   23.2060 C   0  0  0  0  0  3  0  0  0  0  0  0
  -20.6870  -26.9870   22.6470 C   0  0  0  0  0  2  0  0  0  0  0  0
  -19.6020  -26.6080   21.6330 C   0  0  0  0  0  2  0  0  0  0  0  0
  -18.2110  -26.7020   22.2720 C   0  0  0  0  0  2  0  0  0  0  0  0
  -19.0610  -28.8590   23.3620 C   0  0  0  0  0  0  0  0  0  0  0  0
  -18.7930  -30.1160   23.9480 C   0  0  0  0  0  3  0  0  0  0  0  0
  -17.4720  -30.5670   24.1110 C   0  0  0  0  0  3  0  0  0  0  0  0
  -16.3980  -29.7550   23.7040 C   0  0  0  0  0  3  0  0  0  0  0  0
  -16.6510  -28.4980   23.1230 C   0  0  0  0  0  3  0  0  0  0  0  0
  -25.8180  -32.6140   23.7730 C   0  0  0  0  0  3  0  0  0  0  0  0
  -26.3870  -31.8220   25.0150 C   0  0  1  0  0  0  0  0  0  0  0  0
  -25.3350  -31.5720   26.1200 C   0  0  0  0  0  1  0  0  0  0  0  0
  -26.9540  -30.4490   24.5830 C   0  0  0  0  0  1  0  0  0  0  0  0
  -27.5610  -32.6090   25.6460 C   0  0  0  0  0  1  0  0  0  0  0  0
  -25.5230  -34.0060   24.1340 N   0  0  0  0  0  0  0  0  0  0  0  0
  -25.8580  -35.0740   23.3970 C   0  0  0  0  0  0  0  0  0  0  0  0
  -26.5190  -34.9900   22.3580 O   0  0  0  0  0  0  0  0  0  0  0  0
  -24.9390  -34.1420   24.9450 H   0  0  0  0  0  0  0  0  0  0  0  0
  -24.1560  -36.9050   23.0810 C   0  0  0  0  0  1  0  0  0  0  0  0
  -25.3840  -36.4560   23.8890 C   0  0  0  0  0  3  0  0  0  0  0  0
  -27.5180  -37.3020   24.7680 C   0  0  0  0  0  1  0  0  0  0  0  0
  -26.4290  -37.4990   23.8150 N   0  0  0  0  0  0  0  0  0  0  0  0
  -26.0300  -38.4170   23.9850 H   0  0  0  0  0  0  0  0  0  0  0  0
  -33.6190  -19.6230   20.3360 C   0  0  0  0  0  1  0  0  0  0  0  0
  -32.4070  -20.1500   21.1170 C   0  0  0  0  0  3  0  0  0  0  0  0
  -31.8680  -20.4660   23.4230 C   0  0  0  0  0  1  0  0  0  0  0  0
  -32.6860  -19.8010   22.4710 O   0  0  0  0  0  0  0  0  0  0  0  0
  1  2  2  0
  1  5  1  0
  2  6  1  0
  3  4  1  0
  4 94  1  0
  5  4  2  0
  6 15  1  0
  6  3  2  0
  7 15  1  0
  8 13  1  0
  9 10  1  0
  9  8  1  0
 11 10  1  0
 11 20  1  0
 11 12  1  0
 13  7  1  0
 13 12  1  0
 14  7  2  0
 15 16  1  0
 17 18  2  0
 18 37  1  0
 19 18  1  0
 19 22  1  0
 20 17  1  0
 20 21  1  0
 21 19  2  0
 22 23  1  0
 23 24  2  0
 25 28  1  0
 25 24  1  0
 26 25  2  0
 27 26  1  0
 27 22  2  0
 28 29  1  0
 29 30  1  0
 30 31  2  0
 32 31  1  0
 32 36  1  0
 33 32  2  0
 34 29  2  0
 34 33  1  0
 35 34  1  0
 37 38  1  0
 38 41  1  0
 38 40  1  0
 39 37  2  0
 42 43  1  0
 42 17  1  0
 44 42  1  0
 45 50  2  0
 46 47  1  0
 46 48  1  0
 47 49  1  0
 48 51  1  0
 48 45  1  0
 49  5  1  0
 49 45  1  0
 52 51  1  0
 53 64  2  0
 54 52  1  0
 54 59  1  0
 55 63  1  0
 55 65  1  0
 56 62  1  0
 56 58  1  0
 57 63  1  0
 58 57  1  0
 59 58  2  0
 60 61  1  0
 60 54  2  0
 61 56  2  0
 62 55  1  0
 63 53  1  0
 65 67  2  0
 66 65  1  0
 68 66  1  0
 69 78  2  0
 69 74  1  0
 70 66  1  0
 70 74  1  0
 71 70  1  0
 72 73  1  0
 72 71  1  0
 73 69  1  0
 74 75  2  0
 75 76  1  0
 77 76  2  0
 78 77  1  0
 79 53  1  0
 79 84  1  0
 79 80  1  0
 80 83  1  1
 80 81  1  0
 82 80  1  0
 84 87  1  0
 85 89  1  0
 85 84  1  0
 86 85  2  0
 89 88  1  0
 91 89  1  0
 91 92  1  0
 91 90  1  0
 94 93  1  0
 94 96  1  0
 96 95  1  0
M  ISO  4   7 100  15 100  51 101  52 101
M  END
>  <TORSDO>  (86) 
F 20

>  <SCORE>  (86) 
-14.462

>  <name>  (86) 
86

>  <ligand_id>  (86) 
86

>  <original_smiles>  (86) 
[H]c1c([H])c([H])c2c(c1[H])C([H])([H])C([H])([H])C([H])([H])C2([H])N([H])C(=O)C1([H])N(C(=O)C([H])(N([H])C(=O)C([H])(N([H])C([H])([H])[H])C([H])([H])[H])C(C([H])([H])[H])(C([H])([H])[H])C([H])([H])[H])C([H])([H])c2c([H])c(OC([H])([H])C3([H])C(=O)N(c4c([H])c([H])c(N([H])C(=O)N5C([H])([H])C([H])([H])C([H])([H])C([H])(n6nc(-c7c([H])c([H])c(Oc8c([H])c([H])c(F)c([H])c8F)c([H])c7[H])c(C(=O)N([H])[H])c6N([H])[H])C5([H])[H])c([H])c4C([H])(OC([H])([H])[H])C([H])([H])[H])C([H])([H])C3([H])[H])c([H])c([H])c2C1([H])[H]

>  <smiles>  (86) 
[H]c1c([H])c([H])c2c(c1[H])C([H])([H])C([H])([H])C([H])([H])C2([H])N([H])C(=O)C1([H])N(C(=O)C([H])(N([H])C(=O)C([H])(N([H])C([H])([H])[H])C([H])([H])[H])C(C([H])([H])[H])(C([H])([H])[H])C([H])([H])[H])C([H])([H])c2c([H])c(OC([H])([H])C3([H])C(=O)N(c4c([H])c([H])c(N([H])C(=O)N5C([H])([H])C([H])([H])C([H])([H])C([H])(n6nc(-c7c([H])c([H])c(Oc8c([H])c([H])c(F)c([H])c8F)c([H])c7[H])c(C(=O)N([H])[H])c6N([H])[H])C5([H])[H])c([H])c4C([H])(OC([H])([H])[H])C([H])([H])[H])C([H])([H])C3([H])[H])c([H])c([H])c2C1([H])[H]

$$$$
87:0:0
     RDKit          3D

100108  0  0  1  0  0  0  0  0999 V2000
  -30.7260  -21.0040   21.7240 C   0  0  0  0  0  0  0  0  0  0  0  0
  -30.3900  -23.3690   21.1410 C   0  0  0  0  0  0  0  0  0  0  0  0
  -31.4460  -21.2380   22.8330 N   0  0  0  0  0  4  0  0  0  0  0  0
  -31.4090  -23.8950   21.8500 N   0  0  0  0  0  4  0  0  0  0  0  0
  -30.1620  -22.0230   21.0150 N   0  0  0  0  0  0  0  0  0  0  0  0
  -29.6300  -24.3120   20.5370 N   0  0  0  0  0  0  0  0  0  0  0  0
  -31.8090  -20.4500   23.3470 H   0  0  0  0  0  0  0  0  0  0  0  0
  -31.3520  -22.1170   23.3160 H   0  0  0  0  0  0  0  0  0  0  0  0
  -32.2030  -23.3300   22.1270 H   0  0  0  0  0  0  0  0  0  0  0  0
  -31.5280  -24.8930   21.9660 H   0  0  0  0  0  0  0  0  0  0  0  0
  -29.5300  -21.7150   20.2990 H   0  0  0  0  0  0  0  0  0  0  0  0
  -29.8500  -25.2790   20.7310 H   0  0  0  0  0  0  0  0  0  0  0  0
  -31.6480  -18.6870   21.6060 C   0  0  0  0  0  3  0  0  0  0  0  0
  -31.5000  -17.2990   21.3960 C   0  0  0  0  0  3  0  0  0  0  0  0
  -29.3590  -19.0620   20.8620 C   0  0  0  0  0  3  0  0  0  0  0  0
  -30.5770  -19.5820   21.3580 C   0  0  0  0  0  0  0  0  0  0  0  0
  -30.2680  -16.7780   20.9350 C   0  0  0  0  0  0  0  0  0  0  0  0
  -29.2070  -17.6710   20.6660 C   0  0  0  0  0  0  0  0  0  0  0  0
  -28.0210  -17.1790   20.2310 F   0  0  0  0  0  0  0  0  0  0  0  0
  -30.6600  -14.4630   20.0780 C   0  0  0  0  0  0  0  0  0  0  0  0
  -30.3020  -12.3430   18.8630 C   0  0  0  0  0  2  0  0  0  0  0  0
  -29.2650  -12.5680   17.7430 C   0  0  0  0  0  2  0  0  0  0  0  0
  -27.8280  -12.4060   18.2770 C   0  0  0  0  0  2  0  0  0  0  0  0
  -27.5810  -13.2070   19.5840 C   0  0  0  0  0  3  0  0  0  0  0  0
  -28.7140  -12.9460   20.6000 C   0  0  0  0  0  2  0  0  0  0  0  0
  -29.9940  -13.2830   19.9500 N   0  0  0  0  0  0  0  0  0  0  0  0
  -31.7220  -14.7020   19.4950 O   0  0  0  0  0  0  0  0  0  0  0  0
  -30.0030  -15.3880   20.7960 N   0  0  0  0  0  0  0  0  0  0  0  0
  -29.0970  -15.0970   21.1290 H   0  0  0  0  0  0  0  0  0  0  0  0
  -25.2420  -13.7870   20.4940 C   0  0  0  0  0  0  0  0  0  0  0  0
  -24.2030  -12.9990   20.9090 C   0  0  0  0  0  0  0  0  0  0  0  0
  -24.6580  -11.6510   20.7890 C   0  0  0  0  0  0  0  0  0  0  0  0
  -26.2660  -12.9170   20.1510 N   0  0  0  0  0  0  0  0  0  0  0  0
  -25.9200  -11.6240   20.3820 N   0  0  0  0  0  0  0  0  0  0  0  0
  -23.9460  -10.3810   20.9840 C   0  0  0  0  0  0  0  0  0  0  0  0
  -24.4090   -9.4070   21.8950 C   0  0  0  0  0  3  0  0  0  0  0  0
  -23.6980   -8.2010   22.0770 C   0  0  0  0  0  3  0  0  0  0  0  0
  -22.5100   -7.9620   21.3480 C   0  0  0  0  0  0  0  0  0  0  0  0
  -22.0640   -8.9250   20.4260 C   0  0  0  0  0  3  0  0  0  0  0  0
  -22.7760  -10.1220   20.2410 C   0  0  0  0  0  3  0  0  0  0  0  0
  -21.7680   -6.8090   21.4410 O   0  0  0  0  0  0  0  0  0  0  0  0
  -21.6940   -6.0920   22.6080 C   0  0  0  0  0  0  0  0  0  0  0  0
  -21.1790   -6.6540   23.7960 C   0  0  0  0  0  3  0  0  0  0  0  0
  -21.0570   -5.8610   24.9540 C   0  0  0  0  0  3  0  0  0  0  0  0
  -21.4390   -4.5060   24.9250 C   0  0  0  0  0  0  0  0  0  0  0  0
  -21.9470   -3.9430   23.7410 C   0  0  0  0  0  3  0  0  0  0  0  0
  -22.0710   -4.7340   22.5850 C   0  0  0  0  0  0  0  0  0  0  0  0
  -22.5420   -4.1810   21.4410 F   0  0  0  0  0  0  0  0  0  0  0  0
  -21.3150   -3.7420   26.0350 F   0  0  0  0  0  0  0  0  0  0  0  0
  -22.8320  -13.4640   21.3090 C   0  0  0  0  0  0  0  0  0  0  0  0
  -22.1760  -12.7370   22.2070 N   0  0  0  0  0  0  0  0  0  0  0  0
  -22.3530  -14.5050   20.8610 O   0  0  0  0  0  0  0  0  0  0  0  0
  -22.5770  -11.8940   22.5900 H   0  0  0  0  0  0  0  0  0  0  0  0
  -21.2600  -13.0290   22.5170 H   0  0  0  0  0  0  0  0  0  0  0  0
  -25.3970  -15.1640   20.3650 N   0  0  0  0  0  0  0  0  0  0  0  0
  -24.6520  -15.8130   20.5900 H   0  0  0  0  0  0  0  0  0  0  0  0
  -26.2490  -15.6310   20.0780 H   0  0  0  0  0  0  0  0  0  0  0  0
  -28.4420  -24.2200   19.6680 C   0  0  0  0  0  2  0  0  0  0  0  0
  -28.3640  -25.4740   18.7700 C   0  0  0  0  0  2  0  0  0  0  0  0
  -28.2330  -26.6760   19.5430 O   0  0  0  0  0  0  0  0  0  0  0  0
  -24.5550  -31.6310   23.0760 C   0  0  0  0  0  0  0  0  0  0  0  0
  -27.0270  -27.3470   19.6340 C   0  0  0  0  0  0  0  0  0  0  0  0
  -23.2640  -30.3260   21.4190 C   0  0  0  0  0  3  0  0  0  0  0  0
  -24.6370  -28.8560   19.8530 C   0  0  0  0  0  0  0  0  0  0  0  0
  -25.7800  -30.6800   21.1250 C   0  0  0  0  0  2  0  0  0  0  0  0
  -25.8230  -29.3430   20.4110 C   0  0  0  0  0  0  0  0  0  0  0  0
  -27.0160  -28.5930   20.3030 C   0  0  0  0  0  3  0  0  0  0  0  0
  -25.8100  -26.8600   19.0980 C   0  0  0  0  0  3  0  0  0  0  0  0
  -24.6240  -27.6120   19.2000 C   0  0  0  0  0  3  0  0  0  0  0  0
  -23.4040  -29.7180   19.9980 C   0  0  0  0  0  2  0  0  0  0  0  0
  -24.5540  -30.8900   21.9320 N   0  0  0  0  0  0  0  0  0  0  0  0
  -23.5020  -31.8810   23.6790 O   0  0  0  0  0  0  0  0  0  0  0  0
  -22.6490  -29.2590   22.3530 C   0  0  0  0  0  0  0  0  0  0  0  0
  -21.3240  -29.0660   22.2500 N   0  0  0  0  0  0  0  0  0  0  0  0
  -23.3600  -28.6090   23.1230 O   0  0  0  0  0  0  0  0  0  0  0  0
  -20.8100  -29.6450   21.6000 H   0  0  0  0  0  0  0  0  0  0  0  0
  -17.9780  -27.8080   22.7690 C   0  0  0  0  0  0  0  0  0  0  0  0
  -20.5370  -28.0880   23.0010 C   0  0  0  0  0  3  0  0  0  0  0  0
  -20.6450  -26.6820   22.3670 C   0  0  0  0  0  2  0  0  0  0  0  0
  -19.5270  -26.3850   21.3630 C   0  0  0  0  0  2  0  0  0  0  0  0
  -18.1570  -26.4870   22.0390 C   0  0  0  0  0  2  0  0  0  0  0  0
  -19.0950  -28.5670   23.2060 C   0  0  0  0  0  0  0  0  0  0  0  0
  -18.8740  -29.8050   23.8480 C   0  0  0  0  0  3  0  0  0  0  0  0
  -17.5660  -30.2830   24.0580 C   0  0  0  0  0  3  0  0  0  0  0  0
  -16.4630  -29.5200   23.6370 C   0  0  0  0  0  3  0  0  0  0  0  0
  -16.6700  -28.2840   22.9990 C   0  0  0  0  0  3  0  0  0  0  0  0
  -25.8740  -32.2200   23.6690 C   0  0  0  0  0  3  0  0  0  0  0  0
  -26.4270  -31.3960   24.8960 C   0  0  1  0  0  0  0  0  0  0  0  0
  -25.3710  -31.1320   25.9940 C   0  0  0  0  0  1  0  0  0  0  0  0
  -26.9760  -30.0280   24.4300 C   0  0  0  0  0  1  0  0  0  0  0  0
  -27.6120  -32.1510   25.5430 C   0  0  0  0  0  1  0  0  0  0  0  0
  -25.6010  -33.6100   24.0580 N   0  0  0  0  0  0  0  0  0  0  0  0
  -25.9450  -34.6840   23.3320 C   0  0  0  0  0  0  0  0  0  0  0  0
  -26.5980  -34.6050   22.2870 O   0  0  0  0  0  0  0  0  0  0  0  0
  -25.0220  -33.7470   24.8720 H   0  0  0  0  0  0  0  0  0  0  0  0
  -24.2610  -36.5300   23.0610 C   0  0  0  0  0  1  0  0  0  0  0  0
  -25.4940  -36.0630   23.8490 C   0  0  0  0  0  3  0  0  0  0  0  0
  -27.6480  -36.8660   24.7120 C   0  0  0  0  0  1  0  0  0  0  0  0
  -26.5530  -37.0930   23.7740 N   0  0  0  0  0  0  0  0  0  0  0  0
  -26.1690  -38.0180   23.9530 H   0  0  0  0  0  0  0  0  0  0  0  0
  1  3  2  0
  2  4  2  0
  3  8  1  0
  3  7  1  0
  4 10  1  0
  4  9  1  0
  5  2  1  0
  5  1  1  0
  6 12  1  0
  6  2  1  0
 11  5  1  0
 14 13  1  0
 15 16  1  0
 16 13  2  0
 16  1  1  0
 17 14  2  0
 18 15  2  0
 18 17  1  0
 19 18  1  0
 20 28  1  0
 21 26  1  0
 22 23  1  0
 22 21  1  0
 24 23  1  0
 24 33  1  0
 24 25  1  0
 26 20  1  0
 26 25  1  0
 27 20  2  0
 28 17  1  0
 28 29  1  0
 30 31  2  0
 31 50  1  0
 32 31  1  0
 32 35  1  0
 33 34  1  0
 33 30  1  0
 34 32  2  0
 35 36  1  0
 36 37  2  0
 38 41  1  0
 38 37  1  0
 39 38  2  0
 40 39  1  0
 40 35  2  0
 41 42  1  0
 42 43  1  0
 43 44  2  0
 45 44  1  0
 45 49  1  0
 46 45  2  0
 47 42  2  0
 47 46  1  0
 48 47  1  0
 50 51  1  0
 51 54  1  0
 51 53  1  0
 52 50  2  0
 55 30  1  0
 55 56  1  0
 57 55  1  0
 58  6  1  0
 59 60  1  0
 59 58  1  0
 60 62  1  0
 61 72  2  0
 62 67  1  0
 63 71  1  0
 63 73  1  0
 64 70  1  0
 64 66  1  0
 65 71  1  0
 66 65  1  0
 67 66  2  0
 68 69  1  0
 68 62  2  0
 69 64  2  0
 70 63  1  0
 71 61  1  0
 73 75  2  0
 74 73  1  0
 76 74  1  0
 77 86  2  0
 77 82  1  0
 78 74  1  0
 78 82  1  0
 79 78  1  0
 80 81  1  0
 80 79  1  0
 81 77  1  0
 82 83  2  0
 83 84  1  0
 85 84  2  0
 86 85  1  0
 87 61  1  0
 87 92  1  0
 87 88  1  0
 88 91  1  1
 88 89  1  0
 90 88  1  0
 92 95  1  0
 93 97  1  0
 93 92  1  0
 94 93  2  0
 97 96  1  0
 99 97  1  0
 99100  1  0
 99 98  1  0
M  ISO  4  20 100  28 100  59 101  60 101
M  END
>  <TORSDO>  (87) 
F 19

>  <SCORE>  (87) 
-13.830

>  <name>  (87) 
87

>  <ligand_id>  (87) 
87

>  <original_smiles>  (87) 
[H]c1c([H])c([H])c2c(c1[H])C([H])([H])C([H])([H])C([H])([H])C2([H])N([H])C(=O)C1([H])N(C(=O)C([H])(N([H])C(=O)C([H])(N([H])C([H])([H])[H])C([H])([H])[H])C(C([H])([H])[H])(C([H])([H])[H])C([H])([H])[H])C([H])([H])c2c([H])c(OC([H])([H])C([H])([H])[N+]([H])=C(N([H])[H])N([H])C(c3c([H])c([H])c(N([H])C(=O)N4C([H])([H])C([H])([H])C([H])([H])C([H])(n5nc(-c6c([H])c([H])c(Oc7c([H])c([H])c(F)c([H])c7F)c([H])c6[H])c(C(=O)N([H])[H])c5N([H])[H])C4([H])[H])c(F)c3[H])=[N+]([H])[H])c([H])c([H])c2C1([H])[H]

>  <smiles>  (87) 
[H]c1c([H])c([H])c2c(c1[H])C([H])([H])C([H])([H])C([H])([H])C2([H])N([H])C(=O)C1([H])N(C(=O)C([H])(N([H])C(=O)C([H])(N([H])C([H])([H])[H])C([H])([H])[H])C(C([H])([H])[H])(C([H])([H])[H])C([H])([H])[H])C([H])([H])c2c([H])c(OC([H])([H])C([H])([H])[N+]([H])=C(N([H])[H])N([H])C(c3c([H])c([H])c(N([H])C(=O)N4C([H])([H])C([H])([H])C([H])([H])C([H])(n5nc(-c6c([H])c([H])c(Oc7c([H])c([H])c(F)c([H])c7F)c([H])c6[H])c(C(=O)N([H])[H])c5N([H])[H])C4([H])[H])c(F)c3[H])=[N+]([H])[H])c([H])c([H])c2C1([H])[H]

$$$$
88:0:0
     RDKit          3D

106115  0  0  1  0  0  0  0  0999 V2000
  -30.5670  -21.0850   22.5930 C   0  0  0  0  0  0  0  0  0  0  0  0
  -30.9730  -20.1350   21.4510 C   0  0  0  0  0  2  0  0  0  0  0  0
  -32.8180  -21.3780   23.2310 C   0  0  0  0  0  2  0  0  0  0  0  0
  -33.1440  -19.9720   22.6900 C   0  0  0  0  0  2  0  0  0  0  0  0
  -31.3920  -21.6060   23.4200 N   0  0  0  0  0  0  0  0  0  0  0  0
  -32.3780  -19.6870   21.4740 N   0  0  0  0  0  0  0  0  0  0  0  0
  -34.0270  -18.5900   19.9940 C   0  0  0  0  0  3  0  0  0  0  0  0
  -33.5360  -16.4430   18.9540 C   0  0  0  0  0  3  0  0  0  0  0  0
  -31.8960  -17.5050   20.4210 C   0  0  0  0  0  3  0  0  0  0  0  0
  -34.4160  -17.5240   19.1570 C   0  0  0  0  0  0  0  0  0  0  0  0
  -32.7650  -18.6080   20.6390 C   0  0  0  0  0  0  0  0  0  0  0  0
  -32.2740  -16.4350   19.5830 C   0  0  0  0  0  0  0  0  0  0  0  0
  -31.7330  -14.1720   18.8110 C   0  0  0  0  0  0  0  0  0  0  0  0
  -31.3880  -11.7250   18.7970 C   0  0  0  0  0  2  0  0  0  0  0  0
  -30.3340  -11.2650   17.7740 C   0  0  0  0  0  2  0  0  0  0  0  0
  -28.9200  -11.3340   18.3770 C   0  0  0  0  0  2  0  0  0  0  0  0
  -28.6300  -12.7050   19.0400 C   0  0  0  0  0  3  0  0  0  0  0  0
  -29.7770  -13.1030   19.9940 C   0  0  0  0  0  2  0  0  0  0  0  0
  -31.0460  -13.0840   19.2400 N   0  0  0  0  0  0  0  0  0  0  0  0
  -32.6250  -14.1190   17.9540 O   0  0  0  0  0  0  0  0  0  0  0  0
  -31.4270  -15.3110   19.4450 N   0  0  0  0  0  0  0  0  0  0  0  0
  -30.6350  -15.2690   20.0670 H   0  0  0  0  0  0  0  0  0  0  0  0
  -26.5680  -13.7720   20.1580 C   0  0  0  0  0  0  0  0  0  0  0  0
  -25.4210  -13.2260   20.6660 C   0  0  0  0  0  0  0  0  0  0  0  0
  -25.5500  -11.8120   20.5030 C   0  0  0  0  0  0  0  0  0  0  0  0
  -27.3380  -12.7040   19.7220 N   0  0  0  0  0  0  0  0  0  0  0  0
  -26.7330  -11.5160   19.9820 N   0  0  0  0  0  0  0  0  0  0  0  0
  -24.5930  -10.7290   20.7570 C   0  0  0  0  0  0  0  0  0  0  0  0
  -24.8990   -9.6600   21.6290 C   0  0  0  0  0  3  0  0  0  0  0  0
  -23.9540   -8.6410   21.8720 C   0  0  0  0  0  3  0  0  0  0  0  0
  -22.6880   -8.6840   21.2430 C   0  0  0  0  0  0  0  0  0  0  0  0
  -22.3960   -9.7360   20.3570 C   0  0  0  0  0  3  0  0  0  0  0  0
  -23.3400  -10.7470   20.1120 C   0  0  0  0  0  3  0  0  0  0  0  0
  -21.7160   -7.7240   21.4000 O   0  0  0  0  0  0  0  0  0  0  0  0
  -21.5810   -7.0190   22.5690 C   0  0  0  0  0  0  0  0  0  0  0  0
  -21.2450   -7.6520   23.7860 C   0  0  0  0  0  3  0  0  0  0  0  0
  -21.0480   -6.8810   24.9490 C   0  0  0  0  0  3  0  0  0  0  0  0
  -21.1790   -5.4790   24.8970 C   0  0  0  0  0  0  0  0  0  0  0  0
  -21.5090   -4.8480   23.6850 C   0  0  0  0  0  3  0  0  0  0  0  0
  -21.7060   -5.6150   22.5240 C   0  0  0  0  0  0  0  0  0  0  0  0
  -22.0020   -5.0000   21.3530 F   0  0  0  0  0  0  0  0  0  0  0  0
  -20.9830   -4.7380   26.0120 F   0  0  0  0  0  0  0  0  0  0  0  0
  -24.2280  -13.9720   21.1890 C   0  0  0  0  0  0  0  0  0  0  0  0
  -23.4960  -13.3810   22.1260 N   0  0  0  0  0  0  0  0  0  0  0  0
  -23.9650  -15.1100   20.8000 O   0  0  0  0  0  0  0  0  0  0  0  0
  -23.7220  -12.4560   22.4600 H   0  0  0  0  0  0  0  0  0  0  0  0
  -22.6980  -13.8610   22.5190 H   0  0  0  0  0  0  0  0  0  0  0  0
  -27.0150  -15.0830   20.0120 N   0  0  0  0  0  0  0  0  0  0  0  0
  -26.4470  -15.8820   20.2720 H   0  0  0  0  0  0  0  0  0  0  0  0
  -27.8910  -15.3450   19.5780 H   0  0  0  0  0  0  0  0  0  0  0  0
  -35.7910  -17.5410   18.5080 C   0  0  1  0  0  0  0  0  0  0  0  0
  -36.7160  -17.5150   19.4630 F   0  0  0  0  0  0  0  0  0  0  0  0
  -35.9760  -16.4870   17.7150 F   0  0  0  0  0  0  0  0  0  0  0  0
  -35.9930  -18.7310   17.7210 N   0  0  0  0  0  0  0  0  0  0  0  0
  -36.8040  -19.2000   18.1010 H   0  0  0  0  0  0  0  0  0  0  0  0
  -35.2180  -19.3510   17.9200 H   0  0  0  0  0  0  0  0  0  0  0  0
  -29.0740  -21.3540   22.7080 C   0  0  0  0  0  2  0  0  0  0  0  0
  -28.8950  -23.8270   22.2880 C   0  0  0  0  0  0  0  0  0  0  0  0
  -28.6420  -22.5470   21.9710 N   0  0  0  0  0  0  0  0  0  0  0  0
  -29.6560  -24.1380   23.2070 O   0  0  0  0  0  0  0  0  0  0  0  0
  -28.0060  -22.3950   21.2000 H   0  0  0  0  0  0  0  0  0  0  0  0
  -26.9060  -25.2950   22.4300 C   0  0  0  0  0  1  0  0  0  0  0  0
  -27.6110  -24.3810   20.1610 C   0  0  0  0  0  1  0  0  0  0  0  0
  -28.1100  -24.9260   21.5220 C   0  0  2  0  0  0  0  0  0  0  0  0
  -29.0480  -26.1530   21.2590 C   0  0  0  0  0  2  0  0  0  0  0  0
  -28.8700  -26.8190   19.9950 O   0  0  0  0  0  0  0  0  0  0  0  0
  -24.5180  -31.6230   22.9250 C   0  0  0  0  0  0  0  0  0  0  0  0
  -27.7230  -27.5610   19.8870 C   0  0  0  0  0  0  0  0  0  0  0  0
  -23.6060  -30.3420   21.0170 C   0  0  0  0  0  3  0  0  0  0  0  0
  -25.3020  -28.9840   19.6820 C   0  0  0  0  0  0  0  0  0  0  0  0
  -26.1160  -30.7860   21.2110 C   0  0  0  0  0  2  0  0  0  0  0  0
  -26.3380  -29.4790   20.4820 C   0  0  0  0  0  0  0  0  0  0  0  0
  -27.5520  -28.7660   20.6000 C   0  0  0  0  0  3  0  0  0  0  0  0
  -26.6980  -27.1080   19.0350 C   0  0  0  0  0  3  0  0  0  0  0  0
  -25.4750  -27.7950   18.9560 C   0  0  0  0  0  3  0  0  0  0  0  0
  -24.0300  -29.7950   19.6280 C   0  0  0  0  0  2  0  0  0  0  0  0
  -24.7560  -30.9260   21.7790 N   0  0  0  0  0  0  0  0  0  0  0  0
  -23.3640  -31.8150   23.3290 O   0  0  0  0  0  0  0  0  0  0  0  0
  -22.8680  -29.2220   21.7870 C   0  0  0  0  0  0  0  0  0  0  0  0
  -22.0710  -28.4240   21.0600 N   0  0  0  0  0  0  0  0  0  0  0  0
  -23.0430  -29.0640   22.9980 O   0  0  0  0  0  0  0  0  0  0  0  0
  -21.9720  -28.6190   20.0730 H   0  0  0  0  0  0  0  0  0  0  0  0
  -20.4320  -25.3580   20.0780 C   0  0  0  0  0  0  0  0  0  0  0  0
  -21.3090  -27.2820   21.5650 C   0  0  0  0  0  3  0  0  0  0  0  0
  -22.2440  -26.2280   22.2040 C   0  0  0  0  0  2  0  0  0  0  0  0
  -22.6780  -25.1350   21.2240 C   0  0  0  0  0  2  0  0  0  0  0  0
  -21.4580  -24.4000   20.6610 C   0  0  0  0  0  2  0  0  0  0  0  0
  -20.3710  -26.7160   20.4940 C   0  0  0  0  0  0  0  0  0  0  0  0
  -19.4230  -27.5740   19.8940 C   0  0  0  0  0  3  0  0  0  0  0  0
  -18.5420  -27.0960   18.9070 C   0  0  0  0  0  3  0  0  0  0  0  0
  -18.5930  -25.7460   18.5140 C   0  0  0  0  0  3  0  0  0  0  0  0
  -19.5340  -24.8810   19.1010 C   0  0  0  0  0  3  0  0  0  0  0  0
  -25.6820  -32.2300   23.7690 C   0  0  0  0  0  3  0  0  0  0  0  0
  -25.3060  -33.6060   24.1190 N   0  0  0  0  0  0  0  0  0  0  0  0
  -25.7450  -34.6990   23.4800 C   0  0  0  0  0  0  0  0  0  0  0  0
  -26.5740  -34.6530   22.5690 O   0  0  0  0  0  0  0  0  0  0  0  0
  -24.5880  -33.7140   24.8200 H   0  0  0  0  0  0  0  0  0  0  0  0
  -24.0800  -36.5020   22.9350 C   0  0  0  0  0  1  0  0  0  0  0  0
  -25.1690  -36.0590   23.9230 C   0  0  0  0  0  3  0  0  0  0  0  0
  -27.1260  -36.8950   25.1460 C   0  0  0  0  0  1  0  0  0  0  0  0
  -26.1950  -37.1190   24.0430 N   0  0  0  0  0  0  0  0  0  0  0  0
  -25.7610  -38.0280   24.1760 H   0  0  0  0  0  0  0  0  0  0  0  0
  -26.0100  -31.3910   25.0620 C   0  0  1  0  0  0  0  0  0  0  0  0
  -24.7660  -31.0670   25.9240 C   0  0  0  0  0  1  0  0  0  0  0  0
  -26.6830  -30.0510   24.6870 C   0  0  0  0  0  1  0  0  0  0  0  0
  -27.0230  -32.1600   25.9410 C   0  0  0  0  0  1  0  0  0  0  0  0
  1 57  1  0
  1  5  2  0
  2  6  1  0
  2  1  1  0
  3  5  1  0
  4  3  1  0
  6  4  1  0
  7 11  1  0
  8 10  1  0
  8 12  2  0
  9 11  2  0
 10  7  2  0
 11  6  1  0
 12  9  1  0
 13 19  1  0
 13 21  1  0
 14 19  1  0
 15 16  1  0
 15 14  1  0
 17 16  1  0
 17 26  1  0
 17 18  1  0
 19 18  1  0
 20 13  2  0
 21 12  1  0
 21 22  1  0
 23 24  2  0
 24 43  1  0
 25 24  1  0
 25 28  1  0
 26 27  1  0
 26 23  1  0
 27 25  2  0
 28 29  1  0
 29 30  2  0
 31 34  1  0
 31 30  1  0
 32 31  2  0
 33 32  1  0
 33 28  2  0
 34 35  1  0
 35 36  1  0
 36 37  2  0
 38 37  1  0
 38 42  1  0
 39 38  2  0
 40 35  2  0
 40 39  1  0
 41 40  1  0
 43 44  1  0
 44 46  1  0
 44 47  1  0
 45 43  2  0
 48 23  1  0
 48 49  1  0
 50 48  1  0
 51 10  1  0
 51 52  1  1
 53 51  1  0
 54 56  1  0
 54 55  1  0
 54 51  1  0
 58 60  2  0
 59 58  1  0
 59 57  1  0
 61 59  1  0
 64 63  1  6
 64 58  1  0
 64 62  1  0
 65 64  1  0
 66 65  1  0
 67 78  2  0
 68 66  1  0
 68 73  1  0
 69 77  1  0
 69 79  1  0
 70 72  1  0
 71 77  1  0
 72 73  2  0
 72 71  1  0
 74 68  2  0
 75 74  1  0
 75 70  2  0
 76 70  1  0
 76 69  1  0
 77 67  1  0
 79 81  2  0
 80 79  1  0
 82 80  1  0
 83 88  1  0
 83 87  1  0
 84 80  1  0
 84 85  1  0
 86 85  1  0
 87 86  1  0
 88 84  1  0
 89 88  2  0
 90 89  1  0
 91 90  2  0
 91 92  1  0
 92 83  2  0
 93 67  1  0
 93 94  1  0
 93103  1  0
 94 97  1  0
 95 99  1  0
 95 94  1  0
 96 95  2  0
 99 98  1  0
 99101  1  0
101102  1  0
101100  1  0
103104  1  1
103106  1  0
105103  1  0
M  ISO  4  13 100  21 100  65 101  66 101
M  END
>  <TORSDO>  (88) 
F 23

>  <SCORE>  (88) 
-10.129

>  <name>  (88) 
88

>  <ligand_id>  (88) 
88

>  <original_smiles>  (88) 
[H]c1c([H])c([H])c2c(c1[H])C([H])([H])C([H])([H])C([H])([H])C2([H])N([H])C(=O)C1([H])N(C(=O)C([H])(N([H])C(=O)C([H])(N([H])C([H])([H])[H])C([H])([H])[H])C(C([H])([H])[H])(C([H])([H])[H])C([H])([H])[H])C([H])([H])c2c([H])c(OC([H])([H])C(C(=O)N([H])C([H])([H])C3=NC([H])([H])C([H])([H])N(c4c([H])c(N([H])C(=O)N5C([H])([H])C([H])([H])C([H])([H])C([H])(n6nc(-c7c([H])c([H])c(Oc8c([H])c([H])c(F)c([H])c8F)c([H])c7[H])c(C(=O)N([H])[H])c6N([H])[H])C5([H])[H])c([H])c(C(F)(F)N([H])[H])c4[H])C3([H])[H])(C([H])([H])[H])C([H])([H])[H])c([H])c([H])c2C1([H])[H]

>  <smiles>  (88) 
[H]c1c([H])c([H])c2c(c1[H])C([H])([H])C([H])([H])C([H])([H])C2([H])N([H])C(=O)C1([H])N(C(=O)C([H])(N([H])C(=O)C([H])(N([H])C([H])([H])[H])C([H])([H])[H])C(C([H])([H])[H])(C([H])([H])[H])C([H])([H])[H])C([H])([H])c2c([H])c(OC([H])([H])C(C(=O)N([H])C([H])([H])C3=NC([H])([H])C([H])([H])N(c4c([H])c(N([H])C(=O)N5C([H])([H])C([H])([H])C([H])([H])C([H])(n6nc(-c7c([H])c([H])c(Oc8c([H])c([H])c(F)c([H])c8F)c([H])c7[H])c(C(=O)N([H])[H])c6N([H])[H])C5([H])[H])c([H])c(C(F)(F)N([H])[H])c4[H])C3([H])[H])(C([H])([H])[H])C([H])([H])[H])c([H])c([H])c2C1([H])[H]

$$$$
89:0:0
     RDKit          3D

 95104  0  0  1  0  0  0  0  0999 V2000
  -30.5920  -18.8560   19.8240 C   0  0  0  0  0  3  0  0  0  0  0  0
  -30.1460  -20.2010   19.7650 C   0  0  0  0  0  3  0  0  0  0  0  0
  -30.1280  -20.3020   22.1500 C   0  0  0  0  0  3  0  0  0  0  0  0
  -30.8540  -18.2190   21.0570 C   0  0  0  0  0  0  0  0  0  0  0  0
  -29.9350  -20.9930   20.9230 C   0  0  0  0  0  0  0  0  0  0  0  0
  -30.5730  -18.9570   22.2340 C   0  0  0  0  0  0  0  0  0  0  0  0
  -29.3510  -24.3590   21.1620 C   0  0  0  0  0  0  0  0  0  0  0  0
  -29.7230  -23.5160   20.0480 C   0  0  0  0  0  0  0  0  0  0  0  0
  -29.1110  -25.6850   21.3390 C   0  0  0  0  0  3  0  0  0  0  0  0
  -29.3160  -23.1600   22.0930 C   0  0  0  0  0  2  0  0  0  0  0  0
  -29.5540  -22.3850   20.8670 N   0  0  0  0  0  0  0  0  0  0  0  0
  -30.1110  -23.7650   18.9240 O   0  0  0  0  0  0  0  0  0  0  0  0
  -29.1390  -26.6970   20.3970 O   0  0  0  0  0  0  0  0  0  0  0  0
  -24.8750  -31.5600   23.4430 C   0  0  0  0  0  0  0  0  0  0  0  0
  -27.9740  -27.4330   20.3360 C   0  0  0  0  0  0  0  0  0  0  0  0
  -23.8510  -30.1320   21.7040 C   0  0  0  0  0  3  0  0  0  0  0  0
  -25.4780  -28.7690   20.2850 C   0  0  0  0  0  0  0  0  0  0  0  0
  -26.3490  -30.6880   21.6280 C   0  0  0  0  0  2  0  0  0  0  0  0
  -26.5700  -29.3530   20.9430 C   0  0  0  0  0  0  0  0  0  0  0  0
  -27.8240  -28.6930   20.9680 C   0  0  0  0  0  3  0  0  0  0  0  0
  -26.8690  -26.8700   19.6670 C   0  0  0  0  0  3  0  0  0  0  0  0
  -25.6240  -27.5280   19.6410 C   0  0  0  0  0  3  0  0  0  0  0  0
  -24.1690  -29.5270   20.3100 C   0  0  0  0  0  2  0  0  0  0  0  0
  -25.0390  -30.8080   22.3180 N   0  0  0  0  0  0  0  0  0  0  0  0
  -23.7550  -31.7270   23.9450 O   0  0  0  0  0  0  0  0  0  0  0  0
  -23.2430  -29.0280   22.6000 C   0  0  0  0  0  0  0  0  0  0  0  0
  -21.9730  -28.6760   22.3400 N   0  0  0  0  0  0  0  0  0  0  0  0
  -23.9160  -28.4910   23.4840 O   0  0  0  0  0  0  0  0  0  0  0  0
  -21.4860  -29.1700   21.6060 H   0  0  0  0  0  0  0  0  0  0  0  0
  -18.8020  -26.9430   22.3950 C   0  0  0  0  0  0  0  0  0  0  0  0
  -21.2100  -27.6350   23.0300 C   0  0  0  0  0  3  0  0  0  0  0  0
  -21.6320  -26.2270   22.5500 C   0  0  0  0  0  2  0  0  0  0  0  0
  -20.7680  -25.6970   21.4020 C   0  0  0  0  0  2  0  0  0  0  0  0
  -19.2970  -25.6240   21.8250 C   0  0  0  0  0  2  0  0  0  0  0  0
  -19.7020  -27.8930   22.9460 C   0  0  0  0  0  0  0  0  0  0  0  0
  -19.1930  -29.1180   23.4310 C   0  0  0  0  0  3  0  0  0  0  0  0
  -17.8140  -29.3960   23.3760 C   0  0  0  0  0  3  0  0  0  0  0  0
  -16.9260  -28.4450   22.8440 C   0  0  0  0  0  3  0  0  0  0  0  0
  -17.4200  -27.2200   22.3590 C   0  0  0  0  0  3  0  0  0  0  0  0
  -26.0820  -32.2640   24.1380 C   0  0  0  0  0  3  0  0  0  0  0  0
  -26.5300  -31.5550   25.4750 C   0  0  1  0  0  0  0  0  0  0  0  0
  -25.3730  -31.3240   26.4730 C   0  0  0  0  0  1  0  0  0  0  0  0
  -27.1770  -30.1820   25.1750 C   0  0  0  0  0  1  0  0  0  0  0  0
  -27.6080  -32.4080   26.1840 C   0  0  0  0  0  1  0  0  0  0  0  0
  -25.6920  -33.6580   24.3940 N   0  0  0  0  0  0  0  0  0  0  0  0
  -26.0430  -34.6990   23.6280 C   0  0  0  0  0  0  0  0  0  0  0  0
  -26.7980  -34.5910   22.6570 O   0  0  0  0  0  0  0  0  0  0  0  0
  -25.0310  -33.8120   25.1410 H   0  0  0  0  0  0  0  0  0  0  0  0
  -24.2730  -36.3990   23.0790 C   0  0  0  0  0  1  0  0  0  0  0  0
  -25.4640  -36.0780   23.9960 C   0  0  0  0  0  3  0  0  0  0  0  0
  -27.4880  -37.0880   24.9540 C   0  0  0  0  0  1  0  0  0  0  0  0
  -26.4580  -37.1720   23.9210 N   0  0  0  0  0  0  0  0  0  0  0  0
  -26.0020  -38.0770   24.0020 H   0  0  0  0  0  0  0  0  0  0  0  0
  -30.7680  -18.3970   23.4980 N   0  0  0  0  0  0  0  0  0  0  0  0
  -30.3400  -18.8440   24.3020 H   0  0  0  0  0  0  0  0  0  0  0  0
  -30.8010  -17.3870   23.5850 H   0  0  0  0  0  0  0  0  0  0  0  0
  -31.6000  -16.8610   21.0800 C   0  0  0  0  0  2  0  0  0  0  0  0
  -31.4530  -14.5590   20.0890 C   0  0  0  0  0  0  0  0  0  0  0  0
  -31.0170  -12.3910   18.9810 C   0  0  0  0  0  2  0  0  0  0  0  0
  -30.0650  -12.5930   17.7850 C   0  0  0  0  0  2  0  0  0  0  0  0
  -28.5970  -12.5290   18.2460 C   0  0  0  0  0  2  0  0  0  0  0  0
  -28.3170  -13.4180   19.4880 C   0  0  0  0  0  3  0  0  0  0  0  0
  -29.3820  -13.1960   20.5850 C   0  0  0  0  0  2  0  0  0  0  0  0
  -30.7030  -13.4270   19.9820 N   0  0  0  0  0  0  0  0  0  0  0  0
  -32.5750  -14.6490   19.5810 O   0  0  0  0  0  0  0  0  0  0  0  0
  -30.8830  -15.6230   20.7000 N   0  0  0  0  0  0  0  0  0  0  0  0
  -29.9440  -15.5040   21.0500 H   0  0  0  0  0  0  0  0  0  0  0  0
  -25.9800  -14.1550   20.2640 C   0  0  0  0  0  0  0  0  0  0  0  0
  -24.8780  -13.4440   20.6550 C   0  0  0  0  0  0  0  0  0  0  0  0
  -25.2580  -12.0670   20.6020 C   0  0  0  0  0  0  0  0  0  0  0  0
  -26.9640  -13.2160   19.9990 N   0  0  0  0  0  0  0  0  0  0  0  0
  -26.5350  -11.9540   20.2620 N   0  0  0  0  0  0  0  0  0  0  0  0
  -24.4630  -10.8480   20.8000 C   0  0  0  0  0  0  0  0  0  0  0  0
  -24.8330   -9.8720   21.7510 C   0  0  0  0  0  3  0  0  0  0  0  0
  -24.0420   -8.7170   21.9360 C   0  0  0  0  0  3  0  0  0  0  0  0
  -22.8670   -8.5320   21.1690 C   0  0  0  0  0  0  0  0  0  0  0  0
  -22.5160   -9.4960   20.2080 C   0  0  0  0  0  3  0  0  0  0  0  0
  -23.3060  -10.6420   20.0210 C   0  0  0  0  0  3  0  0  0  0  0  0
  -22.0500   -7.4310   21.2620 O   0  0  0  0  0  0  0  0  0  0  0  0
  -21.8900   -6.7520   22.4430 C   0  0  0  0  0  0  0  0  0  0  0  0
  -21.3990   -7.3840   23.6070 C   0  0  0  0  0  3  0  0  0  0  0  0
  -21.1850   -6.6330   24.7790 C   0  0  0  0  0  3  0  0  0  0  0  0
  -21.4490   -5.2510   24.7890 C   0  0  0  0  0  0  0  0  0  0  0  0
  -21.9330   -4.6180   23.6300 C   0  0  0  0  0  3  0  0  0  0  0  0
  -22.1490   -5.3670   22.4600 C   0  0  0  0  0  0  0  0  0  0  0  0
  -22.5950   -4.7480   21.3400 F   0  0  0  0  0  0  0  0  0  0  0  0
  -21.2360   -4.5270   25.9120 F   0  0  0  0  0  0  0  0  0  0  0  0
  -23.5180  -14.0000   20.9650 C   0  0  0  0  0  0  0  0  0  0  0  0
  -22.7800  -13.3510   21.8580 N   0  0  0  0  0  0  0  0  0  0  0  0
  -23.1220  -15.0440   20.4490 O   0  0  0  0  0  0  0  0  0  0  0  0
  -23.1130  -12.5060   22.2980 H   0  0  0  0  0  0  0  0  0  0  0  0
  -21.8670  -13.7050   22.1080 H   0  0  0  0  0  0  0  0  0  0  0  0
  -26.2210  -15.5150   20.0940 N   0  0  0  0  0  0  0  0  0  0  0  0
  -25.4980  -16.2130   20.2240 H   0  0  0  0  0  0  0  0  0  0  0  0
  -27.0910  -15.9060   19.7550 H   0  0  0  0  0  0  0  0  0  0  0  0
  1  4  1  0
  2  1  2  0
  2  5  1  0
  3  6  1  0
  4 57  1  0
  4  6  2  0
  5  3  2  0
  6 54  1  0
  7  9  2  0
  7 10  1  0
  8 11  1  0
  8  7  1  0
 11  5  1  0
 11 10  1  0
 12  8  2  0
 13  9  1  0
 14 25  2  0
 15 13  1  0
 15 20  1  0
 16 24  1  0
 16 26  1  0
 17 23  1  0
 17 19  1  0
 18 24  1  0
 19 20  2  0
 19 18  1  0
 21 15  2  0
 22 21  1  0
 22 17  2  0
 23 16  1  0
 24 14  1  0
 26 28  2  0
 27 26  1  0
 29 27  1  0
 30 35  1  0
 31 27  1  0
 32 31  1  0
 33 34  1  0
 33 32  1  0
 34 30  1  0
 35 31  1  0
 35 36  2  0
 37 36  1  0
 38 37  2  0
 39 30  2  0
 39 38  1  0
 40 14  1  0
 40 45  1  0
 40 41  1  0
 41 44  1  1
 41 42  1  0
 43 41  1  0
 45 48  1  0
 46 50  1  0
 46 45  1  0
 47 46  2  0
 50 49  1  0
 52 50  1  0
 52 53  1  0
 52 51  1  0
 54 56  1  0
 54 55  1  0
 58 66  1  0
 59 64  1  0
 60 61  1  0
 60 59  1  0
 62 61  1  0
 62 71  1  0
 62 63  1  0
 64 58  1  0
 64 63  1  0
 65 58  2  0
 66 67  1  0
 66 57  1  0
 68 69  2  0
 69 88  1  0
 70 69  1  0
 70 73  1  0
 71 72  1  0
 71 68  1  0
 72 70  2  0
 73 74  1  0
 74 75  2  0
 76 79  1  0
 76 75  1  0
 77 76  2  0
 78 77  1  0
 78 73  2  0
 79 80  1  0
 80 85  2  0
 80 81  1  0
 81 82  2  0
 82 83  1  0
 83 87  1  0
 84 83  2  0
 85 84  1  0
 86 85  1  0
 88 89  1  0
 89 92  1  0
 89 91  1  0
 90 88  2  0
 93 94  1  0
 93 68  1  0
 95 93  1  0
M  ISO  4   9 101  13 101  58 100  66 100
M  END
>  <TORSDO>  (89) 
F 19

>  <SCORE>  (89) 
-12.481

>  <name>  (89) 
89

>  <ligand_id>  (89) 
89

>  <original_smiles>  (89) 
[H]C(Oc1c([H])c([H])c2c(c1[H])C([H])([H])N(C(=O)C([H])(N([H])C(=O)C([H])(N([H])C([H])([H])[H])C([H])([H])[H])C(C([H])([H])[H])(C([H])([H])[H])C([H])([H])[H])C([H])(C(=O)N([H])C1([H])c3c([H])c([H])c([H])c([H])c3C([H])([H])C([H])([H])C1([H])[H])C2([H])[H])=C1C(=O)N(c2c([H])c([H])c(C([H])([H])N([H])C(=O)N3C([H])([H])C([H])([H])C([H])([H])C([H])(n4nc(-c5c([H])c([H])c(Oc6c([H])c([H])c(F)c([H])c6F)c([H])c5[H])c(C(=O)N([H])[H])c4N([H])[H])C3([H])[H])c(N([H])[H])c2[H])C1([H])[H]

>  <smiles>  (89) 
[H]C(Oc1c([H])c([H])c2c(c1[H])C([H])([H])N(C(=O)C([H])(N([H])C(=O)C([H])(N([H])C([H])([H])[H])C([H])([H])[H])C(C([H])([H])[H])(C([H])([H])[H])C([H])([H])[H])C([H])(C(=O)N([H])C1([H])c3c([H])c([H])c([H])c([H])c3C([H])([H])C([H])([H])C1([H])[H])C2([H])[H])=C1C(=O)N(c2c([H])c([H])c(C([H])([H])N([H])C(=O)N3C([H])([H])C([H])([H])C([H])([H])C([H])(n4nc(-c5c([H])c([H])c(Oc6c([H])c([H])c(F)c([H])c6F)c([H])c5[H])c(C(=O)N([H])[H])c4N([H])[H])C3([H])[H])c(N([H])[H])c2[H])C1([H])[H]

$$$$
90:0:0
     RDKit          3D

 95104  0  0  1  0  0  0  0  0999 V2000
  -29.3520  -23.2610   19.8520 C   0  0  0  0  0  3  0  0  0  0  0  0
  -28.5380  -24.1510   20.4870 C   0  0  0  0  0  0  0  0  0  0  0  0
  -27.7740  -23.3360   21.3910 C   0  0  0  0  0  0  0  0  0  0  0  0
  -26.6790  -23.7420   22.0530 C   0  0  0  0  0  1  0  0  0  0  0  0
  -28.3430  -21.9370   21.4320 C   0  0  0  0  0  3  0  0  0  0  0  0
  -29.2940  -21.9230   20.3220 N   0  0  0  0  0  0  0  0  0  0  0  0
  -27.9230  -19.1420   18.2210 C   0  0  0  0  0  3  0  0  0  0  0  0
  -28.7310  -18.0520   18.6060 C   0  0  0  0  0  3  0  0  0  0  0  0
  -28.1630  -20.4380   18.7310 C   0  0  0  0  0  3  0  0  0  0  0  0
  -30.0510  -19.5570   19.9870 C   0  0  0  0  0  3  0  0  0  0  0  0
  -29.8310  -18.2370   19.4700 C   0  0  0  0  0  0  0  0  0  0  0  0
  -29.2170  -20.6710   19.6380 C   0  0  0  0  0  0  0  0  0  0  0  0
  -30.8230  -17.0450   19.6760 C   0  0  0  0  0  3  0  0  0  0  0  0
  -31.0070  -14.7140   20.7000 C   0  0  0  0  0  0  0  0  0  0  0  0
  -30.7400  -12.4780   19.7420 C   0  0  0  0  0  2  0  0  0  0  0  0
  -29.8850  -12.6540   18.4700 C   0  0  0  0  0  2  0  0  0  0  0  0
  -28.3890  -12.5230   18.8200 C   0  0  0  0  0  2  0  0  0  0  0  0
  -27.9660  -13.4030   20.0290 C   0  0  0  0  0  3  0  0  0  0  0  0
  -28.9710  -13.2870   21.2020 C   0  0  0  0  0  2  0  0  0  0  0  0
  -30.3190  -13.5390   20.6720 N   0  0  0  0  0  0  0  0  0  0  0  0
  -32.2370  -14.7440   20.6290 O   0  0  0  0  0  0  0  0  0  0  0  0
  -30.2940  -15.8390   20.3990 N   0  0  0  0  0  0  0  0  0  0  0  0
  -29.2920  -15.7500   20.4350 H   0  0  0  0  0  0  0  0  0  0  0  0
  -25.5330  -14.0130   20.5880 C   0  0  0  0  0  0  0  0  0  0  0  0
  -24.4420  -13.2480   20.9040 C   0  0  0  0  0  0  0  0  0  0  0  0
  -24.9000  -11.8960   20.9270 C   0  0  0  0  0  0  0  0  0  0  0  0
  -26.5900  -13.1310   20.4440 N   0  0  0  0  0  0  0  0  0  0  0  0
  -26.2090  -11.8520   20.7070 N   0  0  0  0  0  0  0  0  0  0  0  0
  -24.1560  -10.6400   21.0960 C   0  0  0  0  0  0  0  0  0  0  0  0
  -24.5270   -9.6840   22.0680 C   0  0  0  0  0  3  0  0  0  0  0  0
  -23.7850   -8.4920   22.2200 C   0  0  0  0  0  3  0  0  0  0  0  0
  -22.6580   -8.2470   21.3970 C   0  0  0  0  0  0  0  0  0  0  0  0
  -22.3060   -9.1930   20.4180 C   0  0  0  0  0  3  0  0  0  0  0  0
  -23.0480  -10.3770   20.2660 C   0  0  0  0  0  3  0  0  0  0  0  0
  -21.8930   -7.1060   21.4560 O   0  0  0  0  0  0  0  0  0  0  0  0
  -21.7770   -6.3790   22.6150 C   0  0  0  0  0  0  0  0  0  0  0  0
  -21.2810   -6.9530   23.8050 C   0  0  0  0  0  3  0  0  0  0  0  0
  -21.1070   -6.1520   24.9520 C   0  0  0  0  0  3  0  0  0  0  0  0
  -21.4190   -4.7810   24.9090 C   0  0  0  0  0  0  0  0  0  0  0  0
  -21.9080   -4.2080   23.7230 C   0  0  0  0  0  3  0  0  0  0  0  0
  -22.0830   -5.0030   22.5760 C   0  0  0  0  0  0  0  0  0  0  0  0
  -22.5340   -4.4390   21.4290 F   0  0  0  0  0  0  0  0  0  0  0  0
  -21.2480   -4.0130   26.0100 F   0  0  0  0  0  0  0  0  0  0  0  0
  -23.0290  -13.7350   21.0650 C   0  0  0  0  0  0  0  0  0  0  0  0
  -22.2350  -13.0700   21.8960 N   0  0  0  0  0  0  0  0  0  0  0  0
  -22.6330  -14.7420   20.4800 O   0  0  0  0  0  0  0  0  0  0  0  0
  -22.5630  -12.2590   22.4010 H   0  0  0  0  0  0  0  0  0  0  0  0
  -21.2840  -13.3810   22.0300 H   0  0  0  0  0  0  0  0  0  0  0  0
  -25.6980  -15.3840   20.3990 N   0  0  0  0  0  0  0  0  0  0  0  0
  -24.8990  -16.0060   20.4370 H   0  0  0  0  0  0  0  0  0  0  0  0
  -26.5410  -15.8560   20.0960 H   0  0  0  0  0  0  0  0  0  0  0  0
  -31.9210  -17.6280   17.3200 C   0  0  0  0  0  1  0  0  0  0  0  0
  -31.3730  -16.5610   18.2910 C   0  0  0  0  0  2  0  0  0  0  0  0
  -28.6820  -25.7060   20.6630 C   0  0  0  0  0  2  0  0  0  0  0  0
  -28.1570  -26.6300   19.6750 O   0  0  0  0  0  0  0  0  0  0  0  0
  -24.5120  -31.9010   23.1300 C   0  0  0  0  0  0  0  0  0  0  0  0
  -27.0210  -27.3980   19.9270 C   0  0  0  0  0  0  0  0  0  0  0  0
  -23.2540  -30.5260   21.5090 C   0  0  0  0  0  3  0  0  0  0  0  0
  -24.6540  -28.9720   20.0420 C   0  0  0  0  0  0  0  0  0  0  0  0
  -25.7860  -30.8360   21.2570 C   0  0  0  0  0  2  0  0  0  0  0  0
  -25.8400  -29.4600   20.6050 C   0  0  0  0  0  0  0  0  0  0  0  0
  -27.0330  -28.6830   20.5410 C   0  0  0  0  0  3  0  0  0  0  0  0
  -25.8140  -26.9360   19.3750 C   0  0  0  0  0  3  0  0  0  0  0  0
  -24.6380  -27.7100   19.4250 C   0  0  0  0  0  3  0  0  0  0  0  0
  -23.4240  -29.8540   20.1210 C   0  0  0  0  0  2  0  0  0  0  0  0
  -24.5380  -31.1060   22.0200 N   0  0  0  0  0  0  0  0  0  0  0  0
  -23.4470  -32.1830   23.6970 O   0  0  0  0  0  0  0  0  0  0  0  0
  -22.6140  -29.5060   22.4810 C   0  0  0  0  0  0  0  0  0  0  0  0
  -21.2820  -29.3380   22.3830 N   0  0  0  0  0  0  0  0  0  0  0  0
  -23.3130  -28.8700   23.2750 O   0  0  0  0  0  0  0  0  0  0  0  0
  -20.7790  -29.9120   21.7230 H   0  0  0  0  0  0  0  0  0  0  0  0
  -17.9160  -28.1470   22.9450 C   0  0  0  0  0  0  0  0  0  0  0  0
  -20.4810  -28.3940   23.1600 C   0  0  0  0  0  3  0  0  0  0  0  0
  -20.5610  -26.9650   22.5670 C   0  0  0  0  0  2  0  0  0  0  0  0
  -19.4360  -26.6570   21.5810 C   0  0  0  0  0  2  0  0  0  0  0  0
  -18.0760  -26.8020   22.2570 C   0  0  0  0  0  2  0  0  0  0  0  0
  -19.0480  -28.9030   23.3560 C   0  0  0  0  0  0  0  0  0  0  0  0
  -18.8500  -30.1600   23.9620 C   0  0  0  0  0  3  0  0  0  0  0  0
  -17.5520  -30.6660   24.1630 C   0  0  0  0  0  3  0  0  0  0  0  0
  -16.4360  -29.9070   23.7720 C   0  0  0  0  0  3  0  0  0  0  0  0
  -16.6160  -28.6530   23.1660 C   0  0  0  0  0  3  0  0  0  0  0  0
  -25.8190  -32.5130   23.7210 C   0  0  0  0  0  3  0  0  0  0  0  0
  -26.3730  -31.7170   24.9670 C   0  0  1  0  0  0  0  0  0  0  0  0
  -25.3100  -31.4670   26.0600 C   0  0  0  0  0  1  0  0  0  0  0  0
  -26.9370  -30.3440   24.5330 C   0  0  0  0  0  1  0  0  0  0  0  0
  -27.5490  -32.4940   25.6070 C   0  0  0  0  0  1  0  0  0  0  0  0
  -25.5260  -33.9070   24.0900 N   0  0  0  0  0  0  0  0  0  0  0  0
  -25.8680  -34.9760   23.3600 C   0  0  0  0  0  0  0  0  0  0  0  0
  -26.5360  -34.8930   22.3250 O   0  0  0  0  0  0  0  0  0  0  0  0
  -24.9320  -34.0480   24.8940 H   0  0  0  0  0  0  0  0  0  0  0  0
  -24.1730  -36.8050   23.0450 C   0  0  0  0  0  1  0  0  0  0  0  0
  -25.3980  -36.3560   23.8550 C   0  0  0  0  0  3  0  0  0  0  0  0
  -27.5350  -37.1800   24.7410 C   0  0  0  0  0  1  0  0  0  0  0  0
  -26.4490  -37.3960   23.7880 N   0  0  0  0  0  0  0  0  0  0  0  0
  -26.0530  -38.3170   23.9580 H   0  0  0  0  0  0  0  0  0  0  0  0
  1  6  1  0
  1  2  2  0
  2 54  1  0
  2  3  1  0
  3  5  2  0
  3  4  1  0
  6  5  1  0
  7  8  2  0
  7  9  1  0
  8 11  1  0
  9 12  2  0
 11 13  1  0
 11 10  2  0
 12 10  1  0
 12  6  1  0
 13 53  1  0
 13 22  1  0
 15 20  1  0
 16 17  1  0
 16 15  1  0
 18 17  1  0
 18 27  1  0
 18 19  1  0
 20 14  1  0
 20 19  1  0
 21 14  2  0
 22 23  1  0
 22 14  1  0
 24 25  2  0
 25 26  1  0
 25 44  1  0
 26 29  1  0
 27 24  1  0
 27 28  1  0
 28 26  2  0
 29 30  1  0
 30 31  2  0
 32 35  1  0
 32 31  1  0
 33 32  2  0
 34 33  1  0
 34 29  2  0
 35 36  1  0
 36 37  1  0
 37 38  2  0
 39 38  1  0
 39 43  1  0
 40 39  2  0
 41 36  2  0
 41 40  1  0
 42 41  1  0
 44 45  1  0
 45 48  1  0
 45 47  1  0
 46 44  2  0
 49 50  1  0
 49 24  1  0
 51 49  1  0
 52 53  1  0
 55 57  1  0
 55 54  1  0
 56 67  2  0
 57 62  1  0
 58 66  1  0
 58 68  1  0
 59 65  1  0
 59 61  1  0
 60 66  1  0
 61 60  1  0
 62 61  2  0
 63 64  1  0
 63 57  2  0
 64 59  2  0
 65 58  1  0
 66 56  1  0
 68 70  2  0
 69 68  1  0
 71 69  1  0
 72 81  2  0
 72 77  1  0
 73 69  1  0
 73 77  1  0
 74 73  1  0
 75 76  1  0
 75 74  1  0
 76 72  1  0
 77 78  2  0
 78 79  1  0
 80 79  2  0
 81 80  1  0
 82 56  1  0
 82 87  1  0
 82 83  1  0
 83 86  1  1
 83 84  1  0
 85 83  1  0
 87 90  1  0
 88 92  1  0
 88 87  1  0
 89 88  2  0
 92 91  1  0
 94 92  1  0
 94 95  1  0
 94 93  1  0
M  ISO  4  14 100  22 100  54 101  55 101
M  END
>  <TORSDO>  (90) 
F 20

>  <SCORE>  (90) 
-13.899

>  <name>  (90) 
90

>  <ligand_id>  (90) 
90

>  <original_smiles>  (90) 
[H]C([H])=C1C(C([H])([H])Oc2c([H])c([H])c3c(c2[H])C([H])([H])N(C(=O)C([H])(N([H])C(=O)C([H])(N([H])C([H])([H])[H])C([H])([H])[H])C(C([H])([H])[H])(C([H])([H])[H])C([H])([H])[H])C([H])(C(=O)N([H])C2([H])c4c([H])c([H])c([H])c([H])c4C([H])([H])C([H])([H])C2([H])[H])C3([H])[H])=C([H])N(c2c([H])c([H])c([H])c(C([H])(N([H])C(=O)N3C([H])([H])C([H])([H])C([H])([H])C([H])(n4nc(-c5c([H])c([H])c(Oc6c([H])c([H])c(F)c([H])c6F)c([H])c5[H])c(C(=O)N([H])[H])c4N([H])[H])C3([H])[H])C([H])([H])C([H])([H])[H])c2[H])C1([H])[H]

>  <smiles>  (90) 
[H]C([H])=C1C(C([H])([H])Oc2c([H])c([H])c3c(c2[H])C([H])([H])N(C(=O)C([H])(N([H])C(=O)C([H])(N([H])C([H])([H])[H])C([H])([H])[H])C(C([H])([H])[H])(C([H])([H])[H])C([H])([H])[H])C([H])(C(=O)N([H])C2([H])c4c([H])c([H])c([H])c([H])c4C([H])([H])C([H])([H])C2([H])[H])C3([H])[H])=C([H])N(c2c([H])c([H])c([H])c(C([H])(N([H])C(=O)N3C([H])([H])C([H])([H])C([H])([H])C([H])(n4nc(-c5c([H])c([H])c(Oc6c([H])c([H])c(F)c([H])c6F)c([H])c5[H])c(C(=O)N([H])[H])c4N([H])[H])C3([H])[H])C([H])([H])C([H])([H])[H])c2[H])C1([H])[H]

$$$$
91:0:0
     RDKit          3D

 94103  0  0  1  0  0  0  0  0999 V2000
  -29.1790  -22.6320   20.8690 C   0  0  0  0  0  3  0  0  0  0  0  0
  -28.2610  -23.5390   20.3760 C   0  0  0  0  0  0  0  0  0  0  0  0
  -27.4020  -22.6680   19.5780 C   0  0  0  0  0  0  0  0  0  0  0  0
  -26.3000  -23.0410   18.9070 C   0  0  0  0  0  1  0  0  0  0  0  0
  -27.8750  -21.2110   19.6200 C   0  0  0  0  0  3  0  0  0  0  0  0
  -29.0660  -21.2500   20.4580 N   0  0  0  0  0  0  0  0  0  0  0  0
  -29.4390  -18.6460   20.3750 C   0  0  0  0  0  3  0  0  0  0  0  0
  -31.4310  -17.6820   21.3820 C   0  0  0  0  0  3  0  0  0  0  0  0
  -29.8200  -20.0180   20.7480 C   0  0  0  0  0  0  0  0  0  0  0  0
  -30.2270  -17.4500   20.6810 C   0  0  0  0  0  0  0  0  0  0  0  0
  -31.8410  -18.9760   21.7440 C   0  0  0  0  0  0  0  0  0  0  0  0
  -31.0540  -20.1110   21.4490 C   0  0  0  0  0  0  0  0  0  0  0  0
  -33.0190  -19.1340   22.4010 F   0  0  0  0  0  0  0  0  0  0  0  0
  -31.5330  -21.3090   21.8630 F   0  0  0  0  0  0  0  0  0  0  0  0
  -30.6120  -14.8900   20.1680 C   0  0  0  0  0  0  0  0  0  0  0  0
  -30.3960  -12.6070   19.1360 C   0  0  0  0  0  2  0  0  0  0  0  0
  -29.4050  -12.6280   17.9460 C   0  0  0  0  0  2  0  0  0  0  0  0
  -27.9640  -12.4240   18.4470 C   0  0  0  0  0  2  0  0  0  0  0  0
  -27.6210  -13.3390   19.6510 C   0  0  0  0  0  3  0  0  0  0  0  0
  -28.7190  -13.2870   20.7320 C   0  0  0  0  0  2  0  0  0  0  0  0
  -29.9780  -13.6670   20.0840 N   0  0  0  0  0  0  0  0  0  0  0  0
  -31.7900  -14.9770   19.8200 O   0  0  0  0  0  0  0  0  0  0  0  0
  -29.8390  -16.0330   20.3960 N   0  0  0  0  0  0  0  0  0  0  0  0
  -28.8460  -15.8560   20.3950 H   0  0  0  0  0  0  0  0  0  0  0  0
  -25.2790  -13.9210   20.5110 C   0  0  0  0  0  0  0  0  0  0  0  0
  -24.2210  -13.1410   20.8950 C   0  0  0  0  0  0  0  0  0  0  0  0
  -24.6830  -11.7910   20.8160 C   0  0  0  0  0  0  0  0  0  0  0  0
  -26.3040  -13.0440   20.2030 N   0  0  0  0  0  0  0  0  0  0  0  0
  -25.9580  -11.7560   20.4540 N   0  0  0  0  0  0  0  0  0  0  0  0
  -23.9630  -10.5270   21.0080 C   0  0  0  0  0  0  0  0  0  0  0  0
  -24.4120   -9.5610   21.9340 C   0  0  0  0  0  3  0  0  0  0  0  0
  -23.6940   -8.3590   22.1150 C   0  0  0  0  0  3  0  0  0  0  0  0
  -22.5180   -8.1160   21.3650 C   0  0  0  0  0  0  0  0  0  0  0  0
  -22.0900   -9.0730   20.4260 C   0  0  0  0  0  3  0  0  0  0  0  0
  -22.8060  -10.2670   20.2470 C   0  0  0  0  0  3  0  0  0  0  0  0
  -21.7700   -6.9680   21.4500 O   0  0  0  0  0  0  0  0  0  0  0  0
  -21.7040   -6.2380   22.6100 C   0  0  0  0  0  0  0  0  0  0  0  0
  -21.2250   -6.7970   23.8150 C   0  0  0  0  0  3  0  0  0  0  0  0
  -21.1090   -5.9940   24.9660 C   0  0  0  0  0  3  0  0  0  0  0  0
  -21.4610   -4.6300   24.9120 C   0  0  0  0  0  0  0  0  0  0  0  0
  -21.9320   -4.0710   23.7110 C   0  0  0  0  0  3  0  0  0  0  0  0
  -22.0520   -4.8730   22.5640 C   0  0  0  0  0  0  0  0  0  0  0  0
  -22.4850   -4.3240   21.4030 F   0  0  0  0  0  0  0  0  0  0  0  0
  -21.3450   -3.8560   26.0170 F   0  0  0  0  0  0  0  0  0  0  0  0
  -22.8370  -13.6110   21.2310 C   0  0  0  0  0  0  0  0  0  0  0  0
  -22.1430  -12.8890   22.1040 N   0  0  0  0  0  0  0  0  0  0  0  0
  -22.3790  -14.6540   20.7600 O   0  0  0  0  0  0  0  0  0  0  0  0
  -22.5240  -12.0420   22.5020 H   0  0  0  0  0  0  0  0  0  0  0  0
  -21.2230  -13.1940   22.3880 H   0  0  0  0  0  0  0  0  0  0  0  0
  -25.4490  -15.2950   20.3720 N   0  0  0  0  0  0  0  0  0  0  0  0
  -24.7080  -15.9650   20.5410 H   0  0  0  0  0  0  0  0  0  0  0  0
  -26.3080  -15.7350   20.0690 H   0  0  0  0  0  0  0  0  0  0  0  0
  -27.8960  -25.0230   20.9340 C   0  0  0  0  0  2  0  0  0  0  0  0
  -28.2210  -26.3580   20.2780 O   0  0  0  0  0  0  0  0  0  0  0  0
  -24.5920  -31.9720   23.2310 C   0  0  0  0  0  0  0  0  0  0  0  0
  -27.1770  -27.3240   20.2250 C   0  0  0  0  0  0  0  0  0  0  0  0
  -23.3920  -30.5650   21.6020 C   0  0  0  0  0  3  0  0  0  0  0  0
  -24.8410  -29.0090   20.1660 C   0  0  0  0  0  0  0  0  0  0  0  0
  -25.9370  -30.8580   21.4230 C   0  0  0  0  0  2  0  0  0  0  0  0
  -26.0120  -29.4700   20.7860 C   0  0  0  0  0  0  0  0  0  0  0  0
  -27.1820  -28.6340   20.8160 C   0  0  0  0  0  3  0  0  0  0  0  0
  -26.0020  -26.9560   19.5430 C   0  0  0  0  0  3  0  0  0  0  0  0
  -24.8460  -27.7600   19.5250 C   0  0  0  0  0  3  0  0  0  0  0  0
  -23.6010  -29.8880   20.2210 C   0  0  0  0  0  2  0  0  0  0  0  0
  -24.6600  -31.1540   22.1400 N   0  0  0  0  0  0  0  0  0  0  0  0
  -23.5070  -32.2530   23.7640 O   0  0  0  0  0  0  0  0  0  0  0  0
  -22.7270  -29.5530   22.5650 C   0  0  0  0  0  0  0  0  0  0  0  0
  -21.4010  -29.3790   22.4430 N   0  0  0  0  0  0  0  0  0  0  0  0
  -23.4010  -28.9270   23.3880 O   0  0  0  0  0  0  0  0  0  0  0  0
  -20.9130  -29.9150   21.7370 H   0  0  0  0  0  0  0  0  0  0  0  0
  -18.0270  -28.1940   22.9650 C   0  0  0  0  0  0  0  0  0  0  0  0
  -20.5850  -28.4470   23.2250 C   0  0  0  0  0  3  0  0  0  0  0  0
  -20.6880  -27.0130   22.6470 C   0  0  0  0  0  2  0  0  0  0  0  0
  -19.5820  -26.6880   21.6400 C   0  0  0  0  0  2  0  0  0  0  0  0
  -18.2020  -26.8460   22.2820 C   0  0  0  0  0  2  0  0  0  0  0  0
  -19.1470  -28.9540   23.3930 C   0  0  0  0  0  0  0  0  0  0  0  0
  -18.9250  -30.2210   23.9800 C   0  0  0  0  0  3  0  0  0  0  0  0
  -17.6200  -30.7190   24.1500 C   0  0  0  0  0  3  0  0  0  0  0  0
  -16.5150  -29.9470   23.7490 C   0  0  0  0  0  3  0  0  0  0  0  0
  -16.7210  -28.6880   23.1590 C   0  0  0  0  0  3  0  0  0  0  0  0
  -25.8720  -32.6140   23.8510 C   0  0  0  0  0  3  0  0  0  0  0  0
  -25.5570  -34.0130   24.1780 N   0  0  0  0  0  0  0  0  0  0  0  0
  -25.8890  -35.0670   23.4210 C   0  0  0  0  0  0  0  0  0  0  0  0
  -26.5590  -34.9650   22.3900 O   0  0  0  0  0  0  0  0  0  0  0  0
  -24.9620  -34.1660   24.9790 H   0  0  0  0  0  0  0  0  0  0  0  0
  -24.1720  -36.8670   23.0500 C   0  0  0  0  0  1  0  0  0  0  0  0
  -25.4000  -36.4560   23.8770 C   0  0  0  0  0  3  0  0  0  0  0  0
  -27.5220  -37.3340   24.7420 C   0  0  0  0  0  1  0  0  0  0  0  0
  -26.4370  -37.5070   23.7800 N   0  0  0  0  0  0  0  0  0  0  0  0
  -26.0320  -38.4300   23.9180 H   0  0  0  0  0  0  0  0  0  0  0  0
  -26.3860  -31.8530   25.1340 C   0  0  1  0  0  0  0  0  0  0  0  0
  -25.2950  -31.6150   26.2050 C   0  0  0  0  0  1  0  0  0  0  0  0
  -26.9800  -30.4770   24.7570 C   0  0  0  0  0  1  0  0  0  0  0  0
  -27.5320  -32.6520   25.7960 C   0  0  0  0  0  1  0  0  0  0  0  0
  2  1  2  0
  2 53  1  0
  3  5  2  0
  3  2  1  0
  4  3  1  0
  5  6  1  0
  6  9  1  0
  6  1  1  0
  7 10  2  0
  7  9  1  0
  8 11  2  0
  9 12  2  0
 10  8  1  0
 11 13  1  0
 12 11  1  0
 12 14  1  0
 15 23  1  0
 16 21  1  0
 17 18  1  0
 17 16  1  0
 19 18  1  0
 19 28  1  0
 19 20  1  0
 21 15  1  0
 21 20  1  0
 22 15  2  0
 23 10  1  0
 24 23  1  0
 25 26  2  0
 26 45  1  0
 27 26  1  0
 27 30  1  0
 28 29  1  0
 28 25  1  0
 29 27  2  0
 30 31  1  0
 31 32  2  0
 33 36  1  0
 33 32  1  0
 34 33  2  0
 35 34  1  0
 35 30  2  0
 36 37  1  0
 37 38  1  0
 38 39  2  0
 40 39  1  0
 40 44  1  0
 41 40  2  0
 42 37  2  0
 42 41  1  0
 43 42  1  0
 45 46  1  0
 46 49  1  0
 46 48  1  0
 47 45  2  0
 50 25  1  0
 50 51  1  0
 52 50  1  0
 54 53  1  0
 55 66  2  0
 56 54  1  0
 56 61  1  0
 57 65  1  0
 57 67  1  0
 58 64  1  0
 58 60  1  0
 59 65  1  0
 60 61  2  0
 60 59  1  0
 62 56  2  0
 63 62  1  0
 63 58  2  0
 64 57  1  0
 65 55  1  0
 67 69  2  0
 68 67  1  0
 70 68  1  0
 71 80  2  0
 71 76  1  0
 72 68  1  0
 72 76  1  0
 73 72  1  0
 74 75  1  0
 74 73  1  0
 75 71  1  0
 76 77  2  0
 77 78  1  0
 79 78  2  0
 80 79  1  0
 81 55  1  0
 81 82  1  0
 81 91  1  0
 82 85  1  0
 83 87  1  0
 83 82  1  0
 84 83  2  0
 87 86  1  0
 89 87  1  0
 89 90  1  0
 89 88  1  0
 91 94  1  1
 91 92  1  0
 93 91  1  0
M  ISO  4  15 100  23 100  53 101  54 101
M  END
>  <TORSDO>  (91) 
F 18

>  <SCORE>  (91) 
-15.070

>  <name>  (91) 
91

>  <ligand_id>  (91) 
91

>  <original_smiles>  (91) 
[H]C([H])=C1C(C([H])([H])Oc2c([H])c([H])c3c(c2[H])C([H])([H])N(C(=O)C([H])(N([H])C(=O)C([H])(N([H])C([H])([H])[H])C([H])([H])[H])C(C([H])([H])[H])(C([H])([H])[H])C([H])([H])[H])C([H])(C(=O)N([H])C2([H])c4c([H])c([H])c([H])c([H])c4C([H])([H])C([H])([H])C2([H])[H])C3([H])[H])=C([H])N(c2c([H])c(N([H])C(=O)N3C([H])([H])C([H])([H])C([H])([H])C([H])(n4nc(-c5c([H])c([H])c(Oc6c([H])c([H])c(F)c([H])c6F)c([H])c5[H])c(C(=O)N([H])[H])c4N([H])[H])C3([H])[H])c([H])c(F)c2F)C1([H])[H]

>  <smiles>  (91) 
[H]C([H])=C1C(C([H])([H])Oc2c([H])c([H])c3c(c2[H])C([H])([H])N(C(=O)C([H])(N([H])C(=O)C([H])(N([H])C([H])([H])[H])C([H])([H])[H])C(C([H])([H])[H])(C([H])([H])[H])C([H])([H])[H])C([H])(C(=O)N([H])C2([H])c4c([H])c([H])c([H])c([H])c4C([H])([H])C([H])([H])C2([H])[H])C3([H])[H])=C([H])N(c2c([H])c(N([H])C(=O)N3C([H])([H])C([H])([H])C([H])([H])C([H])(n4nc(-c5c([H])c([H])c(Oc6c([H])c([H])c(F)c([H])c6F)c([H])c5[H])c(C(=O)N([H])[H])c4N([H])[H])C3([H])[H])c([H])c(F)c2F)C1([H])[H]

$$$$
92:0:0
     RDKit          3D

 98107  0  0  1  0  0  0  0  0999 V2000
  -33.0940  -15.1080   16.5760 C   0  0  0  0  0  3  0  0  0  0  0  0
  -35.1630  -15.3190   17.8150 C   0  0  0  0  0  3  0  0  0  0  0  0
  -32.5720  -14.2950   17.5990 C   0  0  0  0  0  3  0  0  0  0  0  0
  -34.6400  -14.5130   18.8400 C   0  0  0  0  0  3  0  0  0  0  0  0
  -34.4120  -15.6150   16.6540 C   0  0  0  0  0  0  0  0  0  0  0  0
  -33.3450  -13.9520   18.7350 C   0  0  0  0  0  0  0  0  0  0  0  0
  -32.5360  -11.7270   19.5490 C   0  0  0  0  0  0  0  0  0  0  0  0
  -31.8540  -12.2840   21.7540 C   0  0  0  0  0  2  0  0  0  0  0  0
  -32.2350  -13.5300   20.9610 C   0  0  0  0  0  2  0  0  0  0  0  0
  -31.7020  -11.1660   20.7090 C   0  0  1  0  0  0  0  0  0  0  0  0
  -30.2410  -11.0880   20.1930 C   0  0  0  0  0  1  0  0  0  0  0  0
  -32.8050  -13.0420   19.7080 N   0  0  0  0  0  0  0  0  0  0  0  0
  -32.8700  -11.0110   18.5990 O   0  0  0  0  0  0  0  0  0  0  0  0
  -32.2530   -9.7900   21.2260 C   0  0  0  0  0  2  0  0  0  0  0  0
  -33.6790   -9.6770   21.2740 O   0  0  0  0  0  0  0  0  0  0  0  0
  -38.2670   -4.4050   22.4440 C   0  0  0  0  0  0  0  0  0  0  0  0
  -34.2940   -8.5730   20.7220 C   0  0  0  0  0  0  0  0  0  0  0  0
  -37.5880   -4.7230   20.0860 C   0  0  0  0  0  3  0  0  0  0  0  0
  -35.6220   -6.2960   19.7060 C   0  0  0  0  0  0  0  0  0  0  0  0
  -36.0250   -5.3870   22.0000 C   0  0  0  0  0  2  0  0  0  0  0  0
  -35.4670   -6.4560   21.0870 C   0  0  0  0  0  0  0  0  0  0  0  0
  -34.8050   -7.5930   21.5980 C   0  0  0  0  0  3  0  0  0  0  0  0
  -34.4520   -8.3900   19.3280 C   0  0  0  0  0  3  0  0  0  0  0  0
  -35.1220   -7.2630   18.8200 C   0  0  0  0  0  3  0  0  0  0  0  0
  -36.3310   -5.0490   19.2360 C   0  0  0  0  0  2  0  0  0  0  0  0
  -37.3310   -4.8470   21.5580 N   0  0  0  0  0  0  0  0  0  0  0  0
  -39.3090   -3.8590   22.0530 O   0  0  0  0  0  0  0  0  0  0  0  0
  -38.7620   -5.5970   19.5920 C   0  0  0  0  0  0  0  0  0  0  0  0
  -38.9940   -6.7280   20.2780 N   0  0  0  0  0  0  0  0  0  0  0  0
  -39.4550   -5.2430   18.6350 O   0  0  0  0  0  0  0  0  0  0  0  0
  -38.3860   -6.9450   21.0530 H   0  0  0  0  0  0  0  0  0  0  0  0
  -40.2720   -9.9810   21.1880 C   0  0  0  0  0  0  0  0  0  0  0  0
  -40.0680   -7.6870   20.0130 C   0  0  0  0  0  3  0  0  0  0  0  0
  -41.3600   -7.3020   20.7700 C   0  0  0  0  0  2  0  0  0  0  0  0
  -41.4760   -7.9720   22.1440 C   0  0  0  0  0  2  0  0  0  0  0  0
  -41.4590   -9.4970   22.0050 C   0  0  0  0  0  2  0  0  0  0  0  0
  -39.6090   -9.1270   20.2680 C   0  0  0  0  0  0  0  0  0  0  0  0
  -38.4870   -9.6170   19.5640 C   0  0  0  0  0  3  0  0  0  0  0  0
  -38.0300  -10.9330   19.7670 C   0  0  0  0  0  3  0  0  0  0  0  0
  -38.7000  -11.7790   20.6660 C   0  0  0  0  0  3  0  0  0  0  0  0
  -39.8210  -11.3040   21.3710 C   0  0  0  0  0  3  0  0  0  0  0  0
  -38.0610   -4.5360   23.9850 C   0  0  0  0  0  3  0  0  0  0  0  0
  -36.9390   -3.5770   24.5460 C   0  0  1  0  0  0  0  0  0  0  0  0
  -35.5330   -4.2190   24.5810 C   0  0  0  0  0  1  0  0  0  0  0  0
  -36.8460   -2.2880   23.6950 C   0  0  0  0  0  1  0  0  0  0  0  0
  -37.3000   -3.1330   25.9820 C   0  0  0  0  0  1  0  0  0  0  0  0
  -37.7350   -5.9380   24.2700 N   0  0  0  0  0  0  0  0  0  0  0  0
  -38.6190   -6.8500   24.6990 C   0  0  0  0  0  0  0  0  0  0  0  0
  -39.7900   -6.5740   24.9670 O   0  0  0  0  0  0  0  0  0  0  0  0
  -36.8080   -6.2470   24.0220 H   0  0  0  0  0  0  0  0  0  0  0  0
  -37.6200   -8.8170   23.4960 C   0  0  0  0  0  1  0  0  0  0  0  0
  -38.1240   -8.3000   24.8520 C   0  0  0  0  0  3  0  0  0  0  0  0
  -39.0170   -9.4620   26.8210 C   0  0  0  0  0  1  0  0  0  0  0  0
  -39.1520   -9.2200   25.3860 N   0  0  0  0  0  0  0  0  0  0  0  0
  -39.1160  -10.1160   24.9090 H   0  0  0  0  0  0  0  0  0  0  0  0
  -35.0990  -17.9540   15.8160 C   0  0  0  0  0  1  0  0  0  0  0  0
  -34.1940  -16.2680   14.2320 C   0  0  0  0  0  1  0  0  0  0  0  0
  -35.0550  -16.4280   15.5070 C   0  0  2  0  0  0  0  0  0  0  0  0
  -37.7860  -14.7420   13.5370 C   0  0  0  0  0  0  0  0  0  0  0  0
  -38.6560  -13.3740   11.6700 C   0  0  0  0  0  2  0  0  0  0  0  0
  -38.7860  -14.1970   10.3760 C   0  0  0  0  0  2  0  0  0  0  0  0
  -37.4530  -14.2230    9.6020 C   0  0  0  0  0  2  0  0  0  0  0  0
  -36.2440  -14.5870   10.5040 C   0  0  0  0  0  3  0  0  0  0  0  0
  -36.2570  -13.7340   11.7910 C   0  0  0  0  0  2  0  0  0  0  0  0
  -37.5560  -13.9400   12.4630 N   0  0  0  0  0  0  0  0  0  0  0  0
  -38.9230  -15.0030   13.9420 O   0  0  0  0  0  0  0  0  0  0  0  0
  -36.4860  -15.8680   15.2490 C   0  0  0  0  0  0  0  0  0  0  0  0
  -36.6610  -15.2080   14.0940 N   0  0  0  0  0  0  0  0  0  0  0  0
  -37.3740  -16.0350   16.0930 O   0  0  0  0  0  0  0  0  0  0  0  0
  -35.8170  -15.0290   13.5770 H   0  0  0  0  0  0  0  0  0  0  0  0
  -34.5610  -13.4650    8.9070 C   0  0  0  0  0  0  0  0  0  0  0  0
  -33.2740  -13.7850    8.5660 C   0  0  0  0  0  0  0  0  0  0  0  0
  -32.9640  -14.9860    9.2750 C   0  0  0  0  0  0  0  0  0  0  0  0
  -34.9790  -14.4560    9.7820 N   0  0  0  0  0  0  0  0  0  0  0  0
  -34.0210  -15.4020    9.9600 N   0  0  0  0  0  0  0  0  0  0  0  0
  -31.7040  -15.7330    9.3880 C   0  0  0  0  0  0  0  0  0  0  0  0
  -31.0570  -15.9060   10.6320 C   0  0  0  0  0  3  0  0  0  0  0  0
  -29.8560  -16.6430   10.7180 C   0  0  0  0  0  3  0  0  0  0  0  0
  -29.2900  -17.2160    9.5550 C   0  0  0  0  0  0  0  0  0  0  0  0
  -29.9280  -17.0240    8.3180 C   0  0  0  0  0  3  0  0  0  0  0  0
  -31.1200  -16.2870    8.2320 C   0  0  0  0  0  3  0  0  0  0  0  0
  -28.1130  -17.9250    9.5380 O   0  0  0  0  0  0  0  0  0  0  0  0
  -28.0920  -19.2790    9.3250 C   0  0  0  0  0  0  0  0  0  0  0  0
  -27.7120  -19.8310    8.0820 C   0  0  0  0  0  3  0  0  0  0  0  0
  -27.6360  -21.2290    7.9250 C   0  0  0  0  0  3  0  0  0  0  0  0
  -27.9280  -22.0760    9.0110 C   0  0  0  0  0  0  0  0  0  0  0  0
  -28.2990  -21.5290   10.2520 C   0  0  0  0  0  3  0  0  0  0  0  0
  -28.3770  -20.1340   10.4090 C   0  0  0  0  0  0  0  0  0  0  0  0
  -28.7150  -19.6110   11.6120 F   0  0  0  0  0  0  0  0  0  0  0  0
  -27.8460  -23.4200    8.8640 F   0  0  0  0  0  0  0  0  0  0  0  0
  -32.3470  -12.9750    7.7060 C   0  0  0  0  0  0  0  0  0  0  0  0
  -32.2270  -13.3320    6.4310 N   0  0  0  0  0  0  0  0  0  0  0  0
  -31.7630  -11.9870    8.1490 O   0  0  0  0  0  0  0  0  0  0  0  0
  -32.7200  -14.1320    6.0650 H   0  0  0  0  0  0  0  0  0  0  0  0
  -31.6340  -12.7940    5.8150 H   0  0  0  0  0  0  0  0  0  0  0  0
  -35.4020  -12.4110    8.5600 N   0  0  0  0  0  0  0  0  0  0  0  0
  -35.1090  -11.6670    7.9360 H   0  0  0  0  0  0  0  0  0  0  0  0
  -36.3330  -12.2680    8.9300 H   0  0  0  0  0  0  0  0  0  0  0  0
  1  5  2  0
  1  3  1  0
  2  4  2  0
  3  6  2  0
  5  2  1  0
  6  4  1  0
  6 12  1  0
  7 12  1  0
  7 10  1  0
  9  8  1  0
 10 11  1  6
 10 14  1  0
 10  8  1  0
 12  9  1  0
 13  7  2  0
 14 15  1  0
 17 15  1  0
 17 22  1  0
 18 28  1  0
 18 26  1  0
 19 21  1  0
 21 22  2  0
 21 20  1  0
 23 17  2  0
 24 23  1  0
 24 19  2  0
 25 19  1  0
 25 18  1  0
 26 20  1  0
 26 16  1  0
 27 16  2  0
 28 29  1  0
 29 31  1  0
 30 28  2  0
 32 41  1  0
 32 36  1  0
 33 37  1  0
 33 29  1  0
 33 34  1  0
 34 35  1  0
 36 35  1  0
 37 32  2  0
 38 39  2  0
 38 37  1  0
 39 40  1  0
 40 41  2  0
 42 16  1  0
 42 47  1  0
 42 43  1  0
 43 44  1  1
 43 46  1  0
 45 43  1  0
 47 48  1  0
 48 52  1  0
 48 49  2  0
 50 47  1  0
 52 51  1  0
 52 54  1  0
 54 53  1  0
 55 54  1  0
 58 57  1  6
 58 56  1  0
 58  5  1  0
 59 66  2  0
 59 68  1  0
 60 65  1  0
 61 60  1  0
 62 61  1  0
 63 62  1  0
 63 64  1  0
 64 65  1  0
 65 59  1  0
 67 58  1  0
 67 69  2  0
 68 67  1  0
 70 68  1  0
 71 74  1  0
 72 71  2  0
 72 73  1  0
 73 76  1  0
 73 75  2  0
 74 75  1  0
 74 63  1  0
 76 77  1  0
 77 78  2  0
 79 78  1  0
 80 79  2  0
 81 80  1  0
 81 76  2  0
 82 79  1  0
 83 82  1  0
 83 88  1  0
 84 83  2  0
 85 84  1  0
 85 86  2  0
 86 87  1  0
 87 88  2  0
 88 89  1  0
 90 86  1  0
 91 93  2  0
 91 72  1  0
 92 91  1  0
 94 92  1  0
 95 92  1  0
 96 71  1  0
 96 98  1  0
 97 96  1  0
M  ISO  4  14 101  15 101  59 100  68 100
M  END
>  <TORSDO>  (92) 
F 19

>  <SCORE>  (92) 
-4.037

>  <name>  (92) 
92

>  <ligand_id>  (92) 
92

>  <original_smiles>  (92) 
[H]c1c([H])c([H])c2c(c1[H])C([H])([H])C([H])([H])C([H])([H])C2([H])N([H])C(=O)C1([H])N(C(=O)C([H])(N([H])C(=O)C([H])(N([H])C([H])([H])[H])C([H])([H])[H])C(C([H])([H])[H])(C([H])([H])[H])C([H])([H])[H])C([H])([H])c2c([H])c(OC([H])([H])C3(C([H])([H])[H])C(=O)N(c4c([H])c([H])c(C(C(=O)N([H])C(=O)N5C([H])([H])C([H])([H])C([H])([H])C([H])(n6nc(-c7c([H])c([H])c(Oc8c([H])c([H])c(F)c([H])c8F)c([H])c7[H])c(C(=O)N([H])[H])c6N([H])[H])C5([H])[H])(C([H])([H])[H])C([H])([H])[H])c([H])c4[H])C([H])([H])C3([H])[H])c([H])c([H])c2C1([H])[H]

>  <smiles>  (92) 
[H]c1c([H])c([H])c2c(c1[H])C([H])([H])C([H])([H])C([H])([H])C2([H])N([H])C(=O)C1([H])N(C(=O)C([H])(N([H])C(=O)C([H])(N([H])C([H])([H])[H])C([H])([H])[H])C(C([H])([H])[H])(C([H])([H])[H])C([H])([H])[H])C([H])([H])c2c([H])c(OC([H])([H])C3(C([H])([H])[H])C(=O)N(c4c([H])c([H])c(C(C(=O)N([H])C(=O)N5C([H])([H])C([H])([H])C([H])([H])C([H])(n6nc(-c7c([H])c([H])c(Oc8c([H])c([H])c(F)c([H])c8F)c([H])c7[H])c(C(=O)N([H])[H])c6N([H])[H])C5([H])[H])(C([H])([H])[H])C([H])([H])[H])c([H])c4[H])C([H])([H])C3([H])[H])c([H])c([H])c2C1([H])[H]

$$$$
93:0:0
     RDKit          3D

 95103  0  0  1  0  0  0  0  0999 V2000
  -30.6880  -20.3390   19.8850 C   0  0  0  0  0  0  0  0  0  0  0  0
  -29.9010  -21.3670   19.5670 N   0  0  0  0  0  0  0  0  0  0  0  0
  -31.8010  -20.4270   20.4070 O   0  0  0  0  0  0  0  0  0  0  0  0
  -28.9990  -21.1010   19.1960 H   0  0  0  0  0  0  0  0  0  0  0  0
  -28.8680  -17.6640   17.8990 C   0  0  0  0  0  3  0  0  0  0  0  0
  -29.4280  -18.8920   18.2760 C   0  0  0  0  0  3  0  0  0  0  0  0
  -28.9810  -16.5590   18.7560 C   0  0  0  0  0  3  0  0  0  0  0  0
  -30.2120  -17.9110   20.3760 C   0  0  0  0  0  3  0  0  0  0  0  0
  -30.0910  -19.0230   19.5160 C   0  0  0  0  0  0  0  0  0  0  0  0
  -29.6660  -16.6720   19.9890 C   0  0  0  0  0  0  0  0  0  0  0  0
  -30.5930  -14.5280   20.4850 C   0  0  0  0  0  0  0  0  0  0  0  0
  -30.3100  -12.3900   19.3280 C   0  0  0  0  0  2  0  0  0  0  0  0
  -29.3520  -12.6400   18.1440 C   0  0  0  0  0  2  0  0  0  0  0  0
  -27.8810  -12.5000   18.5870 C   0  0  0  0  0  2  0  0  0  0  0  0
  -27.5580  -13.2740   19.8960 C   0  0  0  0  0  3  0  0  0  0  0  0
  -28.6360  -13.0210   20.9770 C   0  0  0  0  0  2  0  0  0  0  0  0
  -29.9530  -13.3360   20.3930 N   0  0  0  0  0  0  0  0  0  0  0  0
  -31.7390  -14.7290   20.0730 O   0  0  0  0  0  0  0  0  0  0  0  0
  -29.7960  -15.5450   20.8330 N   0  0  0  0  0  0  0  0  0  0  0  0
  -28.9360  -15.2420   21.2670 H   0  0  0  0  0  0  0  0  0  0  0  0
  -25.1580  -13.8290   20.6220 C   0  0  0  0  0  0  0  0  0  0  0  0
  -24.1100  -13.0300   20.9890 C   0  0  0  0  0  0  0  0  0  0  0  0
  -24.5990  -11.6890   20.9370 C   0  0  0  0  0  0  0  0  0  0  0  0
  -26.2200  -12.9720   20.3810 N   0  0  0  0  0  0  0  0  0  0  0  0
  -25.8870  -11.6810   20.6230 N   0  0  0  0  0  0  0  0  0  0  0  0
  -23.9030  -10.4110   21.1120 C   0  0  0  0  0  0  0  0  0  0  0  0
  -24.3580   -9.4430   22.0340 C   0  0  0  0  0  3  0  0  0  0  0  0
  -23.6620   -8.2270   22.1990 C   0  0  0  0  0  3  0  0  0  0  0  0
  -22.4950   -7.9690   21.4430 C   0  0  0  0  0  0  0  0  0  0  0  0
  -22.0630   -8.9250   20.5050 C   0  0  0  0  0  3  0  0  0  0  0  0
  -22.7600  -10.1330   20.3360 C   0  0  0  0  0  3  0  0  0  0  0  0
  -21.7680   -6.8070   21.5200 O   0  0  0  0  0  0  0  0  0  0  0  0
  -21.7280   -6.0590   22.6690 C   0  0  0  0  0  0  0  0  0  0  0  0
  -21.2490   -6.5880   23.8870 C   0  0  0  0  0  3  0  0  0  0  0  0
  -21.1590   -5.7620   25.0250 C   0  0  0  0  0  3  0  0  0  0  0  0
  -21.5370   -4.4100   24.9460 C   0  0  0  0  0  0  0  0  0  0  0  0
  -22.0100   -3.8790   23.7330 C   0  0  0  0  0  3  0  0  0  0  0  0
  -22.1030   -4.7020   22.5960 C   0  0  0  0  0  0  0  0  0  0  0  0
  -22.5370   -4.1810   21.4240 F   0  0  0  0  0  0  0  0  0  0  0  0
  -21.4430   -3.6150   26.0380 F   0  0  0  0  0  0  0  0  0  0  0  0
  -22.7060  -13.4720   21.2770 C   0  0  0  0  0  0  0  0  0  0  0  0
  -21.9970  -12.7440   22.1310 N   0  0  0  0  0  0  0  0  0  0  0  0
  -22.2450  -14.4990   20.7790 O   0  0  0  0  0  0  0  0  0  0  0  0
  -22.3830  -11.9120   22.5530 H   0  0  0  0  0  0  0  0  0  0  0  0
  -21.0550  -13.0210   22.3730 H   0  0  0  0  0  0  0  0  0  0  0  0
  -25.2860  -15.2070   20.4610 N   0  0  0  0  0  0  0  0  0  0  0  0
  -24.4910  -15.8240   20.5750 H   0  0  0  0  0  0  0  0  0  0  0  0
  -26.1080  -15.6820   20.1100 H   0  0  0  0  0  0  0  0  0  0  0  0
  -29.5270  -23.2940   18.1950 C   0  0  0  0  0  1  0  0  0  0  0  0
  -30.2510  -22.7690   19.4540 C   0  0  0  0  0  3  0  0  0  0  0  0
  -30.9070  -23.3320   21.8800 C   0  0  0  0  0  1  0  0  0  0  0  0
  -29.8800  -23.5270   20.7560 C   0  0  0  0  0  3  0  0  0  0  0  0
  -29.7030  -24.9980   20.4690 C   0  0  0  0  0  3  0  0  0  0  0  0
  -28.5280  -25.6380   20.5310 C   0  0  0  0  0  3  0  0  0  0  0  0
  -28.4420  -26.9500   20.1830 O   0  0  0  0  0  0  0  0  0  0  0  0
  -24.5430  -31.9690   23.2890 C   0  0  0  0  0  0  0  0  0  0  0  0
  -27.2270  -27.5800   20.2250 C   0  0  0  0  0  0  0  0  0  0  0  0
  -23.3440  -30.5600   21.6470 C   0  0  0  0  0  3  0  0  0  0  0  0
  -24.8100  -29.0280   20.2320 C   0  0  0  0  0  0  0  0  0  0  0  0
  -25.8610  -30.9470   21.4450 C   0  0  0  0  0  2  0  0  0  0  0  0
  -25.9570  -29.5750   20.8170 C   0  0  0  0  0  0  0  0  0  0  0  0
  -27.1670  -28.8580   20.8110 C   0  0  0  0  0  3  0  0  0  0  0  0
  -26.0650  -27.0280   19.6400 C   0  0  0  0  0  3  0  0  0  0  0  0
  -24.8550  -27.7520   19.6420 C   0  0  0  0  0  3  0  0  0  0  0  0
  -23.5600  -29.8820   20.2670 C   0  0  0  0  0  2  0  0  0  0  0  0
  -24.6010  -31.1710   22.1860 N   0  0  0  0  0  0  0  0  0  0  0  0
  -23.4610  -32.2350   23.8320 O   0  0  0  0  0  0  0  0  0  0  0  0
  -22.6980  -29.5320   22.6030 C   0  0  0  0  0  0  0  0  0  0  0  0
  -21.3770  -29.3340   22.4670 N   0  0  0  0  0  0  0  0  0  0  0  0
  -23.3820  -28.9160   23.4240 O   0  0  0  0  0  0  0  0  0  0  0  0
  -20.8800  -29.8820   21.7770 H   0  0  0  0  0  0  0  0  0  0  0  0
  -18.0140  -28.1250   22.9610 C   0  0  0  0  0  0  0  0  0  0  0  0
  -20.5690  -28.3960   23.2430 C   0  0  0  0  0  3  0  0  0  0  0  0
  -20.6830  -26.9640   22.6750 C   0  0  0  0  0  2  0  0  0  0  0  0
  -19.5870  -26.6330   21.6550 C   0  0  0  0  0  2  0  0  0  0  0  0
  -18.2000  -26.7750   22.2930 C   0  0  0  0  0  2  0  0  0  0  0  0
  -19.1270  -28.8930   23.3940 C   0  0  0  0  0  0  0  0  0  0  0  0
  -18.9000  -30.1590   23.9770 C   0  0  0  0  0  3  0  0  0  0  0  0
  -17.5920  -30.6570   24.1310 C   0  0  0  0  0  3  0  0  0  0  0  0
  -16.4920  -29.8870   23.7130 C   0  0  0  0  0  3  0  0  0  0  0  0
  -16.7060  -28.6230   23.1350 C   0  0  0  0  0  3  0  0  0  0  0  0
  -25.8270  -32.6070   23.9050 C   0  0  0  0  0  3  0  0  0  0  0  0
  -26.3410  -31.8520   25.1920 C   0  0  1  0  0  0  0  0  0  0  0  0
  -25.2430  -31.6240   26.2560 C   0  0  0  0  0  1  0  0  0  0  0  0
  -26.9290  -30.4730   24.8170 C   0  0  0  0  0  1  0  0  0  0  0  0
  -27.4880  -32.6580   25.8520 C   0  0  0  0  0  1  0  0  0  0  0  0
  -25.5220  -34.0110   24.2050 N   0  0  0  0  0  0  0  0  0  0  0  0
  -25.8710  -35.0480   23.4310 C   0  0  0  0  0  0  0  0  0  0  0  0
  -26.5590  -34.9250   22.4130 O   0  0  0  0  0  0  0  0  0  0  0  0
  -24.9120  -34.1860   24.9920 H   0  0  0  0  0  0  0  0  0  0  0  0
  -24.1660  -36.8470   23.0060 C   0  0  0  0  0  1  0  0  0  0  0  0
  -25.3820  -36.4450   23.8560 C   0  0  0  0  0  3  0  0  0  0  0  0
  -27.4970  -37.3280   24.7360 C   0  0  0  0  0  1  0  0  0  0  0  0
  -26.4250  -37.4910   23.7600 N   0  0  0  0  0  0  0  0  0  0  0  0
  -26.0180  -38.4130   23.8940 H   0  0  0  0  0  0  0  0  0  0  0  0
  1  3  2  0
  2  1  1  0
  4  2  1  0
  5  6  2  0
  5  7  1  0
  6  9  1  0
  7 10  2  0
  9  1  1  0
  9  8  2  0
 10  8  1  0
 10 19  1  0
 11 19  1  0
 12 17  1  0
 13 14  1  0
 13 12  1  0
 15 14  1  0
 15 24  1  0
 15 16  1  0
 17 11  1  0
 17 16  1  0
 18 11  2  0
 19 20  1  0
 21 22  2  0
 22 41  1  0
 23 22  1  0
 23 26  1  0
 24 21  1  0
 24 25  1  0
 25 23  2  0
 26 27  1  0
 27 28  2  0
 29 32  1  0
 29 28  1  0
 30 29  2  0
 31 30  1  0
 31 26  2  0
 32 33  1  0
 33 34  1  0
 34 35  2  0
 36 35  1  0
 36 40  1  0
 37 36  2  0
 38 33  2  0
 38 37  1  0
 39 38  1  0
 41 42  1  0
 42 45  1  0
 42 44  1  0
 43 41  2  0
 46 47  1  0
 46 21  1  0
 48 46  1  0
 50 49  1  0
 50  2  1  0
 50 52  1  0
 52 51  1  0
 53 54  2  0
 53 52  1  0
 55 57  1  0
 55 54  1  0
 56 67  2  0
 57 62  1  0
 58 66  1  0
 58 68  1  0
 59 65  1  0
 59 61  1  0
 60 66  1  0
 61 60  1  0
 62 61  2  0
 63 64  1  0
 63 57  2  0
 64 59  2  0
 65 58  1  0
 66 56  1  0
 68 70  2  0
 69 68  1  0
 71 69  1  0
 72 81  2  0
 72 77  1  0
 73 69  1  0
 73 77  1  0
 74 73  1  0
 75 76  1  0
 75 74  1  0
 76 72  1  0
 77 78  2  0
 78 79  1  0
 80 79  2  0
 81 80  1  0
 82 56  1  0
 82 87  1  0
 82 83  1  0
 83 86  1  1
 83 84  1  0
 85 83  1  0
 87 90  1  0
 88 92  1  0
 88 87  1  0
 89 88  2  0
 92 91  1  0
 94 92  1  0
 94 95  1  0
 94 93  1  0
M  ISO  4  11 100  19 100  54 101  55 101
M  END
>  <TORSDO>  (93) 
F 20

>  <SCORE>  (93) 
-13.535

>  <name>  (93) 
93

>  <ligand_id>  (93) 
93

>  <original_smiles>  (93) 
[H]C(Oc1c([H])c([H])c2c(c1[H])C([H])([H])N(C(=O)C([H])(N([H])C(=O)C([H])(N([H])C([H])([H])[H])C([H])([H])[H])C(C([H])([H])[H])(C([H])([H])[H])C([H])([H])[H])C([H])(C(=O)N([H])C1([H])c3c([H])c([H])c([H])c([H])c3C([H])([H])C([H])([H])C1([H])[H])C2([H])[H])=C([H])C([H])(C([H])([H])[H])C([H])(N([H])C(=O)c1c([H])c([H])c([H])c(N([H])C(=O)N2C([H])([H])C([H])([H])C([H])([H])C([H])(n3nc(-c4c([H])c([H])c(Oc5c([H])c([H])c(F)c([H])c5F)c([H])c4[H])c(C(=O)N([H])[H])c3N([H])[H])C2([H])[H])c1[H])C([H])([H])[H]

>  <smiles>  (93) 
[H]C(Oc1c([H])c([H])c2c(c1[H])C([H])([H])N(C(=O)C([H])(N([H])C(=O)C([H])(N([H])C([H])([H])[H])C([H])([H])[H])C(C([H])([H])[H])(C([H])([H])[H])C([H])([H])[H])C([H])(C(=O)N([H])C1([H])c3c([H])c([H])c([H])c([H])c3C([H])([H])C([H])([H])C1([H])[H])C2([H])[H])=C([H])C([H])(C([H])([H])[H])C([H])(N([H])C(=O)c1c([H])c([H])c([H])c(N([H])C(=O)N2C([H])([H])C([H])([H])C([H])([H])C([H])(n3nc(-c4c([H])c([H])c(Oc5c([H])c([H])c(F)c([H])c5F)c([H])c4[H])c(C(=O)N([H])[H])c3N([H])[H])C2([H])[H])c1[H])C([H])([H])[H]

$$$$
94:0:0
     RDKit          3D

 97106  0  0  1  0  0  0  0  0999 V2000
  -30.7930  -22.5360   21.2360 C   0  0  0  0  0  0  0  0  0  0  0  0
  -29.0870  -22.4780   19.8780 C   0  0  0  0  0  0  0  0  0  0  0  0
  -30.4350  -24.0170   21.0500 C   0  0  0  0  0  2  0  0  0  0  0  0
  -29.4250  -24.0310   19.8960 C   0  0  1  0  0  0  0  0  0  0  0  0
  -29.9730  -21.6890   20.5670 N   0  0  0  0  0  0  0  0  0  0  0  0
  -31.7760  -22.2270   21.9190 O   0  0  0  0  0  0  0  0  0  0  0  0
  -28.0680  -22.0500   19.3200 O   0  0  0  0  0  0  0  0  0  0  0  0
  -30.8160  -19.4840   21.5940 C   0  0  0  0  0  3  0  0  0  0  0  0
  -30.9180  -18.0650   21.6510 C   0  0  0  0  0  3  0  0  0  0  0  0
  -29.4190  -19.3050   19.6800 C   0  0  0  0  0  3  0  0  0  0  0  0
  -29.4970  -17.8640   19.7420 C   0  0  0  0  0  0  0  0  0  0  0  0
  -30.0600  -20.1860   20.6080 C   0  0  0  0  0  0  0  0  0  0  0  0
  -30.2640  -17.1800   20.7450 C   0  0  0  0  0  0  0  0  0  0  0  0
  -28.6690  -17.0790   18.7430 C   0  0  0  0  0  1  0  0  0  0  0  0
  -30.7410  -14.7280   20.0840 C   0  0  0  0  0  0  0  0  0  0  0  0
  -30.3680  -12.5330   18.9290 C   0  0  0  0  0  2  0  0  0  0  0  0
  -29.3450  -12.6490   17.7790 C   0  0  0  0  0  2  0  0  0  0  0  0
  -27.9130  -12.4510   18.3080 C   0  0  0  0  0  2  0  0  0  0  0  0
  -27.6320  -13.2990   19.5730 C   0  0  0  0  0  3  0  0  0  0  0  0
  -28.7640  -13.1890   20.6140 C   0  0  0  0  0  2  0  0  0  0  0  0
  -30.0390  -13.5440   19.9640 N   0  0  0  0  0  0  0  0  0  0  0  0
  -31.7730  -14.9040   19.4310 O   0  0  0  0  0  0  0  0  0  0  0  0
  -30.6080  -15.2970   22.3610 C   0  0  0  0  0  1  0  0  0  0  0  0
  -30.3150  -15.7010   20.9730 N   0  0  0  0  0  0  0  0  0  0  0  0
  -25.3090  -13.8530   20.5220 C   0  0  0  0  0  0  0  0  0  0  0  0
  -24.2740  -13.0590   20.9360 C   0  0  0  0  0  0  0  0  0  0  0  0
  -24.7310  -11.7130   20.8040 C   0  0  0  0  0  0  0  0  0  0  0  0
  -26.3290  -12.9890   20.1570 N   0  0  0  0  0  0  0  0  0  0  0  0
  -25.9930  -11.6930   20.3900 N   0  0  0  0  0  0  0  0  0  0  0  0
  -24.0200  -10.4410   20.9900 C   0  0  0  0  0  0  0  0  0  0  0  0
  -24.4630   -9.4750   21.9210 C   0  0  0  0  0  3  0  0  0  0  0  0
  -23.7520   -8.2680   22.0940 C   0  0  0  0  0  3  0  0  0  0  0  0
  -22.5830   -8.0180   21.3360 C   0  0  0  0  0  0  0  0  0  0  0  0
  -22.1590   -8.9730   20.3950 C   0  0  0  0  0  3  0  0  0  0  0  0
  -22.8700  -10.1710   20.2200 C   0  0  0  0  0  3  0  0  0  0  0  0
  -21.8430   -6.8640   21.4160 O   0  0  0  0  0  0  0  0  0  0  0  0
  -21.7270   -6.1660   22.5910 C   0  0  0  0  0  0  0  0  0  0  0  0
  -21.2010   -6.7560   23.7600 C   0  0  0  0  0  3  0  0  0  0  0  0
  -21.0340   -5.9830   24.9260 C   0  0  0  0  0  3  0  0  0  0  0  0
  -21.3820   -4.6190   24.9220 C   0  0  0  0  0  0  0  0  0  0  0  0
  -21.9010   -4.0290   23.7570 C   0  0  0  0  0  3  0  0  0  0  0  0
  -22.0710   -4.7990   22.5940 C   0  0  0  0  0  0  0  0  0  0  0  0
  -22.5520   -4.2190   21.4680 F   0  0  0  0  0  0  0  0  0  0  0  0
  -21.2140   -3.8740   26.0400 F   0  0  0  0  0  0  0  0  0  0  0  0
  -22.9050  -13.5220   21.3400 C   0  0  0  0  0  0  0  0  0  0  0  0
  -22.2570  -12.8040   22.2510 N   0  0  0  0  0  0  0  0  0  0  0  0
  -22.4180  -14.5550   20.8830 O   0  0  0  0  0  0  0  0  0  0  0  0
  -22.6620  -11.9670   22.6420 H   0  0  0  0  0  0  0  0  0  0  0  0
  -21.3440  -13.1010   22.5630 H   0  0  0  0  0  0  0  0  0  0  0  0
  -25.4620  -15.2310   20.4070 N   0  0  0  0  0  0  0  0  0  0  0  0
  -24.7140  -15.8790   20.6290 H   0  0  0  0  0  0  0  0  0  0  0  0
  -26.3040  -15.6920   20.0920 H   0  0  0  0  0  0  0  0  0  0  0  0
  -30.1550  -24.4030   18.5730 C   0  0  0  0  0  0  0  0  0  0  0  0
  -30.6710  -25.8340   18.4110 C   0  0  0  0  0  1  0  0  0  0  0  0
  -30.3630  -23.5930   17.6630 O   0  0  0  0  0  0  0  0  0  0  0  0
  -28.1790  -25.0320   20.0800 C   0  0  0  0  0  2  0  0  0  0  0  0
  -28.3520  -26.5140   20.1680 O   0  0  0  0  0  0  0  0  0  0  0  0
  -24.5660  -31.8750   23.2270 C   0  0  0  0  0  0  0  0  0  0  0  0
  -27.2150  -27.3480   20.1390 C   0  0  0  0  0  0  0  0  0  0  0  0
  -23.3740  -30.4870   21.5710 C   0  0  0  0  0  3  0  0  0  0  0  0
  -24.8360  -28.9570   20.1400 C   0  0  0  0  0  0  0  0  0  0  0  0
  -25.9120  -30.8180   21.3970 C   0  0  0  0  0  2  0  0  0  0  0  0
  -26.0030  -29.4430   20.7410 C   0  0  0  0  0  0  0  0  0  0  0  0
  -27.1930  -28.6530   20.7300 C   0  0  0  0  0  3  0  0  0  0  0  0
  -26.0150  -26.9200   19.5180 C   0  0  0  0  0  3  0  0  0  0  0  0
  -24.8460  -27.7000   19.5200 C   0  0  0  0  0  3  0  0  0  0  0  0
  -23.5960  -29.8250   20.1870 C   0  0  0  0  0  2  0  0  0  0  0  0
  -24.6360  -31.0760   22.1220 N   0  0  0  0  0  0  0  0  0  0  0  0
  -23.4790  -32.1430   23.7590 O   0  0  0  0  0  0  0  0  0  0  0  0
  -22.7110  -29.4590   22.5180 C   0  0  0  0  0  0  0  0  0  0  0  0
  -21.3870  -29.2750   22.3820 N   0  0  0  0  0  0  0  0  0  0  0  0
  -23.3880  -28.8290   23.3350 O   0  0  0  0  0  0  0  0  0  0  0  0
  -20.8990  -29.8330   21.6940 H   0  0  0  0  0  0  0  0  0  0  0  0
  -18.0050  -28.1000   22.8920 C   0  0  0  0  0  0  0  0  0  0  0  0
  -20.5680  -28.3290   23.1410 C   0  0  0  0  0  3  0  0  0  0  0  0
  -20.6510  -26.9100   22.5340 C   0  0  0  0  0  2  0  0  0  0  0  0
  -19.5360  -26.6190   21.5240 C   0  0  0  0  0  2  0  0  0  0  0  0
  -18.1610  -26.7630   22.1850 C   0  0  0  0  0  2  0  0  0  0  0  0
  -19.1350  -28.8410   23.3270 C   0  0  0  0  0  0  0  0  0  0  0  0
  -18.9350  -30.0940   23.9480 C   0  0  0  0  0  3  0  0  0  0  0  0
  -17.6370  -30.6030   24.1390 C   0  0  0  0  0  3  0  0  0  0  0  0
  -16.5210  -29.8580   23.7190 C   0  0  0  0  0  3  0  0  0  0  0  0
  -16.7060  -28.6080   23.1020 C   0  0  0  0  0  3  0  0  0  0  0  0
  -25.8440  -32.5060   23.8590 C   0  0  0  0  0  3  0  0  0  0  0  0
  -26.3420  -31.7370   25.1440 C   0  0  1  0  0  0  0  0  0  0  0  0
  -25.2340  -31.5010   26.1960 C   0  0  0  0  0  1  0  0  0  0  0  0
  -26.9310  -30.3580   24.7630 C   0  0  0  0  0  1  0  0  0  0  0  0
  -27.4830  -32.5320   25.8210 C   0  0  0  0  0  1  0  0  0  0  0  0
  -25.5320  -33.9050   24.1810 N   0  0  0  0  0  0  0  0  0  0  0  0
  -25.8700  -34.9550   23.4200 C   0  0  0  0  0  0  0  0  0  0  0  0
  -26.5470  -34.8460   22.3940 O   0  0  0  0  0  0  0  0  0  0  0  0
  -24.9310  -34.0640   24.9760 H   0  0  0  0  0  0  0  0  0  0  0  0
  -24.1530  -36.7520   23.0420 C   0  0  0  0  0  1  0  0  0  0  0  0
  -25.3820  -36.3450   23.8690 C   0  0  0  0  0  3  0  0  0  0  0  0
  -27.5070  -37.2290   24.7270 C   0  0  0  0  0  1  0  0  0  0  0  0
  -26.4200  -37.3950   23.7670 N   0  0  0  0  0  0  0  0  0  0  0  0
  -26.0140  -38.3170   23.9020 H   0  0  0  0  0  0  0  0  0  0  0  0
  1  6  2  0
  2  4  1  0
  2  5  1  0
  3  1  1  0
  4 56  1  1
  4  3  1  0
  5 12  1  0
  5  1  1  0
  7  2  2  0
  8  9  1  0
 10 11  2  0
 10 12  1  0
 11 13  1  0
 12  8  2  0
 13 24  1  0
 13  9  2  0
 14 11  1  0
 15 24  1  0
 16 21  1  0
 17 18  1  0
 17 16  1  0
 19 18  1  0
 19 28  1  0
 19 20  1  0
 21 15  1  0
 21 20  1  0
 22 15  2  0
 24 23  1  0
 25 26  2  0
 26 45  1  0
 27 26  1  0
 27 30  1  0
 28 29  1  0
 28 25  1  0
 29 27  2  0
 30 31  1  0
 31 32  2  0
 33 36  1  0
 33 32  1  0
 34 33  2  0
 35 34  1  0
 35 30  2  0
 36 37  1  0
 37 42  2  0
 37 38  1  0
 38 39  2  0
 40 39  1  0
 40 44  1  0
 41 40  2  0
 42 41  1  0
 43 42  1  0
 45 46  1  0
 46 49  1  0
 46 48  1  0
 47 45  2  0
 50 25  1  0
 50 51  1  0
 52 50  1  0
 53  4  1  0
 54 53  1  0
 55 53  2  0
 56 57  1  0
 58 69  2  0
 59 57  1  0
 59 64  1  0
 60 68  1  0
 60 70  1  0
 61 67  1  0
 61 63  1  0
 62 68  1  0
 63 62  1  0
 64 63  2  0
 65 66  1  0
 65 59  2  0
 66 61  2  0
 67 60  1  0
 68 58  1  0
 70 72  2  0
 71 70  1  0
 73 71  1  0
 74 83  2  0
 74 79  1  0
 75 71  1  0
 75 79  1  0
 76 75  1  0
 77 78  1  0
 77 76  1  0
 78 74  1  0
 79 80  2  0
 80 81  1  0
 82 81  2  0
 83 82  1  0
 84 58  1  0
 84 89  1  0
 84 85  1  0
 85 88  1  1
 85 86  1  0
 87 85  1  0
 89 92  1  0
 90 94  1  0
 90 89  1  0
 91 90  2  0
 94 93  1  0
 96 94  1  0
 96 97  1  0
 96 95  1  0
M  ISO  4  15 100  24 100  56 101  57 101
M  END
>  <TORSDO>  (94) 
F 19

>  <SCORE>  (94) 
-13.699

>  <name>  (94) 
94

>  <ligand_id>  (94) 
94

>  <original_smiles>  (94) 
[H]c1c([H])c([H])c2c(c1[H])C([H])([H])C([H])([H])C([H])([H])C2([H])N([H])C(=O)C1([H])N(C(=O)C([H])(N([H])C(=O)C([H])(N([H])C([H])([H])[H])C([H])([H])[H])C(C([H])([H])[H])(C([H])([H])[H])C([H])([H])[H])C([H])([H])c2c([H])c(OC([H])([H])C3(C(=O)C([H])([H])[H])C(=O)N(c4c([H])c([H])c(N(C(=O)N5C([H])([H])C([H])([H])C([H])([H])C([H])(n6nc(-c7c([H])c([H])c(Oc8c([H])c([H])c(F)c([H])c8F)c([H])c7[H])c(C(=O)N([H])[H])c6N([H])[H])C5([H])[H])C([H])([H])[H])c(C([H])([H])[H])c4[H])C(=O)C3([H])[H])c([H])c([H])c2C1([H])[H]

>  <smiles>  (94) 
[H]c1c([H])c([H])c2c(c1[H])C([H])([H])C([H])([H])C([H])([H])C2([H])N([H])C(=O)C1([H])N(C(=O)C([H])(N([H])C(=O)C([H])(N([H])C([H])([H])[H])C([H])([H])[H])C(C([H])([H])[H])(C([H])([H])[H])C([H])([H])[H])C([H])([H])c2c([H])c(OC([H])([H])C3(C(=O)C([H])([H])[H])C(=O)N(c4c([H])c([H])c(N(C(=O)N5C([H])([H])C([H])([H])C([H])([H])C([H])(n6nc(-c7c([H])c([H])c(Oc8c([H])c([H])c(F)c([H])c8F)c([H])c7[H])c(C(=O)N([H])[H])c6N([H])[H])C5([H])[H])C([H])([H])[H])c(C([H])([H])[H])c4[H])C(=O)C3([H])[H])c([H])c([H])c2C1([H])[H]

$$$$
95:0:0
     RDKit          3D

 93102  0  0  1  0  0  0  0  0999 V2000
  -29.5100  -22.6520   19.1640 C   0  0  0  0  0  0  0  0  0  0  0  0
  -28.7220  -22.5470   21.0260 C   0  0  0  0  0  0  0  0  0  0  0  0
  -29.2230  -23.7980   20.2120 C   0  0  1  0  0  0  0  0  0  0  0  0
  -30.5150  -24.3890   20.7920 C   0  0  0  0  0  1  0  0  0  0  0  0
  -29.3340  -21.6280   20.1310 N   0  0  0  0  0  0  0  0  0  0  0  0
  -29.8120  -22.5950   17.9880 O   0  0  0  0  0  0  0  0  0  0  0  0
  -28.0920  -22.3690   22.0490 O   0  0  0  0  0  0  0  0  0  0  0  0
  -30.1120  -19.3390   19.1120 C   0  0  0  0  0  3  0  0  0  0  0  0
  -29.3050  -19.3570   21.3170 C   0  0  0  0  0  3  0  0  0  0  0  0
  -30.3650  -17.9190   19.1970 C   0  0  0  0  0  3  0  0  0  0  0  0
  -29.5510  -17.9540   21.4200 C   0  0  0  0  0  3  0  0  0  0  0  0
  -29.5770  -20.1550   20.1670 C   0  0  0  0  0  0  0  0  0  0  0  0
  -30.1120  -17.1590   20.3760 C   0  0  0  0  0  0  0  0  0  0  0  0
  -30.8300  -14.7380   19.6840 C   0  0  0  0  0  0  0  0  0  0  0  0
  -30.4380  -12.5460   18.5200 C   0  0  0  0  0  2  0  0  0  0  0  0
  -29.3280  -12.6790   17.4530 C   0  0  0  0  0  2  0  0  0  0  0  0
  -27.9370  -12.4700   18.0800 C   0  0  0  0  0  2  0  0  0  0  0  0
  -27.7500  -13.2910   19.3820 C   0  0  0  0  0  3  0  0  0  0  0  0
  -28.9520  -13.1190   20.3280 C   0  0  0  0  0  2  0  0  0  0  0  0
  -30.1680  -13.5250   19.6010 N   0  0  0  0  0  0  0  0  0  0  0  0
  -31.8190  -14.9440   18.9730 O   0  0  0  0  0  0  0  0  0  0  0  0
  -30.6090  -15.3060   21.9940 C   0  0  0  0  0  1  0  0  0  0  0  0
  -30.3910  -15.6990   20.5890 N   0  0  0  0  0  0  0  0  0  0  0  0
  -25.5240  -13.8440   20.5380 C   0  0  0  0  0  0  0  0  0  0  0  0
  -24.5070  -13.0530   20.9970 C   0  0  0  0  0  0  0  0  0  0  0  0
  -24.9160  -11.7050   20.7580 C   0  0  0  0  0  0  0  0  0  0  0  0
  -26.4880  -12.9780   20.0470 N   0  0  0  0  0  0  0  0  0  0  0  0
  -26.1380  -11.6790   20.2390 N   0  0  0  0  0  0  0  0  0  0  0  0
  -24.1910  -10.4400   20.9390 C   0  0  0  0  0  0  0  0  0  0  0  0
  -24.6520   -9.4430   21.8250 C   0  0  0  0  0  3  0  0  0  0  0  0
  -23.9260   -8.2450   21.9950 C   0  0  0  0  0  3  0  0  0  0  0  0
  -22.7240   -8.0340   21.2770 C   0  0  0  0  0  0  0  0  0  0  0  0
  -22.2810   -9.0210   20.3800 C   0  0  0  0  0  3  0  0  0  0  0  0
  -23.0080  -10.2110   20.2070 C   0  0  0  0  0  3  0  0  0  0  0  0
  -21.9670   -6.8910   21.3590 O   0  0  0  0  0  0  0  0  0  0  0  0
  -21.8330   -6.1990   22.5360 C   0  0  0  0  0  0  0  0  0  0  0  0
  -21.3050   -6.8020   23.6990 C   0  0  0  0  0  3  0  0  0  0  0  0
  -21.1190   -6.0350   24.8670 C   0  0  0  0  0  3  0  0  0  0  0  0
  -21.4500   -4.6680   24.8730 C   0  0  0  0  0  0  0  0  0  0  0  0
  -21.9720   -4.0650   23.7140 C   0  0  0  0  0  3  0  0  0  0  0  0
  -22.1590   -4.8270   22.5480 C   0  0  0  0  0  0  0  0  0  0  0  0
  -22.6410   -4.2370   21.4290 F   0  0  0  0  0  0  0  0  0  0  0  0
  -21.2650   -3.9290   25.9920 F   0  0  0  0  0  0  0  0  0  0  0  0
  -23.1870  -13.5210   21.5370 C   0  0  0  0  0  0  0  0  0  0  0  0
  -22.6040  -12.7700   22.4660 N   0  0  0  0  0  0  0  0  0  0  0  0
  -22.6870  -14.5830   21.1730 O   0  0  0  0  0  0  0  0  0  0  0  0
  -23.0240  -11.9080   22.7810 H   0  0  0  0  0  0  0  0  0  0  0  0
  -21.7250  -13.0620   22.8690 H   0  0  0  0  0  0  0  0  0  0  0  0
  -25.7020  -15.2230   20.4750 N   0  0  0  0  0  0  0  0  0  0  0  0
  -24.9920  -15.8770   20.7830 H   0  0  0  0  0  0  0  0  0  0  0  0
  -26.5190  -15.6790   20.0840 H   0  0  0  0  0  0  0  0  0  0  0  0
  -28.1470  -24.9410   19.8370 C   0  0  0  0  0  2  0  0  0  0  0  0
  -28.3470  -26.3980   20.1640 O   0  0  0  0  0  0  0  0  0  0  0  0
  -24.5650  -31.8060   23.1760 C   0  0  0  0  0  0  0  0  0  0  0  0
  -27.2420  -27.2790   20.0900 C   0  0  0  0  0  0  0  0  0  0  0  0
  -23.3950  -30.4270   21.4970 C   0  0  0  0  0  3  0  0  0  0  0  0
  -24.8740  -28.9090   20.0660 C   0  0  0  0  0  0  0  0  0  0  0  0
  -25.9380  -30.7530   21.3600 C   0  0  0  0  0  2  0  0  0  0  0  0
  -26.0340  -29.3840   20.6910 C   0  0  0  0  0  0  0  0  0  0  0  0
  -27.2200  -28.5820   20.6930 C   0  0  0  0  0  3  0  0  0  0  0  0
  -26.0580  -26.8760   19.4280 C   0  0  0  0  0  3  0  0  0  0  0  0
  -24.8920  -27.6630   19.4240 C   0  0  0  0  0  3  0  0  0  0  0  0
  -23.6340  -29.7780   20.1100 C   0  0  0  0  0  2  0  0  0  0  0  0
  -24.6510  -31.0130   22.0680 N   0  0  0  0  0  0  0  0  0  0  0  0
  -23.4720  -32.0700   23.6980 O   0  0  0  0  0  0  0  0  0  0  0  0
  -22.7220  -29.3930   22.4310 C   0  0  0  0  0  0  0  0  0  0  0  0
  -21.3970  -29.2170   22.2890 N   0  0  0  0  0  0  0  0  0  0  0  0
  -23.3920  -28.7520   23.2450 O   0  0  0  0  0  0  0  0  0  0  0  0
  -20.9150  -29.7860   21.6070 H   0  0  0  0  0  0  0  0  0  0  0  0
  -18.0100  -28.0350   22.7620 C   0  0  0  0  0  0  0  0  0  0  0  0
  -20.5710  -28.2650   23.0340 C   0  0  0  0  0  3  0  0  0  0  0  0
  -20.6590  -26.8500   22.4180 C   0  0  0  0  0  2  0  0  0  0  0  0
  -19.5520  -26.5650   21.3970 C   0  0  0  0  0  2  0  0  0  0  0  0
  -18.1740  -26.7040   22.0480 C   0  0  0  0  0  2  0  0  0  0  0  0
  -19.1350  -28.7750   23.2110 C   0  0  0  0  0  0  0  0  0  0  0  0
  -18.9290  -30.0220   23.8400 C   0  0  0  0  0  3  0  0  0  0  0  0
  -17.6280  -30.5290   24.0240 C   0  0  0  0  0  3  0  0  0  0  0  0
  -16.5170  -29.7860   23.5900 C   0  0  0  0  0  3  0  0  0  0  0  0
  -16.7090  -28.5400   22.9650 C   0  0  0  0  0  3  0  0  0  0  0  0
  -25.8340  -32.4370   23.8270 C   0  0  0  0  0  3  0  0  0  0  0  0
  -25.5130  -33.8320   24.1640 N   0  0  0  0  0  0  0  0  0  0  0  0
  -25.8260  -34.8900   23.4060 C   0  0  0  0  0  0  0  0  0  0  0  0
  -26.4830  -34.7970   22.3650 O   0  0  0  0  0  0  0  0  0  0  0  0
  -24.9280  -33.9780   24.9730 H   0  0  0  0  0  0  0  0  0  0  0  0
  -24.0690  -36.6640   23.0890 C   0  0  0  0  0  1  0  0  0  0  0  0
  -25.3320  -36.2730   23.8740 C   0  0  0  0  0  3  0  0  0  0  0  0
  -27.4690  -37.1880   24.6640 C   0  0  0  0  0  1  0  0  0  0  0  0
  -26.3490  -37.3390   23.7390 N   0  0  0  0  0  0  0  0  0  0  0  0
  -25.9340  -38.2550   23.8900 H   0  0  0  0  0  0  0  0  0  0  0  0
  -26.3270  -31.6570   25.1080 C   0  0  1  0  0  0  0  0  0  0  0  0
  -25.2120  -31.4010   26.1490 C   0  0  0  0  0  1  0  0  0  0  0  0
  -26.9280  -30.2870   24.7180 C   0  0  0  0  0  1  0  0  0  0  0  0
  -27.4560  -32.4540   25.8020 C   0  0  0  0  0  1  0  0  0  0  0  0
  1  5  1  0
  1  3  1  0
  2  7  2  0
  3  4  1  1
  3  2  1  0
  5 12  1  0
  5  2  1  0
  6  1  2  0
  8 10  2  0
  8 12  1  0
  9 11  1  0
 10 13  1  0
 12  9  2  0
 13 23  1  0
 13 11  2  0
 14 23  1  0
 15 20  1  0
 16 17  1  0
 16 15  1  0
 18 17  1  0
 18 27  1  0
 18 19  1  0
 20 14  1  0
 20 19  1  0
 21 14  2  0
 23 22  1  0
 24 25  2  0
 25 44  1  0
 26 29  1  0
 26 25  1  0
 27 28  1  0
 27 24  1  0
 28 26  2  0
 29 30  1  0
 30 31  2  0
 32 35  1  0
 32 31  1  0
 33 32  2  0
 34 33  1  0
 34 29  2  0
 35 36  1  0
 36 41  2  0
 36 37  1  0
 37 38  2  0
 38 39  1  0
 39 43  1  0
 40 39  2  0
 41 40  1  0
 42 41  1  0
 44 45  1  0
 45 47  1  0
 45 48  1  0
 46 44  2  0
 49 24  1  0
 49 50  1  0
 51 49  1  0
 52 53  1  0
 52  3  1  0
 54 65  2  0
 55 53  1  0
 55 60  1  0
 56 64  1  0
 56 66  1  0
 57 63  1  0
 57 59  1  0
 58 64  1  0
 59 60  2  0
 59 58  1  0
 61 55  2  0
 62 61  1  0
 62 57  2  0
 63 56  1  0
 64 54  1  0
 66 68  2  0
 67 66  1  0
 69 67  1  0
 70 79  2  0
 70 75  1  0
 71 67  1  0
 71 75  1  0
 72 71  1  0
 73 74  1  0
 73 72  1  0
 74 70  1  0
 75 76  2  0
 76 77  1  0
 78 77  2  0
 79 78  1  0
 80 54  1  0
 80 81  1  0
 80 90  1  0
 81 84  1  0
 82 86  1  0
 82 81  1  0
 83 82  2  0
 86 85  1  0
 88 86  1  0
 88 89  1  0
 88 87  1  0
 90 93  1  1
 90 91  1  0
 92 90  1  0
M  ISO  4  14 100  23 100  52 101  53 101
M  END
>  <TORSDO>  (95) 
F 18

>  <SCORE>  (95) 
-12.876

>  <name>  (95) 
95

>  <ligand_id>  (95) 
95

>  <original_smiles>  (95) 
[H]c1c([H])c([H])c2c(c1[H])C([H])([H])C([H])([H])C([H])([H])C2([H])N([H])C(=O)C1([H])N(C(=O)C([H])(N([H])C(=O)C([H])(N([H])C([H])([H])[H])C([H])([H])[H])C(C([H])([H])[H])(C([H])([H])[H])C([H])([H])[H])C([H])([H])c2c([H])c(OC([H])([H])C3(C([H])([H])[H])C(=O)N(c4c([H])c([H])c(N(C(=O)N5C([H])([H])C([H])([H])C([H])([H])C([H])(n6nc(-c7c([H])c([H])c(Oc8c([H])c([H])c(F)c([H])c8F)c([H])c7[H])c(C(=O)N([H])[H])c6N([H])[H])C5([H])[H])C([H])([H])[H])c([H])c4[H])C3=O)c([H])c([H])c2C1([H])[H]

>  <smiles>  (95) 
[H]c1c([H])c([H])c2c(c1[H])C([H])([H])C([H])([H])C([H])([H])C2([H])N([H])C(=O)C1([H])N(C(=O)C([H])(N([H])C(=O)C([H])(N([H])C([H])([H])[H])C([H])([H])[H])C(C([H])([H])[H])(C([H])([H])[H])C([H])([H])[H])C([H])([H])c2c([H])c(OC([H])([H])C3(C([H])([H])[H])C(=O)N(c4c([H])c([H])c(N(C(=O)N5C([H])([H])C([H])([H])C([H])([H])C([H])(n6nc(-c7c([H])c([H])c(Oc8c([H])c([H])c(F)c([H])c8F)c([H])c7[H])c(C(=O)N([H])[H])c6N([H])[H])C5([H])[H])C([H])([H])[H])c([H])c4[H])C3=O)c([H])c([H])c2C1([H])[H]

$$$$
96:0:0
     RDKit          3D

 95104  0  0  1  0  0  0  0  0999 V2000
  -29.7090  -23.0330   21.1440 C   0  0  0  0  0  0  0  0  0  0  0  0
  -29.5500  -23.7350   18.8670 C   0  0  0  0  0  2  0  0  0  0  0  0
  -30.1390  -22.3090   18.9900 C   0  0  0  0  0  2  0  0  0  0  0  0
  -29.5260  -24.3150   20.2900 C   0  0  0  0  0  3  0  0  0  0  0  0
  -30.1170  -21.9720   20.4110 N   0  0  0  0  0  0  0  0  0  0  0  0
  -29.5670  -23.0290   22.3680 O   0  0  0  0  0  0  0  0  0  0  0  0
  -28.3050  -25.2550   20.6280 C   0  0  0  0  0  2  0  0  0  0  0  0
  -28.4160  -26.6340   20.1540 O   0  0  0  0  0  0  0  0  0  0  0  0
  -24.5830  -31.8720   23.2140 C   0  0  0  0  0  0  0  0  0  0  0  0
  -27.2540  -27.4010   20.1510 C   0  0  0  0  0  0  0  0  0  0  0  0
  -23.3890  -30.4690   21.5650 C   0  0  0  0  0  3  0  0  0  0  0  0
  -24.8560  -28.9360   20.1420 C   0  0  0  0  0  0  0  0  0  0  0  0
  -25.9200  -30.8260   21.3820 C   0  0  0  0  0  2  0  0  0  0  0  0
  -26.0140  -29.4530   20.7370 C   0  0  0  0  0  0  0  0  0  0  0  0
  -27.2160  -28.7000   20.7270 C   0  0  0  0  0  3  0  0  0  0  0  0
  -26.0760  -26.9130   19.5420 C   0  0  0  0  0  3  0  0  0  0  0  0
  -24.8870  -27.6690   19.5360 C   0  0  0  0  0  3  0  0  0  0  0  0
  -23.6080  -29.7920   20.1860 C   0  0  0  0  0  2  0  0  0  0  0  0
  -24.6490  -31.0720   22.1110 N   0  0  0  0  0  0  0  0  0  0  0  0
  -23.4980  -32.1410   23.7480 O   0  0  0  0  0  0  0  0  0  0  0  0
  -22.7340  -29.4470   22.5230 C   0  0  0  0  0  0  0  0  0  0  0  0
  -21.4070  -29.2740   22.3990 N   0  0  0  0  0  0  0  0  0  0  0  0
  -23.4160  -28.8110   23.3300 O   0  0  0  0  0  0  0  0  0  0  0  0
  -20.9190  -29.8360   21.7170 H   0  0  0  0  0  0  0  0  0  0  0  0
  -18.0250  -28.1110   22.9190 C   0  0  0  0  0  0  0  0  0  0  0  0
  -20.5880  -28.3360   23.1650 C   0  0  0  0  0  3  0  0  0  0  0  0
  -20.6670  -26.9130   22.5680 C   0  0  0  0  0  2  0  0  0  0  0  0
  -19.5500  -26.6180   21.5610 C   0  0  0  0  0  2  0  0  0  0  0  0
  -18.1770  -26.7690   22.2220 C   0  0  0  0  0  2  0  0  0  0  0  0
  -19.1560  -28.8530   23.3480 C   0  0  0  0  0  0  0  0  0  0  0  0
  -18.9570  -30.1100   23.9600 C   0  0  0  0  0  3  0  0  0  0  0  0
  -17.6600  -30.6240   24.1470 C   0  0  0  0  0  3  0  0  0  0  0  0
  -16.5440  -29.8780   23.7350 C   0  0  0  0  0  3  0  0  0  0  0  0
  -16.7260  -28.6230   23.1270 C   0  0  0  0  0  3  0  0  0  0  0  0
  -25.8630  -32.5060   23.8430 C   0  0  0  0  0  3  0  0  0  0  0  0
  -26.3720  -31.7400   25.1240 C   0  0  1  0  0  0  0  0  0  0  0  0
  -25.2720  -31.5030   26.1840 C   0  0  0  0  0  1  0  0  0  0  0  0
  -26.9610  -30.3620   24.7400 C   0  0  0  0  0  1  0  0  0  0  0  0
  -27.5170  -32.5390   25.7920 C   0  0  0  0  0  1  0  0  0  0  0  0
  -25.5500  -33.9050   24.1660 N   0  0  0  0  0  0  0  0  0  0  0  0
  -25.8950  -34.9570   23.4130 C   0  0  0  0  0  0  0  0  0  0  0  0
  -26.5800  -34.8520   22.3910 O   0  0  0  0  0  0  0  0  0  0  0  0
  -24.9430  -34.0610   24.9580 H   0  0  0  0  0  0  0  0  0  0  0  0
  -24.1820  -36.7560   23.0210 C   0  0  0  0  0  1  0  0  0  0  0  0
  -25.4010  -36.3460   23.8620 C   0  0  0  0  0  3  0  0  0  0  0  0
  -27.5190  -37.2200   24.7450 C   0  0  0  0  0  1  0  0  0  0  0  0
  -26.4400  -37.3950   23.7760 N   0  0  0  0  0  0  0  0  0  0  0  0
  -26.0360  -38.3170   23.9150 H   0  0  0  0  0  0  0  0  0  0  0  0
  -30.7520  -20.7090   20.9170 C   0  0  0  0  0  3  0  0  0  0  0  0
  -27.9300  -18.2180   20.0750 C   0  0  0  0  0  3  0  0  0  0  0  0
  -28.6660  -19.4030   20.2310 C   0  0  0  0  0  3  0  0  0  0  0  0
  -28.5180  -16.9730   20.3530 C   0  0  0  0  0  3  0  0  0  0  0  0
  -30.6060  -18.0740   20.9220 C   0  0  0  0  0  3  0  0  0  0  0  0
  -30.0100  -19.3620   20.6620 C   0  0  0  0  0  0  0  0  0  0  0  0
  -29.8590  -16.8600   20.7610 C   0  0  0  0  0  0  0  0  0  0  0  0
  -30.8420  -14.5780   20.3580 C   0  0  0  0  0  0  0  0  0  0  0  0
  -30.5450  -12.3760   19.2430 C   0  0  0  0  0  2  0  0  0  0  0  0
  -29.5950  -12.5240   18.0350 C   0  0  0  0  0  2  0  0  0  0  0  0
  -28.1250  -12.3720   18.4710 C   0  0  0  0  0  2  0  0  0  0  0  0
  -27.7820  -13.2470   19.7040 C   0  0  0  0  0  3  0  0  0  0  0  0
  -28.8440  -13.0800   20.8210 C   0  0  0  0  0  2  0  0  0  0  0  0
  -30.1750  -13.3840   20.2570 N   0  0  0  0  0  0  0  0  0  0  0  0
  -31.9110  -14.7830   19.7770 O   0  0  0  0  0  0  0  0  0  0  0  0
  -30.2770  -15.5290   21.1430 N   0  0  0  0  0  0  0  0  0  0  0  0
  -29.5940  -15.0840   21.7390 H   0  0  0  0  0  0  0  0  0  0  0  0
  -25.3840  -13.8770   20.4190 C   0  0  0  0  0  0  0  0  0  0  0  0
  -24.3160  -13.1190   20.8120 C   0  0  0  0  0  0  0  0  0  0  0  0
  -24.7640  -11.7640   20.7820 C   0  0  0  0  0  0  0  0  0  0  0  0
  -26.4250  -12.9880   20.1920 N   0  0  0  0  0  0  0  0  0  0  0  0
  -26.0520  -11.7110   20.4650 N   0  0  0  0  0  0  0  0  0  0  0  0
  -24.0240  -10.5100   20.9790 C   0  0  0  0  0  0  0  0  0  0  0  0
  -24.4480   -9.5410   21.9130 C   0  0  0  0  0  3  0  0  0  0  0  0
  -23.7070   -8.3530   22.0960 C   0  0  0  0  0  3  0  0  0  0  0  0
  -22.5290   -8.1270   21.3460 C   0  0  0  0  0  0  0  0  0  0  0  0
  -22.1240   -9.0870   20.4010 C   0  0  0  0  0  3  0  0  0  0  0  0
  -22.8650  -10.2660   20.2150 C   0  0  0  0  0  3  0  0  0  0  0  0
  -21.7600   -6.9930   21.4390 O   0  0  0  0  0  0  0  0  0  0  0  0
  -21.7040   -6.2550   22.5950 C   0  0  0  0  0  0  0  0  0  0  0  0
  -21.2830   -6.8190   23.8190 C   0  0  0  0  0  3  0  0  0  0  0  0
  -21.1740   -6.0100   24.9670 C   0  0  0  0  0  3  0  0  0  0  0  0
  -21.4750   -4.6360   24.8920 C   0  0  0  0  0  0  0  0  0  0  0  0
  -21.8880   -4.0710   23.6730 C   0  0  0  0  0  3  0  0  0  0  0  0
  -22.0000   -4.8790   22.5280 C   0  0  0  0  0  0  0  0  0  0  0  0
  -22.3800   -4.3250   21.3510 F   0  0  0  0  0  0  0  0  0  0  0  0
  -21.3600   -3.8570   25.9930 F   0  0  0  0  0  0  0  0  0  0  0  0
  -22.9260  -13.6160   21.0920 C   0  0  0  0  0  0  0  0  0  0  0  0
  -22.1950  -12.9320   21.9650 N   0  0  0  0  0  0  0  0  0  0  0  0
  -22.4980  -14.6470   20.5760 O   0  0  0  0  0  0  0  0  0  0  0  0
  -22.5520  -12.1020   22.4140 H   0  0  0  0  0  0  0  0  0  0  0  0
  -21.2630  -13.2490   22.1930 H   0  0  0  0  0  0  0  0  0  0  0  0
  -25.5340  -15.2420   20.2110 N   0  0  0  0  0  0  0  0  0  0  0  0
  -24.7330  -15.8620   20.2650 H   0  0  0  0  0  0  0  0  0  0  0  0
  -26.3030  -15.6420   19.6880 H   0  0  0  0  0  0  0  0  0  0  0  0
  -32.1680  -20.6380   20.5030 C   0  0  0  0  0  0  0  0  0  0  0  0
  -33.2810  -20.5840   20.1760 N   0  0  0  0  0  0  0  0  0  0  0  0
  1  6  2  0
  2  3  1  0
  2  4  1  0
  3  5  1  0
  4  7  1  0
  4  1  1  0
  5 49  1  0
  5  1  1  0
  8  7  1  0
  9 20  2  0
 10  8  1  0
 10 15  1  0
 11 19  1  0
 11 21  1  0
 12 18  1  0
 12 14  1  0
 13 19  1  0
 14 13  1  0
 15 14  2  0
 16 10  2  0
 17 16  1  0
 17 12  2  0
 18 11  1  0
 19  9  1  0
 21 23  2  0
 22 21  1  0
 24 22  1  0
 25 34  2  0
 25 30  1  0
 26 22  1  0
 26 30  1  0
 27 26  1  0
 28 29  1  0
 28 27  1  0
 29 25  1  0
 30 31  2  0
 31 32  1  0
 33 32  2  0
 34 33  1  0
 35  9  1  0
 35 40  1  0
 35 36  1  0
 36 39  1  1
 36 37  1  0
 38 36  1  0
 40 43  1  0
 41 45  1  0
 41 40  1  0
 42 41  2  0
 45 44  1  0
 47 45  1  0
 47 48  1  0
 47 46  1  0
 49 94  1  0
 50 51  2  0
 50 52  1  0
 51 54  1  0
 52 55  2  0
 54 49  1  0
 54 53  2  0
 55 53  1  0
 55 64  1  0
 56 64  1  0
 57 62  1  0
 58 59  1  0
 58 57  1  0
 60 59  1  0
 60 69  1  0
 60 61  1  0
 62 56  1  0
 62 61  1  0
 63 56  2  0
 64 65  1  0
 66 67  2  0
 67 86  1  0
 68 67  1  0
 68 71  1  0
 69 66  1  0
 69 70  1  0
 70 68  2  0
 71 72  1  0
 72 73  2  0
 74 77  1  0
 74 73  1  0
 75 74  2  0
 76 75  1  0
 76 71  2  0
 77 78  1  0
 78 79  1  0
 79 80  2  0
 81 80  1  0
 81 85  1  0
 82 81  2  0
 83 78  2  0
 83 82  1  0
 84 83  1  0
 86 87  1  0
 87 90  1  0
 87 89  1  0
 88 86  2  0
 91 92  1  0
 91 66  1  0
 93 91  1  0
 95 94  3  0
M  ISO  4   7 101   8 101  56 100  64 100
M  END
>  <TORSDO>  (96) 
F 20

>  <SCORE>  (96) 
-14.440

>  <name>  (96) 
96

>  <ligand_id>  (96) 
96

>  <original_smiles>  (96) 
[H]c1c([H])c(N([H])C(=O)N2C([H])([H])C([H])([H])C([H])([H])C([H])(n3nc(-c4c([H])c([H])c(Oc5c([H])c([H])c(F)c([H])c5F)c([H])c4[H])c(C(=O)N([H])[H])c3N([H])[H])C2([H])[H])c([H])c(C([H])(C#N)N2C(=O)C([H])(C([H])([H])Oc3c([H])c([H])c4c(c3[H])C([H])([H])N(C(=O)C([H])(N([H])C(=O)C([H])(N([H])C([H])([H])[H])C([H])([H])[H])C(C([H])([H])[H])(C([H])([H])[H])C([H])([H])[H])C([H])(C(=O)N([H])C3([H])c5c([H])c([H])c([H])c([H])c5C([H])([H])C([H])([H])C3([H])[H])C4([H])[H])C([H])([H])C2([H])[H])c1[H]

>  <smiles>  (96) 
[H]c1c([H])c(N([H])C(=O)N2C([H])([H])C([H])([H])C([H])([H])C([H])(n3nc(-c4c([H])c([H])c(Oc5c([H])c([H])c(F)c([H])c5F)c([H])c4[H])c(C(=O)N([H])[H])c3N([H])[H])C2([H])[H])c([H])c(C([H])(C#N)N2C(=O)C([H])(C([H])([H])Oc3c([H])c([H])c4c(c3[H])C([H])([H])N(C(=O)C([H])(N([H])C(=O)C([H])(N([H])C([H])([H])[H])C([H])([H])[H])C(C([H])([H])[H])(C([H])([H])[H])C([H])([H])[H])C([H])(C(=O)N([H])C3([H])c5c([H])c([H])c([H])c([H])c5C([H])([H])C([H])([H])C3([H])[H])C4([H])[H])C([H])([H])C2([H])[H])c1[H]

$$$$
97:0:0
     RDKit          3D

 96105  0  0  1  0  0  0  0  0999 V2000
  -29.1930  -19.7490   19.6560 C   0  0  0  0  0  3  0  0  0  0  0  0
  -29.9650  -18.9350   20.5720 C   0  0  0  0  0  0  0  0  0  0  0  0
  -28.9890  -21.0660   20.0580 C   0  0  0  0  0  0  0  0  0  0  0  0
  -30.3270  -19.6430   21.6980 C   0  0  0  0  0  0  0  0  0  0  0  0
  -29.7520  -21.2980   21.6150 S   0  0  0  0  0  0  0  0  0  0  0  0
  -26.7780  -23.2740   18.2360 C   0  0  0  0  0  3  0  0  0  0  0  0
  -27.6350  -24.2080   18.6560 C   0  0  0  0  0  0  0  0  0  0  0  0
  -27.1640  -21.9650   18.7320 C   0  0  0  0  0  0  0  0  0  0  0  0
  -28.6910  -23.5330   19.5210 C   0  0  0  0  0  2  0  0  0  0  0  0
  -28.3170  -22.0980   19.4310 N   0  0  0  0  0  0  0  0  0  0  0  0
  -26.5600  -20.9070   18.5390 O   0  0  0  0  0  0  0  0  0  0  0  0
  -27.7360  -25.6470   18.0780 C   0  0  0  0  0  2  0  0  0  0  0  0
  -27.7890  -26.7800   18.9850 O   0  0  0  0  0  0  0  0  0  0  0  0
  -24.7020  -31.5880   23.2860 C   0  0  0  0  0  0  0  0  0  0  0  0
  -26.6810  -27.5960   19.1900 C   0  0  0  0  0  0  0  0  0  0  0  0
  -23.2320  -30.5490   21.5910 C   0  0  0  0  0  3  0  0  0  0  0  0
  -24.4120  -29.2220   19.7520 C   0  0  0  0  0  0  0  0  0  0  0  0
  -25.7410  -30.8090   21.1510 C   0  0  0  0  0  2  0  0  0  0  0  0
  -25.6620  -29.5670   20.2800 C   0  0  0  0  0  0  0  0  0  0  0  0
  -26.7940  -28.7580   20.0020 C   0  0  0  0  0  3  0  0  0  0  0  0
  -25.4090  -27.2800   18.6640 C   0  0  0  0  0  3  0  0  0  0  0  0
  -24.2830  -28.0810   18.9420 C   0  0  0  0  0  3  0  0  0  0  0  0
  -23.2410  -30.1160   20.1000 C   0  0  0  0  0  2  0  0  0  0  0  0
  -24.5840  -30.9880   22.0670 N   0  0  0  0  0  0  0  0  0  0  0  0
  -23.7070  -31.8070   23.9920 O   0  0  0  0  0  0  0  0  0  0  0  0
  -22.6280  -29.4060   22.4370 C   0  0  0  0  0  0  0  0  0  0  0  0
  -21.3060  -29.1990   22.3140 N   0  0  0  0  0  0  0  0  0  0  0  0
  -23.3450  -28.7120   23.1640 O   0  0  0  0  0  0  0  0  0  0  0  0
  -20.7850  -29.8150   21.7050 H   0  0  0  0  0  0  0  0  0  0  0  0
  -18.0220  -27.7080   22.5590 C   0  0  0  0  0  0  0  0  0  0  0  0
  -20.5320  -28.1530   22.9830 C   0  0  0  0  0  3  0  0  0  0  0  0
  -20.7820  -26.7730   22.3330 C   0  0  0  0  0  2  0  0  0  0  0  0
  -19.7630  -26.4270   21.2420 C   0  0  0  0  0  2  0  0  0  0  0  0
  -18.3430  -26.4220   21.8170 C   0  0  0  0  0  2  0  0  0  0  0  0
  -19.0510  -28.5290   23.0920 C   0  0  0  0  0  0  0  0  0  0  0  0
  -18.6980  -29.7320   23.7420 C   0  0  0  0  0  3  0  0  0  0  0  0
  -17.3490  -30.1170   23.8650 C   0  0  0  0  0  3  0  0  0  0  0  0
  -16.3350  -29.2930   23.3480 C   0  0  0  0  0  3  0  0  0  0  0  0
  -16.6720  -28.0900   22.7010 C   0  0  0  0  0  3  0  0  0  0  0  0
  -26.0860  -32.0450   23.8420 C   0  0  0  0  0  3  0  0  0  0  0  0
  -26.6690  -31.0710   24.9390 C   0  0  1  0  0  0  0  0  0  0  0  0
  -25.6790  -30.7650   26.0880 C   0  0  0  0  0  1  0  0  0  0  0  0
  -27.0870  -29.7230   24.3060 C   0  0  0  0  0  1  0  0  0  0  0  0
  -27.9460  -31.6830   25.5590 C   0  0  0  0  0  1  0  0  0  0  0  0
  -25.9180  -33.3990   24.3890 N   0  0  0  0  0  0  0  0  0  0  0  0
  -26.3000  -34.5230   23.7680 C   0  0  0  0  0  0  0  0  0  0  0  0
  -26.9030  -34.5210   22.6920 O   0  0  0  0  0  0  0  0  0  0  0  0
  -25.3820  -33.4790   25.2410 H   0  0  0  0  0  0  0  0  0  0  0  0
  -24.7220  -36.4800   23.7850 C   0  0  0  0  0  1  0  0  0  0  0  0
  -25.9610  -35.8620   24.4510 C   0  0  0  0  0  3  0  0  0  0  0  0
  -28.2000  -36.4440   25.2720 C   0  0  0  0  0  1  0  0  0  0  0  0
  -27.0750  -36.8350   24.4270 N   0  0  0  0  0  0  0  0  0  0  0  0
  -26.7580  -37.7530   24.7260 H   0  0  0  0  0  0  0  0  0  0  0  0
  -33.0500  -19.2100   22.4180 C   0  0  0  0  0  1  0  0  0  0  0  0
  -31.1370  -17.6780   23.5390 N   0  0  0  0  0  2  0  0  0  0  0  0
  -31.2470  -20.2340   24.0840 O   0  0  0  0  0  1  0  0  0  0  0  0
  -31.3540  -19.1580   23.0830 S   0  0  2  0  0  0  0  0  0  0  0  0
  -31.1830  -17.0380   22.7400 H   0  0  0  0  0  0  0  0  0  0  0  0
  -30.4760  -17.5600   20.2320 C   0  0  0  0  0  3  0  0  0  0  0  0
  -30.2010  -16.3390   20.7830 C   0  0  0  0  0  3  0  0  0  0  0  0
  -30.9650  -15.1370   20.3650 C   0  0  0  0  0  0  0  0  0  0  0  0
  -30.7780  -12.8430   19.4520 C   0  0  0  0  0  2  0  0  0  0  0  0
  -29.8830  -12.8940   18.1960 C   0  0  0  0  0  2  0  0  0  0  0  0
  -28.3990  -12.7430   18.5810 C   0  0  0  0  0  2  0  0  0  0  0  0
  -27.9870  -13.6760   19.7510 C   0  0  0  0  0  3  0  0  0  0  0  0
  -29.0060  -13.6050   20.9080 C   0  0  0  0  0  2  0  0  0  0  0  0
  -30.3340  -13.9200   20.3620 N   0  0  0  0  0  0  0  0  0  0  0  0
  -32.1170  -15.2380   19.9330 O   0  0  0  0  0  0  0  0  0  0  0  0
  -25.5860  -14.2810   20.4340 C   0  0  0  0  0  0  0  0  0  0  0  0
  -24.5090  -13.5080   20.7800 C   0  0  0  0  0  0  0  0  0  0  0  0
  -24.9650  -12.1560   20.7420 C   0  0  0  0  0  0  0  0  0  0  0  0
  -26.6290  -13.3970   20.2090 N   0  0  0  0  0  0  0  0  0  0  0  0
  -26.2590  -12.1130   20.4520 N   0  0  0  0  0  0  0  0  0  0  0  0
  -24.2300  -10.8940   20.9090 C   0  0  0  0  0  0  0  0  0  0  0  0
  -24.6130   -9.9380   21.8760 C   0  0  0  0  0  3  0  0  0  0  0  0
  -23.8780   -8.7430   22.0300 C   0  0  0  0  0  3  0  0  0  0  0  0
  -22.7480   -8.4940   21.2170 C   0  0  0  0  0  0  0  0  0  0  0  0
  -22.3840   -9.4400   20.2400 C   0  0  0  0  0  3  0  0  0  0  0  0
  -23.1200  -10.6270   20.0840 C   0  0  0  0  0  3  0  0  0  0  0  0
  -21.9900   -7.3500   21.2770 O   0  0  0  0  0  0  0  0  0  0  0  0
  -21.8180   -6.6620   22.4510 C   0  0  0  0  0  0  0  0  0  0  0  0
  -21.2510   -7.2680   23.5940 C   0  0  0  0  0  3  0  0  0  0  0  0
  -21.0290   -6.5060   24.7590 C   0  0  0  0  0  3  0  0  0  0  0  0
  -21.3620   -5.1390   24.7800 C   0  0  0  0  0  0  0  0  0  0  0  0
  -21.9220   -4.5320   23.6410 C   0  0  0  0  0  3  0  0  0  0  0  0
  -22.1460   -5.2920   22.4790 C   0  0  0  0  0  0  0  0  0  0  0  0
  -22.6650   -4.6970   21.3780 F   0  0  0  0  0  0  0  0  0  0  0  0
  -21.1420   -4.4030   25.8950 F   0  0  0  0  0  0  0  0  0  0  0  0
  -23.1100  -13.9900   21.0370 C   0  0  0  0  0  0  0  0  0  0  0  0
  -22.3760  -13.3040   21.9060 N   0  0  0  0  0  0  0  0  0  0  0  0
  -22.6760  -15.0090   20.5020 O   0  0  0  0  0  0  0  0  0  0  0  0
  -22.7390  -12.4790   22.3610 H   0  0  0  0  0  0  0  0  0  0  0  0
  -21.4360  -13.6070   22.1200 H   0  0  0  0  0  0  0  0  0  0  0  0
  -25.7610  -15.6510   20.2750 N   0  0  0  0  0  0  0  0  0  0  0  0
  -25.0000  -16.3140   20.3860 H   0  0  0  0  0  0  0  0  0  0  0  0
  -26.6260  -16.0890   19.9850 H   0  0  0  0  0  0  0  0  0  0  0  0
  1  3  2  0
  1  2  1  0
  2  4  2  0
  3  5  1  0
  4 57  1  0
  5  4  1  0
  6  7  2  0
  6  8  1  0
  7  9  1  0
  8 10  1  0
 10  9  1  0
 10  3  1  0
 11  8  2  0
 12  7  1  0
 12 13  1  0
 13 15  1  0
 14 25  2  0
 15 20  1  0
 16 24  1  0
 16 26  1  0
 17 23  1  0
 17 19  1  0
 18 24  1  0
 19 18  1  0
 20 19  2  0
 21 22  1  0
 21 15  2  0
 22 17  2  0
 23 16  1  0
 24 14  1  0
 26 28  2  0
 27 26  1  0
 29 27  1  0
 30 39  2  0
 30 35  1  0
 31 27  1  0
 31 35  1  0
 32 31  1  0
 33 34  1  0
 33 32  1  0
 34 30  1  0
 35 36  2  0
 36 37  1  0
 38 37  2  0
 39 38  1  0
 40 14  1  0
 40 45  1  0
 40 41  1  0
 41 44  1  1
 41 42  1  0
 43 41  1  0
 45 48  1  0
 46 45  1  0
 46 50  1  0
 47 46  2  0
 50 49  1  0
 52 50  1  0
 52 53  1  0
 52 51  1  0
 57 54  1  6
 57 55  1  0
 57 56  1  0
 58 55  1  0
 59  2  1  0
 59 60  2  0
 61 60  1  0
 62 67  1  0
 63 64  1  0
 63 62  1  0
 65 64  1  0
 65 72  1  0
 65 66  1  0
 67 61  1  0
 67 66  1  0
 68 61  2  0
 69 70  2  0
 70 89  1  0
 71 70  1  0
 71 74  1  0
 72 69  1  0
 72 73  1  0
 73 71  2  0
 74 75  1  0
 75 76  2  0
 77 80  1  0
 77 76  1  0
 78 77  2  0
 79 78  1  0
 79 74  2  0
 80 81  1  0
 81 86  2  0
 81 82  1  0
 82 83  2  0
 83 84  1  0
 84 88  1  0
 85 84  2  0
 86 85  1  0
 87 86  1  0
 89 90  1  0
 90 93  1  0
 90 92  1  0
 91 89  2  0
 94 95  1  0
 94 69  1  0
 96 94  1  0
M  ISO  4  12 101  13 101  60 100  61 100
M  END
>  <TORSDO>  (97) 
F 20

>  <SCORE>  (97) 
-12.316

>  <name>  (97) 
97

>  <ligand_id>  (97) 
97

>  <original_smiles>  (97) 
[H]N=S(=O)(c1sc(N2C(=O)C([H])=C(C([H])([H])Oc3c([H])c([H])c4c(c3[H])C([H])([H])N(C(=O)C([H])(N([H])C(=O)C([H])(N([H])C([H])([H])[H])C([H])([H])[H])C(C([H])([H])[H])(C([H])([H])[H])C([H])([H])[H])C([H])(C(=O)N([H])C3([H])c5c([H])c([H])c([H])c([H])c5C([H])([H])C([H])([H])C3([H])[H])C4([H])[H])C2([H])[H])c([H])c1C([H])=C([H])C(=O)N1C([H])([H])C([H])([H])C([H])([H])C([H])(n2nc(-c3c([H])c([H])c(Oc4c([H])c([H])c(F)c([H])c4F)c([H])c3[H])c(C(=O)N([H])[H])c2N([H])[H])C1([H])[H])C([H])([H])[H]

>  <smiles>  (97) 
[H]N=S(=O)(c1sc(N2C(=O)C([H])=C(C([H])([H])Oc3c([H])c([H])c4c(c3[H])C([H])([H])N(C(=O)C([H])(N([H])C(=O)C([H])(N([H])C([H])([H])[H])C([H])([H])[H])C(C([H])([H])[H])(C([H])([H])[H])C([H])([H])[H])C([H])(C(=O)N([H])C3([H])c5c([H])c([H])c([H])c([H])c5C([H])([H])C([H])([H])C3([H])[H])C4([H])[H])C2([H])[H])c([H])c1C([H])=C([H])C(=O)N1C([H])([H])C([H])([H])C([H])([H])C([H])(n2nc(-c3c([H])c([H])c(Oc4c([H])c([H])c(F)c([H])c4F)c([H])c3[H])c(C(=O)N([H])[H])c2N([H])[H])C1([H])[H])C([H])([H])[H]

$$$$
