0:0:0
     RDKit          3D

 94102  0  0  1  0  0  0  0  0999 V2000
  -29.8370  -21.5660   19.7070 C   0  0  0  0  0  0  0  0  0  0  0  0
  -29.1410  -24.0530   19.8730 C   0  0  0  0  0  0  0  0  0  0  0  0
  -29.1140  -22.6100   20.2580 N   0  0  0  0  0  0  0  0  0  0  0  0
  -30.6630  -21.8350   18.6890 N   0  0  0  0  0  4  0  0  0  0  0  0
  -29.8980  -24.4520   18.9770 O   0  0  0  0  0  0  0  0  0  0  0  0
  -28.5150  -22.2950   21.0050 H   0  0  0  0  0  0  0  0  0  0  0  0
  -31.1500  -21.0930   18.2120 H   0  0  0  0  0  0  0  0  0  0  0  0
  -30.7430  -22.7920   18.3670 H   0  0  0  0  0  0  0  0  0  0  0  0
  -28.6350  -19.3580   20.3940 C   0  0  0  0  0  3  0  0  0  0  0  0
  -31.0150  -19.3170   20.0740 C   0  0  0  0  0  3  0  0  0  0  0  0
  -28.6610  -17.9410   20.5980 C   0  0  0  0  0  3  0  0  0  0  0  0
  -31.0380  -17.9000   20.2630 C   0  0  0  0  0  3  0  0  0  0  0  0
  -29.8150  -20.0920   20.1030 C   0  0  0  0  0  0  0  0  0  0  0  0
  -29.8520  -17.1610   20.5120 C   0  0  0  0  0  0  0  0  0  0  0  0
  -30.5890  -14.6680   20.3050 C   0  0  0  0  0  0  0  0  0  0  0  0
  -30.3820  -12.4400   19.2140 C   0  0  0  0  0  2  0  0  0  0  0  0
  -29.4220  -12.5810   18.0110 C   0  0  0  0  0  2  0  0  0  0  0  0
  -27.9540  -12.4140   18.4540 C   0  0  0  0  0  2  0  0  0  0  0  0
  -27.6090  -13.2600   19.7090 C   0  0  0  0  0  3  0  0  0  0  0  0
  -28.6800  -13.0850   20.8100 C   0  0  0  0  0  2  0  0  0  0  0  0
  -29.9820  -13.4400   20.2250 N   0  0  0  0  0  0  0  0  0  0  0  0
  -31.7460  -14.8330   19.9050 O   0  0  0  0  0  0  0  0  0  0  0  0
  -29.7780  -15.7060   20.6880 N   0  0  0  0  0  0  0  0  0  0  0  0
  -28.8800  -15.3790   21.0090 H   0  0  0  0  0  0  0  0  0  0  0  0
  -25.2210  -13.8550   20.4470 C   0  0  0  0  0  0  0  0  0  0  0  0
  -24.1590  -13.0790   20.8280 C   0  0  0  0  0  0  0  0  0  0  0  0
  -24.6230  -11.7290   20.7910 C   0  0  0  0  0  0  0  0  0  0  0  0
  -26.2650  -12.9770   20.2030 N   0  0  0  0  0  0  0  0  0  0  0  0
  -25.9110  -11.6930   20.4700 N   0  0  0  0  0  0  0  0  0  0  0  0
  -23.9020  -10.4650   20.9850 C   0  0  0  0  0  0  0  0  0  0  0  0
  -24.3350   -9.5030   21.9250 C   0  0  0  0  0  3  0  0  0  0  0  0
  -23.6140   -8.3040   22.1060 C   0  0  0  0  0  3  0  0  0  0  0  0
  -22.4440   -8.0580   21.3480 C   0  0  0  0  0  0  0  0  0  0  0  0
  -22.0310   -9.0080   20.3970 C   0  0  0  0  0  3  0  0  0  0  0  0
  -22.7520  -10.1980   20.2140 C   0  0  0  0  0  3  0  0  0  0  0  0
  -21.6950   -6.9100   21.4380 O   0  0  0  0  0  0  0  0  0  0  0  0
  -21.6340   -6.1790   22.5970 C   0  0  0  0  0  0  0  0  0  0  0  0
  -21.1720   -6.7400   23.8080 C   0  0  0  0  0  3  0  0  0  0  0  0
  -21.0600   -5.9340   24.9580 C   0  0  0  0  0  3  0  0  0  0  0  0
  -21.4000   -4.5690   24.9000 C   0  0  0  0  0  0  0  0  0  0  0  0
  -21.8560   -4.0080   23.6940 C   0  0  0  0  0  3  0  0  0  0  0  0
  -21.9690   -4.8110   22.5450 C   0  0  0  0  0  0  0  0  0  0  0  0
  -22.3890   -4.2610   21.3810 F   0  0  0  0  0  0  0  0  0  0  0  0
  -21.2860   -3.7940   26.0040 F   0  0  0  0  0  0  0  0  0  0  0  0
  -22.7620  -13.5530   21.1120 C   0  0  0  0  0  0  0  0  0  0  0  0
  -22.0420  -12.8520   21.9790 N   0  0  0  0  0  0  0  0  0  0  0  0
  -22.3200  -14.5800   20.5990 O   0  0  0  0  0  0  0  0  0  0  0  0
  -22.4130  -12.0220   22.4160 H   0  0  0  0  0  0  0  0  0  0  0  0
  -21.1050  -13.1520   22.2110 H   0  0  0  0  0  0  0  0  0  0  0  0
  -25.3780  -15.2260   20.2620 N   0  0  0  0  0  0  0  0  0  0  0  0
  -24.5910  -15.8600   20.3370 H   0  0  0  0  0  0  0  0  0  0  0  0
  -26.1810  -15.6450   19.8110 H   0  0  0  0  0  0  0  0  0  0  0  0
  -28.1890  -25.0800   20.6000 C   0  0  0  0  0  2  0  0  0  0  0  0
  -28.3680  -26.5030   20.2010 O   0  0  0  0  0  0  0  0  0  0  0  0
  -24.6040  -31.8740   23.2310 C   0  0  0  0  0  0  0  0  0  0  0  0
  -27.2400  -27.3340   20.1830 C   0  0  0  0  0  0  0  0  0  0  0  0
  -23.4080  -30.4730   21.5840 C   0  0  0  0  0  3  0  0  0  0  0  0
  -24.8670  -28.9270   20.1630 C   0  0  0  0  0  0  0  0  0  0  0  0
  -25.9450  -30.8030   21.4070 C   0  0  0  0  0  2  0  0  0  0  0  0
  -26.0310  -29.4250   20.7620 C   0  0  0  0  0  0  0  0  0  0  0  0
  -27.2230  -28.6400   20.7600 C   0  0  0  0  0  3  0  0  0  0  0  0
  -26.0570  -26.8890   19.5540 C   0  0  0  0  0  3  0  0  0  0  0  0
  -24.8810  -27.6650   19.5500 C   0  0  0  0  0  3  0  0  0  0  0  0
  -23.6270  -29.7970   20.2060 C   0  0  0  0  0  2  0  0  0  0  0  0
  -24.6700  -31.0670   22.1310 N   0  0  0  0  0  0  0  0  0  0  0  0
  -23.5180  -32.1470   23.7630 O   0  0  0  0  0  0  0  0  0  0  0  0
  -22.7450  -29.4540   22.5420 C   0  0  0  0  0  0  0  0  0  0  0  0
  -21.4200  -29.2760   22.4130 N   0  0  0  0  0  0  0  0  0  0  0  0
  -23.4240  -28.8260   23.3600 O   0  0  0  0  0  0  0  0  0  0  0  0
  -20.9320  -29.8360   21.7260 H   0  0  0  0  0  0  0  0  0  0  0  0
  -18.0400  -28.0890   22.9130 C   0  0  0  0  0  0  0  0  0  0  0  0
  -20.6000  -28.3380   23.1800 C   0  0  0  0  0  3  0  0  0  0  0  0
  -20.6960  -26.9090   22.5970 C   0  0  0  0  0  2  0  0  0  0  0  0
  -19.5910  -26.5960   21.5830 C   0  0  0  0  0  2  0  0  0  0  0  0
  -18.2110  -26.7430   22.2310 C   0  0  0  0  0  2  0  0  0  0  0  0
  -19.1620  -28.8460   23.3450 C   0  0  0  0  0  0  0  0  0  0  0  0
  -18.9480  -30.1060   23.9440 C   0  0  0  0  0  3  0  0  0  0  0  0
  -17.6450  -30.6110   24.1140 C   0  0  0  0  0  3  0  0  0  0  0  0
  -16.5380  -29.8510   23.6980 C   0  0  0  0  0  3  0  0  0  0  0  0
  -16.7360  -28.5920   23.1040 C   0  0  0  0  0  3  0  0  0  0  0  0
  -25.8830  -32.5070   23.8580 C   0  0  0  0  0  3  0  0  0  0  0  0
  -25.5720  -33.9070   24.1830 N   0  0  0  0  0  0  0  0  0  0  0  0
  -25.9090  -34.9580   23.4240 C   0  0  0  0  0  0  0  0  0  0  0  0
  -26.5830  -34.8520   22.3960 O   0  0  0  0  0  0  0  0  0  0  0  0
  -24.9730  -34.0630   24.9810 H   0  0  0  0  0  0  0  0  0  0  0  0
  -24.1890  -36.7550   23.0520 C   0  0  0  0  0  1  0  0  0  0  0  0
  -25.4210  -36.3480   23.8760 C   0  0  0  0  0  3  0  0  0  0  0  0
  -27.5470  -37.2290   24.7320 C   0  0  0  0  0  1  0  0  0  0  0  0
  -26.4570  -37.3970   23.7730 N   0  0  0  0  0  0  0  0  0  0  0  0
  -26.0510  -38.3200   23.9130 H   0  0  0  0  0  0  0  0  0  0  0  0
  -26.3930  -31.7400   25.1390 C   0  0  1  0  0  0  0  0  0  0  0  0
  -25.2950  -31.5050   26.2010 C   0  0  0  0  0  1  0  0  0  0  0  0
  -26.9790  -30.3610   24.7540 C   0  0  0  0  0  1  0  0  0  0  0  0
  -27.5410  -32.5360   25.8040 C   0  0  0  0  0  1  0  0  0  0  0  0
  1 13  1  0
  1  3  1  0
  2  3  1  0
  2 53  1  0
  3  6  1  0
  4  1  2  0
  5  2  2  0
  7  4  1  0
  8  4  1  0
  9 11  1  0
 10 13  1  0
 10 12  2  0
 12 14  1  0
 13  9  2  0
 14 11  2  0
 14 23  1  0
 15 23  1  0
 16 21  1  0
 17 18  1  0
 17 16  1  0
 19 18  1  0
 19 28  1  0
 19 20  1  0
 21 15  1  0
 21 20  1  0
 22 15  2  0
 23 24  1  0
 25 26  2  0
 26 45  1  0
 27 26  1  0
 27 30  1  0
 28 25  1  0
 28 29  1  0
 29 27  2  0
 30 31  1  0
 31 32  2  0
 33 36  1  0
 33 32  1  0
 34 33  2  0
 35 34  1  0
 35 30  2  0
 36 37  1  0
 37 38  1  0
 38 39  2  0
 40 39  1  0
 40 44  1  0
 41 40  2  0
 42 37  2  0
 42 41  1  0
 43 42  1  0
 45 46  1  0
 46 49  1  0
 46 48  1  0
 47 45  2  0
 50 51  1  0
 50 25  1  0
 52 50  1  0
 54 53  1  0
 55 66  2  0
 56 54  1  0
 56 61  1  0
 57 65  1  0
 57 67  1  0
 58 64  1  0
 58 60  1  0
 59 65  1  0
 60 59  1  0
 61 60  2  0
 62 56  2  0
 63 62  1  0
 63 58  2  0
 64 57  1  0
 65 55  1  0
 67 69  2  0
 68 67  1  0
 70 68  1  0
 71 80  2  0
 71 76  1  0
 72 68  1  0
 72 76  1  0
 73 72  1  0
 74 75  1  0
 74 73  1  0
 75 71  1  0
 76 77  2  0
 77 78  1  0
 79 78  2  0
 80 79  1  0
 81 55  1  0
 81 82  1  0
 81 91  1  0
 82 85  1  0
 83 87  1  0
 83 82  1  0
 84 83  2  0
 87 86  1  0
 89 87  1  0
 89 90  1  0
 89 88  1  0
 91 94  1  1
 91 92  1  0
 93 91  1  0
M  ISO  4  15 100  23 100  53 101  54 101
M  END
>  <TORSDO>  (1) 
F 18

>  <SCORE>  (1) 
-14.723

>  <name>  (1) 
0

>  <ligand_id>  (1) 
0

>  <original_smiles>  (1) 
[H]c1c([H])c([H])c2c(c1[H])C([H])([H])C([H])([H])C([H])([H])C2([H])N([H])C(=O)C1([H])N(C(=O)C([H])(N([H])C(=O)C([H])(N([H])C([H])([H])[H])C([H])([H])[H])C(C([H])([H])[H])(C([H])([H])[H])C([H])([H])[H])C([H])([H])c2c([H])c(OC([H])([H])C(=O)N([H])C(c3c([H])c([H])c(N([H])C(=O)N4C([H])([H])C([H])([H])C([H])([H])C([H])(n5nc(-c6c([H])c([H])c(Oc7c([H])c([H])c(F)c([H])c7F)c([H])c6[H])c(C(=O)N([H])[H])c5N([H])[H])C4([H])[H])c([H])c3[H])=[N+]([H])[H])c([H])c([H])c2C1([H])[H]

>  <smiles>  (1) 
[H]c1c([H])c([H])c2c(c1[H])C([H])([H])C([H])([H])C([H])([H])C2([H])N([H])C(=O)C1([H])N(C(=O)C([H])(N([H])C(=O)C([H])(N([H])C([H])([H])[H])C([H])([H])[H])C(C([H])([H])[H])(C([H])([H])[H])C([H])([H])[H])C([H])([H])c2c([H])c(OC([H])([H])C(=O)N([H])C(c3c([H])c([H])c(N([H])C(=O)N4C([H])([H])C([H])([H])C([H])([H])C([H])(n5nc(-c6c([H])c([H])c(Oc7c([H])c([H])c(F)c([H])c7F)c([H])c6[H])c(C(=O)N([H])[H])c5N([H])[H])C4([H])[H])c([H])c3[H])=[N+]([H])[H])c([H])c([H])c2C1([H])[H]

$$$$
1:0:0
     RDKit          3D

 98106  0  0  1  0  0  0  0  0999 V2000
  -29.2220  -20.4920   21.4680 C   0  0  0  0  0  0  0  0  0  0  0  0
  -29.9920  -21.5740   21.6240 N   0  0  0  0  0  0  0  0  0  0  0  0
  -28.1040  -20.5440   20.9500 O   0  0  0  0  0  0  0  0  0  0  0  0
  -30.9030  -21.4260   22.0350 H   0  0  0  0  0  0  0  0  0  0  0  0
  -29.4880  -18.0440   21.0700 C   0  0  0  0  0  3  0  0  0  0  0  0
  -30.8410  -16.5880   22.4780 C   0  0  0  0  0  3  0  0  0  0  0  0
  -29.8170  -19.1650   21.8640 C   0  0  0  0  0  0  0  0  0  0  0  0
  -30.6260  -18.9710   23.0240 C   0  0  0  0  0  0  0  0  0  0  0  0
  -29.9930  -16.7650   21.3670 C   0  0  0  0  0  0  0  0  0  0  0  0
  -31.1410  -17.6820   23.3030 C   0  0  0  0  0  0  0  0  0  0  0  0
  -30.9180  -20.0850   24.0200 C   0  0  0  0  0  1  0  0  0  0  0  0
  -31.9120  -17.4710   24.3970 F   0  0  0  0  0  0  0  0  0  0  0  0
  -30.2380  -14.7850   19.9100 C   0  0  0  0  0  0  0  0  0  0  0  0
  -29.9680  -12.6530   18.6920 C   0  0  0  0  0  2  0  0  0  0  0  0
  -28.8630  -12.8020   17.6280 C   0  0  0  0  0  2  0  0  0  0  0  0
  -27.4710  -12.5360   18.2370 C   0  0  0  0  0  2  0  0  0  0  0  0
  -27.2310  -13.3340   19.5450 C   0  0  0  0  0  3  0  0  0  0  0  0
  -28.4260  -13.1500   20.5060 C   0  0  0  0  0  2  0  0  0  0  0  0
  -29.6430  -13.5750   19.7870 N   0  0  0  0  0  0  0  0  0  0  0  0
  -31.2560  -15.1210   19.2950 O   0  0  0  0  0  0  0  0  0  0  0  0
  -29.5240  -15.6550   20.6360 N   0  0  0  0  0  0  0  0  0  0  0  0
  -28.5950  -15.3380   20.8730 H   0  0  0  0  0  0  0  0  0  0  0  0
  -24.9220  -13.7660   20.5990 C   0  0  0  0  0  0  0  0  0  0  0  0
  -23.9580  -12.9140   21.0630 C   0  0  0  0  0  0  0  0  0  0  0  0
  -24.4820  -11.5950   20.8880 C   0  0  0  0  0  0  0  0  0  0  0  0
  -25.9700  -12.9620   20.1790 N   0  0  0  0  0  0  0  0  0  0  0  0
  -25.7170  -11.6490   20.4120 N   0  0  0  0  0  0  0  0  0  0  0  0
  -23.8620  -10.2830   21.0990 C   0  0  0  0  0  0  0  0  0  0  0  0
  -24.3660   -9.3760   22.0600 C   0  0  0  0  0  3  0  0  0  0  0  0
  -23.7410   -8.1260   22.2530 C   0  0  0  0  0  3  0  0  0  0  0  0
  -22.6040   -7.7700   21.4900 C   0  0  0  0  0  0  0  0  0  0  0  0
  -22.1240   -8.6680   20.5210 C   0  0  0  0  0  3  0  0  0  0  0  0
  -22.7460   -9.9110   20.3240 C   0  0  0  0  0  3  0  0  0  0  0  0
  -21.9520   -6.5640   21.5930 O   0  0  0  0  0  0  0  0  0  0  0  0
  -21.8320   -5.9120   22.7930 C   0  0  0  0  0  0  0  0  0  0  0  0
  -21.1860   -6.5020   23.9020 C   0  0  0  0  0  3  0  0  0  0  0  0
  -21.0230   -5.7680   25.0940 C   0  0  0  0  0  3  0  0  0  0  0  0
  -21.4950   -4.4450   25.1740 C   0  0  0  0  0  0  0  0  0  0  0  0
  -22.1370   -3.8540   24.0710 C   0  0  0  0  0  3  0  0  0  0  0  0
  -22.3020   -4.5860   22.8820 C   0  0  0  0  0  0  0  0  0  0  0  0
  -22.8980   -4.0050   21.8130 F   0  0  0  0  0  0  0  0  0  0  0  0
  -21.3330   -3.7360   26.3170 F   0  0  0  0  0  0  0  0  0  0  0  0
  -22.5870  -13.2870   21.5490 C   0  0  0  0  0  0  0  0  0  0  0  0
  -22.0470  -12.5180   22.4880 N   0  0  0  0  0  0  0  0  0  0  0  0
  -22.0080  -14.2910   21.1330 O   0  0  0  0  0  0  0  0  0  0  0  0
  -22.5300  -11.7040   22.8340 H   0  0  0  0  0  0  0  0  0  0  0  0
  -21.1420  -12.7490   22.8730 H   0  0  0  0  0  0  0  0  0  0  0  0
  -24.9840  -15.1500   20.4790 N   0  0  0  0  0  0  0  0  0  0  0  0
  -24.2080  -15.7480   20.7390 H   0  0  0  0  0  0  0  0  0  0  0  0
  -25.7350  -15.6560   20.0240 H   0  0  0  0  0  0  0  0  0  0  0  0
  -29.6110  -22.9500   21.3030 C   0  0  0  0  0  2  0  0  0  0  0  0
  -29.9190  -23.3080   19.8330 C   0  0  0  0  0  2  0  0  0  0  0  0
  -29.9570  -25.8140   19.8820 C   0  0  0  0  0  0  0  0  0  0  0  0
  -29.4340  -24.6450   19.4810 N   0  0  0  0  0  0  0  0  0  0  0  0
  -30.9790  -25.8730   20.5690 O   0  0  0  0  0  0  0  0  0  0  0  0
  -28.6150  -24.7080   18.8900 H   0  0  0  0  0  0  0  0  0  0  0  0
  -29.2200  -27.1070   19.4840 C   0  0  0  0  0  2  0  0  0  0  0  0
  -28.0260  -26.7890   18.7610 O   0  0  0  0  0  0  0  0  0  0  0  0
  -24.4110  -31.4980   22.7600 C   0  0  0  0  0  0  0  0  0  0  0  0
  -26.8880  -27.5320   18.9950 C   0  0  0  0  0  0  0  0  0  0  0  0
  -23.0910  -30.2430   21.0820 C   0  0  0  0  0  3  0  0  0  0  0  0
  -24.4500  -28.9190   19.3780 C   0  0  0  0  0  0  0  0  0  0  0  0
  -25.5720  -30.7190   20.7000 C   0  0  0  0  0  2  0  0  0  0  0  0
  -25.6390  -29.4260   19.9170 C   0  0  0  0  0  0  0  0  0  0  0  0
  -26.8600  -28.7420   19.7290 C   0  0  0  0  0  3  0  0  0  0  0  0
  -25.6840  -27.0410   18.4480 C   0  0  0  0  0  3  0  0  0  0  0  0
  -24.4660  -27.7230   18.6390 C   0  0  0  0  0  3  0  0  0  0  0  0
  -23.1900  -29.7150   19.6250 C   0  0  0  0  0  2  0  0  0  0  0  0
  -24.3820  -30.8280   21.5730 N   0  0  0  0  0  0  0  0  0  0  0  0
  -23.3780  -31.6740   23.4220 O   0  0  0  0  0  0  0  0  0  0  0  0
  -22.5540  -29.1040   21.9820 C   0  0  0  0  0  0  0  0  0  0  0  0
  -21.2260  -28.8990   21.9560 N   0  0  0  0  0  0  0  0  0  0  0  0
  -23.3240  -28.4130   22.6540 O   0  0  0  0  0  0  0  0  0  0  0  0
  -20.6640  -29.5100   21.3820 H   0  0  0  0  0  0  0  0  0  0  0  0
  -17.9370  -27.5700   22.6340 C   0  0  0  0  0  0  0  0  0  0  0  0
  -20.5040  -27.8620   22.6930 C   0  0  0  0  0  3  0  0  0  0  0  0
  -20.5710  -26.5060   21.9520 C   0  0  0  0  0  2  0  0  0  0  0  0
  -19.3820  -26.2710   21.0160 C   0  0  0  0  0  2  0  0  0  0  0  0
  -18.0680  -26.3070   21.7990 C   0  0  0  0  0  2  0  0  0  0  0  0
  -19.0790  -28.3080   23.0410 C   0  0  0  0  0  0  0  0  0  0  0  0
  -18.9000  -29.4930   23.7870 C   0  0  0  0  0  3  0  0  0  0  0  0
  -17.6100  -29.9390   24.1290 C   0  0  0  0  0  3  0  0  0  0  0  0
  -16.4830  -29.1950   23.7380 C   0  0  0  0  0  3  0  0  0  0  0  0
  -16.6470  -28.0120   22.9970 C   0  0  0  0  0  3  0  0  0  0  0  0
  -25.7350  -32.1000   23.3270 C   0  0  0  0  0  3  0  0  0  0  0  0
  -25.4220  -33.4360   23.8500 N   0  0  0  0  0  0  0  0  0  0  0  0
  -25.6950  -34.5840   23.2150 C   0  0  0  0  0  0  0  0  0  0  0  0
  -26.3090  -34.6270   22.1460 O   0  0  0  0  0  0  0  0  0  0  0  0
  -24.8650  -33.4710   24.6910 H   0  0  0  0  0  0  0  0  0  0  0  0
  -23.9350  -36.3780   23.1700 C   0  0  0  0  0  1  0  0  0  0  0  0
  -25.2120  -35.8900   23.8720 C   0  0  0  0  0  3  0  0  0  0  0  0
  -27.3660  -36.6900   24.7360 C   0  0  0  0  0  1  0  0  0  0  0  0
  -26.2290  -36.9640   23.8620 N   0  0  0  0  0  0  0  0  0  0  0  0
  -25.8180  -37.8510   24.1470 H   0  0  0  0  0  0  0  0  0  0  0  0
  -26.3970  -31.2020   24.4420 C   0  0  1  0  0  0  0  0  0  0  0  0
  -25.4210  -30.7920   25.5700 C   0  0  0  0  0  1  0  0  0  0  0  0
  -26.9790  -29.9090   23.8270 C   0  0  0  0  0  1  0  0  0  0  0  0
  -27.5830  -31.9580   25.0880 C   0  0  0  0  0  1  0  0  0  0  0  0
  1  2  1  0
  1  7  1  0
  2  4  1  0
  3  1  2  0
  5  9  2  0
  5  7  1  0
  6 10  2  0
  7  8  2  0
  8 10  1  0
  8 11  1  0
  9  6  1  0
 10 12  1  0
 13 21  1  0
 14 19  1  0
 15 16  1  0
 15 14  1  0
 17 16  1  0
 17 26  1  0
 17 18  1  0
 19 13  1  0
 19 18  1  0
 20 13  2  0
 21 22  1  0
 21  9  1  0
 23 24  2  0
 24 43  1  0
 25 24  1  0
 25 28  1  0
 26 27  1  0
 26 23  1  0
 27 25  2  0
 28 29  1  0
 29 30  2  0
 31 34  1  0
 31 30  1  0
 32 31  2  0
 33 32  1  0
 33 28  2  0
 34 35  1  0
 35 40  2  0
 35 36  1  0
 36 37  2  0
 37 38  1  0
 38 42  1  0
 39 38  2  0
 40 39  1  0
 41 40  1  0
 43 44  1  0
 44 46  1  0
 44 47  1  0
 45 43  2  0
 48 23  1  0
 48 49  1  0
 50 48  1  0
 51  2  1  0
 52 51  1  0
 53 55  2  0
 54 52  1  0
 54 53  1  0
 56 54  1  0
 57 53  1  0
 58 60  1  0
 58 57  1  0
 59 70  2  0
 60 65  1  0
 61 69  1  0
 61 71  1  0
 62 68  1  0
 62 64  1  0
 63 69  1  0
 64 63  1  0
 65 64  2  0
 66 67  1  0
 66 60  2  0
 67 62  2  0
 68 61  1  0
 69 59  1  0
 71 73  2  0
 72 71  1  0
 74 72  1  0
 75 84  2  0
 75 80  1  0
 76 72  1  0
 76 80  1  0
 77 76  1  0
 78 79  1  0
 78 77  1  0
 79 75  1  0
 80 81  2  0
 81 82  1  0
 83 82  2  0
 84 83  1  0
 85 59  1  0
 85 86  1  0
 85 95  1  0
 86 89  1  0
 87 86  1  0
 87 91  1  0
 88 87  2  0
 91 90  1  0
 93 91  1  0
 93 94  1  0
 93 92  1  0
 95 98  1  1
 95 96  1  0
 97 95  1  0
M  ISO  4  13 100  21 100  57 101  58 101
M  END
>  <TORSDO>  (2) 
F 21

>  <SCORE>  (2) 
-8.411

>  <name>  (2) 
1

>  <ligand_id>  (2) 
1

>  <original_smiles>  (2) 
[H]c1c([H])c([H])c2c(c1[H])C([H])([H])C([H])([H])C([H])([H])C2([H])N([H])C(=O)C1([H])N(C(=O)C([H])(N([H])C(=O)C([H])(N([H])C([H])([H])[H])C([H])([H])[H])C(C([H])([H])[H])(C([H])([H])[H])C([H])([H])[H])C([H])([H])c2c([H])c(OC([H])([H])C(=O)N([H])C([H])([H])C([H])([H])N([H])C(=O)c3c([H])c(N([H])C(=O)N4C([H])([H])C([H])([H])C([H])([H])C([H])(n5nc(-c6c([H])c([H])c(Oc7c([H])c([H])c(F)c([H])c7F)c([H])c6[H])c(C(=O)N([H])[H])c5N([H])[H])C4([H])[H])c([H])c(F)c3C([H])([H])[H])c([H])c([H])c2C1([H])[H]

>  <smiles>  (2) 
[H]c1c([H])c([H])c2c(c1[H])C([H])([H])C([H])([H])C([H])([H])C2([H])N([H])C(=O)C1([H])N(C(=O)C([H])(N([H])C(=O)C([H])(N([H])C([H])([H])[H])C([H])([H])[H])C(C([H])([H])[H])(C([H])([H])[H])C([H])([H])[H])C([H])([H])c2c([H])c(OC([H])([H])C(=O)N([H])C([H])([H])C([H])([H])N([H])C(=O)c3c([H])c(N([H])C(=O)N4C([H])([H])C([H])([H])C([H])([H])C([H])(n5nc(-c6c([H])c([H])c(Oc7c([H])c([H])c(F)c([H])c7F)c([H])c6[H])c(C(=O)N([H])[H])c5N([H])[H])C4([H])[H])c([H])c(F)c3C([H])([H])[H])c([H])c([H])c2C1([H])[H]

$$$$
2:0:0
     RDKit          3D

 92100  0  0  1  0  0  0  0  0999 V2000
  -30.1720  -22.8680   20.3580 C   0  0  0  0  0  0  0  0  0  0  0  0
  -29.0510  -19.1420   20.4530 C   0  0  0  0  0  0  0  0  0  0  0  0
  -30.4820  -21.3380   20.2120 C   0  0  0  0  0  2  0  0  0  0  0  0
  -28.1790  -21.7230   20.4680 C   0  0  0  0  0  2  0  0  0  0  0  0
  -28.7120  -23.2360   20.0740 C   0  0  0  0  0  3  0  0  0  0  0  0
  -29.2270  -20.5740   20.3630 N   0  0  0  0  0  0  0  0  0  0  0  0
  -31.0320  -23.6980   20.6620 O   0  0  0  0  0  0  0  0  0  0  0  0
  -27.9260  -18.7400   20.7540 O   0  0  0  0  0  0  0  0  0  0  0  0
  -28.0390  -24.7170   20.6260 C   0  0  0  0  0  2  0  0  0  0  0  0
  -28.2740  -26.2290   20.2410 O   0  0  0  0  0  0  0  0  0  0  0  0
  -24.6020  -31.9400   23.2320 C   0  0  0  0  0  0  0  0  0  0  0  0
  -27.2150  -27.2180   20.2230 C   0  0  0  0  0  0  0  0  0  0  0  0
  -23.4180  -30.5390   21.5860 C   0  0  0  0  0  3  0  0  0  0  0  0
  -24.8820  -28.9670   20.1720 C   0  0  0  0  0  0  0  0  0  0  0  0
  -25.9740  -30.8130   21.4360 C   0  0  0  0  0  2  0  0  0  0  0  0
  -26.0590  -29.4180   20.7860 C   0  0  0  0  0  0  0  0  0  0  0  0
  -27.2270  -28.5610   20.7890 C   0  0  0  0  0  3  0  0  0  0  0  0
  -26.0130  -26.8770   19.5680 C   0  0  0  0  0  3  0  0  0  0  0  0
  -24.8740  -27.7120   19.5450 C   0  0  0  0  0  3  0  0  0  0  0  0
  -23.6520  -29.8620   20.2100 C   0  0  0  0  0  2  0  0  0  0  0  0
  -24.6840  -31.1210   22.1400 N   0  0  0  0  0  0  0  0  0  0  0  0
  -23.5110  -32.2200   23.7540 O   0  0  0  0  0  0  0  0  0  0  0  0
  -22.7380  -29.5300   22.5460 C   0  0  0  0  0  0  0  0  0  0  0  0
  -21.4130  -29.3480   22.4080 N   0  0  0  0  0  0  0  0  0  0  0  0
  -23.4070  -28.9120   23.3780 O   0  0  0  0  0  0  0  0  0  0  0  0
  -20.9280  -29.8970   21.7120 H   0  0  0  0  0  0  0  0  0  0  0  0
  -18.0370  -28.1210   22.8900 C   0  0  0  0  0  0  0  0  0  0  0  0
  -20.5920  -28.4050   23.1740 C   0  0  0  0  0  3  0  0  0  0  0  0
  -20.7090  -26.9720   22.6020 C   0  0  0  0  0  2  0  0  0  0  0  0
  -19.6170  -26.6400   21.5800 C   0  0  0  0  0  2  0  0  0  0  0  0
  -18.2300  -26.7730   22.2140 C   0  0  0  0  0  2  0  0  0  0  0  0
  -19.1470  -28.8940   23.3250 C   0  0  0  0  0  0  0  0  0  0  0  0
  -18.9110  -30.1540   23.9180 C   0  0  0  0  0  3  0  0  0  0  0  0
  -17.6010  -30.6410   24.0780 C   0  0  0  0  0  3  0  0  0  0  0  0
  -16.5060  -29.8660   23.6570 C   0  0  0  0  0  3  0  0  0  0  0  0
  -16.7250  -28.6080   23.0680 C   0  0  0  0  0  3  0  0  0  0  0  0
  -25.8710  -32.5850   23.8670 C   0  0  0  0  0  3  0  0  0  0  0  0
  -26.3650  -31.8330   25.1640 C   0  0  1  0  0  0  0  0  0  0  0  0
  -25.2540  -31.6110   26.2170 C   0  0  0  0  0  1  0  0  0  0  0  0
  -26.9540  -30.4480   24.8080 C   0  0  0  0  0  1  0  0  0  0  0  0
  -27.5040  -32.6360   25.8340 C   0  0  0  0  0  1  0  0  0  0  0  0
  -25.5560  -33.9880   24.1790 N   0  0  0  0  0  0  0  0  0  0  0  0
  -25.9020  -35.0370   23.4210 C   0  0  0  0  0  0  0  0  0  0  0  0
  -26.5860  -34.9250   22.4010 O   0  0  0  0  0  0  0  0  0  0  0  0
  -24.9490  -34.1480   24.9700 H   0  0  0  0  0  0  0  0  0  0  0  0
  -24.1930  -36.8440   23.0240 C   0  0  0  0  0  1  0  0  0  0  0  0
  -25.4130  -36.4310   23.8640 C   0  0  0  0  0  3  0  0  0  0  0  0
  -27.5300  -37.3110   24.7470 C   0  0  0  0  0  1  0  0  0  0  0  0
  -26.4550  -37.4780   23.7720 N   0  0  0  0  0  0  0  0  0  0  0  0
  -26.0500  -38.4010   23.9010 H   0  0  0  0  0  0  0  0  0  0  0  0
  -30.1360  -17.9030   20.1430 C   0  0  0  0  0  3  0  0  0  0  0  0
  -30.5920  -15.1300   20.3100 C   0  0  0  0  0  0  0  0  0  0  0  0
  -30.4650  -12.7910   19.3240 C   0  0  0  0  0  2  0  0  0  0  0  0
  -29.5340  -12.7580   18.0910 C   0  0  0  0  0  2  0  0  0  0  0  0
  -28.0720  -12.5320   18.5200 C   0  0  0  0  0  2  0  0  0  0  0  0
  -27.6610  -13.4330   19.7140 C   0  0  0  0  0  3  0  0  0  0  0  0
  -28.7180  -13.4430   20.8390 C   0  0  0  0  0  2  0  0  0  0  0  0
  -29.9810  -13.8760   20.2300 N   0  0  0  0  0  0  0  0  0  0  0  0
  -31.8080  -15.1480   20.1030 O   0  0  0  0  0  0  0  0  0  0  0  0
  -29.8320  -16.3440   20.3890 N   0  0  0  0  0  0  0  0  0  0  0  0
  -28.8520  -16.1810   20.5610 H   0  0  0  0  0  0  0  0  0  0  0  0
  -25.2710  -13.9820   20.4360 C   0  0  0  0  0  0  0  0  0  0  0  0
  -24.2150  -13.1960   20.8020 C   0  0  0  0  0  0  0  0  0  0  0  0
  -24.6980  -11.8510   20.7860 C   0  0  0  0  0  0  0  0  0  0  0  0
  -26.3280  -13.1160   20.2090 N   0  0  0  0  0  0  0  0  0  0  0  0
  -25.9920  -11.8310   20.4880 N   0  0  0  0  0  0  0  0  0  0  0  0
  -23.9850  -10.5820   20.9800 C   0  0  0  0  0  0  0  0  0  0  0  0
  -24.4050   -9.6360   21.9400 C   0  0  0  0  0  3  0  0  0  0  0  0
  -23.6890   -8.4330   22.1210 C   0  0  0  0  0  3  0  0  0  0  0  0
  -22.5390   -8.1650   21.3410 C   0  0  0  0  0  0  0  0  0  0  0  0
  -22.1390   -9.1000   20.3690 C   0  0  0  0  0  3  0  0  0  0  0  0
  -22.8560  -10.2950   20.1870 C   0  0  0  0  0  3  0  0  0  0  0  0
  -21.7970   -7.0120   21.4280 O   0  0  0  0  0  0  0  0  0  0  0  0
  -21.7110   -6.3000   22.5980 C   0  0  0  0  0  0  0  0  0  0  0  0
  -21.1990   -6.8720   23.7830 C   0  0  0  0  0  3  0  0  0  0  0  0
  -21.0620   -6.0840   24.9430 C   0  0  0  0  0  3  0  0  0  0  0  0
  -21.4270   -4.7250   24.9190 C   0  0  0  0  0  0  0  0  0  0  0  0
  -21.9330   -4.1520   23.7390 C   0  0  0  0  0  3  0  0  0  0  0  0
  -22.0700   -4.9370   22.5800 C   0  0  0  0  0  0  0  0  0  0  0  0
  -22.5380   -4.3750   21.4400 F   0  0  0  0  0  0  0  0  0  0  0  0
  -21.2900   -3.9650   26.0310 F   0  0  0  0  0  0  0  0  0  0  0  0
  -22.8090  -13.6570   21.0540 C   0  0  0  0  0  0  0  0  0  0  0  0
  -22.0780  -12.9580   21.9130 N   0  0  0  0  0  0  0  0  0  0  0  0
  -22.3660  -14.6760   20.5220 O   0  0  0  0  0  0  0  0  0  0  0  0
  -22.4490  -12.1360   22.3670 H   0  0  0  0  0  0  0  0  0  0  0  0
  -21.1350  -13.2510   22.1250 H   0  0  0  0  0  0  0  0  0  0  0  0
  -25.4150  -15.3540   20.2480 N   0  0  0  0  0  0  0  0  0  0  0  0
  -24.6360  -15.9940   20.3540 H   0  0  0  0  0  0  0  0  0  0  0  0
  -26.2540  -15.8110   19.9140 H   0  0  0  0  0  0  0  0  0  0  0  0
  -32.0780  -17.7230   18.4000 C   0  0  0  0  0  1  0  0  0  0  0  0
  -29.6780  -17.4130   17.6310 C   0  0  0  0  0  1  0  0  0  0  0  0
  -30.6070  -18.0890   18.6600 C   0  0  0  0  0  3  0  0  0  0  0  0
  1  7  2  0
  2  8  2  0
  3  1  1  0
  3  6  1  0
  5  1  1  0
  5  4  1  0
  5  9  1  0
  6  2  1  0
  6  4  1  0
 10  9  1  0
 11 22  2  0
 12 10  1  0
 12 17  1  0
 13 21  1  0
 13 23  1  0
 14 20  1  0
 14 16  1  0
 15 21  1  0
 16 17  2  0
 16 15  1  0
 18 12  2  0
 19 18  1  0
 19 14  2  0
 20 13  1  0
 21 11  1  0
 23 25  2  0
 24 23  1  0
 26 24  1  0
 27 36  2  0
 27 32  1  0
 28 24  1  0
 28 32  1  0
 29 28  1  0
 30 31  1  0
 30 29  1  0
 31 27  1  0
 32 33  2  0
 33 34  1  0
 35 34  2  0
 36 35  1  0
 37 11  1  0
 37 42  1  0
 37 38  1  0
 38 41  1  1
 38 39  1  0
 40 38  1  0
 42 45  1  0
 43 47  1  0
 43 42  1  0
 44 43  2  0
 47 46  1  0
 49 47  1  0
 49 50  1  0
 49 48  1  0
 51 92  1  0
 51 60  1  0
 51  2  1  0
 52 60  1  0
 53 58  1  0
 54 55  1  0
 54 53  1  0
 56 55  1  0
 56 65  1  0
 56 57  1  0
 58 52  1  0
 58 57  1  0
 59 52  2  0
 60 61  1  0
 62 63  2  0
 63 82  1  0
 64 63  1  0
 64 67  1  0
 65 62  1  0
 65 66  1  0
 66 64  2  0
 67 68  1  0
 68 69  2  0
 70 73  1  0
 70 69  1  0
 71 70  2  0
 72 71  1  0
 72 67  2  0
 73 74  1  0
 74 75  1  0
 75 76  2  0
 77 76  1  0
 77 81  1  0
 78 77  2  0
 79 74  2  0
 79 78  1  0
 80 79  1  0
 82 83  1  0
 83 86  1  0
 83 85  1  0
 84 82  2  0
 87 88  1  0
 87 62  1  0
 89 87  1  0
 90 92  1  0
 91 92  1  0
M  ISO  4   9 101  10 101  52 100  60 100
M  END
>  <TORSDO>  (3) 
F 19

>  <SCORE>  (3) 
-14.565

>  <name>  (3) 
2

>  <ligand_id>  (3) 
2

>  <original_smiles>  (3) 
[H]c1c([H])c([H])c2c(c1[H])C([H])([H])C([H])([H])C([H])([H])C2([H])N([H])C(=O)C1([H])N(C(=O)C([H])(N([H])C(=O)C([H])(N([H])C([H])([H])[H])C([H])([H])[H])C(C([H])([H])[H])(C([H])([H])[H])C([H])([H])[H])C([H])([H])c2c([H])c(OC([H])([H])C3([H])C(=O)C([H])([H])N(C(=O)C([H])(N([H])C(=O)N4C([H])([H])C([H])([H])C([H])([H])C([H])(n5nc(-c6c([H])c([H])c(Oc7c([H])c([H])c(F)c([H])c7F)c([H])c6[H])c(C(=O)N([H])[H])c5N([H])[H])C4([H])[H])C([H])(C([H])([H])[H])C([H])([H])[H])C3([H])[H])c([H])c([H])c2C1([H])[H]

>  <smiles>  (3) 
[H]c1c([H])c([H])c2c(c1[H])C([H])([H])C([H])([H])C([H])([H])C2([H])N([H])C(=O)C1([H])N(C(=O)C([H])(N([H])C(=O)C([H])(N([H])C([H])([H])[H])C([H])([H])[H])C(C([H])([H])[H])(C([H])([H])[H])C([H])([H])[H])C([H])([H])c2c([H])c(OC([H])([H])C3([H])C(=O)C([H])([H])N(C(=O)C([H])(N([H])C(=O)N4C([H])([H])C([H])([H])C([H])([H])C([H])(n5nc(-c6c([H])c([H])c(Oc7c([H])c([H])c(F)c([H])c7F)c([H])c6[H])c(C(=O)N([H])[H])c5N([H])[H])C4([H])[H])C([H])(C([H])([H])[H])C([H])([H])[H])C3([H])[H])c([H])c([H])c2C1([H])[H]

$$$$
3:0:0
     RDKit          3D

 96105  0  0  1  0  0  0  0  0999 V2000
  -28.6960  -19.2390   20.6810 C   0  0  0  0  0  3  0  0  0  0  0  0
  -30.8740  -18.1610   19.3800 C   0  0  0  0  0  3  0  0  0  0  0  0
  -29.4620  -20.2030   19.9540 C   0  0  0  0  0  0  0  0  0  0  0  0
  -28.9830  -17.8360   20.7840 C   0  0  0  0  0  0  0  0  0  0  0  0
  -30.1100  -17.2300   20.1410 C   0  0  0  0  0  0  0  0  0  0  0  0
  -30.5710  -19.5700   19.2980 C   0  0  0  0  0  0  0  0  0  0  0  0
  -31.3810  -20.3410   18.5310 F   0  0  0  0  0  0  0  0  0  0  0  0
  -30.8910  -14.8340   19.4850 C   0  0  0  0  0  0  0  0  0  0  0  0
  -30.4340  -12.6530   18.3300 C   0  0  0  0  0  2  0  0  0  0  0  0
  -29.3240  -12.8170   17.2690 C   0  0  0  0  0  2  0  0  0  0  0  0
  -27.9410  -12.6230   17.9100 C   0  0  0  0  0  2  0  0  0  0  0  0
  -27.7730  -13.4690   19.1940 C   0  0  0  0  0  3  0  0  0  0  0  0
  -28.9720  -13.3110   20.1550 C   0  0  0  0  0  2  0  0  0  0  0  0
  -30.1910  -13.6480   19.4060 N   0  0  0  0  0  0  0  0  0  0  0  0
  -31.9100  -14.9880   18.8040 O   0  0  0  0  0  0  0  0  0  0  0  0
  -31.1590  -15.5840   21.6940 C   0  0  0  0  0  1  0  0  0  0  0  0
  -30.4980  -15.8060   20.3960 N   0  0  0  0  0  0  0  0  0  0  0  0
  -25.5380  -14.0870   20.2830 C   0  0  0  0  0  0  0  0  0  0  0  0
  -24.5020  -13.3260   20.7490 C   0  0  0  0  0  0  0  0  0  0  0  0
  -24.9020  -11.9650   20.5750 C   0  0  0  0  0  0  0  0  0  0  0  0
  -26.5030  -13.1920   19.8560 N   0  0  0  0  0  0  0  0  0  0  0  0
  -26.1340  -11.9060   20.0850 N   0  0  0  0  0  0  0  0  0  0  0  0
  -24.1600  -10.7140   20.7890 C   0  0  0  0  0  0  0  0  0  0  0  0
  -24.6020   -9.7390   21.7100 C   0  0  0  0  0  3  0  0  0  0  0  0
  -23.8580   -8.5580   21.9130 C   0  0  0  0  0  3  0  0  0  0  0  0
  -22.6570   -8.3410   21.1960 C   0  0  0  0  0  0  0  0  0  0  0  0
  -22.2380   -9.3030   20.2610 C   0  0  0  0  0  3  0  0  0  0  0  0
  -22.9830  -10.4760   20.0540 C   0  0  0  0  0  3  0  0  0  0  0  0
  -21.8840   -7.2110   21.3090 O   0  0  0  0  0  0  0  0  0  0  0  0
  -21.7310   -6.5610   22.5060 C   0  0  0  0  0  0  0  0  0  0  0  0
  -21.2000   -7.2080   23.6430 C   0  0  0  0  0  3  0  0  0  0  0  0
  -20.9930   -6.4840   24.8340 C   0  0  0  0  0  3  0  0  0  0  0  0
  -21.3110   -5.1130   24.8910 C   0  0  0  0  0  0  0  0  0  0  0  0
  -21.8360   -4.4650   23.7590 C   0  0  0  0  0  3  0  0  0  0  0  0
  -22.0430   -5.1870   22.5690 C   0  0  0  0  0  0  0  0  0  0  0  0
  -22.5260   -4.5540   21.4730 F   0  0  0  0  0  0  0  0  0  0  0  0
  -21.1080   -4.4140   26.0320 F   0  0  0  0  0  0  0  0  0  0  0  0
  -23.1810  -13.8270   21.2550 C   0  0  0  0  0  0  0  0  0  0  0  0
  -22.5790  -13.1040   22.1910 N   0  0  0  0  0  0  0  0  0  0  0  0
  -22.7000  -14.8870   20.8540 O   0  0  0  0  0  0  0  0  0  0  0  0
  -22.9890  -12.2450   22.5240 H   0  0  0  0  0  0  0  0  0  0  0  0
  -21.6990  -13.4100   22.5810 H   0  0  0  0  0  0  0  0  0  0  0  0
  -25.7500  -15.4590   20.1690 N   0  0  0  0  0  0  0  0  0  0  0  0
  -25.0960  -16.1600   20.4960 H   0  0  0  0  0  0  0  0  0  0  0  0
  -26.6630  -15.8480   19.9630 H   0  0  0  0  0  0  0  0  0  0  0  0
  -28.0680  -22.4630   20.4280 C   0  0  0  0  0  0  0  0  0  0  0  0
  -29.9720  -22.7980   19.7680 C   0  0  0  0  0  2  0  0  0  0  0  0
  -28.6940  -23.7520   19.7310 C   0  0  1  0  0  0  0  0  0  0  0  0
  -27.9820  -23.9670   18.3880 C   0  0  0  0  0  1  0  0  0  0  0  0
  -29.0600  -21.6430   19.8770 N   0  0  0  0  0  0  0  0  0  0  0  0
  -27.1550  -22.2160   21.1940 O   0  0  0  0  0  0  0  0  0  0  0  0
  -28.5320  -25.1120   20.6050 C   0  0  0  0  0  2  0  0  0  0  0  0
  -28.6250  -26.5210   20.0760 O   0  0  0  0  0  0  0  0  0  0  0  0
  -24.5910  -31.7690   23.1030 C   0  0  0  0  0  0  0  0  0  0  0  0
  -27.4740  -27.3370   20.0680 C   0  0  0  0  0  0  0  0  0  0  0  0
  -23.4780  -30.3130   21.4440 C   0  0  0  0  0  3  0  0  0  0  0  0
  -25.0290  -28.8410   20.0310 C   0  0  0  0  0  0  0  0  0  0  0  0
  -26.0020  -30.7620   21.2930 C   0  0  0  0  0  2  0  0  0  0  0  0
  -26.1670  -29.3900   20.6350 C   0  0  0  0  0  0  0  0  0  0  0  0
  -27.3950  -28.6550   20.6340 C   0  0  0  0  0  3  0  0  0  0  0  0
  -26.3070  -26.8380   19.4580 C   0  0  0  0  0  3  0  0  0  0  0  0
  -25.1040  -27.5760   19.4310 C   0  0  0  0  0  3  0  0  0  0  0  0
  -23.7490  -29.6520   20.0640 C   0  0  0  0  0  2  0  0  0  0  0  0
  -24.7060  -30.9680   22.0030 N   0  0  0  0  0  0  0  0  0  0  0  0
  -23.4920  -31.9860   23.6340 O   0  0  0  0  0  0  0  0  0  0  0  0
  -22.8620  -29.2630   22.3980 C   0  0  0  0  0  0  0  0  0  0  0  0
  -21.5570  -28.9840   22.2340 N   0  0  0  0  0  0  0  0  0  0  0  0
  -23.5600  -28.7030   23.2480 O   0  0  0  0  0  0  0  0  0  0  0  0
  -21.0560  -29.4910   21.5170 H   0  0  0  0  0  0  0  0  0  0  0  0
  -18.2740  -27.5060   22.6250 C   0  0  0  0  0  0  0  0  0  0  0  0
  -20.7870  -27.9970   22.9910 C   0  0  0  0  0  3  0  0  0  0  0  0
  -21.0340  -26.5690   22.4520 C   0  0  0  0  0  2  0  0  0  0  0  0
  -20.0080  -26.1260   21.4050 C   0  0  0  0  0  2  0  0  0  0  0  0
  -18.5940  -26.1640   21.9900 C   0  0  0  0  0  2  0  0  0  0  0  0
  -19.3030  -28.3730   23.0810 C   0  0  0  0  0  0  0  0  0  0  0  0
  -18.9520  -29.6210   23.6380 C   0  0  0  0  0  3  0  0  0  0  0  0
  -17.6020  -30.0060   23.7460 C   0  0  0  0  0  3  0  0  0  0  0  0
  -16.5880  -29.1390   23.3030 C   0  0  0  0  0  3  0  0  0  0  0  0
  -16.9230  -27.8920   22.7460 C   0  0  0  0  0  3  0  0  0  0  0  0
  -25.8330  -32.4720   23.7360 C   0  0  0  0  0  3  0  0  0  0  0  0
  -26.3860  -31.7260   25.0150 C   0  0  1  0  0  0  0  0  0  0  0  0
  -25.2970  -31.3960   26.0600 C   0  0  0  0  0  1  0  0  0  0  0  0
  -27.0750  -30.3960   24.6310 C   0  0  0  0  0  1  0  0  0  0  0  0
  -27.4590  -32.5990   25.7050 C   0  0  0  0  0  1  0  0  0  0  0  0
  -25.4390  -33.8470   24.0720 N   0  0  0  0  0  0  0  0  0  0  0  0
  -25.6920  -34.9220   23.3140 C   0  0  0  0  0  0  0  0  0  0  0  0
  -26.3500  -34.8620   22.2710 O   0  0  0  0  0  0  0  0  0  0  0  0
  -24.8380  -33.9610   24.8750 H   0  0  0  0  0  0  0  0  0  0  0  0
  -23.8430  -36.6000   23.0020 C   0  0  0  0  0  1  0  0  0  0  0  0
  -25.1250  -36.2740   23.7830 C   0  0  0  0  0  3  0  0  0  0  0  0
  -27.2130  -37.2980   24.5740 C   0  0  0  0  0  1  0  0  0  0  0  0
  -26.0840  -37.3920   23.6520 N   0  0  0  0  0  0  0  0  0  0  0  0
  -25.6220  -38.2840   23.8100 H   0  0  0  0  0  0  0  0  0  0  0  0
  -28.1060  -17.0570   21.5440 N   0  0  0  0  0  0  0  0  0  0  0  0
  -27.6210  -17.4970   22.3210 H   0  0  0  0  0  0  0  0  0  0  0  0
  -28.3740  -16.1080   21.7660 H   0  0  0  0  0  0  0  0  0  0  0  0
  1  4  1  0
  2  5  1  0
  3  1  2  0
  4 94  1  0
  5 17  1  0
  5  4  2  0
  6  2  2  0
  6  3  1  0
  7  6  1  0
  8 17  1  0
  9 14  1  0
 10 11  1  0
 10  9  1  0
 12 11  1  0
 12 21  1  0
 12 13  1  0
 14  8  1  0
 14 13  1  0
 15  8  2  0
 17 16  1  0
 18 19  2  0
 19 38  1  0
 20 19  1  0
 20 23  1  0
 21 22  1  0
 21 18  1  0
 22 20  2  0
 23 24  1  0
 24 25  2  0
 26 29  1  0
 26 25  1  0
 27 26  2  0
 28 27  1  0
 28 23  2  0
 29 30  1  0
 30 35  2  0
 30 31  1  0
 31 32  2  0
 32 33  1  0
 33 37  1  0
 34 33  2  0
 35 34  1  0
 36 35  1  0
 38 39  1  0
 39 41  1  0
 39 42  1  0
 40 38  2  0
 43 18  1  0
 43 44  1  0
 45 43  1  0
 46 51  2  0
 47 50  1  0
 48 49  1  6
 48 47  1  0
 48 46  1  0
 48 52  1  0
 50  3  1  0
 50 46  1  0
 53 52  1  0
 54 65  2  0
 55 53  1  0
 55 60  1  0
 56 64  1  0
 56 66  1  0
 57 63  1  0
 57 59  1  0
 58 64  1  0
 59 58  1  0
 60 59  2  0
 61 55  2  0
 62 61  1  0
 62 57  2  0
 63 56  1  0
 64 54  1  0
 66 68  2  0
 67 66  1  0
 69 67  1  0
 70 79  2  0
 70 75  1  0
 71 67  1  0
 71 75  1  0
 72 71  1  0
 73 74  1  0
 73 72  1  0
 74 70  1  0
 75 76  2  0
 76 77  1  0
 78 77  2  0
 79 78  1  0
 80 54  1  0
 80 85  1  0
 80 81  1  0
 81 84  1  1
 81 82  1  0
 83 81  1  0
 85 88  1  0
 86 90  1  0
 86 85  1  0
 87 86  2  0
 90 89  1  0
 92 90  1  0
 92 93  1  0
 92 91  1  0
 94 96  1  0
 94 95  1  0
M  ISO  4   8 100  17 100  52 101  53 101
M  END
>  <TORSDO>  (4) 
F 19

>  <SCORE>  (4) 
-11.907

>  <name>  (4) 
3

>  <ligand_id>  (4) 
3

>  <original_smiles>  (4) 
[H]c1c([H])c([H])c2c(c1[H])C([H])([H])C([H])([H])C([H])([H])C2([H])N([H])C(=O)C1([H])N(C(=O)C([H])(N([H])C(=O)C([H])(N([H])C([H])([H])[H])C([H])([H])[H])C(C([H])([H])[H])(C([H])([H])[H])C([H])([H])[H])C([H])([H])c2c([H])c(OC([H])([H])C3(C([H])([H])[H])C(=O)N(c4c([H])c(N([H])[H])c(N(C(=O)N5C([H])([H])C([H])([H])C([H])([H])C([H])(n6nc(-c7c([H])c([H])c(Oc8c([H])c([H])c(F)c([H])c8F)c([H])c7[H])c(C(=O)N([H])[H])c6N([H])[H])C5([H])[H])C([H])([H])[H])c([H])c4F)C3([H])[H])c([H])c([H])c2C1([H])[H]

>  <smiles>  (4) 
[H]c1c([H])c([H])c2c(c1[H])C([H])([H])C([H])([H])C([H])([H])C2([H])N([H])C(=O)C1([H])N(C(=O)C([H])(N([H])C(=O)C([H])(N([H])C([H])([H])[H])C([H])([H])[H])C(C([H])([H])[H])(C([H])([H])[H])C([H])([H])[H])C([H])([H])c2c([H])c(OC([H])([H])C3(C([H])([H])[H])C(=O)N(c4c([H])c(N([H])[H])c(N(C(=O)N5C([H])([H])C([H])([H])C([H])([H])C([H])(n6nc(-c7c([H])c([H])c(Oc8c([H])c([H])c(F)c([H])c8F)c([H])c7[H])c(C(=O)N([H])[H])c6N([H])[H])C5([H])[H])C([H])([H])[H])c([H])c4F)C3([H])[H])c([H])c([H])c2C1([H])[H]

$$$$
4:0:0
     RDKit          3D

 95104  0  0  1  0  0  0  0  0999 V2000
  -26.1900  -22.6730   19.9000 C   0  0  0  0  0  0  0  0  0  0  0  0
  -26.9670  -21.3560   20.1070 C   0  0  0  0  0  2  0  0  0  0  0  0
  -28.9810  -22.5740   19.1930 C   0  0  0  0  0  2  0  0  0  0  0  0
  -28.2660  -24.0150   19.5450 C   0  0  0  0  0  3  0  0  0  0  0  0
  -26.8320  -23.8230   19.7000 N   0  0  0  0  0  0  0  0  0  0  0  0
  -28.4460  -21.3460   19.9080 N   0  0  0  0  0  0  0  0  0  0  0  0
  -24.9610  -22.6580   19.9190 O   0  0  0  0  0  0  0  0  0  0  0  0
  -26.2620  -24.6520   19.6040 H   0  0  0  0  0  0  0  0  0  0  0  0
  -28.9750  -18.2210   21.8970 C   0  0  0  0  0  3  0  0  0  0  0  0
  -28.7640  -19.5420   21.4980 C   0  0  0  0  0  3  0  0  0  0  0  0
  -29.5740  -17.3000   21.0340 C   0  0  0  0  0  3  0  0  0  0  0  0
  -29.7720  -19.0630   19.3390 C   0  0  0  0  0  0  0  0  0  0  0  0
  -29.0450  -20.0240   20.1920 C   0  0  0  0  0  0  0  0  0  0  0  0
  -30.0380  -17.6590   19.7590 C   0  0  0  0  0  0  0  0  0  0  0  0
  -30.3010  -19.5840   18.0030 C   0  0  0  0  0  1  0  0  0  0  0  0
  -31.3340  -15.3490   19.3380 C   0  0  0  0  0  0  0  0  0  0  0  0
  -31.0700  -13.0040   18.4770 C   0  0  0  0  0  2  0  0  0  0  0  0
  -29.9760  -12.9350   17.3860 C   0  0  0  0  0  2  0  0  0  0  0  0
  -28.5760  -12.7930   18.0200 C   0  0  0  0  0  2  0  0  0  0  0  0
  -28.3530  -13.7490   19.2270 C   0  0  0  0  0  3  0  0  0  0  0  0
  -29.5580  -13.6870   20.1850 C   0  0  0  0  0  2  0  0  0  0  0  0
  -30.7080  -14.1120   19.3890 N   0  0  0  0  0  0  0  0  0  0  0  0
  -32.5370  -15.3660   19.0690 O   0  0  0  0  0  0  0  0  0  0  0  0
  -30.6120  -16.5090   18.9780 N   0  0  0  0  0  0  0  0  0  0  0  0
  -30.9330  -16.8170   18.0640 H   0  0  0  0  0  0  0  0  0  0  0  0
  -26.2020  -14.3960   20.4480 C   0  0  0  0  0  0  0  0  0  0  0  0
  -25.1230  -13.6560   20.8650 C   0  0  0  0  0  0  0  0  0  0  0  0
  -25.4490  -12.2930   20.5880 C   0  0  0  0  0  0  0  0  0  0  0  0
  -27.0940  -13.4840   19.9150 N   0  0  0  0  0  0  0  0  0  0  0  0
  -26.6710  -12.2060   20.0730 N   0  0  0  0  0  0  0  0  0  0  0  0
  -24.6470  -11.0730   20.7430 C   0  0  0  0  0  0  0  0  0  0  0  0
  -25.0360  -10.0480   21.6320 C   0  0  0  0  0  3  0  0  0  0  0  0
  -24.2440   -8.8880   21.7790 C   0  0  0  0  0  3  0  0  0  0  0  0
  -23.0440   -8.7510   21.0440 C   0  0  0  0  0  0  0  0  0  0  0  0
  -22.6730   -9.7640   20.1420 C   0  0  0  0  0  3  0  0  0  0  0  0
  -23.4640  -10.9170   19.9930 C   0  0  0  0  0  3  0  0  0  0  0  0
  -22.2200   -7.6520   21.1060 O   0  0  0  0  0  0  0  0  0  0  0  0
  -22.0380   -6.9540   22.2740 C   0  0  0  0  0  0  0  0  0  0  0  0
  -21.5540   -7.5740   23.4460 C   0  0  0  0  0  3  0  0  0  0  0  0
  -21.3170   -6.8060   24.6030 C   0  0  0  0  0  3  0  0  0  0  0  0
  -21.5520   -5.4160   24.5850 C   0  0  0  0  0  0  0  0  0  0  0  0
  -22.0230   -4.7960   23.4130 C   0  0  0  0  0  3  0  0  0  0  0  0
  -22.2660   -5.5640   22.2620 C   0  0  0  0  0  0  0  0  0  0  0  0
  -22.7020   -4.9580   21.1310 F   0  0  0  0  0  0  0  0  0  0  0  0
  -21.3170   -4.6730   25.6920 F   0  0  0  0  0  0  0  0  0  0  0  0
  -23.8360  -14.1940   21.4160 C   0  0  0  0  0  0  0  0  0  0  0  0
  -23.2210  -13.4690   22.3460 N   0  0  0  0  0  0  0  0  0  0  0  0
  -23.3930  -15.2810   21.0550 O   0  0  0  0  0  0  0  0  0  0  0  0
  -23.6010  -12.5850   22.6460 H   0  0  0  0  0  0  0  0  0  0  0  0
  -22.3570  -13.7960   22.7500 H   0  0  0  0  0  0  0  0  0  0  0  0
  -26.4990  -15.7530   20.4690 N   0  0  0  0  0  0  0  0  0  0  0  0
  -25.9390  -16.3830   21.0330 H   0  0  0  0  0  0  0  0  0  0  0  0
  -27.4630  -16.0590   20.3930 H   0  0  0  0  0  0  0  0  0  0  0  0
  -28.4450  -25.3260   18.5930 C   0  0  0  0  0  2  0  0  0  0  0  0
  -28.3700  -26.7640   19.0340 O   0  0  0  0  0  0  0  0  0  0  0  0
  -24.7830  -31.7200   22.8670 C   0  0  0  0  0  0  0  0  0  0  0  0
  -27.2230  -27.5910   19.0950 C   0  0  0  0  0  0  0  0  0  0  0  0
  -23.4810  -30.5050   21.1510 C   0  0  0  0  0  3  0  0  0  0  0  0
  -24.8550  -29.1800   19.4290 C   0  0  0  0  0  0  0  0  0  0  0  0
  -26.0050  -30.8920   20.8390 C   0  0  0  0  0  2  0  0  0  0  0  0
  -26.0550  -29.6100   20.0060 C   0  0  0  0  0  0  0  0  0  0  0  0
  -27.2360  -28.8240   19.8290 C   0  0  0  0  0  3  0  0  0  0  0  0
  -26.0020  -27.2300   18.4860 C   0  0  0  0  0  3  0  0  0  0  0  0
  -24.8320  -28.0030   18.6580 C   0  0  0  0  0  3  0  0  0  0  0  0
  -23.6110  -30.0120   19.6850 C   0  0  0  0  0  2  0  0  0  0  0  0
  -24.7760  -31.0530   21.6740 N   0  0  0  0  0  0  0  0  0  0  0  0
  -23.7390  -31.9020   23.5070 O   0  0  0  0  0  0  0  0  0  0  0  0
  -22.9070  -29.3580   22.0190 C   0  0  0  0  0  0  0  0  0  0  0  0
  -21.5750  -29.1760   21.9890 N   0  0  0  0  0  0  0  0  0  0  0  0
  -23.6570  -28.6400   22.6890 O   0  0  0  0  0  0  0  0  0  0  0  0
  -21.0250  -29.8120   21.4350 H   0  0  0  0  0  0  0  0  0  0  0  0
  -18.2510  -27.9150   22.5680 C   0  0  0  0  0  0  0  0  0  0  0  0
  -20.8290  -28.1410   22.7120 C   0  0  0  0  0  3  0  0  0  0  0  0
  -20.8700  -26.7840   21.9760 C   0  0  0  0  0  2  0  0  0  0  0  0
  -19.7330  -26.6310   20.9580 C   0  0  0  0  0  2  0  0  0  0  0  0
  -18.3800  -26.6970   21.6680 C   0  0  0  0  0  2  0  0  0  0  0  0
  -19.4030  -28.6090   23.0340 C   0  0  0  0  0  0  0  0  0  0  0  0
  -19.2310  -29.7770   23.8090 C   0  0  0  0  0  3  0  0  0  0  0  0
  -17.9420  -30.2450   24.1300 C   0  0  0  0  0  3  0  0  0  0  0  0
  -16.8100  -29.5310   23.7020 C   0  0  0  0  0  3  0  0  0  0  0  0
  -16.9670  -28.3650   22.9270 C   0  0  0  0  0  3  0  0  0  0  0  0
  -26.1020  -32.2980   23.4720 C   0  0  0  0  0  3  0  0  0  0  0  0
  -25.7830  -33.6180   24.0380 N   0  0  0  0  0  0  0  0  0  0  0  0
  -26.0660  -34.7870   23.4490 C   0  0  0  0  0  0  0  0  0  0  0  0
  -26.6880  -34.8670   22.3860 O   0  0  0  0  0  0  0  0  0  0  0  0
  -25.2180  -33.6260   24.8730 H   0  0  0  0  0  0  0  0  0  0  0  0
  -24.3040  -36.5800   23.4790 C   0  0  0  0  0  1  0  0  0  0  0  0
  -25.5880  -36.0710   24.1520 C   0  0  0  0  0  3  0  0  0  0  0  0
  -27.7470  -36.8550   25.0200 C   0  0  0  0  0  1  0  0  0  0  0  0
  -26.6000  -37.1500   24.1660 N   0  0  0  0  0  0  0  0  0  0  0  0
  -26.1900  -38.0260   24.4800 H   0  0  0  0  0  0  0  0  0  0  0  0
  -26.7430  -31.3640   24.5730 C   0  0  1  0  0  0  0  0  0  0  0  0
  -25.7580  -30.9400   25.6880 C   0  0  0  0  0  1  0  0  0  0  0  0
  -27.3030  -30.0700   23.9400 C   0  0  0  0  0  1  0  0  0  0  0  0
  -27.9390  -32.0850   25.2390 C   0  0  0  0  0  1  0  0  0  0  0  0
  1  7  2  0
  1  2  1  0
  3  4  1  0
  3  6  1  0
  4 54  1  0
  4  5  1  0
  5  1  1  0
  6  2  1  0
  6 13  1  0
  8  5  1  0
 10  9  1  0
 11  9  2  0
 12 14  2  0
 12 13  1  0
 13 10  2  0
 14 11  1  0
 15 12  1  0
 16 22  1  0
 17 22  1  0
 18 19  1  0
 18 17  1  0
 20 19  1  0
 20 29  1  0
 20 21  1  0
 22 21  1  0
 23 16  2  0
 24 16  1  0
 24 14  1  0
 25 24  1  0
 26 51  1  0
 26 27  2  0
 27 46  1  0
 28 31  1  0
 28 27  1  0
 29 30  1  0
 29 26  1  0
 30 28  2  0
 31 32  1  0
 32 33  2  0
 34 37  1  0
 34 33  1  0
 35 34  2  0
 36 35  1  0
 36 31  2  0
 37 38  1  0
 38 39  1  0
 39 40  2  0
 41 40  1  0
 41 45  1  0
 42 41  2  0
 43 38  2  0
 43 42  1  0
 44 43  1  0
 46 47  1  0
 47 49  1  0
 47 50  1  0
 48 46  2  0
 51 52  1  0
 53 51  1  0
 54 55  1  0
 55 57  1  0
 56 67  2  0
 57 62  1  0
 58 66  1  0
 58 68  1  0
 59 65  1  0
 59 61  1  0
 60 66  1  0
 61 60  1  0
 62 61  2  0
 63 64  1  0
 63 57  2  0
 64 59  2  0
 65 58  1  0
 66 56  1  0
 68 70  2  0
 69 68  1  0
 71 69  1  0
 72 81  2  0
 72 77  1  0
 73 69  1  0
 73 77  1  0
 74 73  1  0
 75 76  1  0
 75 74  1  0
 76 72  1  0
 77 78  2  0
 78 79  1  0
 80 79  2  0
 81 80  1  0
 82 56  1  0
 82 83  1  0
 82 92  1  0
 83 86  1  0
 84 83  1  0
 84 88  1  0
 85 84  2  0
 88 87  1  0
 88 90  1  0
 90 91  1  0
 90 89  1  0
 92 95  1  1
 92 93  1  0
 94 92  1  0
M  ISO  4  16 100  24 100  54 101  55 101
M  END
>  <TORSDO>  (5) 
F 18

>  <SCORE>  (5) 
-7.985

>  <name>  (5) 
4

>  <ligand_id>  (5) 
4

>  <original_smiles>  (5) 
[H]c1c([H])c(N([H])C(=O)N2C([H])([H])C([H])([H])C([H])([H])C([H])(n3nc(-c4c([H])c([H])c(Oc5c([H])c([H])c(F)c([H])c5F)c([H])c4[H])c(C(=O)N([H])[H])c3N([H])[H])C2([H])[H])c(C([H])([H])[H])c(N2C([H])([H])C(=O)N([H])C([H])(C([H])([H])Oc3c([H])c([H])c4c(c3[H])C([H])([H])N(C(=O)C([H])(N([H])C(=O)C([H])(N([H])C([H])([H])[H])C([H])([H])[H])C(C([H])([H])[H])(C([H])([H])[H])C([H])([H])[H])C([H])(C(=O)N([H])C3([H])c5c([H])c([H])c([H])c([H])c5C([H])([H])C([H])([H])C3([H])[H])C4([H])[H])C2([H])[H])c1[H]

>  <smiles>  (5) 
[H]c1c([H])c(N([H])C(=O)N2C([H])([H])C([H])([H])C([H])([H])C([H])(n3nc(-c4c([H])c([H])c(Oc5c([H])c([H])c(F)c([H])c5F)c([H])c4[H])c(C(=O)N([H])[H])c3N([H])[H])C2([H])[H])c(C([H])([H])[H])c(N2C([H])([H])C(=O)N([H])C([H])(C([H])([H])Oc3c([H])c([H])c4c(c3[H])C([H])([H])N(C(=O)C([H])(N([H])C(=O)C([H])(N([H])C([H])([H])[H])C([H])([H])[H])C(C([H])([H])[H])(C([H])([H])[H])C([H])([H])[H])C([H])(C(=O)N([H])C3([H])c5c([H])c([H])c([H])c([H])c5C([H])([H])C([H])([H])C3([H])[H])C4([H])[H])C2([H])[H])c1[H]

$$$$
5:0:0
     RDKit          3D

 98106  0  0  1  0  0  0  0  0999 V2000
  -30.8450  -21.2000   21.4820 C   0  0  0  0  0  0  0  0  0  0  0  0
  -30.1310  -22.1610   20.8410 N   0  0  0  0  0  0  0  0  0  0  0  0
  -31.7610  -21.6170   22.3620 N   0  0  0  0  0  4  0  0  0  0  0  0
  -29.4270  -21.8610   20.1740 H   0  0  0  0  0  0  0  0  0  0  0  0
  -32.4050  -20.9330   22.7400 H   0  0  0  0  0  0  0  0  0  0  0  0
  -31.9280  -22.5930   22.5350 H   0  0  0  0  0  0  0  0  0  0  0  0
  -29.3860  -19.2180   20.9280 C   0  0  0  0  0  3  0  0  0  0  0  0
  -31.5190  -17.4230   21.3030 C   0  0  0  0  0  3  0  0  0  0  0  0
  -30.6560  -19.7400   21.2690 C   0  0  0  0  0  0  0  0  0  0  0  0
  -30.2460  -16.9090   20.9660 C   0  0  0  0  0  0  0  0  0  0  0  0
  -29.1860  -17.8240   20.7830 C   0  0  0  0  0  0  0  0  0  0  0  0
  -31.7220  -18.8150   21.4510 C   0  0  0  0  0  0  0  0  0  0  0  0
  -27.9540  -17.3550   20.4630 F   0  0  0  0  0  0  0  0  0  0  0  0
  -32.9580  -19.2430   21.8090 F   0  0  0  0  0  0  0  0  0  0  0  0
  -30.6340  -14.5510   20.2090 C   0  0  0  0  0  0  0  0  0  0  0  0
  -30.2820  -12.4540   18.9470 C   0  0  0  0  0  2  0  0  0  0  0  0
  -29.2760  -12.7090   17.8030 C   0  0  0  0  0  2  0  0  0  0  0  0
  -27.8270  -12.5380   18.3030 C   0  0  0  0  0  2  0  0  0  0  0  0
  -27.5540  -13.3150   19.6180 C   0  0  0  0  0  3  0  0  0  0  0  0
  -28.6640  -13.0360   20.6600 C   0  0  0  0  0  2  0  0  0  0  0  0
  -29.9580  -13.3800   20.0430 N   0  0  0  0  0  0  0  0  0  0  0  0
  -31.7310  -14.7670   19.6850 O   0  0  0  0  0  0  0  0  0  0  0  0
  -29.9560  -15.5100   20.8690 N   0  0  0  0  0  0  0  0  0  0  0  0
  -29.0220  -15.2510   21.1420 H   0  0  0  0  0  0  0  0  0  0  0  0
  -25.1880  -13.8930   20.4470 C   0  0  0  0  0  0  0  0  0  0  0  0
  -24.1420  -13.1060   20.8470 C   0  0  0  0  0  0  0  0  0  0  0  0
  -24.6110  -11.7590   20.7700 C   0  0  0  0  0  0  0  0  0  0  0  0
  -26.2270  -13.0230   20.1500 N   0  0  0  0  0  0  0  0  0  0  0  0
  -25.8850  -11.7340   20.4020 N   0  0  0  0  0  0  0  0  0  0  0  0
  -23.9050  -10.4870   20.9690 C   0  0  0  0  0  0  0  0  0  0  0  0
  -24.3590   -9.5290   21.9020 C   0  0  0  0  0  3  0  0  0  0  0  0
  -23.6530   -8.3220   22.0890 C   0  0  0  0  0  3  0  0  0  0  0  0
  -22.4790   -8.0640   21.3410 C   0  0  0  0  0  0  0  0  0  0  0  0
  -22.0440   -9.0110   20.3970 C   0  0  0  0  0  3  0  0  0  0  0  0
  -22.7500  -10.2110   20.2100 C   0  0  0  0  0  3  0  0  0  0  0  0
  -21.7400   -6.9080   21.4370 O   0  0  0  0  0  0  0  0  0  0  0  0
  -21.6780   -6.1890   22.6030 C   0  0  0  0  0  0  0  0  0  0  0  0
  -21.1980   -6.7560   23.8040 C   0  0  0  0  0  3  0  0  0  0  0  0
  -21.0850   -5.9610   24.9630 C   0  0  0  0  0  3  0  0  0  0  0  0
  -21.4430   -4.6010   24.9200 C   0  0  0  0  0  0  0  0  0  0  0  0
  -21.9170   -4.0330   23.7240 C   0  0  0  0  0  3  0  0  0  0  0  0
  -22.0310   -4.8250   22.5690 C   0  0  0  0  0  0  0  0  0  0  0  0
  -22.4690   -4.2700   21.4120 F   0  0  0  0  0  0  0  0  0  0  0  0
  -21.3280   -3.8340   26.0300 F   0  0  0  0  0  0  0  0  0  0  0  0
  -22.7560  -13.5660   21.1930 C   0  0  0  0  0  0  0  0  0  0  0  0
  -22.0690  -12.8390   22.0690 N   0  0  0  0  0  0  0  0  0  0  0  0
  -22.2910  -14.6040   20.7230 O   0  0  0  0  0  0  0  0  0  0  0  0
  -22.4600  -12.0000   22.4690 H   0  0  0  0  0  0  0  0  0  0  0  0
  -21.1400  -13.1280   22.3420 H   0  0  0  0  0  0  0  0  0  0  0  0
  -25.3370  -15.2700   20.2990 N   0  0  0  0  0  0  0  0  0  0  0  0
  -24.5750  -15.9130   20.4850 H   0  0  0  0  0  0  0  0  0  0  0  0
  -26.1860  -15.7390   20.0090 H   0  0  0  0  0  0  0  0  0  0  0  0
  -31.4730  -24.1540   20.1380 C   0  0  0  0  0  1  0  0  0  0  0  0
  -30.2700  -23.6460   20.9650 C   0  0  0  0  0  3  0  0  0  0  0  0
  -28.9910  -24.3990   20.5060 C   0  0  0  0  0  0  0  0  0  0  0  0
  -28.2100  -23.9000   19.6890 O   0  0  0  0  0  0  0  0  0  0  0  0
  -28.7170  -25.8030   21.1000 C   0  0  0  0  0  2  0  0  0  0  0  0
  -28.4990  -26.7870   20.0750 O   0  0  0  0  0  0  0  0  0  0  0  0
  -24.6040  -31.9030   23.2310 C   0  0  0  0  0  0  0  0  0  0  0  0
  -27.3220  -27.4970   20.1570 C   0  0  0  0  0  0  0  0  0  0  0  0
  -23.4230  -30.4910   21.5780 C   0  0  0  0  0  3  0  0  0  0  0  0
  -24.9040  -28.9640   20.1670 C   0  0  0  0  0  0  0  0  0  0  0  0
  -25.9460  -30.8760   21.3970 C   0  0  0  0  0  2  0  0  0  0  0  0
  -26.0510  -29.5040   20.7600 C   0  0  0  0  0  0  0  0  0  0  0  0
  -27.2640  -28.7770   20.7540 C   0  0  0  0  0  3  0  0  0  0  0  0
  -26.1570  -26.9660   19.5640 C   0  0  0  0  0  3  0  0  0  0  0  0
  -24.9480  -27.6900   19.5710 C   0  0  0  0  0  3  0  0  0  0  0  0
  -23.6490  -29.8120   20.2010 C   0  0  0  0  0  2  0  0  0  0  0  0
  -24.6760  -31.1060   22.1270 N   0  0  0  0  0  0  0  0  0  0  0  0
  -23.5160  -32.1640   23.7620 O   0  0  0  0  0  0  0  0  0  0  0  0
  -22.7730  -29.4630   22.5320 C   0  0  0  0  0  0  0  0  0  0  0  0
  -21.4510  -29.2770   22.4000 N   0  0  0  0  0  0  0  0  0  0  0  0
  -23.4580  -28.8360   23.3440 O   0  0  0  0  0  0  0  0  0  0  0  0
  -20.9610  -29.8390   21.7170 H   0  0  0  0  0  0  0  0  0  0  0  0
  -18.0740  -28.0970   22.9110 C   0  0  0  0  0  0  0  0  0  0  0  0
  -20.6350  -28.3300   23.1600 C   0  0  0  0  0  3  0  0  0  0  0  0
  -20.7190  -26.9090   22.5560 C   0  0  0  0  0  2  0  0  0  0  0  0
  -19.6050  -26.6160   21.5480 C   0  0  0  0  0  2  0  0  0  0  0  0
  -18.2310  -26.7610   22.2070 C   0  0  0  0  0  2  0  0  0  0  0  0
  -19.2020  -28.8430   23.3430 C   0  0  0  0  0  0  0  0  0  0  0  0
  -19.0000  -30.0970   23.9570 C   0  0  0  0  0  3  0  0  0  0  0  0
  -17.7010  -30.6050   24.1460 C   0  0  0  0  0  3  0  0  0  0  0  0
  -16.5870  -29.8550   23.7310 C   0  0  0  0  0  3  0  0  0  0  0  0
  -16.7750  -28.6030   23.1180 C   0  0  0  0  0  3  0  0  0  0  0  0
  -25.8810  -32.5400   23.8640 C   0  0  0  0  0  3  0  0  0  0  0  0
  -26.3880  -31.7740   25.1480 C   0  0  1  0  0  0  0  0  0  0  0  0
  -25.2830  -31.5340   26.2030 C   0  0  0  0  0  1  0  0  0  0  0  0
  -26.9840  -30.3980   24.7650 C   0  0  0  0  0  1  0  0  0  0  0  0
  -27.5270  -32.5770   25.8210 C   0  0  0  0  0  1  0  0  0  0  0  0
  -25.5660  -33.9390   24.1830 N   0  0  0  0  0  0  0  0  0  0  0  0
  -25.9080  -34.9870   23.4220 C   0  0  0  0  0  0  0  0  0  0  0  0
  -26.5940  -34.8780   22.4020 O   0  0  0  0  0  0  0  0  0  0  0  0
  -24.9630  -34.1000   24.9760 H   0  0  0  0  0  0  0  0  0  0  0  0
  -24.1850  -36.7730   23.0180 C   0  0  0  0  0  1  0  0  0  0  0  0
  -25.4080  -36.3770   23.8620 C   0  0  0  0  0  3  0  0  0  0  0  0
  -27.5200  -37.2650   24.7420 C   0  0  0  0  0  1  0  0  0  0  0  0
  -26.4430  -37.4290   23.7710 N   0  0  0  0  0  0  0  0  0  0  0  0
  -26.0320  -38.3500   23.9060 H   0  0  0  0  0  0  0  0  0  0  0  0
  1  3  2  0
  2 54  1  0
  2  1  1  0
  3  6  1  0
  3  5  1  0
  4  2  1  0
  7  9  1  0
  8 12  1  0
  9 12  2  0
  9  1  1  0
 10  8  2  0
 11  7  2  0
 11 10  1  0
 12 14  1  0
 13 11  1  0
 15 23  1  0
 16 21  1  0
 17 18  1  0
 17 16  1  0
 19 18  1  0
 19 28  1  0
 19 20  1  0
 21 15  1  0
 21 20  1  0
 22 15  2  0
 23 10  1  0
 23 24  1  0
 25 26  2  0
 26 45  1  0
 27 26  1  0
 27 30  1  0
 28 29  1  0
 28 25  1  0
 29 27  2  0
 30 31  1  0
 31 32  2  0
 33 36  1  0
 33 32  1  0
 34 33  2  0
 35 34  1  0
 35 30  2  0
 36 37  1  0
 37 38  1  0
 38 39  2  0
 40 39  1  0
 40 44  1  0
 41 40  2  0
 42 37  2  0
 42 41  1  0
 43 42  1  0
 45 46  1  0
 46 49  1  0
 46 48  1  0
 47 45  2  0
 50 25  1  0
 50 51  1  0
 52 50  1  0
 54 53  1  0
 55 54  1  0
 55 57  1  0
 56 55  2  0
 58 60  1  0
 58 57  1  0
 59 70  2  0
 60 65  1  0
 61 69  1  0
 61 71  1  0
 62 68  1  0
 62 64  1  0
 63 69  1  0
 64 63  1  0
 65 64  2  0
 66 67  1  0
 66 60  2  0
 67 62  2  0
 68 61  1  0
 69 59  1  0
 71 73  2  0
 72 71  1  0
 74 72  1  0
 75 84  2  0
 75 80  1  0
 76 72  1  0
 76 80  1  0
 77 76  1  0
 78 79  1  0
 78 77  1  0
 79 75  1  0
 80 81  2  0
 81 82  1  0
 83 82  2  0
 84 83  1  0
 85 59  1  0
 85 90  1  0
 85 86  1  0
 86 89  1  1
 86 87  1  0
 88 86  1  0
 90 93  1  0
 91 95  1  0
 91 90  1  0
 92 91  2  0
 95 94  1  0
 97 95  1  0
 97 98  1  0
 97 96  1  0
M  ISO  4  15 100  23 100  57 101  58 101
M  END
>  <TORSDO>  (6) 
F 20

>  <SCORE>  (6) 
-14.432

>  <name>  (6) 
5

>  <ligand_id>  (6) 
5

>  <original_smiles>  (6) 
[H]c1c([H])c([H])c2c(c1[H])C([H])([H])C([H])([H])C([H])([H])C2([H])N([H])C(=O)C1([H])N(C(=O)C([H])(N([H])C(=O)C([H])(N([H])C([H])([H])[H])C([H])([H])[H])C(C([H])([H])[H])(C([H])([H])[H])C([H])([H])[H])C([H])([H])c2c([H])c(OC([H])([H])C(=O)C([H])(N([H])C(c3c([H])c(F)c(N([H])C(=O)N4C([H])([H])C([H])([H])C([H])([H])C([H])(n5nc(-c6c([H])c([H])c(Oc7c([H])c([H])c(F)c([H])c7F)c([H])c6[H])c(C(=O)N([H])[H])c5N([H])[H])C4([H])[H])c([H])c3F)=[N+]([H])[H])C([H])([H])[H])c([H])c([H])c2C1([H])[H]

>  <smiles>  (6) 
[H]c1c([H])c([H])c2c(c1[H])C([H])([H])C([H])([H])C([H])([H])C2([H])N([H])C(=O)C1([H])N(C(=O)C([H])(N([H])C(=O)C([H])(N([H])C([H])([H])[H])C([H])([H])[H])C(C([H])([H])[H])(C([H])([H])[H])C([H])([H])[H])C([H])([H])c2c([H])c(OC([H])([H])C(=O)C([H])(N([H])C(c3c([H])c(F)c(N([H])C(=O)N4C([H])([H])C([H])([H])C([H])([H])C([H])(n5nc(-c6c([H])c([H])c(Oc7c([H])c([H])c(F)c([H])c7F)c([H])c6[H])c(C(=O)N([H])[H])c5N([H])[H])C4([H])[H])c([H])c3F)=[N+]([H])[H])C([H])([H])[H])c([H])c([H])c2C1([H])[H]

$$$$
6:0:0
     RDKit          3D

 92101  0  0  1  0  0  0  0  0999 V2000
  -29.9230  -22.6840   20.0480 C   0  0  0  0  0  0  0  0  0  0  0  0
  -27.9970  -22.0030   19.8710 C   0  0  0  0  0  2  0  0  0  0  0  0
  -28.6560  -23.3540   19.3230 C   0  0  2  0  0  0  0  0  0  0  0  0
  -28.8610  -23.3900   17.7310 C   0  0  0  0  0  1  0  0  0  0  0  0
  -29.3190  -21.3880   20.1130 N   0  0  0  0  0  0  0  0  0  0  0  0
  -30.9960  -23.0640   20.4850 O   0  0  0  0  0  0  0  0  0  0  0  0
  -30.1100  -18.5880   17.6200 C   0  0  0  0  0  3  0  0  0  0  0  0
  -29.9360  -19.8340   18.2560 C   0  0  0  0  0  3  0  0  0  0  0  0
  -30.1210  -17.3790   18.3400 C   0  0  0  0  0  3  0  0  0  0  0  0
  -29.7110  -18.6990   20.3390 C   0  0  0  0  0  3  0  0  0  0  0  0
  -29.6380  -19.9920   19.6280 C   0  0  0  0  0  0  0  0  0  0  0  0
  -29.9850  -17.3680   19.7440 C   0  0  0  0  0  0  0  0  0  0  0  0
  -30.7150  -14.8510   19.9980 C   0  0  0  0  0  0  0  0  0  0  0  0
  -30.4350  -12.5750   18.9610 C   0  0  0  0  0  2  0  0  0  0  0  0
  -29.4560  -12.6780   17.7730 C   0  0  0  0  0  2  0  0  0  0  0  0
  -28.0010  -12.5080   18.2580 C   0  0  0  0  0  2  0  0  0  0  0  0
  -27.6910  -13.3460   19.5320 C   0  0  0  0  0  3  0  0  0  0  0  0
  -28.8030  -13.2210   20.5880 C   0  0  0  0  0  2  0  0  0  0  0  0
  -30.0620  -13.6240   19.9450 N   0  0  0  0  0  0  0  0  0  0  0  0
  -31.8570  -14.9160   19.5220 O   0  0  0  0  0  0  0  0  0  0  0  0
  -29.8710  -16.0790   21.8980 C   0  0  0  0  0  1  0  0  0  0  0  0
  -30.0770  -16.0320   20.4530 N   0  0  0  0  0  0  0  0  0  0  0  0
  -25.3440  -13.9230   20.3880 C   0  0  0  0  0  0  0  0  0  0  0  0
  -24.2960  -13.1440   20.7930 C   0  0  0  0  0  0  0  0  0  0  0  0
  -24.7500  -11.7930   20.7220 C   0  0  0  0  0  0  0  0  0  0  0  0
  -26.3710  -13.0450   20.0830 N   0  0  0  0  0  0  0  0  0  0  0  0
  -26.0220  -11.7590   20.3440 N   0  0  0  0  0  0  0  0  0  0  0  0
  -24.0230  -10.5330   20.9290 C   0  0  0  0  0  0  0  0  0  0  0  0
  -24.4720   -9.5680   21.8560 C   0  0  0  0  0  3  0  0  0  0  0  0
  -23.7470   -8.3720   22.0550 C   0  0  0  0  0  3  0  0  0  0  0  0
  -22.5590   -8.1320   21.3230 C   0  0  0  0  0  0  0  0  0  0  0  0
  -22.1320   -9.0850   20.3810 C   0  0  0  0  0  3  0  0  0  0  0  0
  -22.8570  -10.2720   20.1820 C   0  0  0  0  0  3  0  0  0  0  0  0
  -21.8090   -6.9860   21.4260 O   0  0  0  0  0  0  0  0  0  0  0  0
  -21.7470   -6.2670   22.5910 C   0  0  0  0  0  0  0  0  0  0  0  0
  -21.3060   -6.8470   23.7990 C   0  0  0  0  0  3  0  0  0  0  0  0
  -21.1930   -6.0560   24.9590 C   0  0  0  0  0  3  0  0  0  0  0  0
  -21.5080   -4.6850   24.9120 C   0  0  0  0  0  0  0  0  0  0  0  0
  -21.9450   -4.1040   23.7080 C   0  0  0  0  0  3  0  0  0  0  0  0
  -22.0590   -4.8930   22.5490 C   0  0  0  0  0  0  0  0  0  0  0  0
  -22.4600   -4.3250   21.3860 F   0  0  0  0  0  0  0  0  0  0  0  0
  -21.3900   -3.9220   26.0230 F   0  0  0  0  0  0  0  0  0  0  0  0
  -22.9140  -13.6260   21.1410 C   0  0  0  0  0  0  0  0  0  0  0  0
  -22.2270  -12.9230   22.0330 N   0  0  0  0  0  0  0  0  0  0  0  0
  -22.4550  -14.6590   20.6560 O   0  0  0  0  0  0  0  0  0  0  0  0
  -22.6170  -12.0950   22.4580 H   0  0  0  0  0  0  0  0  0  0  0  0
  -21.2950  -13.2240   22.2940 H   0  0  0  0  0  0  0  0  0  0  0  0
  -25.5120  -15.2960   20.2380 N   0  0  0  0  0  0  0  0  0  0  0  0
  -24.7670  -15.9650   20.4060 H   0  0  0  0  0  0  0  0  0  0  0  0
  -26.3690  -15.7300   19.9180 H   0  0  0  0  0  0  0  0  0  0  0  0
  -27.9340  -24.7840   19.8310 C   0  0  0  0  0  2  0  0  0  0  0  0
  -28.2830  -26.2670   20.1110 O   0  0  0  0  0  0  0  0  0  0  0  0
  -24.6200  -31.9080   23.2300 C   0  0  0  0  0  0  0  0  0  0  0  0
  -27.2090  -27.2310   20.1440 C   0  0  0  0  0  0  0  0  0  0  0  0
  -23.4150  -30.4980   21.6160 C   0  0  0  0  0  3  0  0  0  0  0  0
  -24.8570  -28.9360   20.1990 C   0  0  0  0  0  0  0  0  0  0  0  0
  -25.9590  -30.7960   21.4020 C   0  0  0  0  0  2  0  0  0  0  0  0
  -26.0470  -29.3910   20.7770 C   0  0  0  0  0  0  0  0  0  0  0  0
  -27.2190  -28.5560   20.7390 C   0  0  0  0  0  3  0  0  0  0  0  0
  -25.9630  -26.8710   19.5600 C   0  0  0  0  0  3  0  0  0  0  0  0
  -24.8220  -27.6830   19.5870 C   0  0  0  0  0  3  0  0  0  0  0  0
  -23.6150  -29.8140   20.2460 C   0  0  0  0  0  2  0  0  0  0  0  0
  -24.6890  -31.0810   22.1440 N   0  0  0  0  0  0  0  0  0  0  0  0
  -23.5360  -32.1890   23.7630 O   0  0  0  0  0  0  0  0  0  0  0  0
  -22.7450  -29.4880   22.5840 C   0  0  0  0  0  0  0  0  0  0  0  0
  -21.4210  -29.3030   22.4520 N   0  0  0  0  0  0  0  0  0  0  0  0
  -23.4220  -28.8790   23.4160 O   0  0  0  0  0  0  0  0  0  0  0  0
  -20.9420  -29.8320   21.7360 H   0  0  0  0  0  0  0  0  0  0  0  0
  -18.0480  -28.0950   22.9550 C   0  0  0  0  0  0  0  0  0  0  0  0
  -20.6030  -28.3730   23.2290 C   0  0  0  0  0  3  0  0  0  0  0  0
  -20.7210  -26.9390   22.6640 C   0  0  0  0  0  2  0  0  0  0  0  0
  -19.6200  -26.5970   21.6520 C   0  0  0  0  0  2  0  0  0  0  0  0
  -18.2350  -26.7430   22.2900 C   0  0  0  0  0  2  0  0  0  0  0  0
  -19.1610  -28.8710   23.3820 C   0  0  0  0  0  0  0  0  0  0  0  0
  -18.9310  -30.1350   23.9680 C   0  0  0  0  0  3  0  0  0  0  0  0
  -17.6230  -30.6250   24.1310 C   0  0  0  0  0  3  0  0  0  0  0  0
  -16.5240  -29.8490   23.7220 C   0  0  0  0  0  3  0  0  0  0  0  0
  -16.7380  -28.5870   23.1400 C   0  0  0  0  0  3  0  0  0  0  0  0
  -25.9000  -32.5490   23.8450 C   0  0  0  0  0  3  0  0  0  0  0  0
  -25.5920  -33.9420   24.1820 N   0  0  0  0  0  0  0  0  0  0  0  0
  -25.9060  -34.9950   23.4150 C   0  0  0  0  0  0  0  0  0  0  0  0
  -26.5660  -34.8840   22.3750 O   0  0  0  0  0  0  0  0  0  0  0  0
  -25.0330  -34.1010   25.0120 H   0  0  0  0  0  0  0  0  0  0  0  0
  -24.1790  -36.7790   23.0380 C   0  0  0  0  0  1  0  0  0  0  0  0
  -25.4140  -36.3860   23.8630 C   0  0  0  0  0  3  0  0  0  0  0  0
  -27.5440  -37.2730   24.7060 C   0  0  0  0  0  1  0  0  0  0  0  0
  -26.4520  -37.4360   23.7510 N   0  0  0  0  0  0  0  0  0  0  0  0
  -26.0450  -38.3550   23.8860 H   0  0  0  0  0  0  0  0  0  0  0  0
  -26.4100  -31.7780   25.1270 C   0  0  1  0  0  0  0  0  0  0  0  0
  -25.3090  -31.5550   26.1830 C   0  0  0  0  0  1  0  0  0  0  0  0
  -26.9890  -30.4040   24.7230 C   0  0  0  0  0  1  0  0  0  0  0  0
  -27.5680  -32.5620   25.7920 C   0  0  0  0  0  1  0  0  0  0  0  0
  1  5  1  0
  1  6  2  0
  2  5  1  0
  3  4  1  6
  3 51  1  0
  3  2  1  0
  3  1  1  0
  7  8  2  0
  7  9  1  0
  8 11  1  0
  9 12  2  0
 11  5  1  0
 11 10  2  0
 12 10  1  0
 12 22  1  0
 13 22  1  0
 14 19  1  0
 15 16  1  0
 15 14  1  0
 17 16  1  0
 17 26  1  0
 17 18  1  0
 19 13  1  0
 19 18  1  0
 20 13  2  0
 22 21  1  0
 23 24  2  0
 24 43  1  0
 25 24  1  0
 25 28  1  0
 26 27  1  0
 26 23  1  0
 27 25  2  0
 28 29  1  0
 29 30  2  0
 31 34  1  0
 31 30  1  0
 32 31  2  0
 33 32  1  0
 33 28  2  0
 34 35  1  0
 35 36  1  0
 36 37  2  0
 38 37  1  0
 38 42  1  0
 39 38  2  0
 40 35  2  0
 40 39  1  0
 41 40  1  0
 43 44  1  0
 44 47  1  0
 44 46  1  0
 45 43  2  0
 48 23  1  0
 48 49  1  0
 50 48  1  0
 51 52  1  0
 52 54  1  0
 53 64  2  0
 54 59  1  0
 55 63  1  0
 55 65  1  0
 56 62  1  0
 56 58  1  0
 57 63  1  0
 58 57  1  0
 59 58  2  0
 60 61  1  0
 60 54  2  0
 61 56  2  0
 62 55  1  0
 63 53  1  0
 65 67  2  0
 66 65  1  0
 68 66  1  0
 69 78  2  0
 69 74  1  0
 70 66  1  0
 70 74  1  0
 71 70  1  0
 72 73  1  0
 72 71  1  0
 73 69  1  0
 74 75  2  0
 75 76  1  0
 77 76  2  0
 78 77  1  0
 79 53  1  0
 79 80  1  0
 79 89  1  0
 80 83  1  0
 81 85  1  0
 81 80  1  0
 82 81  2  0
 85 84  1  0
 87 85  1  0
 87 88  1  0
 87 86  1  0
 89 92  1  1
 89 90  1  0
 91 89  1  0
M  ISO  4  13 100  22 100  51 101  52 101
M  END
>  <TORSDO>  (7) 
F 18

>  <SCORE>  (7) 
-14.378

>  <name>  (7) 
6

>  <ligand_id>  (7) 
6

>  <original_smiles>  (7) 
[H]c1c([H])c(N(C(=O)N2C([H])([H])C([H])([H])C([H])([H])C([H])(n3nc(-c4c([H])c([H])c(Oc5c([H])c([H])c(F)c([H])c5F)c([H])c4[H])c(C(=O)N([H])[H])c3N([H])[H])C2([H])[H])C([H])([H])[H])c([H])c(N2C(=O)C(C([H])([H])[H])(C([H])([H])Oc3c([H])c([H])c4c(c3[H])C([H])([H])N(C(=O)C([H])(N([H])C(=O)C([H])(N([H])C([H])([H])[H])C([H])([H])[H])C(C([H])([H])[H])(C([H])([H])[H])C([H])([H])[H])C([H])(C(=O)N([H])C3([H])c5c([H])c([H])c([H])c([H])c5C([H])([H])C([H])([H])C3([H])[H])C4([H])[H])C2([H])[H])c1[H]

>  <smiles>  (7) 
[H]c1c([H])c(N(C(=O)N2C([H])([H])C([H])([H])C([H])([H])C([H])(n3nc(-c4c([H])c([H])c(Oc5c([H])c([H])c(F)c([H])c5F)c([H])c4[H])c(C(=O)N([H])[H])c3N([H])[H])C2([H])[H])C([H])([H])[H])c([H])c(N2C(=O)C(C([H])([H])[H])(C([H])([H])Oc3c([H])c([H])c4c(c3[H])C([H])([H])N(C(=O)C([H])(N([H])C(=O)C([H])(N([H])C([H])([H])[H])C([H])([H])[H])C(C([H])([H])[H])(C([H])([H])[H])C([H])([H])[H])C([H])(C(=O)N([H])C3([H])c5c([H])c([H])c([H])c([H])c5C([H])([H])C([H])([H])C3([H])[H])C4([H])[H])C2([H])[H])c1[H]

$$$$
7:0:0
     RDKit          3D

 99109  0  0  1  0  0  0  0  0999 V2000
  -30.5920  -20.1090   22.1950 C   0  0  0  0  0  3  0  0  0  0  0  0
  -30.7220  -18.6740   22.1170 C   0  0  0  0  0  3  0  0  0  0  0  0
  -31.2700  -20.3030   19.9690 C   0  0  0  0  0  3  0  0  0  0  0  0
  -31.3520  -18.8680   19.8270 C   0  0  0  0  0  0  0  0  0  0  0  0
  -30.8420  -21.0180   21.1180 C   0  0  0  0  0  0  0  0  0  0  0  0
  -31.0930  -17.9740   20.9330 C   0  0  0  0  0  0  0  0  0  0  0  0
  -31.7750  -15.4030   20.5940 C   0  0  0  0  0  0  0  0  0  0  0  0
  -31.6050  -13.2340   19.3460 C   0  0  0  0  0  2  0  0  0  0  0  0
  -30.6910  -13.4520   18.1220 C   0  0  0  0  0  2  0  0  0  0  0  0
  -29.2010  -13.2730   18.4950 C   0  0  0  0  0  2  0  0  0  0  0  0
  -28.8130  -14.0110   19.8030 C   0  0  0  0  0  3  0  0  0  0  0  0
  -29.8540  -13.7720   20.9200 C   0  0  0  0  0  2  0  0  0  0  0  0
  -31.1640  -14.1810   20.3950 N   0  0  0  0  0  0  0  0  0  0  0  0
  -32.9790  -15.5360   20.3560 O   0  0  0  0  0  0  0  0  0  0  0  0
  -30.9290  -16.4890   20.8210 N   0  0  0  0  0  0  0  0  0  0  0  0
  -29.9670  -16.1950   20.8740 H   0  0  0  0  0  0  0  0  0  0  0  0
  -26.3860  -14.5460   20.4460 C   0  0  0  0  0  0  0  0  0  0  0  0
  -25.3230  -13.7500   20.7670 C   0  0  0  0  0  0  0  0  0  0  0  0
  -25.8180  -12.4090   20.7490 C   0  0  0  0  0  0  0  0  0  0  0  0
  -27.4570  -13.6930   20.2400 N   0  0  0  0  0  0  0  0  0  0  0  0
  -27.1200  -12.4020   20.4900 N   0  0  0  0  0  0  0  0  0  0  0  0
  -25.1130  -11.1330   20.9060 C   0  0  0  0  0  0  0  0  0  0  0  0
  -25.4250  -10.2410   21.9550 C   0  0  0  0  0  3  0  0  0  0  0  0
  -24.7170   -9.0290   22.0950 C   0  0  0  0  0  3  0  0  0  0  0  0
  -23.6850   -8.6990   21.1840 C   0  0  0  0  0  0  0  0  0  0  0  0
  -23.3970   -9.5820   20.1290 C   0  0  0  0  0  3  0  0  0  0  0  0
  -24.1050  -10.7850   19.9860 C   0  0  0  0  0  3  0  0  0  0  0  0
  -22.9610   -7.5330   21.2240 O   0  0  0  0  0  0  0  0  0  0  0  0
  -22.4990   -7.0160   22.4070 C   0  0  0  0  0  0  0  0  0  0  0  0
  -21.7950   -7.8090   23.3400 C   0  0  0  0  0  3  0  0  0  0  0  0
  -21.2800   -7.2220   24.5140 C   0  0  0  0  0  3  0  0  0  0  0  0
  -21.4520   -5.8450   24.7480 C   0  0  0  0  0  0  0  0  0  0  0  0
  -22.1420   -5.0530   23.8140 C   0  0  0  0  0  3  0  0  0  0  0  0
  -22.6630   -5.6380   22.6460 C   0  0  0  0  0  0  0  0  0  0  0  0
  -23.3120   -4.8660   21.7410 F   0  0  0  0  0  0  0  0  0  0  0  0
  -20.9490   -5.2780   25.8690 F   0  0  0  0  0  0  0  0  0  0  0  0
  -23.9060  -14.1980   20.9770 C   0  0  0  0  0  0  0  0  0  0  0  0
  -23.1730  -13.5320   21.8630 N   0  0  0  0  0  0  0  0  0  0  0  0
  -23.4530  -15.1760   20.3850 O   0  0  0  0  0  0  0  0  0  0  0  0
  -23.5490  -12.7420   22.3650 H   0  0  0  0  0  0  0  0  0  0  0  0
  -22.2220  -13.8210   22.0480 H   0  0  0  0  0  0  0  0  0  0  0  0
  -26.5160  -15.9190   20.2880 N   0  0  0  0  0  0  0  0  0  0  0  0
  -25.7040  -16.5230   20.3470 H   0  0  0  0  0  0  0  0  0  0  0  0
  -27.2950  -16.3800   19.8300 H   0  0  0  0  0  0  0  0  0  0  0  0
  -31.8040  -16.8590   15.7880 C   0  0  0  0  0  2  0  0  0  0  0  0
  -32.8210  -17.5860   18.0240 C   0  0  0  0  0  2  0  0  0  0  0  0
  -30.4940  -17.6300   16.0140 C   0  0  0  0  0  2  0  0  0  0  0  0
  -31.5850  -18.4360   18.3760 C   0  0  0  0  0  3  0  0  0  0  0  0
  -33.0580  -17.4520   16.4860 C   0  0  2  0  0  0  0  0  0  0  0  0
  -33.4620  -18.8070   15.8560 C   0  0  0  0  0  1  0  0  0  0  0  0
  -34.2260  -16.4800   16.2180 C   0  0  0  0  0  1  0  0  0  0  0  0
  -30.0610  -17.6760   17.7690 S   0  0  0  0  0  0  0  0  0  0  0  0
  -29.8800  -24.4130   21.3690 C   0  0  0  0  0  0  0  0  0  0  0  0
  -30.4930  -23.6210   20.2990 C   0  0  0  0  0  0  0  0  0  0  0  0
  -29.4310  -25.7190   21.5780 C   0  0  0  0  0  3  0  0  0  0  0  0
  -29.8740  -23.1350   22.2430 C   0  0  0  0  0  2  0  0  0  0  0  0
  -30.6740  -22.5000   21.1740 N   0  0  0  0  0  0  0  0  0  0  0  0
  -30.6390  -23.8500   19.1180 O   0  0  0  0  0  0  0  0  0  0  0  0
  -29.4790  -26.9240   20.8160 O   0  0  0  0  0  0  0  0  0  0  0  0
  -24.9440  -31.9450   23.5250 C   0  0  0  0  0  0  0  0  0  0  0  0
  -28.3010  -27.6990   20.7210 C   0  0  0  0  0  0  0  0  0  0  0  0
  -24.0410  -30.4140   21.8120 C   0  0  0  0  0  3  0  0  0  0  0  0
  -25.7730  -29.0440   20.5100 C   0  0  0  0  0  0  0  0  0  0  0  0
  -26.5360  -31.0250   21.8190 C   0  0  0  0  0  2  0  0  0  0  0  0
  -26.8310  -29.6630   21.1900 C   0  0  0  0  0  0  0  0  0  0  0  0
  -28.1010  -29.0040   21.2860 C   0  0  0  0  0  3  0  0  0  0  0  0
  -27.2170  -27.1400   20.0150 C   0  0  0  0  0  3  0  0  0  0  0  0
  -25.9700  -27.7900   19.9110 C   0  0  0  0  0  3  0  0  0  0  0  0
  -24.4410  -29.7700   20.4580 C   0  0  0  0  0  2  0  0  0  0  0  0
  -25.1860  -31.1480   22.4430 N   0  0  0  0  0  0  0  0  0  0  0  0
  -23.8000  -32.0900   23.9780 O   0  0  0  0  0  0  0  0  0  0  0  0
  -23.4350  -29.3260   22.7290 C   0  0  0  0  0  0  0  0  0  0  0  0
  -22.2240  -28.8510   22.3910 N   0  0  0  0  0  0  0  0  0  0  0  0
  -24.0600  -28.9080   23.7070 O   0  0  0  0  0  0  0  0  0  0  0  0
  -21.7680  -29.2470   21.5820 H   0  0  0  0  0  0  0  0  0  0  0  0
  -19.1230  -26.9850   22.4360 C   0  0  0  0  0  0  0  0  0  0  0  0
  -21.4880  -27.7970   23.0950 C   0  0  0  0  0  3  0  0  0  0  0  0
  -21.9760  -26.3950   22.6630 C   0  0  0  0  0  2  0  0  0  0  0  0
  -21.1600  -25.8000   21.5110 C   0  0  0  0  0  2  0  0  0  0  0  0
  -19.6860  -25.6760   21.9070 C   0  0  0  0  0  2  0  0  0  0  0  0
  -19.9700  -27.9870   22.9780 C   0  0  0  0  0  0  0  0  0  0  0  0
  -19.3980  -29.1990   23.4230 C   0  0  0  0  0  3  0  0  0  0  0  0
  -18.0100  -29.4160   23.3350 C   0  0  0  0  0  3  0  0  0  0  0  0
  -17.1750  -28.4130   22.8110 C   0  0  0  0  0  3  0  0  0  0  0  0
  -17.7310  -27.2010   22.3650 C   0  0  0  0  0  3  0  0  0  0  0  0
  -26.0930  -32.7300   24.2320 C   0  0  0  0  0  3  0  0  0  0  0  0
  -25.6240  -34.1060   24.4540 N   0  0  0  0  0  0  0  0  0  0  0  0
  -25.8880  -35.1410   23.6450 C   0  0  0  0  0  0  0  0  0  0  0  0
  -26.6210  -35.0480   22.6570 O   0  0  0  0  0  0  0  0  0  0  0  0
  -24.9760  -34.2450   25.2170 H   0  0  0  0  0  0  0  0  0  0  0  0
  -23.9840  -36.6970   23.1140 C   0  0  0  0  0  1  0  0  0  0  0  0
  -25.2340  -36.4940   23.9860 C   0  0  0  0  0  3  0  0  0  0  0  0
  -27.2510  -37.6510   24.7780 C   0  0  0  0  0  1  0  0  0  0  0  0
  -26.1460  -37.6480   23.8230 N   0  0  0  0  0  0  0  0  0  0  0  0
  -25.6380  -38.5230   23.9250 H   0  0  0  0  0  0  0  0  0  0  0  0
  -26.5480  -32.0720   25.5920 C   0  0  1  0  0  0  0  0  0  0  0  0
  -25.3750  -31.6730   26.5160 C   0  0  0  0  0  1  0  0  0  0  0  0
  -27.3940  -30.8030   25.3370 C   0  0  0  0  0  1  0  0  0  0  0  0
  -27.4550  -33.0520   26.3720 C   0  0  0  0  0  1  0  0  0  0  0  0
  2  1  1  0
  3  5  1  0
  4  3  2  0
  4  6  1  0
  5 57  1  0
  5  1  2  0
  6  2  2  0
  7 15  1  0
  8 13  1  0
  9 10  1  0
  9  8  1  0
 11 10  1  0
 11 20  1  0
 11 12  1  0
 13  7  1  0
 13 12  1  0
 14  7  2  0
 15 16  1  0
 15  6  1  0
 17 18  2  0
 18 37  1  0
 19 18  1  0
 19 22  1  0
 20 17  1  0
 20 21  1  0
 21 19  2  0
 22 23  1  0
 23 24  2  0
 25 28  1  0
 25 24  1  0
 26 25  2  0
 27 26  1  0
 27 22  2  0
 28 29  1  0
 29 34  2  0
 29 30  1  0
 30 31  2  0
 31 32  1  0
 32 36  1  0
 33 32  2  0
 34 33  1  0
 35 34  1  0
 37 38  1  0
 38 41  1  0
 38 40  1  0
 39 37  2  0
 42 43  1  0
 42 17  1  0
 44 42  1  0
 45 47  1  0
 45 49  1  0
 46 48  1  0
 47 52  1  0
 48  4  1  0
 49 46  1  0
 49 50  1  6
 51 49  1  0
 52 48  1  0
 53 55  2  0
 53 56  1  0
 54 57  1  0
 54 53  1  0
 57 56  1  0
 58 54  2  0
 59 55  1  0
 60 71  2  0
 61 59  1  0
 61 66  1  0
 62 70  1  0
 62 72  1  0
 63 65  1  0
 64 70  1  0
 65 66  2  0
 65 64  1  0
 67 61  2  0
 68 67  1  0
 68 63  2  0
 69 63  1  0
 69 62  1  0
 70 60  1  0
 72 74  2  0
 73 72  1  0
 75 73  1  0
 76 81  1  0
 77 73  1  0
 78 77  1  0
 79 80  1  0
 79 78  1  0
 80 76  1  0
 81 77  1  0
 81 82  2  0
 83 82  1  0
 84 83  2  0
 85 76  2  0
 85 84  1  0
 86 60  1  0
 86 87  1  0
 86 96  1  0
 87 90  1  0
 88 92  1  0
 88 87  1  0
 89 88  2  0
 92 91  1  0
 94 95  1  0
 94 92  1  0
 94 93  1  0
 96 99  1  1
 96 97  1  0
 98 96  1  0
M  ISO  4   7 100  15 100  55 101  59 101
M  END
>  <TORSDO>  (8) 
F 18

>  <SCORE>  (8) 
-10.843

>  <name>  (8) 
7

>  <ligand_id>  (8) 
7

>  <original_smiles>  (8) 
[H]C(Oc1c([H])c([H])c2c(c1[H])C([H])([H])N(C(=O)C([H])(N([H])C(=O)C([H])(N([H])C([H])([H])[H])C([H])([H])[H])C(C([H])([H])[H])(C([H])([H])[H])C([H])([H])[H])C([H])(C(=O)N([H])C1([H])c3c([H])c([H])c([H])c([H])c3C([H])([H])C([H])([H])C1([H])[H])C2([H])[H])=C1C(=O)N(c2c([H])c([H])c(N([H])C(=O)N3C([H])([H])C([H])([H])C([H])([H])C([H])(n4nc(-c5c([H])c([H])c(Oc6c([H])c([H])c(F)c([H])c6F)c([H])c5[H])c(C(=O)N([H])[H])c4N([H])[H])C3([H])[H])c(C3([H])SC([H])([H])C([H])([H])C(C([H])([H])[H])(C([H])([H])[H])C3([H])[H])c2[H])C1([H])[H]

>  <smiles>  (8) 
[H]C(Oc1c([H])c([H])c2c(c1[H])C([H])([H])N(C(=O)C([H])(N([H])C(=O)C([H])(N([H])C([H])([H])[H])C([H])([H])[H])C(C([H])([H])[H])(C([H])([H])[H])C([H])([H])[H])C([H])(C(=O)N([H])C1([H])c3c([H])c([H])c([H])c([H])c3C([H])([H])C([H])([H])C1([H])[H])C2([H])[H])=C1C(=O)N(c2c([H])c([H])c(N([H])C(=O)N3C([H])([H])C([H])([H])C([H])([H])C([H])(n4nc(-c5c([H])c([H])c(Oc6c([H])c([H])c(F)c([H])c6F)c([H])c5[H])c(C(=O)N([H])[H])c4N([H])[H])C3([H])[H])c(C3([H])SC([H])([H])C([H])([H])C(C([H])([H])[H])(C([H])([H])[H])C3([H])[H])c2[H])C1([H])[H]

$$$$
8:0:0
     RDKit          3D

 97106  0  0  1  0  0  0  0  0999 V2000
  -28.7890  -21.4180   21.1470 C   0  0  0  0  0  0  0  0  0  0  0  0
  -28.0870  -22.8100   21.0980 C   0  0  0  0  0  2  0  0  0  0  0  0
  -30.1220  -23.5660   19.8420 C   0  0  0  0  0  2  0  0  0  0  0  0
  -29.8660  -22.1850   19.1470 C   0  0  0  0  0  2  0  0  0  0  0  0
  -28.9700  -24.0710   20.7680 C   0  0  2  0  0  0  0  0  0  0  0  0
  -29.5570  -24.6270   22.0810 C   0  0  0  0  0  1  0  0  0  0  0  0
  -29.5390  -21.0580   20.0680 N   0  0  0  0  0  0  0  0  0  0  0  0
  -28.6140  -20.6990   22.1360 O   0  0  0  0  0  0  0  0  0  0  0  0
  -29.8910  -19.4300   18.2520 C   0  0  0  0  0  3  0  0  0  0  0  0
  -29.9550  -18.5080   20.5010 C   0  0  0  0  0  3  0  0  0  0  0  0
  -30.3090  -17.0450   18.5740 C   0  0  0  0  0  3  0  0  0  0  0  0
  -29.8040  -19.6660   19.6470 C   0  0  0  0  0  0  0  0  0  0  0  0
  -30.1290  -18.1490   17.7250 C   0  0  0  0  0  0  0  0  0  0  0  0
  -30.2310  -17.1900   19.9800 C   0  0  0  0  0  0  0  0  0  0  0  0
  -31.0860  -14.8920   20.5330 C   0  0  0  0  0  0  0  0  0  0  0  0
  -30.8840  -12.6560   19.5090 C   0  0  0  0  0  2  0  0  0  0  0  0
  -30.0000  -12.7970   18.2500 C   0  0  0  0  0  2  0  0  0  0  0  0
  -28.5070  -12.6760   18.6140 C   0  0  0  0  0  2  0  0  0  0  0  0
  -28.1080  -13.5490   19.8350 C   0  0  0  0  0  3  0  0  0  0  0  0
  -29.1140  -13.3820   20.9980 C   0  0  0  0  0  2  0  0  0  0  0  0
  -30.4530  -13.6840   20.4760 N   0  0  0  0  0  0  0  0  0  0  0  0
  -32.2680  -15.0180   20.1920 O   0  0  0  0  0  0  0  0  0  0  0  0
  -30.3170  -15.9890   20.8010 N   0  0  0  0  0  0  0  0  0  0  0  0
  -29.4840  -15.7880   21.3350 H   0  0  0  0  0  0  0  0  0  0  0  0
  -25.6940  -14.1850   20.4470 C   0  0  0  0  0  0  0  0  0  0  0  0
  -24.6010  -13.4280   20.7720 C   0  0  0  0  0  0  0  0  0  0  0  0
  -25.0470  -12.0700   20.7670 C   0  0  0  0  0  0  0  0  0  0  0  0
  -26.7350  -13.2900   20.2590 N   0  0  0  0  0  0  0  0  0  0  0  0
  -26.3480  -12.0130   20.5130 N   0  0  0  0  0  0  0  0  0  0  0  0
  -24.3000  -10.8160   20.9310 C   0  0  0  0  0  0  0  0  0  0  0  0
  -24.6610   -9.8620   21.9090 C   0  0  0  0  0  3  0  0  0  0  0  0
  -23.9140   -8.6740   22.0610 C   0  0  0  0  0  3  0  0  0  0  0  0
  -22.7910   -8.4310   21.2320 C   0  0  0  0  0  0  0  0  0  0  0  0
  -22.4490   -9.3750   20.2470 C   0  0  0  0  0  3  0  0  0  0  0  0
  -23.1990  -10.5540   20.0940 C   0  0  0  0  0  3  0  0  0  0  0  0
  -22.0250   -7.2920   21.2890 O   0  0  0  0  0  0  0  0  0  0  0  0
  -21.8570   -6.5940   22.4580 C   0  0  0  0  0  0  0  0  0  0  0  0
  -21.3040   -7.1920   23.6110 C   0  0  0  0  0  3  0  0  0  0  0  0
  -21.0860   -6.4200   24.7700 C   0  0  0  0  0  3  0  0  0  0  0  0
  -21.4100   -5.0500   24.7740 C   0  0  0  0  0  0  0  0  0  0  0  0
  -21.9570   -4.4530   23.6250 C   0  0  0  0  0  3  0  0  0  0  0  0
  -22.1760   -5.2220   22.4700 C   0  0  0  0  0  0  0  0  0  0  0  0
  -22.6830   -4.6350   21.3580 F   0  0  0  0  0  0  0  0  0  0  0  0
  -21.1950   -4.3060   25.8840 F   0  0  0  0  0  0  0  0  0  0  0  0
  -23.1980  -13.9240   20.9820 C   0  0  0  0  0  0  0  0  0  0  0  0
  -22.4340  -13.2550   21.8380 N   0  0  0  0  0  0  0  0  0  0  0  0
  -22.7870  -14.9390   20.4230 O   0  0  0  0  0  0  0  0  0  0  0  0
  -22.7790  -12.4370   22.3180 H   0  0  0  0  0  0  0  0  0  0  0  0
  -21.4930  -13.5730   22.0240 H   0  0  0  0  0  0  0  0  0  0  0  0
  -25.8910  -15.5510   20.2710 N   0  0  0  0  0  0  0  0  0  0  0  0
  -25.1420  -16.2280   20.3650 H   0  0  0  0  0  0  0  0  0  0  0  0
  -26.7660  -15.9670   19.9810 H   0  0  0  0  0  0  0  0  0  0  0  0
  -30.1520  -17.9750   16.3460 N   0  0  0  0  0  0  0  0  0  0  0  0
  -29.6780  -18.6850   15.7960 H   0  0  0  0  0  0  0  0  0  0  0  0
  -29.9810  -17.0370   15.9970 H   0  0  0  0  0  0  0  0  0  0  0  0
  -28.0710  -25.2070   20.1010 C   0  0  0  0  0  2  0  0  0  0  0  0
  -28.3800  -26.6560   20.1650 O   0  0  0  0  0  0  0  0  0  0  0  0
  -24.6050  -31.9790   23.2320 C   0  0  0  0  0  0  0  0  0  0  0  0
  -27.2730  -27.5160   20.0970 C   0  0  0  0  0  0  0  0  0  0  0  0
  -23.4170  -30.5820   21.5820 C   0  0  0  0  0  3  0  0  0  0  0  0
  -24.8850  -29.0900   20.1210 C   0  0  0  0  0  0  0  0  0  0  0  0
  -25.9490  -30.9510   21.3880 C   0  0  0  0  0  2  0  0  0  0  0  0
  -26.0490  -29.5870   20.7200 C   0  0  0  0  0  0  0  0  0  0  0  0
  -27.2470  -28.8100   20.7030 C   0  0  0  0  0  3  0  0  0  0  0  0
  -26.0860  -27.0900   19.4500 C   0  0  0  0  0  3  0  0  0  0  0  0
  -24.9060  -27.8490   19.4740 C   0  0  0  0  0  3  0  0  0  0  0  0
  -23.6320  -29.9350   20.1900 C   0  0  0  0  0  2  0  0  0  0  0  0
  -24.6750  -31.1860   22.1240 N   0  0  0  0  0  0  0  0  0  0  0  0
  -23.5190  -32.2310   23.7760 O   0  0  0  0  0  0  0  0  0  0  0  0
  -22.7800  -29.5370   22.5290 C   0  0  0  0  0  0  0  0  0  0  0  0
  -21.4570  -29.3290   22.3970 N   0  0  0  0  0  0  0  0  0  0  0  0
  -23.4710  -28.9190   23.3410 O   0  0  0  0  0  0  0  0  0  0  0  0
  -20.9570  -29.8800   21.7140 H   0  0  0  0  0  0  0  0  0  0  0  0
  -18.1050  -28.0620   22.8890 C   0  0  0  0  0  0  0  0  0  0  0  0
  -20.6580  -28.3670   23.1590 C   0  0  0  0  0  3  0  0  0  0  0  0
  -20.7870  -26.9440   22.5680 C   0  0  0  0  0  2  0  0  0  0  0  0
  -19.6890  -26.6110   21.5520 C   0  0  0  0  0  2  0  0  0  0  0  0
  -18.3060  -26.7240   22.1990 C   0  0  0  0  0  2  0  0  0  0  0  0
  -19.2090  -28.8400   23.3260 C   0  0  0  0  0  0  0  0  0  0  0  0
  -18.9660  -30.0930   23.9300 C   0  0  0  0  0  3  0  0  0  0  0  0
  -17.6520  -30.5670   24.1030 C   0  0  0  0  0  3  0  0  0  0  0  0
  -16.5630  -29.7840   23.6840 C   0  0  0  0  0  3  0  0  0  0  0  0
  -16.7890  -28.5350   23.0810 C   0  0  0  0  0  3  0  0  0  0  0  0
  -25.8800  -32.6250   23.8540 C   0  0  0  0  0  3  0  0  0  0  0  0
  -26.4050  -31.8590   25.1310 C   0  0  1  0  0  0  0  0  0  0  0  0
  -25.3060  -31.5820   26.1830 C   0  0  0  0  0  1  0  0  0  0  0  0
  -27.0330  -30.5010   24.7370 C   0  0  0  0  0  1  0  0  0  0  0  0
  -27.5240  -32.6820   25.8110 C   0  0  0  0  0  1  0  0  0  0  0  0
  -25.5540  -34.0200   24.1850 N   0  0  0  0  0  0  0  0  0  0  0  0
  -25.8810  -35.0770   23.4310 C   0  0  0  0  0  0  0  0  0  0  0  0
  -26.5600  -34.9820   22.4050 O   0  0  0  0  0  0  0  0  0  0  0  0
  -24.9530  -34.1670   24.9830 H   0  0  0  0  0  0  0  0  0  0  0  0
  -24.1410  -36.8560   23.0630 C   0  0  0  0  0  1  0  0  0  0  0  0
  -25.3760  -36.4590   23.8880 C   0  0  0  0  0  3  0  0  0  0  0  0
  -27.4930  -37.3580   24.7450 C   0  0  0  0  0  1  0  0  0  0  0  0
  -26.4000  -37.5210   23.7890 N   0  0  0  0  0  0  0  0  0  0  0  0
  -25.9850  -38.4370   23.9370 H   0  0  0  0  0  0  0  0  0  0  0  0
  1  8  2  0
  2  1  1  0
  3  5  1  0
  4  3  1  0
  4  7  1  0
  5  2  1  0
  5  6  1  1
  7  1  1  0
  9 12  1  0
 11 14  2  0
 12  7  1  0
 12 10  2  0
 13  9  2  0
 13 11  1  0
 14 10  1  0
 14 23  1  0
 15 23  1  0
 16 21  1  0
 17 18  1  0
 17 16  1  0
 19 18  1  0
 19 28  1  0
 19 20  1  0
 21 15  1  0
 21 20  1  0
 22 15  2  0
 23 24  1  0
 25 26  2  0
 26 45  1  0
 27 26  1  0
 27 30  1  0
 28 25  1  0
 28 29  1  0
 29 27  2  0
 30 31  1  0
 31 32  2  0
 33 36  1  0
 33 32  1  0
 34 33  2  0
 35 34  1  0
 35 30  2  0
 36 37  1  0
 37 42  2  0
 37 38  1  0
 38 39  2  0
 39 40  1  0
 40 44  1  0
 41 40  2  0
 42 41  1  0
 43 42  1  0
 45 46  1  0
 46 49  1  0
 46 48  1  0
 47 45  2  0
 50 51  1  0
 50 25  1  0
 52 50  1  0
 53 13  1  0
 54 53  1  0
 55 53  1  0
 56 57  1  0
 56  5  1  0
 58 69  2  0
 59 57  1  0
 59 64  1  0
 60 68  1  0
 60 70  1  0
 61 67  1  0
 61 63  1  0
 62 68  1  0
 63 62  1  0
 64 63  2  0
 65 66  1  0
 65 59  2  0
 66 61  2  0
 67 60  1  0
 68 58  1  0
 70 72  2  0
 71 70  1  0
 73 71  1  0
 74 83  2  0
 74 79  1  0
 75 71  1  0
 75 79  1  0
 76 75  1  0
 77 78  1  0
 77 76  1  0
 78 74  1  0
 79 80  2  0
 80 81  1  0
 82 81  2  0
 83 82  1  0
 84 58  1  0
 84 89  1  0
 84 85  1  0
 85 88  1  1
 85 86  1  0
 87 85  1  0
 89 92  1  0
 90 94  1  0
 90 89  1  0
 91 90  2  0
 94 93  1  0
 96 94  1  0
 96 97  1  0
 96 95  1  0
M  ISO  4  15 100  23 100  56 101  57 101
M  END
>  <TORSDO>  (9) 
F 19

>  <SCORE>  (9) 
-13.723

>  <name>  (9) 
8

>  <ligand_id>  (9) 
8

>  <original_smiles>  (9) 
[H]c1c([H])c([H])c2c(c1[H])C([H])([H])C([H])([H])C([H])([H])C2([H])N([H])C(=O)C1([H])N(C(=O)C([H])(N([H])C(=O)C([H])(N([H])C([H])([H])[H])C([H])([H])[H])C(C([H])([H])[H])(C([H])([H])[H])C([H])([H])[H])C([H])([H])c2c([H])c(OC([H])([H])C3(C([H])([H])[H])C([H])([H])C(=O)N(c4c([H])c(N([H])[H])c([H])c(N([H])C(=O)N5C([H])([H])C([H])([H])C([H])([H])C([H])(n6nc(-c7c([H])c([H])c(Oc8c([H])c([H])c(F)c([H])c8F)c([H])c7[H])c(C(=O)N([H])[H])c6N([H])[H])C5([H])[H])c4[H])C([H])([H])C3([H])[H])c([H])c([H])c2C1([H])[H]

>  <smiles>  (9) 
[H]c1c([H])c([H])c2c(c1[H])C([H])([H])C([H])([H])C([H])([H])C2([H])N([H])C(=O)C1([H])N(C(=O)C([H])(N([H])C(=O)C([H])(N([H])C([H])([H])[H])C([H])([H])[H])C(C([H])([H])[H])(C([H])([H])[H])C([H])([H])[H])C([H])([H])c2c([H])c(OC([H])([H])C3(C([H])([H])[H])C([H])([H])C(=O)N(c4c([H])c(N([H])[H])c([H])c(N([H])C(=O)N5C([H])([H])C([H])([H])C([H])([H])C([H])(n6nc(-c7c([H])c([H])c(Oc8c([H])c([H])c(F)c([H])c8F)c([H])c7[H])c(C(=O)N([H])[H])c6N([H])[H])C5([H])[H])c4[H])C([H])([H])C3([H])[H])c([H])c([H])c2C1([H])[H]

$$$$
9:0:0
     RDKit          3D

 94103  0  0  1  0  0  0  0  0999 V2000
  -27.8460  -21.2650   19.4770 C   0  0  0  0  0  0  0  0  0  0  0  0
  -29.3500  -22.6170   20.5510 C   0  0  0  0  0  2  0  0  0  0  0  0
  -28.1980  -23.6440   20.1230 C   0  0  0  0  0  3  0  0  0  0  0  0
  -27.4410  -22.7210   19.1100 C   0  0  1  0  0  0  0  0  0  0  0  0
  -27.8740  -22.9390   17.6370 C   0  0  0  0  0  1  0  0  0  0  0  0
  -25.9090  -22.8820   19.2290 C   0  0  0  0  0  1  0  0  0  0  0  0
  -28.9380  -21.1850   20.2600 N   0  0  0  0  0  0  0  0  0  0  0  0
  -27.2000  -20.3000   19.0540 O   0  0  0  0  0  0  0  0  0  0  0  0
  -31.6490  -19.0180   21.8200 C   0  0  0  0  0  3  0  0  0  0  0  0
  -30.8610  -20.1110   21.4050 C   0  0  0  0  0  3  0  0  0  0  0  0
  -31.2980  -17.6910   21.5100 C   0  0  0  0  0  3  0  0  0  0  0  0
  -29.3300  -18.5390   20.3660 C   0  0  0  0  0  3  0  0  0  0  0  0
  -29.6750  -19.9360   20.6570 C   0  0  0  0  0  0  0  0  0  0  0  0
  -30.1310  -17.3850   20.7770 C   0  0  0  0  0  0  0  0  0  0  0  0
  -30.5650  -14.8140   20.4010 C   0  0  0  0  0  0  0  0  0  0  0  0
  -30.3690  -12.5510   19.3500 C   0  0  0  0  0  2  0  0  0  0  0  0
  -29.4210  -12.6350   18.1330 C   0  0  0  0  0  2  0  0  0  0  0  0
  -27.9560  -12.4360   18.5750 C   0  0  0  0  0  2  0  0  0  0  0  0
  -27.5850  -13.2990   19.8110 C   0  0  0  0  0  3  0  0  0  0  0  0
  -28.6580  -13.2130   20.9180 C   0  0  0  0  0  2  0  0  0  0  0  0
  -29.9390  -13.5910   20.3090 N   0  0  0  0  0  0  0  0  0  0  0  0
  -31.7610  -14.9020   20.1060 O   0  0  0  0  0  0  0  0  0  0  0  0
  -29.7770  -15.9540   20.5500 N   0  0  0  0  0  0  0  0  0  0  0  0
  -28.7880  -15.7650   20.5090 H   0  0  0  0  0  0  0  0  0  0  0  0
  -25.1980  -13.8530   20.5750 C   0  0  0  0  0  0  0  0  0  0  0  0
  -24.1460  -13.0620   20.9490 C   0  0  0  0  0  0  0  0  0  0  0  0
  -24.6260  -11.7170   20.8980 C   0  0  0  0  0  0  0  0  0  0  0  0
  -26.2510  -12.9880   20.3170 N   0  0  0  0  0  0  0  0  0  0  0  0
  -25.9130  -11.6980   20.5760 N   0  0  0  0  0  0  0  0  0  0  0  0
  -23.9140  -10.4450   21.0820 C   0  0  0  0  0  0  0  0  0  0  0  0
  -24.3620   -9.4750   22.0070 C   0  0  0  0  0  3  0  0  0  0  0  0
  -23.6510   -8.2680   22.1770 C   0  0  0  0  0  3  0  0  0  0  0  0
  -22.4780   -8.0220   21.4220 C   0  0  0  0  0  0  0  0  0  0  0  0
  -22.0510   -8.9810   20.4890 C   0  0  0  0  0  3  0  0  0  0  0  0
  -22.7620  -10.1790   20.3150 C   0  0  0  0  0  3  0  0  0  0  0  0
  -21.7360   -6.8690   21.5050 O   0  0  0  0  0  0  0  0  0  0  0  0
  -21.6950   -6.1180   22.6530 C   0  0  0  0  0  0  0  0  0  0  0  0
  -21.2390   -6.6530   23.8780 C   0  0  0  0  0  3  0  0  0  0  0  0
  -21.1470   -5.8270   25.0160 C   0  0  0  0  0  3  0  0  0  0  0  0
  -21.5050   -4.4680   24.9320 C   0  0  0  0  0  0  0  0  0  0  0  0
  -21.9560   -3.9330   23.7120 C   0  0  0  0  0  3  0  0  0  0  0  0
  -22.0480   -4.7550   22.5750 C   0  0  0  0  0  0  0  0  0  0  0  0
  -22.4630   -4.2300   21.3990 F   0  0  0  0  0  0  0  0  0  0  0  0
  -21.4120   -3.6730   26.0230 F   0  0  0  0  0  0  0  0  0  0  0  0
  -22.7460  -13.5210   21.2360 C   0  0  0  0  0  0  0  0  0  0  0  0
  -22.0280  -12.8060   22.0950 N   0  0  0  0  0  0  0  0  0  0  0  0
  -22.2960  -14.5490   20.7330 O   0  0  0  0  0  0  0  0  0  0  0  0
  -22.4030  -11.9750   22.5280 H   0  0  0  0  0  0  0  0  0  0  0  0
  -21.0860  -13.0930   22.3220 H   0  0  0  0  0  0  0  0  0  0  0  0
  -25.3420  -15.2260   20.4100 N   0  0  0  0  0  0  0  0  0  0  0  0
  -24.5610  -15.8640   20.5280 H   0  0  0  0  0  0  0  0  0  0  0  0
  -26.1730  -15.6800   20.0510 H   0  0  0  0  0  0  0  0  0  0  0  0
  -28.5200  -25.1690   19.6060 C   0  0  0  0  0  2  0  0  0  0  0  0
  -28.3540  -26.4590   20.3590 O   0  0  0  0  0  0  0  0  0  0  0  0
  -24.5970  -31.9390   23.2500 C   0  0  0  0  0  0  0  0  0  0  0  0
  -27.2340  -27.3170   20.2530 C   0  0  0  0  0  0  0  0  0  0  0  0
  -23.4080  -30.5210   21.6160 C   0  0  0  0  0  3  0  0  0  0  0  0
  -24.8690  -28.9570   20.2070 C   0  0  0  0  0  0  0  0  0  0  0  0
  -25.9490  -30.8300   21.4510 C   0  0  0  0  0  2  0  0  0  0  0  0
  -26.0320  -29.4410   20.8180 C   0  0  0  0  0  0  0  0  0  0  0  0
  -27.2100  -28.6290   20.8380 C   0  0  0  0  0  3  0  0  0  0  0  0
  -26.0470  -26.8990   19.6130 C   0  0  0  0  0  3  0  0  0  0  0  0
  -24.8820  -27.6940   19.5940 C   0  0  0  0  0  3  0  0  0  0  0  0
  -23.6310  -29.8340   20.2420 C   0  0  0  0  0  2  0  0  0  0  0  0
  -24.6700  -31.1170   22.1610 N   0  0  0  0  0  0  0  0  0  0  0  0
  -23.5110  -32.2240   23.7740 O   0  0  0  0  0  0  0  0  0  0  0  0
  -22.7380  -29.5160   22.5830 C   0  0  0  0  0  0  0  0  0  0  0  0
  -21.4120  -29.3390   22.4550 N   0  0  0  0  0  0  0  0  0  0  0  0
  -23.4130  -28.8950   23.4100 O   0  0  0  0  0  0  0  0  0  0  0  0
  -20.9250  -29.8910   21.7620 H   0  0  0  0  0  0  0  0  0  0  0  0
  -18.0280  -28.1660   22.9700 C   0  0  0  0  0  0  0  0  0  0  0  0
  -20.5890  -28.4100   23.2330 C   0  0  0  0  0  3  0  0  0  0  0  0
  -20.6800  -26.9760   22.6640 C   0  0  0  0  0  2  0  0  0  0  0  0
  -19.5750  -26.6560   21.6520 C   0  0  0  0  0  2  0  0  0  0  0  0
  -18.1950  -26.8130   22.2980 C   0  0  0  0  0  2  0  0  0  0  0  0
  -19.1530  -28.9230   23.3950 C   0  0  0  0  0  0  0  0  0  0  0  0
  -18.9430  -30.1890   23.9820 C   0  0  0  0  0  3  0  0  0  0  0  0
  -17.6420  -30.6990   24.1490 C   0  0  0  0  0  3  0  0  0  0  0  0
  -16.5310  -29.9390   23.7420 C   0  0  0  0  0  3  0  0  0  0  0  0
  -16.7250  -28.6740   23.1590 C   0  0  0  0  0  3  0  0  0  0  0  0
  -25.8760  -32.5820   23.8720 C   0  0  0  0  0  3  0  0  0  0  0  0
  -25.5630  -33.9840   24.1840 N   0  0  0  0  0  0  0  0  0  0  0  0
  -25.9070  -35.0300   23.4210 C   0  0  0  0  0  0  0  0  0  0  0  0
  -26.5890  -34.9170   22.3990 O   0  0  0  0  0  0  0  0  0  0  0  0
  -24.9590  -34.1470   24.9760 H   0  0  0  0  0  0  0  0  0  0  0  0
  -24.1990  -36.8320   23.0160 C   0  0  0  0  0  1  0  0  0  0  0  0
  -25.4160  -36.4230   23.8610 C   0  0  0  0  0  3  0  0  0  0  0  0
  -27.5310  -37.3010   24.7470 C   0  0  0  0  0  1  0  0  0  0  0  0
  -26.4570  -37.4700   23.7710 N   0  0  0  0  0  0  0  0  0  0  0  0
  -26.0510  -38.3930   23.9030 H   0  0  0  0  0  0  0  0  0  0  0  0
  -26.3840  -31.8290   25.1630 C   0  0  1  0  0  0  0  0  0  0  0  0
  -25.2820  -31.6030   26.2250 C   0  0  0  0  0  1  0  0  0  0  0  0
  -26.9760  -30.4490   24.7970 C   0  0  0  0  0  1  0  0  0  0  0  0
  -27.5240  -32.6370   25.8280 C   0  0  0  0  0  1  0  0  0  0  0  0
  1  7  1  0
  3 53  1  0
  3  2  1  0
  4  6  1  6
  4  1  1  0
  4  3  1  0
  5  4  1  0
  7  2  1  0
  7 13  1  0
  8  1  2  0
 10  9  2  0
 11  9  1  0
 12 13  2  0
 12 14  1  0
 13 10  1  0
 14 11  2  0
 15 23  1  0
 16 21  1  0
 17 18  1  0
 17 16  1  0
 19 18  1  0
 19 28  1  0
 19 20  1  0
 21 15  1  0
 21 20  1  0
 22 15  2  0
 23 14  1  0
 24 23  1  0
 25 26  2  0
 26 45  1  0
 27 26  1  0
 27 30  1  0
 28 25  1  0
 28 29  1  0
 29 27  2  0
 30 31  1  0
 31 32  2  0
 33 36  1  0
 33 32  1  0
 34 33  2  0
 35 34  1  0
 35 30  2  0
 36 37  1  0
 37 38  1  0
 38 39  2  0
 40 39  1  0
 40 44  1  0
 41 40  2  0
 42 37  2  0
 42 41  1  0
 43 42  1  0
 45 46  1  0
 46 49  1  0
 46 48  1  0
 47 45  2  0
 50 51  1  0
 50 25  1  0
 52 50  1  0
 53 54  1  0
 55 66  2  0
 56 54  1  0
 56 61  1  0
 57 65  1  0
 57 67  1  0
 58 64  1  0
 58 60  1  0
 59 65  1  0
 60 61  2  0
 60 59  1  0
 62 56  2  0
 63 62  1  0
 63 58  2  0
 64 57  1  0
 65 55  1  0
 67 69  2  0
 68 67  1  0
 70 68  1  0
 71 80  2  0
 71 76  1  0
 72 68  1  0
 72 76  1  0
 73 72  1  0
 74 75  1  0
 74 73  1  0
 75 71  1  0
 76 77  2  0
 77 78  1  0
 79 78  2  0
 80 79  1  0
 81 55  1  0
 81 82  1  0
 81 91  1  0
 82 85  1  0
 83 87  1  0
 83 82  1  0
 84 83  2  0
 87 86  1  0
 89 87  1  0
 89 90  1  0
 89 88  1  0
 91 94  1  1
 91 92  1  0
 93 91  1  0
M  ISO  4  15 100  23 100  53 101  54 101
M  END
>  <TORSDO>  (10) 
F 18

>  <SCORE>  (10) 
-15.036

>  <name>  (10) 
9

>  <ligand_id>  (10) 
9

>  <original_smiles>  (10) 
[H]c1c([H])c(N([H])C(=O)N2C([H])([H])C([H])([H])C([H])([H])C([H])(n3nc(-c4c([H])c([H])c(Oc5c([H])c([H])c(F)c([H])c5F)c([H])c4[H])c(C(=O)N([H])[H])c3N([H])[H])C2([H])[H])c([H])c(N2C(=O)C(C([H])([H])[H])(C([H])([H])[H])C([H])(C([H])([H])Oc3c([H])c([H])c4c(c3[H])C([H])([H])N(C(=O)C([H])(N([H])C(=O)C([H])(N([H])C([H])([H])[H])C([H])([H])[H])C(C([H])([H])[H])(C([H])([H])[H])C([H])([H])[H])C([H])(C(=O)N([H])C3([H])c5c([H])c([H])c([H])c([H])c5C([H])([H])C([H])([H])C3([H])[H])C4([H])[H])C2([H])[H])c1[H]

>  <smiles>  (10) 
[H]c1c([H])c(N([H])C(=O)N2C([H])([H])C([H])([H])C([H])([H])C([H])(n3nc(-c4c([H])c([H])c(Oc5c([H])c([H])c(F)c([H])c5F)c([H])c4[H])c(C(=O)N([H])[H])c3N([H])[H])C2([H])[H])c([H])c(N2C(=O)C(C([H])([H])[H])(C([H])([H])[H])C([H])(C([H])([H])Oc3c([H])c([H])c4c(c3[H])C([H])([H])N(C(=O)C([H])(N([H])C(=O)C([H])(N([H])C([H])([H])[H])C([H])([H])[H])C(C([H])([H])[H])(C([H])([H])[H])C([H])([H])[H])C([H])(C(=O)N([H])C3([H])c5c([H])c([H])c([H])c([H])c5C([H])([H])C([H])([H])C3([H])[H])C4([H])[H])C2([H])[H])c1[H]

$$$$
10:0:0
     RDKit          3D

 95104  0  0  1  0  0  0  0  0999 V2000
  -29.0560  -22.4620   20.6690 C   0  0  0  0  0  0  0  0  0  0  0  0
  -30.5440  -23.5950   19.2100 C   0  0  0  0  0  2  0  0  0  0  0  0
  -30.9800  -22.1350   19.4700 C   0  0  0  0  0  2  0  0  0  0  0  0
  -29.4930  -23.9170   20.2810 C   0  0  0  0  0  3  0  0  0  0  0  0
  -29.8710  -21.4790   20.1630 N   0  0  0  0  0  0  0  0  0  0  0  0
  -28.0840  -22.2620   21.4040 O   0  0  0  0  0  0  0  0  0  0  0  0
  -30.9110  -19.3730   21.0700 C   0  0  0  0  0  3  0  0  0  0  0  0
  -31.0040  -17.9600   21.2620 C   0  0  0  0  0  3  0  0  0  0  0  0
  -28.9610  -17.6960   20.0340 C   0  0  0  0  0  3  0  0  0  0  0  0
  -28.8680  -19.1070   19.8110 C   0  0  0  0  0  0  0  0  0  0  0  0
  -29.8500  -20.0060   20.3500 C   0  0  0  0  0  0  0  0  0  0  0  0
  -30.0240  -17.0790   20.7410 C   0  0  0  0  0  0  0  0  0  0  0  0
  -30.8040  -14.6130   20.4400 C   0  0  0  0  0  0  0  0  0  0  0  0
  -30.5900  -12.4020   19.3170 C   0  0  0  0  0  2  0  0  0  0  0  0
  -29.6300  -12.5590   18.1160 C   0  0  0  0  0  2  0  0  0  0  0  0
  -28.1600  -12.3990   18.5560 C   0  0  0  0  0  2  0  0  0  0  0  0
  -27.8190  -13.2310   19.8200 C   0  0  0  0  0  3  0  0  0  0  0  0
  -28.8880  -13.0320   20.9190 C   0  0  0  0  0  2  0  0  0  0  0  0
  -30.1960  -13.3890   20.3410 N   0  0  0  0  0  0  0  0  0  0  0  0
  -31.9500  -14.8010   20.0160 O   0  0  0  0  0  0  0  0  0  0  0  0
  -30.0020  -15.6250   20.8940 N   0  0  0  0  0  0  0  0  0  0  0  0
  -29.1200  -15.2630   21.2230 H   0  0  0  0  0  0  0  0  0  0  0  0
  -25.4340  -13.8290   20.5740 C   0  0  0  0  0  0  0  0  0  0  0  0
  -24.3680  -13.0550   20.9420 C   0  0  0  0  0  0  0  0  0  0  0  0
  -24.8220  -11.7020   20.8760 C   0  0  0  0  0  0  0  0  0  0  0  0
  -26.4720  -12.9480   20.3100 N   0  0  0  0  0  0  0  0  0  0  0  0
  -26.1080  -11.6630   20.5510 N   0  0  0  0  0  0  0  0  0  0  0  0
  -24.0900  -10.4400   21.0470 C   0  0  0  0  0  0  0  0  0  0  0  0
  -24.5070   -9.4660   21.9800 C   0  0  0  0  0  3  0  0  0  0  0  0
  -23.7770   -8.2690   22.1400 C   0  0  0  0  0  3  0  0  0  0  0  0
  -22.6160   -8.0360   21.3650 C   0  0  0  0  0  0  0  0  0  0  0  0
  -22.2170   -9.0000   20.4220 C   0  0  0  0  0  3  0  0  0  0  0  0
  -22.9480  -10.1890   20.2600 C   0  0  0  0  0  3  0  0  0  0  0  0
  -21.8590   -6.8910   21.4330 O   0  0  0  0  0  0  0  0  0  0  0  0
  -21.7420   -6.1730   22.5960 C   0  0  0  0  0  0  0  0  0  0  0  0
  -21.2380   -6.7520   23.7820 C   0  0  0  0  0  3  0  0  0  0  0  0
  -21.0690   -5.9610   24.9350 C   0  0  0  0  0  3  0  0  0  0  0  0
  -21.3950   -4.5920   24.9050 C   0  0  0  0  0  0  0  0  0  0  0  0
  -21.8930   -4.0130   23.7250 C   0  0  0  0  0  3  0  0  0  0  0  0
  -22.0640   -4.8010   22.5730 C   0  0  0  0  0  0  0  0  0  0  0  0
  -22.5220   -4.2330   21.4320 F   0  0  0  0  0  0  0  0  0  0  0  0
  -21.2270   -3.8300   26.0110 F   0  0  0  0  0  0  0  0  0  0  0  0
  -22.9760  -13.5340   21.2390 C   0  0  0  0  0  0  0  0  0  0  0  0
  -22.2600  -12.8360   22.1140 N   0  0  0  0  0  0  0  0  0  0  0  0
  -22.5320  -14.5630   20.7310 O   0  0  0  0  0  0  0  0  0  0  0  0
  -22.6320  -12.0050   22.5500 H   0  0  0  0  0  0  0  0  0  0  0  0
  -21.3260  -13.1400   22.3540 H   0  0  0  0  0  0  0  0  0  0  0  0
  -25.6020  -15.2010   20.4150 N   0  0  0  0  0  0  0  0  0  0  0  0
  -24.8170  -15.8380   20.4990 H   0  0  0  0  0  0  0  0  0  0  0  0
  -26.4060  -15.6160   19.9630 H   0  0  0  0  0  0  0  0  0  0  0  0
  -27.7910  -19.5540   18.8820 C   0  0  0  0  0  0  0  0  0  0  0  0
  -26.4900  -18.7600   18.8960 C   0  0  0  0  0  1  0  0  0  0  0  0
  -27.9030  -20.5140   18.1150 O   0  0  0  0  0  0  0  0  0  0  0  0
  -28.3680  -24.9650   19.8480 C   0  0  0  0  0  2  0  0  0  0  0  0
  -28.5680  -26.4270   20.0180 O   0  0  0  0  0  0  0  0  0  0  0  0
  -24.6530  -31.6540   23.1150 C   0  0  0  0  0  0  0  0  0  0  0  0
  -27.4290  -27.2520   19.9730 C   0  0  0  0  0  0  0  0  0  0  0  0
  -23.5160  -30.2920   21.4000 C   0  0  0  0  0  3  0  0  0  0  0  0
  -25.0300  -28.8200   19.9610 C   0  0  0  0  0  0  0  0  0  0  0  0
  -26.0530  -30.6640   21.2890 C   0  0  0  0  0  2  0  0  0  0  0  0
  -26.1760  -29.3100   20.6000 C   0  0  0  0  0  0  0  0  0  0  0  0
  -27.3790  -28.5400   20.5940 C   0  0  0  0  0  3  0  0  0  0  0  0
  -26.2520  -26.8150   19.3190 C   0  0  0  0  0  3  0  0  0  0  0  0
  -25.0700  -27.5780   19.3130 C   0  0  0  0  0  3  0  0  0  0  0  0
  -23.7760  -29.6680   20.0040 C   0  0  0  0  0  2  0  0  0  0  0  0
  -24.7590  -30.8850   21.9930 N   0  0  0  0  0  0  0  0  0  0  0  0
  -23.5510  -31.8930   23.6320 O   0  0  0  0  0  0  0  0  0  0  0  0
  -22.8480  -29.2310   22.3080 C   0  0  0  0  0  0  0  0  0  0  0  0
  -21.5230  -29.0620   22.1660 N   0  0  0  0  0  0  0  0  0  0  0  0
  -23.5230  -28.5660   23.0980 O   0  0  0  0  0  0  0  0  0  0  0  0
  -21.0390  -29.6490   21.5020 H   0  0  0  0  0  0  0  0  0  0  0  0
  -18.1330  -27.8920   22.6420 C   0  0  0  0  0  0  0  0  0  0  0  0
  -20.6990  -28.0920   22.8890 C   0  0  0  0  0  3  0  0  0  0  0  0
  -20.7680  -26.6970   22.2240 C   0  0  0  0  0  2  0  0  0  0  0  0
  -19.6470  -26.4570   21.2080 C   0  0  0  0  0  2  0  0  0  0  0  0
  -18.2770  -26.5850   21.8810 C   0  0  0  0  0  2  0  0  0  0  0  0
  -19.2700  -28.6070   23.1020 C   0  0  0  0  0  0  0  0  0  0  0  0
  -19.0810  -29.8330   23.7760 C   0  0  0  0  0  3  0  0  0  0  0  0
  -17.7880  -30.3440   23.9910 C   0  0  0  0  0  3  0  0  0  0  0  0
  -16.6660  -29.6250   23.5470 C   0  0  0  0  0  3  0  0  0  0  0  0
  -16.8390  -28.4010   22.8790 C   0  0  0  0  0  3  0  0  0  0  0  0
  -25.9070  -32.2890   23.7900 C   0  0  0  0  0  3  0  0  0  0  0  0
  -26.3850  -31.5030   25.0730 C   0  0  1  0  0  0  0  0  0  0  0  0
  -25.2570  -31.2420   26.0990 C   0  0  0  0  0  1  0  0  0  0  0  0
  -26.9900  -30.1350   24.6820 C   0  0  0  0  0  1  0  0  0  0  0  0
  -27.5070  -32.2940   25.7850 C   0  0  0  0  0  1  0  0  0  0  0  0
  -25.5730  -33.6790   24.1300 N   0  0  0  0  0  0  0  0  0  0  0  0
  -25.9150  -34.7460   23.3970 C   0  0  0  0  0  0  0  0  0  0  0  0
  -26.6170  -34.6650   22.3840 O   0  0  0  0  0  0  0  0  0  0  0  0
  -24.9530  -33.8150   24.9150 H   0  0  0  0  0  0  0  0  0  0  0  0
  -24.1740  -36.5220   23.0250 C   0  0  0  0  0  1  0  0  0  0  0  0
  -25.4010  -36.1230   23.8600 C   0  0  0  0  0  3  0  0  0  0  0  0
  -27.5060  -37.0230   24.7500 C   0  0  0  0  0  1  0  0  0  0  0  0
  -26.4230  -37.1910   23.7850 N   0  0  0  0  0  0  0  0  0  0  0  0
  -26.0010  -38.1030   23.9380 H   0  0  0  0  0  0  0  0  0  0  0  0
  1  6  2  0
  2  3  1  0
  2  4  1  0
  3  5  1  0
  4 54  1  0
  4  1  1  0
  5 11  1  0
  5  1  1  0
  7  8  1  0
  9 12  1  0
 10  9  2  0
 10 11  1  0
 11  7  2  0
 12 21  1  0
 12  8  2  0
 13 21  1  0
 14 19  1  0
 15 16  1  0
 15 14  1  0
 17 16  1  0
 17 26  1  0
 17 18  1  0
 19 13  1  0
 19 18  1  0
 20 13  2  0
 21 22  1  0
 23 24  2  0
 24 43  1  0
 25 24  1  0
 25 28  1  0
 26 27  1  0
 26 23  1  0
 27 25  2  0
 28 29  1  0
 29 30  2  0
 31 34  1  0
 31 30  1  0
 32 31  2  0
 33 32  1  0
 33 28  2  0
 34 35  1  0
 35 36  1  0
 36 37  2  0
 38 37  1  0
 38 42  1  0
 39 38  2  0
 40 35  2  0
 40 39  1  0
 41 40  1  0
 43 44  1  0
 44 47  1  0
 44 46  1  0
 45 43  2  0
 48 49  1  0
 48 23  1  0
 50 48  1  0
 51 52  1  0
 51 10  1  0
 53 51  2  0
 54 55  1  0
 56 67  2  0
 57 55  1  0
 57 62  1  0
 58 66  1  0
 58 68  1  0
 59 65  1  0
 59 61  1  0
 60 66  1  0
 61 60  1  0
 62 61  2  0
 63 57  2  0
 64 63  1  0
 64 59  2  0
 65 58  1  0
 66 56  1  0
 68 70  2  0
 69 68  1  0
 71 69  1  0
 72 81  2  0
 72 77  1  0
 73 69  1  0
 73 77  1  0
 74 73  1  0
 75 76  1  0
 75 74  1  0
 76 72  1  0
 77 78  2  0
 78 79  1  0
 80 79  2  0
 81 80  1  0
 82 56  1  0
 82 87  1  0
 82 83  1  0
 83 86  1  1
 83 84  1  0
 85 83  1  0
 87 90  1  0
 88 92  1  0
 88 87  1  0
 89 88  2  0
 92 91  1  0
 94 92  1  0
 94 95  1  0
 94 93  1  0
M  ISO  4  13 100  21 100  54 101  55 101
M  END
>  <TORSDO>  (11) 
F 19

>  <SCORE>  (11) 
-14.124

>  <name>  (11) 
10

>  <ligand_id>  (11) 
10

>  <original_smiles>  (11) 
[H]c1c([H])c([H])c2c(c1[H])C([H])([H])C([H])([H])C([H])([H])C2([H])N([H])C(=O)C1([H])N(C(=O)C([H])(N([H])C(=O)C([H])(N([H])C([H])([H])[H])C([H])([H])[H])C(C([H])([H])[H])(C([H])([H])[H])C([H])([H])[H])C([H])([H])c2c([H])c(OC([H])([H])C3([H])C(=O)N(c4c([H])c([H])c(N([H])C(=O)N5C([H])([H])C([H])([H])C([H])([H])C([H])(n6nc(-c7c([H])c([H])c(Oc8c([H])c([H])c(F)c([H])c8F)c([H])c7[H])c(C(=O)N([H])[H])c6N([H])[H])C5([H])[H])c([H])c4C(=O)C([H])([H])[H])C([H])([H])C3([H])[H])c([H])c([H])c2C1([H])[H]

>  <smiles>  (11) 
[H]c1c([H])c([H])c2c(c1[H])C([H])([H])C([H])([H])C([H])([H])C2([H])N([H])C(=O)C1([H])N(C(=O)C([H])(N([H])C(=O)C([H])(N([H])C([H])([H])[H])C([H])([H])[H])C(C([H])([H])[H])(C([H])([H])[H])C([H])([H])[H])C([H])([H])c2c([H])c(OC([H])([H])C3([H])C(=O)N(c4c([H])c([H])c(N([H])C(=O)N5C([H])([H])C([H])([H])C([H])([H])C([H])(n6nc(-c7c([H])c([H])c(Oc8c([H])c([H])c(F)c([H])c8F)c([H])c7[H])c(C(=O)N([H])[H])c6N([H])[H])C5([H])[H])c([H])c4C(=O)C([H])([H])[H])C([H])([H])C3([H])[H])c([H])c([H])c2C1([H])[H]

$$$$
11:0:0
     RDKit          3D

 98107  0  0  1  0  0  0  0  0999 V2000
  -29.5470  -23.5520   20.6220 C   0  0  0  0  0  0  0  0  0  0  0  0
  -30.4060  -21.1990   20.9880 C   0  0  0  0  0  3  0  0  0  0  0  0
  -27.7310  -23.0790   19.1550 C   0  0  0  0  0  2  0  0  0  0  0  0
  -28.2950  -21.7610   19.7160 C   0  0  0  0  0  2  0  0  0  0  0  0
  -28.2950  -24.2120   20.0290 C   0  0  0  0  0  3  0  0  0  0  0  0
  -29.5190  -22.1070   20.4620 N   0  0  0  0  0  0  0  0  0  0  0  0
  -31.4240  -21.6380   21.7370 N   0  0  0  0  0  0  0  0  0  0  0  0
  -30.4510  -24.1680   21.1970 O   0  0  0  0  0  0  0  0  0  0  0  0
  -32.1120  -21.0040   22.1130 H   0  0  0  0  0  0  0  0  0  0  0  0
  -31.5310  -22.6370   21.8740 H   0  0  0  0  0  0  0  0  0  0  0  0
  -30.2710  -18.9470   22.0350 C   0  0  0  0  0  3  0  0  0  0  0  0
  -30.4420  -17.6180   19.5680 C   0  0  0  0  0  3  0  0  0  0  0  0
  -30.3170  -19.7220   20.8520 C   0  0  0  0  0  0  0  0  0  0  0  0
  -30.4040  -16.8500   20.7610 C   0  0  0  0  0  0  0  0  0  0  0  0
  -30.3010  -17.5380   21.9880 C   0  0  0  0  0  0  0  0  0  0  0  0
  -30.3950  -19.0370   19.6120 C   0  0  0  0  0  0  0  0  0  0  0  0
  -30.2350  -16.8320   23.1430 F   0  0  0  0  0  0  0  0  0  0  0  0
  -30.4610  -19.7350   18.4530 F   0  0  0  0  0  0  0  0  0  0  0  0
  -30.9980  -14.4920   20.0640 C   0  0  0  0  0  0  0  0  0  0  0  0
  -30.6730  -12.3100   18.9440 C   0  0  0  0  0  2  0  0  0  0  0  0
  -29.6610  -12.4890   17.7910 C   0  0  0  0  0  2  0  0  0  0  0  0
  -28.2100  -12.3590   18.3000 C   0  0  0  0  0  2  0  0  0  0  0  0
  -27.9430  -13.2140   19.5670 C   0  0  0  0  0  3  0  0  0  0  0  0
  -29.0520  -12.9840   20.6200 C   0  0  0  0  0  2  0  0  0  0  0  0
  -30.3520  -13.2940   19.9910 N   0  0  0  0  0  0  0  0  0  0  0  0
  -32.0460  -14.7260   19.4530 O   0  0  0  0  0  0  0  0  0  0  0  0
  -30.3820  -15.4170   20.8230 N   0  0  0  0  0  0  0  0  0  0  0  0
  -29.7020  -15.0450   21.4680 H   0  0  0  0  0  0  0  0  0  0  0  0
  -25.6220  -13.8600   20.4780 C   0  0  0  0  0  0  0  0  0  0  0  0
  -24.5490  -13.1040   20.8680 C   0  0  0  0  0  0  0  0  0  0  0  0
  -24.9500  -11.7410   20.7140 C   0  0  0  0  0  0  0  0  0  0  0  0
  -26.6120  -12.9590   20.1160 N   0  0  0  0  0  0  0  0  0  0  0  0
  -26.2140  -11.6760   20.3130 N   0  0  0  0  0  0  0  0  0  0  0  0
  -24.1870  -10.4960   20.8700 C   0  0  0  0  0  0  0  0  0  0  0  0
  -24.5420   -9.5300   21.8380 C   0  0  0  0  0  3  0  0  0  0  0  0
  -23.7830   -8.3490   21.9810 C   0  0  0  0  0  3  0  0  0  0  0  0
  -22.6550   -8.1260   21.1550 C   0  0  0  0  0  0  0  0  0  0  0  0
  -22.3210   -9.0800   20.1790 C   0  0  0  0  0  3  0  0  0  0  0  0
  -23.0800  -10.2530   20.0340 C   0  0  0  0  0  3  0  0  0  0  0  0
  -21.8750   -6.9970   21.2050 O   0  0  0  0  0  0  0  0  0  0  0  0
  -21.6000   -6.3630   22.3910 C   0  0  0  0  0  0  0  0  0  0  0  0
  -20.9710   -7.0320   23.4640 C   0  0  0  0  0  3  0  0  0  0  0  0
  -20.6440   -6.3250   24.6390 C   0  0  0  0  0  3  0  0  0  0  0  0
  -20.9350   -4.9510   24.7390 C   0  0  0  0  0  0  0  0  0  0  0  0
  -21.5560   -4.2830   23.6690 C   0  0  0  0  0  3  0  0  0  0  0  0
  -21.8840   -4.9870   22.4970 C   0  0  0  0  0  0  0  0  0  0  0  0
  -22.4630   -4.3340   21.4610 F   0  0  0  0  0  0  0  0  0  0  0  0
  -20.6140   -4.2700   25.8640 F   0  0  0  0  0  0  0  0  0  0  0  0
  -23.1950  -13.6110   21.2720 C   0  0  0  0  0  0  0  0  0  0  0  0
  -22.5230  -12.9110   22.1790 N   0  0  0  0  0  0  0  0  0  0  0  0
  -22.7460  -14.6640   20.8200 O   0  0  0  0  0  0  0  0  0  0  0  0
  -22.9000  -12.0600   22.5660 H   0  0  0  0  0  0  0  0  0  0  0  0
  -21.6170  -13.2340   22.4910 H   0  0  0  0  0  0  0  0  0  0  0  0
  -25.8320  -15.2330   20.3810 N   0  0  0  0  0  0  0  0  0  0  0  0
  -25.1000  -15.9040   20.5870 H   0  0  0  0  0  0  0  0  0  0  0  0
  -26.6710  -15.6610   20.0140 H   0  0  0  0  0  0  0  0  0  0  0  0
  -28.5360  -25.5400   19.2440 C   0  0  0  0  0  2  0  0  0  0  0  0
  -28.4170  -26.7640   20.0000 O   0  0  0  0  0  0  0  0  0  0  0  0
  -24.6690  -31.8300   23.3310 C   0  0  0  0  0  0  0  0  0  0  0  0
  -27.2160  -27.4530   20.0480 C   0  0  0  0  0  0  0  0  0  0  0  0
  -23.4010  -30.4410   21.7250 C   0  0  0  0  0  3  0  0  0  0  0  0
  -24.8020  -28.9370   20.2090 C   0  0  0  0  0  0  0  0  0  0  0  0
  -25.9130  -30.8250   21.4150 C   0  0  0  0  0  2  0  0  0  0  0  0
  -25.9810  -29.4630   20.7510 C   0  0  0  0  0  0  0  0  0  0  0  0
  -27.1850  -28.7240   20.6740 C   0  0  0  0  0  3  0  0  0  0  0  0
  -26.0110  -26.9410   19.5120 C   0  0  0  0  0  3  0  0  0  0  0  0
  -24.8120  -27.6750   19.5920 C   0  0  0  0  0  3  0  0  0  0  0  0
  -23.5530  -29.7830   20.3270 C   0  0  0  0  0  2  0  0  0  0  0  0
  -24.6820  -31.0470   22.2140 N   0  0  0  0  0  0  0  0  0  0  0  0
  -23.6110  -32.0810   23.9260 O   0  0  0  0  0  0  0  0  0  0  0  0
  -22.8090  -29.3970   22.6990 C   0  0  0  0  0  0  0  0  0  0  0  0
  -21.5050  -29.1120   22.5500 N   0  0  0  0  0  0  0  0  0  0  0  0
  -23.5190  -28.8450   23.5430 O   0  0  0  0  0  0  0  0  0  0  0  0
  -20.9900  -29.6130   21.8390 H   0  0  0  0  0  0  0  0  0  0  0  0
  -18.2520  -27.5810   22.9190 C   0  0  0  0  0  0  0  0  0  0  0  0
  -20.7440  -28.1350   23.3290 C   0  0  0  0  0  3  0  0  0  0  0  0
  -21.0370  -26.6950   22.8520 C   0  0  0  0  0  2  0  0  0  0  0  0
  -20.0460  -26.1960   21.7950 C   0  0  0  0  0  2  0  0  0  0  0  0
  -18.6160  -26.2250   22.3420 C   0  0  0  0  0  2  0  0  0  0  0  0
  -19.2520  -28.4850   23.3670 C   0  0  0  0  0  0  0  0  0  0  0  0
  -18.8600  -29.7490   23.8630 C   0  0  0  0  0  3  0  0  0  0  0  0
  -17.5020  -30.1120   23.9160 C   0  0  0  0  0  3  0  0  0  0  0  0
  -16.5160  -29.2080   23.4850 C   0  0  0  0  0  3  0  0  0  0  0  0
  -16.8910  -27.9450   22.9930 C   0  0  0  0  0  3  0  0  0  0  0  0
  -25.9750  -32.4680   23.8980 C   0  0  0  0  0  3  0  0  0  0  0  0
  -25.6580  -33.8420   24.3060 N   0  0  0  0  0  0  0  0  0  0  0  0
  -25.9030  -34.9310   23.5640 C   0  0  0  0  0  0  0  0  0  0  0  0
  -26.4950  -34.8850   22.4820 O   0  0  0  0  0  0  0  0  0  0  0  0
  -25.1230  -33.9500   25.1550 H   0  0  0  0  0  0  0  0  0  0  0  0
  -24.0960  -36.6750   23.4200 C   0  0  0  0  0  1  0  0  0  0  0  0
  -25.4140  -36.2870   24.1110 C   0  0  0  0  0  3  0  0  0  0  0  0
  -27.5830  -37.2170   24.7930 C   0  0  0  0  0  1  0  0  0  0  0  0
  -26.4010  -37.3770   23.9490 N   0  0  0  0  0  0  0  0  0  0  0  0
  -25.9800  -38.2780   24.1620 H   0  0  0  0  0  0  0  0  0  0  0  0
  -26.5880  -31.6580   25.1060 C   0  0  1  0  0  0  0  0  0  0  0  0
  -25.5630  -31.3240   26.2140 C   0  0  0  0  0  1  0  0  0  0  0  0
  -27.2030  -30.3260   24.6130 C   0  0  0  0  0  1  0  0  0  0  0  0
  -27.7420  -32.4650   25.7470 C   0  0  0  0  0  1  0  0  0  0  0  0
  1  8  2  0
  2  7  1  0
  3  4  1  0
  3  5  1  0
  4  6  1  0
  5 57  1  0
  5  1  1  0
  6  1  1  0
  6  2  1  0
  7 10  1  0
  7  9  1  0
 12 16  2  0
 12 14  1  0
 13  2  1  0
 13 11  2  0
 14 27  1  0
 14 15  2  0
 15 11  1  0
 15 17  1  0
 16 13  1  0
 18 16  1  0
 19 27  1  0
 20 25  1  0
 21 22  1  0
 21 20  1  0
 23 22  1  0
 23 32  1  0
 23 24  1  0
 25 19  1  0
 25 24  1  0
 26 19  2  0
 27 28  1  0
 29 30  2  0
 30 49  1  0
 31 30  1  0
 31 34  1  0
 32 33  1  0
 32 29  1  0
 33 31  2  0
 34 35  1  0
 35 36  2  0
 37 40  1  0
 37 36  1  0
 38 37  2  0
 39 38  1  0
 39 34  2  0
 40 41  1  0
 41 46  2  0
 41 42  1  0
 42 43  2  0
 43 44  1  0
 44 48  1  0
 45 44  2  0
 46 45  1  0
 47 46  1  0
 49 50  1  0
 50 53  1  0
 50 52  1  0
 51 49  2  0
 54 29  1  0
 54 55  1  0
 56 54  1  0
 57 58  1  0
 58 60  1  0
 59 70  2  0
 60 65  1  0
 61 69  1  0
 61 71  1  0
 62 68  1  0
 62 64  1  0
 63 69  1  0
 64 63  1  0
 65 64  2  0
 66 67  1  0
 66 60  2  0
 67 62  2  0
 68 61  1  0
 69 59  1  0
 71 73  2  0
 72 71  1  0
 74 72  1  0
 75 84  2  0
 75 80  1  0
 76 72  1  0
 76 80  1  0
 77 76  1  0
 78 79  1  0
 78 77  1  0
 79 75  1  0
 80 81  2  0
 81 82  1  0
 83 82  2  0
 84 83  1  0
 85 59  1  0
 85 86  1  0
 85 95  1  0
 86 89  1  0
 87 91  1  0
 87 86  1  0
 88 87  2  0
 91 90  1  0
 93 91  1  0
 93 94  1  0
 93 92  1  0
 95 98  1  1
 95 96  1  0
 97 95  1  0
M  ISO  4  19 100  27 100  57 101  58 101
M  END
>  <TORSDO>  (12) 
F 18

>  <SCORE>  (12) 
-13.566

>  <name>  (12) 
11

>  <ligand_id>  (12) 
11

>  <original_smiles>  (12) 
[H]c1c([H])c([H])c2c(c1[H])C([H])([H])C([H])([H])C([H])([H])C2([H])N([H])C(=O)C1([H])N(C(=O)C([H])(N([H])C(=O)C([H])(N([H])C([H])([H])[H])C([H])([H])[H])C(C([H])([H])[H])(C([H])([H])[H])C([H])([H])[H])C([H])([H])c2c([H])c(OC([H])([H])C3([H])C(=O)N(C(c4c([H])c(F)c(N([H])C(=O)N5C([H])([H])C([H])([H])C([H])([H])C([H])(n6nc(-c7c([H])c([H])c(Oc8c([H])c([H])c(F)c([H])c8F)c([H])c7[H])c(C(=O)N([H])[H])c6N([H])[H])C5([H])[H])c([H])c4F)=[N+]([H])[H])C([H])([H])C3([H])[H])c([H])c([H])c2C1([H])[H]

>  <smiles>  (12) 
[H]c1c([H])c([H])c2c(c1[H])C([H])([H])C([H])([H])C([H])([H])C2([H])N([H])C(=O)C1([H])N(C(=O)C([H])(N([H])C(=O)C([H])(N([H])C([H])([H])[H])C([H])([H])[H])C(C([H])([H])[H])(C([H])([H])[H])C([H])([H])[H])C([H])([H])c2c([H])c(OC([H])([H])C3([H])C(=O)N(C(c4c([H])c(F)c(N([H])C(=O)N5C([H])([H])C([H])([H])C([H])([H])C([H])(n6nc(-c7c([H])c([H])c(Oc8c([H])c([H])c(F)c([H])c8F)c([H])c7[H])c(C(=O)N([H])[H])c6N([H])[H])C5([H])[H])c([H])c4F)=[N+]([H])[H])C([H])([H])C3([H])[H])c([H])c([H])c2C1([H])[H]

$$$$
12:0:0
     RDKit          3D

 97106  0  0  1  0  0  0  0  0999 V2000
  -29.4510  -17.4530   19.0150 C   0  0  0  0  0  3  0  0  0  0  0  0
  -29.8340  -18.9250   20.9030 C   0  0  0  0  0  3  0  0  0  0  0  0
  -28.9970  -18.5520   18.2530 C   0  0  0  0  0  0  0  0  0  0  0  0
  -28.9310  -19.8670   18.8180 C   0  0  0  0  0  0  0  0  0  0  0  0
  -29.3790  -20.1010   20.1580 C   0  0  0  0  0  0  0  0  0  0  0  0
  -29.8680  -17.5750   20.3490 C   0  0  0  0  0  0  0  0  0  0  0  0
  -28.3450  -21.0360   18.0110 C   0  0  0  0  0  1  0  0  0  0  0  0
  -30.8960  -15.2060   20.6630 C   0  0  0  0  0  0  0  0  0  0  0  0
  -30.7590  -12.9470   19.6100 C   0  0  0  0  0  2  0  0  0  0  0  0
  -29.8940  -13.0650   18.3330 C   0  0  0  0  0  2  0  0  0  0  0  0
  -28.4010  -12.8950   18.6740 C   0  0  0  0  0  2  0  0  0  0  0  0
  -27.9660  -13.7490   19.8950 C   0  0  0  0  0  3  0  0  0  0  0  0
  -28.9560  -13.6090   21.0720 C   0  0  0  0  0  2  0  0  0  0  0  0
  -30.2890  -13.9710   20.5750 N   0  0  0  0  0  0  0  0  0  0  0  0
  -32.0670  -15.3400   20.2960 O   0  0  0  0  0  0  0  0  0  0  0  0
  -30.1400  -16.3020   21.0670 N   0  0  0  0  0  0  0  0  0  0  0  0
  -29.3620  -16.0130   21.6430 H   0  0  0  0  0  0  0  0  0  0  0  0
  -25.5470  -14.3490   20.5070 C   0  0  0  0  0  0  0  0  0  0  0  0
  -24.4540  -13.5780   20.7980 C   0  0  0  0  0  0  0  0  0  0  0  0
  -24.9050  -12.2230   20.7520 C   0  0  0  0  0  0  0  0  0  0  0  0
  -26.5930  -13.4640   20.2990 N   0  0  0  0  0  0  0  0  0  0  0  0
  -26.2090  -12.1790   20.5080 N   0  0  0  0  0  0  0  0  0  0  0  0
  -24.1560  -10.9640   20.8690 C   0  0  0  0  0  0  0  0  0  0  0  0
  -24.5100   -9.9790   21.8160 C   0  0  0  0  0  3  0  0  0  0  0  0
  -23.7630   -8.7850   21.9190 C   0  0  0  0  0  3  0  0  0  0  0  0
  -22.6480   -8.5700   21.0750 C   0  0  0  0  0  0  0  0  0  0  0  0
  -22.3130   -9.5440   20.1190 C   0  0  0  0  0  3  0  0  0  0  0  0
  -23.0610  -10.7280   20.0130 C   0  0  0  0  0  3  0  0  0  0  0  0
  -21.8810   -7.4300   21.0870 O   0  0  0  0  0  0  0  0  0  0  0  0
  -21.7170   -6.6830   22.2270 C   0  0  0  0  0  0  0  0  0  0  0  0
  -21.1670   -7.2340   23.4050 C   0  0  0  0  0  3  0  0  0  0  0  0
  -20.9510   -6.4130   24.5310 C   0  0  0  0  0  3  0  0  0  0  0  0
  -21.2780   -5.0440   24.4790 C   0  0  0  0  0  0  0  0  0  0  0  0
  -21.8230   -4.4940   23.3050 C   0  0  0  0  0  3  0  0  0  0  0  0
  -22.0380   -5.3110   22.1810 C   0  0  0  0  0  0  0  0  0  0  0  0
  -22.5440   -4.7720   21.0450 F   0  0  0  0  0  0  0  0  0  0  0  0
  -21.0630   -4.2550   25.5570 F   0  0  0  0  0  0  0  0  0  0  0  0
  -23.0510  -14.0660   21.0120 C   0  0  0  0  0  0  0  0  0  0  0  0
  -22.2790  -13.3680   21.8390 N   0  0  0  0  0  0  0  0  0  0  0  0
  -22.6480  -15.1000   20.4830 O   0  0  0  0  0  0  0  0  0  0  0  0
  -22.6160  -12.5310   22.2910 H   0  0  0  0  0  0  0  0  0  0  0  0
  -21.3370  -13.6780   22.0280 H   0  0  0  0  0  0  0  0  0  0  0  0
  -25.7330  -15.7230   20.3830 N   0  0  0  0  0  0  0  0  0  0  0  0
  -24.9630  -16.3750   20.4840 H   0  0  0  0  0  0  0  0  0  0  0  0
  -26.5990  -16.1700   20.1100 H   0  0  0  0  0  0  0  0  0  0  0  0
  -28.5110  -22.4990   20.8190 C   0  0  0  0  0  0  0  0  0  0  0  0
  -30.4860  -23.7340   20.4800 C   0  0  0  0  0  2  0  0  0  0  0  0
  -30.7650  -22.2070   20.6410 C   0  0  0  0  0  2  0  0  0  0  0  0
  -29.0690  -23.9770   21.0160 C   0  0  0  0  0  3  0  0  0  0  0  0
  -29.4760  -21.5190   20.6430 N   0  0  0  0  0  0  0  0  0  0  0  0
  -27.2990  -22.2700   20.8660 O   0  0  0  0  0  0  0  0  0  0  0  0
  -28.2400  -25.2680   20.4390 C   0  0  0  0  0  2  0  0  0  0  0  0
  -28.4960  -26.7340   20.7570 O   0  0  0  0  0  0  0  0  0  0  0  0
  -24.7820  -32.3140   23.6290 C   0  0  0  0  0  0  0  0  0  0  0  0
  -27.4200  -27.6620   20.6550 C   0  0  0  0  0  0  0  0  0  0  0  0
  -23.5990  -30.8810   22.0100 C   0  0  0  0  0  3  0  0  0  0  0  0
  -25.0640  -29.3230   20.6020 C   0  0  0  0  0  0  0  0  0  0  0  0
  -26.1440  -31.1970   21.8350 C   0  0  0  0  0  2  0  0  0  0  0  0
  -26.2340  -29.8060   21.2030 C   0  0  0  0  0  0  0  0  0  0  0  0
  -27.4150  -28.9880   21.2170 C   0  0  0  0  0  3  0  0  0  0  0  0
  -26.2280  -27.2670   20.0050 C   0  0  0  0  0  3  0  0  0  0  0  0
  -25.0690  -28.0630   19.9910 C   0  0  0  0  0  3  0  0  0  0  0  0
  -23.8230  -30.1940   20.6390 C   0  0  0  0  0  2  0  0  0  0  0  0
  -24.8600  -31.4850   22.5450 N   0  0  0  0  0  0  0  0  0  0  0  0
  -23.6930  -32.5930   24.1520 O   0  0  0  0  0  0  0  0  0  0  0  0
  -22.9400  -29.8720   22.9810 C   0  0  0  0  0  0  0  0  0  0  0  0
  -21.6690  -29.5160   22.7190 N   0  0  0  0  0  0  0  0  0  0  0  0
  -23.5730  -29.4100   23.9340 O   0  0  0  0  0  0  0  0  0  0  0  0
  -21.2130  -29.9450   21.9260 H   0  0  0  0  0  0  0  0  0  0  0  0
  -18.4330  -27.9080   22.9160 C   0  0  0  0  0  0  0  0  0  0  0  0
  -20.8740  -28.5510   23.4800 C   0  0  0  0  0  3  0  0  0  0  0  0
  -21.2360  -27.1000   23.0890 C   0  0  0  0  0  2  0  0  0  0  0  0
  -20.3400  -26.5290   21.9850 C   0  0  0  0  0  2  0  0  0  0  0  0
  -18.8740  -26.5380   22.4270 C   0  0  0  0  0  2  0  0  0  0  0  0
  -19.3720  -28.8580   23.3960 C   0  0  0  0  0  0  0  0  0  0  0  0
  -18.9130  -30.1270   23.8090 C   0  0  0  0  0  3  0  0  0  0  0  0
  -17.5450  -30.4520   23.7510 C   0  0  0  0  0  3  0  0  0  0  0  0
  -16.6180  -29.5020   23.2880 C   0  0  0  0  0  3  0  0  0  0  0  0
  -17.0600  -28.2330   22.8770 C   0  0  0  0  0  3  0  0  0  0  0  0
  -26.0540  -32.9710   24.2460 C   0  0  0  0  0  3  0  0  0  0  0  0
  -26.5550  -32.2420   25.5540 C   0  0  1  0  0  0  0  0  0  0  0  0
  -25.4260  -31.9330   26.5650 C   0  0  0  0  0  1  0  0  0  0  0  0
  -27.2550  -30.9080   25.2060 C   0  0  0  0  0  1  0  0  0  0  0  0
  -27.6100  -33.1200   26.2690 C   0  0  0  0  0  1  0  0  0  0  0  0
  -25.7320  -34.3770   24.5320 N   0  0  0  0  0  0  0  0  0  0  0  0
  -26.0240  -35.4060   23.7250 C   0  0  0  0  0  0  0  0  0  0  0  0
  -26.6590  -35.2730   22.6760 O   0  0  0  0  0  0  0  0  0  0  0  0
  -25.1600  -34.5520   25.3440 H   0  0  0  0  0  0  0  0  0  0  0  0
  -24.2490  -37.1570   23.3800 C   0  0  0  0  0  1  0  0  0  0  0  0
  -25.5330  -36.8040   24.1490 C   0  0  0  0  0  3  0  0  0  0  0  0
  -27.6830  -37.7580   24.8500 C   0  0  0  0  0  1  0  0  0  0  0  0
  -26.5400  -37.8680   23.9480 N   0  0  0  0  0  0  0  0  0  0  0  0
  -26.1240  -38.7870   24.0760 H   0  0  0  0  0  0  0  0  0  0  0  0
  -28.5950  -18.2070   16.8580 C   0  0  0  0  0  0  0  0  0  0  0  0
  -27.7200  -17.3640   16.6370 O   0  0  0  0  0  0  0  0  0  0  0  0
  -28.9600  -18.7670   14.4830 C   0  0  0  0  0  2  0  0  0  0  0  0
  -29.3470  -18.8580   15.7680 C   0  0  0  0  0  3  0  0  0  0  0  0
  1  6  1  0
  3  4  1  0
  3  1  2  0
  4  5  2  0
  5 50  1  0
  5  2  1  0
  6  2  2  0
  6 16  1  0
  7  4  1  0
  8 16  1  0
  9 14  1  0
 10 11  1  0
 10  9  1  0
 12 11  1  0
 12 21  1  0
 12 13  1  0
 14  8  1  0
 14 13  1  0
 15  8  2  0
 16 17  1  0
 18 19  2  0
 19 38  1  0
 20 19  1  0
 20 23  1  0
 21 18  1  0
 21 22  1  0
 22 20  2  0
 23 24  1  0
 24 25  2  0
 26 29  1  0
 26 25  1  0
 27 26  2  0
 28 27  1  0
 28 23  2  0
 29 30  1  0
 30 31  1  0
 31 32  2  0
 33 32  1  0
 33 37  1  0
 34 33  2  0
 35 30  2  0
 35 34  1  0
 36 35  1  0
 38 39  1  0
 39 42  1  0
 39 41  1  0
 40 38  2  0
 43 44  1  0
 43 18  1  0
 45 43  1  0
 46 51  2  0
 46 49  1  0
 47 48  1  0
 47 49  1  0
 48 50  1  0
 49 52  1  0
 50 46  1  0
 52 53  1  0
 54 65  2  0
 55 53  1  0
 55 60  1  0
 56 64  1  0
 56 66  1  0
 57 63  1  0
 57 59  1  0
 58 64  1  0
 59 60  2  0
 59 58  1  0
 61 55  2  0
 62 61  1  0
 62 57  2  0
 63 56  1  0
 64 54  1  0
 66 68  2  0
 67 66  1  0
 69 67  1  0
 70 75  1  0
 71 67  1  0
 72 71  1  0
 73 74  1  0
 73 72  1  0
 74 70  1  0
 75 71  1  0
 75 76  2  0
 77 76  1  0
 78 77  2  0
 79 70  2  0
 79 78  1  0
 80 54  1  0
 80 85  1  0
 80 81  1  0
 81 84  1  1
 81 82  1  0
 83 81  1  0
 85 88  1  0
 86 90  1  0
 86 85  1  0
 87 86  2  0
 90 89  1  0
 92 93  1  0
 92 90  1  0
 92 91  1  0
 94  3  1  0
 95 94  2  0
 96 97  2  0
 97 94  1  0
M  ISO  4   8 100  16 100  52 101  53 101
M  END
>  <TORSDO>  (13) 
F 20

>  <SCORE>  (13) 
-10.973

>  <name>  (13) 
12

>  <ligand_id>  (13) 
12

>  <original_smiles>  (13) 
[H]C([H])=C([H])C(=O)c1c([H])c(N([H])C(=O)N2C([H])([H])C([H])([H])C([H])([H])C([H])(n3nc(-c4c([H])c([H])c(Oc5c([H])c([H])c(F)c([H])c5F)c([H])c4[H])c(C(=O)N([H])[H])c3N([H])[H])C2([H])[H])c([H])c(N2C(=O)C([H])(C([H])([H])Oc3c([H])c([H])c4c(c3[H])C([H])([H])N(C(=O)C([H])(N([H])C(=O)C([H])(N([H])C([H])([H])[H])C([H])([H])[H])C(C([H])([H])[H])(C([H])([H])[H])C([H])([H])[H])C([H])(C(=O)N([H])C3([H])c5c([H])c([H])c([H])c([H])c5C([H])([H])C([H])([H])C3([H])[H])C4([H])[H])C([H])([H])C2([H])[H])c1C([H])([H])[H]

>  <smiles>  (13) 
[H]C([H])=C([H])C(=O)c1c([H])c(N([H])C(=O)N2C([H])([H])C([H])([H])C([H])([H])C([H])(n3nc(-c4c([H])c([H])c(Oc5c([H])c([H])c(F)c([H])c5F)c([H])c4[H])c(C(=O)N([H])[H])c3N([H])[H])C2([H])[H])c([H])c(N2C(=O)C([H])(C([H])([H])Oc3c([H])c([H])c4c(c3[H])C([H])([H])N(C(=O)C([H])(N([H])C(=O)C([H])(N([H])C([H])([H])[H])C([H])([H])[H])C(C([H])([H])[H])(C([H])([H])[H])C([H])([H])[H])C([H])(C(=O)N([H])C3([H])c5c([H])c([H])c([H])c([H])c5C([H])([H])C([H])([H])C3([H])[H])C4([H])[H])C([H])([H])C2([H])[H])c1C([H])([H])[H]

$$$$
13:0:0
     RDKit          3D

 95104  0  0  1  0  0  0  0  0999 V2000
  -31.1910  -22.7670   19.0960 C   0  0  0  0  0  0  0  0  0  0  0  0
  -30.7620  -21.2840   19.2530 C   0  0  0  0  0  2  0  0  0  0  0  0
  -28.6180  -22.1690   20.1570 C   0  0  0  0  0  2  0  0  0  0  0  0
  -29.1980  -23.6540   20.3650 C   0  0  0  0  0  3  0  0  0  0  0  0
  -31.0290  -25.1540   19.6110 C   0  0  0  0  0  1  0  0  0  0  0  0
  -29.5640  -20.9900   20.0430 N   0  0  0  0  0  0  0  0  0  0  0  0
  -30.4840  -23.7910   19.6490 N   0  0  0  0  0  0  0  0  0  0  0  0
  -32.2200  -22.9720   18.4460 O   0  0  0  0  0  0  0  0  0  0  0  0
  -27.4500  -17.8560   19.5190 C   0  0  0  0  0  3  0  0  0  0  0  0
  -28.2890  -16.8240   19.9470 C   0  0  0  0  0  3  0  0  0  0  0  0
  -30.0320  -18.4410   20.3480 C   0  0  0  0  0  3  0  0  0  0  0  0
  -27.8670  -19.1990   19.4840 C   0  0  0  0  0  0  0  0  0  0  0  0
  -29.1640  -19.5770   19.9690 C   0  0  0  0  0  0  0  0  0  0  0  0
  -29.6200  -17.0330   20.3040 C   0  0  0  0  0  0  0  0  0  0  0  0
  -26.8400  -20.1390   18.8600 C   0  0  0  0  0  1  0  0  0  0  0  0
  -30.8040  -14.6850   20.1400 C   0  0  0  0  0  0  0  0  0  0  0  0
  -30.5210  -12.3750   19.1950 C   0  0  0  0  0  2  0  0  0  0  0  0
  -29.5630  -12.4160   17.9830 C   0  0  0  0  0  2  0  0  0  0  0  0
  -28.1030  -12.2550   18.4430 C   0  0  0  0  0  2  0  0  0  0  0  0
  -27.7560  -13.1940   19.6250 C   0  0  0  0  0  3  0  0  0  0  0  0
  -28.8370  -13.1530   20.7380 C   0  0  0  0  0  2  0  0  0  0  0  0
  -30.1440  -13.4670   20.1330 N   0  0  0  0  0  0  0  0  0  0  0  0
  -31.8990  -14.7850   19.5790 O   0  0  0  0  0  0  0  0  0  0  0  0
  -30.2550  -15.7780   20.7990 N   0  0  0  0  0  0  0  0  0  0  0  0
  -29.6660  -15.3810   21.5160 H   0  0  0  0  0  0  0  0  0  0  0  0
  -25.3930  -13.8420   20.4250 C   0  0  0  0  0  0  0  0  0  0  0  0
  -24.3270  -13.0990   20.8410 C   0  0  0  0  0  0  0  0  0  0  0  0
  -24.7530  -11.7390   20.7810 C   0  0  0  0  0  0  0  0  0  0  0  0
  -26.4150  -12.9420   20.1540 N   0  0  0  0  0  0  0  0  0  0  0  0
  -26.0310  -11.6680   20.4270 N   0  0  0  0  0  0  0  0  0  0  0  0
  -23.9920  -10.5030   20.9810 C   0  0  0  0  0  0  0  0  0  0  0  0
  -24.4140   -9.5150   21.8980 C   0  0  0  0  0  3  0  0  0  0  0  0
  -23.6500   -8.3450   22.0880 C   0  0  0  0  0  3  0  0  0  0  0  0
  -22.4520   -8.1540   21.3570 C   0  0  0  0  0  0  0  0  0  0  0  0
  -22.0490   -9.1290   20.4280 C   0  0  0  0  0  3  0  0  0  0  0  0
  -22.8140  -10.2910   20.2370 C   0  0  0  0  0  3  0  0  0  0  0  0
  -21.6630   -7.0330   21.4540 O   0  0  0  0  0  0  0  0  0  0  0  0
  -21.6110   -6.2860   22.6030 C   0  0  0  0  0  0  0  0  0  0  0  0
  -21.2130   -6.8450   23.8370 C   0  0  0  0  0  3  0  0  0  0  0  0
  -21.1080   -6.0280   24.9800 C   0  0  0  0  0  3  0  0  0  0  0  0
  -21.3910   -4.6510   24.8910 C   0  0  0  0  0  0  0  0  0  0  0  0
  -21.7830   -4.0910   23.6620 C   0  0  0  0  0  3  0  0  0  0  0  0
  -21.8900   -4.9070   22.5210 C   0  0  0  0  0  0  0  0  0  0  0  0
  -22.2470   -4.3580   21.3340 F   0  0  0  0  0  0  0  0  0  0  0  0
  -21.2830   -3.8640   25.9860 F   0  0  0  0  0  0  0  0  0  0  0  0
  -22.9580  -13.6230   21.1650 C   0  0  0  0  0  0  0  0  0  0  0  0
  -22.2420  -12.9570   22.0620 N   0  0  0  0  0  0  0  0  0  0  0  0
  -22.5360  -14.6630   20.6590 O   0  0  0  0  0  0  0  0  0  0  0  0
  -22.5930  -12.1150   22.4940 H   0  0  0  0  0  0  0  0  0  0  0  0
  -21.3260  -13.2950   22.3190 H   0  0  0  0  0  0  0  0  0  0  0  0
  -25.5390  -15.2050   20.2290 N   0  0  0  0  0  0  0  0  0  0  0  0
  -24.7480  -15.8280   20.3460 H   0  0  0  0  0  0  0  0  0  0  0  0
  -26.3120  -15.6350   19.7400 H   0  0  0  0  0  0  0  0  0  0  0  0
  -28.1340  -24.8370   20.0010 C   0  0  0  0  0  2  0  0  0  0  0  0
  -28.3330  -26.3060   20.2650 O   0  0  0  0  0  0  0  0  0  0  0  0
  -24.5720  -31.7980   23.1490 C   0  0  0  0  0  0  0  0  0  0  0  0
  -27.2250  -27.1830   20.1730 C   0  0  0  0  0  0  0  0  0  0  0  0
  -23.3900  -30.3840   21.5080 C   0  0  0  0  0  3  0  0  0  0  0  0
  -24.8600  -28.8180   20.1120 C   0  0  0  0  0  0  0  0  0  0  0  0
  -25.9330  -30.6950   21.3530 C   0  0  0  0  0  2  0  0  0  0  0  0
  -26.0220  -29.3070   20.7220 C   0  0  0  0  0  0  0  0  0  0  0  0
  -27.2060  -28.5000   20.7420 C   0  0  0  0  0  3  0  0  0  0  0  0
  -26.0370  -26.7640   19.5270 C   0  0  0  0  0  3  0  0  0  0  0  0
  -24.8720  -27.5540   19.5050 C   0  0  0  0  0  3  0  0  0  0  0  0
  -23.6230  -29.6950   20.1360 C   0  0  0  0  0  2  0  0  0  0  0  0
  -24.6500  -30.9780   22.0610 N   0  0  0  0  0  0  0  0  0  0  0  0
  -23.4820  -32.0800   23.6680 O   0  0  0  0  0  0  0  0  0  0  0  0
  -22.7140  -29.3770   22.4710 C   0  0  0  0  0  0  0  0  0  0  0  0
  -21.3810  -29.2340   22.3600 N   0  0  0  0  0  0  0  0  0  0  0  0
  -23.3860  -28.7310   23.2780 O   0  0  0  0  0  0  0  0  0  0  0  0
  -20.8990  -29.8040   21.6790 H   0  0  0  0  0  0  0  0  0  0  0  0
  -17.9800  -28.1340   22.9170 C   0  0  0  0  0  0  0  0  0  0  0  0
  -20.5500  -28.3120   23.1350 C   0  0  0  0  0  3  0  0  0  0  0  0
  -20.5960  -26.8860   22.5380 C   0  0  0  0  0  2  0  0  0  0  0  0
  -19.4630  -26.6120   21.5440 C   0  0  0  0  0  2  0  0  0  0  0  0
  -18.1000  -26.7910   22.2200 C   0  0  0  0  0  2  0  0  0  0  0  0
  -19.1300  -28.8550   23.3340 C   0  0  0  0  0  0  0  0  0  0  0  0
  -18.9630  -30.1150   23.9500 C   0  0  0  0  0  3  0  0  0  0  0  0
  -17.6780  -30.6520   24.1530 C   0  0  0  0  0  3  0  0  0  0  0  0
  -16.5420  -29.9290   23.7510 C   0  0  0  0  0  3  0  0  0  0  0  0
  -16.6940  -28.6710   23.1380 C   0  0  0  0  0  3  0  0  0  0  0  0
  -25.8470  -32.4370   23.7800 C   0  0  0  0  0  3  0  0  0  0  0  0
  -25.5240  -33.8310   24.1210 N   0  0  0  0  0  0  0  0  0  0  0  0
  -25.8600  -34.8930   23.3770 C   0  0  0  0  0  0  0  0  0  0  0  0
  -26.5430  -34.8040   22.3530 O   0  0  0  0  0  0  0  0  0  0  0  0
  -24.9200  -33.9730   24.9170 H   0  0  0  0  0  0  0  0  0  0  0  0
  -24.1390  -36.6910   23.0050 C   0  0  0  0  0  1  0  0  0  0  0  0
  -25.3590  -36.2740   23.8430 C   0  0  0  0  0  3  0  0  0  0  0  0
  -27.4670  -37.1510   24.7480 C   0  0  0  0  0  1  0  0  0  0  0  0
  -26.3910  -37.3310   23.7750 N   0  0  0  0  0  0  0  0  0  0  0  0
  -25.9800  -38.2470   23.9260 H   0  0  0  0  0  0  0  0  0  0  0  0
  -26.3640  -31.6620   25.0550 C   0  0  1  0  0  0  0  0  0  0  0  0
  -25.2680  -31.4100   26.1170 C   0  0  0  0  0  1  0  0  0  0  0  0
  -26.9580  -30.2900   24.6570 C   0  0  0  0  0  1  0  0  0  0  0  0
  -27.5050  -32.4600   25.7270 C   0  0  0  0  0  1  0  0  0  0  0  0
  1  2  1  0
  1  7  1  0
  2  6  1  0
  3  4  1  0
  4 54  1  0
  5  7  1  0
  6  3  1  0
  7  4  1  0
  8  1  2  0
  9 10  1  0
 10 14  2  0
 12  9  2  0
 12 13  1  0
 13  6  1  0
 13 11  2  0
 14 11  1  0
 14 24  1  0
 15 12  1  0
 16 24  1  0
 17 22  1  0
 18 19  1  0
 18 17  1  0
 20 19  1  0
 20 29  1  0
 20 21  1  0
 22 16  1  0
 22 21  1  0
 23 16  2  0
 24 25  1  0
 26 27  2  0
 27 46  1  0
 28 27  1  0
 28 31  1  0
 29 26  1  0
 29 30  1  0
 30 28  2  0
 31 32  1  0
 32 33  2  0
 34 37  1  0
 34 33  1  0
 35 34  2  0
 36 35  1  0
 36 31  2  0
 37 38  1  0
 38 39  1  0
 39 40  2  0
 41 40  1  0
 41 45  1  0
 42 41  2  0
 43 38  2  0
 43 42  1  0
 44 43  1  0
 46 47  1  0
 47 50  1  0
 47 49  1  0
 48 46  2  0
 51 52  1  0
 51 26  1  0
 53 51  1  0
 54 55  1  0
 56 67  2  0
 57 55  1  0
 57 62  1  0
 58 66  1  0
 58 68  1  0
 59 65  1  0
 59 61  1  0
 60 66  1  0
 61 62  2  0
 61 60  1  0
 63 57  2  0
 64 63  1  0
 64 59  2  0
 65 58  1  0
 66 56  1  0
 68 70  2  0
 69 68  1  0
 71 69  1  0
 72 81  2  0
 72 77  1  0
 73 69  1  0
 73 77  1  0
 74 73  1  0
 75 76  1  0
 75 74  1  0
 76 72  1  0
 77 78  2  0
 78 79  1  0
 80 79  2  0
 81 80  1  0
 82 56  1  0
 82 83  1  0
 82 92  1  0
 83 86  1  0
 84 88  1  0
 84 83  1  0
 85 84  2  0
 88 87  1  0
 90 88  1  0
 90 91  1  0
 90 89  1  0
 92 95  1  1
 92 93  1  0
 94 92  1  0
M  ISO  4  16 100  24 100  54 101  55 101
M  END
>  <TORSDO>  (14) 
F 18

>  <SCORE>  (14) 
-14.931

>  <name>  (14) 
13

>  <ligand_id>  (14) 
13

>  <original_smiles>  (14) 
[H]c1c([H])c([H])c2c(c1[H])C([H])([H])C([H])([H])C([H])([H])C2([H])N([H])C(=O)C1([H])N(C(=O)C([H])(N([H])C(=O)C([H])(N([H])C([H])([H])[H])C([H])([H])[H])C(C([H])([H])[H])(C([H])([H])[H])C([H])([H])[H])C([H])([H])c2c([H])c(OC([H])([H])C3([H])N(C([H])([H])[H])C(=O)C([H])([H])N(c4c([H])c(N([H])C(=O)N5C([H])([H])C([H])([H])C([H])([H])C([H])(n6nc(-c7c([H])c([H])c(Oc8c([H])c([H])c(F)c([H])c8F)c([H])c7[H])c(C(=O)N([H])[H])c6N([H])[H])C5([H])[H])c([H])c([H])c4C([H])([H])[H])C3([H])[H])c([H])c([H])c2C1([H])[H]

>  <smiles>  (14) 
[H]c1c([H])c([H])c2c(c1[H])C([H])([H])C([H])([H])C([H])([H])C2([H])N([H])C(=O)C1([H])N(C(=O)C([H])(N([H])C(=O)C([H])(N([H])C([H])([H])[H])C([H])([H])[H])C(C([H])([H])[H])(C([H])([H])[H])C([H])([H])[H])C([H])([H])c2c([H])c(OC([H])([H])C3([H])N(C([H])([H])[H])C(=O)C([H])([H])N(c4c([H])c(N([H])C(=O)N5C([H])([H])C([H])([H])C([H])([H])C([H])(n6nc(-c7c([H])c([H])c(Oc8c([H])c([H])c(F)c([H])c8F)c([H])c7[H])c(C(=O)N([H])[H])c6N([H])[H])C5([H])[H])c([H])c([H])c4C([H])([H])[H])C3([H])[H])c([H])c([H])c2C1([H])[H]

$$$$
14:0:0
     RDKit          3D

 87 94  0  0  1  0  0  0  0  0999 V2000
  -28.9820  -22.8110   20.4270 C   0  0  0  0  0  0  0  0  0  0  0  0
  -29.1910  -21.4150   19.8720 N   0  0  0  0  0  0  0  0  0  0  0  0
  -29.5590  -23.0810   21.4850 O   0  0  0  0  0  0  0  0  0  0  0  0
  -28.8930  -21.3650   18.9100 H   0  0  0  0  0  0  0  0  0  0  0  0
  -29.7050  -20.0950   20.3720 C   0  0  0  0  0  0  0  0  0  0  0  0
  -30.1730  -19.9990   21.9820 S   0  0  0  0  0  0  0  0  0  0  0  0
  -29.9170  -18.4830   19.5950 C   0  0  0  0  0  2  0  0  0  0  0  0
  -30.6590  -15.5350   19.7670 C   0  0  0  0  0  0  0  0  0  0  0  0
  -30.6200  -13.0540   18.9500 C   0  0  0  0  0  2  0  0  0  0  0  0
  -29.6330  -12.8000   17.7800 C   0  0  0  0  0  2  0  0  0  0  0  0
  -28.2180  -12.5160   18.3110 C   0  0  0  0  0  2  0  0  0  0  0  0
  -27.8240  -13.4950   19.4450 C   0  0  0  0  0  3  0  0  0  0  0  0
  -28.9350  -13.6850   20.5010 C   0  0  0  0  0  2  0  0  0  0  0  0
  -30.1150  -14.2090   19.7900 N   0  0  0  0  0  0  0  0  0  0  0  0
  -31.8480  -15.5340   19.4140 O   0  0  0  0  0  0  0  0  0  0  0  0
  -29.8910  -16.8110   19.9420 N   0  0  0  0  0  0  0  0  0  0  0  0
  -28.9780  -16.5740   20.3020 H   0  0  0  0  0  0  0  0  0  0  0  0
  -25.5280  -14.0540   20.3950 C   0  0  0  0  0  0  0  0  0  0  0  0
  -24.4840  -13.2790   20.8120 C   0  0  0  0  0  0  0  0  0  0  0  0
  -24.9220  -11.9240   20.6930 C   0  0  0  0  0  0  0  0  0  0  0  0
  -26.5340  -13.1730   20.0390 N   0  0  0  0  0  0  0  0  0  0  0  0
  -26.1870  -11.8830   20.2850 N   0  0  0  0  0  0  0  0  0  0  0  0
  -24.1870  -10.6660   20.8860 C   0  0  0  0  0  0  0  0  0  0  0  0
  -24.6020   -9.7030   21.8310 C   0  0  0  0  0  3  0  0  0  0  0  0
  -23.8640   -8.5140   22.0130 C   0  0  0  0  0  3  0  0  0  0  0  0
  -22.6960   -8.2780   21.2510 C   0  0  0  0  0  0  0  0  0  0  0  0
  -22.2980   -9.2310   20.2950 C   0  0  0  0  0  3  0  0  0  0  0  0
  -23.0380  -10.4110   20.1100 C   0  0  0  0  0  3  0  0  0  0  0  0
  -21.9310   -7.1400   21.3410 O   0  0  0  0  0  0  0  0  0  0  0  0
  -21.7940   -6.4580   22.5230 C   0  0  0  0  0  0  0  0  0  0  0  0
  -21.2400   -7.0610   23.6730 C   0  0  0  0  0  3  0  0  0  0  0  0
  -21.0530   -6.3030   24.8450 C   0  0  0  0  0  3  0  0  0  0  0  0
  -21.4100   -4.9420   24.8690 C   0  0  0  0  0  0  0  0  0  0  0  0
  -21.9570   -4.3380   23.7230 C   0  0  0  0  0  3  0  0  0  0  0  0
  -22.1450   -5.0940   22.5530 C   0  0  0  0  0  0  0  0  0  0  0  0
  -22.6530   -4.5000   21.4450 F   0  0  0  0  0  0  0  0  0  0  0  0
  -21.2250   -4.2110   25.9930 F   0  0  0  0  0  0  0  0  0  0  0  0
  -23.1180  -13.7660   21.1990 C   0  0  0  0  0  0  0  0  0  0  0  0
  -22.4490  -13.0610   22.1030 N   0  0  0  0  0  0  0  0  0  0  0  0
  -22.6590  -14.8100   20.7350 O   0  0  0  0  0  0  0  0  0  0  0  0
  -22.8370  -12.2190   22.4990 H   0  0  0  0  0  0  0  0  0  0  0  0
  -21.5360  -13.3710   22.4050 H   0  0  0  0  0  0  0  0  0  0  0  0
  -25.6990  -15.4280   20.2580 N   0  0  0  0  0  0  0  0  0  0  0  0
  -24.9480  -16.0840   20.4460 H   0  0  0  0  0  0  0  0  0  0  0  0
  -26.5110  -15.8660   19.8410 H   0  0  0  0  0  0  0  0  0  0  0  0
  -28.0380  -24.2170   19.8790 C   0  0  0  0  0  2  0  0  0  0  0  0
  -28.1870  -25.8490   20.2470 O   0  0  0  0  0  0  0  0  0  0  0  0
  -24.6300  -31.9180   23.1010 C   0  0  0  0  0  0  0  0  0  0  0  0
  -27.1850  -26.9700   20.1340 C   0  0  0  0  0  0  0  0  0  0  0  0
  -23.4310  -30.4890   21.4950 C   0  0  0  0  0  3  0  0  0  0  0  0
  -24.8770  -28.8680   20.0780 C   0  0  0  0  0  0  0  0  0  0  0  0
  -25.9970  -30.7010   21.3260 C   0  0  0  0  0  2  0  0  0  0  0  0
  -26.0690  -29.2780   20.6890 C   0  0  0  0  0  0  0  0  0  0  0  0
  -27.2120  -28.3500   20.6940 C   0  0  0  0  0  3  0  0  0  0  0  0
  -25.9660  -26.7290   19.4600 C   0  0  0  0  0  3  0  0  0  0  0  0
  -24.8550  -27.6150   19.4410 C   0  0  0  0  0  3  0  0  0  0  0  0
  -23.6540  -29.7850   20.1270 C   0  0  0  0  0  2  0  0  0  0  0  0
  -24.7080  -31.0660   22.0260 N   0  0  0  0  0  0  0  0  0  0  0  0
  -23.5430  -32.2110   23.6270 O   0  0  0  0  0  0  0  0  0  0  0  0
  -22.7490  -29.5070   22.4840 C   0  0  0  0  0  0  0  0  0  0  0  0
  -21.4230  -29.3130   22.3580 N   0  0  0  0  0  0  0  0  0  0  0  0
  -23.4220  -28.9190   23.3340 O   0  0  0  0  0  0  0  0  0  0  0  0
  -20.9310  -29.8390   21.6490 H   0  0  0  0  0  0  0  0  0  0  0  0
  -18.0740  -28.0050   22.8520 C   0  0  0  0  0  0  0  0  0  0  0  0
  -20.6160  -28.3770   23.1500 C   0  0  0  0  0  3  0  0  0  0  0  0
  -20.7810  -26.9280   22.6350 C   0  0  0  0  0  2  0  0  0  0  0  0
  -19.7110  -26.5250   21.6140 C   0  0  0  0  0  2  0  0  0  0  0  0
  -18.3140  -26.6400   22.2280 C   0  0  0  0  0  2  0  0  0  0  0  0
  -19.1540  -28.8270   23.2700 C   0  0  0  0  0  0  0  0  0  0  0  0
  -18.8740  -30.0970   23.8170 C   0  0  0  0  0  3  0  0  0  0  0  0
  -17.5470  -30.5500   23.9470 C   0  0  0  0  0  3  0  0  0  0  0  0
  -16.4810  -29.7280   23.5420 C   0  0  0  0  0  3  0  0  0  0  0  0
  -16.7450  -28.4570   23.0010 C   0  0  0  0  0  3  0  0  0  0  0  0
  -25.9010  -32.5820   23.7120 C   0  0  0  0  0  3  0  0  0  0  0  0
  -26.4610  -31.8040   24.9690 C   0  0  1  0  0  0  0  0  0  0  0  0
  -25.3930  -31.5140   26.0490 C   0  0  0  0  0  1  0  0  0  0  0  0
  -27.0820  -30.4520   24.5520 C   0  0  0  0  0  1  0  0  0  0  0  0
  -27.5960  -32.6220   25.6270 C   0  0  0  0  0  1  0  0  0  0  0  0
  -25.5570  -33.9640   24.0880 N   0  0  0  0  0  0  0  0  0  0  0  0
  -25.8640  -35.0550   23.3730 C   0  0  0  0  0  0  0  0  0  0  0  0
  -26.5270  -35.0040   22.3350 O   0  0  0  0  0  0  0  0  0  0  0  0
  -24.9640  -34.0750   24.8980 H   0  0  0  0  0  0  0  0  0  0  0  0
  -24.1150  -36.8480   23.0910 C   0  0  0  0  0  1  0  0  0  0  0  0
  -25.3580  -36.4190   23.8890 C   0  0  0  0  0  3  0  0  0  0  0  0
  -27.4690  -37.3040   24.7800 C   0  0  0  0  0  1  0  0  0  0  0  0
  -26.3780  -37.4890   23.8290 N   0  0  0  0  0  0  0  0  0  0  0  0
  -25.9570  -38.3990   24.0020 H   0  0  0  0  0  0  0  0  0  0  0  0
  1  3  2  0
  2  5  1  0
  2  1  1  0
  4  2  1  0
  5  6  2  0
  7 16  1  0
  7  5  1  0
  8 14  1  0
  8 16  1  0
  9 14  1  0
 10 11  1  0
 10  9  1  0
 12 11  1  0
 12 21  1  0
 12 13  1  0
 14 13  1  0
 15  8  2  0
 16 17  1  0
 18 19  2  0
 19 38  1  0
 20 19  1  0
 20 23  1  0
 21 22  1  0
 21 18  1  0
 22 20  2  0
 23 24  1  0
 24 25  2  0
 26 29  1  0
 26 25  1  0
 27 26  2  0
 28 27  1  0
 28 23  2  0
 29 30  1  0
 30 35  2  0
 30 31  1  0
 31 32  2  0
 32 33  1  0
 33 37  1  0
 34 33  2  0
 35 34  1  0
 36 35  1  0
 38 39  1  0
 39 42  1  0
 39 41  1  0
 40 38  2  0
 43 18  1  0
 43 44  1  0
 45 43  1  0
 46 47  1  0
 46  1  1  0
 48 59  2  0
 49 47  1  0
 49 54  1  0
 50 58  1  0
 50 60  1  0
 51 57  1  0
 51 53  1  0
 52 58  1  0
 53 54  2  0
 53 52  1  0
 55 49  2  0
 56 55  1  0
 56 51  2  0
 57 50  1  0
 58 48  1  0
 60 62  2  0
 61 60  1  0
 63 61  1  0
 64 73  2  0
 64 69  1  0
 65 61  1  0
 65 69  1  0
 66 65  1  0
 67 68  1  0
 67 66  1  0
 68 64  1  0
 69 70  2  0
 70 71  1  0
 72 71  2  0
 73 72  1  0
 74 48  1  0
 74 79  1  0
 74 75  1  0
 75 78  1  1
 75 76  1  0
 77 75  1  0
 79 82  1  0
 80 84  1  0
 80 79  1  0
 81 80  2  0
 84 83  1  0
 86 84  1  0
 86 87  1  0
 86 85  1  0
M  ISO  4   8 100  16 100  46 101  47 101
M  END
>  <TORSDO>  (15) 
F 19

>  <SCORE>  (15) 
-15.279

>  <name>  (15) 
14

>  <ligand_id>  (15) 
14

>  <original_smiles>  (15) 
[H]c1c([H])c([H])c2c(c1[H])C([H])([H])C([H])([H])C([H])([H])C2([H])N([H])C(=O)C1([H])N(C(=O)C([H])(N([H])C(=O)C([H])(N([H])C([H])([H])[H])C([H])([H])[H])C(C([H])([H])[H])(C([H])([H])[H])C([H])([H])[H])C([H])([H])c2c([H])c(OC([H])([H])C(=O)N([H])C(=S)C([H])([H])N([H])C(=O)N3C([H])([H])C([H])([H])C([H])([H])C([H])(n4nc(-c5c([H])c([H])c(Oc6c([H])c([H])c(F)c([H])c6F)c([H])c5[H])c(C(=O)N([H])[H])c4N([H])[H])C3([H])[H])c([H])c([H])c2C1([H])[H]

>  <smiles>  (15) 
[H]c1c([H])c([H])c2c(c1[H])C([H])([H])C([H])([H])C([H])([H])C2([H])N([H])C(=O)C1([H])N(C(=O)C([H])(N([H])C(=O)C([H])(N([H])C([H])([H])[H])C([H])([H])[H])C(C([H])([H])[H])(C([H])([H])[H])C([H])([H])[H])C([H])([H])c2c([H])c(OC([H])([H])C(=O)N([H])C(=S)C([H])([H])N([H])C(=O)N3C([H])([H])C([H])([H])C([H])([H])C([H])(n4nc(-c5c([H])c([H])c(Oc6c([H])c([H])c(F)c([H])c6F)c([H])c5[H])c(C(=O)N([H])[H])c4N([H])[H])C3([H])[H])c([H])c([H])c2C1([H])[H]

$$$$
15:0:0
     RDKit          3D

 99108  0  0  1  0  0  0  0  0999 V2000
  -28.9080  -18.1050   18.0210 C   0  0  0  0  0  3  0  0  0  0  0  0
  -29.2820  -17.0260   18.8350 C   0  0  0  0  0  3  0  0  0  0  0  0
  -29.6170  -18.5980   20.6620 C   0  0  0  0  0  3  0  0  0  0  0  0
  -28.8800  -19.4400   18.4850 C   0  0  0  0  0  0  0  0  0  0  0  0
  -29.2450  -19.7550   19.8370 C   0  0  0  0  0  0  0  0  0  0  0  0
  -29.6450  -17.2150   20.1810 C   0  0  0  0  0  0  0  0  0  0  0  0
  -30.6330  -14.8640   20.6200 C   0  0  0  0  0  0  0  0  0  0  0  0
  -30.5100  -12.5690   19.6510 C   0  0  0  0  0  2  0  0  0  0  0  0
  -29.6330  -12.6280   18.3790 C   0  0  0  0  0  2  0  0  0  0  0  0
  -28.1440  -12.4500   18.7350 C   0  0  0  0  0  2  0  0  0  0  0  0
  -27.7070  -13.3400   19.9280 C   0  0  0  0  0  3  0  0  0  0  0  0
  -28.7080  -13.2670   21.1020 C   0  0  0  0  0  2  0  0  0  0  0  0
  -30.0350  -13.6230   20.5810 N   0  0  0  0  0  0  0  0  0  0  0  0
  -31.8020  -14.9910   20.2410 O   0  0  0  0  0  0  0  0  0  0  0  0
  -29.8770  -15.9760   20.9660 N   0  0  0  0  0  0  0  0  0  0  0  0
  -29.1100  -15.7530   21.5840 H   0  0  0  0  0  0  0  0  0  0  0  0
  -25.2800  -13.9140   20.5280 C   0  0  0  0  0  0  0  0  0  0  0  0
  -24.2050  -13.1340   20.8600 C   0  0  0  0  0  0  0  0  0  0  0  0
  -24.6820  -11.7860   20.8700 C   0  0  0  0  0  0  0  0  0  0  0  0
  -26.3410  -13.0420   20.3520 N   0  0  0  0  0  0  0  0  0  0  0  0
  -25.9860  -11.7590   20.6190 N   0  0  0  0  0  0  0  0  0  0  0  0
  -23.9610  -10.5190   21.0460 C   0  0  0  0  0  0  0  0  0  0  0  0
  -24.3590   -9.5680   22.0110 C   0  0  0  0  0  3  0  0  0  0  0  0
  -23.6350   -8.3670   22.1720 C   0  0  0  0  0  3  0  0  0  0  0  0
  -22.4990   -8.1080   21.3680 C   0  0  0  0  0  0  0  0  0  0  0  0
  -22.1210   -9.0480   20.3920 C   0  0  0  0  0  3  0  0  0  0  0  0
  -22.8470  -10.2390   20.2300 C   0  0  0  0  0  3  0  0  0  0  0  0
  -21.7520   -6.9570   21.4380 O   0  0  0  0  0  0  0  0  0  0  0  0
  -21.6540   -6.2310   22.5990 C   0  0  0  0  0  0  0  0  0  0  0  0
  -21.1370   -6.7910   23.7870 C   0  0  0  0  0  3  0  0  0  0  0  0
  -20.9880   -5.9890   24.9370 C   0  0  0  0  0  3  0  0  0  0  0  0
  -21.3470   -4.6290   24.8980 C   0  0  0  0  0  0  0  0  0  0  0  0
  -21.8570   -4.0690   23.7140 C   0  0  0  0  0  3  0  0  0  0  0  0
  -22.0070   -4.8680   22.5660 C   0  0  0  0  0  0  0  0  0  0  0  0
  -22.4790   -4.3180   21.4210 F   0  0  0  0  0  0  0  0  0  0  0  0
  -21.1970   -3.8570   25.9990 F   0  0  0  0  0  0  0  0  0  0  0  0
  -22.7910  -13.5990   21.0590 C   0  0  0  0  0  0  0  0  0  0  0  0
  -22.0290  -12.9070   21.8980 N   0  0  0  0  0  0  0  0  0  0  0  0
  -22.3700  -14.6180   20.5090 O   0  0  0  0  0  0  0  0  0  0  0  0
  -22.3800  -12.0840   22.3660 H   0  0  0  0  0  0  0  0  0  0  0  0
  -21.0800  -13.2040   22.0770 H   0  0  0  0  0  0  0  0  0  0  0  0
  -25.4420  -15.2820   20.3400 N   0  0  0  0  0  0  0  0  0  0  0  0
  -24.6690  -15.9350   20.4130 H   0  0  0  0  0  0  0  0  0  0  0  0
  -26.3020  -15.7240   20.0470 H   0  0  0  0  0  0  0  0  0  0  0  0
  -28.4650  -20.4160   17.4630 C   0  0  0  0  0  0  0  0  0  0  0  0
  -29.1610  -20.5410   16.3350 N   0  0  0  0  0  4  0  0  0  0  0  0
  -27.3520  -21.1320   17.5990 N   0  0  0  0  0  0  0  0  0  0  0  0
  -30.0080  -20.0030   16.2180 H   0  0  0  0  0  0  0  0  0  0  0  0
  -28.9070  -21.1810   15.6000 H   0  0  0  0  0  0  0  0  0  0  0  0
  -26.8670  -21.1110   18.4920 H   0  0  0  0  0  0  0  0  0  0  0  0
  -26.9460  -21.6600   16.8440 H   0  0  0  0  0  0  0  0  0  0  0  0
  -28.4050  -22.1720   20.4390 C   0  0  0  0  0  0  0  0  0  0  0  0
  -30.3600  -23.3990   20.0130 C   0  0  0  0  0  2  0  0  0  0  0  0
  -30.6530  -21.8810   20.2230 C   0  0  0  0  0  2  0  0  0  0  0  0
  -28.9570  -23.6560   20.5850 C   0  0  0  0  0  3  0  0  0  0  0  0
  -29.3630  -21.1930   20.2610 N   0  0  0  0  0  0  0  0  0  0  0  0
  -27.1960  -21.9280   20.4810 O   0  0  0  0  0  0  0  0  0  0  0  0
  -28.1010  -24.9270   19.9990 C   0  0  0  0  0  2  0  0  0  0  0  0
  -28.3410  -26.4040   20.2900 O   0  0  0  0  0  0  0  0  0  0  0  0
  -24.6290  -31.9340   23.2590 C   0  0  0  0  0  0  0  0  0  0  0  0
  -27.2620  -27.3290   20.2030 C   0  0  0  0  0  0  0  0  0  0  0  0
  -23.4430  -30.5330   21.6140 C   0  0  0  0  0  3  0  0  0  0  0  0
  -24.9050  -28.9950   20.1800 C   0  0  0  0  0  0  0  0  0  0  0  0
  -25.9870  -30.8460   21.4460 C   0  0  0  0  0  2  0  0  0  0  0  0
  -26.0750  -29.4660   20.7910 C   0  0  0  0  0  0  0  0  0  0  0  0
  -27.2550  -28.6450   20.7910 C   0  0  0  0  0  3  0  0  0  0  0  0
  -26.0690  -26.9480   19.5450 C   0  0  0  0  0  3  0  0  0  0  0  0
  -24.9100  -27.7460   19.5460 C   0  0  0  0  0  3  0  0  0  0  0  0
  -23.6660  -29.8690   20.2310 C   0  0  0  0  0  2  0  0  0  0  0  0
  -24.7050  -31.1230   22.1620 N   0  0  0  0  0  0  0  0  0  0  0  0
  -23.5400  -32.2050   23.7870 O   0  0  0  0  0  0  0  0  0  0  0  0
  -22.7800  -29.5080   22.5700 C   0  0  0  0  0  0  0  0  0  0  0  0
  -21.4580  -29.3110   22.4260 N   0  0  0  0  0  0  0  0  0  0  0  0
  -23.4560  -28.8960   23.4000 O   0  0  0  0  0  0  0  0  0  0  0  0
  -20.9710  -29.8570   21.7290 H   0  0  0  0  0  0  0  0  0  0  0  0
  -18.0910  -28.0610   22.8910 C   0  0  0  0  0  0  0  0  0  0  0  0
  -20.6430  -28.3640   23.1890 C   0  0  0  0  0  3  0  0  0  0  0  0
  -20.7740  -26.9320   22.6200 C   0  0  0  0  0  2  0  0  0  0  0  0
  -19.6900  -26.5890   21.5940 C   0  0  0  0  0  2  0  0  0  0  0  0
  -18.2970  -26.7130   22.2200 C   0  0  0  0  0  2  0  0  0  0  0  0
  -19.1920  -28.8430   23.3310 C   0  0  0  0  0  0  0  0  0  0  0  0
  -18.9450  -30.1030   23.9180 C   0  0  0  0  0  3  0  0  0  0  0  0
  -17.6310  -30.5820   24.0690 C   0  0  0  0  0  3  0  0  0  0  0  0
  -16.5440  -29.7970   23.6440 C   0  0  0  0  0  3  0  0  0  0  0  0
  -16.7750  -28.5400   23.0600 C   0  0  0  0  0  3  0  0  0  0  0  0
  -25.9010  -32.5770   23.8900 C   0  0  0  0  0  3  0  0  0  0  0  0
  -26.3990  -31.8260   25.1860 C   0  0  1  0  0  0  0  0  0  0  0  0
  -25.2890  -31.6050   26.2400 C   0  0  0  0  0  1  0  0  0  0  0  0
  -26.9900  -30.4440   24.8260 C   0  0  0  0  0  1  0  0  0  0  0  0
  -27.5370  -32.6340   25.8530 C   0  0  0  0  0  1  0  0  0  0  0  0
  -25.5850  -33.9800   24.1980 N   0  0  0  0  0  0  0  0  0  0  0  0
  -25.9090  -35.0240   23.4230 C   0  0  0  0  0  0  0  0  0  0  0  0
  -26.5740  -34.9100   22.3900 O   0  0  0  0  0  0  0  0  0  0  0  0
  -24.9910  -34.1420   24.9980 H   0  0  0  0  0  0  0  0  0  0  0  0
  -24.1680  -36.8050   23.0560 C   0  0  0  0  0  1  0  0  0  0  0  0
  -25.4170  -36.4170   23.8640 C   0  0  0  0  0  3  0  0  0  0  0  0
  -27.5520  -37.3260   24.6710 C   0  0  0  0  0  1  0  0  0  0  0  0
  -26.4450  -37.4730   23.7300 N   0  0  0  0  0  0  0  0  0  0  0  0
  -26.0330  -38.3930   23.8650 H   0  0  0  0  0  0  0  0  0  0  0  0
  1  4  2  0
  1  2  1  0
  2  6  2  0
  4  5  1  0
  5 56  1  0
  5  3  2  0
  6  3  1  0
  6 15  1  0
  7 15  1  0
  8 13  1  0
  9 10  1  0
  9  8  1  0
 11 10  1  0
 11 20  1  0
 11 12  1  0
 13  7  1  0
 13 12  1  0
 14  7  2  0
 15 16  1  0
 17 18  2  0
 18 19  1  0
 18 37  1  0
 19 22  1  0
 20 17  1  0
 20 21  1  0
 21 19  2  0
 22 23  1  0
 23 24  2  0
 25 28  1  0
 25 24  1  0
 26 25  2  0
 27 26  1  0
 27 22  2  0
 28 29  1  0
 29 30  1  0
 30 31  2  0
 32 31  1  0
 32 36  1  0
 33 32  2  0
 34 29  2  0
 34 33  1  0
 35 34  1  0
 37 38  1  0
 38 41  1  0
 38 40  1  0
 39 37  2  0
 42 43  1  0
 42 17  1  0
 44 42  1  0
 45 47  1  0
 45  4  1  0
 46 45  2  0
 47 50  1  0
 48 46  1  0
 49 46  1  0
 51 47  1  0
 52 57  2  0
 52 55  1  0
 53 54  1  0
 53 55  1  0
 54 56  1  0
 55 58  1  0
 56 52  1  0
 58 59  1  0
 60 71  2  0
 61 59  1  0
 61 66  1  0
 62 70  1  0
 62 72  1  0
 63 69  1  0
 63 65  1  0
 64 70  1  0
 65 66  2  0
 65 64  1  0
 67 68  1  0
 67 61  2  0
 68 63  2  0
 69 62  1  0
 70 60  1  0
 72 74  2  0
 73 72  1  0
 75 73  1  0
 76 85  2  0
 76 81  1  0
 77 73  1  0
 77 81  1  0
 78 77  1  0
 79 80  1  0
 79 78  1  0
 80 76  1  0
 81 82  2  0
 82 83  1  0
 84 83  2  0
 85 84  1  0
 86 60  1  0
 86 91  1  0
 86 87  1  0
 87 90  1  1
 87 88  1  0
 89 87  1  0
 91 94  1  0
 92 96  1  0
 92 91  1  0
 93 92  2  0
 96 95  1  0
 98 96  1  0
 98 99  1  0
 98 97  1  0
M  ISO  4   7 100  15 100  58 101  59 101
M  END
>  <TORSDO>  (16) 
F 19

>  <SCORE>  (16) 
-14.395

>  <name>  (16) 
15

>  <ligand_id>  (16) 
15

>  <original_smiles>  (16) 
[H]c1c([H])c([H])c2c(c1[H])C([H])([H])C([H])([H])C([H])([H])C2([H])N([H])C(=O)C1([H])N(C(=O)C([H])(N([H])C(=O)C([H])(N([H])C([H])([H])[H])C([H])([H])[H])C(C([H])([H])[H])(C([H])([H])[H])C([H])([H])[H])C([H])([H])c2c([H])c(OC([H])([H])C3([H])C(=O)N(c4c([H])c(N([H])C(=O)N5C([H])([H])C([H])([H])C([H])([H])C([H])(n6nc(-c7c([H])c([H])c(Oc8c([H])c([H])c(F)c([H])c8F)c([H])c7[H])c(C(=O)N([H])[H])c6N([H])[H])C5([H])[H])c([H])c([H])c4C(N([H])[H])=[N+]([H])[H])C([H])([H])C3([H])[H])c([H])c([H])c2C1([H])[H]

>  <smiles>  (16) 
[H]c1c([H])c([H])c2c(c1[H])C([H])([H])C([H])([H])C([H])([H])C2([H])N([H])C(=O)C1([H])N(C(=O)C([H])(N([H])C(=O)C([H])(N([H])C([H])([H])[H])C([H])([H])[H])C(C([H])([H])[H])(C([H])([H])[H])C([H])([H])[H])C([H])([H])c2c([H])c(OC([H])([H])C3([H])C(=O)N(c4c([H])c(N([H])C(=O)N5C([H])([H])C([H])([H])C([H])([H])C([H])(n6nc(-c7c([H])c([H])c(Oc8c([H])c([H])c(F)c([H])c8F)c([H])c7[H])c(C(=O)N([H])[H])c6N([H])[H])C5([H])[H])c([H])c([H])c4C(N([H])[H])=[N+]([H])[H])C([H])([H])C3([H])[H])c([H])c([H])c2C1([H])[H]

$$$$
16:0:0
     RDKit          3D

100109  0  0  1  0  0  0  0  0999 V2000
  -31.0600  -18.9900   19.6450 C   0  0  0  0  0  3  0  0  0  0  0  0
  -31.0520  -17.5800   19.8430 C   0  0  0  0  0  3  0  0  0  0  0  0
  -28.7250  -19.1100   20.1930 C   0  0  0  0  0  3  0  0  0  0  0  0
  -29.9110  -19.8110   19.8480 C   0  0  0  0  0  0  0  0  0  0  0  0
  -29.8800  -16.8890   20.2420 C   0  0  0  0  0  0  0  0  0  0  0  0
  -28.7050  -17.6870   20.3860 C   0  0  0  0  0  0  0  0  0  0  0  0
  -30.6340  -14.4010   20.1160 C   0  0  0  0  0  0  0  0  0  0  0  0
  -30.5160  -12.1200   19.1390 C   0  0  0  0  0  2  0  0  0  0  0  0
  -29.6130  -12.1810   17.8870 C   0  0  0  0  0  2  0  0  0  0  0  0
  -28.1290  -12.0030   18.2680 C   0  0  0  0  0  2  0  0  0  0  0  0
  -27.7060  -12.9020   19.4600 C   0  0  0  0  0  3  0  0  0  0  0  0
  -28.7270  -12.8120   20.6180 C   0  0  0  0  0  2  0  0  0  0  0  0
  -30.0500  -13.1620   20.0740 N   0  0  0  0  0  0  0  0  0  0  0  0
  -31.8000  -14.5720   19.7520 O   0  0  0  0  0  0  0  0  0  0  0  0
  -29.7990  -15.4370   20.4360 N   0  0  0  0  0  0  0  0  0  0  0  0
  -28.9060  -15.1120   20.7660 H   0  0  0  0  0  0  0  0  0  0  0  0
  -25.2540  -13.4540   19.9890 C   0  0  0  0  0  0  0  0  0  0  0  0
  -24.2040  -12.6740   20.3940 C   0  0  0  0  0  0  0  0  0  0  0  0
  -24.7260  -11.3510   20.5310 C   0  0  0  0  0  0  0  0  0  0  0  0
  -26.3470  -12.6070   19.9060 N   0  0  0  0  0  0  0  0  0  0  0  0
  -26.0320  -11.3430   20.2910 N   0  0  0  0  0  0  0  0  0  0  0  0
  -24.0470  -10.0820   20.8190 C   0  0  0  0  0  0  0  0  0  0  0  0
  -24.4650   -9.2440   21.8780 C   0  0  0  0  0  3  0  0  0  0  0  0
  -23.7840   -8.0380   22.1480 C   0  0  0  0  0  3  0  0  0  0  0  0
  -22.6720   -7.6580   21.3590 C   0  0  0  0  0  0  0  0  0  0  0  0
  -22.2750   -8.4830   20.2910 C   0  0  0  0  0  3  0  0  0  0  0  0
  -22.9570   -9.6810   20.0210 C   0  0  0  0  0  3  0  0  0  0  0  0
  -21.9680   -6.4910   21.5310 O   0  0  0  0  0  0  0  0  0  0  0  0
  -21.8500   -5.8950   22.7610 C   0  0  0  0  0  0  0  0  0  0  0  0
  -21.2850   -6.5720   23.8650 C   0  0  0  0  0  3  0  0  0  0  0  0
  -21.1190   -5.8990   25.0920 C   0  0  0  0  0  3  0  0  0  0  0  0
  -21.5070   -4.5530   25.2160 C   0  0  0  0  0  0  0  0  0  0  0  0
  -22.0660   -3.8750   24.1170 C   0  0  0  0  0  3  0  0  0  0  0  0
  -22.2340   -4.5450   22.8920 C   0  0  0  0  0  0  0  0  0  0  0  0
  -22.7510   -3.8820   21.8300 F   0  0  0  0  0  0  0  0  0  0  0  0
  -21.3420   -3.9040   26.3930 F   0  0  0  0  0  0  0  0  0  0  0  0
  -22.7750  -13.1080   20.5430 C   0  0  0  0  0  0  0  0  0  0  0  0
  -22.0530  -12.5220   21.4910 N   0  0  0  0  0  0  0  0  0  0  0  0
  -22.3060  -14.0090   19.8480 O   0  0  0  0  0  0  0  0  0  0  0  0
  -22.4440  -11.7980   22.0750 H   0  0  0  0  0  0  0  0  0  0  0  0
  -21.0920  -12.8010   21.6330 H   0  0  0  0  0  0  0  0  0  0  0  0
  -25.3640  -14.8000   19.6570 N   0  0  0  0  0  0  0  0  0  0  0  0
  -24.5180  -15.3350   19.5000 H   0  0  0  0  0  0  0  0  0  0  0  0
  -26.1500  -15.1540   19.1260 H   0  0  0  0  0  0  0  0  0  0  0  0
  -31.1450  -21.9300   20.0570 C   0  0  0  0  0  0  0  0  0  0  0  0
  -31.2350  -23.4670   19.9260 C   0  0  0  0  0  2  0  0  0  0  0  0
  -28.7460  -22.1500   19.6250 C   0  0  0  0  0  2  0  0  0  0  0  0
  -28.9850  -23.6850   19.2620 C   0  0  0  0  0  3  0  0  0  0  0  0
  -29.9740  -21.2890   19.7690 N   0  0  0  0  0  0  0  0  0  0  0  0
  -32.1710  -21.3430   20.4200 O   0  0  0  0  0  0  0  0  0  0  0  0
  -29.9900  -24.1240   20.1570 O   0  0  0  0  0  0  0  0  0  0  0  0
  -27.7540  -24.6790   19.3780 C   0  0  0  0  0  2  0  0  0  0  0  0
  -27.9700  -26.1250   19.1340 O   0  0  0  0  0  0  0  0  0  0  0  0
  -24.5410  -31.2750   22.8550 C   0  0  0  0  0  0  0  0  0  0  0  0
  -26.8630  -26.9760   19.2560 C   0  0  0  0  0  0  0  0  0  0  0  0
  -23.2070  -30.0460   21.1800 C   0  0  0  0  0  3  0  0  0  0  0  0
  -24.5330  -28.6070   19.5370 C   0  0  0  0  0  0  0  0  0  0  0  0
  -25.7360  -30.3430   20.8640 C   0  0  0  0  0  2  0  0  0  0  0  0
  -25.7460  -29.0260   20.0980 C   0  0  0  0  0  0  0  0  0  0  0  0
  -26.9150  -28.2230   19.9490 C   0  0  0  0  0  3  0  0  0  0  0  0
  -25.6300  -26.6150   18.6680 C   0  0  0  0  0  3  0  0  0  0  0  0
  -24.4750  -27.4070   18.8140 C   0  0  0  0  0  3  0  0  0  0  0  0
  -23.3200  -29.4910   19.7360 C   0  0  0  0  0  2  0  0  0  0  0  0
  -24.5170  -30.5660   21.6890 N   0  0  0  0  0  0  0  0  0  0  0  0
  -23.4990  -31.5220   23.4800 O   0  0  0  0  0  0  0  0  0  0  0  0
  -22.5850  -28.9590   22.0860 C   0  0  0  0  0  0  0  0  0  0  0  0
  -21.2480  -28.8210   22.0350 N   0  0  0  0  0  0  0  0  0  0  0  0
  -23.2980  -28.2450   22.7960 O   0  0  0  0  0  0  0  0  0  0  0  0
  -20.7310  -29.4500   21.4370 H   0  0  0  0  0  0  0  0  0  0  0  0
  -17.8820  -27.6430   22.6360 C   0  0  0  0  0  0  0  0  0  0  0  0
  -20.4560  -27.8360   22.7730 C   0  0  0  0  0  3  0  0  0  0  0  0
  -20.4940  -26.4570   22.0770 C   0  0  0  0  0  2  0  0  0  0  0  0
  -19.3280  -26.2380   21.1070 C   0  0  0  0  0  2  0  0  0  0  0  0
  -17.9900  -26.3530   21.8420 C   0  0  0  0  0  2  0  0  0  0  0  0
  -19.0400  -28.3480   23.0600 C   0  0  0  0  0  0  0  0  0  0  0  0
  -18.8830  -29.5610   23.7650 C   0  0  0  0  0  3  0  0  0  0  0  0
  -17.6010  -30.0690   24.0500 C   0  0  0  0  0  3  0  0  0  0  0  0
  -16.4590  -29.3590   23.6410 C   0  0  0  0  0  3  0  0  0  0  0  0
  -16.6000  -28.1480   22.9400 C   0  0  0  0  0  3  0  0  0  0  0  0
  -25.8740  -31.8280   23.4470 C   0  0  0  0  0  3  0  0  0  0  0  0
  -26.4900  -30.9000   24.5640 C   0  0  1  0  0  0  0  0  0  0  0  0
  -25.4910  -30.5310   25.6860 C   0  0  0  0  0  1  0  0  0  0  0  0
  -27.0170  -29.5810   23.9520 C   0  0  0  0  0  1  0  0  0  0  0  0
  -27.7050  -31.6000   25.2170 C   0  0  0  0  0  1  0  0  0  0  0  0
  -25.5990  -33.1690   23.9810 N   0  0  0  0  0  0  0  0  0  0  0  0
  -25.9110  -34.3140   23.3600 C   0  0  0  0  0  0  0  0  0  0  0  0
  -26.5310  -34.3500   22.2940 O   0  0  0  0  0  0  0  0  0  0  0  0
  -25.0430  -33.2150   24.8230 H   0  0  0  0  0  0  0  0  0  0  0  0
  -24.1950  -36.1540   23.3390 C   0  0  0  0  0  1  0  0  0  0  0  0
  -25.4650  -35.6300   24.0280 C   0  0  0  0  0  3  0  0  0  0  0  0
  -27.6460  -36.3750   24.8750 C   0  0  0  0  0  1  0  0  0  0  0  0
  -26.5070  -36.6800   24.0140 N   0  0  0  0  0  0  0  0  0  0  0  0
  -26.1220  -37.5740   24.3040 H   0  0  0  0  0  0  0  0  0  0  0  0
  -26.2610  -17.1950   20.3740 C   0  0  0  0  0  0  0  0  0  0  0  0
  -27.5210  -17.0220   20.8020 N   0  0  0  0  0  0  0  0  0  0  0  0
  -25.8840  -18.0380   19.5530 O   0  0  0  0  0  0  0  0  0  0  0  0
  -27.6170  -16.2610   21.4600 H   0  0  0  0  0  0  0  0  0  0  0  0
  -25.3070  -16.1730   21.0390 C   0  0  0  0  0  0  0  0  0  0  0  0
  -23.8540  -16.1930   20.5840 C   0  0  0  0  0  1  0  0  0  0  0  0
  -25.6930  -15.3610   21.8910 O   0  0  0  0  0  0  0  0  0  0  0  0
  1  2  2  0
  1  4  1  0
  2  5  1  0
  3  6  1  0
  4  3  2  0
  5  6  2  0
  5 15  1  0
  6 95  1  0
  7 15  1  0
  8 13  1  0
  9 10  1  0
  9  8  1  0
 11 10  1  0
 11 20  1  0
 11 12  1  0
 13  7  1  0
 13 12  1  0
 14  7  2  0
 15 16  1  0
 17 18  2  0
 18 19  1  0
 18 37  1  0
 19 22  1  0
 20 17  1  0
 20 21  1  0
 21 19  2  0
 22 23  1  0
 23 24  2  0
 25 28  1  0
 25 24  1  0
 26 25  2  0
 27 26  1  0
 27 22  2  0
 28 29  1  0
 29 34  2  0
 29 30  1  0
 30 31  2  0
 31 32  1  0
 32 36  1  0
 33 32  2  0
 34 33  1  0
 35 34  1  0
 37 38  1  0
 38 41  1  0
 38 40  1  0
 39 37  2  0
 42 17  1  0
 43 42  1  0
 44 42  1  0
 45 50  2  0
 46 45  1  0
 46 51  1  0
 47 49  1  0
 48 52  1  0
 48 47  1  0
 48 51  1  0
 49  4  1  0
 49 45  1  0
 53 55  1  0
 53 52  1  0
 54 65  2  0
 55 60  1  0
 56 64  1  0
 56 66  1  0
 57 63  1  0
 57 59  1  0
 58 64  1  0
 59 58  1  0
 60 59  2  0
 61 62  1  0
 61 55  2  0
 62 57  2  0
 63 56  1  0
 64 54  1  0
 66 68  2  0
 67 66  1  0
 69 67  1  0
 70 79  2  0
 70 75  1  0
 71 67  1  0
 71 75  1  0
 72 71  1  0
 73 74  1  0
 73 72  1  0
 74 70  1  0
 75 76  2  0
 76 77  1  0
 78 77  2  0
 79 78  1  0
 80 54  1  0
 80 85  1  0
 80 81  1  0
 81 84  1  1
 81 82  1  0
 83 81  1  0
 85 88  1  0
 86 85  1  0
 86 90  1  0
 87 86  2  0
 90 89  1  0
 92 90  1  0
 92 93  1  0
 92 91  1  0
 94 95  1  0
 94 98  1  0
 95 97  1  0
 96 94  2  0
 98100  2  0
 99 98  1  0
M  ISO  4   7 100  15 100  52 101  53 101
M  END
>  <TORSDO>  (17) 
F 20

>  <SCORE>  (17) 
-8.406

>  <name>  (17) 
16

>  <ligand_id>  (17) 
16

>  <original_smiles>  (17) 
[H]c1c([H])c([H])c2c(c1[H])C([H])([H])C([H])([H])C([H])([H])C2([H])N([H])C(=O)C1([H])N(C(=O)C([H])(N([H])C(=O)C([H])(N([H])C([H])([H])[H])C([H])([H])[H])C(C([H])([H])[H])(C([H])([H])[H])C([H])([H])[H])C([H])([H])c2c([H])c(OC([H])([H])C3([H])OC([H])([H])C(=O)N(c4c([H])c([H])c(N([H])C(=O)N5C([H])([H])C([H])([H])C([H])([H])C([H])(n6nc(-c7c([H])c([H])c(Oc8c([H])c([H])c(F)c([H])c8F)c([H])c7[H])c(C(=O)N([H])[H])c6N([H])[H])C5([H])[H])c(N([H])C(=O)C(=O)C([H])([H])[H])c4[H])C3([H])[H])c([H])c([H])c2C1([H])[H]

>  <smiles>  (17) 
[H]c1c([H])c([H])c2c(c1[H])C([H])([H])C([H])([H])C([H])([H])C2([H])N([H])C(=O)C1([H])N(C(=O)C([H])(N([H])C(=O)C([H])(N([H])C([H])([H])[H])C([H])([H])[H])C(C([H])([H])[H])(C([H])([H])[H])C([H])([H])[H])C([H])([H])c2c([H])c(OC([H])([H])C3([H])OC([H])([H])C(=O)N(c4c([H])c([H])c(N([H])C(=O)N5C([H])([H])C([H])([H])C([H])([H])C([H])(n6nc(-c7c([H])c([H])c(Oc8c([H])c([H])c(F)c([H])c8F)c([H])c7[H])c(C(=O)N([H])[H])c6N([H])[H])C5([H])[H])c(N([H])C(=O)C(=O)C([H])([H])[H])c4[H])C3([H])[H])c([H])c([H])c2C1([H])[H]

$$$$
17:0:0
     RDKit          3D

 95104  0  0  1  0  0  0  0  0999 V2000
  -28.3180  -22.1880   20.4770 C   0  0  0  0  0  0  0  0  0  0  0  0
  -30.3310  -23.3940   20.3570 C   0  0  0  0  0  2  0  0  0  0  0  0
  -30.5720  -21.8690   20.6010 C   0  0  0  0  0  2  0  0  0  0  0  0
  -28.8610  -23.6630   20.7100 C   0  0  0  0  0  3  0  0  0  0  0  0
  -29.2830  -21.1950   20.4410 N   0  0  0  0  0  0  0  0  0  0  0  0
  -27.1100  -21.9700   20.3620 O   0  0  0  0  0  0  0  0  0  0  0  0
  -28.7600  -18.1360   18.1800 C   0  0  0  0  0  3  0  0  0  0  0  0
  -29.1670  -17.0440   18.9630 C   0  0  0  0  0  3  0  0  0  0  0  0
  -29.6020  -18.5940   20.7900 C   0  0  0  0  0  3  0  0  0  0  0  0
  -28.7560  -19.4660   18.6640 C   0  0  0  0  0  0  0  0  0  0  0  0
  -29.1990  -19.7600   19.9950 C   0  0  0  0  0  0  0  0  0  0  0  0
  -29.5920  -17.2150   20.2930 C   0  0  0  0  0  0  0  0  0  0  0  0
  -30.5890  -14.8510   20.7030 C   0  0  0  0  0  0  0  0  0  0  0  0
  -30.4830  -12.5470   19.7490 C   0  0  0  0  0  2  0  0  0  0  0  0
  -29.6100  -12.5940   18.4750 C   0  0  0  0  0  2  0  0  0  0  0  0
  -28.1220  -12.4010   18.8290 C   0  0  0  0  0  2  0  0  0  0  0  0
  -27.6740  -13.2940   20.0170 C   0  0  0  0  0  3  0  0  0  0  0  0
  -28.6750  -13.2410   21.1920 C   0  0  0  0  0  2  0  0  0  0  0  0
  -29.9990  -13.6060   20.6690 N   0  0  0  0  0  0  0  0  0  0  0  0
  -31.7570  -14.9820   20.3260 O   0  0  0  0  0  0  0  0  0  0  0  0
  -29.8300  -15.9610   21.0580 N   0  0  0  0  0  0  0  0  0  0  0  0
  -29.0520  -15.7100   21.6480 H   0  0  0  0  0  0  0  0  0  0  0  0
  -25.2440  -13.8480   20.6250 C   0  0  0  0  0  0  0  0  0  0  0  0
  -24.1750  -13.0600   20.9550 C   0  0  0  0  0  0  0  0  0  0  0  0
  -24.6610  -11.7170   20.9600 C   0  0  0  0  0  0  0  0  0  0  0  0
  -26.3130  -12.9850   20.4460 N   0  0  0  0  0  0  0  0  0  0  0  0
  -25.9650  -11.6980   20.7090 N   0  0  0  0  0  0  0  0  0  0  0  0
  -23.9470  -10.4440   21.1340 C   0  0  0  0  0  0  0  0  0  0  0  0
  -24.3520   -9.4940   22.0970 C   0  0  0  0  0  3  0  0  0  0  0  0
  -23.6350   -8.2880   22.2570 C   0  0  0  0  0  3  0  0  0  0  0  0
  -22.5010   -8.0230   21.4530 C   0  0  0  0  0  0  0  0  0  0  0  0
  -22.1160   -8.9630   20.4800 C   0  0  0  0  0  3  0  0  0  0  0  0
  -22.8340  -10.1600   20.3190 C   0  0  0  0  0  3  0  0  0  0  0  0
  -21.7610   -6.8670   21.5190 O   0  0  0  0  0  0  0  0  0  0  0  0
  -21.6680   -6.1370   22.6770 C   0  0  0  0  0  0  0  0  0  0  0  0
  -21.1280   -6.6830   23.8620 C   0  0  0  0  0  3  0  0  0  0  0  0
  -20.9880   -5.8750   25.0080 C   0  0  0  0  0  3  0  0  0  0  0  0
  -21.3790   -4.5240   24.9710 C   0  0  0  0  0  0  0  0  0  0  0  0
  -21.9120   -3.9770   23.7900 C   0  0  0  0  0  3  0  0  0  0  0  0
  -22.0530   -4.7810   22.6460 C   0  0  0  0  0  0  0  0  0  0  0  0
  -22.5480   -4.2440   21.5050 F   0  0  0  0  0  0  0  0  0  0  0  0
  -21.2370   -3.7470   26.0710 F   0  0  0  0  0  0  0  0  0  0  0  0
  -22.7590  -13.5170   21.1590 C   0  0  0  0  0  0  0  0  0  0  0  0
  -22.0010  -12.8150   21.9930 N   0  0  0  0  0  0  0  0  0  0  0  0
  -22.3320  -14.5360   20.6160 O   0  0  0  0  0  0  0  0  0  0  0  0
  -22.3550  -11.9910   22.4560 H   0  0  0  0  0  0  0  0  0  0  0  0
  -21.0510  -13.1090   22.1750 H   0  0  0  0  0  0  0  0  0  0  0  0
  -25.3930  -15.2190   20.4420 N   0  0  0  0  0  0  0  0  0  0  0  0
  -24.6110  -15.8600   20.5120 H   0  0  0  0  0  0  0  0  0  0  0  0
  -26.2530  -15.6740   20.1620 H   0  0  0  0  0  0  0  0  0  0  0  0
  -28.3490  -20.5040   17.6720 C   0  0  0  0  0  0  0  0  0  0  0  0
  -26.9570  -20.3480   17.0730 C   0  0  0  0  0  1  0  0  0  0  0  0
  -29.0500  -21.4660   17.3470 O   0  0  0  0  0  0  0  0  0  0  0  0
  -28.1020  -24.9300   20.0090 C   0  0  0  0  0  2  0  0  0  0  0  0
  -28.3260  -26.4040   20.3050 O   0  0  0  0  0  0  0  0  0  0  0  0
  -24.6200  -31.9230   23.2720 C   0  0  0  0  0  0  0  0  0  0  0  0
  -27.2450  -27.3260   20.2080 C   0  0  0  0  0  0  0  0  0  0  0  0
  -23.4300  -30.5320   21.6190 C   0  0  0  0  0  3  0  0  0  0  0  0
  -24.8940  -28.9950   20.1830 C   0  0  0  0  0  0  0  0  0  0  0  0
  -25.9760  -30.8360   21.4610 C   0  0  0  0  0  2  0  0  0  0  0  0
  -26.0620  -29.4600   20.8010 C   0  0  0  0  0  0  0  0  0  0  0  0
  -27.2380  -28.6370   20.8040 C   0  0  0  0  0  3  0  0  0  0  0  0
  -26.0590  -26.9540   19.5320 C   0  0  0  0  0  3  0  0  0  0  0  0
  -24.9000  -27.7530   19.5360 C   0  0  0  0  0  3  0  0  0  0  0  0
  -23.6560  -29.8710   20.2330 C   0  0  0  0  0  2  0  0  0  0  0  0
  -24.6940  -31.1150   22.1730 N   0  0  0  0  0  0  0  0  0  0  0  0
  -23.5310  -32.1960   23.8000 O   0  0  0  0  0  0  0  0  0  0  0  0
  -22.7590  -29.5090   22.5670 C   0  0  0  0  0  0  0  0  0  0  0  0
  -21.4370  -29.3220   22.4220 N   0  0  0  0  0  0  0  0  0  0  0  0
  -23.4310  -28.8870   23.3940 O   0  0  0  0  0  0  0  0  0  0  0  0
  -20.9520  -29.8720   21.7270 H   0  0  0  0  0  0  0  0  0  0  0  0
  -18.0610  -28.1000   22.8840 C   0  0  0  0  0  0  0  0  0  0  0  0
  -20.6150  -28.3770   23.1830 C   0  0  0  0  0  3  0  0  0  0  0  0
  -20.7330  -26.9470   22.6050 C   0  0  0  0  0  2  0  0  0  0  0  0
  -19.6440  -26.6200   21.5780 C   0  0  0  0  0  2  0  0  0  0  0  0
  -18.2550  -26.7540   22.2070 C   0  0  0  0  0  2  0  0  0  0  0  0
  -19.1690  -28.8690   23.3290 C   0  0  0  0  0  0  0  0  0  0  0  0
  -18.9350  -30.1280   23.9230 C   0  0  0  0  0  3  0  0  0  0  0  0
  -17.6240  -30.6170   24.0780 C   0  0  0  0  0  3  0  0  0  0  0  0
  -16.5300  -29.8460   23.6500 C   0  0  0  0  0  3  0  0  0  0  0  0
  -16.7500  -28.5890   23.0580 C   0  0  0  0  0  3  0  0  0  0  0  0
  -25.8950  -32.5560   23.9050 C   0  0  0  0  0  3  0  0  0  0  0  0
  -26.3820  -31.8030   25.2050 C   0  0  1  0  0  0  0  0  0  0  0  0
  -25.2650  -31.5930   26.2530 C   0  0  0  0  0  1  0  0  0  0  0  0
  -26.9630  -30.4140   24.8520 C   0  0  0  0  0  1  0  0  0  0  0  0
  -27.5250  -32.6010   25.8760 C   0  0  0  0  0  1  0  0  0  0  0  0
  -25.5910  -33.9620   24.2090 N   0  0  0  0  0  0  0  0  0  0  0  0
  -25.9450  -35.0010   23.4400 C   0  0  0  0  0  0  0  0  0  0  0  0
  -26.6300  -34.8770   22.4210 O   0  0  0  0  0  0  0  0  0  0  0  0
  -24.9850  -34.1330   24.9970 H   0  0  0  0  0  0  0  0  0  0  0  0
  -24.2490  -36.8120   23.0230 C   0  0  0  0  0  1  0  0  0  0  0  0
  -25.4630  -36.4010   23.8700 C   0  0  0  0  0  3  0  0  0  0  0  0
  -27.5810  -37.2750   24.7540 C   0  0  0  0  0  1  0  0  0  0  0  0
  -26.5130  -37.4390   23.7720 N   0  0  0  0  0  0  0  0  0  0  0  0
  -26.1130  -38.3670   23.8920 H   0  0  0  0  0  0  0  0  0  0  0  0
  1  4  1  0
  2  3  1  0
  2  4  1  0
  4 54  1  0
  5  1  1  0
  5  3  1  0
  6  1  2  0
  7 10  2  0
  7  8  1  0
  8 12  2  0
 10 11  1  0
 11  5  1  0
 11  9  2  0
 12  9  1  0
 12 21  1  0
 13 21  1  0
 14 19  1  0
 15 16  1  0
 15 14  1  0
 17 16  1  0
 17 26  1  0
 17 18  1  0
 19 13  1  0
 19 18  1  0
 20 13  2  0
 21 22  1  0
 23 24  2  0
 24 25  1  0
 24 43  1  0
 25 28  1  0
 26 23  1  0
 26 27  1  0
 27 25  2  0
 28 29  1  0
 29 30  2  0
 31 34  1  0
 31 30  1  0
 32 31  2  0
 33 32  1  0
 33 28  2  0
 34 35  1  0
 35 36  1  0
 36 37  2  0
 38 37  1  0
 38 42  1  0
 39 38  2  0
 40 35  2  0
 40 39  1  0
 41 40  1  0
 43 44  1  0
 44 47  1  0
 44 46  1  0
 45 43  2  0
 48 49  1  0
 48 23  1  0
 50 48  1  0
 51 10  1  0
 52 51  1  0
 53 51  2  0
 54 55  1  0
 56 67  2  0
 57 55  1  0
 57 62  1  0
 58 66  1  0
 58 68  1  0
 59 65  1  0
 59 61  1  0
 60 66  1  0
 61 62  2  0
 61 60  1  0
 63 64  1  0
 63 57  2  0
 64 59  2  0
 65 58  1  0
 66 56  1  0
 68 70  2  0
 69 68  1  0
 71 69  1  0
 72 81  2  0
 72 77  1  0
 73 69  1  0
 73 77  1  0
 74 73  1  0
 75 76  1  0
 75 74  1  0
 76 72  1  0
 77 78  2  0
 78 79  1  0
 80 79  2  0
 81 80  1  0
 82 56  1  0
 82 87  1  0
 82 83  1  0
 83 86  1  1
 83 84  1  0
 85 83  1  0
 87 90  1  0
 88 92  1  0
 88 87  1  0
 89 88  2  0
 92 91  1  0
 94 92  1  0
 94 95  1  0
 94 93  1  0
M  ISO  4  13 100  21 100  54 101  55 101
M  END
>  <TORSDO>  (18) 
F 19

>  <SCORE>  (18) 
-14.400

>  <name>  (18) 
17

>  <ligand_id>  (18) 
17

>  <original_smiles>  (18) 
[H]c1c([H])c([H])c2c(c1[H])C([H])([H])C([H])([H])C([H])([H])C2([H])N([H])C(=O)C1([H])N(C(=O)C([H])(N([H])C(=O)C([H])(N([H])C([H])([H])[H])C([H])([H])[H])C(C([H])([H])[H])(C([H])([H])[H])C([H])([H])[H])C([H])([H])c2c([H])c(OC([H])([H])C3([H])C(=O)N(c4c([H])c(N([H])C(=O)N5C([H])([H])C([H])([H])C([H])([H])C([H])(n6nc(-c7c([H])c([H])c(Oc8c([H])c([H])c(F)c([H])c8F)c([H])c7[H])c(C(=O)N([H])[H])c6N([H])[H])C5([H])[H])c([H])c([H])c4C(=O)C([H])([H])[H])C([H])([H])C3([H])[H])c([H])c([H])c2C1([H])[H]

>  <smiles>  (18) 
[H]c1c([H])c([H])c2c(c1[H])C([H])([H])C([H])([H])C([H])([H])C2([H])N([H])C(=O)C1([H])N(C(=O)C([H])(N([H])C(=O)C([H])(N([H])C([H])([H])[H])C([H])([H])[H])C(C([H])([H])[H])(C([H])([H])[H])C([H])([H])[H])C([H])([H])c2c([H])c(OC([H])([H])C3([H])C(=O)N(c4c([H])c(N([H])C(=O)N5C([H])([H])C([H])([H])C([H])([H])C([H])(n6nc(-c7c([H])c([H])c(Oc8c([H])c([H])c(F)c([H])c8F)c([H])c7[H])c(C(=O)N([H])[H])c6N([H])[H])C5([H])[H])c([H])c([H])c4C(=O)C([H])([H])[H])C([H])([H])C3([H])[H])c([H])c([H])c2C1([H])[H]

$$$$
18:0:0
     RDKit          3D

 95104  0  0  1  0  0  0  0  0999 V2000
  -27.8240  -24.6540   18.3190 C   0  0  0  0  0  0  0  0  0  0  0  0
  -27.3300  -23.2630   17.9250 C   0  0  0  0  0  2  0  0  0  0  0  0
  -28.1950  -22.1290   18.5170 C   0  0  0  0  0  2  0  0  0  0  0  0
  -28.7540  -23.7090   20.4380 C   0  0  0  0  0  2  0  0  0  0  0  0
  -27.8690  -24.9280   19.8310 C   0  0  0  0  0  3  0  0  0  0  0  0
  -28.4960  -22.2730   19.9530 N   0  0  0  0  0  0  0  0  0  0  0  0
  -28.1290  -25.4960   17.4670 O   0  0  0  0  0  0  0  0  0  0  0  0
  -31.1740  -20.3060   21.7320 C   0  0  0  0  0  3  0  0  0  0  0  0
  -30.3840  -21.3550   21.2370 C   0  0  0  0  0  3  0  0  0  0  0  0
  -28.9350  -19.6950   20.2390 C   0  0  0  0  0  3  0  0  0  0  0  0
  -29.7260  -18.5620   20.7430 C   0  0  0  0  0  0  0  0  0  0  0  0
  -30.8800  -18.9460   21.5110 C   0  0  0  0  0  0  0  0  0  0  0  0
  -29.2290  -21.1150   20.4680 C   0  0  0  0  0  0  0  0  0  0  0  0
  -31.8940  -17.9830   22.1350 C   0  0  0  0  0  1  0  0  0  0  0  0
  -30.6720  -14.8160   20.3120 C   0  0  0  0  0  0  0  0  0  0  0  0
  -30.2450  -12.6030   19.2300 C   0  0  0  0  0  2  0  0  0  0  0  0
  -29.3010  -12.6850   18.0220 C   0  0  0  0  0  2  0  0  0  0  0  0
  -27.8610  -12.4830   18.5100 C   0  0  0  0  0  2  0  0  0  0  0  0
  -27.5130  -13.3580   19.7470 C   0  0  0  0  0  3  0  0  0  0  0  0
  -28.6130  -13.3450   20.8310 C   0  0  0  0  0  2  0  0  0  0  0  0
  -29.8650  -13.7000   20.1600 N   0  0  0  0  0  0  0  0  0  0  0  0
  -31.8450  -14.7320   19.9660 O   0  0  0  0  0  0  0  0  0  0  0  0
  -29.3520  -17.0470   20.4800 C   0  0  0  0  0  0  0  0  0  0  0  0
  -30.3250  -16.0990   20.6910 N   0  0  0  0  0  0  0  0  0  0  0  0
  -28.2360  -16.7570   20.0430 O   0  0  0  0  0  0  0  0  0  0  0  0
  -31.1660  -16.5880   20.9540 H   0  0  0  0  0  0  0  0  0  0  0  0
  -25.1470  -13.9080   20.5590 C   0  0  0  0  0  0  0  0  0  0  0  0
  -24.1020  -13.1180   20.9510 C   0  0  0  0  0  0  0  0  0  0  0  0
  -24.5740  -11.7730   20.8820 C   0  0  0  0  0  0  0  0  0  0  0  0
  -26.1950  -13.0440   20.2880 N   0  0  0  0  0  0  0  0  0  0  0  0
  -25.8580  -11.7510   20.5400 N   0  0  0  0  0  0  0  0  0  0  0  0
  -23.8650  -10.5020   21.0620 C   0  0  0  0  0  0  0  0  0  0  0  0
  -24.3110   -9.5320   21.9840 C   0  0  0  0  0  3  0  0  0  0  0  0
  -23.6030   -8.3230   22.1540 C   0  0  0  0  0  3  0  0  0  0  0  0
  -22.4300   -8.0780   21.3990 C   0  0  0  0  0  0  0  0  0  0  0  0
  -22.0060   -9.0330   20.4570 C   0  0  0  0  0  3  0  0  0  0  0  0
  -22.7180  -10.2330   20.2890 C   0  0  0  0  0  3  0  0  0  0  0  0
  -21.6850   -6.9250   21.4850 O   0  0  0  0  0  0  0  0  0  0  0  0
  -21.6280   -6.1850   22.6380 C   0  0  0  0  0  0  0  0  0  0  0  0
  -21.1360   -6.7230   23.8480 C   0  0  0  0  0  3  0  0  0  0  0  0
  -21.0360   -5.9060   24.9930 C   0  0  0  0  0  3  0  0  0  0  0  0
  -21.4150   -4.5510   24.9260 C   0  0  0  0  0  0  0  0  0  0  0  0
  -21.8960   -4.0120   23.7200 C   0  0  0  0  0  3  0  0  0  0  0  0
  -22.0010   -4.8270   22.5800 C   0  0  0  0  0  0  0  0  0  0  0  0
  -22.4480   -4.2960   21.4150 F   0  0  0  0  0  0  0  0  0  0  0  0
  -21.3060   -3.7640   26.0210 F   0  0  0  0  0  0  0  0  0  0  0  0
  -22.7070  -13.5770   21.2660 C   0  0  0  0  0  0  0  0  0  0  0  0
  -22.0030  -12.8510   22.1280 N   0  0  0  0  0  0  0  0  0  0  0  0
  -22.2540  -14.6160   20.7870 O   0  0  0  0  0  0  0  0  0  0  0  0
  -22.3960  -12.0270   22.5630 H   0  0  0  0  0  0  0  0  0  0  0  0
  -21.0550  -13.1210   22.3540 H   0  0  0  0  0  0  0  0  0  0  0  0
  -25.2880  -15.2790   20.3710 N   0  0  0  0  0  0  0  0  0  0  0  0
  -24.4860  -15.9000   20.3750 H   0  0  0  0  0  0  0  0  0  0  0  0
  -26.1280  -15.7120   19.9910 H   0  0  0  0  0  0  0  0  0  0  0  0
  -28.1260  -26.4060   20.1230 O   0  0  0  0  0  0  0  0  0  0  0  0
  -24.5170  -31.9550   23.2430 C   0  0  0  0  0  0  0  0  0  0  0  0
  -27.0460  -27.3350   20.1120 C   0  0  0  0  0  0  0  0  0  0  0  0
  -23.2890  -30.5680   21.6190 C   0  0  0  0  0  3  0  0  0  0  0  0
  -24.7110  -29.0290   20.1570 C   0  0  0  0  0  0  0  0  0  0  0  0
  -25.8380  -30.8580   21.4090 C   0  0  0  0  0  2  0  0  0  0  0  0
  -25.9010  -29.4800   20.7440 C   0  0  0  0  0  0  0  0  0  0  0  0
  -27.0720  -28.6470   20.7110 C   0  0  0  0  0  3  0  0  0  0  0  0
  -25.8240  -26.9710   19.5040 C   0  0  0  0  0  3  0  0  0  0  0  0
  -24.6800  -27.7830   19.5270 C   0  0  0  0  0  3  0  0  0  0  0  0
  -23.4850  -29.9160   20.2280 C   0  0  0  0  0  2  0  0  0  0  0  0
  -24.5690  -31.1450   22.1450 N   0  0  0  0  0  0  0  0  0  0  0  0
  -23.4400  -32.2300   23.7960 O   0  0  0  0  0  0  0  0  0  0  0  0
  -22.6420  -29.5420   22.5810 C   0  0  0  0  0  0  0  0  0  0  0  0
  -21.3170  -29.3440   22.4570 N   0  0  0  0  0  0  0  0  0  0  0  0
  -23.3310  -28.9310   23.4020 O   0  0  0  0  0  0  0  0  0  0  0  0
  -20.8180  -29.8890   21.7680 H   0  0  0  0  0  0  0  0  0  0  0  0
  -17.9600  -28.0910   22.9750 C   0  0  0  0  0  0  0  0  0  0  0  0
  -20.5140  -28.4020   23.2390 C   0  0  0  0  0  3  0  0  0  0  0  0
  -20.6440  -26.9660   22.6790 C   0  0  0  0  0  2  0  0  0  0  0  0
  -19.5470  -26.6130   21.6690 C   0  0  0  0  0  2  0  0  0  0  0  0
  -18.1620  -26.7390   22.3110 C   0  0  0  0  0  2  0  0  0  0  0  0
  -19.0650  -28.8780   23.3970 C   0  0  0  0  0  0  0  0  0  0  0  0
  -18.8240  -30.1420   23.9790 C   0  0  0  0  0  3  0  0  0  0  0  0
  -17.5100  -30.6180   24.1430 C   0  0  0  0  0  3  0  0  0  0  0  0
  -16.4200  -29.8300   23.7360 C   0  0  0  0  0  3  0  0  0  0  0  0
  -16.6470  -28.5680   23.1580 C   0  0  0  0  0  3  0  0  0  0  0  0
  -25.8070  -32.5920   23.8420 C   0  0  0  0  0  3  0  0  0  0  0  0
  -25.5010  -33.9920   24.1690 N   0  0  0  0  0  0  0  0  0  0  0  0
  -25.8230  -35.0430   23.4010 C   0  0  0  0  0  0  0  0  0  0  0  0
  -26.4780  -34.9340   22.3610 O   0  0  0  0  0  0  0  0  0  0  0  0
  -24.9140  -34.1490   24.9750 H   0  0  0  0  0  0  0  0  0  0  0  0
  -24.0990  -36.8440   23.0560 C   0  0  0  0  0  1  0  0  0  0  0  0
  -25.3440  -36.4340   23.8600 C   0  0  0  0  0  3  0  0  0  0  0  0
  -27.4810  -37.3160   24.6890 C   0  0  0  0  0  1  0  0  0  0  0  0
  -26.3800  -37.4840   23.7410 N   0  0  0  0  0  0  0  0  0  0  0  0
  -25.9760  -38.4050   23.8870 H   0  0  0  0  0  0  0  0  0  0  0  0
  -26.3360  -31.8310   25.1200 C   0  0  1  0  0  0  0  0  0  0  0  0
  -25.2550  -31.5920   26.2020 C   0  0  0  0  0  1  0  0  0  0  0  0
  -26.9220  -30.4510   24.7390 C   0  0  0  0  0  1  0  0  0  0  0  0
  -27.4900  -32.6320   25.7670 C   0  0  0  0  0  1  0  0  0  0  0  0
  1  5  1  0
  2  1  1  0
  2  3  1  0
  3  6  1  0
  5 55  1  0
  5  4  1  0
  6  4  1  0
  6 13  1  0
  7  1  2  0
  9  8  2  0
 10 13  2  0
 10 11  1  0
 11 12  2  0
 12  8  1  0
 12 14  1  0
 13  9  1  0
 15 24  1  0
 16 21  1  0
 17 18  1  0
 17 16  1  0
 19 18  1  0
 19 30  1  0
 19 20  1  0
 21 15  1  0
 21 20  1  0
 22 15  2  0
 23 24  1  0
 23 11  1  0
 24 26  1  0
 25 23  2  0
 27 28  2  0
 28 47  1  0
 29 28  1  0
 29 32  1  0
 30 31  1  0
 30 27  1  0
 31 29  2  0
 32 33  1  0
 33 34  2  0
 35 38  1  0
 35 34  1  0
 36 35  2  0
 37 36  1  0
 37 32  2  0
 38 39  1  0
 39 40  1  0
 40 41  2  0
 42 41  1  0
 42 46  1  0
 43 42  2  0
 44 39  2  0
 44 43  1  0
 45 44  1  0
 47 48  1  0
 48 51  1  0
 48 50  1  0
 49 47  2  0
 52 53  1  0
 52 27  1  0
 54 52  1  0
 56 67  2  0
 57 55  1  0
 57 62  1  0
 58 66  1  0
 58 68  1  0
 59 65  1  0
 59 61  1  0
 60 66  1  0
 61 60  1  0
 62 61  2  0
 63 64  1  0
 63 57  2  0
 64 59  2  0
 65 58  1  0
 66 56  1  0
 68 70  2  0
 69 68  1  0
 71 69  1  0
 72 81  2  0
 72 77  1  0
 73 69  1  0
 73 77  1  0
 74 73  1  0
 75 76  1  0
 75 74  1  0
 76 72  1  0
 77 78  2  0
 78 79  1  0
 80 79  2  0
 81 80  1  0
 82 56  1  0
 82 83  1  0
 82 92  1  0
 83 86  1  0
 84 88  1  0
 84 83  1  0
 85 84  2  0
 88 87  1  0
 90 88  1  0
 90 91  1  0
 90 89  1  0
 92 95  1  1
 92 93  1  0
 94 92  1  0
M  ISO  4   5 101  15 100  24 100  55 101
M  END
>  <TORSDO>  (19) 
F 17

>  <SCORE>  (19) 
-14.998

>  <name>  (19) 
18

>  <ligand_id>  (19) 
18

>  <original_smiles>  (19) 
[H]c1c([H])c([H])c2c(c1[H])C([H])([H])C([H])([H])C([H])([H])C2([H])N([H])C(=O)C1([H])N(C(=O)C([H])(N([H])C(=O)C([H])(N([H])C([H])([H])[H])C([H])([H])[H])C(C([H])([H])[H])(C([H])([H])[H])C([H])([H])[H])C([H])([H])c2c([H])c(OC3([H])C(=O)C([H])([H])C([H])([H])N(c4c([H])c([H])c(C([H])([H])[H])c(C(=O)N([H])C(=O)N5C([H])([H])C([H])([H])C([H])([H])C([H])(n6nc(-c7c([H])c([H])c(Oc8c([H])c([H])c(F)c([H])c8F)c([H])c7[H])c(C(=O)N([H])[H])c6N([H])[H])C5([H])[H])c4[H])C3([H])[H])c([H])c([H])c2C1([H])[H]

>  <smiles>  (19) 
[H]c1c([H])c([H])c2c(c1[H])C([H])([H])C([H])([H])C([H])([H])C2([H])N([H])C(=O)C1([H])N(C(=O)C([H])(N([H])C(=O)C([H])(N([H])C([H])([H])[H])C([H])([H])[H])C(C([H])([H])[H])(C([H])([H])[H])C([H])([H])[H])C([H])([H])c2c([H])c(OC3([H])C(=O)C([H])([H])C([H])([H])N(c4c([H])c([H])c(C([H])([H])[H])c(C(=O)N([H])C(=O)N5C([H])([H])C([H])([H])C([H])([H])C([H])(n6nc(-c7c([H])c([H])c(Oc8c([H])c([H])c(F)c([H])c8F)c([H])c7[H])c(C(=O)N([H])[H])c6N([H])[H])C5([H])[H])c4[H])C3([H])[H])c([H])c([H])c2C1([H])[H]

$$$$
19:0:0
     RDKit          3D

 97106  0  0  1  0  0  0  0  0999 V2000
  -29.1410  -22.5120   19.7870 C   0  0  0  0  0  0  0  0  0  0  0  0
  -29.7910  -23.8480   21.6200 C   0  0  0  0  0  2  0  0  0  0  0  0
  -30.2170  -22.3730   21.8040 C   0  0  0  0  0  2  0  0  0  0  0  0
  -29.4580  -24.0280   20.1290 C   0  0  1  0  0  0  0  0  0  0  0  0
  -29.6950  -21.6130   20.6650 N   0  0  0  0  0  0  0  0  0  0  0  0
  -28.4340  -22.1970   18.8230 O   0  0  0  0  0  0  0  0  0  0  0  0
  -30.2470  -19.3930   21.7430 C   0  0  0  0  0  3  0  0  0  0  0  0
  -29.5470  -19.3340   19.4520 C   0  0  0  0  0  3  0  0  0  0  0  0
  -30.3710  -17.9710   21.7570 C   0  0  0  0  0  0  0  0  0  0  0  0
  -29.8100  -20.1330   20.6050 C   0  0  0  0  0  0  0  0  0  0  0  0
  -30.1010  -17.1860   20.6040 C   0  0  0  0  0  0  0  0  0  0  0  0
  -29.6880  -17.9060   19.4470 C   0  0  0  0  0  0  0  0  0  0  0  0
  -30.7810  -17.2880   23.0510 C   0  0  0  0  0  1  0  0  0  0  0  0
  -29.3650  -17.2190   18.3250 F   0  0  0  0  0  0  0  0  0  0  0  0
  -30.8260  -14.7270   20.1880 C   0  0  0  0  0  0  0  0  0  0  0  0
  -30.6480  -12.4700   19.1490 C   0  0  0  0  0  2  0  0  0  0  0  0
  -29.6570  -12.5590   17.9650 C   0  0  0  0  0  2  0  0  0  0  0  0
  -28.2030  -12.3740   18.4430 C   0  0  0  0  0  2  0  0  0  0  0  0
  -27.8700  -13.2450   19.6850 C   0  0  0  0  0  3  0  0  0  0  0  0
  -28.9660  -13.1090   20.7660 C   0  0  0  0  0  2  0  0  0  0  0  0
  -30.2490  -13.4820   20.1470 N   0  0  0  0  0  0  0  0  0  0  0  0
  -31.9460  -14.9310   19.7100 O   0  0  0  0  0  0  0  0  0  0  0  0
  -30.0470  -15.7260   20.7040 N   0  0  0  0  0  0  0  0  0  0  0  0
  -29.2220  -15.3790   21.1690 H   0  0  0  0  0  0  0  0  0  0  0  0
  -25.5090  -13.8210   20.5220 C   0  0  0  0  0  0  0  0  0  0  0  0
  -24.4560  -13.0360   20.9070 C   0  0  0  0  0  0  0  0  0  0  0  0
  -24.9130  -11.6870   20.8070 C   0  0  0  0  0  0  0  0  0  0  0  0
  -26.5400  -12.9480   20.2120 N   0  0  0  0  0  0  0  0  0  0  0  0
  -26.1890  -11.6570   20.4420 N   0  0  0  0  0  0  0  0  0  0  0  0
  -24.1910  -10.4190   20.9810 C   0  0  0  0  0  0  0  0  0  0  0  0
  -24.6030   -9.4590   21.9310 C   0  0  0  0  0  3  0  0  0  0  0  0
  -23.8830   -8.2560   22.0920 C   0  0  0  0  0  3  0  0  0  0  0  0
  -22.7350   -8.0050   21.3030 C   0  0  0  0  0  0  0  0  0  0  0  0
  -22.3420   -8.9540   20.3440 C   0  0  0  0  0  3  0  0  0  0  0  0
  -23.0640  -10.1480   20.1800 C   0  0  0  0  0  3  0  0  0  0  0  0
  -21.9880   -6.8540   21.3740 O   0  0  0  0  0  0  0  0  0  0  0  0
  -21.8240   -6.1720   22.5530 C   0  0  0  0  0  0  0  0  0  0  0  0
  -21.2600   -6.7850   23.6940 C   0  0  0  0  0  3  0  0  0  0  0  0
  -21.0450   -6.0290   24.8640 C   0  0  0  0  0  3  0  0  0  0  0  0
  -21.3830   -4.6620   24.8920 C   0  0  0  0  0  0  0  0  0  0  0  0
  -21.9400   -4.0510   23.7550 C   0  0  0  0  0  3  0  0  0  0  0  0
  -22.1570   -4.8030   22.5880 C   0  0  0  0  0  0  0  0  0  0  0  0
  -22.6730   -4.2040   21.4890 F   0  0  0  0  0  0  0  0  0  0  0  0
  -21.1700   -3.9350   26.0140 F   0  0  0  0  0  0  0  0  0  0  0  0
  -23.0730  -13.5050   21.2570 C   0  0  0  0  0  0  0  0  0  0  0  0
  -22.3890  -12.7900   22.1440 N   0  0  0  0  0  0  0  0  0  0  0  0
  -22.6080  -14.5390   20.7790 O   0  0  0  0  0  0  0  0  0  0  0  0
  -22.7790  -11.9530   22.5510 H   0  0  0  0  0  0  0  0  0  0  0  0
  -21.4640  -13.0860   22.4220 H   0  0  0  0  0  0  0  0  0  0  0  0
  -25.6690  -15.1970   20.3880 N   0  0  0  0  0  0  0  0  0  0  0  0
  -24.9060  -15.8460   20.5470 H   0  0  0  0  0  0  0  0  0  0  0  0
  -26.5030  -15.6470   20.0330 H   0  0  0  0  0  0  0  0  0  0  0  0
  -30.7300  -24.4440   19.3350 C   0  0  0  0  0  0  0  0  0  0  0  0
  -31.2940  -25.8420   19.5670 C   0  0  0  0  0  1  0  0  0  0  0  0
  -31.3220  -23.6940   18.5490 O   0  0  0  0  0  0  0  0  0  0  0  0
  -28.2860  -25.0940   19.8640 C   0  0  0  0  0  2  0  0  0  0  0  0
  -28.4480  -26.5290   20.2330 O   0  0  0  0  0  0  0  0  0  0  0  0
  -24.7950  -31.8680   23.4320 C   0  0  0  0  0  0  0  0  0  0  0  0
  -27.3340  -27.3860   20.2020 C   0  0  0  0  0  0  0  0  0  0  0  0
  -23.5670  -30.5520   21.7420 C   0  0  0  0  0  3  0  0  0  0  0  0
  -24.9920  -29.0330   20.2570 C   0  0  0  0  0  0  0  0  0  0  0  0
  -26.1110  -30.8340   21.5680 C   0  0  0  0  0  2  0  0  0  0  0  0
  -26.1670  -29.4810   20.8700 C   0  0  0  0  0  0  0  0  0  0  0  0
  -27.3400  -28.6690   20.8350 C   0  0  0  0  0  3  0  0  0  0  0  0
  -26.1340  -26.9950   19.5640 C   0  0  0  0  0  3  0  0  0  0  0  0
  -24.9770  -27.7960   19.5950 C   0  0  0  0  0  3  0  0  0  0  0  0
  -23.7690  -29.9240   20.3370 C   0  0  0  0  0  2  0  0  0  0  0  0
  -24.8440  -31.1000   22.3040 N   0  0  0  0  0  0  0  0  0  0  0  0
  -23.7170  -32.1430   23.9770 O   0  0  0  0  0  0  0  0  0  0  0  0
  -22.8890  -29.5110   22.6650 C   0  0  0  0  0  0  0  0  0  0  0  0
  -21.5650  -29.3350   22.5070 N   0  0  0  0  0  0  0  0  0  0  0  0
  -23.5520  -28.8660   23.4810 O   0  0  0  0  0  0  0  0  0  0  0  0
  -21.0900  -29.9070   21.8240 H   0  0  0  0  0  0  0  0  0  0  0  0
  -18.1840  -28.1110   22.8980 C   0  0  0  0  0  0  0  0  0  0  0  0
  -20.7330  -28.3800   23.2400 C   0  0  0  0  0  3  0  0  0  0  0  0
  -20.8580  -26.9590   22.6420 C   0  0  0  0  0  2  0  0  0  0  0  0
  -19.7860  -26.6480   21.5950 C   0  0  0  0  0  2  0  0  0  0  0  0
  -18.3860  -26.7750   22.2040 C   0  0  0  0  0  2  0  0  0  0  0  0
  -19.2860  -28.8720   23.3700 C   0  0  0  0  0  0  0  0  0  0  0  0
  -19.0440  -30.1230   23.9780 C   0  0  0  0  0  3  0  0  0  0  0  0
  -17.7330  -30.6140   24.1180 C   0  0  0  0  0  3  0  0  0  0  0  0
  -16.6440  -29.8500   23.6620 C   0  0  0  0  0  3  0  0  0  0  0  0
  -16.8700  -28.6010   23.0580 C   0  0  0  0  0  3  0  0  0  0  0  0
  -26.0890  -32.4550   24.0750 C   0  0  0  0  0  3  0  0  0  0  0  0
  -26.5850  -31.6360   25.3300 C   0  0  1  0  0  0  0  0  0  0  0  0
  -25.4830  -31.3880   26.3860 C   0  0  0  0  0  1  0  0  0  0  0  0
  -27.1450  -30.2610   24.8990 C   0  0  0  0  0  1  0  0  0  0  0  0
  -27.7460  -32.3900   26.0200 C   0  0  0  0  0  1  0  0  0  0  0  0
  -25.8060  -33.8480   24.4470 N   0  0  0  0  0  0  0  0  0  0  0  0
  -26.1380  -34.9170   23.7090 C   0  0  0  0  0  0  0  0  0  0  0  0
  -26.7830  -34.8300   22.6610 O   0  0  0  0  0  0  0  0  0  0  0  0
  -25.2320  -33.9900   25.2650 H   0  0  0  0  0  0  0  0  0  0  0  0
  -24.4170  -36.7340   23.4530 C   0  0  0  0  0  1  0  0  0  0  0  0
  -25.6800  -36.3000   24.2140 C   0  0  0  0  0  3  0  0  0  0  0  0
  -27.8490  -37.1450   24.9930 C   0  0  0  0  0  1  0  0  0  0  0  0
  -26.7200  -37.3450   24.0890 N   0  0  0  0  0  0  0  0  0  0  0  0
  -26.3280  -38.2650   24.2700 H   0  0  0  0  0  0  0  0  0  0  0  0
  1  4  1  0
  1  5  1  0
  2  3  1  0
  4 56  1  1
  4  2  1  0
  5  3  1  0
  6  1  2  0
  7  9  1  0
  8 10  1  0
  9 13  1  0
 10  5  1  0
 10  7  2  0
 11 23  1  0
 11  9  2  0
 12  8  2  0
 12 11  1  0
 14 12  1  0
 15 23  1  0
 16 21  1  0
 17 18  1  0
 17 16  1  0
 19 18  1  0
 19 28  1  0
 19 20  1  0
 21 15  1  0
 21 20  1  0
 22 15  2  0
 23 24  1  0
 25 26  2  0
 26 45  1  0
 27 26  1  0
 27 30  1  0
 28 29  1  0
 28 25  1  0
 29 27  2  0
 30 31  1  0
 31 32  2  0
 33 36  1  0
 33 32  1  0
 34 33  2  0
 35 34  1  0
 35 30  2  0
 36 37  1  0
 37 42  2  0
 37 38  1  0
 38 39  2  0
 39 40  1  0
 40 44  1  0
 41 40  2  0
 42 41  1  0
 43 42  1  0
 45 46  1  0
 46 49  1  0
 46 48  1  0
 47 45  2  0
 50 25  1  0
 50 51  1  0
 52 50  1  0
 53 54  1  0
 53  4  1  0
 55 53  2  0
 56 57  1  0
 58 69  2  0
 59 57  1  0
 59 64  1  0
 60 68  1  0
 60 70  1  0
 61 67  1  0
 61 63  1  0
 62 68  1  0
 63 62  1  0
 64 63  2  0
 65 66  1  0
 65 59  2  0
 66 61  2  0
 67 60  1  0
 68 58  1  0
 70 72  2  0
 71 70  1  0
 73 71  1  0
 74 83  2  0
 74 79  1  0
 75 71  1  0
 75 79  1  0
 76 75  1  0
 77 78  1  0
 77 76  1  0
 78 74  1  0
 79 80  2  0
 80 81  1  0
 82 81  2  0
 83 82  1  0
 84 58  1  0
 84 89  1  0
 84 85  1  0
 85 88  1  1
 85 86  1  0
 87 85  1  0
 89 92  1  0
 90 94  1  0
 90 89  1  0
 91 90  2  0
 94 93  1  0
 96 94  1  0
 96 97  1  0
 96 95  1  0
M  ISO  4  15 100  23 100  56 101  57 101
M  END
>  <TORSDO>  (20) 
F 19

>  <SCORE>  (20) 
-13.557

>  <name>  (20) 
19

>  <ligand_id>  (20) 
19

>  <original_smiles>  (20) 
[H]c1c([H])c([H])c2c(c1[H])C([H])([H])C([H])([H])C([H])([H])C2([H])N([H])C(=O)C1([H])N(C(=O)C([H])(N([H])C(=O)C([H])(N([H])C([H])([H])[H])C([H])([H])[H])C(C([H])([H])[H])(C([H])([H])[H])C([H])([H])[H])C([H])([H])c2c([H])c(OC([H])([H])C3(C(=O)C([H])([H])[H])C(=O)N(c4c([H])c(F)c(N([H])C(=O)N5C([H])([H])C([H])([H])C([H])([H])C([H])(n6nc(-c7c([H])c([H])c(Oc8c([H])c([H])c(F)c([H])c8F)c([H])c7[H])c(C(=O)N([H])[H])c6N([H])[H])C5([H])[H])c(C([H])([H])[H])c4[H])C([H])([H])C3([H])[H])c([H])c([H])c2C1([H])[H]

>  <smiles>  (20) 
[H]c1c([H])c([H])c2c(c1[H])C([H])([H])C([H])([H])C([H])([H])C2([H])N([H])C(=O)C1([H])N(C(=O)C([H])(N([H])C(=O)C([H])(N([H])C([H])([H])[H])C([H])([H])[H])C(C([H])([H])[H])(C([H])([H])[H])C([H])([H])[H])C([H])([H])c2c([H])c(OC([H])([H])C3(C(=O)C([H])([H])[H])C(=O)N(c4c([H])c(F)c(N([H])C(=O)N5C([H])([H])C([H])([H])C([H])([H])C([H])(n6nc(-c7c([H])c([H])c(Oc8c([H])c([H])c(F)c([H])c8F)c([H])c7[H])c(C(=O)N([H])[H])c6N([H])[H])C5([H])[H])c(C([H])([H])[H])c4[H])C([H])([H])C3([H])[H])c([H])c([H])c2C1([H])[H]

$$$$
20:0:0
     RDKit          3D

 96105  0  0  1  0  0  0  0  0999 V2000
  -29.5230  -19.9000   18.5190 C   0  0  0  0  0  3  0  0  0  0  0  0
  -29.9870  -17.4960   18.5950 C   0  0  0  0  0  3  0  0  0  0  0  0
  -29.8870  -18.8010   20.6550 C   0  0  0  0  0  3  0  0  0  0  0  0
  -29.6790  -18.6600   17.8530 C   0  0  0  0  0  0  0  0  0  0  0  0
  -29.6210  -20.0470   19.9290 C   0  0  0  0  0  0  0  0  0  0  0  0
  -30.0840  -17.5050   20.0060 C   0  0  0  0  0  0  0  0  0  0  0  0
  -30.9180  -15.0570   20.2730 C   0  0  0  0  0  0  0  0  0  0  0  0
  -30.6770  -12.8390   19.1660 C   0  0  0  0  0  2  0  0  0  0  0  0
  -29.7290  -13.0510   17.9680 C   0  0  0  0  0  2  0  0  0  0  0  0
  -28.2600  -12.8610   18.3940 C   0  0  0  0  0  2  0  0  0  0  0  0
  -27.9240  -13.6340   19.7000 C   0  0  0  0  0  3  0  0  0  0  0  0
  -29.0030  -13.4480   20.7880 C   0  0  0  0  0  2  0  0  0  0  0  0
  -30.2950  -13.8300   20.2030 N   0  0  0  0  0  0  0  0  0  0  0  0
  -32.0780  -15.1760   19.8690 O   0  0  0  0  0  0  0  0  0  0  0  0
  -30.1960  -16.1770   20.6690 N   0  0  0  0  0  0  0  0  0  0  0  0
  -29.4000  -15.9530   21.2480 H   0  0  0  0  0  0  0  0  0  0  0  0
  -25.5280  -14.1820   20.4300 C   0  0  0  0  0  0  0  0  0  0  0  0
  -24.4750  -13.3920   20.8030 C   0  0  0  0  0  0  0  0  0  0  0  0
  -24.9540  -12.0460   20.7640 C   0  0  0  0  0  0  0  0  0  0  0  0
  -26.5860  -13.3180   20.1940 N   0  0  0  0  0  0  0  0  0  0  0  0
  -26.2450  -12.0260   20.4470 N   0  0  0  0  0  0  0  0  0  0  0  0
  -24.2370  -10.7760   20.9510 C   0  0  0  0  0  0  0  0  0  0  0  0
  -24.6320   -9.8470   21.9390 C   0  0  0  0  0  3  0  0  0  0  0  0
  -23.9170   -8.6420   22.1160 C   0  0  0  0  0  3  0  0  0  0  0  0
  -22.7930   -8.3590   21.3070 C   0  0  0  0  0  0  0  0  0  0  0  0
  -22.4150   -9.2760   20.3090 C   0  0  0  0  0  3  0  0  0  0  0  0
  -23.1320  -10.4710   20.1310 C   0  0  0  0  0  3  0  0  0  0  0  0
  -22.0570   -7.2010   21.3880 O   0  0  0  0  0  0  0  0  0  0  0  0
  -21.8880   -6.5360   22.5740 C   0  0  0  0  0  0  0  0  0  0  0  0
  -21.2700   -7.1430   23.6910 C   0  0  0  0  0  3  0  0  0  0  0  0
  -21.0470   -6.3990   24.8660 C   0  0  0  0  0  3  0  0  0  0  0  0
  -21.4390   -5.0500   24.9320 C   0  0  0  0  0  0  0  0  0  0  0  0
  -22.0520   -4.4410   23.8220 C   0  0  0  0  0  3  0  0  0  0  0  0
  -22.2760   -5.1820   22.6460 C   0  0  0  0  0  0  0  0  0  0  0  0
  -22.8450   -4.5820   21.5750 F   0  0  0  0  0  0  0  0  0  0  0  0
  -21.2210   -4.3360   26.0600 F   0  0  0  0  0  0  0  0  0  0  0  0
  -23.0780  -13.8550   21.0960 C   0  0  0  0  0  0  0  0  0  0  0  0
  -22.3760  -13.1510   21.9770 N   0  0  0  0  0  0  0  0  0  0  0  0
  -22.6180  -14.8710   20.5800 O   0  0  0  0  0  0  0  0  0  0  0  0
  -22.7640  -12.3300   22.4180 H   0  0  0  0  0  0  0  0  0  0  0  0
  -21.4440  -13.4470   22.2220 H   0  0  0  0  0  0  0  0  0  0  0  0
  -25.6690  -15.5510   20.2380 N   0  0  0  0  0  0  0  0  0  0  0  0
  -24.8520  -16.1470   20.1570 H   0  0  0  0  0  0  0  0  0  0  0  0
  -26.4910  -15.9560   19.8070 H   0  0  0  0  0  0  0  0  0  0  0  0
  -29.1260  -23.3330   21.8080 C   0  0  0  0  0  3  0  0  0  0  0  0
  -28.7140  -23.7800   20.6090 C   0  0  0  0  0  0  0  0  0  0  0  0
  -29.5610  -21.9220   21.7360 C   0  0  0  0  0  0  0  0  0  0  0  0
  -28.9180  -22.5940   19.6470 C   0  0  0  0  0  2  0  0  0  0  0  0
  -29.3820  -21.4310   20.4740 N   0  0  0  0  0  0  0  0  0  0  0  0
  -30.0100  -21.2710   22.6840 O   0  0  0  0  0  0  0  0  0  0  0  0
  -27.8810  -25.0840   20.1850 C   0  0  0  0  0  2  0  0  0  0  0  0
  -28.2460  -26.5260   20.4940 O   0  0  0  0  0  0  0  0  0  0  0  0
  -24.6730  -32.1230   23.5090 C   0  0  0  0  0  0  0  0  0  0  0  0
  -27.2010  -27.4940   20.4050 C   0  0  0  0  0  0  0  0  0  0  0  0
  -23.4440  -30.7440   21.8760 C   0  0  0  0  0  3  0  0  0  0  0  0
  -24.8710  -29.1990   20.4130 C   0  0  0  0  0  0  0  0  0  0  0  0
  -25.9940  -31.0180   21.6850 C   0  0  0  0  0  2  0  0  0  0  0  0
  -26.0530  -29.6420   21.0190 C   0  0  0  0  0  0  0  0  0  0  0  0
  -27.2180  -28.8020   21.0090 C   0  0  0  0  0  3  0  0  0  0  0  0
  -26.0030  -27.1520   19.7260 C   0  0  0  0  0  3  0  0  0  0  0  0
  -24.8570  -27.9700   19.7440 C   0  0  0  0  0  3  0  0  0  0  0  0
  -23.6470  -30.0900   20.4860 C   0  0  0  0  0  2  0  0  0  0  0  0
  -24.7220  -31.3160   22.4100 N   0  0  0  0  0  0  0  0  0  0  0  0
  -23.5940  -32.4090   24.0540 O   0  0  0  0  0  0  0  0  0  0  0  0
  -22.7850  -29.7220   22.8350 C   0  0  0  0  0  0  0  0  0  0  0  0
  -21.4910  -29.4310   22.6180 N   0  0  0  0  0  0  0  0  0  0  0  0
  -23.4390  -29.1940   23.7360 O   0  0  0  0  0  0  0  0  0  0  0  0
  -21.0150  -29.9250   21.8750 H   0  0  0  0  0  0  0  0  0  0  0  0
  -18.2250  -27.8790   22.8480 C   0  0  0  0  0  0  0  0  0  0  0  0
  -20.6880  -28.4690   23.3750 C   0  0  0  0  0  3  0  0  0  0  0  0
  -21.0180  -27.0160   22.9580 C   0  0  0  0  0  2  0  0  0  0  0  0
  -20.0910  -26.4720   21.8660 C   0  0  0  0  0  2  0  0  0  0  0  0
  -18.6300  -26.5090   22.3260 C   0  0  0  0  0  2  0  0  0  0  0  0
  -19.1930  -28.8030   23.3240 C   0  0  0  0  0  0  0  0  0  0  0  0
  -18.7660  -30.0740   23.7660 C   0  0  0  0  0  3  0  0  0  0  0  0
  -17.4040  -30.4260   23.7380 C   0  0  0  0  0  3  0  0  0  0  0  0
  -16.4500  -29.5040   23.2790 C   0  0  0  0  0  3  0  0  0  0  0  0
  -16.8590  -28.2320   22.8390 C   0  0  0  0  0  3  0  0  0  0  0  0
  -25.9660  -32.7480   24.1190 C   0  0  0  0  0  3  0  0  0  0  0  0
  -26.4680  -31.9990   25.4150 C   0  0  1  0  0  0  0  0  0  0  0  0
  -25.3450  -31.7070   26.4370 C   0  0  0  0  0  1  0  0  0  0  0  0
  -27.1380  -30.6540   25.0500 C   0  0  0  0  0  1  0  0  0  0  0  0
  -27.5520  -32.8480   26.1240 C   0  0  0  0  0  1  0  0  0  0  0  0
  -25.6840  -34.1590   24.4230 N   0  0  0  0  0  0  0  0  0  0  0  0
  -25.9890  -35.1890   23.6230 C   0  0  0  0  0  0  0  0  0  0  0  0
  -26.6150  -35.0520   22.5680 O   0  0  0  0  0  0  0  0  0  0  0  0
  -25.1540  -34.3490   25.2600 H   0  0  0  0  0  0  0  0  0  0  0  0
  -24.2470  -36.9770   23.3040 C   0  0  0  0  0  1  0  0  0  0  0  0
  -25.5280  -36.5920   24.0620 C   0  0  0  0  0  3  0  0  0  0  0  0
  -27.6970  -37.5100   24.7550 C   0  0  0  0  0  1  0  0  0  0  0  0
  -26.5530  -37.6400   23.8580 N   0  0  0  0  0  0  0  0  0  0  0  0
  -26.1520  -38.5650   23.9840 H   0  0  0  0  0  0  0  0  0  0  0  0
  -27.9470  -18.8650   16.0140 C   0  0  0  0  0  1  0  0  0  0  0  0
  -30.3570  -19.4500   15.4990 C   0  0  0  0  0  1  0  0  0  0  0  0
  -29.4200  -18.5640   16.3370 C   0  0  1  0  0  0  0  0  0  0  0  0
  -29.6350  -17.3180   15.9120 F   0  0  0  0  0  0  0  0  0  0  0  0
  1  5  1  0
  2  6  2  0
  4  1  2  0
  4  2  1  0
  5 49  1  0
  5  3  2  0
  6  3  1  0
  6 15  1  0
  7 15  1  0
  8 13  1  0
  9 10  1  0
  9  8  1  0
 11 10  1  0
 11 20  1  0
 11 12  1  0
 13  7  1  0
 13 12  1  0
 14  7  2  0
 15 16  1  0
 17 18  2  0
 18 37  1  0
 19 18  1  0
 19 22  1  0
 20 17  1  0
 20 21  1  0
 21 19  2  0
 22 23  1  0
 23 24  2  0
 25 28  1  0
 25 24  1  0
 26 25  2  0
 27 26  1  0
 27 22  2  0
 28 29  1  0
 29 34  2  0
 29 30  1  0
 30 31  2  0
 31 32  1  0
 32 36  1  0
 33 32  2  0
 34 33  1  0
 35 34  1  0
 37 38  1  0
 38 41  1  0
 38 40  1  0
 39 37  2  0
 42 17  1  0
 43 42  1  0
 44 42  1  0
 46 45  2  0
 47 45  1  0
 47 50  2  0
 48 49  1  0
 48 46  1  0
 49 47  1  0
 51 52  1  0
 51 46  1  0
 53 64  2  0
 54 52  1  0
 54 59  1  0
 55 63  1  0
 55 65  1  0
 56 62  1  0
 56 58  1  0
 57 63  1  0
 58 57  1  0
 59 58  2  0
 60 61  1  0
 60 54  2  0
 61 56  2  0
 62 55  1  0
 63 53  1  0
 65 67  2  0
 66 65  1  0
 68 66  1  0
 69 74  1  0
 70 66  1  0
 71 70  1  0
 72 73  1  0
 72 71  1  0
 73 69  1  0
 74 70  1  0
 74 75  2  0
 76 75  1  0
 77 76  2  0
 78 69  2  0
 78 77  1  0
 79 53  1  0
 79 84  1  0
 79 80  1  0
 80 83  1  1
 80 81  1  0
 82 80  1  0
 84 87  1  0
 85 89  1  0
 85 84  1  0
 86 85  2  0
 89 88  1  0
 91 92  1  0
 91 89  1  0
 91 90  1  0
 95 93  1  1
 94 95  1  0
 95  4  1  0
 96 95  1  0
M  ISO  4   7 100  15 100  51 101  52 101
M  END
>  <TORSDO>  (21) 
F 19

>  <SCORE>  (21) 
-13.152

>  <name>  (21) 
20

>  <ligand_id>  (21) 
20

>  <original_smiles>  (21) 
[H]C1=C(C([H])([H])Oc2c([H])c([H])c3c(c2[H])C([H])([H])N(C(=O)C([H])(N([H])C(=O)C([H])(N([H])C([H])([H])[H])C([H])([H])[H])C(C([H])([H])[H])(C([H])([H])[H])C([H])([H])[H])C([H])(C(=O)N([H])C2([H])c4c([H])c([H])c([H])c([H])c4C([H])([H])C([H])([H])C2([H])[H])C3([H])[H])C([H])([H])N(c2c([H])c(N([H])C(=O)N3C([H])([H])C([H])([H])C([H])([H])C([H])(n4nc(-c5c([H])c([H])c(Oc6c([H])c([H])c(F)c([H])c6F)c([H])c5[H])c(C(=O)N([H])[H])c4N([H])[H])C3([H])[H])c([H])c(C(F)(C([H])([H])[H])C([H])([H])[H])c2[H])C1=O

>  <smiles>  (21) 
[H]C1=C(C([H])([H])Oc2c([H])c([H])c3c(c2[H])C([H])([H])N(C(=O)C([H])(N([H])C(=O)C([H])(N([H])C([H])([H])[H])C([H])([H])[H])C(C([H])([H])[H])(C([H])([H])[H])C([H])([H])[H])C([H])(C(=O)N([H])C2([H])c4c([H])c([H])c([H])c([H])c4C([H])([H])C([H])([H])C2([H])[H])C3([H])[H])C([H])([H])N(c2c([H])c(N([H])C(=O)N3C([H])([H])C([H])([H])C([H])([H])C([H])(n4nc(-c5c([H])c([H])c(Oc6c([H])c([H])c(F)c([H])c6F)c([H])c5[H])c(C(=O)N([H])[H])c4N([H])[H])C3([H])[H])c([H])c(C(F)(C([H])([H])[H])C([H])([H])[H])c2[H])C1=O

$$$$
21:0:0
     RDKit          3D

 93102  0  0  1  0  0  0  0  0999 V2000
  -29.6190  -23.2980   21.2080 C   0  0  0  0  0  0  0  0  0  0  0  0
  -28.6630  -23.5610   20.3020 C   0  0  0  0  0  0  0  0  0  0  0  0
  -29.9610  -21.8550   21.2210 C   0  0  0  0  0  0  0  0  0  0  0  0
  -28.3210  -22.2010   19.6570 C   0  0  0  0  0  2  0  0  0  0  0  0
  -30.3030  -24.2930   22.1270 C   0  0  0  0  0  1  0  0  0  0  0  0
  -29.1910  -21.1770   20.3240 N   0  0  0  0  0  0  0  0  0  0  0  0
  -30.8140  -21.3250   21.9400 O   0  0  0  0  0  0  0  0  0  0  0  0
  -29.7500  -18.3860   17.8180 C   0  0  0  0  0  3  0  0  0  0  0  0
  -29.4960  -19.6310   18.4210 C   0  0  0  0  0  3  0  0  0  0  0  0
  -29.9230  -17.2200   18.5840 C   0  0  0  0  0  3  0  0  0  0  0  0
  -29.5870  -18.5510   20.6010 C   0  0  0  0  0  3  0  0  0  0  0  0
  -29.4220  -19.7820   19.8260 C   0  0  0  0  0  0  0  0  0  0  0  0
  -29.8390  -17.2420   19.9940 C   0  0  0  0  0  0  0  0  0  0  0  0
  -30.6220  -14.7950   20.3490 C   0  0  0  0  0  0  0  0  0  0  0  0
  -30.4160  -12.5110   19.3670 C   0  0  0  0  0  2  0  0  0  0  0  0
  -29.4880  -12.5890   18.1330 C   0  0  0  0  0  2  0  0  0  0  0  0
  -28.0150  -12.4260   18.5560 C   0  0  0  0  0  2  0  0  0  0  0  0
  -27.6420  -13.3170   19.7700 C   0  0  0  0  0  3  0  0  0  0  0  0
  -28.6930  -13.2270   20.9000 C   0  0  0  0  0  2  0  0  0  0  0  0
  -29.9960  -13.5650   20.3190 N   0  0  0  0  0  0  0  0  0  0  0  0
  -31.7880  -14.8940   19.9580 O   0  0  0  0  0  0  0  0  0  0  0  0
  -29.8880  -15.9240   20.6840 N   0  0  0  0  0  0  0  0  0  0  0  0
  -29.0800  -15.7240   21.2570 H   0  0  0  0  0  0  0  0  0  0  0  0
  -25.2490  -13.9120   20.4860 C   0  0  0  0  0  0  0  0  0  0  0  0
  -24.1800  -13.1400   20.8550 C   0  0  0  0  0  0  0  0  0  0  0  0
  -24.6440  -11.7890   20.8310 C   0  0  0  0  0  0  0  0  0  0  0  0
  -26.2940  -13.0330   20.2540 N   0  0  0  0  0  0  0  0  0  0  0  0
  -25.9360  -11.7500   20.5260 N   0  0  0  0  0  0  0  0  0  0  0  0
  -23.9170  -10.5260   21.0260 C   0  0  0  0  0  0  0  0  0  0  0  0
  -24.3500   -9.5590   21.9600 C   0  0  0  0  0  3  0  0  0  0  0  0
  -23.6250   -8.3610   22.1400 C   0  0  0  0  0  3  0  0  0  0  0  0
  -22.4490   -8.1240   21.3860 C   0  0  0  0  0  0  0  0  0  0  0  0
  -22.0350   -9.0780   20.4410 C   0  0  0  0  0  3  0  0  0  0  0  0
  -22.7630  -10.2660   20.2590 C   0  0  0  0  0  3  0  0  0  0  0  0
  -21.6940   -6.9790   21.4770 O   0  0  0  0  0  0  0  0  0  0  0  0
  -21.6440   -6.2380   22.6290 C   0  0  0  0  0  0  0  0  0  0  0  0
  -21.2100   -6.7920   23.8530 C   0  0  0  0  0  3  0  0  0  0  0  0
  -21.1090   -5.9770   24.9980 C   0  0  0  0  0  3  0  0  0  0  0  0
  -21.4320   -4.6080   24.9210 C   0  0  0  0  0  0  0  0  0  0  0  0
  -21.8590   -4.0540   23.7010 C   0  0  0  0  0  3  0  0  0  0  0  0
  -21.9620   -4.8660   22.5580 C   0  0  0  0  0  0  0  0  0  0  0  0
  -22.3550   -4.3230   21.3810 F   0  0  0  0  0  0  0  0  0  0  0  0
  -21.3290   -3.8240   26.0180 F   0  0  0  0  0  0  0  0  0  0  0  0
  -22.7820  -13.6170   21.1210 C   0  0  0  0  0  0  0  0  0  0  0  0
  -22.0480  -12.9230   21.9820 N   0  0  0  0  0  0  0  0  0  0  0  0
  -22.3470  -14.6440   20.5990 O   0  0  0  0  0  0  0  0  0  0  0  0
  -22.4130  -12.0960   22.4310 H   0  0  0  0  0  0  0  0  0  0  0  0
  -21.1100  -13.2270   22.2050 H   0  0  0  0  0  0  0  0  0  0  0  0
  -25.4160  -15.2820   20.3070 N   0  0  0  0  0  0  0  0  0  0  0  0
  -24.6570  -15.9430   20.4280 H   0  0  0  0  0  0  0  0  0  0  0  0
  -26.2690  -15.7140   19.9800 H   0  0  0  0  0  0  0  0  0  0  0  0
  -27.8580  -24.8870   19.9070 C   0  0  0  0  0  2  0  0  0  0  0  0
  -28.2060  -26.3220   20.2520 O   0  0  0  0  0  0  0  0  0  0  0  0
  -24.5850  -31.9040   23.2350 C   0  0  0  0  0  0  0  0  0  0  0  0
  -27.1500  -27.2780   20.1660 C   0  0  0  0  0  0  0  0  0  0  0  0
  -23.3730  -30.5150   21.6000 C   0  0  0  0  0  3  0  0  0  0  0  0
  -24.8140  -28.9690   20.1580 C   0  0  0  0  0  0  0  0  0  0  0  0
  -25.9230  -30.8030   21.4180 C   0  0  0  0  0  2  0  0  0  0  0  0
  -25.9920  -29.4230   20.7630 C   0  0  0  0  0  0  0  0  0  0  0  0
  -27.1630  -28.5890   20.7620 C   0  0  0  0  0  3  0  0  0  0  0  0
  -25.9490  -26.9230   19.5040 C   0  0  0  0  0  3  0  0  0  0  0  0
  -24.7990  -27.7270   19.5180 C   0  0  0  0  0  3  0  0  0  0  0  0
  -23.5830  -29.8520   20.2150 C   0  0  0  0  0  2  0  0  0  0  0  0
  -24.6460  -31.0940   22.1390 N   0  0  0  0  0  0  0  0  0  0  0  0
  -23.5030  -32.1840   23.7730 O   0  0  0  0  0  0  0  0  0  0  0  0
  -22.7100  -29.4940   22.5600 C   0  0  0  0  0  0  0  0  0  0  0  0
  -21.3820  -29.3170   22.4380 N   0  0  0  0  0  0  0  0  0  0  0  0
  -23.3900  -28.8660   23.3750 O   0  0  0  0  0  0  0  0  0  0  0  0
  -20.8900  -29.8770   21.7550 H   0  0  0  0  0  0  0  0  0  0  0  0
  -18.0040  -28.1190   22.9520 C   0  0  0  0  0  0  0  0  0  0  0  0
  -20.5660  -28.3790   23.2130 C   0  0  0  0  0  3  0  0  0  0  0  0
  -20.6650  -26.9480   22.6370 C   0  0  0  0  0  2  0  0  0  0  0  0
  -19.5580  -26.6260   21.6260 C   0  0  0  0  0  2  0  0  0  0  0  0
  -18.1790  -26.7700   22.2750 C   0  0  0  0  0  2  0  0  0  0  0  0
  -19.1250  -28.8810   23.3790 C   0  0  0  0  0  0  0  0  0  0  0  0
  -18.9080  -30.1430   23.9740 C   0  0  0  0  0  3  0  0  0  0  0  0
  -17.6050  -30.6440   24.1450 C   0  0  0  0  0  3  0  0  0  0  0  0
  -16.4990  -29.8790   23.7360 C   0  0  0  0  0  3  0  0  0  0  0  0
  -16.6990  -28.6190   23.1460 C   0  0  0  0  0  3  0  0  0  0  0  0
  -25.8690  -32.5360   23.8540 C   0  0  0  0  0  3  0  0  0  0  0  0
  -25.5620  -33.9370   24.1820 N   0  0  0  0  0  0  0  0  0  0  0  0
  -25.8980  -34.9890   23.4250 C   0  0  0  0  0  0  0  0  0  0  0  0
  -26.5690  -34.8830   22.3930 O   0  0  0  0  0  0  0  0  0  0  0  0
  -24.9640  -34.0920   24.9800 H   0  0  0  0  0  0  0  0  0  0  0  0
  -24.1850  -36.7950   23.0620 C   0  0  0  0  0  1  0  0  0  0  0  0
  -25.4170  -36.3780   23.8830 C   0  0  0  0  0  3  0  0  0  0  0  0
  -27.5480  -37.2480   24.7370 C   0  0  0  0  0  1  0  0  0  0  0  0
  -26.4570  -37.4260   23.7830 N   0  0  0  0  0  0  0  0  0  0  0  0
  -26.0550  -38.3470   23.9280 H   0  0  0  0  0  0  0  0  0  0  0  0
  -26.3830  -31.7690   25.1340 C   0  0  1  0  0  0  0  0  0  0  0  0
  -25.2900  -31.5410   26.2040 C   0  0  0  0  0  1  0  0  0  0  0  0
  -26.9610  -30.3860   24.7520 C   0  0  0  0  0  1  0  0  0  0  0  0
  -27.5370  -32.5620   25.7890 C   0  0  0  0  0  1  0  0  0  0  0  0
  1  3  1  0
  1  5  1  0
  2  1  2  0
  3  7  2  0
  4  2  1  0
  4  6  1  0
  6  3  1  0
  8  9  2  0
  8 10  1  0
  9 12  1  0
 10 13  2  0
 12  6  1  0
 12 11  2  0
 13 11  1  0
 13 22  1  0
 14 22  1  0
 15 20  1  0
 16 17  1  0
 16 15  1  0
 18 17  1  0
 18 27  1  0
 18 19  1  0
 20 14  1  0
 20 19  1  0
 21 14  2  0
 22 23  1  0
 24 25  2  0
 25 44  1  0
 26 25  1  0
 26 29  1  0
 27 24  1  0
 27 28  1  0
 28 26  2  0
 29 30  1  0
 30 31  2  0
 32 35  1  0
 32 31  1  0
 33 32  2  0
 34 33  1  0
 34 29  2  0
 35 36  1  0
 36 37  1  0
 37 38  2  0
 39 38  1  0
 39 43  1  0
 40 39  2  0
 41 36  2  0
 41 40  1  0
 42 41  1  0
 44 45  1  0
 45 48  1  0
 45 47  1  0
 46 44  2  0
 49 50  1  0
 49 24  1  0
 51 49  1  0
 52 53  1  0
 52  2  1  0
 54 65  2  0
 55 53  1  0
 55 60  1  0
 56 64  1  0
 56 66  1  0
 57 63  1  0
 57 59  1  0
 58 64  1  0
 59 58  1  0
 60 59  2  0
 61 62  1  0
 61 55  2  0
 62 57  2  0
 63 56  1  0
 64 54  1  0
 66 68  2  0
 67 66  1  0
 69 67  1  0
 70 79  2  0
 70 75  1  0
 71 67  1  0
 71 75  1  0
 72 71  1  0
 73 74  1  0
 73 72  1  0
 74 70  1  0
 75 76  2  0
 76 77  1  0
 78 77  2  0
 79 78  1  0
 80 54  1  0
 80 81  1  0
 80 90  1  0
 81 84  1  0
 82 86  1  0
 82 81  1  0
 83 82  2  0
 86 85  1  0
 88 86  1  0
 88 89  1  0
 88 87  1  0
 90 93  1  1
 90 91  1  0
 92 90  1  0
M  ISO  4  14 100  22 100  52 101  53 101
M  END
>  <TORSDO>  (22) 
F 18

>  <SCORE>  (22) 
-14.772

>  <name>  (22) 
21

>  <ligand_id>  (22) 
21

>  <original_smiles>  (22) 
[H]c1c([H])c(N([H])C(=O)N2C([H])([H])C([H])([H])C([H])([H])C([H])(n3nc(-c4c([H])c([H])c(Oc5c([H])c([H])c(F)c([H])c5F)c([H])c4[H])c(C(=O)N([H])[H])c3N([H])[H])C2([H])[H])c([H])c(N2C(=O)C(C([H])([H])[H])=C(C([H])([H])Oc3c([H])c([H])c4c(c3[H])C([H])([H])N(C(=O)C([H])(N([H])C(=O)C([H])(N([H])C([H])([H])[H])C([H])([H])[H])C(C([H])([H])[H])(C([H])([H])[H])C([H])([H])[H])C([H])(C(=O)N([H])C3([H])c5c([H])c([H])c([H])c([H])c5C([H])([H])C([H])([H])C3([H])[H])C4([H])[H])C2([H])[H])c1[H]

>  <smiles>  (22) 
[H]c1c([H])c(N([H])C(=O)N2C([H])([H])C([H])([H])C([H])([H])C([H])(n3nc(-c4c([H])c([H])c(Oc5c([H])c([H])c(F)c([H])c5F)c([H])c4[H])c(C(=O)N([H])[H])c3N([H])[H])C2([H])[H])c([H])c(N2C(=O)C(C([H])([H])[H])=C(C([H])([H])Oc3c([H])c([H])c4c(c3[H])C([H])([H])N(C(=O)C([H])(N([H])C(=O)C([H])(N([H])C([H])([H])[H])C([H])([H])[H])C(C([H])([H])[H])(C([H])([H])[H])C([H])([H])[H])C([H])(C(=O)N([H])C3([H])c5c([H])c([H])c([H])c([H])c5C([H])([H])C([H])([H])C3([H])[H])C4([H])[H])C2([H])[H])c1[H]

$$$$
22:0:0
     RDKit          3D

 95104  0  0  1  0  0  0  0  0999 V2000
  -30.0260  -22.9100   18.9400 C   0  0  0  0  0  0  0  0  0  0  0  0
  -28.6210  -22.8340   20.3920 C   0  0  0  0  0  0  0  0  0  0  0  0
  -29.4350  -24.0520   19.8330 C   0  0  0  0  0  3  0  0  0  0  0  0
  -29.4950  -21.9010   19.7830 N   0  0  0  0  0  0  0  0  0  0  0  0
  -30.6820  -22.8390   17.9190 O   0  0  0  0  0  0  0  0  0  0  0  0
  -27.6340  -22.6730   21.0810 O   0  0  0  0  0  0  0  0  0  0  0  0
  -30.7200  -19.6940   19.3040 C   0  0  0  0  0  3  0  0  0  0  0  0
  -30.8020  -18.2700   19.2560 C   0  0  0  0  0  3  0  0  0  0  0  0
  -28.6280  -19.5400   20.3700 C   0  0  0  0  0  3  0  0  0  0  0  0
  -28.6720  -18.1010   20.3290 C   0  0  0  0  0  0  0  0  0  0  0  0
  -29.6080  -20.4230   19.8170 C   0  0  0  0  0  0  0  0  0  0  0  0
  -29.7640  -17.4060   19.7130 C   0  0  0  0  0  0  0  0  0  0  0  0
  -30.5600  -14.9300   19.4920 C   0  0  0  0  0  0  0  0  0  0  0  0
  -30.3800  -12.6230   18.5470 C   0  0  0  0  0  2  0  0  0  0  0  0
  -29.2950  -12.5530   17.4470 C   0  0  0  0  0  2  0  0  0  0  0  0
  -27.8780  -12.3980   18.0460 C   0  0  0  0  0  2  0  0  0  0  0  0
  -27.6090  -13.2620   19.3130 C   0  0  0  0  0  3  0  0  0  0  0  0
  -28.8120  -13.2390   20.2750 C   0  0  0  0  0  2  0  0  0  0  0  0
  -29.9880  -13.6740   19.5080 N   0  0  0  0  0  0  0  0  0  0  0  0
  -31.7540  -15.0470   19.2020 O   0  0  0  0  0  0  0  0  0  0  0  0
  -29.3110  -16.0170   17.7900 C   0  0  0  0  0  1  0  0  0  0  0  0
  -29.7100  -16.0030   19.2120 N   0  0  0  0  0  0  0  0  0  0  0  0
  -25.3370  -13.7330   20.4080 C   0  0  0  0  0  0  0  0  0  0  0  0
  -24.3490  -12.9050   20.8650 C   0  0  0  0  0  0  0  0  0  0  0  0
  -24.8250  -11.5740   20.6600 C   0  0  0  0  0  0  0  0  0  0  0  0
  -26.3560  -12.9010   19.9670 N   0  0  0  0  0  0  0  0  0  0  0  0
  -26.0610  -11.5930   20.1750 N   0  0  0  0  0  0  0  0  0  0  0  0
  -24.1540  -10.2820   20.8420 C   0  0  0  0  0  0  0  0  0  0  0  0
  -24.6500   -9.3150   21.7430 C   0  0  0  0  0  3  0  0  0  0  0  0
  -23.9770   -8.0860   21.9140 C   0  0  0  0  0  3  0  0  0  0  0  0
  -22.7950   -7.8170   21.1840 C   0  0  0  0  0  0  0  0  0  0  0  0
  -22.3220   -8.7730   20.2690 C   0  0  0  0  0  3  0  0  0  0  0  0
  -22.9940   -9.9930   20.0950 C   0  0  0  0  0  3  0  0  0  0  0  0
  -22.0910   -6.6410   21.2660 O   0  0  0  0  0  0  0  0  0  0  0  0
  -21.9130   -5.9930   22.4630 C   0  0  0  0  0  0  0  0  0  0  0  0
  -21.3260   -6.6310   23.5760 C   0  0  0  0  0  3  0  0  0  0  0  0
  -21.0970   -5.9080   24.7640 C   0  0  0  0  0  3  0  0  0  0  0  0
  -21.4470   -4.5470   24.8380 C   0  0  0  0  0  0  0  0  0  0  0  0
  -22.0270   -3.9070   23.7290 C   0  0  0  0  0  3  0  0  0  0  0  0
  -22.2580   -4.6280   22.5440 C   0  0  0  0  0  0  0  0  0  0  0  0
  -22.8000   -4.0020   21.4710 F   0  0  0  0  0  0  0  0  0  0  0  0
  -21.2210   -3.8490   25.9760 F   0  0  0  0  0  0  0  0  0  0  0  0
  -22.9960  -13.3220   21.3610 C   0  0  0  0  0  0  0  0  0  0  0  0
  -22.4100  -12.5440   22.2650 N   0  0  0  0  0  0  0  0  0  0  0  0
  -22.4710  -14.3690   20.9850 O   0  0  0  0  0  0  0  0  0  0  0  0
  -22.8540  -11.6940   22.5830 H   0  0  0  0  0  0  0  0  0  0  0  0
  -21.5100  -12.7990   22.6440 H   0  0  0  0  0  0  0  0  0  0  0  0
  -25.4380  -15.1140   20.2980 N   0  0  0  0  0  0  0  0  0  0  0  0
  -24.6300  -15.6990   20.4770 H   0  0  0  0  0  0  0  0  0  0  0  0
  -26.1440  -15.5710   19.7360 H   0  0  0  0  0  0  0  0  0  0  0  0
  -27.5530  -17.3610   20.9730 C   0  0  0  0  0  0  0  0  0  0  0  0
  -26.1570  -17.5600   20.3910 C   0  0  0  0  0  1  0  0  0  0  0  0
  -27.7000  -16.6260   21.9520 O   0  0  0  0  0  0  0  0  0  0  0  0
  -28.5960  -25.2190   19.1300 C   0  0  0  0  0  2  0  0  0  0  0  0
  -28.6860  -26.6420   19.5840 O   0  0  0  0  0  0  0  0  0  0  0  0
  -24.5950  -31.5030   23.0260 C   0  0  0  0  0  0  0  0  0  0  0  0
  -27.5170  -27.4320   19.5790 C   0  0  0  0  0  0  0  0  0  0  0  0
  -23.4880  -30.1750   21.2640 C   0  0  0  0  0  3  0  0  0  0  0  0
  -25.0430  -28.8770   19.7000 C   0  0  0  0  0  0  0  0  0  0  0  0
  -25.9980  -30.6920   21.1160 C   0  0  0  0  0  2  0  0  0  0  0  0
  -26.1760  -29.3880   20.3470 C   0  0  0  0  0  0  0  0  0  0  0  0
  -27.4140  -28.6770   20.2800 C   0  0  0  0  0  3  0  0  0  0  0  0
  -26.3590  -26.9930   18.8930 C   0  0  0  0  0  3  0  0  0  0  0  0
  -25.1390  -27.6880   18.9630 C   0  0  0  0  0  3  0  0  0  0  0  0
  -23.7440  -29.6490   19.8280 C   0  0  0  0  0  2  0  0  0  0  0  0
  -24.7120  -30.8030   21.8600 N   0  0  0  0  0  0  0  0  0  0  0  0
  -23.4960  -31.6520   23.5800 O   0  0  0  0  0  0  0  0  0  0  0  0
  -22.9070  -29.0280   22.1250 C   0  0  0  0  0  0  0  0  0  0  0  0
  -21.6130  -28.7220   21.9320 N   0  0  0  0  0  0  0  0  0  0  0  0
  -23.6200  -28.4210   22.9290 O   0  0  0  0  0  0  0  0  0  0  0  0
  -21.0920  -29.2700   21.2620 H   0  0  0  0  0  0  0  0  0  0  0  0
  -18.3640  -27.1580   22.2270 C   0  0  0  0  0  0  0  0  0  0  0  0
  -20.8730  -27.6530   22.6060 C   0  0  0  0  0  3  0  0  0  0  0  0
  -21.1400  -26.2860   21.9360 C   0  0  0  0  0  2  0  0  0  0  0  0
  -20.1060  -25.9290   20.8630 C   0  0  0  0  0  2  0  0  0  0  0  0
  -18.6990  -25.8860   21.4660 C   0  0  0  0  0  2  0  0  0  0  0  0
  -19.3850  -27.9960   22.7490 C   0  0  0  0  0  0  0  0  0  0  0  0
  -19.0200  -29.1830   23.4190 C   0  0  0  0  0  3  0  0  0  0  0  0
  -17.6660  -29.5360   23.5730 C   0  0  0  0  0  3  0  0  0  0  0  0
  -16.6590  -28.6970   23.0660 C   0  0  0  0  0  3  0  0  0  0  0  0
  -17.0090  -27.5090   22.4000 C   0  0  0  0  0  3  0  0  0  0  0  0
  -25.8310  -32.1690   23.7050 C   0  0  0  0  0  3  0  0  0  0  0  0
  -26.3550  -31.3680   24.9600 C   0  0  1  0  0  0  0  0  0  0  0  0
  -25.2500  -31.0310   25.9870 C   0  0  0  0  0  1  0  0  0  0  0  0
  -27.0170  -30.0390   24.5280 C   0  0  0  0  0  1  0  0  0  0  0  0
  -27.4490  -32.1900   25.6850 C   0  0  0  0  0  1  0  0  0  0  0  0
  -25.4480  -33.5360   24.0850 N   0  0  0  0  0  0  0  0  0  0  0  0
  -25.6840  -34.6270   23.3460 C   0  0  0  0  0  0  0  0  0  0  0  0
  -26.3190  -34.5930   22.2880 O   0  0  0  0  0  0  0  0  0  0  0  0
  -24.8760  -33.6320   24.9140 H   0  0  0  0  0  0  0  0  0  0  0  0
  -23.8210  -36.3010   23.1220 C   0  0  0  0  0  1  0  0  0  0  0  0
  -25.1280  -35.9690   23.8590 C   0  0  0  0  0  3  0  0  0  0  0  0
  -27.2280  -36.9930   24.6110 C   0  0  0  0  0  1  0  0  0  0  0  0
  -26.0790  -37.0940   23.7160 N   0  0  0  0  0  0  0  0  0  0  0  0
  -25.6170  -37.9810   23.8890 H   0  0  0  0  0  0  0  0  0  0  0  0
  1  4  1  0
  1  3  1  0
  2  6  2  0
  3 54  1  0
  3  2  1  0
  4 11  1  0
  4  2  1  0
  5  1  2  0
  7 11  1  0
  8  7  2  0
  8 12  1  0
 10  9  1  0
 10 51  1  0
 11  9  2  0
 12 10  2  0
 13 19  1  0
 14 19  1  0
 15 16  1  0
 15 14  1  0
 17 16  1  0
 17 26  1  0
 17 18  1  0
 19 18  1  0
 20 13  2  0
 21 22  1  0
 22 13  1  0
 22 12  1  0
 23 24  2  0
 24 43  1  0
 25 28  1  0
 25 24  1  0
 26 27  1  0
 26 23  1  0
 27 25  2  0
 28 29  1  0
 29 30  2  0
 31 34  1  0
 31 30  1  0
 32 31  2  0
 33 32  1  0
 33 28  2  0
 34 35  1  0
 35 40  2  0
 35 36  1  0
 36 37  2  0
 37 38  1  0
 38 42  1  0
 39 38  2  0
 40 39  1  0
 41 40  1  0
 43 44  1  0
 44 46  1  0
 44 47  1  0
 45 43  2  0
 48 23  1  0
 48 49  1  0
 50 48  1  0
 51 53  2  0
 52 51  1  0
 54 55  1  0
 56 67  2  0
 57 55  1  0
 57 62  1  0
 58 66  1  0
 58 68  1  0
 59 65  1  0
 59 61  1  0
 60 66  1  0
 61 60  1  0
 62 61  2  0
 63 64  1  0
 63 57  2  0
 64 59  2  0
 65 58  1  0
 66 56  1  0
 68 70  2  0
 69 68  1  0
 71 69  1  0
 72 81  2  0
 72 77  1  0
 73 69  1  0
 73 77  1  0
 74 73  1  0
 75 76  1  0
 75 74  1  0
 76 72  1  0
 77 78  2  0
 78 79  1  0
 80 79  2  0
 81 80  1  0
 82 56  1  0
 82 87  1  0
 82 83  1  0
 83 86  1  1
 83 84  1  0
 85 83  1  0
 87 90  1  0
 88 92  1  0
 88 87  1  0
 89 88  2  0
 92 91  1  0
 94 92  1  0
 94 95  1  0
 94 93  1  0
M  ISO  4  13 100  22 100  54 101  55 101
M  END
>  <TORSDO>  (23) 
F 19

>  <SCORE>  (23) 
-7.912

>  <name>  (23) 
22

>  <ligand_id>  (23) 
22

>  <original_smiles>  (23) 
[H]c1c([H])c([H])c2c(c1[H])C([H])([H])C([H])([H])C([H])([H])C2([H])N([H])C(=O)C1([H])N(C(=O)C([H])(N([H])C(=O)C([H])(N([H])C([H])([H])[H])C([H])([H])[H])C(C([H])([H])[H])(C([H])([H])[H])C([H])([H])[H])C([H])([H])c2c([H])c(OC([H])([H])C3([H])C(=O)N(c4c([H])c([H])c(N(C(=O)N5C([H])([H])C([H])([H])C([H])([H])C([H])(n6nc(-c7c([H])c([H])c(Oc8c([H])c([H])c(F)c([H])c8F)c([H])c7[H])c(C(=O)N([H])[H])c6N([H])[H])C5([H])[H])C([H])([H])[H])c(C(=O)C([H])([H])[H])c4[H])C3=O)c([H])c([H])c2C1([H])[H]

>  <smiles>  (23) 
[H]c1c([H])c([H])c2c(c1[H])C([H])([H])C([H])([H])C([H])([H])C2([H])N([H])C(=O)C1([H])N(C(=O)C([H])(N([H])C(=O)C([H])(N([H])C([H])([H])[H])C([H])([H])[H])C(C([H])([H])[H])(C([H])([H])[H])C([H])([H])[H])C([H])([H])c2c([H])c(OC([H])([H])C3([H])C(=O)N(c4c([H])c([H])c(N(C(=O)N5C([H])([H])C([H])([H])C([H])([H])C([H])(n6nc(-c7c([H])c([H])c(Oc8c([H])c([H])c(F)c([H])c8F)c([H])c7[H])c(C(=O)N([H])[H])c6N([H])[H])C5([H])[H])C([H])([H])[H])c(C(=O)C([H])([H])[H])c4[H])C3=O)c([H])c([H])c2C1([H])[H]

$$$$
23:0:0
     RDKit          3D

 95104  0  0  1  0  0  0  0  0999 V2000
  -28.9750  -22.7290   21.2420 C   0  0  0  0  0  0  0  0  0  0  0  0
  -29.0290  -22.5970   19.1700 C   0  0  0  0  0  2  0  0  0  0  0  0
  -29.1640  -23.8460   20.1190 C   0  0  2  0  0  0  0  0  0  0  0  0
  -30.5580  -24.4700   20.2200 C   0  0  0  0  0  1  0  0  0  0  0  0
  -29.2560  -21.7080   20.3150 N   0  0  0  0  0  0  0  0  0  0  0  0
  -28.6860  -22.6850   22.4180 O   0  0  0  0  0  0  0  0  0  0  0  0
  -30.1410  -19.5420   21.2810 C   0  0  0  0  0  3  0  0  0  0  0  0
  -30.3490  -18.1250   21.3470 C   0  0  0  0  0  3  0  0  0  0  0  0
  -29.0810  -17.8740   19.3520 C   0  0  0  0  0  3  0  0  0  0  0  0
  -28.8810  -19.2960   19.2900 C   0  0  0  0  0  0  0  0  0  0  0  0
  -29.3970  -20.2250   20.2680 C   0  0  0  0  0  0  0  0  0  0  0  0
  -29.8210  -17.2360   20.3780 C   0  0  0  0  0  0  0  0  0  0  0  0
  -30.5900  -14.7490   20.1020 C   0  0  0  0  0  0  0  0  0  0  0  0
  -30.3780  -12.5140   19.0110 C   0  0  0  0  0  2  0  0  0  0  0  0
  -29.3730  -12.6360   17.8440 C   0  0  0  0  0  2  0  0  0  0  0  0
  -27.9240  -12.4410   18.3400 C   0  0  0  0  0  2  0  0  0  0  0  0
  -27.6120  -13.2780   19.6090 C   0  0  0  0  0  3  0  0  0  0  0  0
  -28.7260  -13.1260   20.6680 C   0  0  0  0  0  2  0  0  0  0  0  0
  -29.9990  -13.5090   20.0370 N   0  0  0  0  0  0  0  0  0  0  0  0
  -31.7250  -14.9350   19.6530 O   0  0  0  0  0  0  0  0  0  0  0  0
  -29.7930  -15.7750   20.5610 N   0  0  0  0  0  0  0  0  0  0  0  0
  -28.9120  -15.4260   20.9050 H   0  0  0  0  0  0  0  0  0  0  0  0
  -25.2590  -13.8420   20.4750 C   0  0  0  0  0  0  0  0  0  0  0  0
  -24.2160  -13.0530   20.8770 C   0  0  0  0  0  0  0  0  0  0  0  0
  -24.6790  -11.7040   20.7780 C   0  0  0  0  0  0  0  0  0  0  0  0
  -26.2920  -12.9730   20.1550 N   0  0  0  0  0  0  0  0  0  0  0  0
  -25.9520  -11.6820   20.3970 N   0  0  0  0  0  0  0  0  0  0  0  0
  -23.9680  -10.4330   20.9660 C   0  0  0  0  0  0  0  0  0  0  0  0
  -24.4080   -9.4710   21.8990 C   0  0  0  0  0  3  0  0  0  0  0  0
  -23.6960   -8.2650   22.0750 C   0  0  0  0  0  3  0  0  0  0  0  0
  -22.5280   -8.0140   21.3150 C   0  0  0  0  0  0  0  0  0  0  0  0
  -22.1070   -8.9660   20.3700 C   0  0  0  0  0  3  0  0  0  0  0  0
  -22.8210  -10.1630   20.1930 C   0  0  0  0  0  3  0  0  0  0  0  0
  -21.7870   -6.8610   21.3990 O   0  0  0  0  0  0  0  0  0  0  0  0
  -21.6810   -6.1560   22.5710 C   0  0  0  0  0  0  0  0  0  0  0  0
  -21.1440   -6.7350   23.7420 C   0  0  0  0  0  3  0  0  0  0  0  0
  -20.9870   -5.9550   24.9050 C   0  0  0  0  0  3  0  0  0  0  0  0
  -21.3580   -4.5980   24.8970 C   0  0  0  0  0  0  0  0  0  0  0  0
  -21.8900   -4.0180   23.7320 C   0  0  0  0  0  3  0  0  0  0  0  0
  -22.0470   -4.7950   22.5710 C   0  0  0  0  0  0  0  0  0  0  0  0
  -22.5390   -4.2260   21.4440 F   0  0  0  0  0  0  0  0  0  0  0  0
  -21.2010   -3.8460   26.0130 F   0  0  0  0  0  0  0  0  0  0  0  0
  -22.8330  -13.5150   21.2380 C   0  0  0  0  0  0  0  0  0  0  0  0
  -22.1580  -12.7930   22.1260 N   0  0  0  0  0  0  0  0  0  0  0  0
  -22.3630  -14.5500   20.7690 O   0  0  0  0  0  0  0  0  0  0  0  0
  -22.5520  -11.9560   22.5270 H   0  0  0  0  0  0  0  0  0  0  0  0
  -21.2320  -13.0830   22.4090 H   0  0  0  0  0  0  0  0  0  0  0  0
  -25.4080  -15.2180   20.3340 N   0  0  0  0  0  0  0  0  0  0  0  0
  -24.6440  -15.8630   20.5050 H   0  0  0  0  0  0  0  0  0  0  0  0
  -26.2280  -15.6740   19.9530 H   0  0  0  0  0  0  0  0  0  0  0  0
  -28.0030  -19.7410   18.1850 C   0  0  0  0  0  0  0  0  0  0  0  0
  -28.5900  -19.6340   16.7860 C   0  0  0  0  0  1  0  0  0  0  0  0
  -26.8640  -20.1850   18.3470 O   0  0  0  0  0  0  0  0  0  0  0  0
  -28.0550  -25.0030   20.0100 C   0  0  0  0  0  2  0  0  0  0  0  0
  -28.3010  -26.4590   20.2700 O   0  0  0  0  0  0  0  0  0  0  0  0
  -24.6500  -31.9150   23.3380 C   0  0  0  0  0  0  0  0  0  0  0  0
  -27.2000  -27.3450   20.2220 C   0  0  0  0  0  0  0  0  0  0  0  0
  -23.4260  -30.5530   21.6870 C   0  0  0  0  0  3  0  0  0  0  0  0
  -24.8520  -29.0060   20.2360 C   0  0  0  0  0  0  0  0  0  0  0  0
  -25.9700  -30.8380   21.5000 C   0  0  0  0  0  2  0  0  0  0  0  0
  -26.0320  -29.4660   20.8340 C   0  0  0  0  0  0  0  0  0  0  0  0
  -27.2080  -28.6500   20.8160 C   0  0  0  0  0  3  0  0  0  0  0  0
  -25.9910  -26.9500   19.6000 C   0  0  0  0  0  3  0  0  0  0  0  0
  -24.8360  -27.7530   19.6110 C   0  0  0  0  0  3  0  0  0  0  0  0
  -23.6270  -29.8930   20.2990 C   0  0  0  0  0  2  0  0  0  0  0  0
  -24.7020  -31.1180   22.2320 N   0  0  0  0  0  0  0  0  0  0  0  0
  -23.5720  -32.2000   23.8810 O   0  0  0  0  0  0  0  0  0  0  0  0
  -22.7520  -29.5310   22.6350 C   0  0  0  0  0  0  0  0  0  0  0  0
  -21.4260  -29.3550   22.4930 N   0  0  0  0  0  0  0  0  0  0  0  0
  -23.4200  -28.9020   23.4600 O   0  0  0  0  0  0  0  0  0  0  0  0
  -20.9450  -29.9130   21.8030 H   0  0  0  0  0  0  0  0  0  0  0  0
  -18.0450  -28.1570   22.9490 C   0  0  0  0  0  0  0  0  0  0  0  0
  -20.5990  -28.4150   23.2510 C   0  0  0  0  0  3  0  0  0  0  0  0
  -20.7090  -26.9840   22.6730 C   0  0  0  0  0  2  0  0  0  0  0  0
  -19.6190  -26.6650   21.6450 C   0  0  0  0  0  2  0  0  0  0  0  0
  -18.2300  -26.8080   22.2720 C   0  0  0  0  0  2  0  0  0  0  0  0
  -19.1570  -28.9180   23.3940 C   0  0  0  0  0  0  0  0  0  0  0  0
  -18.9300  -30.1790   23.9850 C   0  0  0  0  0  3  0  0  0  0  0  0
  -17.6230  -30.6790   24.1380 C   0  0  0  0  0  3  0  0  0  0  0  0
  -16.5240  -29.9130   23.7110 C   0  0  0  0  0  3  0  0  0  0  0  0
  -16.7350  -28.6550   23.1200 C   0  0  0  0  0  3  0  0  0  0  0  0
  -25.9410  -32.5250   23.9640 C   0  0  0  0  0  3  0  0  0  0  0  0
  -26.4380  -31.7470   25.2440 C   0  0  1  0  0  0  0  0  0  0  0  0
  -25.3350  -31.5270   26.3060 C   0  0  0  0  0  1  0  0  0  0  0  0
  -27.0010  -30.3590   24.8570 C   0  0  0  0  0  1  0  0  0  0  0  0
  -27.5970  -32.5230   25.9140 C   0  0  0  0  0  1  0  0  0  0  0  0
  -25.6540  -33.9300   24.2940 N   0  0  0  0  0  0  0  0  0  0  0  0
  -25.9650  -34.9750   23.5150 C   0  0  0  0  0  0  0  0  0  0  0  0
  -26.5940  -34.8590   22.4610 O   0  0  0  0  0  0  0  0  0  0  0  0
  -25.0900  -34.0930   25.1150 H   0  0  0  0  0  0  0  0  0  0  0  0
  -24.2180  -36.7660   23.2450 C   0  0  0  0  0  1  0  0  0  0  0  0
  -25.5070  -36.3700   23.9820 C   0  0  0  0  0  3  0  0  0  0  0  0
  -27.6850  -37.2720   24.6710 C   0  0  0  0  0  1  0  0  0  0  0  0
  -26.5300  -37.4200   23.7890 N   0  0  0  0  0  0  0  0  0  0  0  0
  -26.1320  -38.3430   23.9440 H   0  0  0  0  0  0  0  0  0  0  0  0
  1  6  2  0
  2  3  1  0
  2  5  1  0
  3  4  1  1
  3  1  1  0
  5  1  1  0
  7  8  1  0
  9 12  1  0
 10  9  2  0
 10 11  1  0
 11  5  1  0
 11  7  2  0
 12 21  1  0
 12  8  2  0
 13 21  1  0
 14 19  1  0
 15 16  1  0
 15 14  1  0
 17 16  1  0
 17 26  1  0
 17 18  1  0
 19 13  1  0
 19 18  1  0
 20 13  2  0
 21 22  1  0
 23 24  2  0
 24 43  1  0
 25 24  1  0
 25 28  1  0
 26 27  1  0
 26 23  1  0
 27 25  2  0
 28 29  1  0
 29 30  2  0
 31 34  1  0
 31 30  1  0
 32 31  2  0
 33 32  1  0
 33 28  2  0
 34 35  1  0
 35 36  1  0
 36 37  2  0
 38 37  1  0
 38 42  1  0
 39 38  2  0
 40 35  2  0
 40 39  1  0
 41 40  1  0
 43 44  1  0
 44 47  1  0
 44 46  1  0
 45 43  2  0
 48 23  1  0
 48 49  1  0
 50 48  1  0
 51 53  2  0
 51 10  1  0
 52 51  1  0
 54  3  1  0
 54 55  1  0
 56 67  2  0
 57 55  1  0
 57 62  1  0
 58 66  1  0
 58 68  1  0
 59 65  1  0
 59 61  1  0
 60 66  1  0
 61 60  1  0
 62 61  2  0
 63 64  1  0
 63 57  2  0
 64 59  2  0
 65 58  1  0
 66 56  1  0
 68 70  2  0
 69 68  1  0
 71 69  1  0
 72 81  2  0
 72 77  1  0
 73 69  1  0
 73 77  1  0
 74 73  1  0
 75 76  1  0
 75 74  1  0
 76 72  1  0
 77 78  2  0
 78 79  1  0
 80 79  2  0
 81 80  1  0
 82 56  1  0
 82 87  1  0
 82 83  1  0
 83 86  1  1
 83 84  1  0
 85 83  1  0
 87 90  1  0
 88 92  1  0
 88 87  1  0
 89 88  2  0
 92 91  1  0
 94 95  1  0
 94 92  1  0
 94 93  1  0
M  ISO  4  13 100  21 100  54 101  55 101
M  END
>  <TORSDO>  (24) 
F 19

>  <SCORE>  (24) 
-14.525

>  <name>  (24) 
23

>  <ligand_id>  (24) 
23

>  <original_smiles>  (24) 
[H]c1c([H])c([H])c2c(c1[H])C([H])([H])C([H])([H])C([H])([H])C2([H])N([H])C(=O)C1([H])N(C(=O)C([H])(N([H])C(=O)C([H])(N([H])C([H])([H])[H])C([H])([H])[H])C(C([H])([H])[H])(C([H])([H])[H])C([H])([H])[H])C([H])([H])c2c([H])c(OC([H])([H])C3(C([H])([H])[H])C(=O)N(c4c([H])c([H])c(N([H])C(=O)N5C([H])([H])C([H])([H])C([H])([H])C([H])(n6nc(-c7c([H])c([H])c(Oc8c([H])c([H])c(F)c([H])c8F)c([H])c7[H])c(C(=O)N([H])[H])c6N([H])[H])C5([H])[H])c([H])c4C(=O)C([H])([H])[H])C3([H])[H])c([H])c([H])c2C1([H])[H]

>  <smiles>  (24) 
[H]c1c([H])c([H])c2c(c1[H])C([H])([H])C([H])([H])C([H])([H])C2([H])N([H])C(=O)C1([H])N(C(=O)C([H])(N([H])C(=O)C([H])(N([H])C([H])([H])[H])C([H])([H])[H])C(C([H])([H])[H])(C([H])([H])[H])C([H])([H])[H])C([H])([H])c2c([H])c(OC([H])([H])C3(C([H])([H])[H])C(=O)N(c4c([H])c([H])c(N([H])C(=O)N5C([H])([H])C([H])([H])C([H])([H])C([H])(n6nc(-c7c([H])c([H])c(Oc8c([H])c([H])c(F)c([H])c8F)c([H])c7[H])c(C(=O)N([H])[H])c6N([H])[H])C5([H])[H])c([H])c4C(=O)C([H])([H])[H])C3([H])[H])c([H])c([H])c2C1([H])[H]

$$$$
24:0:0
     RDKit          3D

 96105  0  0  1  0  0  0  0  0999 V2000
  -30.1390  -17.7690   19.4280 C   0  0  0  0  0  3  0  0  0  0  0  0
  -29.7660  -19.1010   19.0610 C   0  0  0  0  0  3  0  0  0  0  0  0
  -30.2830  -19.8590   21.2570 C   0  0  0  0  0  3  0  0  0  0  0  0
  -30.5910  -17.4100   20.7330 C   0  0  0  0  0  0  0  0  0  0  0  0
  -30.6300  -18.5270   21.6540 C   0  0  0  0  0  0  0  0  0  0  0  0
  -29.8260  -20.2030   19.9620 C   0  0  0  0  0  0  0  0  0  0  0  0
  -29.3950  -22.7400   20.2970 C   0  0  0  0  0  0  0  0  0  0  0  0
  -28.4680  -23.3380   18.2020 C   0  0  0  0  0  2  0  0  0  0  0  0
  -29.0320  -21.8970   18.1960 C   0  0  0  0  0  2  0  0  0  0  0  0
  -29.0580  -24.0080   19.4460 C   0  0  0  0  0  3  0  0  0  0  0  0
  -29.4310  -21.5770   19.5690 N   0  0  0  0  0  0  0  0  0  0  0  0
  -29.6110  -22.8390   21.5080 O   0  0  0  0  0  0  0  0  0  0  0  0
  -28.1730  -25.1530   20.1120 C   0  0  0  0  0  2  0  0  0  0  0  0
  -28.3640  -26.5600   19.6960 O   0  0  0  0  0  0  0  0  0  0  0  0
  -24.5230  -31.6880   23.0210 C   0  0  0  0  0  0  0  0  0  0  0  0
  -27.2390  -27.3900   19.7140 C   0  0  0  0  0  0  0  0  0  0  0  0
  -23.3700  -30.4140   21.2490 C   0  0  0  0  0  3  0  0  0  0  0  0
  -24.8660  -28.9750   19.7550 C   0  0  0  0  0  0  0  0  0  0  0  0
  -25.9110  -30.7520   21.1600 C   0  0  0  0  0  2  0  0  0  0  0  0
  -26.0140  -29.4270   20.4180 C   0  0  0  0  0  0  0  0  0  0  0  0
  -27.2070  -28.6470   20.3870 C   0  0  0  0  0  3  0  0  0  0  0  0
  -26.0730  -26.9880   19.0270 C   0  0  0  0  0  3  0  0  0  0  0  0
  -24.8950  -27.7600   19.0510 C   0  0  0  0  0  3  0  0  0  0  0  0
  -23.6250  -29.8410   19.8290 C   0  0  0  0  0  2  0  0  0  0  0  0
  -24.6180  -30.9640   21.8680 N   0  0  0  0  0  0  0  0  0  0  0  0
  -23.4260  -31.9260   23.5440 O   0  0  0  0  0  0  0  0  0  0  0  0
  -22.6840  -29.3280   22.1110 C   0  0  0  0  0  0  0  0  0  0  0  0
  -21.3470  -29.2400   22.0190 N   0  0  0  0  0  0  0  0  0  0  0  0
  -23.3530  -28.5750   22.8240 O   0  0  0  0  0  0  0  0  0  0  0  0
  -20.8690  -29.8980   21.4190 H   0  0  0  0  0  0  0  0  0  0  0  0
  -17.9160  -28.2490   22.5990 C   0  0  0  0  0  0  0  0  0  0  0  0
  -20.4990  -28.2670   22.7090 C   0  0  0  0  0  3  0  0  0  0  0  0
  -20.4390  -26.9320   21.9300 C   0  0  0  0  0  2  0  0  0  0  0  0
  -19.2520  -26.8470   20.9680 C   0  0  0  0  0  2  0  0  0  0  0  0
  -17.9310  -27.0040   21.7270 C   0  0  0  0  0  2  0  0  0  0  0  0
  -19.1230  -28.8510   23.0450 C   0  0  0  0  0  0  0  0  0  0  0  0
  -19.0530  -30.0280   23.8230 C   0  0  0  0  0  3  0  0  0  0  0  0
  -17.8100  -30.5980   24.1560 C   0  0  0  0  0  3  0  0  0  0  0  0
  -16.6190  -29.9890   23.7240 C   0  0  0  0  0  3  0  0  0  0  0  0
  -16.6740  -28.8150   22.9520 C   0  0  0  0  0  3  0  0  0  0  0  0
  -25.7870  -32.2720   23.7250 C   0  0  0  0  0  3  0  0  0  0  0  0
  -26.2440  -31.4330   24.9810 C   0  0  1  0  0  0  0  0  0  0  0  0
  -25.1100  -31.1640   25.9970 C   0  0  0  0  0  1  0  0  0  0  0  0
  -26.8180  -30.0650   24.5450 C   0  0  0  0  0  1  0  0  0  0  0  0
  -27.3860  -32.1730   25.7190 C   0  0  0  0  0  1  0  0  0  0  0  0
  -25.4790  -33.6570   24.1120 N   0  0  0  0  0  0  0  0  0  0  0  0
  -25.8680  -34.7430   23.4310 C   0  0  0  0  0  0  0  0  0  0  0  0
  -26.5920  -34.6820   22.4330 O   0  0  0  0  0  0  0  0  0  0  0  0
  -24.8460  -33.7790   24.8890 H   0  0  0  0  0  0  0  0  0  0  0  0
  -24.1880  -36.5810   23.0800 C   0  0  0  0  0  1  0  0  0  0  0  0
  -25.3750  -36.1130   23.9360 C   0  0  0  0  0  3  0  0  0  0  0  0
  -27.4650  -36.9170   24.9400 C   0  0  0  0  0  1  0  0  0  0  0  0
  -26.4260  -37.1520   23.9400 N   0  0  0  0  0  0  0  0  0  0  0  0
  -26.0260  -38.0700   24.1100 H   0  0  0  0  0  0  0  0  0  0  0  0
  -30.2550  -18.7590   23.9150 C   0  0  0  0  0  3  0  0  0  0  0  0
  -30.5900  -18.6290   25.3800 C   0  0  0  0  0  1  0  0  0  0  0  0
  -31.0420  -18.3740   22.9890 N   0  0  0  0  0  0  0  0  0  0  0  0
  -30.9540  -15.9380   21.1420 C   0  0  0  0  0  3  0  0  0  0  0  0
  -30.9330  -15.5940   22.3630 N   0  0  0  0  0  2  0  0  0  0  0  0
  -30.6620  -16.4050   22.9160 H   0  0  0  0  0  0  0  0  0  0  0  0
  -31.4440  -14.8560   20.1110 C   0  0  0  0  0  0  0  0  0  0  0  0
  -31.0970  -12.6690   18.9540 C   0  0  0  0  0  2  0  0  0  0  0  0
  -30.1290  -12.8440   17.7630 C   0  0  0  0  0  2  0  0  0  0  0  0
  -28.6620  -12.7160   18.2170 C   0  0  0  0  0  2  0  0  0  0  0  0
  -28.3640  -13.5670   19.4770 C   0  0  0  0  0  3  0  0  0  0  0  0
  -29.4320  -13.3250   20.5620 C   0  0  0  0  0  2  0  0  0  0  0  0
  -30.7500  -13.6670   19.9920 N   0  0  0  0  0  0  0  0  0  0  0  0
  -32.4890  -15.0460   19.4770 O   0  0  0  0  0  0  0  0  0  0  0  0
  -26.0060  -14.2470   20.2450 C   0  0  0  0  0  0  0  0  0  0  0  0
  -24.9230  -13.5090   20.6400 C   0  0  0  0  0  0  0  0  0  0  0  0
  -25.3410  -12.1430   20.6000 C   0  0  0  0  0  0  0  0  0  0  0  0
  -27.0160  -13.3320   19.9860 N   0  0  0  0  0  0  0  0  0  0  0  0
  -26.6200  -12.0620   20.2570 N   0  0  0  0  0  0  0  0  0  0  0  0
  -24.5790  -10.9050   20.8100 C   0  0  0  0  0  0  0  0  0  0  0  0
  -24.9670   -9.9530   21.7780 C   0  0  0  0  0  3  0  0  0  0  0  0
  -24.2070   -8.7790   21.9730 C   0  0  0  0  0  3  0  0  0  0  0  0
  -23.0440   -8.5500   21.1990 C   0  0  0  0  0  0  0  0  0  0  0  0
  -22.6750   -9.4900   20.2210 C   0  0  0  0  0  3  0  0  0  0  0  0
  -23.4360  -10.6560   20.0250 C   0  0  0  0  0  3  0  0  0  0  0  0
  -22.2590   -7.4270   21.3000 O   0  0  0  0  0  0  0  0  0  0  0  0
  -22.0500   -6.8020   22.5030 C   0  0  0  0  0  0  0  0  0  0  0  0
  -21.4940   -7.4830   23.6090 C   0  0  0  0  0  3  0  0  0  0  0  0
  -21.2310   -6.7850   24.8040 C   0  0  0  0  0  3  0  0  0  0  0  0
  -21.5120   -5.4090   24.8940 C   0  0  0  0  0  0  0  0  0  0  0  0
  -22.0600   -4.7290   23.7920 C   0  0  0  0  0  3  0  0  0  0  0  0
  -22.3250   -5.4230   22.5990 C   0  0  0  0  0  0  0  0  0  0  0  0
  -22.8330   -4.7590   21.5340 F   0  0  0  0  0  0  0  0  0  0  0  0
  -21.2520   -4.7360   26.0400 F   0  0  0  0  0  0  0  0  0  0  0  0
  -23.5500  -14.0310   20.9470 C   0  0  0  0  0  0  0  0  0  0  0  0
  -22.8470  -13.3970   21.8790 N   0  0  0  0  0  0  0  0  0  0  0  0
  -23.1100  -15.0390   20.3930 O   0  0  0  0  0  0  0  0  0  0  0  0
  -23.2170  -12.5830   22.3470 H   0  0  0  0  0  0  0  0  0  0  0  0
  -21.9280  -13.7310   22.1300 H   0  0  0  0  0  0  0  0  0  0  0  0
  -26.2110  -15.6110   20.0640 N   0  0  0  0  0  0  0  0  0  0  0  0
  -25.4690  -16.2910   20.1920 H   0  0  0  0  0  0  0  0  0  0  0  0
  -27.0730  -16.0260   19.7330 H   0  0  0  0  0  0  0  0  0  0  0  0
  1  4  1  0
  2  1  2  0
  2  6  1  0
  3  5  1  0
  4 58  1  0
  4  5  2  0
  5 57  1  0
  6  3  2  0
  7 12  2  0
  8 10  1  0
  9  8  1  0
  9 11  1  0
 10 13  1  0
 10  7  1  0
 11  6  1  0
 11  7  1  0
 14 16  1  0
 14 13  1  0
 15 26  2  0
 16 21  1  0
 17 25  1  0
 17 27  1  0
 18 24  1  0
 18 20  1  0
 19 25  1  0
 20 19  1  0
 21 20  2  0
 22 23  1  0
 22 16  2  0
 23 18  2  0
 24 17  1  0
 25 15  1  0
 27 29  2  0
 28 27  1  0
 30 28  1  0
 31 40  2  0
 31 36  1  0
 32 28  1  0
 32 36  1  0
 33 32  1  0
 34 35  1  0
 34 33  1  0
 35 31  1  0
 36 37  2  0
 37 38  1  0
 39 38  2  0
 40 39  1  0
 41 15  1  0
 41 46  1  0
 41 42  1  0
 42 45  1  1
 42 43  1  0
 44 42  1  0
 46 49  1  0
 47 51  1  0
 47 46  1  0
 48 47  2  0
 51 50  1  0
 51 53  1  0
 53 54  1  0
 53 52  1  0
 55 56  1  0
 57 55  2  0
 58 61  1  0
 58 59  1  0
 59 60  1  0
 62 67  1  0
 63 64  1  0
 63 62  1  0
 65 64  1  0
 65 72  1  0
 65 66  1  0
 67 61  1  0
 67 66  1  0
 68 61  2  0
 69 70  2  0
 70 89  1  0
 71 70  1  0
 71 74  1  0
 72 69  1  0
 72 73  1  0
 73 71  2  0
 74 75  1  0
 75 76  2  0
 77 80  1  0
 77 76  1  0
 78 77  2  0
 79 78  1  0
 79 74  2  0
 80 81  1  0
 81 86  2  0
 81 82  1  0
 82 83  2  0
 83 84  1  0
 84 88  1  0
 85 84  2  0
 86 85  1  0
 87 86  1  0
 89 90  1  0
 90 93  1  0
 90 92  1  0
 91 89  2  0
 94 95  1  0
 94 69  1  0
 96 94  1  0
M  ISO  4  13 101  14 101  58 100  61 100
M  END
>  <TORSDO>  (25) 
F 20

>  <SCORE>  (25) 
-9.658

>  <name>  (25) 
24

>  <ligand_id>  (25) 
24

>  <original_smiles>  (25) 
[H]N=C(C(=O)N1C([H])([H])C([H])([H])C([H])([H])C([H])(n2nc(-c3c([H])c([H])c(Oc4c([H])c([H])c(F)c([H])c4F)c([H])c3[H])c(C(=O)N([H])[H])c2N([H])[H])C1([H])[H])c1c([H])c([H])c(N2C(=O)C([H])(C([H])([H])Oc3c([H])c([H])c4c(c3[H])C([H])([H])N(C(=O)C([H])(N([H])C(=O)C([H])(N([H])C([H])([H])[H])C([H])([H])[H])C(C([H])([H])[H])(C([H])([H])[H])C([H])([H])[H])C([H])(C(=O)N([H])C3([H])c5c([H])c([H])c([H])c([H])c5C([H])([H])C([H])([H])C3([H])[H])C4([H])[H])C([H])([H])C2([H])[H])c([H])c1N=C([H])C([H])([H])[H]

>  <smiles>  (25) 
[H]N=C(C(=O)N1C([H])([H])C([H])([H])C([H])([H])C([H])(n2nc(-c3c([H])c([H])c(Oc4c([H])c([H])c(F)c([H])c4F)c([H])c3[H])c(C(=O)N([H])[H])c2N([H])[H])C1([H])[H])c1c([H])c([H])c(N2C(=O)C([H])(C([H])([H])Oc3c([H])c([H])c4c(c3[H])C([H])([H])N(C(=O)C([H])(N([H])C(=O)C([H])(N([H])C([H])([H])[H])C([H])([H])[H])C(C([H])([H])[H])(C([H])([H])[H])C([H])([H])[H])C([H])(C(=O)N([H])C3([H])c5c([H])c([H])c([H])c([H])c5C([H])([H])C([H])([H])C3([H])[H])C4([H])[H])C([H])([H])C2([H])[H])c([H])c1N=C([H])C([H])([H])[H]

$$$$
25:0:0
     RDKit          3D

 97105  0  0  1  0  0  0  0  0999 V2000
  -29.9440  -21.0370   22.1600 C   0  0  0  0  0  0  0  0  0  0  0  0
  -29.0610  -23.3460   21.6600 C   0  0  0  0  0  0  0  0  0  0  0  0
  -29.4060  -21.9760   21.3310 N   0  0  0  0  0  0  0  0  0  0  0  0
  -30.3240  -21.3470   23.4070 N   0  0  0  0  0  4  0  0  0  0  0  0
  -28.9950  -23.7320   22.8360 O   0  0  0  0  0  0  0  0  0  0  0  0
  -29.3510  -21.6440   20.3820 H   0  0  0  0  0  0  0  0  0  0  0  0
  -30.7470  -20.6560   24.0060 H   0  0  0  0  0  0  0  0  0  0  0  0
  -30.1050  -22.2630   23.7800 H   0  0  0  0  0  0  0  0  0  0  0  0
  -31.3000  -18.9090   22.1350 C   0  0  0  0  0  3  0  0  0  0  0  0
  -31.4330  -17.5250   21.8570 C   0  0  0  0  0  3  0  0  0  0  0  0
  -29.1330  -18.9380   21.0330 C   0  0  0  0  0  3  0  0  0  0  0  0
  -30.1420  -19.6290   21.7420 C   0  0  0  0  0  0  0  0  0  0  0  0
  -30.3940  -16.8310   21.1950 C   0  0  0  0  0  0  0  0  0  0  0  0
  -29.2550  -17.5530   20.7730 C   0  0  0  0  0  0  0  0  0  0  0  0
  -28.2510  -16.8960   20.1450 F   0  0  0  0  0  0  0  0  0  0  0  0
  -30.9310  -14.5990   20.1910 C   0  0  0  0  0  0  0  0  0  0  0  0
  -30.5850  -12.5080   18.9020 C   0  0  0  0  0  2  0  0  0  0  0  0
  -29.5600  -12.7330   17.7680 C   0  0  0  0  0  2  0  0  0  0  0  0
  -28.1170  -12.5770   18.2810 C   0  0  0  0  0  2  0  0  0  0  0  0
  -27.8540  -13.3700   19.5860 C   0  0  0  0  0  3  0  0  0  0  0  0
  -28.9650  -13.0730   20.6170 C   0  0  0  0  0  2  0  0  0  0  0  0
  -30.2630  -13.4270   20.0040 N   0  0  0  0  0  0  0  0  0  0  0  0
  -31.9670  -14.8890   19.5780 O   0  0  0  0  0  0  0  0  0  0  0  0
  -30.3520  -15.4120   21.0920 N   0  0  0  0  0  0  0  0  0  0  0  0
  -29.5130  -15.0040   21.4770 H   0  0  0  0  0  0  0  0  0  0  0  0
  -25.5030  -13.9700   20.4520 C   0  0  0  0  0  0  0  0  0  0  0  0
  -24.4490  -13.1930   20.8520 C   0  0  0  0  0  0  0  0  0  0  0  0
  -24.8940  -11.8400   20.7430 C   0  0  0  0  0  0  0  0  0  0  0  0
  -26.5260  -13.0910   20.1280 N   0  0  0  0  0  0  0  0  0  0  0  0
  -26.1630  -11.8030   20.3580 N   0  0  0  0  0  0  0  0  0  0  0  0
  -24.1700  -10.5790   20.9260 C   0  0  0  0  0  0  0  0  0  0  0  0
  -24.5770   -9.6240   21.8830 C   0  0  0  0  0  3  0  0  0  0  0  0
  -23.8480   -8.4270   22.0560 C   0  0  0  0  0  3  0  0  0  0  0  0
  -22.7010   -8.1760   21.2670 C   0  0  0  0  0  0  0  0  0  0  0  0
  -22.3120   -9.1200   20.3010 C   0  0  0  0  0  3  0  0  0  0  0  0
  -23.0430  -10.3060   20.1260 C   0  0  0  0  0  3  0  0  0  0  0  0
  -21.9530   -7.0250   21.3430 O   0  0  0  0  0  0  0  0  0  0  0  0
  -21.7660   -6.3620   22.5310 C   0  0  0  0  0  0  0  0  0  0  0  0
  -21.1690   -6.9890   23.6460 C   0  0  0  0  0  3  0  0  0  0  0  0
  -20.9360   -6.2540   24.8240 C   0  0  0  0  0  3  0  0  0  0  0  0
  -21.2880   -4.8930   24.8890 C   0  0  0  0  0  0  0  0  0  0  0  0
  -21.8780   -4.2660   23.7790 C   0  0  0  0  0  3  0  0  0  0  0  0
  -22.1160   -4.9980   22.6020 C   0  0  0  0  0  0  0  0  0  0  0  0
  -22.6680   -4.3850   21.5270 F   0  0  0  0  0  0  0  0  0  0  0  0
  -21.0550   -4.1850   26.0180 F   0  0  0  0  0  0  0  0  0  0  0  0
  -23.0780  -13.6750   21.2300 C   0  0  0  0  0  0  0  0  0  0  0  0
  -22.3970  -12.9580   22.1150 N   0  0  0  0  0  0  0  0  0  0  0  0
  -22.6230  -14.7240   20.7780 O   0  0  0  0  0  0  0  0  0  0  0  0
  -22.7770  -12.1070   22.5070 H   0  0  0  0  0  0  0  0  0  0  0  0
  -21.4820  -13.2680   22.4090 H   0  0  0  0  0  0  0  0  0  0  0  0
  -25.6700  -15.3460   20.3320 N   0  0  0  0  0  0  0  0  0  0  0  0
  -24.9200  -15.9960   20.5300 H   0  0  0  0  0  0  0  0  0  0  0  0
  -26.5510  -15.8110   20.1380 H   0  0  0  0  0  0  0  0  0  0  0  0
  -28.8380  -24.3340   20.4840 C   0  0  0  0  0  2  0  0  0  0  0  0
  -28.2960  -25.6420   20.9440 N   0  0  0  0  0  0  0  0  0  0  0  0
  -28.8430  -25.9930   21.7230 H   0  0  0  0  0  0  0  0  0  0  0  0
  -28.4340  -26.6360   19.8710 O   0  0  0  0  0  0  0  0  0  0  0  0
  -24.5260  -31.7080   23.0320 C   0  0  0  0  0  0  0  0  0  0  0  0
  -27.2990  -27.4160   19.8450 C   0  0  0  0  0  0  0  0  0  0  0  0
  -23.3660  -30.3100   21.3530 C   0  0  0  0  0  3  0  0  0  0  0  0
  -24.8710  -28.8660   19.8760 C   0  0  0  0  0  0  0  0  0  0  0  0
  -25.8800  -30.7550   21.1670 C   0  0  0  0  0  2  0  0  0  0  0  0
  -26.0120  -29.4060   20.4860 C   0  0  0  0  0  0  0  0  0  0  0  0
  -27.2350  -28.6880   20.4700 C   0  0  0  0  0  3  0  0  0  0  0  0
  -26.1480  -26.9050   19.2180 C   0  0  0  0  0  3  0  0  0  0  0  0
  -24.9360  -27.6190   19.2340 C   0  0  0  0  0  3  0  0  0  0  0  0
  -23.5990  -29.6820   19.9510 C   0  0  0  0  0  2  0  0  0  0  0  0
  -24.6080  -30.9380   21.9100 N   0  0  0  0  0  0  0  0  0  0  0  0
  -23.4380  -31.9260   23.5820 O   0  0  0  0  0  0  0  0  0  0  0  0
  -22.7530  -29.2400   22.2860 C   0  0  0  0  0  0  0  0  0  0  0  0
  -21.4310  -29.0310   22.1720 N   0  0  0  0  0  0  0  0  0  0  0  0
  -23.4620  -28.6010   23.0690 O   0  0  0  0  0  0  0  0  0  0  0  0
  -20.9170  -29.6050   21.5180 H   0  0  0  0  0  0  0  0  0  0  0  0
  -18.0880  -27.7590   22.6980 C   0  0  0  0  0  0  0  0  0  0  0  0
  -20.6470  -28.0480   22.9210 C   0  0  0  0  0  3  0  0  0  0  0  0
  -20.7580  -26.6440   22.2830 C   0  0  0  0  0  2  0  0  0  0  0  0
  -19.6380  -26.3460   21.2800 C   0  0  0  0  0  2  0  0  0  0  0  0
  -18.2700  -26.4420   21.9610 C   0  0  0  0  0  2  0  0  0  0  0  0
  -19.2040  -28.5200   23.1350 C   0  0  0  0  0  0  0  0  0  0  0  0
  -18.9800  -29.7530   23.7850 C   0  0  0  0  0  3  0  0  0  0  0  0
  -17.6720  -30.2250   24.0020 C   0  0  0  0  0  3  0  0  0  0  0  0
  -16.5700  -29.4590   23.5810 C   0  0  0  0  0  3  0  0  0  0  0  0
  -16.7800  -28.2280   22.9350 C   0  0  0  0  0  3  0  0  0  0  0  0
  -25.7920  -32.3660   23.6660 C   0  0  0  0  0  3  0  0  0  0  0  0
  -26.3500  -31.5730   24.9110 C   0  0  1  0  0  0  0  0  0  0  0  0
  -25.2750  -31.2530   25.9770 C   0  0  0  0  0  1  0  0  0  0  0  0
  -26.9860  -30.2350   24.4650 C   0  0  0  0  0  1  0  0  0  0  0  0
  -27.4700  -32.3910   25.5950 C   0  0  0  0  0  1  0  0  0  0  0  0
  -25.4320  -33.7390   24.0470 N   0  0  0  0  0  0  0  0  0  0  0  0
  -25.7230  -34.8300   23.3250 C   0  0  0  0  0  0  0  0  0  0  0  0
  -26.3930  -34.7880   22.2900 O   0  0  0  0  0  0  0  0  0  0  0  0
  -24.8330  -33.8420   24.8530 H   0  0  0  0  0  0  0  0  0  0  0  0
  -23.9390  -36.5760   23.0230 C   0  0  0  0  0  1  0  0  0  0  0  0
  -25.1830  -36.1810   23.8320 C   0  0  0  0  0  3  0  0  0  0  0  0
  -27.2780  -37.1040   24.7220 C   0  0  0  0  0  1  0  0  0  0  0  0
  -26.1790  -37.2730   23.7740 N   0  0  0  0  0  0  0  0  0  0  0  0
  -25.7390  -38.1700   23.9610 H   0  0  0  0  0  0  0  0  0  0  0  0
  1  4  2  0
  2  5  2  0
  3  2  1  0
  3  1  1  0
  4  8  1  0
  4  7  1  0
  6  3  1  0
 10  9  1  0
 11 12  1  0
 12  9  2  0
 12  1  1  0
 13 10  2  0
 14 11  2  0
 14 13  1  0
 15 14  1  0
 16 24  1  0
 17 22  1  0
 18 19  1  0
 18 17  1  0
 20 19  1  0
 20 29  1  0
 20 21  1  0
 22 16  1  0
 22 21  1  0
 23 16  2  0
 24 13  1  0
 24 25  1  0
 26 27  2  0
 27 46  1  0
 28 27  1  0
 28 31  1  0
 29 30  1  0
 29 26  1  0
 30 28  2  0
 31 32  1  0
 32 33  2  0
 34 37  1  0
 34 33  1  0
 35 34  2  0
 36 35  1  0
 36 31  2  0
 37 38  1  0
 38 43  2  0
 38 39  1  0
 39 40  2  0
 40 41  1  0
 41 45  1  0
 42 41  2  0
 43 42  1  0
 44 43  1  0
 46 47  1  0
 47 50  1  0
 47 49  1  0
 48 46  2  0
 51 26  1  0
 51 52  1  0
 53 51  1  0
 54 55  1  0
 54  2  1  0
 55 56  1  0
 57 55  1  0
 58 69  2  0
 59 57  1  0
 59 64  1  0
 60 68  1  0
 60 70  1  0
 61 67  1  0
 61 63  1  0
 62 68  1  0
 63 62  1  0
 64 63  2  0
 65 66  1  0
 65 59  2  0
 66 61  2  0
 67 60  1  0
 68 58  1  0
 70 72  2  0
 71 70  1  0
 73 71  1  0
 74 83  2  0
 74 79  1  0
 75 71  1  0
 75 79  1  0
 76 75  1  0
 77 78  1  0
 77 76  1  0
 78 74  1  0
 79 80  2  0
 80 81  1  0
 82 81  2  0
 83 82  1  0
 84 58  1  0
 84 89  1  0
 84 85  1  0
 85 88  1  1
 85 86  1  0
 87 85  1  0
 89 92  1  0
 90 94  1  0
 90 89  1  0
 91 90  2  0
 94 93  1  0
 96 94  1  0
 96 97  1  0
 96 95  1  0
M  ISO  4  16 100  24 100  55 101  57 101
M  END
>  <TORSDO>  (26) 
F 19

>  <SCORE>  (26) 
-13.472

>  <name>  (26) 
25

>  <ligand_id>  (26) 
25

>  <original_smiles>  (26) 
[H]c1c([H])c([H])c2c(c1[H])C([H])([H])C([H])([H])C([H])([H])C2([H])N([H])C(=O)C1([H])N(C(=O)C([H])(N([H])C(=O)C([H])(N([H])C([H])([H])[H])C([H])([H])[H])C(C([H])([H])[H])(C([H])([H])[H])C([H])([H])[H])C([H])([H])c2c([H])c(ON([H])C([H])([H])C(=O)N([H])C(c3c([H])c([H])c(N([H])C(=O)N4C([H])([H])C([H])([H])C([H])([H])C([H])(n5nc(-c6c([H])c([H])c(Oc7c([H])c([H])c(F)c([H])c7F)c([H])c6[H])c(C(=O)N([H])[H])c5N([H])[H])C4([H])[H])c(F)c3[H])=[N+]([H])[H])c([H])c([H])c2C1([H])[H]

>  <smiles>  (26) 
[H]c1c([H])c([H])c2c(c1[H])C([H])([H])C([H])([H])C([H])([H])C2([H])N([H])C(=O)C1([H])N(C(=O)C([H])(N([H])C(=O)C([H])(N([H])C([H])([H])[H])C([H])([H])[H])C(C([H])([H])[H])(C([H])([H])[H])C([H])([H])[H])C([H])([H])c2c([H])c(ON([H])C([H])([H])C(=O)N([H])C(c3c([H])c([H])c(N([H])C(=O)N4C([H])([H])C([H])([H])C([H])([H])C([H])(n5nc(-c6c([H])c([H])c(Oc7c([H])c([H])c(F)c([H])c7F)c([H])c6[H])c(C(=O)N([H])[H])c5N([H])[H])C4([H])[H])c(F)c3[H])=[N+]([H])[H])c([H])c([H])c2C1([H])[H]

$$$$
26:0:0
     RDKit          3D

 96104  0  0  1  0  0  0  0  0999 V2000
  -31.0590  -21.4040   20.0780 C   0  0  0  0  0  0  0  0  0  0  0  0
  -32.2640  -21.8170   20.3420 N   0  0  0  0  0  4  0  0  0  0  0  0
  -33.0310  -21.1690   20.5100 H   0  0  0  0  0  0  0  0  0  0  0  0
  -32.5150  -22.7940   20.4600 H   0  0  0  0  0  0  0  0  0  0  0  0
  -29.7310  -19.3040   19.5200 C   0  0  0  0  0  3  0  0  0  0  0  0
  -31.7140  -19.0490   20.8750 C   0  0  0  0  0  3  0  0  0  0  0  0
  -29.4650  -17.9190   19.6560 C   0  0  0  0  0  3  0  0  0  0  0  0
  -31.4600  -17.6570   21.0030 C   0  0  0  0  0  3  0  0  0  0  0  0
  -30.8450  -19.9070   20.1500 C   0  0  0  0  0  0  0  0  0  0  0  0
  -30.3160  -17.0700   20.4020 C   0  0  0  0  0  0  0  0  0  0  0  0
  -30.6820  -14.5770   20.3640 C   0  0  0  0  0  0  0  0  0  0  0  0
  -30.3550  -12.3780   19.3010 C   0  0  0  0  0  2  0  0  0  0  0  0
  -29.4120  -12.5410   18.0910 C   0  0  0  0  0  2  0  0  0  0  0  0
  -27.9440  -12.4000   18.5290 C   0  0  0  0  0  2  0  0  0  0  0  0
  -27.5970  -13.2670   19.7700 C   0  0  0  0  0  3  0  0  0  0  0  0
  -28.6670  -13.1280   20.8790 C   0  0  0  0  0  2  0  0  0  0  0  0
  -29.9850  -13.4070   20.2850 N   0  0  0  0  0  0  0  0  0  0  0  0
  -31.8630  -14.6660   20.0220 O   0  0  0  0  0  0  0  0  0  0  0  0
  -29.9460  -15.6900   20.5940 N   0  0  0  0  0  0  0  0  0  0  0  0
  -28.9610  -15.5130   20.6990 H   0  0  0  0  0  0  0  0  0  0  0  0
  -25.2010  -13.8620   20.5040 C   0  0  0  0  0  0  0  0  0  0  0  0
  -24.1340  -13.0900   20.8780 C   0  0  0  0  0  0  0  0  0  0  0  0
  -24.5970  -11.7400   20.8470 C   0  0  0  0  0  0  0  0  0  0  0  0
  -26.2470  -12.9860   20.2650 N   0  0  0  0  0  0  0  0  0  0  0  0
  -25.8860  -11.7030   20.5310 N   0  0  0  0  0  0  0  0  0  0  0  0
  -23.8720  -10.4770   21.0380 C   0  0  0  0  0  0  0  0  0  0  0  0
  -24.3090   -9.5080   21.9700 C   0  0  0  0  0  3  0  0  0  0  0  0
  -23.5840   -8.3100   22.1530 C   0  0  0  0  0  3  0  0  0  0  0  0
  -22.4090   -8.0690   21.4030 C   0  0  0  0  0  0  0  0  0  0  0  0
  -21.9890   -9.0280   20.4640 C   0  0  0  0  0  3  0  0  0  0  0  0
  -22.7150  -10.2150   20.2800 C   0  0  0  0  0  3  0  0  0  0  0  0
  -21.6580   -6.9220   21.4930 O   0  0  0  0  0  0  0  0  0  0  0  0
  -21.6200   -6.1740   22.6430 C   0  0  0  0  0  0  0  0  0  0  0  0
  -21.1980   -6.7220   23.8730 C   0  0  0  0  0  3  0  0  0  0  0  0
  -21.1070   -5.9000   25.0160 C   0  0  0  0  0  3  0  0  0  0  0  0
  -21.4260   -4.5330   24.9250 C   0  0  0  0  0  0  0  0  0  0  0  0
  -21.8440   -3.9850   23.7010 C   0  0  0  0  0  3  0  0  0  0  0  0
  -21.9370   -4.8040   22.5620 C   0  0  0  0  0  0  0  0  0  0  0  0
  -22.3180   -4.2660   21.3780 F   0  0  0  0  0  0  0  0  0  0  0  0
  -21.3320   -3.7430   26.0200 F   0  0  0  0  0  0  0  0  0  0  0  0
  -22.7370  -13.5690   21.1480 C   0  0  0  0  0  0  0  0  0  0  0  0
  -22.0080  -12.8740   22.0140 N   0  0  0  0  0  0  0  0  0  0  0  0
  -22.2990  -14.5950   20.6290 O   0  0  0  0  0  0  0  0  0  0  0  0
  -22.3690  -12.0430   22.4600 H   0  0  0  0  0  0  0  0  0  0  0  0
  -21.0720  -13.1800   22.2370 H   0  0  0  0  0  0  0  0  0  0  0  0
  -25.3610  -15.2340   20.3230 N   0  0  0  0  0  0  0  0  0  0  0  0
  -24.5910  -15.8830   20.4360 H   0  0  0  0  0  0  0  0  0  0  0  0
  -26.1880  -15.6690   19.9400 H   0  0  0  0  0  0  0  0  0  0  0  0
  -30.0520  -23.5930   19.5980 C   0  0  0  0  0  0  0  0  0  0  0  0
  -30.0450  -22.3020   19.7810 N   0  0  0  0  0  0  0  0  0  0  0  0
  -28.7830  -24.4200   19.3920 C   0  0  0  0  0  0  0  0  0  0  0  0
  -28.1170  -24.3630   18.3500 O   0  0  0  0  0  0  0  0  0  0  0  0
  -28.3480  -25.3440   20.5450 C   0  0  0  0  0  2  0  0  0  0  0  0
  -28.4300  -26.7380   20.1860 O   0  0  0  0  0  0  0  0  0  0  0  0
  -24.5720  -31.8910   23.2420 C   0  0  0  0  0  0  0  0  0  0  0  0
  -27.2490  -27.4510   20.1860 C   0  0  0  0  0  0  0  0  0  0  0  0
  -23.3820  -30.4890   21.5870 C   0  0  0  0  0  3  0  0  0  0  0  0
  -24.8500  -28.9530   20.1750 C   0  0  0  0  0  0  0  0  0  0  0  0
  -25.9080  -30.8490   21.4120 C   0  0  0  0  0  2  0  0  0  0  0  0
  -26.0010  -29.4790   20.7740 C   0  0  0  0  0  0  0  0  0  0  0  0
  -27.2030  -28.7360   20.7740 C   0  0  0  0  0  3  0  0  0  0  0  0
  -26.0790  -26.9360   19.5830 C   0  0  0  0  0  3  0  0  0  0  0  0
  -24.8840  -27.6800   19.5770 C   0  0  0  0  0  3  0  0  0  0  0  0
  -23.6050  -29.8100   20.2090 C   0  0  0  0  0  2  0  0  0  0  0  0
  -24.6390  -31.0900   22.1410 N   0  0  0  0  0  0  0  0  0  0  0  0
  -23.4870  -32.1630   23.7750 O   0  0  0  0  0  0  0  0  0  0  0  0
  -22.7230  -29.4670   22.5430 C   0  0  0  0  0  0  0  0  0  0  0  0
  -21.3980  -29.2860   22.4100 N   0  0  0  0  0  0  0  0  0  0  0  0
  -23.4010  -28.8370   23.3580 O   0  0  0  0  0  0  0  0  0  0  0  0
  -20.9130  -29.8470   21.7230 H   0  0  0  0  0  0  0  0  0  0  0  0
  -18.0190  -28.1080   22.8940 C   0  0  0  0  0  0  0  0  0  0  0  0
  -20.5760  -28.3480   23.1720 C   0  0  0  0  0  3  0  0  0  0  0  0
  -20.6730  -26.9200   22.5860 C   0  0  0  0  0  2  0  0  0  0  0  0
  -19.5700  -26.6110   21.5690 C   0  0  0  0  0  2  0  0  0  0  0  0
  -18.1880  -26.7610   22.2110 C   0  0  0  0  0  2  0  0  0  0  0  0
  -19.1410  -28.8600   23.3310 C   0  0  0  0  0  0  0  0  0  0  0  0
  -18.9290  -30.1210   23.9300 C   0  0  0  0  0  3  0  0  0  0  0  0
  -17.6270  -30.6290   24.0950 C   0  0  0  0  0  3  0  0  0  0  0  0
  -16.5190  -29.8750   23.6740 C   0  0  0  0  0  3  0  0  0  0  0  0
  -16.7160  -28.6150   23.0800 C   0  0  0  0  0  3  0  0  0  0  0  0
  -25.8540  -32.5240   23.8710 C   0  0  0  0  0  3  0  0  0  0  0  0
  -25.5480  -33.9250   24.1880 N   0  0  0  0  0  0  0  0  0  0  0  0
  -25.8940  -34.9710   23.4250 C   0  0  0  0  0  0  0  0  0  0  0  0
  -26.5740  -34.8570   22.4020 O   0  0  0  0  0  0  0  0  0  0  0  0
  -24.9470  -34.0880   24.9830 H   0  0  0  0  0  0  0  0  0  0  0  0
  -24.1790  -36.7660   23.0280 C   0  0  0  0  0  1  0  0  0  0  0  0
  -25.4040  -36.3640   23.8660 C   0  0  0  0  0  3  0  0  0  0  0  0
  -27.5320  -37.2370   24.7240 C   0  0  0  0  0  1  0  0  0  0  0  0
  -26.4420  -37.4130   23.7680 N   0  0  0  0  0  0  0  0  0  0  0  0
  -26.0370  -38.3340   23.9180 H   0  0  0  0  0  0  0  0  0  0  0  0
  -26.3570  -31.7620   25.1570 C   0  0  1  0  0  0  0  0  0  0  0  0
  -25.2550  -31.5340   26.2180 C   0  0  0  0  0  1  0  0  0  0  0  0
  -26.9390  -30.3810   24.7800 C   0  0  0  0  0  1  0  0  0  0  0  0
  -27.5050  -32.5540   25.8210 C   0  0  0  0  0  1  0  0  0  0  0  0
  -31.9600  -24.3590   18.0880 C   0  0  0  0  0  1  0  0  0  0  0  0
  -31.3030  -24.4810   19.4740 C   0  0  0  0  0  2  0  0  0  0  0  0
  1  9  1  0
  1  2  2  0
  2  4  1  0
  2  3  1  0
  5  7  2  0
  5  9  1  0
  6  8  1  0
  7 10  1  0
  9  6  2  0
 10 19  1  0
 10  8  2  0
 11 19  1  0
 12 17  1  0
 13 14  1  0
 13 12  1  0
 15 14  1  0
 15 24  1  0
 15 16  1  0
 17 11  1  0
 17 16  1  0
 18 11  2  0
 19 20  1  0
 21 22  2  0
 22 41  1  0
 23 22  1  0
 23 26  1  0
 24 21  1  0
 24 25  1  0
 25 23  2  0
 26 27  1  0
 27 28  2  0
 29 32  1  0
 29 28  1  0
 30 29  2  0
 31 30  1  0
 31 26  2  0
 32 33  1  0
 33 34  1  0
 34 35  2  0
 36 35  1  0
 36 40  1  0
 37 36  2  0
 38 33  2  0
 38 37  1  0
 39 38  1  0
 41 42  1  0
 42 45  1  0
 42 44  1  0
 43 41  2  0
 46 47  1  0
 46 21  1  0
 48 46  1  0
 49 50  2  0
 50  1  1  0
 51 49  1  0
 51 53  1  0
 52 51  2  0
 54 53  1  0
 55 66  2  0
 56 54  1  0
 56 61  1  0
 57 65  1  0
 57 67  1  0
 58 64  1  0
 58 60  1  0
 59 65  1  0
 60 59  1  0
 61 60  2  0
 62 56  2  0
 63 62  1  0
 63 58  2  0
 64 57  1  0
 65 55  1  0
 67 69  2  0
 68 67  1  0
 70 68  1  0
 71 80  2  0
 71 76  1  0
 72 68  1  0
 72 76  1  0
 73 72  1  0
 74 75  1  0
 74 73  1  0
 75 71  1  0
 76 77  2  0
 77 78  1  0
 79 78  2  0
 80 79  1  0
 81 55  1  0
 81 82  1  0
 81 91  1  0
 82 85  1  0
 83 87  1  0
 83 82  1  0
 84 83  2  0
 87 86  1  0
 89 87  1  0
 89 90  1  0
 89 88  1  0
 91 94  1  1
 91 92  1  0
 93 91  1  0
 95 96  1  0
 96 49  1  0
M  ISO  4  11 100  19 100  53 101  54 101
M  END
>  <TORSDO>  (27) 
F 21

>  <SCORE>  (27) 
-13.652

>  <name>  (27) 
26

>  <ligand_id>  (27) 
26

>  <original_smiles>  (27) 
[H]c1c([H])c([H])c2c(c1[H])C([H])([H])C([H])([H])C([H])([H])C2([H])N([H])C(=O)C1([H])N(C(=O)C([H])(N([H])C(=O)C([H])(N([H])C([H])([H])[H])C([H])([H])[H])C(C([H])([H])[H])(C([H])([H])[H])C([H])([H])[H])C([H])([H])c2c([H])c(OC([H])([H])C(=O)C(=NC(c3c([H])c([H])c(N([H])C(=O)N4C([H])([H])C([H])([H])C([H])([H])C([H])(n5nc(-c6c([H])c([H])c(Oc7c([H])c([H])c(F)c([H])c7F)c([H])c6[H])c(C(=O)N([H])[H])c5N([H])[H])C4([H])[H])c([H])c3[H])=[N+]([H])[H])C([H])([H])C([H])([H])[H])c([H])c([H])c2C1([H])[H]

>  <smiles>  (27) 
[H]c1c([H])c([H])c2c(c1[H])C([H])([H])C([H])([H])C([H])([H])C2([H])N([H])C(=O)C1([H])N(C(=O)C([H])(N([H])C(=O)C([H])(N([H])C([H])([H])[H])C([H])([H])[H])C(C([H])([H])[H])(C([H])([H])[H])C([H])([H])[H])C([H])([H])c2c([H])c(OC([H])([H])C(=O)C(=NC(c3c([H])c([H])c(N([H])C(=O)N4C([H])([H])C([H])([H])C([H])([H])C([H])(n5nc(-c6c([H])c([H])c(Oc7c([H])c([H])c(F)c([H])c7F)c([H])c6[H])c(C(=O)N([H])[H])c5N([H])[H])C4([H])[H])c([H])c3[H])=[N+]([H])[H])C([H])([H])C([H])([H])[H])c([H])c([H])c2C1([H])[H]

$$$$
27:0:0
     RDKit          3D

 95104  0  0  1  0  0  0  0  0999 V2000
  -28.4090  -22.8520   19.7800 C   0  0  0  0  0  0  0  0  0  0  0  0
  -29.7860  -23.7140   21.5420 C   0  0  0  0  0  2  0  0  0  0  0  0
  -30.0200  -22.1960   21.3260 C   0  0  0  0  0  2  0  0  0  0  0  0
  -28.5880  -24.1070   20.6480 C   0  0  0  0  0  3  0  0  0  0  0  0
  -29.1370  -21.7970   20.2310 N   0  0  0  0  0  0  0  0  0  0  0  0
  -27.6660  -22.8440   18.7920 O   0  0  0  0  0  0  0  0  0  0  0  0
  -27.6110  -20.0190   19.4990 C   0  0  0  0  0  3  0  0  0  0  0  0
  -27.2970  -18.6710   19.2840 C   0  0  0  0  0  3  0  0  0  0  0  0
  -29.9080  -19.3940   20.0150 C   0  0  0  0  0  3  0  0  0  0  0  0
  -29.6160  -18.0120   19.7590 C   0  0  0  0  0  0  0  0  0  0  0  0
  -28.9090  -20.4090   19.8960 C   0  0  0  0  0  0  0  0  0  0  0  0
  -28.2790  -17.6770   19.4270 C   0  0  0  0  0  0  0  0  0  0  0  0
  -27.9150  -16.3890   19.2310 F   0  0  0  0  0  0  0  0  0  0  0  0
  -31.0700  -14.5130   19.9930 C   0  0  0  0  0  0  0  0  0  0  0  0
  -30.7850  -12.1330   19.3910 C   0  0  0  0  0  2  0  0  0  0  0  0
  -29.8620  -12.0540   18.1580 C   0  0  0  0  0  2  0  0  0  0  0  0
  -28.3900  -11.9740   18.6020 C   0  0  0  0  0  2  0  0  0  0  0  0
  -28.0160  -13.0670   19.6410 C   0  0  0  0  0  3  0  0  0  0  0  0
  -29.0720  -13.1570   20.7690 C   0  0  0  0  0  2  0  0  0  0  0  0
  -30.3920  -13.3370   20.1460 N   0  0  0  0  0  0  0  0  0  0  0  0
  -32.2400  -14.5160   19.6030 O   0  0  0  0  0  0  0  0  0  0  0  0
  -30.7070  -16.9410   19.8350 C   0  0  0  0  0  0  0  0  0  0  0  0
  -30.3310  -15.6510   20.0820 N   0  0  0  0  0  0  0  0  0  0  0  0
  -31.8790  -17.2890   19.6470 O   0  0  0  0  0  0  0  0  0  0  0  0
  -29.3500  -15.5390   20.2930 H   0  0  0  0  0  0  0  0  0  0  0  0
  -25.6840  -13.8000   20.4360 C   0  0  0  0  0  0  0  0  0  0  0  0
  -24.5820  -13.0900   20.8250 C   0  0  0  0  0  0  0  0  0  0  0  0
  -24.9590  -11.7150   20.7660 C   0  0  0  0  0  0  0  0  0  0  0  0
  -26.6700  -12.8620   20.1680 N   0  0  0  0  0  0  0  0  0  0  0  0
  -26.2360  -11.5980   20.4190 N   0  0  0  0  0  0  0  0  0  0  0  0
  -24.1640  -10.4980   20.9670 C   0  0  0  0  0  0  0  0  0  0  0  0
  -24.5350   -9.5150   21.9100 C   0  0  0  0  0  3  0  0  0  0  0  0
  -23.7390   -8.3650   22.0950 C   0  0  0  0  0  3  0  0  0  0  0  0
  -22.5580   -8.1920   21.3370 C   0  0  0  0  0  0  0  0  0  0  0  0
  -22.2060   -9.1590   20.3790 C   0  0  0  0  0  3  0  0  0  0  0  0
  -23.0040  -10.3010   20.1940 C   0  0  0  0  0  3  0  0  0  0  0  0
  -21.7380   -7.0960   21.4290 O   0  0  0  0  0  0  0  0  0  0  0  0
  -21.6030   -6.3930   22.5980 C   0  0  0  0  0  0  0  0  0  0  0  0
  -21.1200   -7.0020   23.7750 C   0  0  0  0  0  3  0  0  0  0  0  0
  -20.9280   -6.2290   24.9380 C   0  0  0  0  0  3  0  0  0  0  0  0
  -21.2100   -4.8490   24.9220 C   0  0  0  0  0  0  0  0  0  0  0  0
  -21.6870   -4.2410   23.7480 C   0  0  0  0  0  3  0  0  0  0  0  0
  -21.8790   -5.0110   22.5870 C   0  0  0  0  0  0  0  0  0  0  0  0
  -22.3150   -4.4140   21.4530 F   0  0  0  0  0  0  0  0  0  0  0  0
  -21.0200   -4.1080   26.0380 F   0  0  0  0  0  0  0  0  0  0  0  0
  -23.2300  -13.6510   21.1610 C   0  0  0  0  0  0  0  0  0  0  0  0
  -22.5050  -12.9960   22.0590 N   0  0  0  0  0  0  0  0  0  0  0  0
  -22.8330  -14.7050   20.6650 O   0  0  0  0  0  0  0  0  0  0  0  0
  -22.8380  -12.1340   22.4660 H   0  0  0  0  0  0  0  0  0  0  0  0
  -21.6040  -13.3540   22.3450 H   0  0  0  0  0  0  0  0  0  0  0  0
  -25.9150  -15.1570   20.2800 N   0  0  0  0  0  0  0  0  0  0  0  0
  -25.2070  -15.8120   20.5920 H   0  0  0  0  0  0  0  0  0  0  0  0
  -26.8570  -15.5070   20.4480 H   0  0  0  0  0  0  0  0  0  0  0  0
  -28.7440  -25.4380   19.8400 C   0  0  0  0  0  2  0  0  0  0  0  0
  -28.4910  -26.6370   20.6120 O   0  0  0  0  0  0  0  0  0  0  0  0
  -24.4970  -31.8640   23.3630 C   0  0  0  0  0  0  0  0  0  0  0  0
  -27.2930  -27.3350   20.5180 C   0  0  0  0  0  0  0  0  0  0  0  0
  -23.3790  -30.4350   21.6860 C   0  0  0  0  0  3  0  0  0  0  0  0
  -24.9020  -28.8670   20.3740 C   0  0  0  0  0  0  0  0  0  0  0  0
  -25.9150  -30.7830   21.6160 C   0  0  0  0  0  2  0  0  0  0  0  0
  -26.0320  -29.3970   21.0060 C   0  0  0  0  0  0  0  0  0  0  0  0
  -27.2280  -28.6400   21.0720 C   0  0  0  0  0  3  0  0  0  0  0  0
  -26.1310  -26.8170   19.9020 C   0  0  0  0  0  3  0  0  0  0  0  0
  -24.9480  -27.5750   19.8220 C   0  0  0  0  0  3  0  0  0  0  0  0
  -23.6600  -29.7290   20.3320 C   0  0  0  0  0  2  0  0  0  0  0  0
  -24.6130  -31.0410   22.2800 N   0  0  0  0  0  0  0  0  0  0  0  0
  -23.3880  -32.1460   23.8380 O   0  0  0  0  0  0  0  0  0  0  0  0
  -22.6760  -29.4300   22.6280 C   0  0  0  0  0  0  0  0  0  0  0  0
  -21.3580  -29.2450   22.4360 N   0  0  0  0  0  0  0  0  0  0  0  0
  -23.3170  -28.8170   23.4890 O   0  0  0  0  0  0  0  0  0  0  0  0
  -20.9070  -29.7870   21.7150 H   0  0  0  0  0  0  0  0  0  0  0  0
  -17.9590  -28.0780   22.7920 C   0  0  0  0  0  0  0  0  0  0  0  0
  -20.5020  -28.3220   23.1800 C   0  0  0  0  0  3  0  0  0  0  0  0
  -20.6200  -26.8830   22.6280 C   0  0  0  0  0  2  0  0  0  0  0  0
  -19.5660  -26.5560   21.5680 C   0  0  0  0  0  2  0  0  0  0  0  0
  -18.1580  -26.7190   22.1450 C   0  0  0  0  0  2  0  0  0  0  0  0
  -19.0620  -28.8380   23.2640 C   0  0  0  0  0  0  0  0  0  0  0  0
  -18.8250  -30.1110   23.8290 C   0  0  0  0  0  3  0  0  0  0  0  0
  -17.5180  -30.6220   23.9260 C   0  0  0  0  0  3  0  0  0  0  0  0
  -16.4290  -29.8600   23.4720 C   0  0  0  0  0  3  0  0  0  0  0  0
  -16.6500  -28.5880   22.9090 C   0  0  0  0  0  3  0  0  0  0  0  0
  -25.7470  -32.5060   24.0390 C   0  0  0  0  0  3  0  0  0  0  0  0
  -25.4300  -33.9150   24.3070 N   0  0  0  0  0  0  0  0  0  0  0  0
  -25.7990  -34.9400   23.5260 C   0  0  0  0  0  0  0  0  0  0  0  0
  -26.5130  -34.7970   22.5300 O   0  0  0  0  0  0  0  0  0  0  0  0
  -24.8050  -34.1000   25.0780 H   0  0  0  0  0  0  0  0  0  0  0  0
  -24.1000  -36.7220   23.0290 C   0  0  0  0  0  1  0  0  0  0  0  0
  -25.2970  -36.3420   23.9130 C   0  0  0  0  0  3  0  0  0  0  0  0
  -27.3870  -37.2510   24.8260 C   0  0  0  0  0  1  0  0  0  0  0  0
  -26.3390  -37.3870   23.8170 N   0  0  0  0  0  0  0  0  0  0  0  0
  -25.9310  -38.3130   23.9060 H   0  0  0  0  0  0  0  0  0  0  0  0
  -26.1870  -31.7720   25.3660 C   0  0  1  0  0  0  0  0  0  0  0  0
  -25.0280  -31.5440   26.3620 C   0  0  0  0  0  1  0  0  0  0  0  0
  -26.8100  -30.3930   25.0460 C   0  0  0  0  0  1  0  0  0  0  0  0
  -27.2860  -32.5930   26.0820 C   0  0  0  0  0  1  0  0  0  0  0  0
  1  5  1  0
  1  4  1  0
  3  2  1  0
  4 54  1  0
  4  2  1  0
  5  3  1  0
  6  1  2  0
  7 11  1  0
  8 12  1  0
  8  7  2  0
 10 22  1  0
 10  9  1  0
 11  9  2  0
 11  5  1  0
 12 10  2  0
 13 12  1  0
 14 23  1  0
 14 20  1  0
 15 20  1  0
 16 17  1  0
 16 15  1  0
 18 17  1  0
 18 29  1  0
 18 19  1  0
 20 19  1  0
 21 14  2  0
 22 23  1  0
 23 25  1  0
 24 22  2  0
 26 27  2  0
 27 46  1  0
 28 27  1  0
 28 31  1  0
 29 30  1  0
 29 26  1  0
 30 28  2  0
 31 32  1  0
 32 33  2  0
 34 37  1  0
 34 33  1  0
 35 34  2  0
 36 35  1  0
 36 31  2  0
 37 38  1  0
 38 39  1  0
 39 40  2  0
 41 40  1  0
 41 45  1  0
 42 41  2  0
 43 38  2  0
 43 42  1  0
 44 43  1  0
 46 47  1  0
 47 50  1  0
 47 49  1  0
 48 46  2  0
 51 26  1  0
 51 53  1  0
 51 52  1  0
 54 55  1  0
 56 67  2  0
 57 55  1  0
 57 62  1  0
 58 66  1  0
 58 68  1  0
 59 61  1  0
 60 66  1  0
 61 62  2  0
 61 60  1  0
 63 57  2  0
 64 63  1  0
 64 59  2  0
 65 59  1  0
 65 58  1  0
 66 56  1  0
 68 70  2  0
 69 68  1  0
 71 69  1  0
 72 81  2  0
 72 77  1  0
 73 69  1  0
 73 77  1  0
 74 73  1  0
 75 76  1  0
 75 74  1  0
 76 72  1  0
 77 78  2  0
 78 79  1  0
 80 79  2  0
 81 80  1  0
 82 56  1  0
 82 83  1  0
 82 92  1  0
 83 86  1  0
 84 88  1  0
 84 83  1  0
 85 84  2  0
 88 87  1  0
 90 91  1  0
 90 88  1  0
 90 89  1  0
 92 95  1  1
 92 93  1  0
 94 92  1  0
M  ISO  4  14 100  23 100  54 101  55 101
M  END
>  <TORSDO>  (28) 
F 18

>  <SCORE>  (28) 
-14.668

>  <name>  (28) 
27

>  <ligand_id>  (28) 
27

>  <original_smiles>  (28) 
[H]c1c([H])c([H])c2c(c1[H])C([H])([H])C([H])([H])C([H])([H])C2([H])N([H])C(=O)C1([H])N(C(=O)C([H])(N([H])C(=O)C([H])(N([H])C([H])([H])[H])C([H])([H])[H])C(C([H])([H])[H])(C([H])([H])[H])C([H])([H])[H])C([H])([H])c2c([H])c(OC([H])([H])C3([H])C(=O)N(c4c([H])c([H])c(F)c(C(=O)N([H])C(=O)N5C([H])([H])C([H])([H])C([H])([H])C([H])(n6nc(-c7c([H])c([H])c(Oc8c([H])c([H])c(F)c([H])c8F)c([H])c7[H])c(C(=O)N([H])[H])c6N([H])[H])C5([H])[H])c4[H])C([H])([H])C3([H])[H])c([H])c([H])c2C1([H])[H]

>  <smiles>  (28) 
[H]c1c([H])c([H])c2c(c1[H])C([H])([H])C([H])([H])C([H])([H])C2([H])N([H])C(=O)C1([H])N(C(=O)C([H])(N([H])C(=O)C([H])(N([H])C([H])([H])[H])C([H])([H])[H])C(C([H])([H])[H])(C([H])([H])[H])C([H])([H])[H])C([H])([H])c2c([H])c(OC([H])([H])C3([H])C(=O)N(c4c([H])c([H])c(F)c(C(=O)N([H])C(=O)N5C([H])([H])C([H])([H])C([H])([H])C([H])(n6nc(-c7c([H])c([H])c(Oc8c([H])c([H])c(F)c([H])c8F)c([H])c7[H])c(C(=O)N([H])[H])c6N([H])[H])C5([H])[H])c4[H])C([H])([H])C3([H])[H])c([H])c([H])c2C1([H])[H]

$$$$
28:0:0
     RDKit          3D

 99108  0  0  1  0  0  0  0  0999 V2000
  -31.5490  -18.1410   20.9940 C   0  0  0  0  0  3  0  0  0  0  0  0
  -29.3440  -18.9490   20.3200 C   0  0  0  0  0  3  0  0  0  0  0  0
  -31.8940  -19.4930   21.1710 C   0  0  0  0  0  0  0  0  0  0  0  0
  -31.0330  -20.5660   20.9270 C   0  0  0  0  0  0  0  0  0  0  0  0
  -30.2480  -17.7990   20.5560 C   0  0  0  0  0  0  0  0  0  0  0  0
  -29.7000  -20.3770   20.4800 C   0  0  0  0  0  0  0  0  0  0  0  0
  -33.1260  -20.0220   21.7160 C   0  0  0  0  0  0  0  0  0  0  0  0
  -31.7510  -21.8460   21.3230 C   0  0  0  0  0  3  0  0  0  0  0  0
  -33.0450  -21.3490   21.8300 N   0  0  0  0  0  0  0  0  0  0  0  0
  -34.1910  -19.3140   22.0770 N   0  0  0  0  0  0  0  0  0  0  0  0
  -33.7570  -21.9670   22.1930 H   0  0  0  0  0  0  0  0  0  0  0  0
  -34.1890  -18.3110   21.9770 H   0  0  0  0  0  0  0  0  0  0  0  0
  -35.0190  -19.7520   22.4510 H   0  0  0  0  0  0  0  0  0  0  0  0
  -30.7000  -15.1790   20.4150 C   0  0  0  0  0  0  0  0  0  0  0  0
  -30.6240  -12.8180   19.5550 C   0  0  0  0  0  2  0  0  0  0  0  0
  -29.7230  -12.7230   18.3030 C   0  0  0  0  0  2  0  0  0  0  0  0
  -28.2530  -12.5060   18.7080 C   0  0  0  0  0  2  0  0  0  0  0  0
  -27.7950  -13.4710   19.8340 C   0  0  0  0  0  3  0  0  0  0  0  0
  -28.8230  -13.5460   20.9850 C   0  0  0  0  0  2  0  0  0  0  0  0
  -30.1090  -13.9300   20.3920 N   0  0  0  0  0  0  0  0  0  0  0  0
  -31.9050  -15.2580   20.1590 O   0  0  0  0  0  0  0  0  0  0  0  0
  -29.8990  -16.3330   20.4660 N   0  0  0  0  0  0  0  0  0  0  0  0
  -28.9110  -16.1320   20.4530 H   0  0  0  0  0  0  0  0  0  0  0  0
  -25.3940  -14.0160   20.5440 C   0  0  0  0  0  0  0  0  0  0  0  0
  -24.3340  -13.2230   20.8920 C   0  0  0  0  0  0  0  0  0  0  0  0
  -24.8180  -11.8790   20.8550 C   0  0  0  0  0  0  0  0  0  0  0  0
  -26.4520  -13.1550   20.3120 N   0  0  0  0  0  0  0  0  0  0  0  0
  -26.1140  -11.8640   20.5650 N   0  0  0  0  0  0  0  0  0  0  0  0
  -24.1070  -10.6050   21.0210 C   0  0  0  0  0  0  0  0  0  0  0  0
  -24.5300   -9.6390   21.9600 C   0  0  0  0  0  3  0  0  0  0  0  0
  -23.8170   -8.4300   22.1140 C   0  0  0  0  0  3  0  0  0  0  0  0
  -22.6650   -8.1790   21.3300 C   0  0  0  0  0  0  0  0  0  0  0  0
  -22.2620   -9.1350   20.3810 C   0  0  0  0  0  3  0  0  0  0  0  0
  -22.9760  -10.3350   20.2230 C   0  0  0  0  0  3  0  0  0  0  0  0
  -21.9260   -7.0230   21.3930 O   0  0  0  0  0  0  0  0  0  0  0  0
  -21.8480   -6.2810   22.5440 C   0  0  0  0  0  0  0  0  0  0  0  0
  -21.3140   -6.8110   23.7390 C   0  0  0  0  0  3  0  0  0  0  0  0
  -21.1880   -5.9920   24.8790 C   0  0  0  0  0  3  0  0  0  0  0  0
  -21.5880   -4.6420   24.8250 C   0  0  0  0  0  0  0  0  0  0  0  0
  -22.1170   -4.1120   23.6350 C   0  0  0  0  0  3  0  0  0  0  0  0
  -22.2440   -4.9290   22.4980 C   0  0  0  0  0  0  0  0  0  0  0  0
  -22.7330   -4.4060   21.3480 F   0  0  0  0  0  0  0  0  0  0  0  0
  -21.4620   -3.8540   25.9170 F   0  0  0  0  0  0  0  0  0  0  0  0
  -22.9260  -13.6780   21.1440 C   0  0  0  0  0  0  0  0  0  0  0  0
  -22.2010  -12.9780   22.0080 N   0  0  0  0  0  0  0  0  0  0  0  0
  -22.4770  -14.6920   20.6100 O   0  0  0  0  0  0  0  0  0  0  0  0
  -22.5780  -12.1590   22.4640 H   0  0  0  0  0  0  0  0  0  0  0  0
  -21.2560  -13.2650   22.2170 H   0  0  0  0  0  0  0  0  0  0  0  0
  -25.5360  -15.3910   20.3790 N   0  0  0  0  0  0  0  0  0  0  0  0
  -24.7470  -16.0210   20.4690 H   0  0  0  0  0  0  0  0  0  0  0  0
  -26.3630  -15.8440   20.0160 H   0  0  0  0  0  0  0  0  0  0  0  0
  -28.8410  -22.9110   20.0390 C   0  0  0  0  0  0  0  0  0  0  0  0
  -28.7450  -21.5390   20.3640 N   0  0  0  0  0  0  0  0  0  0  0  0
  -29.8040  -23.3490   19.4130 O   0  0  0  0  0  0  0  0  0  0  0  0
  -27.8100  -21.3130   20.6750 H   0  0  0  0  0  0  0  0  0  0  0  0
  -27.4070  -25.1760   20.4300 C   0  0  0  0  0  3  0  0  0  0  0  0
  -27.6840  -23.7920   20.4900 C   0  0  0  0  0  0  0  0  0  0  0  0
  -26.5810  -22.9800   21.1870 C   0  0  0  0  0  1  0  0  0  0  0  0
  -27.9020  -26.4360   19.9240 O   0  0  0  0  0  0  0  0  0  0  0  0
  -24.5590  -32.0060   23.3000 C   0  0  0  0  0  0  0  0  0  0  0  0
  -26.9260  -27.4830   19.9070 C   0  0  0  0  0  0  0  0  0  0  0  0
  -23.2570  -30.6900   21.6710 C   0  0  0  0  0  3  0  0  0  0  0  0
  -24.6130  -29.2000   20.0850 C   0  0  0  0  0  0  0  0  0  0  0  0
  -25.7940  -30.9690   21.3720 C   0  0  0  0  0  2  0  0  0  0  0  0
  -25.8250  -29.6150   20.6550 C   0  0  0  0  0  0  0  0  0  0  0  0
  -26.9860  -28.7660   20.5680 C   0  0  0  0  0  3  0  0  0  0  0  0
  -25.7020  -27.1830   19.2660 C   0  0  0  0  0  3  0  0  0  0  0  0
  -24.5590  -27.9930   19.3760 C   0  0  0  0  0  3  0  0  0  0  0  0
  -23.3920  -30.0850   20.2500 C   0  0  0  0  0  2  0  0  0  0  0  0
  -24.5600  -31.2360   22.1700 N   0  0  0  0  0  0  0  0  0  0  0  0
  -23.5080  -32.2720   23.9020 O   0  0  0  0  0  0  0  0  0  0  0  0
  -22.6310  -29.6390   22.6210 C   0  0  0  0  0  0  0  0  0  0  0  0
  -21.3120  -29.4120   22.4970 N   0  0  0  0  0  0  0  0  0  0  0  0
  -23.3340  -29.0340   23.4340 O   0  0  0  0  0  0  0  0  0  0  0  0
  -20.8010  -29.9570   21.8150 H   0  0  0  0  0  0  0  0  0  0  0  0
  -17.9980  -28.0240   22.9570 C   0  0  0  0  0  0  0  0  0  0  0  0
  -20.5330  -28.4360   23.2610 C   0  0  0  0  0  3  0  0  0  0  0  0
  -20.7260  -27.0080   22.7000 C   0  0  0  0  0  2  0  0  0  0  0  0
  -19.6610  -26.6150   21.6720 C   0  0  0  0  0  2  0  0  0  0  0  0
  -18.2640  -26.6840   22.2930 C   0  0  0  0  0  2  0  0  0  0  0  0
  -19.0640  -28.8530   23.3980 C   0  0  0  0  0  0  0  0  0  0  0  0
  -18.7610  -30.1050   23.9790 C   0  0  0  0  0  3  0  0  0  0  0  0
  -17.4270  -30.5280   24.1230 C   0  0  0  0  0  3  0  0  0  0  0  0
  -16.3760  -29.6970   23.6970 C   0  0  0  0  0  3  0  0  0  0  0  0
  -16.6630  -28.4470   23.1190 C   0  0  0  0  0  3  0  0  0  0  0  0
  -25.8790  -32.6040   23.8760 C   0  0  0  0  0  3  0  0  0  0  0  0
  -26.4140  -31.8230   25.1400 C   0  0  1  0  0  0  0  0  0  0  0  0
  -25.3450  -31.6060   26.2350 C   0  0  0  0  0  1  0  0  0  0  0  0
  -26.9600  -30.4330   24.7400 C   0  0  0  0  0  1  0  0  0  0  0  0
  -27.5950  -32.5940   25.7730 C   0  0  0  0  0  1  0  0  0  0  0  0
  -25.6200  -34.0120   24.2110 N   0  0  0  0  0  0  0  0  0  0  0  0
  -25.9640  -35.0540   23.4420 C   0  0  0  0  0  0  0  0  0  0  0  0
  -26.6020  -34.9290   22.3940 O   0  0  0  0  0  0  0  0  0  0  0  0
  -25.0560  -34.1870   25.0290 H   0  0  0  0  0  0  0  0  0  0  0  0
  -24.2950  -36.9110   23.1260 C   0  0  0  0  0  1  0  0  0  0  0  0
  -25.5350  -36.4580   23.9130 C   0  0  0  0  0  3  0  0  0  0  0  0
  -27.7090  -37.2700   24.7190 C   0  0  0  0  0  1  0  0  0  0  0  0
  -26.6040  -37.4730   23.7860 N   0  0  0  0  0  0  0  0  0  0  0  0
  -26.2330  -38.4070   23.9380 H   0  0  0  0  0  0  0  0  0  0  0  0
  1  3  1  0
  2  6  2  0
  2  5  1  0
  3  7  2  0
  4  3  1  0
  4  8  2  0
  5  1  2  0
  6  4  1  0
  7  9  1  0
  7 10  1  0
  8  9  1  0
  9 11  1  0
 10 13  1  0
 12 10  1  0
 14 22  1  0
 15 20  1  0
 16 17  1  0
 16 15  1  0
 18 17  1  0
 18 27  1  0
 18 19  1  0
 20 14  1  0
 20 19  1  0
 21 14  2  0
 22  5  1  0
 23 22  1  0
 24 25  2  0
 25 44  1  0
 26 25  1  0
 26 29  1  0
 27 24  1  0
 27 28  1  0
 28 26  2  0
 29 30  1  0
 30 31  2  0
 32 35  1  0
 32 31  1  0
 33 32  2  0
 34 33  1  0
 34 29  2  0
 35 36  1  0
 36 37  1  0
 37 38  2  0
 39 38  1  0
 39 43  1  0
 40 39  2  0
 41 36  2  0
 41 40  1  0
 42 41  1  0
 44 45  1  0
 45 48  1  0
 45 47  1  0
 46 44  2  0
 49 50  1  0
 49 24  1  0
 51 49  1  0
 52 53  1  0
 52 57  1  0
 53  6  1  0
 53 55  1  0
 54 52  2  0
 56 57  2  0
 57 58  1  0
 59 56  1  0
 60 71  2  0
 61 59  1  0
 61 66  1  0
 62 70  1  0
 62 72  1  0
 63 69  1  0
 63 65  1  0
 64 70  1  0
 65 64  1  0
 66 65  2  0
 67 68  1  0
 67 61  2  0
 68 63  2  0
 69 62  1  0
 70 60  1  0
 72 74  2  0
 73 72  1  0
 75 73  1  0
 76 85  2  0
 76 81  1  0
 77 73  1  0
 77 81  1  0
 78 77  1  0
 79 80  1  0
 79 78  1  0
 80 76  1  0
 81 82  2  0
 82 83  1  0
 84 83  2  0
 85 84  1  0
 86 60  1  0
 86 91  1  0
 86 87  1  0
 87 90  1  1
 87 88  1  0
 89 87  1  0
 91 94  1  0
 92 96  1  0
 92 91  1  0
 93 92  2  0
 96 95  1  0
 98 96  1  0
 98 99  1  0
 98 97  1  0
M  ISO  4  14 100  22 100  56 101  59 101
M  END
>  <TORSDO>  (29) 
F 18

>  <SCORE>  (29) 
-14.753

>  <name>  (29) 
28

>  <ligand_id>  (29) 
28

>  <original_smiles>  (29) 
[H]C(Oc1c([H])c([H])c2c(c1[H])C([H])([H])N(C(=O)C([H])(N([H])C(=O)C([H])(N([H])C([H])([H])[H])C([H])([H])[H])C(C([H])([H])[H])(C([H])([H])[H])C([H])([H])[H])C([H])(C(=O)N([H])C1([H])c3c([H])c([H])c([H])c([H])c3C([H])([H])C([H])([H])C1([H])[H])C2([H])[H])=C(C(=O)N([H])c1c([H])c(N([H])C(=O)N2C([H])([H])C([H])([H])C([H])([H])C([H])(n3nc(-c4c([H])c([H])c(Oc5c([H])c([H])c(F)c([H])c5F)c([H])c4[H])c(C(=O)N([H])[H])c3N([H])[H])C2([H])[H])c([H])c2c1C([H])([H])[N+]([H])=C2N([H])[H])C([H])([H])[H]

>  <smiles>  (29) 
[H]C(Oc1c([H])c([H])c2c(c1[H])C([H])([H])N(C(=O)C([H])(N([H])C(=O)C([H])(N([H])C([H])([H])[H])C([H])([H])[H])C(C([H])([H])[H])(C([H])([H])[H])C([H])([H])[H])C([H])(C(=O)N([H])C1([H])c3c([H])c([H])c([H])c([H])c3C([H])([H])C([H])([H])C1([H])[H])C2([H])[H])=C(C(=O)N([H])c1c([H])c(N([H])C(=O)N2C([H])([H])C([H])([H])C([H])([H])C([H])(n3nc(-c4c([H])c([H])c(Oc5c([H])c([H])c(F)c([H])c5F)c([H])c4[H])c(C(=O)N([H])[H])c3N([H])[H])C2([H])[H])c([H])c2c1C([H])([H])[N+]([H])=C2N([H])[H])C([H])([H])[H]

$$$$
29:0:0
     RDKit          3D

 93102  0  0  1  0  0  0  0  0999 V2000
  -28.9840  -22.5430   20.6780 C   0  0  0  0  0  3  0  0  0  0  0  0
  -28.3210  -23.5390   19.9990 C   0  0  0  0  0  0  0  0  0  0  0  0
  -27.7990  -22.8230   18.8360 C   0  0  0  0  0  0  0  0  0  0  0  0
  -27.1070  -23.3680   17.8110 C   0  0  0  0  0  1  0  0  0  0  0  0
  -28.1610  -21.3250   18.9110 C   0  0  0  0  0  3  0  0  0  0  0  0
  -28.9850  -21.2130   20.1310 N   0  0  0  0  0  0  0  0  0  0  0  0
  -30.3060  -19.9560   21.8200 C   0  0  0  0  0  3  0  0  0  0  0  0
  -30.7190  -17.5260   21.7840 C   0  0  0  0  0  3  0  0  0  0  0  0
  -29.3650  -18.5990   20.0380 C   0  0  0  0  0  3  0  0  0  0  0  0
  -30.8830  -18.7890   22.3940 C   0  0  0  0  0  0  0  0  0  0  0  0
  -29.5250  -19.9340   20.6290 C   0  0  0  0  0  0  0  0  0  0  0  0
  -29.9780  -17.3770   20.5840 C   0  0  0  0  0  0  0  0  0  0  0  0
  -31.6670  -18.8910   23.7100 C   0  0  0  0  0  1  0  0  0  0  0  0
  -30.5970  -14.8690   19.9700 C   0  0  0  0  0  0  0  0  0  0  0  0
  -30.3690  -12.5800   18.9410 C   0  0  0  0  0  2  0  0  0  0  0  0
  -29.3430  -12.6120   17.7820 C   0  0  0  0  0  2  0  0  0  0  0  0
  -27.9210  -12.3870   18.3390 C   0  0  0  0  0  2  0  0  0  0  0  0
  -27.6190  -13.3220   19.5360 C   0  0  0  0  0  3  0  0  0  0  0  0
  -28.7430  -13.2720   20.5880 C   0  0  0  0  0  2  0  0  0  0  0  0
  -29.9870  -13.6350   19.9050 N   0  0  0  0  0  0  0  0  0  0  0  0
  -31.7820  -14.9830   19.6410 O   0  0  0  0  0  0  0  0  0  0  0  0
  -29.7600  -15.9850   20.0900 N   0  0  0  0  0  0  0  0  0  0  0  0
  -28.7890  -15.7450   19.9760 H   0  0  0  0  0  0  0  0  0  0  0  0
  -25.3140  -13.9380   20.4680 C   0  0  0  0  0  0  0  0  0  0  0  0
  -24.2580  -13.1770   20.8790 C   0  0  0  0  0  0  0  0  0  0  0  0
  -24.6980  -11.8210   20.7900 C   0  0  0  0  0  0  0  0  0  0  0  0
  -26.3170  -13.0470   20.1250 N   0  0  0  0  0  0  0  0  0  0  0  0
  -25.9600  -11.7650   20.3900 N   0  0  0  0  0  0  0  0  0  0  0  0
  -23.9720  -10.5670   20.9990 C   0  0  0  0  0  0  0  0  0  0  0  0
  -24.4360   -9.5750   21.8940 C   0  0  0  0  0  3  0  0  0  0  0  0
  -23.6990   -8.3890   22.0900 C   0  0  0  0  0  3  0  0  0  0  0  0
  -22.4920   -8.1780   21.3800 C   0  0  0  0  0  0  0  0  0  0  0  0
  -22.0460   -9.1610   20.4760 C   0  0  0  0  0  3  0  0  0  0  0  0
  -22.7830  -10.3380   20.2780 C   0  0  0  0  0  3  0  0  0  0  0  0
  -21.7310   -7.0400   21.4790 O   0  0  0  0  0  0  0  0  0  0  0  0
  -21.7080   -6.2830   22.6230 C   0  0  0  0  0  0  0  0  0  0  0  0
  -21.3220   -6.8300   23.8670 C   0  0  0  0  0  3  0  0  0  0  0  0
  -21.2500   -6.0050   25.0050 C   0  0  0  0  0  3  0  0  0  0  0  0
  -21.5570   -4.6370   24.9060 C   0  0  0  0  0  0  0  0  0  0  0  0
  -21.9430   -4.0890   23.6700 C   0  0  0  0  0  3  0  0  0  0  0  0
  -22.0180   -4.9100   22.5300 C   0  0  0  0  0  0  0  0  0  0  0  0
  -22.3630   -4.3720   21.3370 F   0  0  0  0  0  0  0  0  0  0  0  0
  -21.4860   -3.8450   26.0010 F   0  0  0  0  0  0  0  0  0  0  0  0
  -22.8930  -13.6800   21.2500 C   0  0  0  0  0  0  0  0  0  0  0  0
  -22.2100  -12.9790   22.1440 N   0  0  0  0  0  0  0  0  0  0  0  0
  -22.4450  -14.7280   20.7940 O   0  0  0  0  0  0  0  0  0  0  0  0
  -22.5910  -12.1300   22.5260 H   0  0  0  0  0  0  0  0  0  0  0  0
  -21.3090  -13.3130   22.4540 H   0  0  0  0  0  0  0  0  0  0  0  0
  -25.5080  -15.3130   20.3530 N   0  0  0  0  0  0  0  0  0  0  0  0
  -24.8300  -15.9610   20.7400 H   0  0  0  0  0  0  0  0  0  0  0  0
  -26.4230  -15.7290   20.2510 H   0  0  0  0  0  0  0  0  0  0  0  0
  -27.8050  -24.9320   20.6220 C   0  0  0  0  0  2  0  0  0  0  0  0
  -28.2220  -26.3330   20.2170 O   0  0  0  0  0  0  0  0  0  0  0  0
  -24.6360  -31.9560   23.2580 C   0  0  0  0  0  0  0  0  0  0  0  0
  -27.1900  -27.3030   20.2000 C   0  0  0  0  0  0  0  0  0  0  0  0
  -23.4300  -30.5550   21.6310 C   0  0  0  0  0  3  0  0  0  0  0  0
  -24.8710  -29.0050   20.1950 C   0  0  0  0  0  0  0  0  0  0  0  0
  -25.9790  -30.8420   21.4560 C   0  0  0  0  0  2  0  0  0  0  0  0
  -26.0510  -29.4550   20.8040 C   0  0  0  0  0  0  0  0  0  0  0  0
  -27.2160  -28.6140   20.8000 C   0  0  0  0  0  3  0  0  0  0  0  0
  -26.0020  -26.9500   19.5340 C   0  0  0  0  0  3  0  0  0  0  0  0
  -24.8580  -27.7600   19.5500 C   0  0  0  0  0  3  0  0  0  0  0  0
  -23.6410  -29.8900   20.2510 C   0  0  0  0  0  2  0  0  0  0  0  0
  -24.7020  -31.1370   22.1690 N   0  0  0  0  0  0  0  0  0  0  0  0
  -23.5490  -32.2410   23.7740 O   0  0  0  0  0  0  0  0  0  0  0  0
  -22.7690  -29.5330   22.5920 C   0  0  0  0  0  0  0  0  0  0  0  0
  -21.4440  -29.3220   22.4590 N   0  0  0  0  0  0  0  0  0  0  0  0
  -23.4470  -28.9350   23.4280 O   0  0  0  0  0  0  0  0  0  0  0  0
  -20.9440  -29.8630   21.7680 H   0  0  0  0  0  0  0  0  0  0  0  0
  -18.0860  -28.0600   22.9110 C   0  0  0  0  0  0  0  0  0  0  0  0
  -20.6340  -28.3850   23.2400 C   0  0  0  0  0  3  0  0  0  0  0  0
  -20.7770  -26.9400   22.7110 C   0  0  0  0  0  2  0  0  0  0  0  0
  -19.7120  -26.5910   21.6700 C   0  0  0  0  0  2  0  0  0  0  0  0
  -18.3110  -26.7010   22.2690 C   0  0  0  0  0  2  0  0  0  0  0  0
  -19.1750  -28.8540   23.3490 C   0  0  0  0  0  0  0  0  0  0  0  0
  -18.9080  -30.1330   23.8970 C   0  0  0  0  0  3  0  0  0  0  0  0
  -17.5840  -30.5980   24.0200 C   0  0  0  0  0  3  0  0  0  0  0  0
  -16.5090  -29.7970   23.5980 C   0  0  0  0  0  3  0  0  0  0  0  0
  -16.7650  -28.5280   23.0440 C   0  0  0  0  0  3  0  0  0  0  0  0
  -25.9120  -32.5960   23.8820 C   0  0  0  0  0  3  0  0  0  0  0  0
  -25.6000  -33.9970   24.1940 N   0  0  0  0  0  0  0  0  0  0  0  0
  -25.9370  -35.0420   23.4290 C   0  0  0  0  0  0  0  0  0  0  0  0
  -26.6140  -34.9290   22.4030 O   0  0  0  0  0  0  0  0  0  0  0  0
  -25.0040  -34.1620   24.9920 H   0  0  0  0  0  0  0  0  0  0  0  0
  -24.2250  -36.8390   23.0370 C   0  0  0  0  0  1  0  0  0  0  0  0
  -25.4530  -36.4370   23.8690 C   0  0  0  0  0  3  0  0  0  0  0  0
  -27.5810  -37.3190   24.7220 C   0  0  0  0  0  1  0  0  0  0  0  0
  -26.4920  -37.4860   23.7630 N   0  0  0  0  0  0  0  0  0  0  0  0
  -26.0890  -38.4120   23.8980 H   0  0  0  0  0  0  0  0  0  0  0  0
  -26.4210  -31.8410   25.1690 C   0  0  1  0  0  0  0  0  0  0  0  0
  -25.3210  -31.6180   26.2340 C   0  0  0  0  0  1  0  0  0  0  0  0
  -27.0090  -30.4630   24.7960 C   0  0  0  0  0  1  0  0  0  0  0  0
  -27.5650  -32.6520   25.8230 C   0  0  0  0  0  1  0  0  0  0  0  0
  2 52  1  0
  2  1  2  0
  3  5  2  0
  3  2  1  0
  4  3  1  0
  5  6  1  0
  6 11  1  0
  6  1  1  0
  7 10  1  0
  8 10  2  0
  9 12  2  0
  9 11  1  0
 10 13  1  0
 11  7  2  0
 12  8  1  0
 14 22  1  0
 15 20  1  0
 16 17  1  0
 16 15  1  0
 18 17  1  0
 18 27  1  0
 18 19  1  0
 20 14  1  0
 20 19  1  0
 21 14  2  0
 22 12  1  0
 23 22  1  0
 24 25  2  0
 25 44  1  0
 26 25  1  0
 26 29  1  0
 27 28  1  0
 27 24  1  0
 28 26  2  0
 29 30  1  0
 30 31  2  0
 32 35  1  0
 32 31  1  0
 33 32  2  0
 34 33  1  0
 34 29  2  0
 35 36  1  0
 36 37  1  0
 37 38  2  0
 39 38  1  0
 39 43  1  0
 40 39  2  0
 41 36  2  0
 41 40  1  0
 42 41  1  0
 44 45  1  0
 45 48  1  0
 45 47  1  0
 46 44  2  0
 49 24  1  0
 49 50  1  0
 51 49  1  0
 53 52  1  0
 54 65  2  0
 55 53  1  0
 55 60  1  0
 56 64  1  0
 56 66  1  0
 57 63  1  0
 57 59  1  0
 58 64  1  0
 59 58  1  0
 60 59  2  0
 61 62  1  0
 61 55  2  0
 62 57  2  0
 63 56  1  0
 64 54  1  0
 66 68  2  0
 67 66  1  0
 69 67  1  0
 70 79  2  0
 70 75  1  0
 71 67  1  0
 71 75  1  0
 72 71  1  0
 73 74  1  0
 73 72  1  0
 74 70  1  0
 75 76  2  0
 76 77  1  0
 78 77  2  0
 79 78  1  0
 80 54  1  0
 80 81  1  0
 80 90  1  0
 81 84  1  0
 82 86  1  0
 82 81  1  0
 83 82  2  0
 86 85  1  0
 88 86  1  0
 88 89  1  0
 88 87  1  0
 90 93  1  1
 90 91  1  0
 92 90  1  0
M  ISO  4  14 100  22 100  52 101  53 101
M  END
>  <TORSDO>  (30) 
F 18

>  <SCORE>  (30) 
-13.847

>  <name>  (30) 
29

>  <ligand_id>  (30) 
29

>  <original_smiles>  (30) 
[H]C([H])=C1C(C([H])([H])Oc2c([H])c([H])c3c(c2[H])C([H])([H])N(C(=O)C([H])(N([H])C(=O)C([H])(N([H])C([H])([H])[H])C([H])([H])[H])C(C([H])([H])[H])(C([H])([H])[H])C([H])([H])[H])C([H])(C(=O)N([H])C2([H])c4c([H])c([H])c([H])c([H])c4C([H])([H])C([H])([H])C2([H])[H])C3([H])[H])=C([H])N(c2c([H])c(N([H])C(=O)N3C([H])([H])C([H])([H])C([H])([H])C([H])(n4nc(-c5c([H])c([H])c(Oc6c([H])c([H])c(F)c([H])c6F)c([H])c5[H])c(C(=O)N([H])[H])c4N([H])[H])C3([H])[H])c([H])c(C([H])([H])[H])c2[H])C1([H])[H]

>  <smiles>  (30) 
[H]C([H])=C1C(C([H])([H])Oc2c([H])c([H])c3c(c2[H])C([H])([H])N(C(=O)C([H])(N([H])C(=O)C([H])(N([H])C([H])([H])[H])C([H])([H])[H])C(C([H])([H])[H])(C([H])([H])[H])C([H])([H])[H])C([H])(C(=O)N([H])C2([H])c4c([H])c([H])c([H])c([H])c4C([H])([H])C([H])([H])C2([H])[H])C3([H])[H])=C([H])N(c2c([H])c(N([H])C(=O)N3C([H])([H])C([H])([H])C([H])([H])C([H])(n4nc(-c5c([H])c([H])c(Oc6c([H])c([H])c(F)c([H])c6F)c([H])c5[H])c(C(=O)N([H])[H])c4N([H])[H])C3([H])[H])c([H])c(C([H])([H])[H])c2[H])C1([H])[H]

$$$$
30:0:0
     RDKit          3D

 93102  0  0  1  0  0  0  0  0999 V2000
  -27.0120  -22.5810   19.1080 C   0  0  0  0  0  3  0  0  0  0  0  0
  -28.0800  -23.3190   19.4700 C   0  0  0  0  0  0  0  0  0  0  0  0
  -26.8710  -21.0440   19.1570 C   0  0  0  0  0  2  0  0  0  0  0  0
  -29.2850  -22.3120   19.9800 C   0  0  0  0  0  2  0  0  0  0  0  0
  -27.9290  -20.1820   19.9020 C   0  0  0  0  0  2  0  0  0  0  0  0
  -29.2960  -20.7080   19.8170 N   0  0  0  0  0  0  0  0  0  0  0  0
  -30.8820  -20.5510   21.5400 C   0  0  0  0  0  3  0  0  0  0  0  0
  -32.0320  -20.2620   22.2690 C   0  0  0  0  0  3  0  0  0  0  0  0
  -32.3210  -18.3320   20.8330 C   0  0  0  0  0  3  0  0  0  0  0  0
  -30.3550  -19.8120   20.4380 C   0  0  0  0  0  0  0  0  0  0  0  0
  -31.0220  -18.4010   20.2510 C   0  0  0  0  0  0  0  0  0  0  0  0
  -32.8180  -19.2060   21.8180 C   0  0  0  0  0  0  0  0  0  0  0  0
  -34.0280  -18.9890   22.3820 F   0  0  0  0  0  0  0  0  0  0  0  0
  -31.3960  -15.6880   19.6680 C   0  0  0  0  0  0  0  0  0  0  0  0
  -31.2460  -13.1770   18.9940 C   0  0  0  0  0  2  0  0  0  0  0  0
  -30.3130  -12.9590   17.7760 C   0  0  0  0  0  2  0  0  0  0  0  0
  -28.8550  -12.8190   18.2400 C   0  0  0  0  0  2  0  0  0  0  0  0
  -28.4910  -13.8620   19.3250 C   0  0  0  0  0  3  0  0  0  0  0  0
  -29.5580  -14.0180   20.4220 C   0  0  0  0  0  2  0  0  0  0  0  0
  -30.7910  -14.4100   19.7290 N   0  0  0  0  0  0  0  0  0  0  0  0
  -32.5930  -15.6670   19.3420 O   0  0  0  0  0  0  0  0  0  0  0  0
  -30.6550  -16.9570   19.7400 N   0  0  0  0  0  0  0  0  0  0  0  0
  -29.6610  -16.7870   19.7430 H   0  0  0  0  0  0  0  0  0  0  0  0
  -26.2030  -14.5600   20.2150 C   0  0  0  0  0  0  0  0  0  0  0  0
  -25.1180  -13.8360   20.6390 C   0  0  0  0  0  0  0  0  0  0  0  0
  -25.4990  -12.4630   20.5400 C   0  0  0  0  0  0  0  0  0  0  0  0
  -27.1720  -13.6250   19.8910 N   0  0  0  0  0  0  0  0  0  0  0  0
  -26.7630  -12.3550   20.1470 N   0  0  0  0  0  0  0  0  0  0  0  0
  -24.7030  -11.2430   20.7350 C   0  0  0  0  0  0  0  0  0  0  0  0
  -25.0540  -10.2830   21.7070 C   0  0  0  0  0  3  0  0  0  0  0  0
  -24.2610   -9.1280   21.8910 C   0  0  0  0  0  3  0  0  0  0  0  0
  -23.1020   -8.9330   21.1060 C   0  0  0  0  0  0  0  0  0  0  0  0
  -22.7690   -9.8820   20.1220 C   0  0  0  0  0  3  0  0  0  0  0  0
  -23.5620  -11.0260   19.9380 C   0  0  0  0  0  3  0  0  0  0  0  0
  -22.2840   -7.8300   21.1980 O   0  0  0  0  0  0  0  0  0  0  0  0
  -22.0610   -7.2000   22.3950 C   0  0  0  0  0  0  0  0  0  0  0  0
  -21.4910   -7.8700   23.4990 C   0  0  0  0  0  3  0  0  0  0  0  0
  -21.2160   -7.1630   24.6890 C   0  0  0  0  0  3  0  0  0  0  0  0
  -21.4990   -5.7850   24.7690 C   0  0  0  0  0  0  0  0  0  0  0  0
  -22.0630   -5.1170   23.6680 C   0  0  0  0  0  3  0  0  0  0  0  0
  -22.3400   -5.8210   22.4850 C   0  0  0  0  0  0  0  0  0  0  0  0
  -22.8630   -5.1670   21.4190 F   0  0  0  0  0  0  0  0  0  0  0  0
  -21.2290   -5.1050   25.9060 F   0  0  0  0  0  0  0  0  0  0  0  0
  -23.7820  -14.3950   21.0170 C   0  0  0  0  0  0  0  0  0  0  0  0
  -23.0810  -13.7290   21.9300 N   0  0  0  0  0  0  0  0  0  0  0  0
  -23.3690  -15.4530   20.5460 O   0  0  0  0  0  0  0  0  0  0  0  0
  -23.4340  -12.8730   22.3260 H   0  0  0  0  0  0  0  0  0  0  0  0
  -22.1910  -14.0880   22.2430 H   0  0  0  0  0  0  0  0  0  0  0  0
  -26.4400  -15.9150   20.0620 N   0  0  0  0  0  0  0  0  0  0  0  0
  -25.7070  -16.6000   20.2300 H   0  0  0  0  0  0  0  0  0  0  0  0
  -27.2540  -16.3050   19.6030 H   0  0  0  0  0  0  0  0  0  0  0  0
  -28.0690  -24.9590   18.9780 C   0  0  0  0  0  2  0  0  0  0  0  0
  -27.9130  -26.3780   19.7040 O   0  0  0  0  0  0  0  0  0  0  0  0
  -24.4800  -31.9640   23.1210 C   0  0  0  0  0  0  0  0  0  0  0  0
  -26.8680  -27.4040   19.6380 C   0  0  0  0  0  0  0  0  0  0  0  0
  -23.1790  -30.6370   21.5090 C   0  0  0  0  0  3  0  0  0  0  0  0
  -24.5320  -29.1740   19.8600 C   0  0  0  0  0  0  0  0  0  0  0  0
  -25.7050  -30.9500   21.1440 C   0  0  0  0  0  2  0  0  0  0  0  0
  -25.7460  -29.5850   20.4160 C   0  0  0  0  0  0  0  0  0  0  0  0
  -26.9080  -28.7190   20.2910 C   0  0  0  0  0  3  0  0  0  0  0  0
  -25.6290  -27.1250   19.0290 C   0  0  0  0  0  3  0  0  0  0  0  0
  -24.4900  -27.9660   19.1410 C   0  0  0  0  0  3  0  0  0  0  0  0
  -23.3020  -30.0590   20.0700 C   0  0  0  0  0  2  0  0  0  0  0  0
  -24.4830  -31.2020   21.9840 N   0  0  0  0  0  0  0  0  0  0  0  0
  -23.4350  -32.1860   23.7490 O   0  0  0  0  0  0  0  0  0  0  0  0
  -22.6050  -29.5540   22.4590 C   0  0  0  0  0  0  0  0  0  0  0  0
  -21.2790  -29.3270   22.4030 N   0  0  0  0  0  0  0  0  0  0  0  0
  -23.3520  -28.9380   23.2220 O   0  0  0  0  0  0  0  0  0  0  0  0
  -20.7150  -29.8900   21.7880 H   0  0  0  0  0  0  0  0  0  0  0  0
  -18.0220  -27.8250   22.9780 C   0  0  0  0  0  0  0  0  0  0  0  0
  -20.5520  -28.3240   23.1820 C   0  0  0  0  0  3  0  0  0  0  0  0
  -20.7710  -26.9000   22.6210 C   0  0  0  0  0  2  0  0  0  0  0  0
  -19.6850  -26.4930   21.6170 C   0  0  0  0  0  2  0  0  0  0  0  0
  -18.3110  -26.4930   22.3090 C   0  0  0  0  0  2  0  0  0  0  0  0
  -19.0710  -28.6940   23.3680 C   0  0  0  0  0  0  0  0  0  0  0  0
  -18.7370  -29.9440   23.9410 C   0  0  0  0  0  3  0  0  0  0  0  0
  -17.3930  -30.3190   24.1270 C   0  0  0  0  0  3  0  0  0  0  0  0
  -16.3620  -29.4370   23.7600 C   0  0  0  0  0  3  0  0  0  0  0  0
  -16.6780  -28.1960   23.1920 C   0  0  0  0  0  3  0  0  0  0  0  0
  -25.7850  -32.6030   23.6760 C   0  0  0  0  0  3  0  0  0  0  0  0
  -25.4750  -33.9880   24.0750 N   0  0  0  0  0  0  0  0  0  0  0  0
  -25.7770  -35.0790   23.3550 C   0  0  0  0  0  0  0  0  0  0  0  0
  -26.4080  -35.0220   22.2950 O   0  0  0  0  0  0  0  0  0  0  0  0
  -24.9010  -34.1040   24.8960 H   0  0  0  0  0  0  0  0  0  0  0  0
  -24.0390  -36.8880   23.1470 C   0  0  0  0  0  1  0  0  0  0  0  0
  -25.3060  -36.4470   23.8950 C   0  0  0  0  0  3  0  0  0  0  0  0
  -27.4650  -37.3000   24.6900 C   0  0  0  0  0  1  0  0  0  0  0  0
  -26.3340  -37.5030   23.7920 N   0  0  0  0  0  0  0  0  0  0  0  0
  -25.9320  -38.4130   23.9900 H   0  0  0  0  0  0  0  0  0  0  0  0
  -26.3890  -31.8010   24.8930 C   0  0  1  0  0  0  0  0  0  0  0  0
  -25.3780  -31.5170   26.0280 C   0  0  0  0  0  1  0  0  0  0  0  0
  -26.9580  -30.4430   24.4200 C   0  0  0  0  0  1  0  0  0  0  0  0
  -27.5740  -32.5910   25.4960 C   0  0  0  0  0  1  0  0  0  0  0  0
  1  3  1  0
  1  2  2  0
  2  4  1  0
  3  5  1  0
  6  5  1  0
  6  4  1  0
  6 10  1  0
  7  8  1  0
  9 12  1  0
 10  7  2  0
 11 10  1  0
 11  9  2  0
 12  8  2  0
 12 13  1  0
 14 20  1  0
 14 22  1  0
 15 20  1  0
 16 17  1  0
 16 15  1  0
 18 17  1  0
 18 27  1  0
 18 19  1  0
 20 19  1  0
 21 14  2  0
 22 23  1  0
 22 11  1  0
 24 25  2  0
 25 44  1  0
 26 25  1  0
 26 29  1  0
 27 28  1  0
 27 24  1  0
 28 26  2  0
 29 30  1  0
 30 31  2  0
 32 35  1  0
 32 31  1  0
 33 32  2  0
 34 33  1  0
 34 29  2  0
 35 36  1  0
 36 41  2  0
 36 37  1  0
 37 38  2  0
 38 39  1  0
 39 43  1  0
 40 39  2  0
 41 40  1  0
 42 41  1  0
 44 45  1  0
 45 48  1  0
 45 47  1  0
 46 44  2  0
 49 24  1  0
 49 50  1  0
 51 49  1  0
 52  2  1  0
 52 53  1  0
 54 65  2  0
 55 53  1  0
 55 60  1  0
 56 64  1  0
 56 66  1  0
 57 63  1  0
 57 59  1  0
 58 64  1  0
 59 58  1  0
 60 59  2  0
 61 62  1  0
 61 55  2  0
 62 57  2  0
 63 56  1  0
 64 54  1  0
 66 68  2  0
 67 66  1  0
 69 67  1  0
 70 79  2  0
 70 75  1  0
 71 67  1  0
 71 75  1  0
 72 71  1  0
 73 74  1  0
 73 72  1  0
 74 70  1  0
 75 76  2  0
 76 77  1  0
 78 77  2  0
 79 78  1  0
 80 54  1  0
 80 81  1  0
 80 90  1  0
 81 84  1  0
 82 86  1  0
 82 81  1  0
 83 82  2  0
 86 85  1  0
 88 86  1  0
 88 89  1  0
 88 87  1  0
 90 93  1  1
 90 91  1  0
 92 90  1  0
M  ISO  4  14 100  22 100  52 101  53 101
M  END
>  <TORSDO>  (31) 
F 18

>  <SCORE>  (31) 
-12.964

>  <name>  (31) 
30

>  <ligand_id>  (31) 
30

>  <original_smiles>  (31) 
[H]C1=C(C([H])([H])Oc2c([H])c([H])c3c(c2[H])C([H])([H])N(C(=O)C([H])(N([H])C(=O)C([H])(N([H])C([H])([H])[H])C([H])([H])[H])C(C([H])([H])[H])(C([H])([H])[H])C([H])([H])[H])C([H])(C(=O)N([H])C2([H])c4c([H])c([H])c([H])c([H])c4C([H])([H])C([H])([H])C2([H])[H])C3([H])[H])C([H])([H])N(c2c([H])c([H])c(F)c([H])c2N([H])C(=O)N2C([H])([H])C([H])([H])C([H])([H])C([H])(n3nc(-c4c([H])c([H])c(Oc5c([H])c([H])c(F)c([H])c5F)c([H])c4[H])c(C(=O)N([H])[H])c3N([H])[H])C2([H])[H])C([H])([H])C1([H])[H]

>  <smiles>  (31) 
[H]C1=C(C([H])([H])Oc2c([H])c([H])c3c(c2[H])C([H])([H])N(C(=O)C([H])(N([H])C(=O)C([H])(N([H])C([H])([H])[H])C([H])([H])[H])C(C([H])([H])[H])(C([H])([H])[H])C([H])([H])[H])C([H])(C(=O)N([H])C2([H])c4c([H])c([H])c([H])c([H])c4C([H])([H])C([H])([H])C2([H])[H])C3([H])[H])C([H])([H])N(c2c([H])c([H])c(F)c([H])c2N([H])C(=O)N2C([H])([H])C([H])([H])C([H])([H])C([H])(n3nc(-c4c([H])c([H])c(Oc5c([H])c([H])c(F)c([H])c5F)c([H])c4[H])c(C(=O)N([H])[H])c3N([H])[H])C2([H])[H])C([H])([H])C1([H])[H]

$$$$
31:0:0
     RDKit          3D

 97106  0  0  1  0  0  0  0  0999 V2000
  -31.4090  -18.8550   18.6590 C   0  0  0  0  0  3  0  0  0  0  0  0
  -31.0420  -17.5790   19.1120 C   0  0  0  0  0  3  0  0  0  0  0  0
  -29.4310  -18.6240   20.5930 C   0  0  0  0  0  3  0  0  0  0  0  0
  -30.8390  -20.0380   19.1650 C   0  0  0  0  0  0  0  0  0  0  0  0
  -29.7630  -19.9770   20.1100 C   0  0  0  0  0  0  0  0  0  0  0  0
  -30.0850  -17.3890   20.1280 C   0  0  0  0  0  0  0  0  0  0  0  0
  -30.5510  -14.8000   20.3710 C   0  0  0  0  0  0  0  0  0  0  0  0
  -30.3590  -12.5120   19.3860 C   0  0  0  0  0  2  0  0  0  0  0  0
  -29.4430  -12.5700   18.1440 C   0  0  0  0  0  2  0  0  0  0  0  0
  -27.9680  -12.3990   18.5530 C   0  0  0  0  0  2  0  0  0  0  0  0
  -27.5760  -13.2930   19.7590 C   0  0  0  0  0  3  0  0  0  0  0  0
  -28.6160  -13.2240   20.8970 C   0  0  0  0  0  2  0  0  0  0  0  0
  -29.9160  -13.5770   20.3190 N   0  0  0  0  0  0  0  0  0  0  0  0
  -31.7530  -14.8410   20.0950 O   0  0  0  0  0  0  0  0  0  0  0  0
  -29.8000  -15.9740   20.5560 N   0  0  0  0  0  0  0  0  0  0  0  0
  -28.8740  -15.8170   20.9220 H   0  0  0  0  0  0  0  0  0  0  0  0
  -25.1810  -13.8880   20.4460 C   0  0  0  0  0  0  0  0  0  0  0  0
  -24.1110  -13.1170   20.8100 C   0  0  0  0  0  0  0  0  0  0  0  0
  -24.5770  -11.7660   20.8060 C   0  0  0  0  0  0  0  0  0  0  0  0
  -26.2270  -13.0070   20.2340 N   0  0  0  0  0  0  0  0  0  0  0  0
  -25.8720  -11.7270   20.5160 N   0  0  0  0  0  0  0  0  0  0  0  0
  -23.8490  -10.5050   21.0010 C   0  0  0  0  0  0  0  0  0  0  0  0
  -24.2680   -9.5490   21.9530 C   0  0  0  0  0  3  0  0  0  0  0  0
  -23.5380   -8.3550   22.1360 C   0  0  0  0  0  3  0  0  0  0  0  0
  -22.3760   -8.1080   21.3660 C   0  0  0  0  0  0  0  0  0  0  0  0
  -21.9770   -9.0520   20.4040 C   0  0  0  0  0  3  0  0  0  0  0  0
  -22.7080  -10.2380   20.2190 C   0  0  0  0  0  3  0  0  0  0  0  0
  -21.6200   -6.9630   21.4570 O   0  0  0  0  0  0  0  0  0  0  0  0
  -21.5560   -6.2330   22.6150 C   0  0  0  0  0  0  0  0  0  0  0  0
  -21.1190   -6.8010   23.8320 C   0  0  0  0  0  3  0  0  0  0  0  0
  -21.0030   -5.9960   24.9830 C   0  0  0  0  0  3  0  0  0  0  0  0
  -21.3140   -4.6240   24.9190 C   0  0  0  0  0  0  0  0  0  0  0  0
  -21.7460   -4.0570   23.7080 C   0  0  0  0  0  3  0  0  0  0  0  0
  -21.8630   -4.8580   22.5590 C   0  0  0  0  0  0  0  0  0  0  0  0
  -22.2580   -4.3000   21.3890 F   0  0  0  0  0  0  0  0  0  0  0  0
  -21.1960   -3.8500   26.0240 F   0  0  0  0  0  0  0  0  0  0  0  0
  -22.7090  -13.5960   21.0500 C   0  0  0  0  0  0  0  0  0  0  0  0
  -21.9660  -12.9090   21.9120 N   0  0  0  0  0  0  0  0  0  0  0  0
  -22.2810  -14.6140   20.5100 O   0  0  0  0  0  0  0  0  0  0  0  0
  -22.3250  -12.0850   22.3690 H   0  0  0  0  0  0  0  0  0  0  0  0
  -21.0250  -13.2140   22.1150 H   0  0  0  0  0  0  0  0  0  0  0  0
  -25.3450  -15.2560   20.2540 N   0  0  0  0  0  0  0  0  0  0  0  0
  -24.5720  -15.9070   20.3470 H   0  0  0  0  0  0  0  0  0  0  0  0
  -26.1900  -15.6940   19.9090 H   0  0  0  0  0  0  0  0  0  0  0  0
  -28.5430  -22.2740   19.8110 C   0  0  0  0  0  0  0  0  0  0  0  0
  -29.2010  -23.3620   21.7860 C   0  0  0  0  0  2  0  0  0  0  0  0
  -29.3070  -21.8090   21.9060 C   0  0  0  0  0  2  0  0  0  0  0  0
  -28.2950  -23.6410   20.5760 C   0  0  0  0  0  3  0  0  0  0  0  0
  -29.1240  -21.2640   20.5600 N   0  0  0  0  0  0  0  0  0  0  0  0
  -28.2060  -22.1430   18.6310 O   0  0  0  0  0  0  0  0  0  0  0  0
  -28.4870  -25.0500   19.7760 C   0  0  0  0  0  2  0  0  0  0  0  0
  -28.3590  -26.4330   20.3550 O   0  0  0  0  0  0  0  0  0  0  0  0
  -24.6130  -31.8890   23.2500 C   0  0  0  0  0  0  0  0  0  0  0  0
  -27.2300  -27.2760   20.2430 C   0  0  0  0  0  0  0  0  0  0  0  0
  -23.4110  -30.4720   21.6220 C   0  0  0  0  0  3  0  0  0  0  0  0
  -24.8670  -28.9090   20.2000 C   0  0  0  0  0  0  0  0  0  0  0  0
  -25.9460  -30.7960   21.4240 C   0  0  0  0  0  2  0  0  0  0  0  0
  -26.0310  -29.4020   20.7980 C   0  0  0  0  0  0  0  0  0  0  0  0
  -27.2120  -28.5960   20.8120 C   0  0  0  0  0  3  0  0  0  0  0  0
  -26.0400  -26.8440   19.6180 C   0  0  0  0  0  3  0  0  0  0  0  0
  -24.8760  -27.6400   19.5980 C   0  0  0  0  0  3  0  0  0  0  0  0
  -23.6260  -29.7800   20.2470 C   0  0  0  0  0  2  0  0  0  0  0  0
  -24.6780  -31.0710   22.1560 N   0  0  0  0  0  0  0  0  0  0  0  0
  -23.5280  -32.1690   23.7820 O   0  0  0  0  0  0  0  0  0  0  0  0
  -22.7520  -29.4640   22.5930 C   0  0  0  0  0  0  0  0  0  0  0  0
  -21.4260  -29.2850   22.4700 N   0  0  0  0  0  0  0  0  0  0  0  0
  -23.4330  -28.8450   23.4160 O   0  0  0  0  0  0  0  0  0  0  0  0
  -20.9380  -29.8420   21.7830 H   0  0  0  0  0  0  0  0  0  0  0  0
  -18.0500  -28.0780   22.9650 C   0  0  0  0  0  0  0  0  0  0  0  0
  -20.6060  -28.3480   23.2410 C   0  0  0  0  0  3  0  0  0  0  0  0
  -20.7150  -26.9140   22.6730 C   0  0  0  0  0  2  0  0  0  0  0  0
  -19.6170  -26.5810   21.6590 C   0  0  0  0  0  2  0  0  0  0  0  0
  -18.2330  -26.7250   22.2980 C   0  0  0  0  0  2  0  0  0  0  0  0
  -19.1650  -28.8460   23.3920 C   0  0  0  0  0  0  0  0  0  0  0  0
  -18.9400  -30.1120   23.9760 C   0  0  0  0  0  3  0  0  0  0  0  0
  -17.6330  -30.6100   24.1360 C   0  0  0  0  0  3  0  0  0  0  0  0
  -16.5330  -29.8390   23.7230 C   0  0  0  0  0  3  0  0  0  0  0  0
  -16.7420  -28.5740   23.1460 C   0  0  0  0  0  3  0  0  0  0  0  0
  -25.8930  -32.5280   23.8730 C   0  0  0  0  0  3  0  0  0  0  0  0
  -26.4050  -31.7670   25.1570 C   0  0  1  0  0  0  0  0  0  0  0  0
  -25.3070  -31.5430   26.2260 C   0  0  0  0  0  1  0  0  0  0  0  0
  -26.9840  -30.3860   24.7730 C   0  0  0  0  0  1  0  0  0  0  0  0
  -27.5560  -32.5660   25.8160 C   0  0  0  0  0  1  0  0  0  0  0  0
  -25.5800  -33.9280   24.1940 N   0  0  0  0  0  0  0  0  0  0  0  0
  -25.9160  -34.9780   23.4320 C   0  0  0  0  0  0  0  0  0  0  0  0
  -26.5870  -34.8680   22.4030 O   0  0  0  0  0  0  0  0  0  0  0  0
  -24.9780  -34.0860   24.9890 H   0  0  0  0  0  0  0  0  0  0  0  0
  -24.1850  -36.7680   23.0690 C   0  0  0  0  0  1  0  0  0  0  0  0
  -25.4290  -36.3690   23.8810 C   0  0  0  0  0  3  0  0  0  0  0  0
  -27.5670  -37.2570   24.7000 C   0  0  0  0  0  1  0  0  0  0  0  0
  -26.4620  -37.4220   23.7600 N   0  0  0  0  0  0  0  0  0  0  0  0
  -26.0570  -38.3440   23.9040 H   0  0  0  0  0  0  0  0  0  0  0  0
  -31.4560  -21.3190   18.6670 C   0  0  0  0  0  0  0  0  0  0  0  0
  -31.9720  -22.1180   19.5920 N   0  0  0  0  0  0  0  0  0  0  0  0
  -31.5510  -21.5660   17.4670 O   0  0  0  0  0  0  0  0  0  0  0  0
  -31.9530  -21.8390   20.5610 H   0  0  0  0  0  0  0  0  0  0  0  0
  -32.4640  -22.9560   19.3190 H   0  0  0  0  0  0  0  0  0  0  0  0
  1  2  2  0
  1  4  1  0
  2  6  1  0
  4  5  2  0
  5 49  1  0
  5  3  1  0
  6 15  1  0
  6  3  2  0
  7 15  1  0
  8 13  1  0
  9 10  1  0
  9  8  1  0
 11 10  1  0
 11 20  1  0
 11 12  1  0
 13  7  1  0
 13 12  1  0
 14  7  2  0
 15 16  1  0
 17 18  2  0
 18 37  1  0
 19 18  1  0
 19 22  1  0
 20 17  1  0
 20 21  1  0
 21 19  2  0
 22 23  1  0
 23 24  2  0
 25 28  1  0
 25 24  1  0
 26 25  2  0
 27 26  1  0
 27 22  2  0
 28 29  1  0
 29 30  1  0
 30 31  2  0
 32 31  1  0
 32 36  1  0
 33 32  2  0
 34 29  2  0
 34 33  1  0
 35 34  1  0
 37 38  1  0
 38 41  1  0
 38 40  1  0
 39 37  2  0
 42 43  1  0
 42 17  1  0
 44 42  1  0
 45 49  1  0
 45 48  1  0
 46 47  1  0
 48 51  1  0
 48 46  1  0
 49 47  1  0
 50 45  2  0
 51 52  1  0
 53 64  2  0
 54 52  1  0
 54 59  1  0
 55 63  1  0
 55 65  1  0
 56 62  1  0
 56 58  1  0
 57 63  1  0
 58 59  2  0
 58 57  1  0
 60 54  2  0
 61 60  1  0
 61 56  2  0
 62 55  1  0
 63 53  1  0
 65 67  2  0
 66 65  1  0
 68 66  1  0
 69 78  2  0
 69 74  1  0
 70 66  1  0
 70 74  1  0
 71 70  1  0
 72 73  1  0
 72 71  1  0
 73 69  1  0
 74 75  2  0
 75 76  1  0
 77 76  2  0
 78 77  1  0
 79 53  1  0
 79 84  1  0
 79 80  1  0
 80 83  1  1
 80 81  1  0
 82 80  1  0
 84 87  1  0
 85 89  1  0
 85 84  1  0
 86 85  2  0
 89 88  1  0
 91 89  1  0
 91 92  1  0
 91 90  1  0
 93  4  1  0
 93 94  1  0
 94 96  1  0
 95 93  2  0
 97 94  1  0
M  ISO  4   7 100  15 100  51 101  52 101
M  END
>  <TORSDO>  (32) 
F 19

>  <SCORE>  (32) 
-14.467

>  <name>  (32) 
31

>  <ligand_id>  (32) 
31

>  <original_smiles>  (32) 
[H]c1c([H])c([H])c2c(c1[H])C([H])([H])C([H])([H])C([H])([H])C2([H])N([H])C(=O)C1([H])N(C(=O)C([H])(N([H])C(=O)C([H])(N([H])C([H])([H])[H])C([H])([H])[H])C(C([H])([H])[H])(C([H])([H])[H])C([H])([H])[H])C([H])([H])c2c([H])c(OC([H])([H])C3([H])C(=O)N(c4c([H])c(N([H])C(=O)N5C([H])([H])C([H])([H])C([H])([H])C([H])(n6nc(-c7c([H])c([H])c(Oc8c([H])c([H])c(F)c([H])c8F)c([H])c7[H])c(C(=O)N([H])[H])c6N([H])[H])C5([H])[H])c([H])c([H])c4C(=O)N([H])[H])C([H])([H])C3([H])[H])c([H])c([H])c2C1([H])[H]

>  <smiles>  (32) 
[H]c1c([H])c([H])c2c(c1[H])C([H])([H])C([H])([H])C([H])([H])C2([H])N([H])C(=O)C1([H])N(C(=O)C([H])(N([H])C(=O)C([H])(N([H])C([H])([H])[H])C([H])([H])[H])C(C([H])([H])[H])(C([H])([H])[H])C([H])([H])[H])C([H])([H])c2c([H])c(OC([H])([H])C3([H])C(=O)N(c4c([H])c(N([H])C(=O)N5C([H])([H])C([H])([H])C([H])([H])C([H])(n6nc(-c7c([H])c([H])c(Oc8c([H])c([H])c(F)c([H])c8F)c([H])c7[H])c(C(=O)N([H])[H])c6N([H])[H])C5([H])[H])c([H])c([H])c4C(=O)N([H])[H])C([H])([H])C3([H])[H])c([H])c([H])c2C1([H])[H]

$$$$
32:0:0
     RDKit          3D

 96104  0  0  1  0  0  0  0  0999 V2000
  -29.2540  -23.4390   20.7040 C   0  0  0  0  0  0  0  0  0  0  0  0
  -30.7470  -21.3720   20.2980 C   0  0  0  0  0  0  0  0  0  0  0  0
  -29.5960  -22.0070   20.5760 N   0  0  0  0  0  4  0  0  0  0  0  0
  -31.7870  -21.9510   19.9770 O   0  0  0  0  0  0  0  0  0  0  0  0
  -28.8270  -21.4110   20.8760 H   0  0  0  0  0  0  0  0  0  0  0  0
  -30.9980  -19.0620   19.2320 C   0  0  0  0  0  3  0  0  0  0  0  0
  -30.3800  -19.1970   21.5740 C   0  0  0  0  0  3  0  0  0  0  0  0
  -30.8720  -17.6510   19.2810 C   0  0  0  0  0  3  0  0  0  0  0  0
  -30.2460  -17.7910   21.6220 C   0  0  0  0  0  3  0  0  0  0  0  0
  -30.6940  -19.8600   20.3630 C   0  0  0  0  0  0  0  0  0  0  0  0
  -30.4650  -16.9950   20.4780 C   0  0  0  0  0  0  0  0  0  0  0  0
  -30.8070  -14.5480   20.0100 C   0  0  0  0  0  0  0  0  0  0  0  0
  -30.4250  -12.3560   18.9330 C   0  0  0  0  0  2  0  0  0  0  0  0
  -29.4170  -12.5300   17.7810 C   0  0  0  0  0  2  0  0  0  0  0  0
  -27.9760  -12.3950   18.3050 C   0  0  0  0  0  2  0  0  0  0  0  0
  -27.7000  -13.2690   19.5580 C   0  0  0  0  0  3  0  0  0  0  0  0
  -28.8220  -13.1050   20.6110 C   0  0  0  0  0  2  0  0  0  0  0  0
  -30.1140  -13.3740   19.9530 N   0  0  0  0  0  0  0  0  0  0  0  0
  -31.9190  -14.6910   19.4960 O   0  0  0  0  0  0  0  0  0  0  0  0
  -30.1560  -15.5950   20.5540 N   0  0  0  0  0  0  0  0  0  0  0  0
  -29.2870  -15.3500   21.0080 H   0  0  0  0  0  0  0  0  0  0  0  0
  -25.3560  -13.8710   20.4470 C   0  0  0  0  0  0  0  0  0  0  0  0
  -24.3020  -13.0890   20.8550 C   0  0  0  0  0  0  0  0  0  0  0  0
  -24.7500  -11.7370   20.7530 C   0  0  0  0  0  0  0  0  0  0  0  0
  -26.3750  -12.9880   20.1200 N   0  0  0  0  0  0  0  0  0  0  0  0
  -26.0200  -11.7010   20.3700 N   0  0  0  0  0  0  0  0  0  0  0  0
  -24.0260  -10.4740   20.9540 C   0  0  0  0  0  0  0  0  0  0  0  0
  -24.4600   -9.5180   21.9010 C   0  0  0  0  0  3  0  0  0  0  0  0
  -23.7360   -8.3210   22.0900 C   0  0  0  0  0  3  0  0  0  0  0  0
  -22.5690   -8.0660   21.3320 C   0  0  0  0  0  0  0  0  0  0  0  0
  -22.1550   -9.0120   20.3770 C   0  0  0  0  0  3  0  0  0  0  0  0
  -22.8750  -10.2030   20.1850 C   0  0  0  0  0  3  0  0  0  0  0  0
  -21.8210   -6.9170   21.4230 O   0  0  0  0  0  0  0  0  0  0  0  0
  -21.7010   -6.2300   22.6070 C   0  0  0  0  0  0  0  0  0  0  0  0
  -21.1640   -6.8330   23.7640 C   0  0  0  0  0  3  0  0  0  0  0  0
  -20.9950   -6.0730   24.9390 C   0  0  0  0  0  3  0  0  0  0  0  0
  -21.3550   -4.7120   24.9560 C   0  0  0  0  0  0  0  0  0  0  0  0
  -21.8830   -4.1080   23.8010 C   0  0  0  0  0  3  0  0  0  0  0  0
  -22.0560   -4.8680   22.6290 C   0  0  0  0  0  0  0  0  0  0  0  0
  -22.5460   -4.2760   21.5130 F   0  0  0  0  0  0  0  0  0  0  0  0
  -21.1860   -3.9770   26.0800 F   0  0  0  0  0  0  0  0  0  0  0  0
  -22.9280  -13.5670   21.2200 C   0  0  0  0  0  0  0  0  0  0  0  0
  -22.2430  -12.8470   22.1060 N   0  0  0  0  0  0  0  0  0  0  0  0
  -22.4650  -14.6070   20.7570 O   0  0  0  0  0  0  0  0  0  0  0  0
  -22.6220  -12.0000   22.5010 H   0  0  0  0  0  0  0  0  0  0  0  0
  -21.3250  -13.1530   22.3970 H   0  0  0  0  0  0  0  0  0  0  0  0
  -25.5270  -15.2440   20.3090 N   0  0  0  0  0  0  0  0  0  0  0  0
  -24.7980  -15.9140   20.5210 H   0  0  0  0  0  0  0  0  0  0  0  0
  -26.3740  -15.6870   19.9670 H   0  0  0  0  0  0  0  0  0  0  0  0
  -29.2460  -23.8700   22.1820 C   0  0  0  0  0  0  0  0  0  0  0  0
  -29.7130  -24.9780   22.5240 O   0  0  0  0  0  0  0  0  0  0  0  0
  -28.7450  -23.0770   23.0040 O   0  0  0  0  0  1  0  0  0  0  0  0
  -29.9800  -23.9280   18.1960 C   0  0  0  0  0  1  0  0  0  0  0  0
  -29.6600  -24.5130   19.5950 C   0  0  0  0  0  3  0  0  0  0  0  0
  -28.4930  -25.5290   19.3430 C   0  0  0  0  0  2  0  0  0  0  0  0
  -28.4360  -26.7480   20.0880 O   0  0  0  0  0  0  0  0  0  0  0  0
  -24.5760  -31.8500   23.2110 C   0  0  0  0  0  0  0  0  0  0  0  0
  -27.2430  -27.4600   20.0520 C   0  0  0  0  0  0  0  0  0  0  0  0
  -23.3770  -30.4690   21.5570 C   0  0  0  0  0  3  0  0  0  0  0  0
  -24.8220  -28.9450   20.1140 C   0  0  0  0  0  0  0  0  0  0  0  0
  -25.9100  -30.8150   21.3770 C   0  0  0  0  0  2  0  0  0  0  0  0
  -25.9850  -29.4650   20.6990 C   0  0  0  0  0  0  0  0  0  0  0  0
  -27.1910  -28.7290   20.6680 C   0  0  0  0  0  3  0  0  0  0  0  0
  -26.0580  -26.9830   19.4270 C   0  0  0  0  0  3  0  0  0  0  0  0
  -24.8510  -27.6940   19.4810 C   0  0  0  0  0  3  0  0  0  0  0  0
  -23.5750  -29.7920   20.1750 C   0  0  0  0  0  2  0  0  0  0  0  0
  -24.6380  -31.0640   22.1000 N   0  0  0  0  0  0  0  0  0  0  0  0
  -23.4950  -32.1230   23.7530 O   0  0  0  0  0  0  0  0  0  0  0  0
  -22.7240  -29.4410   22.5090 C   0  0  0  0  0  0  0  0  0  0  0  0
  -21.3970  -29.2900   22.4060 N   0  0  0  0  0  0  0  0  0  0  0  0
  -23.4140  -28.7790   23.2920 O   0  0  0  0  0  0  0  0  0  0  0  0
  -20.9060  -29.9200   21.7890 H   0  0  0  0  0  0  0  0  0  0  0  0
  -18.0190  -28.0830   22.8390 C   0  0  0  0  0  0  0  0  0  0  0  0
  -20.5760  -28.3210   23.1380 C   0  0  0  0  0  3  0  0  0  0  0  0
  -20.6800  -26.9120   22.5070 C   0  0  0  0  0  2  0  0  0  0  0  0
  -19.5870  -26.6470   21.4640 C   0  0  0  0  0  2  0  0  0  0  0  0
  -18.1930  -26.7690   22.0860 C   0  0  0  0  0  2  0  0  0  0  0  0
  -19.1370  -28.8240   23.3010 C   0  0  0  0  0  0  0  0  0  0  0  0
  -18.9210  -30.0760   23.9160 C   0  0  0  0  0  3  0  0  0  0  0  0
  -17.6180  -30.5810   24.0730 C   0  0  0  0  0  3  0  0  0  0  0  0
  -16.5100  -29.8300   23.6420 C   0  0  0  0  0  3  0  0  0  0  0  0
  -16.7120  -28.5810   23.0360 C   0  0  0  0  0  3  0  0  0  0  0  0
  -25.8580  -32.4720   23.8410 C   0  0  0  0  0  3  0  0  0  0  0  0
  -25.5510  -33.8700   24.1780 N   0  0  0  0  0  0  0  0  0  0  0  0
  -25.8960  -34.9300   23.4330 C   0  0  0  0  0  0  0  0  0  0  0  0
  -26.5690  -34.8340   22.4020 O   0  0  0  0  0  0  0  0  0  0  0  0
  -24.9340  -34.0160   24.9640 H   0  0  0  0  0  0  0  0  0  0  0  0
  -24.1760  -36.7330   23.0880 C   0  0  0  0  0  1  0  0  0  0  0  0
  -25.4130  -36.3180   23.9020 C   0  0  0  0  0  3  0  0  0  0  0  0
  -27.5450  -37.1770   24.7580 C   0  0  0  0  0  1  0  0  0  0  0  0
  -26.4520  -37.3640   23.8060 N   0  0  0  0  0  0  0  0  0  0  0  0
  -26.0540  -38.2870   23.9570 H   0  0  0  0  0  0  0  0  0  0  0  0
  -26.3640  -31.6970   25.1160 C   0  0  1  0  0  0  0  0  0  0  0  0
  -25.2670  -31.4590   26.1810 C   0  0  0  0  0  1  0  0  0  0  0  0
  -26.9430  -30.3230   24.7250 C   0  0  0  0  0  1  0  0  0  0  0  0
  -27.5180  -32.4870   25.7820 C   0  0  0  0  0  1  0  0  0  0  0  0
  1 50  1  0
  2 10  1  0
  2  3  1  0
  3  1  2  0
  3  5  1  0
  4  2  2  0
  6  8  2  0
  6 10  1  0
  7  9  1  0
  8 11  1  0
 10  7  2  0
 11 20  1  0
 11  9  2  0
 12 20  1  0
 13 18  1  0
 14 15  1  0
 14 13  1  0
 16 15  1  0
 16 25  1  0
 16 17  1  0
 18 12  1  0
 18 17  1  0
 19 12  2  0
 20 21  1  0
 22 23  2  0
 23 42  1  0
 24 23  1  0
 24 27  1  0
 25 26  1  0
 25 22  1  0
 26 24  2  0
 27 28  1  0
 28 29  2  0
 30 33  1  0
 30 29  1  0
 31 30  2  0
 32 31  1  0
 32 27  2  0
 33 34  1  0
 34 39  2  0
 34 35  1  0
 35 36  2  0
 36 37  1  0
 37 41  1  0
 38 37  2  0
 39 38  1  0
 40 39  1  0
 42 43  1  0
 43 46  1  0
 43 45  1  0
 44 42  2  0
 47 22  1  0
 47 48  1  0
 49 47  1  0
 50 51  2  0
 50 52  1  0
 54 53  1  0
 54  1  1  0
 55 54  1  0
 55 56  1  0
 57 68  2  0
 58 56  1  0
 58 63  1  0
 59 67  1  0
 59 69  1  0
 60 66  1  0
 60 62  1  0
 61 67  1  0
 62 61  1  0
 63 62  2  0
 64 65  1  0
 64 58  2  0
 65 60  2  0
 66 59  1  0
 67 57  1  0
 69 71  2  0
 70 69  1  0
 72 70  1  0
 73 82  2  0
 73 78  1  0
 74 70  1  0
 74 78  1  0
 75 74  1  0
 76 77  1  0
 76 75  1  0
 77 73  1  0
 78 79  2  0
 79 80  1  0
 81 80  2  0
 82 81  1  0
 83 57  1  0
 83 84  1  0
 83 93  1  0
 84 87  1  0
 85 89  1  0
 85 84  1  0
 86 85  2  0
 89 88  1  0
 91 89  1  0
 91 92  1  0
 91 90  1  0
 93 96  1  1
 93 94  1  0
 95 93  1  0
M  ISO  4  12 100  20 100  55 101  56 101
M  END
>  <TORSDO>  (33) 
F 21

>  <SCORE>  (33) 
-13.131

>  <name>  (33) 
32

>  <ligand_id>  (33) 
32

>  <original_smiles>  (33) 
[H]c1c([H])c([H])c2c(c1[H])C([H])([H])C([H])([H])C([H])([H])C2([H])N([H])C(=O)C1([H])N(C(=O)C([H])(N([H])C(=O)C([H])(N([H])C([H])([H])[H])C([H])([H])[H])C(C([H])([H])[H])(C([H])([H])[H])C([H])([H])[H])C([H])([H])c2c([H])c(OC([H])([H])C([H])(C([H])([H])[H])C([H])(C(=O)[O-])N([H])C(=O)c3c([H])c([H])c(N([H])C(=O)N4C([H])([H])C([H])([H])C([H])([H])C([H])(n5nc(-c6c([H])c([H])c(Oc7c([H])c([H])c(F)c([H])c7F)c([H])c6[H])c(C(=O)N([H])[H])c5N([H])[H])C4([H])[H])c([H])c3[H])c([H])c([H])c2C1([H])[H]

>  <smiles>  (33) 
[H]c1c([H])c([H])c2c(c1[H])C([H])([H])C([H])([H])C([H])([H])C2([H])N([H])C(=O)C1([H])N(C(=O)C([H])(N([H])C(=O)C([H])(N([H])C([H])([H])[H])C([H])([H])[H])C(C([H])([H])[H])(C([H])([H])[H])C([H])([H])[H])C([H])([H])c2c([H])c(OC([H])([H])C([H])(C([H])([H])[H])C([H])(C(=O)[O-])N([H])C(=O)c3c([H])c([H])c(N([H])C(=O)N4C([H])([H])C([H])([H])C([H])([H])C([H])(n5nc(-c6c([H])c([H])c(Oc7c([H])c([H])c(F)c([H])c7F)c([H])c6[H])c(C(=O)N([H])[H])c5N([H])[H])C4([H])[H])c([H])c3[H])c([H])c([H])c2C1([H])[H]

$$$$
33:0:0
     RDKit          3D

 95103  0  0  1  0  0  0  0  0999 V2000
  -29.5380  -20.1920   21.5120 N   0  0  0  0  0  0  0  0  0  0  0  0
  -30.4180  -20.0730   22.0090 H   0  0  0  0  0  0  0  0  0  0  0  0
  -27.3850  -17.8490   19.5930 C   0  0  0  0  0  3  0  0  0  0  0  0
  -27.8030  -18.9810   20.3040 C   0  0  0  0  0  3  0  0  0  0  0  0
  -28.1970  -16.7010   19.5040 C   0  0  0  0  0  0  0  0  0  0  0  0
  -29.0470  -18.9860   20.9600 C   0  0  0  0  0  0  0  0  0  0  0  0
  -29.4040  -16.6080   20.2690 C   0  0  0  0  0  0  0  0  0  0  0  0
  -29.8140  -17.7760   20.9920 C   0  0  0  0  0  0  0  0  0  0  0  0
  -27.7570  -15.6690   18.4740 C   0  0  0  0  0  1  0  0  0  0  0  0
  -31.0020  -17.7740   21.6450 F   0  0  0  0  0  0  0  0  0  0  0  0
  -30.7780  -14.5800   20.9780 C   0  0  0  0  0  0  0  0  0  0  0  0
  -30.5900  -12.2900   20.1330 C   0  0  0  0  0  2  0  0  0  0  0  0
  -29.7550  -12.3420   18.8360 C   0  0  0  0  0  2  0  0  0  0  0  0
  -28.2470  -12.2490   19.1560 C   0  0  0  0  0  2  0  0  0  0  0  0
  -27.7940  -13.1700   20.3270 C   0  0  0  0  0  3  0  0  0  0  0  0
  -28.7720  -13.1220   21.5160 C   0  0  0  0  0  2  0  0  0  0  0  0
  -30.1090  -13.3930   20.9760 N   0  0  0  0  0  0  0  0  0  0  0  0
  -31.9930  -14.6030   21.1840 O   0  0  0  0  0  0  0  0  0  0  0  0
  -31.2280  -15.7530   18.9340 C   0  0  0  0  0  1  0  0  0  0  0  0
  -30.3050  -15.4900   20.0560 N   0  0  0  0  0  0  0  0  0  0  0  0
  -25.3730  -13.8210   20.8730 C   0  0  0  0  0  0  0  0  0  0  0  0
  -24.2620  -13.0680   21.1370 C   0  0  0  0  0  0  0  0  0  0  0  0
  -24.6990  -11.7070   21.1260 C   0  0  0  0  0  0  0  0  0  0  0  0
  -26.4130  -12.9180   20.7130 N   0  0  0  0  0  0  0  0  0  0  0  0
  -26.0080  -11.6420   20.9280 N   0  0  0  0  0  0  0  0  0  0  0  0
  -23.9370  -10.4580   21.2360 C   0  0  0  0  0  0  0  0  0  0  0  0
  -24.3050   -9.4480   22.1540 C   0  0  0  0  0  3  0  0  0  0  0  0
  -23.5450   -8.2630   22.2520 C   0  0  0  0  0  3  0  0  0  0  0  0
  -22.4060   -8.0780   21.4340 C   0  0  0  0  0  0  0  0  0  0  0  0
  -22.0600   -9.0750   20.5060 C   0  0  0  0  0  3  0  0  0  0  0  0
  -22.8190  -10.2520   20.4030 C   0  0  0  0  0  3  0  0  0  0  0  0
  -21.6240   -6.9490   21.4470 O   0  0  0  0  0  0  0  0  0  0  0  0
  -21.5330   -6.1490   22.5580 C   0  0  0  0  0  0  0  0  0  0  0  0
  -21.0660   -6.6420   23.7970 C   0  0  0  0  0  3  0  0  0  0  0  0
  -20.9220   -5.7690   24.8920 C   0  0  0  0  0  3  0  0  0  0  0  0
  -21.2380   -4.4040   24.7520 C   0  0  0  0  0  0  0  0  0  0  0  0
  -21.7010   -3.9110   23.5200 C   0  0  0  0  0  3  0  0  0  0  0  0
  -21.8450   -4.7820   22.4250 C   0  0  0  0  0  0  0  0  0  0  0  0
  -22.2720   -4.2970   21.2340 F   0  0  0  0  0  0  0  0  0  0  0  0
  -21.0930   -3.5630   25.8030 F   0  0  0  0  0  0  0  0  0  0  0  0
  -22.8590  -13.5710   21.2990 C   0  0  0  0  0  0  0  0  0  0  0  0
  -22.0510  -12.8790   22.0980 N   0  0  0  0  0  0  0  0  0  0  0  0
  -22.4820  -14.6090   20.7590 O   0  0  0  0  0  0  0  0  0  0  0  0
  -22.3660  -12.0370   22.5590 H   0  0  0  0  0  0  0  0  0  0  0  0
  -21.1070  -13.1980   22.2550 H   0  0  0  0  0  0  0  0  0  0  0  0
  -25.5800  -15.1890   20.7330 N   0  0  0  0  0  0  0  0  0  0  0  0
  -24.8220  -15.8590   20.7920 H   0  0  0  0  0  0  0  0  0  0  0  0
  -26.4690  -15.6180   20.5100 H   0  0  0  0  0  0  0  0  0  0  0  0
  -29.3160  -22.2940   23.1230 O   0  0  0  0  0  0  0  0  0  0  0  0
  -28.5620  -21.6880   21.9350 S   0  0  0  0  0  0  0  0  0  0  0  0
  -28.8560  -22.8040   20.4480 C   0  0  0  0  0  2  0  0  0  0  0  0
  -28.1940  -24.2160   20.5560 C   0  0  0  0  0  0  0  0  0  0  0  0
  -27.4580  -24.5180   21.5030 O   0  0  0  0  0  0  0  0  0  0  0  0
  -28.4590  -25.2380   19.4110 C   0  0  0  0  0  2  0  0  0  0  0  0
  -28.4160  -26.6410   19.8140 O   0  0  0  0  0  0  0  0  0  0  0  0
  -24.6340  -31.7580   23.0480 C   0  0  0  0  0  0  0  0  0  0  0  0
  -27.2390  -27.3800   19.7970 C   0  0  0  0  0  0  0  0  0  0  0  0
  -23.4120  -30.4140   21.3740 C   0  0  0  0  0  3  0  0  0  0  0  0
  -24.8510  -28.9260   19.8760 C   0  0  0  0  0  0  0  0  0  0  0  0
  -25.9420  -30.7680   21.1630 C   0  0  0  0  0  2  0  0  0  0  0  0
  -26.0180  -29.4180   20.4740 C   0  0  0  0  0  0  0  0  0  0  0  0
  -27.2120  -28.6540   20.4260 C   0  0  0  0  0  3  0  0  0  0  0  0
  -26.0490  -26.9180   19.1900 C   0  0  0  0  0  3  0  0  0  0  0  0
  -24.8650  -27.6790   19.2310 C   0  0  0  0  0  3  0  0  0  0  0  0
  -23.6090  -29.7890   19.9660 C   0  0  0  0  0  2  0  0  0  0  0  0
  -24.6830  -30.9950   21.9190 N   0  0  0  0  0  0  0  0  0  0  0  0
  -23.5580  -32.0100   23.6110 O   0  0  0  0  0  0  0  0  0  0  0  0
  -22.7750  -29.3550   22.3050 C   0  0  0  0  0  0  0  0  0  0  0  0
  -21.4440  -29.1950   22.2120 N   0  0  0  0  0  0  0  0  0  0  0  0
  -23.4740  -28.6830   23.0680 O   0  0  0  0  0  0  0  0  0  0  0  0
  -20.9390  -29.7910   21.5710 H   0  0  0  0  0  0  0  0  0  0  0  0
  -18.0660  -28.0470   22.7950 C   0  0  0  0  0  0  0  0  0  0  0  0
  -20.6410  -28.2310   22.9650 C   0  0  0  0  0  3  0  0  0  0  0  0
  -20.6810  -26.8340   22.3050 C   0  0  0  0  0  2  0  0  0  0  0  0
  -19.5280  -26.5960   21.3240 C   0  0  0  0  0  2  0  0  0  0  0  0
  -18.1800  -26.7350   22.0360 C   0  0  0  0  0  2  0  0  0  0  0  0
  -19.2220  -28.7570   23.2180 C   0  0  0  0  0  0  0  0  0  0  0  0
  -19.0610  -29.9890   23.8890 C   0  0  0  0  0  3  0  0  0  0  0  0
  -17.7780  -30.5090   24.1400 C   0  0  0  0  0  3  0  0  0  0  0  0
  -16.6380  -29.7950   23.7340 C   0  0  0  0  0  3  0  0  0  0  0  0
  -16.7840  -28.5660   23.0670 C   0  0  0  0  0  3  0  0  0  0  0  0
  -25.9240  -32.3720   23.6740 C   0  0  0  0  0  3  0  0  0  0  0  0
  -25.6100  -33.7520   24.0720 N   0  0  0  0  0  0  0  0  0  0  0  0
  -25.9300  -34.8400   23.3600 C   0  0  0  0  0  0  0  0  0  0  0  0
  -26.5910  -34.7900   22.3190 O   0  0  0  0  0  0  0  0  0  0  0  0
  -25.0200  -33.8650   24.8830 H   0  0  0  0  0  0  0  0  0  0  0  0
  -24.1930  -36.6400   23.0970 C   0  0  0  0  0  1  0  0  0  0  0  0
  -25.4370  -36.2030   23.8850 C   0  0  0  0  0  3  0  0  0  0  0  0
  -27.5680  -37.0590   24.7560 C   0  0  0  0  0  1  0  0  0  0  0  0
  -26.4650  -37.2640   23.8200 N   0  0  0  0  0  0  0  0  0  0  0  0
  -26.0550  -38.1750   24.0090 H   0  0  0  0  0  0  0  0  0  0  0  0
  -26.4740  -31.5490   24.9030 C   0  0  1  0  0  0  0  0  0  0  0  0
  -25.4070  -31.2590   25.9860 C   0  0  0  0  0  1  0  0  0  0  0  0
  -27.0490  -30.1910   24.4370 C   0  0  0  0  0  1  0  0  0  0  0  0
  -27.6410  -32.3160   25.5690 C   0  0  0  0  0  1  0  0  0  0  0  0
  1 50  1  0
  1  2  1  0
  3  4  1  0
  4  6  2  0
  5  3  2  0
  5  7  1  0
  6  8  1  0
  6  1  1  0
  7  8  2  0
  8 10  1  0
  9  5  1  0
 11 18  2  0
 12 17  1  0
 13 14  1  0
 13 12  1  0
 15 14  1  0
 15 24  1  0
 15 16  1  0
 17 11  1  0
 17 16  1  0
 19 20  1  0
 20  7  1  0
 20 11  1  0
 21 22  2  0
 22 41  1  0
 23 22  1  0
 23 26  1  0
 24 21  1  0
 24 25  1  0
 25 23  2  0
 26 27  1  0
 27 28  2  0
 29 32  1  0
 29 28  1  0
 30 29  2  0
 31 30  1  0
 31 26  2  0
 32 33  1  0
 33 34  1  0
 34 35  2  0
 36 35  1  0
 36 40  1  0
 37 36  2  0
 38 33  2  0
 38 37  1  0
 39 38  1  0
 41 42  1  0
 42 45  1  0
 42 44  1  0
 43 41  2  0
 46 47  1  0
 46 21  1  0
 48 46  1  0
 50 49  2  0
 51 52  1  0
 51 50  1  0
 52 53  2  0
 54 55  1  0
 54 52  1  0
 56 67  2  0
 57 55  1  0
 57 62  1  0
 58 66  1  0
 58 68  1  0
 59 65  1  0
 59 61  1  0
 60 66  1  0
 61 60  1  0
 62 61  2  0
 63 64  1  0
 63 57  2  0
 64 59  2  0
 65 58  1  0
 66 56  1  0
 68 70  2  0
 69 68  1  0
 71 69  1  0
 72 81  2  0
 72 77  1  0
 73 69  1  0
 73 77  1  0
 74 73  1  0
 75 76  1  0
 75 74  1  0
 76 72  1  0
 77 78  2  0
 78 79  1  0
 80 79  2  0
 81 80  1  0
 82 56  1  0
 82 83  1  0
 82 92  1  0
 83 86  1  0
 84 88  1  0
 84 83  1  0
 85 84  2  0
 88 87  1  0
 90 88  1  0
 90 91  1  0
 90 89  1  0
 92 95  1  1
 92 93  1  0
 94 92  1  0
M  ISO  4  11 100  20 100  54 101  55 101
M  END
>  <TORSDO>  (34) 
F 21

>  <SCORE>  (34) 
-12.462

>  <name>  (34) 
33

>  <ligand_id>  (34) 
33

>  <original_smiles>  (34) 
[H]c1c([H])c([H])c2c(c1[H])C([H])([H])C([H])([H])C([H])([H])C2([H])N([H])C(=O)C1([H])N(C(=O)C([H])(N([H])C(=O)C([H])(N([H])C([H])([H])[H])C([H])([H])[H])C(C([H])([H])[H])(C([H])([H])[H])C([H])([H])[H])C([H])([H])c2c([H])c(OC([H])([H])C(=O)C([H])([H])S(=O)N([H])c3c([H])c([H])c(C([H])([H])[H])c(N(C(=O)N4C([H])([H])C([H])([H])C([H])([H])C([H])(n5nc(-c6c([H])c([H])c(Oc7c([H])c([H])c(F)c([H])c7F)c([H])c6[H])c(C(=O)N([H])[H])c5N([H])[H])C4([H])[H])C([H])([H])[H])c3F)c([H])c([H])c2C1([H])[H]

>  <smiles>  (34) 
[H]c1c([H])c([H])c2c(c1[H])C([H])([H])C([H])([H])C([H])([H])C2([H])N([H])C(=O)C1([H])N(C(=O)C([H])(N([H])C(=O)C([H])(N([H])C([H])([H])[H])C([H])([H])[H])C(C([H])([H])[H])(C([H])([H])[H])C([H])([H])[H])C([H])([H])c2c([H])c(OC([H])([H])C(=O)C([H])([H])S(=O)N([H])c3c([H])c([H])c(C([H])([H])[H])c(N(C(=O)N4C([H])([H])C([H])([H])C([H])([H])C([H])(n5nc(-c6c([H])c([H])c(Oc7c([H])c([H])c(F)c([H])c7F)c([H])c6[H])c(C(=O)N([H])[H])c5N([H])[H])C4([H])[H])C([H])([H])[H])c3F)c([H])c([H])c2C1([H])[H]

$$$$
34:0:0
     RDKit          3D

 85 91  0  0  1  0  0  0  0  0999 V2000
  -28.6860  -22.2760   20.2440 C   0  0  0  0  0  3  0  0  0  0  0  0
  -27.9810  -23.7160   20.1960 C   0  0  0  0  0  3  0  0  0  0  0  0
  -28.6030  -20.4840   20.2800 C   0  0  0  0  0  0  0  0  0  0  0  0
  -29.5660  -19.2180   20.1960 N   0  0  0  0  0  2  0  0  0  0  0  0
  -27.4660  -20.0220   20.4480 O   0  0  0  0  0  0  0  0  0  0  0  0
  -30.5480  -19.4350   20.0770 H   0  0  0  0  0  0  0  0  0  0  0  0
  -30.2360  -15.9340   20.1300 C   0  0  0  0  0  0  0  0  0  0  0  0
  -30.4120  -13.3470   19.3000 C   0  0  0  0  0  2  0  0  0  0  0  0
  -29.5200  -12.8520   18.1190 C   0  0  0  0  0  2  0  0  0  0  0  0
  -28.1240  -12.4400   18.6070 C   0  0  0  0  0  2  0  0  0  0  0  0
  -27.5990  -13.4370   19.6620 C   0  0  0  0  0  3  0  0  0  0  0  0
  -28.6380  -13.8230   20.7470 C   0  0  0  0  0  2  0  0  0  0  0  0
  -29.7580  -14.5250   20.0610 N   0  0  0  0  0  0  0  0  0  0  0  0
  -31.4700  -15.8700   19.9350 O   0  0  0  0  0  0  0  0  0  0  0  0
  -29.4250  -17.3130   20.2400 N   0  0  0  0  0  2  0  0  0  0  0  0
  -28.4370  -17.1420   20.3600 H   0  0  0  0  0  0  0  0  0  0  0  0
  -25.2560  -13.9170   20.4980 C   0  0  0  0  0  0  0  0  0  0  0  0
  -24.2140  -13.1190   20.8740 C   0  0  0  0  0  0  0  0  0  0  0  0
  -24.6980  -11.7760   20.8050 C   0  0  0  0  0  0  0  0  0  0  0  0
  -26.3040  -13.0640   20.2120 N   0  0  0  0  0  0  0  0  0  0  0  0
  -25.9850  -11.7650   20.4630 N   0  0  0  0  0  0  0  0  0  0  0  0
  -23.9860  -10.5030   20.9870 C   0  0  0  0  0  0  0  0  0  0  0  0
  -24.4190   -9.5370   21.9220 C   0  0  0  0  0  3  0  0  0  0  0  0
  -23.7010   -8.3340   22.0940 C   0  0  0  0  0  3  0  0  0  0  0  0
  -22.5340   -8.0870   21.3330 C   0  0  0  0  0  0  0  0  0  0  0  0
  -22.1180   -9.0420   20.3890 C   0  0  0  0  0  3  0  0  0  0  0  0
  -22.8370  -10.2360   20.2140 C   0  0  0  0  0  3  0  0  0  0  0  0
  -21.7870   -6.9360   21.4160 O   0  0  0  0  0  0  0  0  0  0  0  0
  -21.7040   -6.2130   22.5790 C   0  0  0  0  0  0  0  0  0  0  0  0
  -21.1980   -6.7760   23.7710 C   0  0  0  0  0  3  0  0  0  0  0  0
  -21.0650   -5.9780   24.9250 C   0  0  0  0  0  3  0  0  0  0  0  0
  -21.4270   -4.6190   24.8870 C   0  0  0  0  0  0  0  0  0  0  0  0
  -21.9270   -4.0550   23.7000 C   0  0  0  0  0  3  0  0  0  0  0  0
  -22.0610   -4.8500   22.5480 C   0  0  0  0  0  0  0  0  0  0  0  0
  -22.5220   -4.2960   21.4010 F   0  0  0  0  0  0  0  0  0  0  0  0
  -21.2940   -3.8500   25.9930 F   0  0  0  0  0  0  0  0  0  0  0  0
  -22.8180  -13.5770   21.1760 C   0  0  0  0  0  0  0  0  0  0  0  0
  -22.1170  -12.8680   22.0520 N   0  0  0  0  0  0  0  0  0  0  0  0
  -22.3600  -14.6010   20.6700 O   0  0  0  0  0  0  0  0  0  0  0  0
  -22.5020  -12.0410   22.4830 H   0  0  0  0  0  0  0  0  0  0  0  0
  -21.1800  -13.1580   22.2980 H   0  0  0  0  0  0  0  0  0  0  0  0
  -25.3940  -15.2930   20.3390 N   0  0  0  0  0  0  0  0  0  0  0  0
  -24.6170  -15.9300   20.4720 H   0  0  0  0  0  0  0  0  0  0  0  0
  -26.2150  -15.7440   19.9600 H   0  0  0  0  0  0  0  0  0  0  0  0
  -28.1850  -25.3670   20.2850 O   0  0  0  0  0  0  0  0  0  0  0  0
  -24.7180  -31.8710   23.1880 C   0  0  0  0  0  0  0  0  0  0  0  0
  -27.2330  -26.6500   20.2490 C   0  0  0  0  0  0  0  0  0  0  0  0
  -23.5360  -30.4640   21.5570 C   0  0  0  0  0  3  0  0  0  0  0  0
  -24.9850  -28.7790   20.1670 C   0  0  0  0  0  0  0  0  0  0  0  0
  -26.1220  -30.5580   21.4610 C   0  0  0  0  0  2  0  0  0  0  0  0
  -26.1800  -29.1050   20.8160 C   0  0  0  0  0  0  0  0  0  0  0  0
  -27.2800  -28.0720   20.8240 C   0  0  0  0  0  3  0  0  0  0  0  0
  -26.0050  -26.5750   19.5320 C   0  0  0  0  0  3  0  0  0  0  0  0
  -24.9440  -27.5400   19.5000 C   0  0  0  0  0  3  0  0  0  0  0  0
  -23.7860  -29.7490   20.1960 C   0  0  0  0  0  2  0  0  0  0  0  0
  -24.8170  -31.0010   22.1200 N   0  0  0  0  0  0  0  0  0  0  0  0
  -23.6220  -32.1830   23.6860 O   0  0  0  0  0  0  0  0  0  0  0  0
  -22.8020  -29.5060   22.5350 C   0  0  0  0  0  0  0  0  0  0  0  0
  -21.4670  -29.3640   22.4100 N   0  0  0  0  0  0  0  0  0  0  0  0
  -23.4470  -28.8860   23.3830 O   0  0  0  0  0  0  0  0  0  0  0  0
  -20.9930  -29.9140   21.7060 H   0  0  0  0  0  0  0  0  0  0  0  0
  -18.0690  -28.1760   22.9340 C   0  0  0  0  0  0  0  0  0  0  0  0
  -20.6320  -28.4380   23.1860 C   0  0  0  0  0  3  0  0  0  0  0  0
  -20.7250  -27.0010   22.6200 C   0  0  0  0  0  2  0  0  0  0  0  0
  -19.6190  -26.6800   21.6080 C   0  0  0  0  0  2  0  0  0  0  0  0
  -18.2400  -26.8270   22.2550 C   0  0  0  0  0  2  0  0  0  0  0  0
  -19.1920  -28.9390   23.3570 C   0  0  0  0  0  0  0  0  0  0  0  0
  -18.9730  -30.1970   23.9590 C   0  0  0  0  0  3  0  0  0  0  0  0
  -17.6680  -30.6940   24.1380 C   0  0  0  0  0  3  0  0  0  0  0  0
  -16.5620  -29.9300   23.7270 C   0  0  0  0  0  3  0  0  0  0  0  0
  -16.7640  -28.6720   23.1310 C   0  0  0  0  0  3  0  0  0  0  0  0
  -25.9760  -32.5280   23.8340 C   0  0  0  0  0  3  0  0  0  0  0  0
  -26.4720  -31.7690   25.1280 C   0  0  1  0  0  0  0  0  0  0  0  0
  -25.3630  -31.5410   26.1830 C   0  0  0  0  0  1  0  0  0  0  0  0
  -27.0630  -30.3870   24.7720 C   0  0  0  0  0  1  0  0  0  0  0  0
  -27.6130  -32.5700   25.8000 C   0  0  0  0  0  1  0  0  0  0  0  0
  -25.6450  -33.9270   24.1780 N   0  0  0  0  0  0  0  0  0  0  0  0
  -25.9430  -35.0010   23.4330 C   0  0  0  0  0  0  0  0  0  0  0  0
  -26.5780  -34.9190   22.3790 O   0  0  0  0  0  0  0  0  0  0  0  0
  -25.0730  -34.0620   24.9990 H   0  0  0  0  0  0  0  0  0  0  0  0
  -24.1750  -36.7830   23.1980 C   0  0  0  0  0  1  0  0  0  0  0  0
  -25.4650  -36.3840   23.9300 C   0  0  0  0  0  3  0  0  0  0  0  0
  -27.6270  -37.3060   24.6490 C   0  0  0  0  0  1  0  0  0  0  0  0
  -26.4750  -37.4530   23.7640 N   0  0  0  0  0  0  0  0  0  0  0  0
  -26.0620  -38.3670   23.9310 H   0  0  0  0  0  0  0  0  0  0  0  0
  1  3  1  0
  2  1  2  0
  2 45  1  0
  3  5  2  0
  4  3  1  0
  6  4  1  0
  7 15  1  0
  8 13  1  0
  9 10  1  0
  9  8  1  0
 11 10  1  0
 11 20  1  0
 11 12  1  0
 13  7  1  0
 13 12  1  0
 14  7  2  0
 15 16  1  0
 17 18  2  0
 18 37  1  0
 19 18  1  0
 19 22  1  0
 20 21  1  0
 20 17  1  0
 21 19  2  0
 22 23  1  0
 23 24  2  0
 25 28  1  0
 25 24  1  0
 26 25  2  0
 27 26  1  0
 27 22  2  0
 28 29  1  0
 29 30  1  0
 30 31  2  0
 32 31  1  0
 32 36  1  0
 33 32  2  0
 34 29  2  0
 34 33  1  0
 35 34  1  0
 37 38  1  0
 38 41  1  0
 38 40  1  0
 39 37  2  0
 42 43  1  0
 42 17  1  0
 44 42  1  0
 46 57  2  0
 47 45  1  0
 47 52  1  0
 48 56  1  0
 48 58  1  0
 49 55  1  0
 49 51  1  0
 50 56  1  0
 51 52  2  0
 51 50  1  0
 53 47  2  0
 54 53  1  0
 54 49  2  0
 55 48  1  0
 56 46  1  0
 58 60  2  0
 59 58  1  0
 61 59  1  0
 62 71  2  0
 62 67  1  0
 63 59  1  0
 63 67  1  0
 64 63  1  0
 65 66  1  0
 65 64  1  0
 66 62  1  0
 67 68  2  0
 68 69  1  0
 70 69  2  0
 71 70  1  0
 72 46  1  0
 72 77  1  0
 72 73  1  0
 73 76  1  1
 73 74  1  0
 75 73  1  0
 77 80  1  0
 78 82  1  0
 78 77  1  0
 79 78  2  0
 82 81  1  0
 84 82  1  0
 84 85  1  0
 84 83  1  0
M  ISO  4   2 101   7 100  15 100  45 101
M  END
>  <TORSDO>  (35) 
F 17

>  <SCORE>  (35) 
-16.090

>  <name>  (35) 
34

>  <ligand_id>  (35) 
34

>  <original_smiles>  (35) 
[H]C(Oc1c([H])c([H])c2c(c1[H])C([H])([H])N(C(=O)C([H])(N([H])C(=O)C([H])(N([H])C([H])([H])[H])C([H])([H])[H])C(C([H])([H])[H])(C([H])([H])[H])C([H])([H])[H])C([H])(C(=O)N([H])C1([H])c3c([H])c([H])c([H])c([H])c3C([H])([H])C([H])([H])C1([H])[H])C2([H])[H])=C([H])C(=O)N([H])N([H])C(=O)N1C([H])([H])C([H])([H])C([H])([H])C([H])(n2nc(-c3c([H])c([H])c(Oc4c([H])c([H])c(F)c([H])c4F)c([H])c3[H])c(C(=O)N([H])[H])c2N([H])[H])C1([H])[H]

>  <smiles>  (35) 
[H]C(Oc1c([H])c([H])c2c(c1[H])C([H])([H])N(C(=O)C([H])(N([H])C(=O)C([H])(N([H])C([H])([H])[H])C([H])([H])[H])C(C([H])([H])[H])(C([H])([H])[H])C([H])([H])[H])C([H])(C(=O)N([H])C1([H])c3c([H])c([H])c([H])c([H])c3C([H])([H])C([H])([H])C1([H])[H])C2([H])[H])=C([H])C(=O)N([H])N([H])C(=O)N1C([H])([H])C([H])([H])C([H])([H])C([H])(n2nc(-c3c([H])c([H])c(Oc4c([H])c([H])c(F)c([H])c4F)c([H])c3[H])c(C(=O)N([H])[H])c2N([H])[H])C1([H])[H]

$$$$
35:0:0
     RDKit          3D

 96105  0  0  1  0  0  0  0  0999 V2000
  -30.1370  -22.3120   19.0250 C   0  0  0  0  0  3  0  0  0  0  0  0
  -29.1000  -22.7580   19.7400 C   0  0  0  0  0  0  0  0  0  0  0  0
  -30.4540  -20.9390   19.3820 C   0  0  0  0  0  0  0  0  0  0  0  0
  -28.6460  -21.6470   20.6690 C   0  0  0  0  0  2  0  0  0  0  0  0
  -29.5600  -20.5260   20.3190 N   0  0  0  0  0  0  0  0  0  0  0  0
  -31.3790  -20.2650   18.9200 O   0  0  0  0  0  0  0  0  0  0  0  0
  -29.2380  -19.1950   22.3600 C   0  0  0  0  0  3  0  0  0  0  0  0
  -29.8210  -17.9800   20.3330 C   0  0  0  0  0  3  0  0  0  0  0  0
  -29.1540  -17.9790   23.0710 C   0  0  0  0  0  0  0  0  0  0  0  0
  -29.5550  -19.2300   20.9860 C   0  0  0  0  0  0  0  0  0  0  0  0
  -29.7300  -16.7370   21.0340 C   0  0  0  0  0  0  0  0  0  0  0  0
  -29.3560  -16.7460   22.3990 C   0  0  0  0  0  0  0  0  0  0  0  0
  -28.8250  -18.0380   24.5550 C   0  0  0  0  0  1  0  0  0  0  0  0
  -30.5880  -14.5030   20.0910 C   0  0  0  0  0  0  0  0  0  0  0  0
  -30.3830  -12.3490   18.8670 C   0  0  0  0  0  2  0  0  0  0  0  0
  -29.3680  -12.5490   17.7170 C   0  0  0  0  0  2  0  0  0  0  0  0
  -27.9130  -12.3690   18.2040 C   0  0  0  0  0  2  0  0  0  0  0  0
  -27.6200  -13.1520   19.5090 C   0  0  0  0  0  3  0  0  0  0  0  0
  -28.7280  -12.8820   20.5530 C   0  0  0  0  0  2  0  0  0  0  0  0
  -30.0120  -13.2750   19.9480 N   0  0  0  0  0  0  0  0  0  0  0  0
  -31.7360  -14.7530   19.7070 O   0  0  0  0  0  0  0  0  0  0  0  0
  -29.6670  -15.4610   20.3720 N   0  0  0  0  0  0  0  0  0  0  0  0
  -28.7780  -15.0120   20.5210 H   0  0  0  0  0  0  0  0  0  0  0  0
  -25.2810  -13.7440   20.4000 C   0  0  0  0  0  0  0  0  0  0  0  0
  -24.2160  -12.9650   20.7630 C   0  0  0  0  0  0  0  0  0  0  0  0
  -24.6430  -11.6130   20.5860 C   0  0  0  0  0  0  0  0  0  0  0  0
  -26.2890  -12.8650   20.0370 N   0  0  0  0  0  0  0  0  0  0  0  0
  -25.9120  -11.5740   20.2060 N   0  0  0  0  0  0  0  0  0  0  0  0
  -23.8980  -10.3540   20.7000 C   0  0  0  0  0  0  0  0  0  0  0  0
  -24.3940   -9.2720   21.4620 C   0  0  0  0  0  3  0  0  0  0  0  0
  -23.6540   -8.0760   21.5710 C   0  0  0  0  0  3  0  0  0  0  0  0
  -22.4040   -7.9530   20.9170 C   0  0  0  0  0  0  0  0  0  0  0  0
  -21.9260   -9.0250   20.1430 C   0  0  0  0  0  3  0  0  0  0  0  0
  -22.6670  -10.2130   20.0310 C   0  0  0  0  0  3  0  0  0  0  0  0
  -21.6270   -6.8200   20.9430 O   0  0  0  0  0  0  0  0  0  0  0  0
  -21.7130   -5.9150   21.9700 C   0  0  0  0  0  0  0  0  0  0  0  0
  -21.5310   -6.2970   23.3170 C   0  0  0  0  0  3  0  0  0  0  0  0
  -21.5570   -5.3220   24.3340 C   0  0  0  0  0  3  0  0  0  0  0  0
  -21.7580   -3.9680   24.0070 C   0  0  0  0  0  0  0  0  0  0  0  0
  -21.9360   -3.5860   22.6650 C   0  0  0  0  0  3  0  0  0  0  0  0
  -21.9100   -4.5570   21.6500 C   0  0  0  0  0  0  0  0  0  0  0  0
  -22.0590   -4.1820   20.3560 F   0  0  0  0  0  0  0  0  0  0  0  0
  -21.7760   -3.0290   24.9820 F   0  0  0  0  0  0  0  0  0  0  0  0
  -22.8470  -13.4440   21.1490 C   0  0  0  0  0  0  0  0  0  0  0  0
  -22.1510  -12.6910   21.9940 N   0  0  0  0  0  0  0  0  0  0  0  0
  -22.4060  -14.5170   20.7400 O   0  0  0  0  0  0  0  0  0  0  0  0
  -22.5200  -11.8200   22.3440 H   0  0  0  0  0  0  0  0  0  0  0  0
  -21.2340  -12.9920   22.2940 H   0  0  0  0  0  0  0  0  0  0  0  0
  -25.4670  -15.1210   20.3200 N   0  0  0  0  0  0  0  0  0  0  0  0
  -24.6750  -15.7450   20.4200 H   0  0  0  0  0  0  0  0  0  0  0  0
  -26.2300  -15.5380   19.8010 H   0  0  0  0  0  0  0  0  0  0  0  0
  -27.8290  -15.2690   23.4450 C   0  0  0  0  0  1  0  0  0  0  0  0
  -29.1680  -15.5360   23.0290 O   0  0  0  0  0  0  0  0  0  0  0  0
  -28.3840  -24.1220   19.5460 C   0  0  0  0  0  2  0  0  0  0  0  0
  -28.4520  -25.1660   20.7070 C   0  0  0  0  0  2  0  0  0  0  0  0
  -28.4900  -26.5680   20.3120 O   0  0  0  0  0  0  0  0  0  0  0  0
  -24.7820  -31.7450   23.6000 C   0  0  0  0  0  0  0  0  0  0  0  0
  -27.3320  -27.3300   20.3650 C   0  0  0  0  0  0  0  0  0  0  0  0
  -23.5520  -30.4460   21.8910 C   0  0  0  0  0  3  0  0  0  0  0  0
  -24.9770  -28.9230   20.4160 C   0  0  0  0  0  0  0  0  0  0  0  0
  -26.0900  -30.7400   21.7220 C   0  0  0  0  0  2  0  0  0  0  0  0
  -26.1480  -29.3910   21.0250 C   0  0  0  0  0  0  0  0  0  0  0  0
  -27.3280  -28.6080   20.9850 C   0  0  0  0  0  3  0  0  0  0  0  0
  -26.1400  -26.8830   19.7540 C   0  0  0  0  0  3  0  0  0  0  0  0
  -24.9720  -27.6720   19.7740 C   0  0  0  0  0  3  0  0  0  0  0  0
  -23.7560  -29.8140   20.4880 C   0  0  0  0  0  2  0  0  0  0  0  0
  -24.8260  -30.9900   22.4630 N   0  0  0  0  0  0  0  0  0  0  0  0
  -23.7040  -32.0210   24.1460 O   0  0  0  0  0  0  0  0  0  0  0  0
  -22.8650  -29.4060   22.8070 C   0  0  0  0  0  0  0  0  0  0  0  0
  -21.5340  -29.2730   22.6740 N   0  0  0  0  0  0  0  0  0  0  0  0
  -23.5260  -28.7240   23.5950 O   0  0  0  0  0  0  0  0  0  0  0  0
  -21.0620  -29.8800   22.0190 H   0  0  0  0  0  0  0  0  0  0  0  0
  -18.1270  -28.1430   23.0980 C   0  0  0  0  0  0  0  0  0  0  0  0
  -20.6890  -28.3250   23.3980 C   0  0  0  0  0  3  0  0  0  0  0  0
  -20.7600  -26.9150   22.7660 C   0  0  0  0  0  2  0  0  0  0  0  0
  -19.6610  -26.6640   21.7300 C   0  0  0  0  0  2  0  0  0  0  0  0
  -18.2780  -26.8180   22.3680 C   0  0  0  0  0  2  0  0  0  0  0  0
  -19.2610  -28.8570   23.5670 C   0  0  0  0  0  0  0  0  0  0  0  0
  -19.0690  -30.1010   24.2070 C   0  0  0  0  0  3  0  0  0  0  0  0
  -17.7770  -30.6290   24.3850 C   0  0  0  0  0  3  0  0  0  0  0  0
  -16.6570  -29.9120   23.9300 C   0  0  0  0  0  3  0  0  0  0  0  0
  -16.8330  -28.6700   23.2940 C   0  0  0  0  0  3  0  0  0  0  0  0
  -26.0780  -32.3160   24.2550 C   0  0  0  0  0  3  0  0  0  0  0  0
  -26.5970  -31.4500   25.4680 C   0  0  1  0  0  0  0  0  0  0  0  0
  -25.5130  -31.1560   26.5310 C   0  0  0  0  0  1  0  0  0  0  0  0
  -27.1520  -30.0950   24.9710 C   0  0  0  0  0  1  0  0  0  0  0  0
  -27.7660  -32.1770   26.1710 C   0  0  0  0  0  1  0  0  0  0  0  0
  -25.7930  -33.6910   24.6860 N   0  0  0  0  0  0  0  0  0  0  0  0
  -26.1340  -34.7900   24.0040 C   0  0  0  0  0  0  0  0  0  0  0  0
  -26.7970  -34.7520   22.9620 O   0  0  0  0  0  0  0  0  0  0  0  0
  -25.2130  -33.7950   25.5060 H   0  0  0  0  0  0  0  0  0  0  0  0
  -24.4210  -36.6180   23.7970 C   0  0  0  0  0  1  0  0  0  0  0  0
  -25.6700  -36.1490   24.5610 C   0  0  0  0  0  3  0  0  0  0  0  0
  -27.8300  -36.9480   25.4090 C   0  0  0  0  0  1  0  0  0  0  0  0
  -26.7110  -37.1980   24.5040 N   0  0  0  0  0  0  0  0  0  0  0  0
  -26.3200  -38.1090   24.7300 H   0  0  0  0  0  0  0  0  0  0  0  0
  1  3  1  0
  1  2  2  0
  2  4  1  0
  3  5  1  0
  5  4  1  0
  5 10  1  0
  6  3  2  0
  7  9  1  0
  8 10  1  0
  8 11  2  0
  9 13  1  0
 10  7  2  0
 11 12  1  0
 12 53  1  0
 12  9  2  0
 14 22  1  0
 15 20  1  0
 16 17  1  0
 16 15  1  0
 18 17  1  0
 18 27  1  0
 18 19  1  0
 20 14  1  0
 20 19  1  0
 21 14  2  0
 22 23  1  0
 22 11  1  0
 24 25  2  0
 25 44  1  0
 26 29  1  0
 26 25  1  0
 27 28  1  0
 27 24  1  0
 28 26  2  0
 29 30  1  0
 30 31  2  0
 32 35  1  0
 32 31  1  0
 33 32  2  0
 34 33  1  0
 34 29  2  0
 35 36  1  0
 36 37  1  0
 37 38  2  0
 39 38  1  0
 39 43  1  0
 40 39  2  0
 41 36  2  0
 41 40  1  0
 42 41  1  0
 44 45  1  0
 45 48  1  0
 45 47  1  0
 46 44  2  0
 49 24  1  0
 49 50  1  0
 51 49  1  0
 53 52  1  0
 54  2  1  0
 54 55  1  0
 56 58  1  0
 56 55  1  0
 57 68  2  0
 58 63  1  0
 59 67  1  0
 59 69  1  0
 60 66  1  0
 60 62  1  0
 61 67  1  0
 62 61  1  0
 63 62  2  0
 64 65  1  0
 64 58  2  0
 65 60  2  0
 66 59  1  0
 67 57  1  0
 69 71  2  0
 70 69  1  0
 72 70  1  0
 73 82  2  0
 73 78  1  0
 74 70  1  0
 74 78  1  0
 75 74  1  0
 76 77  1  0
 76 75  1  0
 77 73  1  0
 78 79  2  0
 79 80  1  0
 81 80  2  0
 82 81  1  0
 83 57  1  0
 83 88  1  0
 83 84  1  0
 84 87  1  1
 84 85  1  0
 86 84  1  0
 88 91  1  0
 89 93  1  0
 89 88  1  0
 90 89  2  0
 93 92  1  0
 95 93  1  0
 95 96  1  0
 95 94  1  0
M  ISO  4  14 100  22 100  55 101  56 101
M  END
>  <TORSDO>  (36) 
F 20

>  <SCORE>  (36) 
10.257

>  <name>  (36) 
35

>  <ligand_id>  (36) 
35

>  <original_smiles>  (36) 
[H]C1=C(C([H])([H])C([H])([H])Oc2c([H])c([H])c3c(c2[H])C([H])([H])N(C(=O)C([H])(N([H])C(=O)C([H])(N([H])C([H])([H])[H])C([H])([H])[H])C(C([H])([H])[H])(C([H])([H])[H])C([H])([H])[H])C([H])(C(=O)N([H])C2([H])c4c([H])c([H])c([H])c([H])c4C([H])([H])C([H])([H])C2([H])[H])C3([H])[H])C([H])([H])N(c2c([H])c(N([H])C(=O)N3C([H])([H])C([H])([H])C([H])([H])C([H])(n4nc(-c5c([H])c([H])c(Oc6c([H])c([H])c(F)c([H])c6F)c([H])c5[H])c(C(=O)N([H])[H])c4N([H])[H])C3([H])[H])c(OC([H])([H])[H])c(C([H])([H])[H])c2[H])C1=O

>  <smiles>  (36) 
[H]C1=C(C([H])([H])C([H])([H])Oc2c([H])c([H])c3c(c2[H])C([H])([H])N(C(=O)C([H])(N([H])C(=O)C([H])(N([H])C([H])([H])[H])C([H])([H])[H])C(C([H])([H])[H])(C([H])([H])[H])C([H])([H])[H])C([H])(C(=O)N([H])C2([H])c4c([H])c([H])c([H])c([H])c4C([H])([H])C([H])([H])C2([H])[H])C3([H])[H])C([H])([H])N(c2c([H])c(N([H])C(=O)N3C([H])([H])C([H])([H])C([H])([H])C([H])(n4nc(-c5c([H])c([H])c(Oc6c([H])c([H])c(F)c([H])c6F)c([H])c5[H])c(C(=O)N([H])[H])c4N([H])[H])C3([H])[H])c(OC([H])([H])[H])c(C([H])([H])[H])c2[H])C1=O

$$$$
36:0:0
     RDKit          3D

 97105  0  0  1  0  0  0  0  0999 V2000
  -29.8030  -21.6860   20.6560 C   0  0  0  0  0  0  0  0  0  0  0  0
  -30.6200  -22.1820   21.5810 N   0  0  0  0  0  4  0  0  0  0  0  0
  -29.0780  -22.5880   19.9070 N   0  0  0  0  0  0  0  0  0  0  0  0
  -31.1240  -21.5500   22.1830 H   0  0  0  0  0  0  0  0  0  0  0  0
  -30.6910  -23.1680   21.7540 H   0  0  0  0  0  0  0  0  0  0  0  0
  -28.3470  -22.1360   19.3730 H   0  0  0  0  0  0  0  0  0  0  0  0
  -31.0160  -19.4300   20.5960 C   0  0  0  0  0  3  0  0  0  0  0  0
  -31.0650  -18.0000   20.5810 C   0  0  0  0  0  3  0  0  0  0  0  0
  -28.6230  -19.3890   20.3860 C   0  0  0  0  0  3  0  0  0  0  0  0
  -29.7980  -20.1710   20.5190 C   0  0  0  0  0  0  0  0  0  0  0  0
  -29.8830  -17.2210   20.4930 C   0  0  0  0  0  0  0  0  0  0  0  0
  -28.6690  -17.9590   20.3840 C   0  0  0  0  0  0  0  0  0  0  0  0
  -27.5090  -17.2690   20.2860 F   0  0  0  0  0  0  0  0  0  0  0  0
  -30.6260  -14.7260   20.2140 C   0  0  0  0  0  0  0  0  0  0  0  0
  -30.4110  -12.5060   19.1070 C   0  0  0  0  0  2  0  0  0  0  0  0
  -29.4270  -12.6510   17.9240 C   0  0  0  0  0  2  0  0  0  0  0  0
  -27.9670  -12.4770   18.3920 C   0  0  0  0  0  2  0  0  0  0  0  0
  -27.6410  -13.3110   19.6600 C   0  0  0  0  0  3  0  0  0  0  0  0
  -28.7340  -13.1310   20.7380 C   0  0  0  0  0  2  0  0  0  0  0  0
  -30.0240  -13.4960   20.1310 N   0  0  0  0  0  0  0  0  0  0  0  0
  -31.7840  -14.9000   19.8230 O   0  0  0  0  0  0  0  0  0  0  0  0
  -29.7950  -15.7590   20.5620 N   0  0  0  0  0  0  0  0  0  0  0  0
  -28.8680  -15.4410   20.7970 H   0  0  0  0  0  0  0  0  0  0  0  0
  -25.2630  -13.8920   20.4410 C   0  0  0  0  0  0  0  0  0  0  0  0
  -24.2100  -13.1100   20.8280 C   0  0  0  0  0  0  0  0  0  0  0  0
  -24.6800  -11.7620   20.7770 C   0  0  0  0  0  0  0  0  0  0  0  0
  -26.3080  -13.0190   20.1770 N   0  0  0  0  0  0  0  0  0  0  0  0
  -25.9630  -11.7320   20.4390 N   0  0  0  0  0  0  0  0  0  0  0  0
  -23.9640  -10.4960   20.9750 C   0  0  0  0  0  0  0  0  0  0  0  0
  -24.4110   -9.5330   21.9070 C   0  0  0  0  0  3  0  0  0  0  0  0
  -23.6940   -8.3300   22.0920 C   0  0  0  0  0  3  0  0  0  0  0  0
  -22.5170   -8.0830   21.3470 C   0  0  0  0  0  0  0  0  0  0  0  0
  -22.0900   -9.0350   20.4040 C   0  0  0  0  0  3  0  0  0  0  0  0
  -22.8070  -10.2280   20.2160 C   0  0  0  0  0  3  0  0  0  0  0  0
  -21.7730   -6.9340   21.4410 O   0  0  0  0  0  0  0  0  0  0  0  0
  -21.7250   -6.1990   22.6000 C   0  0  0  0  0  0  0  0  0  0  0  0
  -21.2700   -6.7550   23.8160 C   0  0  0  0  0  3  0  0  0  0  0  0
  -21.1720   -5.9470   24.9660 C   0  0  0  0  0  3  0  0  0  0  0  0
  -21.5190   -4.5840   24.9010 C   0  0  0  0  0  0  0  0  0  0  0  0
  -21.9680   -4.0280   23.6900 C   0  0  0  0  0  3  0  0  0  0  0  0
  -22.0670   -4.8330   22.5420 C   0  0  0  0  0  0  0  0  0  0  0  0
  -22.4800   -4.2880   21.3720 F   0  0  0  0  0  0  0  0  0  0  0  0
  -21.4180   -3.8050   26.0040 F   0  0  0  0  0  0  0  0  0  0  0  0
  -22.8180  -13.5780   21.1370 C   0  0  0  0  0  0  0  0  0  0  0  0
  -22.1130  -12.8690   22.0120 N   0  0  0  0  0  0  0  0  0  0  0  0
  -22.3630  -14.6080   20.6400 O   0  0  0  0  0  0  0  0  0  0  0  0
  -22.4940  -12.0370   22.4370 H   0  0  0  0  0  0  0  0  0  0  0  0
  -21.1800  -13.1640   22.2620 H   0  0  0  0  0  0  0  0  0  0  0  0
  -25.4070  -15.2650   20.2750 N   0  0  0  0  0  0  0  0  0  0  0  0
  -24.6350  -15.9000   20.4390 H   0  0  0  0  0  0  0  0  0  0  0  0
  -26.2570  -15.7540   20.0160 H   0  0  0  0  0  0  0  0  0  0  0  0
  -28.6100  -24.2710   18.1730 C   0  0  0  0  0  1  0  0  0  0  0  0
  -29.1680  -24.0990   19.6010 C   0  0  2  0  0  0  0  0  0  0  0  0
  -31.6000  -23.9150   18.6180 C   0  0  0  0  0  1  0  0  0  0  0  0
  -30.6430  -24.5990   19.6130 C   0  0  0  0  0  2  0  0  0  0  0  0
  -28.3130  -25.0970   20.5150 C   0  0  0  0  0  2  0  0  0  0  0  0
  -28.4270  -26.5520   20.2180 O   0  0  0  0  0  0  0  0  0  0  0  0
  -24.6390  -31.9020   23.2480 C   0  0  0  0  0  0  0  0  0  0  0  0
  -27.2840  -27.3620   20.2060 C   0  0  0  0  0  0  0  0  0  0  0  0
  -23.4440  -30.4930   21.6090 C   0  0  0  0  0  3  0  0  0  0  0  0
  -24.9040  -28.9470   20.1880 C   0  0  0  0  0  0  0  0  0  0  0  0
  -25.9780  -30.8310   21.4230 C   0  0  0  0  0  2  0  0  0  0  0  0
  -26.0680  -29.4510   20.7820 C   0  0  0  0  0  0  0  0  0  0  0  0
  -27.2620  -28.6720   20.7760 C   0  0  0  0  0  3  0  0  0  0  0  0
  -26.1000  -26.9060   19.5870 C   0  0  0  0  0  3  0  0  0  0  0  0
  -24.9230  -27.6790   19.5810 C   0  0  0  0  0  3  0  0  0  0  0  0
  -23.6620  -29.8130   20.2310 C   0  0  0  0  0  2  0  0  0  0  0  0
  -24.7050  -31.0930   22.1500 N   0  0  0  0  0  0  0  0  0  0  0  0
  -23.5530  -32.1730   23.7830 O   0  0  0  0  0  0  0  0  0  0  0  0
  -22.7870  -29.4750   22.5700 C   0  0  0  0  0  0  0  0  0  0  0  0
  -21.4620  -29.2940   22.4450 N   0  0  0  0  0  0  0  0  0  0  0  0
  -23.4690  -28.8520   23.3880 O   0  0  0  0  0  0  0  0  0  0  0  0
  -20.9710  -29.8490   21.7580 H   0  0  0  0  0  0  0  0  0  0  0  0
  -18.0870  -28.0930   22.9540 C   0  0  0  0  0  0  0  0  0  0  0  0
  -20.6460  -28.3530   23.2170 C   0  0  0  0  0  3  0  0  0  0  0  0
  -20.7470  -26.9240   22.6360 C   0  0  0  0  0  2  0  0  0  0  0  0
  -19.6420  -26.6030   21.6250 C   0  0  0  0  0  2  0  0  0  0  0  0
  -18.2630  -26.7450   22.2750 C   0  0  0  0  0  2  0  0  0  0  0  0
  -19.2070  -28.8550   23.3820 C   0  0  0  0  0  0  0  0  0  0  0  0
  -18.9890  -30.1170   23.9780 C   0  0  0  0  0  3  0  0  0  0  0  0
  -17.6850  -30.6160   24.1500 C   0  0  0  0  0  3  0  0  0  0  0  0
  -16.5800  -29.8520   23.7370 C   0  0  0  0  0  3  0  0  0  0  0  0
  -16.7820  -28.5920   23.1450 C   0  0  0  0  0  3  0  0  0  0  0  0
  -25.9180  -32.5410   23.8700 C   0  0  0  0  0  3  0  0  0  0  0  0
  -26.4300  -31.7820   25.1560 C   0  0  1  0  0  0  0  0  0  0  0  0
  -25.3330  -31.5480   26.2200 C   0  0  0  0  0  1  0  0  0  0  0  0
  -27.0210  -30.4030   24.7770 C   0  0  0  0  0  1  0  0  0  0  0  0
  -27.5750  -32.5850   25.8180 C   0  0  0  0  0  1  0  0  0  0  0  0
  -25.6040  -33.9410   24.1900 N   0  0  0  0  0  0  0  0  0  0  0  0
  -25.9370  -34.9900   23.4250 C   0  0  0  0  0  0  0  0  0  0  0  0
  -26.6110  -34.8810   22.3970 O   0  0  0  0  0  0  0  0  0  0  0  0
  -25.0050  -34.0990   24.9860 H   0  0  0  0  0  0  0  0  0  0  0  0
  -24.2130  -36.7820   23.0470 C   0  0  0  0  0  1  0  0  0  0  0  0
  -25.4460  -36.3820   23.8720 C   0  0  0  0  0  3  0  0  0  0  0  0
  -27.5710  -37.2710   24.7210 C   0  0  0  0  0  1  0  0  0  0  0  0
  -26.4790  -37.4330   23.7640 N   0  0  0  0  0  0  0  0  0  0  0  0
  -26.0720  -38.3550   23.9010 H   0  0  0  0  0  0  0  0  0  0  0  0
  1  2  2  0
  2  5  1  0
  2  4  1  0
  3  1  1  0
  6  3  1  0
  8  7  1  0
  9 10  1  0
 10  7  2  0
 10  1  1  0
 11 22  1  0
 11  8  2  0
 12  9  2  0
 12 11  1  0
 13 12  1  0
 14 22  1  0
 15 20  1  0
 16 17  1  0
 16 15  1  0
 18 17  1  0
 18 27  1  0
 18 19  1  0
 20 14  1  0
 20 19  1  0
 21 14  2  0
 22 23  1  0
 24 25  2  0
 25 44  1  0
 26 25  1  0
 26 29  1  0
 27 28  1  0
 27 24  1  0
 28 26  2  0
 29 30  1  0
 30 31  2  0
 32 35  1  0
 32 31  1  0
 33 32  2  0
 34 33  1  0
 34 29  2  0
 35 36  1  0
 36 37  1  0
 37 38  2  0
 39 38  1  0
 39 43  1  0
 40 39  2  0
 41 36  2  0
 41 40  1  0
 42 41  1  0
 44 45  1  0
 45 48  1  0
 45 47  1  0
 46 44  2  0
 49 50  1  0
 49 24  1  0
 51 49  1  0
 53 52  1  6
 53 55  1  0
 53  3  1  0
 53 56  1  0
 54 55  1  0
 57 56  1  0
 58 69  2  0
 59 57  1  0
 59 64  1  0
 60 68  1  0
 60 70  1  0
 61 67  1  0
 61 63  1  0
 62 68  1  0
 63 62  1  0
 64 63  2  0
 65 59  2  0
 66 65  1  0
 66 61  2  0
 67 60  1  0
 68 58  1  0
 70 72  2  0
 71 70  1  0
 73 71  1  0
 74 83  2  0
 74 79  1  0
 75 71  1  0
 75 79  1  0
 76 75  1  0
 77 78  1  0
 77 76  1  0
 78 74  1  0
 79 80  2  0
 80 81  1  0
 82 81  2  0
 83 82  1  0
 84 58  1  0
 84 89  1  0
 84 85  1  0
 85 88  1  1
 85 86  1  0
 87 85  1  0
 89 92  1  0
 90 94  1  0
 90 89  1  0
 91 90  2  0
 94 93  1  0
 96 94  1  0
 96 97  1  0
 96 95  1  0
M  ISO  4  14 100  22 100  56 101  57 101
M  END
>  <TORSDO>  (37) 
F 20

>  <SCORE>  (37) 
-14.303

>  <name>  (37) 
36

>  <ligand_id>  (37) 
36

>  <original_smiles>  (37) 
[H]c1c([H])c([H])c2c(c1[H])C([H])([H])C([H])([H])C([H])([H])C2([H])N([H])C(=O)C1([H])N(C(=O)C([H])(N([H])C(=O)C([H])(N([H])C([H])([H])[H])C([H])([H])[H])C(C([H])([H])[H])(C([H])([H])[H])C([H])([H])[H])C([H])([H])c2c([H])c(OC([H])([H])C([N+]([H])=C(c3c([H])c([H])c(N([H])C(=O)N4C([H])([H])C([H])([H])C([H])([H])C([H])(n5nc(-c6c([H])c([H])c(Oc7c([H])c([H])c(F)c([H])c7F)c([H])c6[H])c(C(=O)N([H])[H])c5N([H])[H])C4([H])[H])c(F)c3[H])N([H])[H])(C([H])([H])[H])C([H])([H])C([H])([H])[H])c([H])c([H])c2C1([H])[H]

>  <smiles>  (37) 
[H]c1c([H])c([H])c2c(c1[H])C([H])([H])C([H])([H])C([H])([H])C2([H])N([H])C(=O)C1([H])N(C(=O)C([H])(N([H])C(=O)C([H])(N([H])C([H])([H])[H])C([H])([H])[H])C(C([H])([H])[H])(C([H])([H])[H])C([H])([H])[H])C([H])([H])c2c([H])c(OC([H])([H])C([N+]([H])=C(c3c([H])c([H])c(N([H])C(=O)N4C([H])([H])C([H])([H])C([H])([H])C([H])(n5nc(-c6c([H])c([H])c(Oc7c([H])c([H])c(F)c([H])c7F)c([H])c6[H])c(C(=O)N([H])[H])c5N([H])[H])C4([H])[H])c(F)c3[H])N([H])[H])(C([H])([H])[H])C([H])([H])C([H])([H])[H])c([H])c([H])c2C1([H])[H]

$$$$
37:0:0
     RDKit          3D

 97106  0  0  1  0  0  0  0  0999 V2000
  -29.9120  -22.8810   22.8190 C   0  0  0  0  0  0  0  0  0  0  0  0
  -29.7210  -23.6920   20.6780 C   0  0  0  0  0  2  0  0  0  0  0  0
  -29.6250  -24.3720   22.9870 C   0  0  0  0  0  3  0  0  0  0  0  0
  -29.1000  -24.8050   21.5980 C   0  0  0  0  0  3  0  0  0  0  0  0
  -28.6740  -24.6400   24.1690 C   0  0  0  0  0  1  0  0  0  0  0  0
  -29.9000  -22.4920   21.5300 N   0  0  0  0  0  0  0  0  0  0  0  0
  -30.1270  -22.1550   23.8000 O   0  0  0  0  0  0  0  0  0  0  0  0
  -30.1520  -20.0540   22.0290 C   0  0  0  0  0  3  0  0  0  0  0  0
  -31.3260  -19.5580   19.5510 C   0  0  0  0  0  3  0  0  0  0  0  0
  -30.6860  -18.7700   21.7520 C   0  0  0  0  0  0  0  0  0  0  0  0
  -31.3720  -18.5230   20.5260 C   0  0  0  0  0  0  0  0  0  0  0  0
  -30.2470  -21.1380   21.1130 C   0  0  0  0  0  0  0  0  0  0  0  0
  -30.7830  -20.8400   19.8330 C   0  0  0  0  0  0  0  0  0  0  0  0
  -30.5480  -17.7080   22.8380 C   0  0  0  0  0  1  0  0  0  0  0  0
  -30.8550  -21.8030   18.8830 F   0  0  0  0  0  0  0  0  0  0  0  0
  -33.5080  -17.6950   19.4190 C   0  0  0  0  0  1  0  0  0  0  0  0
  -32.3270  -17.3020   20.3290 C   0  0  0  0  0  3  0  0  0  0  0  0
  -32.3230  -14.8110   19.5860 C   0  0  0  0  0  0  0  0  0  0  0  0
  -31.9610  -12.3930   19.1620 C   0  0  0  0  0  2  0  0  0  0  0  0
  -30.9960  -12.1730   17.9770 C   0  0  0  0  0  2  0  0  0  0  0  0
  -29.5280  -12.2190   18.4490 C   0  0  0  0  0  2  0  0  0  0  0  0
  -29.2350  -13.4500   19.3480 C   0  0  0  0  0  3  0  0  0  0  0  0
  -30.2960  -13.5840   20.4580 C   0  0  0  0  0  2  0  0  0  0  0  0
  -31.6130  -13.6700   19.8070 N   0  0  0  0  0  0  0  0  0  0  0  0
  -33.4030  -14.7880   18.9880 O   0  0  0  0  0  0  0  0  0  0  0  0
  -31.7520  -15.9580   20.0450 N   0  0  0  0  0  0  0  0  0  0  0  0
  -30.8380  -15.8040   20.4420 H   0  0  0  0  0  0  0  0  0  0  0  0
  -27.0530  -14.4460   20.2670 C   0  0  0  0  0  0  0  0  0  0  0  0
  -25.8780  -13.8640   20.6640 C   0  0  0  0  0  0  0  0  0  0  0  0
  -26.0640  -12.4550   20.5130 C   0  0  0  0  0  0  0  0  0  0  0  0
  -27.8870  -13.4000   19.9040 N   0  0  0  0  0  0  0  0  0  0  0  0
  -27.3000  -12.1950   20.1100 N   0  0  0  0  0  0  0  0  0  0  0  0
  -25.1220  -11.3410   20.6790 C   0  0  0  0  0  0  0  0  0  0  0  0
  -25.3820  -10.2780   21.5730 C   0  0  0  0  0  3  0  0  0  0  0  0
  -24.4500   -9.2290   21.7280 C   0  0  0  0  0  3  0  0  0  0  0  0
  -23.2460   -9.2340   20.9860 C   0  0  0  0  0  0  0  0  0  0  0  0
  -23.0020  -10.2810   20.0810 C   0  0  0  0  0  3  0  0  0  0  0  0
  -23.9310  -11.3230   19.9240 C   0  0  0  0  0  3  0  0  0  0  0  0
  -22.2980   -8.2420   21.0480 O   0  0  0  0  0  0  0  0  0  0  0  0
  -22.0550   -7.5520   22.2080 C   0  0  0  0  0  0  0  0  0  0  0  0
  -21.6860   -8.2120   23.4020 C   0  0  0  0  0  3  0  0  0  0  0  0
  -21.3750   -7.4630   24.5540 C   0  0  0  0  0  3  0  0  0  0  0  0
  -21.4240   -6.0550   24.5130 C   0  0  0  0  0  0  0  0  0  0  0  0
  -21.7840   -5.3970   23.3230 C   0  0  0  0  0  3  0  0  0  0  0  0
  -22.0950   -6.1450   22.1740 C   0  0  0  0  0  0  0  0  0  0  0  0
  -22.4220   -5.5060   21.0250 F   0  0  0  0  0  0  0  0  0  0  0  0
  -21.1170   -5.3320   25.6140 F   0  0  0  0  0  0  0  0  0  0  0  0
  -24.6210  -14.5720   21.0730 C   0  0  0  0  0  0  0  0  0  0  0  0
  -23.8440  -13.9760   21.9720 N   0  0  0  0  0  0  0  0  0  0  0  0
  -24.3410  -15.6850   20.6300 O   0  0  0  0  0  0  0  0  0  0  0  0
  -24.0830  -13.0680   22.3460 H   0  0  0  0  0  0  0  0  0  0  0  0
  -23.0020  -14.4330   22.2910 H   0  0  0  0  0  0  0  0  0  0  0  0
  -27.4790  -15.7680   20.1630 N   0  0  0  0  0  0  0  0  0  0  0  0
  -26.8800  -16.5600   20.3620 H   0  0  0  0  0  0  0  0  0  0  0  0
  -28.3840  -16.0440   19.8020 H   0  0  0  0  0  0  0  0  0  0  0  0
  -29.4100  -26.3280   21.3000 C   0  0  0  0  0  2  0  0  0  0  0  0
  -28.8290  -26.9540   20.1340 O   0  0  0  0  0  0  0  0  0  0  0  0
  -24.7440  -31.9490   23.3600 C   0  0  0  0  0  0  0  0  0  0  0  0
  -27.6660  -27.7050   20.2300 C   0  0  0  0  0  0  0  0  0  0  0  0
  -23.6460  -30.5480   21.6430 C   0  0  0  0  0  3  0  0  0  0  0  0
  -25.2110  -29.1330   20.2050 C   0  0  0  0  0  0  0  0  0  0  0  0
  -26.1560  -31.0310   21.5170 C   0  0  0  0  0  2  0  0  0  0  0  0
  -26.3260  -29.6770   20.8520 C   0  0  0  0  0  0  0  0  0  0  0  0
  -27.5600  -28.9660   20.8760 C   0  0  0  0  0  3  0  0  0  0  0  0
  -26.5360  -27.2020   19.5510 C   0  0  0  0  0  3  0  0  0  0  0  0
  -25.3090  -27.8940   19.5510 C   0  0  0  0  0  3  0  0  0  0  0  0
  -23.9230  -29.9270   20.2440 C   0  0  0  0  0  2  0  0  0  0  0  0
  -24.8630  -31.1900   22.2330 N   0  0  0  0  0  0  0  0  0  0  0  0
  -23.6370  -32.1430   23.8870 O   0  0  0  0  0  0  0  0  0  0  0  0
  -23.0300  -29.4610   22.5570 C   0  0  0  0  0  0  0  0  0  0  0  0
  -21.7280  -29.1790   22.3710 N   0  0  0  0  0  0  0  0  0  0  0  0
  -23.7240  -28.8740   23.3920 O   0  0  0  0  0  0  0  0  0  0  0  0
  -21.2190  -29.7080   21.6800 H   0  0  0  0  0  0  0  0  0  0  0  0
  -18.4490  -27.6980   22.6780 C   0  0  0  0  0  0  0  0  0  0  0  0
  -20.9590  -28.1620   23.0880 C   0  0  0  0  0  3  0  0  0  0  0  0
  -21.2130  -26.7550   22.4990 C   0  0  0  0  0  2  0  0  0  0  0  0
  -20.1960  -26.3600   21.4240 C   0  0  0  0  0  2  0  0  0  0  0  0
  -18.7750  -26.3830   21.9920 C   0  0  0  0  0  2  0  0  0  0  0  0
  -19.4760  -28.5410   23.1790 C   0  0  0  0  0  0  0  0  0  0  0  0
  -19.1220  -29.7740   23.7680 C   0  0  0  0  0  3  0  0  0  0  0  0
  -17.7720  -30.1620   23.8710 C   0  0  0  0  0  3  0  0  0  0  0  0
  -16.7570  -29.3150   23.3920 C   0  0  0  0  0  3  0  0  0  0  0  0
  -17.0980  -28.0860   22.7980 C   0  0  0  0  0  3  0  0  0  0  0  0
  -25.9800  -32.6260   24.0270 C   0  0  0  0  0  3  0  0  0  0  0  0
  -26.4570  -31.8950   25.3390 C   0  0  1  0  0  0  0  0  0  0  0  0
  -25.3140  -31.6200   26.3440 C   0  0  0  0  0  1  0  0  0  0  0  0
  -27.1260  -30.5420   24.9980 C   0  0  0  0  0  1  0  0  0  0  0  0
  -27.5230  -32.7490   26.0610 C   0  0  0  0  0  1  0  0  0  0  0  0
  -25.6230  -34.0240   24.3110 N   0  0  0  0  0  0  0  0  0  0  0  0
  -25.9820  -35.0680   23.5540 C   0  0  0  0  0  0  0  0  0  0  0  0
  -26.7200  -34.9610   22.5720 O   0  0  0  0  0  0  0  0  0  0  0  0
  -24.9790  -34.1830   25.0710 H   0  0  0  0  0  0  0  0  0  0  0  0
  -24.2560  -36.8180   23.0570 C   0  0  0  0  0  1  0  0  0  0  0  0
  -25.4410  -36.4490   23.9590 C   0  0  0  0  0  3  0  0  0  0  0  0
  -27.5040  -37.3800   24.9100 C   0  0  0  0  0  1  0  0  0  0  0  0
  -26.4590  -37.5220   23.9030 N   0  0  0  0  0  0  0  0  0  0  0  0
  -26.0230  -38.4290   24.0280 H   0  0  0  0  0  0  0  0  0  0  0  0
  1  3  1  0
  1  7  2  0
  2  6  1  0
  2  4  1  0
  3  5  1  0
  4 56  1  0
  4  3  1  0
  6  1  1  0
  9 13  2  0
  9 11  1  0
 10  8  1  0
 10 14  1  0
 11 10  2  0
 12  6  1  0
 12  8  2  0
 13 12  1  0
 15 13  1  0
 17 16  1  0
 17 11  1  0
 18 24  1  0
 18 26  1  0
 19 24  1  0
 20 21  1  0
 20 19  1  0
 22 21  1  0
 22 31  1  0
 22 23  1  0
 24 23  1  0
 25 18  2  0
 26 17  1  0
 26 27  1  0
 28 29  2  0
 29 48  1  0
 30 29  1  0
 30 33  1  0
 31 32  1  0
 31 28  1  0
 32 30  2  0
 33 34  1  0
 34 35  2  0
 36 39  1  0
 36 35  1  0
 37 36  2  0
 38 37  1  0
 38 33  2  0
 39 40  1  0
 40 41  1  0
 41 42  2  0
 43 42  1  0
 43 47  1  0
 44 43  2  0
 45 40  2  0
 45 44  1  0
 46 45  1  0
 48 49  1  0
 49 52  1  0
 49 51  1  0
 50 48  2  0
 53 28  1  0
 53 54  1  0
 55 53  1  0
 57 59  1  0
 57 56  1  0
 58 69  2  0
 59 64  1  0
 60 68  1  0
 60 70  1  0
 61 67  1  0
 61 63  1  0
 62 68  1  0
 63 64  2  0
 63 62  1  0
 65 59  2  0
 66 65  1  0
 66 61  2  0
 67 60  1  0
 68 58  1  0
 70 72  2  0
 71 70  1  0
 73 71  1  0
 74 83  2  0
 74 79  1  0
 75 71  1  0
 75 79  1  0
 76 75  1  0
 77 78  1  0
 77 76  1  0
 78 74  1  0
 79 80  2  0
 80 81  1  0
 82 81  2  0
 83 82  1  0
 84 58  1  0
 84 89  1  0
 84 85  1  0
 85 88  1  1
 85 86  1  0
 87 85  1  0
 89 92  1  0
 90 94  1  0
 90 89  1  0
 91 90  2  0
 94 93  1  0
 96 94  1  0
 96 97  1  0
 96 95  1  0
M  ISO  4  18 100  26 100  56 101  57 101
M  END
>  <TORSDO>  (38) 
F 19

>  <SCORE>  (38) 
-11.412

>  <name>  (38) 
37

>  <ligand_id>  (38) 
37

>  <original_smiles>  (38) 
[H]c1c([H])c([H])c2c(c1[H])C([H])([H])C([H])([H])C([H])([H])C2([H])N([H])C(=O)C1([H])N(C(=O)C([H])(N([H])C(=O)C([H])(N([H])C([H])([H])[H])C([H])([H])[H])C(C([H])([H])[H])(C([H])([H])[H])C([H])([H])[H])C([H])([H])c2c([H])c(OC([H])([H])C3([H])C([H])([H])N(c4c([H])c(C([H])([H])[H])c(C([H])(N([H])C(=O)N5C([H])([H])C([H])([H])C([H])([H])C([H])(n6nc(-c7c([H])c([H])c(Oc8c([H])c([H])c(F)c([H])c8F)c([H])c7[H])c(C(=O)N([H])[H])c6N([H])[H])C5([H])[H])C([H])([H])[H])c([H])c4F)C(=O)C3([H])C([H])([H])[H])c([H])c([H])c2C1([H])[H]

>  <smiles>  (38) 
[H]c1c([H])c([H])c2c(c1[H])C([H])([H])C([H])([H])C([H])([H])C2([H])N([H])C(=O)C1([H])N(C(=O)C([H])(N([H])C(=O)C([H])(N([H])C([H])([H])[H])C([H])([H])[H])C(C([H])([H])[H])(C([H])([H])[H])C([H])([H])[H])C([H])([H])c2c([H])c(OC([H])([H])C3([H])C([H])([H])N(c4c([H])c(C([H])([H])[H])c(C([H])(N([H])C(=O)N5C([H])([H])C([H])([H])C([H])([H])C([H])(n6nc(-c7c([H])c([H])c(Oc8c([H])c([H])c(F)c([H])c8F)c([H])c7[H])c(C(=O)N([H])[H])c6N([H])[H])C5([H])[H])C([H])([H])[H])c([H])c4F)C(=O)C3([H])C([H])([H])[H])c([H])c([H])c2C1([H])[H]

$$$$
38:0:0
     RDKit          3D

 94102  0  0  1  0  0  0  0  0999 V2000
  -28.5650  -21.0680   20.4790 C   0  0  0  0  0  0  0  0  0  0  0  0
  -28.9470  -22.4070   20.3950 N   0  0  0  0  0  0  0  0  0  0  0  0
  -27.3760  -20.7740   20.6160 O   0  0  0  0  0  0  0  0  0  0  0  0
  -29.9470  -22.4960   20.2500 H   0  0  0  0  0  0  0  0  0  0  0  0
  -31.6130  -17.8130   20.4840 C   0  0  0  0  0  3  0  0  0  0  0  0
  -31.9590  -19.1760   20.4380 C   0  0  0  0  0  3  0  0  0  0  0  0
  -29.6060  -19.8950   20.4360 C   0  0  0  0  0  0  0  0  0  0  0  0
  -30.2630  -17.3940   20.4830 C   0  0  0  0  0  0  0  0  0  0  0  0
  -30.9900  -20.1950   20.4020 C   0  0  0  0  0  0  0  0  0  0  0  0
  -29.2730  -18.4650   20.4770 C   0  0  0  0  0  0  0  0  0  0  0  0
  -31.4280  -21.4790   20.3480 F   0  0  0  0  0  0  0  0  0  0  0  0
  -27.9740  -18.0790   20.5220 F   0  0  0  0  0  0  0  0  0  0  0  0
  -30.6700  -14.8010   20.2430 C   0  0  0  0  0  0  0  0  0  0  0  0
  -30.4250  -12.5500   19.1860 C   0  0  0  0  0  2  0  0  0  0  0  0
  -29.4560  -12.6580   17.9880 C   0  0  0  0  0  2  0  0  0  0  0  0
  -28.0030  -12.4670   18.4600 C   0  0  0  0  0  2  0  0  0  0  0  0
  -27.6600  -13.3360   19.7000 C   0  0  0  0  0  3  0  0  0  0  0  0
  -28.7480  -13.2260   20.7910 C   0  0  0  0  0  2  0  0  0  0  0  0
  -30.0280  -13.5850   20.1700 N   0  0  0  0  0  0  0  0  0  0  0  0
  -31.8460  -14.8700   19.8780 O   0  0  0  0  0  0  0  0  0  0  0  0
  -29.9190  -15.9410   20.5190 N   0  0  0  0  0  0  0  0  0  0  0  0
  -28.9470  -15.7530   20.7090 H   0  0  0  0  0  0  0  0  0  0  0  0
  -25.2920  -13.9060   20.4960 C   0  0  0  0  0  0  0  0  0  0  0  0
  -24.2400  -13.1210   20.8830 C   0  0  0  0  0  0  0  0  0  0  0  0
  -24.7100  -11.7730   20.8250 C   0  0  0  0  0  0  0  0  0  0  0  0
  -26.3320  -13.0350   20.2220 N   0  0  0  0  0  0  0  0  0  0  0  0
  -25.9920  -11.7460   20.4820 N   0  0  0  0  0  0  0  0  0  0  0  0
  -23.9950  -10.5040   21.0150 C   0  0  0  0  0  0  0  0  0  0  0  0
  -24.4400   -9.5380   21.9440 C   0  0  0  0  0  3  0  0  0  0  0  0
  -23.7260   -8.3340   22.1220 C   0  0  0  0  0  3  0  0  0  0  0  0
  -22.5510   -8.0880   21.3710 C   0  0  0  0  0  0  0  0  0  0  0  0
  -22.1260   -9.0430   20.4300 C   0  0  0  0  0  3  0  0  0  0  0  0
  -22.8430  -10.2380   20.2500 C   0  0  0  0  0  3  0  0  0  0  0  0
  -21.8050   -6.9380   21.4620 O   0  0  0  0  0  0  0  0  0  0  0  0
  -21.7470   -6.2070   22.6220 C   0  0  0  0  0  0  0  0  0  0  0  0
  -21.2730   -6.7620   23.8300 C   0  0  0  0  0  3  0  0  0  0  0  0
  -21.1660   -5.9540   24.9810 C   0  0  0  0  0  3  0  0  0  0  0  0
  -21.5200   -4.5940   24.9230 C   0  0  0  0  0  0  0  0  0  0  0  0
  -21.9860   -4.0380   23.7190 C   0  0  0  0  0  3  0  0  0  0  0  0
  -22.0970   -4.8420   22.5700 C   0  0  0  0  0  0  0  0  0  0  0  0
  -22.5280   -4.2960   21.4080 F   0  0  0  0  0  0  0  0  0  0  0  0
  -21.4090   -3.8160   26.0260 F   0  0  0  0  0  0  0  0  0  0  0  0
  -22.8470  -13.5870   21.1950 C   0  0  0  0  0  0  0  0  0  0  0  0
  -22.1390  -12.8700   22.0600 N   0  0  0  0  0  0  0  0  0  0  0  0
  -22.3950  -14.6210   20.7050 O   0  0  0  0  0  0  0  0  0  0  0  0
  -22.5150  -12.0310   22.4750 H   0  0  0  0  0  0  0  0  0  0  0  0
  -21.2060  -13.1640   22.3090 H   0  0  0  0  0  0  0  0  0  0  0  0
  -25.4460  -15.2800   20.3310 N   0  0  0  0  0  0  0  0  0  0  0  0
  -24.6870  -15.9350   20.4860 H   0  0  0  0  0  0  0  0  0  0  0  0
  -26.2800  -15.7280   19.9720 H   0  0  0  0  0  0  0  0  0  0  0  0
  -26.7570  -23.6070   21.0460 C   0  0  0  0  0  1  0  0  0  0  0  0
  -28.2610  -23.7480   20.7510 C   0  0  0  0  0  3  0  0  0  0  0  0
  -28.4870  -25.0480   19.8060 C   0  0  0  0  0  2  0  0  0  0  0  0
  -28.4020  -26.4670   20.3150 O   0  0  0  0  0  0  0  0  0  0  0  0
  -24.6100  -31.9070   23.2370 C   0  0  0  0  0  0  0  0  0  0  0  0
  -27.2700  -27.3090   20.2200 C   0  0  0  0  0  0  0  0  0  0  0  0
  -23.4340  -30.5030   21.5810 C   0  0  0  0  0  3  0  0  0  0  0  0
  -24.9080  -28.9490   20.1710 C   0  0  0  0  0  0  0  0  0  0  0  0
  -25.9780  -30.8190   21.4300 C   0  0  0  0  0  2  0  0  0  0  0  0
  -26.0680  -29.4350   20.7850 C   0  0  0  0  0  0  0  0  0  0  0  0
  -27.2490  -28.6260   20.7970 C   0  0  0  0  0  3  0  0  0  0  0  0
  -26.0840  -26.8860   19.5820 C   0  0  0  0  0  3  0  0  0  0  0  0
  -24.9200  -27.6840   19.5630 C   0  0  0  0  0  3  0  0  0  0  0  0
  -23.6690  -29.8260   20.2040 C   0  0  0  0  0  2  0  0  0  0  0  0
  -24.6930  -31.0960   22.1400 N   0  0  0  0  0  0  0  0  0  0  0  0
  -23.5180  -32.1810   23.7560 O   0  0  0  0  0  0  0  0  0  0  0  0
  -22.7620  -29.4850   22.5340 C   0  0  0  0  0  0  0  0  0  0  0  0
  -21.4340  -29.3140   22.4040 N   0  0  0  0  0  0  0  0  0  0  0  0
  -23.4350  -28.8510   23.3510 O   0  0  0  0  0  0  0  0  0  0  0  0
  -20.9510  -29.8840   21.7250 H   0  0  0  0  0  0  0  0  0  0  0  0
  -18.0460  -28.1500   22.9000 C   0  0  0  0  0  0  0  0  0  0  0  0
  -20.6080  -28.3750   23.1650 C   0  0  0  0  0  3  0  0  0  0  0  0
  -20.6890  -26.9490   22.5680 C   0  0  0  0  0  2  0  0  0  0  0  0
  -19.5810  -26.6570   21.5520 C   0  0  0  0  0  2  0  0  0  0  0  0
  -18.2050  -26.8080   22.2040 C   0  0  0  0  0  2  0  0  0  0  0  0
  -19.1750  -28.8930   23.3350 C   0  0  0  0  0  0  0  0  0  0  0  0
  -18.9730  -30.1500   23.9450 C   0  0  0  0  0  3  0  0  0  0  0  0
  -17.6750  -30.6630   24.1240 C   0  0  0  0  0  3  0  0  0  0  0  0
  -16.5590  -29.9160   23.7070 C   0  0  0  0  0  3  0  0  0  0  0  0
  -16.7460  -28.6620   23.0970 C   0  0  0  0  0  3  0  0  0  0  0  0
  -25.8800  -32.5470   23.8780 C   0  0  0  0  0  3  0  0  0  0  0  0
  -26.3660  -31.7920   25.1760 C   0  0  1  0  0  0  0  0  0  0  0  0
  -25.2480  -31.5680   26.2230 C   0  0  0  0  0  1  0  0  0  0  0  0
  -26.9540  -30.4120   24.8130 C   0  0  0  0  0  1  0  0  0  0  0  0
  -27.5040  -32.5910   25.8550 C   0  0  0  0  0  1  0  0  0  0  0  0
  -25.5640  -33.9500   24.1880 N   0  0  0  0  0  0  0  0  0  0  0  0
  -25.9130  -34.9960   23.4280 C   0  0  0  0  0  0  0  0  0  0  0  0
  -26.6040  -34.8820   22.4130 O   0  0  0  0  0  0  0  0  0  0  0  0
  -24.9550  -34.1120   24.9760 H   0  0  0  0  0  0  0  0  0  0  0  0
  -24.2050  -36.7960   23.0190 C   0  0  0  0  0  1  0  0  0  0  0  0
  -25.4210  -36.3900   23.8650 C   0  0  0  0  0  3  0  0  0  0  0  0
  -27.5320  -37.2750   24.7510 C   0  0  0  0  0  1  0  0  0  0  0  0
  -26.4610  -37.4380   23.7730 N   0  0  0  0  0  0  0  0  0  0  0  0
  -26.0550  -38.3610   23.9030 H   0  0  0  0  0  0  0  0  0  0  0  0
  1  3  2  0
  2  1  1  0
  2 52  1  0
  4  2  1  0
  6  5  2  0
  7 10  1  0
  7  1  1  0
  8  5  1  0
  8 21  1  0
  9  7  2  0
  9  6  1  0
 10  8  2  0
 10 12  1  0
 11  9  1  0
 13 21  1  0
 14 19  1  0
 15 16  1  0
 15 14  1  0
 17 16  1  0
 17 26  1  0
 17 18  1  0
 19 13  1  0
 19 18  1  0
 20 13  2  0
 21 22  1  0
 23 24  2  0
 24 43  1  0
 25 24  1  0
 25 28  1  0
 26 27  1  0
 26 23  1  0
 27 25  2  0
 28 29  1  0
 29 30  2  0
 31 34  1  0
 31 30  1  0
 32 31  2  0
 33 32  1  0
 33 28  2  0
 34 35  1  0
 35 36  1  0
 36 37  2  0
 38 37  1  0
 38 42  1  0
 39 38  2  0
 40 35  2  0
 40 39  1  0
 41 40  1  0
 43 44  1  0
 44 47  1  0
 44 46  1  0
 45 43  2  0
 48 49  1  0
 48 23  1  0
 50 48  1  0
 52 51  1  0
 53 54  1  0
 53 52  1  0
 55 66  2  0
 56 54  1  0
 56 61  1  0
 57 65  1  0
 57 67  1  0
 58 64  1  0
 58 60  1  0
 59 65  1  0
 60 61  2  0
 60 59  1  0
 62 56  2  0
 63 62  1  0
 63 58  2  0
 64 57  1  0
 65 55  1  0
 67 69  2  0
 68 67  1  0
 70 68  1  0
 71 80  2  0
 71 76  1  0
 72 68  1  0
 72 76  1  0
 73 72  1  0
 74 75  1  0
 74 73  1  0
 75 71  1  0
 76 77  2  0
 77 78  1  0
 79 78  2  0
 80 79  1  0
 81 55  1  0
 81 86  1  0
 81 82  1  0
 82 85  1  1
 82 83  1  0
 84 82  1  0
 86 89  1  0
 87 91  1  0
 87 86  1  0
 88 87  2  0
 91 90  1  0
 93 91  1  0
 93 94  1  0
 93 92  1  0
M  ISO  4  13 100  21 100  53 101  54 101
M  END
>  <TORSDO>  (39) 
F 19

>  <SCORE>  (39) 
-14.489

>  <name>  (39) 
38

>  <ligand_id>  (39) 
38

>  <original_smiles>  (39) 
[H]c1c([H])c([H])c2c(c1[H])C([H])([H])C([H])([H])C([H])([H])C2([H])N([H])C(=O)C1([H])N(C(=O)C([H])(N([H])C(=O)C([H])(N([H])C([H])([H])[H])C([H])([H])[H])C(C([H])([H])[H])(C([H])([H])[H])C([H])([H])[H])C([H])([H])c2c([H])c(OC([H])([H])C([H])(N([H])C(=O)c3c(F)c([H])c([H])c(N([H])C(=O)N4C([H])([H])C([H])([H])C([H])([H])C([H])(n5nc(-c6c([H])c([H])c(Oc7c([H])c([H])c(F)c([H])c7F)c([H])c6[H])c(C(=O)N([H])[H])c5N([H])[H])C4([H])[H])c3F)C([H])([H])[H])c([H])c([H])c2C1([H])[H]

>  <smiles>  (39) 
[H]c1c([H])c([H])c2c(c1[H])C([H])([H])C([H])([H])C([H])([H])C2([H])N([H])C(=O)C1([H])N(C(=O)C([H])(N([H])C(=O)C([H])(N([H])C([H])([H])[H])C([H])([H])[H])C(C([H])([H])[H])(C([H])([H])[H])C([H])([H])[H])C([H])([H])c2c([H])c(OC([H])([H])C([H])(N([H])C(=O)c3c(F)c([H])c([H])c(N([H])C(=O)N4C([H])([H])C([H])([H])C([H])([H])C([H])(n5nc(-c6c([H])c([H])c(Oc7c([H])c([H])c(F)c([H])c7F)c([H])c6[H])c(C(=O)N([H])[H])c5N([H])[H])C4([H])[H])c3F)C([H])([H])[H])c([H])c([H])c2C1([H])[H]

$$$$
39:0:0
     RDKit          3D

 96104  0  0  1  0  0  0  0  0999 V2000
  -30.3940  -21.6830   20.3920 C   0  0  0  0  0  0  0  0  0  0  0  0
  -29.5260  -24.1340   20.4240 C   0  0  0  0  0  0  0  0  0  0  0  0
  -29.3970  -22.6440   20.4720 N   0  0  0  0  0  0  0  0  0  0  0  0
  -31.6590  -22.1160   20.3420 N   0  0  0  0  0  4  0  0  0  0  0  0
  -30.6250  -24.6620   20.2050 O   0  0  0  0  0  0  0  0  0  0  0  0
  -28.4890  -22.2260   20.5960 H   0  0  0  0  0  0  0  0  0  0  0  0
  -32.4040  -21.4590   20.1580 H   0  0  0  0  0  0  0  0  0  0  0  0
  -31.8390  -23.1130   20.2920 H   0  0  0  0  0  0  0  0  0  0  0  0
  -29.2430  -19.4730   21.1530 C   0  0  0  0  0  3  0  0  0  0  0  0
  -29.1720  -18.0430   21.1990 C   0  0  0  0  0  3  0  0  0  0  0  0
  -31.0390  -17.8790   19.7080 C   0  0  0  0  0  3  0  0  0  0  0  0
  -30.2190  -20.1590   20.3820 C   0  0  0  0  0  0  0  0  0  0  0  0
  -30.0750  -17.1930   20.4950 C   0  0  0  0  0  0  0  0  0  0  0  0
  -31.1070  -19.3050   19.6500 C   0  0  0  0  0  0  0  0  0  0  0  0
  -32.0870  -19.8480   18.8840 F   0  0  0  0  0  0  0  0  0  0  0  0
  -30.6650  -14.6860   20.0710 C   0  0  0  0  0  0  0  0  0  0  0  0
  -30.3790  -12.4860   18.9370 C   0  0  0  0  0  2  0  0  0  0  0  0
  -29.3700  -12.6490   17.7790 C   0  0  0  0  0  2  0  0  0  0  0  0
  -27.9210  -12.4820   18.2800 C   0  0  0  0  0  2  0  0  0  0  0  0
  -27.6350  -13.3020   19.5650 C   0  0  0  0  0  3  0  0  0  0  0  0
  -28.7520  -13.1090   20.6170 C   0  0  0  0  0  2  0  0  0  0  0  0
  -30.0300  -13.4710   19.9830 N   0  0  0  0  0  0  0  0  0  0  0  0
  -31.7910  -14.8460   19.5910 O   0  0  0  0  0  0  0  0  0  0  0  0
  -29.9310  -15.7290   20.5830 N   0  0  0  0  0  0  0  0  0  0  0  0
  -29.0870  -15.4200   21.0390 H   0  0  0  0  0  0  0  0  0  0  0  0
  -25.2790  -13.8760   20.4170 C   0  0  0  0  0  0  0  0  0  0  0  0
  -24.2350  -13.0930   20.8250 C   0  0  0  0  0  0  0  0  0  0  0  0
  -24.6970  -11.7440   20.7420 C   0  0  0  0  0  0  0  0  0  0  0  0
  -26.3130  -13.0050   20.1120 N   0  0  0  0  0  0  0  0  0  0  0  0
  -25.9700  -11.7160   20.3670 N   0  0  0  0  0  0  0  0  0  0  0  0
  -23.9830  -10.4750   20.9420 C   0  0  0  0  0  0  0  0  0  0  0  0
  -24.4240   -9.5190   21.8810 C   0  0  0  0  0  3  0  0  0  0  0  0
  -23.7090   -8.3150   22.0670 C   0  0  0  0  0  3  0  0  0  0  0  0
  -22.5380   -8.0620   21.3140 C   0  0  0  0  0  0  0  0  0  0  0  0
  -22.1170   -9.0070   20.3630 C   0  0  0  0  0  3  0  0  0  0  0  0
  -22.8330  -10.2010   20.1740 C   0  0  0  0  0  3  0  0  0  0  0  0
  -21.7940   -6.9110   21.4100 O   0  0  0  0  0  0  0  0  0  0  0  0
  -21.7000   -6.2100   22.5860 C   0  0  0  0  0  0  0  0  0  0  0  0
  -21.1880   -6.7960   23.7640 C   0  0  0  0  0  3  0  0  0  0  0  0
  -21.0420   -6.0190   24.9310 C   0  0  0  0  0  3  0  0  0  0  0  0
  -21.4030   -4.6590   24.9220 C   0  0  0  0  0  0  0  0  0  0  0  0
  -21.9090   -4.0720   23.7490 C   0  0  0  0  0  3  0  0  0  0  0  0
  -22.0560   -4.8460   22.5830 C   0  0  0  0  0  0  0  0  0  0  0  0
  -22.5230   -4.2710   21.4490 F   0  0  0  0  0  0  0  0  0  0  0  0
  -21.2570   -3.9110   26.0390 F   0  0  0  0  0  0  0  0  0  0  0  0
  -22.8520  -13.5610   21.1780 C   0  0  0  0  0  0  0  0  0  0  0  0
  -22.1680  -12.8410   22.0620 N   0  0  0  0  0  0  0  0  0  0  0  0
  -22.3890  -14.5980   20.7060 O   0  0  0  0  0  0  0  0  0  0  0  0
  -22.5580  -12.0020   22.4660 H   0  0  0  0  0  0  0  0  0  0  0  0
  -21.2420  -13.1330   22.3390 H   0  0  0  0  0  0  0  0  0  0  0  0
  -25.4310  -15.2510   20.2600 N   0  0  0  0  0  0  0  0  0  0  0  0
  -24.6630  -15.8950   20.4160 H   0  0  0  0  0  0  0  0  0  0  0  0
  -26.2420  -15.6960   19.8490 H   0  0  0  0  0  0  0  0  0  0  0  0
  -26.9680  -24.2540   20.3950 C   0  0  0  0  0  1  0  0  0  0  0  0
  -28.2600  -25.0550   20.6920 C   0  0  0  0  0  3  0  0  0  0  0  0
  -28.3800  -26.4420   20.1200 O   0  0  0  0  0  0  0  0  0  0  0  0
  -24.6250  -31.8330   23.1800 C   0  0  0  0  0  0  0  0  0  0  0  0
  -27.2720  -27.3090   20.1080 C   0  0  0  0  0  0  0  0  0  0  0  0
  -23.4360  -30.4460   21.5200 C   0  0  0  0  0  3  0  0  0  0  0  0
  -24.9050  -28.9230   20.0860 C   0  0  0  0  0  0  0  0  0  0  0  0
  -25.9770  -30.7730   21.3600 C   0  0  0  0  0  2  0  0  0  0  0  0
  -26.0660  -29.3990   20.7110 C   0  0  0  0  0  0  0  0  0  0  0  0
  -27.2510  -28.6010   20.7230 C   0  0  0  0  0  3  0  0  0  0  0  0
  -26.1110  -26.9320   19.3970 C   0  0  0  0  0  3  0  0  0  0  0  0
  -24.9310  -27.6920   19.4180 C   0  0  0  0  0  3  0  0  0  0  0  0
  -23.6620  -29.7890   20.1340 C   0  0  0  0  0  2  0  0  0  0  0  0
  -24.6980  -31.0360   22.0760 N   0  0  0  0  0  0  0  0  0  0  0  0
  -23.5370  -32.1000   23.7120 O   0  0  0  0  0  0  0  0  0  0  0  0
  -22.7770  -29.4120   22.4660 C   0  0  0  0  0  0  0  0  0  0  0  0
  -21.4490  -29.2450   22.3450 N   0  0  0  0  0  0  0  0  0  0  0  0
  -23.4560  -28.7690   23.2700 O   0  0  0  0  0  0  0  0  0  0  0  0
  -20.9590  -29.8170   21.6710 H   0  0  0  0  0  0  0  0  0  0  0  0
  -18.0630  -28.0920   22.8750 C   0  0  0  0  0  0  0  0  0  0  0  0
  -20.6280  -28.3010   23.1050 C   0  0  0  0  0  3  0  0  0  0  0  0
  -20.6960  -26.8840   22.4900 C   0  0  0  0  0  2  0  0  0  0  0  0
  -19.5710  -26.6080   21.4880 C   0  0  0  0  0  2  0  0  0  0  0  0
  -18.2030  -26.7580   22.1610 C   0  0  0  0  0  2  0  0  0  0  0  0
  -19.2010  -28.8240   23.3050 C   0  0  0  0  0  0  0  0  0  0  0  0
  -19.0140  -30.0740   23.9330 C   0  0  0  0  0  3  0  0  0  0  0  0
  -17.7210  -30.5910   24.1380 C   0  0  0  0  0  3  0  0  0  0  0  0
  -16.5970  -29.8560   23.7240 C   0  0  0  0  0  3  0  0  0  0  0  0
  -16.7690  -28.6080   23.0980 C   0  0  0  0  0  3  0  0  0  0  0  0
  -25.9020  -32.4660   23.8130 C   0  0  0  0  0  3  0  0  0  0  0  0
  -25.5860  -33.8620   24.1460 N   0  0  0  0  0  0  0  0  0  0  0  0
  -25.9230  -34.9200   23.3950 C   0  0  0  0  0  0  0  0  0  0  0  0
  -26.6030  -34.8230   22.3700 O   0  0  0  0  0  0  0  0  0  0  0  0
  -24.9820  -34.0120   24.9410 H   0  0  0  0  0  0  0  0  0  0  0  0
  -24.2010  -36.7160   23.0250 C   0  0  0  0  0  1  0  0  0  0  0  0
  -25.4280  -36.3040   23.8550 C   0  0  0  0  0  3  0  0  0  0  0  0
  -27.5460  -37.1850   24.7340 C   0  0  0  0  0  1  0  0  0  0  0  0
  -26.4620  -37.3580   23.7700 N   0  0  0  0  0  0  0  0  0  0  0  0
  -26.0520  -38.2770   23.9160 H   0  0  0  0  0  0  0  0  0  0  0  0
  -26.4110  -31.6910   25.0890 C   0  0  1  0  0  0  0  0  0  0  0  0
  -25.3100  -31.4440   26.1460 C   0  0  0  0  0  1  0  0  0  0  0  0
  -27.0040  -30.3170   24.6960 C   0  0  0  0  0  1  0  0  0  0  0  0
  -27.5520  -32.4880   25.7650 C   0  0  0  0  0  1  0  0  0  0  0  0
  1  3  1  0
  2  3  1  0
  2 55  1  0
  3  6  1  0
  4  1  2  0
  5  2  2  0
  7  4  1  0
  8  4  1  0
  9 10  1  0
 11 13  1  0
 12  1  1  0
 12  9  2  0
 13 24  1  0
 13 10  2  0
 14 11  2  0
 14 12  1  0
 15 14  1  0
 16 24  1  0
 17 22  1  0
 18 19  1  0
 18 17  1  0
 20 19  1  0
 20 29  1  0
 20 21  1  0
 22 16  1  0
 22 21  1  0
 23 16  2  0
 24 25  1  0
 26 27  2  0
 27 46  1  0
 28 27  1  0
 28 31  1  0
 29 30  1  0
 29 26  1  0
 30 28  2  0
 31 32  1  0
 32 33  2  0
 34 37  1  0
 34 33  1  0
 35 34  2  0
 36 35  1  0
 36 31  2  0
 37 38  1  0
 38 39  1  0
 39 40  2  0
 41 40  1  0
 41 45  1  0
 42 41  2  0
 43 38  2  0
 43 42  1  0
 44 43  1  0
 46 47  1  0
 47 50  1  0
 47 49  1  0
 48 46  2  0
 51 52  1  0
 51 26  1  0
 53 51  1  0
 55 54  1  0
 56 55  1  0
 57 68  2  0
 58 56  1  0
 58 63  1  0
 59 67  1  0
 59 69  1  0
 60 66  1  0
 60 62  1  0
 61 67  1  0
 62 63  2  0
 62 61  1  0
 64 65  1  0
 64 58  2  0
 65 60  2  0
 66 59  1  0
 67 57  1  0
 69 71  2  0
 70 69  1  0
 72 70  1  0
 73 82  2  0
 73 78  1  0
 74 70  1  0
 74 78  1  0
 75 74  1  0
 76 77  1  0
 76 75  1  0
 77 73  1  0
 78 79  2  0
 79 80  1  0
 81 80  2  0
 82 81  1  0
 83 57  1  0
 83 84  1  0
 83 93  1  0
 84 87  1  0
 85 89  1  0
 85 84  1  0
 86 85  2  0
 89 88  1  0
 91 89  1  0
 91 92  1  0
 91 90  1  0
 93 96  1  1
 93 94  1  0
 95 93  1  0
M  ISO  4  16 100  24 100  55 101  56 101
M  END
>  <TORSDO>  (40) 
F 18

>  <SCORE>  (40) 
-14.155

>  <name>  (40) 
39

>  <ligand_id>  (40) 
39

>  <original_smiles>  (40) 
[H]c1c([H])c([H])c2c(c1[H])C([H])([H])C([H])([H])C([H])([H])C2([H])N([H])C(=O)C1([H])N(C(=O)C([H])(N([H])C(=O)C([H])(N([H])C([H])([H])[H])C([H])([H])[H])C(C([H])([H])[H])(C([H])([H])[H])C([H])([H])[H])C([H])([H])c2c([H])c(OC([H])(C(=O)N([H])C(c3c([H])c([H])c(N([H])C(=O)N4C([H])([H])C([H])([H])C([H])([H])C([H])(n5nc(-c6c([H])c([H])c(Oc7c([H])c([H])c(F)c([H])c7F)c([H])c6[H])c(C(=O)N([H])[H])c5N([H])[H])C4([H])[H])c([H])c3F)=[N+]([H])[H])C([H])([H])[H])c([H])c([H])c2C1([H])[H]

>  <smiles>  (40) 
[H]c1c([H])c([H])c2c(c1[H])C([H])([H])C([H])([H])C([H])([H])C2([H])N([H])C(=O)C1([H])N(C(=O)C([H])(N([H])C(=O)C([H])(N([H])C([H])([H])[H])C([H])([H])[H])C(C([H])([H])[H])(C([H])([H])[H])C([H])([H])[H])C([H])([H])c2c([H])c(OC([H])(C(=O)N([H])C(c3c([H])c([H])c(N([H])C(=O)N4C([H])([H])C([H])([H])C([H])([H])C([H])(n5nc(-c6c([H])c([H])c(Oc7c([H])c([H])c(F)c([H])c7F)c([H])c6[H])c(C(=O)N([H])[H])c5N([H])[H])C4([H])[H])c([H])c3F)=[N+]([H])[H])C([H])([H])[H])c([H])c([H])c2C1([H])[H]

$$$$
40:0:0
     RDKit          3D

 94103  0  0  1  0  0  0  0  0999 V2000
  -30.2660  -23.3590   20.4200 C   0  0  0  0  0  0  0  0  0  0  0  0
  -30.5540  -21.8210   20.4510 C   0  0  0  0  0  0  0  0  0  0  0  0
  -28.2780  -22.1520   20.2530 C   0  0  0  0  0  2  0  0  0  0  0  0
  -28.7820  -23.6260   20.6110 C   0  0  0  0  0  3  0  0  0  0  0  0
  -29.3890  -21.1340   20.4020 N   0  0  0  0  0  0  0  0  0  0  0  0
  -31.1190  -24.2450   20.2740 O   0  0  0  0  0  0  0  0  0  0  0  0
  -31.6890  -21.3320   20.5240 O   0  0  0  0  0  0  0  0  0  0  0  0
  -29.3460  -17.0530   18.8220 C   0  0  0  0  0  3  0  0  0  0  0  0
  -29.0600  -18.1890   18.0440 C   0  0  0  0  0  3  0  0  0  0  0  0
  -29.6340  -18.5110   20.7550 C   0  0  0  0  0  3  0  0  0  0  0  0
  -29.3440  -19.7070   19.9610 C   0  0  0  0  0  0  0  0  0  0  0  0
  -29.6480  -17.1590   20.1960 C   0  0  0  0  0  0  0  0  0  0  0  0
  -29.0610  -19.4830   18.5930 C   0  0  0  0  0  0  0  0  0  0  0  0
  -28.8210  -20.5280   17.7660 F   0  0  0  0  0  0  0  0  0  0  0  0
  -30.5460  -14.7590   20.5800 C   0  0  0  0  0  0  0  0  0  0  0  0
  -30.3710  -12.4690   19.6010 C   0  0  0  0  0  2  0  0  0  0  0  0
  -29.4760  -12.5550   18.3440 C   0  0  0  0  0  2  0  0  0  0  0  0
  -27.9970  -12.3720   18.7280 C   0  0  0  0  0  2  0  0  0  0  0  0
  -27.5880  -13.2670   19.9280 C   0  0  0  0  0  3  0  0  0  0  0  0
  -28.6080  -13.1860   21.0870 C   0  0  0  0  0  2  0  0  0  0  0  0
  -29.9300  -13.5270   20.5430 N   0  0  0  0  0  0  0  0  0  0  0  0
  -31.7150  -14.8740   20.1980 O   0  0  0  0  0  0  0  0  0  0  0  0
  -29.8050  -15.8790   20.9320 N   0  0  0  0  0  0  0  0  0  0  0  0
  -29.0040  -15.6470   21.5020 H   0  0  0  0  0  0  0  0  0  0  0  0
  -25.1750  -13.8620   20.5620 C   0  0  0  0  0  0  0  0  0  0  0  0
  -24.0990  -13.0890   20.9070 C   0  0  0  0  0  0  0  0  0  0  0  0
  -24.5670  -11.7400   20.9100 C   0  0  0  0  0  0  0  0  0  0  0  0
  -26.2290  -12.9820   20.3740 N   0  0  0  0  0  0  0  0  0  0  0  0
  -25.8670  -11.7010   20.6470 N   0  0  0  0  0  0  0  0  0  0  0  0
  -23.8370  -10.4780   21.0950 C   0  0  0  0  0  0  0  0  0  0  0  0
  -24.2570   -9.5120   22.0350 C   0  0  0  0  0  3  0  0  0  0  0  0
  -23.5260   -8.3170   22.2090 C   0  0  0  0  0  3  0  0  0  0  0  0
  -22.3600   -8.0800   21.4420 C   0  0  0  0  0  0  0  0  0  0  0  0
  -21.9600   -9.0340   20.4900 C   0  0  0  0  0  3  0  0  0  0  0  0
  -22.6930  -10.2200   20.3140 C   0  0  0  0  0  3  0  0  0  0  0  0
  -21.6030   -6.9370   21.5240 O   0  0  0  0  0  0  0  0  0  0  0  0
  -21.5580   -6.1830   22.6700 C   0  0  0  0  0  0  0  0  0  0  0  0
  -21.1560   -6.7330   23.9070 C   0  0  0  0  0  3  0  0  0  0  0  0
  -21.0550   -5.9070   25.0440 C   0  0  0  0  0  3  0  0  0  0  0  0
  -21.3470   -4.5340   24.9460 C   0  0  0  0  0  0  0  0  0  0  0  0
  -21.7430   -3.9850   23.7140 C   0  0  0  0  0  3  0  0  0  0  0  0
  -21.8440   -4.8070   22.5780 C   0  0  0  0  0  0  0  0  0  0  0  0
  -22.2050   -4.2670   21.3900 F   0  0  0  0  0  0  0  0  0  0  0  0
  -21.2430   -3.7390   26.0370 F   0  0  0  0  0  0  0  0  0  0  0  0
  -22.6930  -13.5670   21.1270 C   0  0  0  0  0  0  0  0  0  0  0  0
  -21.9390  -12.8810   21.9800 N   0  0  0  0  0  0  0  0  0  0  0  0
  -22.2710  -14.5840   20.5800 O   0  0  0  0  0  0  0  0  0  0  0  0
  -22.2930  -12.0530   22.4370 H   0  0  0  0  0  0  0  0  0  0  0  0
  -20.9980  -13.1870   22.1790 H   0  0  0  0  0  0  0  0  0  0  0  0
  -25.3410  -15.2310   20.3720 N   0  0  0  0  0  0  0  0  0  0  0  0
  -24.5680  -15.8830   20.4520 H   0  0  0  0  0  0  0  0  0  0  0  0
  -26.2000  -15.6730   20.0700 H   0  0  0  0  0  0  0  0  0  0  0  0
  -28.0980  -24.9100   19.8830 C   0  0  0  0  0  2  0  0  0  0  0  0
  -28.2800  -26.3660   20.2550 O   0  0  0  0  0  0  0  0  0  0  0  0
  -24.6100  -31.8850   23.2390 C   0  0  0  0  0  0  0  0  0  0  0  0
  -27.1930  -27.2770   20.1660 C   0  0  0  0  0  0  0  0  0  0  0  0
  -23.4000  -30.4910   21.6020 C   0  0  0  0  0  3  0  0  0  0  0  0
  -24.8440  -28.9440   20.1620 C   0  0  0  0  0  0  0  0  0  0  0  0
  -25.9450  -30.7890   21.4180 C   0  0  0  0  0  2  0  0  0  0  0  0
  -26.0180  -29.4080   20.7670 C   0  0  0  0  0  0  0  0  0  0  0  0
  -27.1920  -28.5830   20.7670 C   0  0  0  0  0  3  0  0  0  0  0  0
  -26.0030  -26.9070   19.4950 C   0  0  0  0  0  3  0  0  0  0  0  0
  -24.8430  -27.7030   19.5140 C   0  0  0  0  0  3  0  0  0  0  0  0
  -23.6110  -29.8270   20.2180 C   0  0  0  0  0  2  0  0  0  0  0  0
  -24.6710  -31.0730   22.1430 N   0  0  0  0  0  0  0  0  0  0  0  0
  -23.5270  -32.1660   23.7740 O   0  0  0  0  0  0  0  0  0  0  0  0
  -22.7370  -29.4720   22.5610 C   0  0  0  0  0  0  0  0  0  0  0  0
  -21.4090  -29.2990   22.4410 N   0  0  0  0  0  0  0  0  0  0  0  0
  -23.4160  -28.8440   23.3760 O   0  0  0  0  0  0  0  0  0  0  0  0
  -20.9170  -29.8590   21.7590 H   0  0  0  0  0  0  0  0  0  0  0  0
  -18.0360  -28.0920   22.9480 C   0  0  0  0  0  0  0  0  0  0  0  0
  -20.5930  -28.3610   23.2160 C   0  0  0  0  0  3  0  0  0  0  0  0
  -20.7010  -26.9280   22.6460 C   0  0  0  0  0  2  0  0  0  0  0  0
  -19.5990  -26.5970   21.6340 C   0  0  0  0  0  2  0  0  0  0  0  0
  -18.2160  -26.7400   22.2770 C   0  0  0  0  0  2  0  0  0  0  0  0
  -19.1510  -28.8600   23.3740 C   0  0  0  0  0  0  0  0  0  0  0  0
  -18.9280  -30.1230   23.9640 C   0  0  0  0  0  3  0  0  0  0  0  0
  -17.6210  -30.6200   24.1290 C   0  0  0  0  0  3  0  0  0  0  0  0
  -16.5210  -29.8500   23.7160 C   0  0  0  0  0  3  0  0  0  0  0  0
  -16.7280  -28.5880   23.1320 C   0  0  0  0  0  3  0  0  0  0  0  0
  -25.8930  -32.5200   23.8550 C   0  0  0  0  0  3  0  0  0  0  0  0
  -25.5810  -33.9170   24.1930 N   0  0  0  0  0  0  0  0  0  0  0  0
  -25.9030  -34.9740   23.4360 C   0  0  0  0  0  0  0  0  0  0  0  0
  -26.5600  -34.8770   22.3960 O   0  0  0  0  0  0  0  0  0  0  0  0
  -24.9980  -34.0670   25.0030 H   0  0  0  0  0  0  0  0  0  0  0  0
  -24.1650  -36.7650   23.1110 C   0  0  0  0  0  1  0  0  0  0  0  0
  -25.4180  -36.3590   23.9040 C   0  0  0  0  0  3  0  0  0  0  0  0
  -27.5620  -37.2460   24.7090 C   0  0  0  0  0  1  0  0  0  0  0  0
  -26.4460  -37.4160   23.7830 N   0  0  0  0  0  0  0  0  0  0  0  0
  -26.0390  -38.3330   23.9450 H   0  0  0  0  0  0  0  0  0  0  0  0
  -26.4170  -31.7460   25.1270 C   0  0  1  0  0  0  0  0  0  0  0  0
  -25.3300  -31.5030   26.2010 C   0  0  0  0  0  1  0  0  0  0  0  0
  -27.0000  -30.3700   24.7300 C   0  0  0  0  0  1  0  0  0  0  0  0
  -27.5720  -32.5390   25.7840 C   0  0  0  0  0  1  0  0  0  0  0  0
  1  2  1  0
  1  4  1  0
  2  7  2  0
  3  5  1  0
  3  4  1  0
  4 53  1  0
  5  2  1  0
  6  1  2  0
  8 12  1  0
  9 13  1  0
  9  8  2  0
 11  5  1  0
 11 10  1  0
 12 10  2  0
 12 23  1  0
 13 11  2  0
 14 13  1  0
 15 23  1  0
 16 21  1  0
 17 18  1  0
 17 16  1  0
 19 18  1  0
 19 28  1  0
 19 20  1  0
 21 15  1  0
 21 20  1  0
 22 15  2  0
 23 24  1  0
 25 26  2  0
 26 27  1  0
 26 45  1  0
 27 30  1  0
 28 25  1  0
 28 29  1  0
 29 27  2  0
 30 31  1  0
 31 32  2  0
 33 36  1  0
 33 32  1  0
 34 33  2  0
 35 34  1  0
 35 30  2  0
 36 37  1  0
 37 38  1  0
 38 39  2  0
 40 39  1  0
 40 44  1  0
 41 40  2  0
 42 37  2  0
 42 41  1  0
 43 42  1  0
 45 46  1  0
 46 49  1  0
 46 48  1  0
 47 45  2  0
 50 51  1  0
 50 25  1  0
 52 50  1  0
 53 54  1  0
 55 66  2  0
 56 54  1  0
 56 61  1  0
 57 65  1  0
 57 67  1  0
 58 64  1  0
 58 60  1  0
 59 65  1  0
 60 61  2  0
 60 59  1  0
 62 63  1  0
 62 56  2  0
 63 58  2  0
 64 57  1  0
 65 55  1  0
 67 69  2  0
 68 67  1  0
 70 68  1  0
 71 80  2  0
 71 76  1  0
 72 68  1  0
 72 76  1  0
 73 72  1  0
 74 75  1  0
 74 73  1  0
 75 71  1  0
 76 77  2  0
 77 78  1  0
 79 78  2  0
 80 79  1  0
 81 55  1  0
 81 82  1  0
 81 91  1  0
 82 85  1  0
 83 87  1  0
 83 82  1  0
 84 83  2  0
 87 86  1  0
 89 87  1  0
 89 90  1  0
 89 88  1  0
 91 94  1  1
 91 92  1  0
 93 91  1  0
M  ISO  4  15 100  23 100  53 101  54 101
M  END
>  <TORSDO>  (41) 
F 18

>  <SCORE>  (41) 
-14.815

>  <name>  (41) 
40

>  <ligand_id>  (41) 
40

>  <original_smiles>  (41) 
[H]c1c([H])c([H])c2c(c1[H])C([H])([H])C([H])([H])C([H])([H])C2([H])N([H])C(=O)C1([H])N(C(=O)C([H])(N([H])C(=O)C([H])(N([H])C([H])([H])[H])C([H])([H])[H])C(C([H])([H])[H])(C([H])([H])[H])C([H])([H])[H])C([H])([H])c2c([H])c(OC([H])([H])C3([H])C(=O)C(=O)N(c4c([H])c(N([H])C(=O)N5C([H])([H])C([H])([H])C([H])([H])C([H])(n6nc(-c7c([H])c([H])c(Oc8c([H])c([H])c(F)c([H])c8F)c([H])c7[H])c(C(=O)N([H])[H])c6N([H])[H])C5([H])[H])c([H])c([H])c4F)C3([H])[H])c([H])c([H])c2C1([H])[H]

>  <smiles>  (41) 
[H]c1c([H])c([H])c2c(c1[H])C([H])([H])C([H])([H])C([H])([H])C2([H])N([H])C(=O)C1([H])N(C(=O)C([H])(N([H])C(=O)C([H])(N([H])C([H])([H])[H])C([H])([H])[H])C(C([H])([H])[H])(C([H])([H])[H])C([H])([H])[H])C([H])([H])c2c([H])c(OC([H])([H])C3([H])C(=O)C(=O)N(c4c([H])c(N([H])C(=O)N5C([H])([H])C([H])([H])C([H])([H])C([H])(n6nc(-c7c([H])c([H])c(Oc8c([H])c([H])c(F)c([H])c8F)c([H])c7[H])c(C(=O)N([H])[H])c6N([H])[H])C5([H])[H])c([H])c([H])c4F)C3([H])[H])c([H])c([H])c2C1([H])[H]

$$$$
41:0:0
     RDKit          3D

 98107  0  0  1  0  0  0  0  0999 V2000
  -30.4900  -20.0850   20.5600 C   0  0  0  0  0  3  0  0  0  0  0  0
  -29.0350  -18.1330   20.4930 C   0  0  0  0  0  3  0  0  0  0  0  0
  -31.4080  -17.8520   20.9530 C   0  0  0  0  0  3  0  0  0  0  0  0
  -29.2040  -19.5390   20.3750 C   0  0  0  0  0  0  0  0  0  0  0  0
  -31.5870  -19.2520   20.8630 C   0  0  0  0  0  0  0  0  0  0  0  0
  -30.1320  -17.2740   20.7690 C   0  0  0  0  0  0  0  0  0  0  0  0
  -30.7550  -14.8460   20.6660 C   0  0  0  0  0  0  0  0  0  0  0  0
  -30.6650  -12.5370   19.7980 C   0  0  0  0  0  2  0  0  0  0  0  0
  -29.7850  -12.5520   18.5310 C   0  0  0  0  0  2  0  0  0  0  0  0
  -28.2900  -12.3950   18.8820 C   0  0  0  0  0  2  0  0  0  0  0  0
  -27.8400  -13.3300   20.0390 C   0  0  0  0  0  3  0  0  0  0  0  0
  -28.8450  -13.2870   21.2130 C   0  0  0  0  0  2  0  0  0  0  0  0
  -30.1790  -13.6120   20.6760 N   0  0  0  0  0  0  0  0  0  0  0  0
  -31.9100  -15.0340   20.2670 O   0  0  0  0  0  0  0  0  0  0  0  0
  -29.9130  -15.8690   20.9370 N   0  0  0  0  0  0  0  0  0  0  0  0
  -28.9630  -15.5850   21.1280 H   0  0  0  0  0  0  0  0  0  0  0  0
  -25.4220  -13.8990   20.7010 C   0  0  0  0  0  0  0  0  0  0  0  0
  -24.3530  -13.1110   21.0310 C   0  0  0  0  0  0  0  0  0  0  0  0
  -24.8240  -11.7630   20.9770 C   0  0  0  0  0  0  0  0  0  0  0  0
  -26.4780  -13.0310   20.4760 N   0  0  0  0  0  0  0  0  0  0  0  0
  -26.1210  -11.7400   20.6960 N   0  0  0  0  0  0  0  0  0  0  0  0
  -24.1020  -10.4920   21.1210 C   0  0  0  0  0  0  0  0  0  0  0  0
  -24.4950   -9.5270   22.0750 C   0  0  0  0  0  3  0  0  0  0  0  0
  -23.7740   -8.3220   22.2110 C   0  0  0  0  0  3  0  0  0  0  0  0
  -22.6470   -8.0710   21.3910 C   0  0  0  0  0  0  0  0  0  0  0  0
  -22.2760   -9.0240   20.4260 C   0  0  0  0  0  3  0  0  0  0  0  0
  -22.9970  -10.2210   20.2890 C   0  0  0  0  0  3  0  0  0  0  0  0
  -21.9050   -6.9150   21.4310 O   0  0  0  0  0  0  0  0  0  0  0  0
  -21.7580   -6.1940   22.5900 C   0  0  0  0  0  0  0  0  0  0  0  0
  -21.1940   -6.7580   23.7550 C   0  0  0  0  0  3  0  0  0  0  0  0
  -20.9960   -5.9620   24.9000 C   0  0  0  0  0  3  0  0  0  0  0  0
  -21.3560   -4.6020   24.8840 C   0  0  0  0  0  0  0  0  0  0  0  0
  -21.9170   -4.0360   23.7240 C   0  0  0  0  0  3  0  0  0  0  0  0
  -22.1140   -4.8290   22.5810 C   0  0  0  0  0  0  0  0  0  0  0  0
  -22.6310   -4.2730   21.4600 F   0  0  0  0  0  0  0  0  0  0  0  0
  -21.1610   -3.8350   25.9820 F   0  0  0  0  0  0  0  0  0  0  0  0
  -22.9470  -13.5690   21.2860 C   0  0  0  0  0  0  0  0  0  0  0  0
  -22.2110  -12.8530   22.1300 N   0  0  0  0  0  0  0  0  0  0  0  0
  -22.5060  -14.5960   20.7670 O   0  0  0  0  0  0  0  0  0  0  0  0
  -22.5810  -12.0240   22.5710 H   0  0  0  0  0  0  0  0  0  0  0  0
  -21.2640  -13.1340   22.3360 H   0  0  0  0  0  0  0  0  0  0  0  0
  -25.5830  -15.2750   20.5550 N   0  0  0  0  0  0  0  0  0  0  0  0
  -24.8120  -15.9260   20.6560 H   0  0  0  0  0  0  0  0  0  0  0  0
  -26.4320  -15.7200   20.2330 H   0  0  0  0  0  0  0  0  0  0  0  0
  -33.2650  -20.3120   22.3000 C   0  0  0  0  0  0  0  0  0  0  0  0
  -34.5250  -21.1440   22.1560 C   0  0  0  0  0  2  0  0  0  0  0  0
  -34.7400  -21.2250   20.6420 C   0  0  0  0  0  2  0  0  0  0  0  0
  -33.7610  -20.2150   20.0290 C   0  0  0  0  0  2  0  0  0  0  0  0
  -32.8540  -19.8420   21.1100 N   0  0  0  0  0  0  0  0  0  0  0  0
  -32.7240  -20.1230   23.3950 O   0  0  0  0  0  0  0  0  0  0  0  0
  -27.9920  -20.4440   20.1000 C   0  0  0  0  0  2  0  0  0  0  0  0
  -27.8880  -22.9540   20.3090 C   0  0  0  0  0  0  0  0  0  0  0  0
  -28.2740  -21.8290   19.6700 N   0  0  0  0  0  0  0  0  0  0  0  0
  -27.3930  -22.9200   21.4370 O   0  0  0  0  0  0  0  0  0  0  0  0
  -28.6860  -21.9330   18.7520 H   0  0  0  0  0  0  0  0  0  0  0  0
  -28.0370  -24.3080   19.5720 C   0  0  0  0  0  2  0  0  0  0  0  0
  -27.7830  -25.5660   20.4520 C   0  0  0  0  0  2  0  0  0  0  0  0
  -27.9160  -26.8350   19.7670 O   0  0  0  0  0  0  0  0  0  0  0  0
  -24.5530  -31.9910   23.3940 C   0  0  0  0  0  0  0  0  0  0  0  0
  -26.8120  -27.6620   19.8640 C   0  0  0  0  0  0  0  0  0  0  0  0
  -23.1980  -30.7540   21.7410 C   0  0  0  0  0  3  0  0  0  0  0  0
  -24.4970  -29.2690   20.1250 C   0  0  0  0  0  0  0  0  0  0  0  0
  -25.7230  -31.0270   21.4110 C   0  0  0  0  0  2  0  0  0  0  0  0
  -25.7130  -29.7040   20.6680 C   0  0  0  0  0  0  0  0  0  0  0  0
  -26.8780  -28.9120   20.5240 C   0  0  0  0  0  3  0  0  0  0  0  0
  -25.5820  -27.2540   19.3030 C   0  0  0  0  0  3  0  0  0  0  0  0
  -24.4300  -28.0470   19.4360 C   0  0  0  0  0  3  0  0  0  0  0  0
  -23.2950  -30.1680   20.3070 C   0  0  0  0  0  2  0  0  0  0  0  0
  -24.5150  -31.2670   22.2400 N   0  0  0  0  0  0  0  0  0  0  0  0
  -23.5160  -32.2620   24.0180 O   0  0  0  0  0  0  0  0  0  0  0  0
  -22.5610  -29.6920   22.6680 C   0  0  0  0  0  0  0  0  0  0  0  0
  -21.2390  -29.4950   22.5350 N   0  0  0  0  0  0  0  0  0  0  0  0
  -23.2550  -29.0520   23.4620 O   0  0  0  0  0  0  0  0  0  0  0  0
  -20.7400  -30.0670   21.8680 H   0  0  0  0  0  0  0  0  0  0  0  0
  -17.8970  -28.1710   22.9310 C   0  0  0  0  0  0  0  0  0  0  0  0
  -20.4350  -28.5220   23.2760 C   0  0  0  0  0  3  0  0  0  0  0  0
  -20.6060  -27.1010   22.6920 C   0  0  0  0  0  2  0  0  0  0  0  0
  -19.5460  -26.7460   21.6450 C   0  0  0  0  0  2  0  0  0  0  0  0
  -18.1420  -26.8370   22.2490 C   0  0  0  0  0  2  0  0  0  0  0  0
  -18.9740  -28.9720   23.3970 C   0  0  0  0  0  0  0  0  0  0  0  0
  -18.6930  -30.2220   23.9910 C   0  0  0  0  0  3  0  0  0  0  0  0
  -17.3660  -30.6750   24.1180 C   0  0  0  0  0  3  0  0  0  0  0  0
  -16.3020  -29.8730   23.6670 C   0  0  0  0  0  3  0  0  0  0  0  0
  -16.5690  -28.6210   23.0840 C   0  0  0  0  0  3  0  0  0  0  0  0
  -25.8960  -32.5320   23.9770 C   0  0  0  0  0  3  0  0  0  0  0  0
  -25.6820  -33.9290   24.3740 N   0  0  0  0  0  0  0  0  0  0  0  0
  -26.0570  -34.9920   23.6490 C   0  0  0  0  0  0  0  0  0  0  0  0
  -26.6940  -34.8930   22.5960 O   0  0  0  0  0  0  0  0  0  0  0  0
  -25.1160  -34.0830   25.1960 H   0  0  0  0  0  0  0  0  0  0  0  0
  -24.4320  -36.8970   23.4080 C   0  0  0  0  0  1  0  0  0  0  0  0
  -25.6600  -36.3860   24.1750 C   0  0  0  0  0  3  0  0  0  0  0  0
  -27.8570  -37.1030   25.0010 C   0  0  0  0  0  1  0  0  0  0  0  0
  -26.7520  -37.3780   24.0870 N   0  0  0  0  0  0  0  0  0  0  0  0
  -26.4070  -38.3130   24.2810 H   0  0  0  0  0  0  0  0  0  0  0  0
  -26.4320  -31.6830   25.1950 C   0  0  1  0  0  0  0  0  0  0  0  0
  -25.3780  -31.4450   26.3040 C   0  0  0  0  0  1  0  0  0  0  0  0
  -26.9240  -30.2970   24.7180 C   0  0  0  0  0  1  0  0  0  0  0  0
  -27.6540  -32.3890   25.8290 C   0  0  0  0  0  1  0  0  0  0  0  0
  1  5  1  0
  2  6  2  0
  4  2  1  0
  4  1  2  0
  5  3  2  0
  5 49  1  0
  6 15  1  0
  6  3  1  0
  7 13  1  0
  7 15  1  0
  8 13  1  0
  9 10  1  0
  9  8  1  0
 11 10  1  0
 11 20  1  0
 11 12  1  0
 13 12  1  0
 14  7  2  0
 15 16  1  0
 17 18  2  0
 18 37  1  0
 19 18  1  0
 19 22  1  0
 20 21  1  0
 20 17  1  0
 21 19  2  0
 22 23  1  0
 23 24  2  0
 25 28  1  0
 25 24  1  0
 26 25  2  0
 27 26  1  0
 27 22  2  0
 28 29  1  0
 29 30  1  0
 30 31  2  0
 32 31  1  0
 32 36  1  0
 33 32  2  0
 34 29  2  0
 34 33  1  0
 35 34  1  0
 37 38  1  0
 38 41  1  0
 38 40  1  0
 39 37  2  0
 42 43  1  0
 42 17  1  0
 44 42  1  0
 45 50  2  0
 46 45  1  0
 47 46  1  0
 48 47  1  0
 48 49  1  0
 49 45  1  0
 51  4  1  0
 52 54  2  0
 53 51  1  0
 53 52  1  0
 55 53  1  0
 56 52  1  0
 56 57  1  0
 58 60  1  0
 58 57  1  0
 59 70  2  0
 60 65  1  0
 61 69  1  0
 61 71  1  0
 62 68  1  0
 62 64  1  0
 63 69  1  0
 64 63  1  0
 65 64  2  0
 66 67  1  0
 66 60  2  0
 67 62  2  0
 68 61  1  0
 69 59  1  0
 71 73  2  0
 72 71  1  0
 74 72  1  0
 75 84  2  0
 75 80  1  0
 76 72  1  0
 76 80  1  0
 77 76  1  0
 78 79  1  0
 78 77  1  0
 79 75  1  0
 80 81  2  0
 81 82  1  0
 83 82  2  0
 84 83  1  0
 85 59  1  0
 85 86  1  0
 85 95  1  0
 86 89  1  0
 87 91  1  0
 87 86  1  0
 88 87  2  0
 91 90  1  0
 93 91  1  0
 93 94  1  0
 93 92  1  0
 95 98  1  1
 95 96  1  0
 97 95  1  0
M  ISO  4   7 100  15 100  57 101  58 101
M  END
>  <TORSDO>  (42) 
F 21

>  <SCORE>  (42) 
-13.497

>  <name>  (42) 
41

>  <ligand_id>  (42) 
41

>  <original_smiles>  (42) 
[H]c1c([H])c([H])c2c(c1[H])C([H])([H])C([H])([H])C([H])([H])C2([H])N([H])C(=O)C1([H])N(C(=O)C([H])(N([H])C(=O)C([H])(N([H])C([H])([H])[H])C([H])([H])[H])C(C([H])([H])[H])(C([H])([H])[H])C([H])([H])[H])C([H])([H])c2c([H])c(OC([H])([H])C([H])([H])C(=O)N([H])C([H])([H])c3c([H])c(N([H])C(=O)N4C([H])([H])C([H])([H])C([H])([H])C([H])(n5nc(-c6c([H])c([H])c(Oc7c([H])c([H])c(F)c([H])c7F)c([H])c6[H])c(C(=O)N([H])[H])c5N([H])[H])C4([H])[H])c([H])c(N4C(=O)C([H])([H])C([H])([H])C4([H])[H])c3[H])c([H])c([H])c2C1([H])[H]

>  <smiles>  (42) 
[H]c1c([H])c([H])c2c(c1[H])C([H])([H])C([H])([H])C([H])([H])C2([H])N([H])C(=O)C1([H])N(C(=O)C([H])(N([H])C(=O)C([H])(N([H])C([H])([H])[H])C([H])([H])[H])C(C([H])([H])[H])(C([H])([H])[H])C([H])([H])[H])C([H])([H])c2c([H])c(OC([H])([H])C([H])([H])C(=O)N([H])C([H])([H])c3c([H])c(N([H])C(=O)N4C([H])([H])C([H])([H])C([H])([H])C([H])(n5nc(-c6c([H])c([H])c(Oc7c([H])c([H])c(F)c([H])c7F)c([H])c6[H])c(C(=O)N([H])[H])c5N([H])[H])C4([H])[H])c([H])c(N4C(=O)C([H])([H])C([H])([H])C4([H])[H])c3[H])c([H])c([H])c2C1([H])[H]

$$$$
42:0:0
     RDKit          3D

 95103  0  0  1  0  0  0  0  0999 V2000
  -28.8310  -23.4560   20.1850 C   0  0  0  0  0  2  0  0  0  0  0  0
  -29.1270  -22.1150   19.2790 C   0  0  0  0  0  0  0  0  0  0  0  0
  -29.0800  -22.3030   18.0610 O   0  0  0  0  0  0  0  0  0  0  0  0
  -30.2210  -19.7410   18.8340 C   0  0  0  0  0  3  0  0  0  0  0  0
  -30.4230  -18.3150   19.0090 C   0  0  0  0  0  3  0  0  0  0  0  0
  -29.1140  -18.4310   20.9750 C   0  0  0  0  0  3  0  0  0  0  0  0
  -29.4650  -20.6030   19.7110 C   0  0  0  0  0  0  0  0  0  0  0  0
  -29.8560  -17.5710   20.0890 C   0  0  0  0  0  0  0  0  0  0  0  0
  -28.9280  -19.8640   20.8110 C   0  0  0  0  0  0  0  0  0  0  0  0
  -28.1590  -20.5160   21.7160 F   0  0  0  0  0  0  0  0  0  0  0  0
  -30.6630  -14.9710   19.8470 C   0  0  0  0  0  0  0  0  0  0  0  0
  -30.4720  -12.6650   18.8430 C   0  0  0  0  0  2  0  0  0  0  0  0
  -29.4430  -12.7130   17.6890 C   0  0  0  0  0  2  0  0  0  0  0  0
  -28.0080  -12.5170   18.2210 C   0  0  0  0  0  2  0  0  0  0  0  0
  -27.7150  -13.3870   19.4720 C   0  0  0  0  0  3  0  0  0  0  0  0
  -28.8540  -13.2940   20.5100 C   0  0  0  0  0  2  0  0  0  0  0  0
  -30.0930  -13.7060   19.8360 N   0  0  0  0  0  0  0  0  0  0  0  0
  -31.8020  -15.1090   19.3880 O   0  0  0  0  0  0  0  0  0  0  0  0
  -29.8760  -16.0600   20.2680 N   0  0  0  0  0  0  0  0  0  0  0  0
  -29.0690  -15.7230   20.7710 H   0  0  0  0  0  0  0  0  0  0  0  0
  -25.4030  -13.9630   20.4170 C   0  0  0  0  0  0  0  0  0  0  0  0
  -24.3590  -13.1850   20.8380 C   0  0  0  0  0  0  0  0  0  0  0  0
  -24.8000  -11.8320   20.7110 C   0  0  0  0  0  0  0  0  0  0  0  0
  -26.4120  -13.0850   20.0570 N   0  0  0  0  0  0  0  0  0  0  0  0
  -26.0610  -11.7950   20.2960 N   0  0  0  0  0  0  0  0  0  0  0  0
  -24.0730  -10.5700   20.9050 C   0  0  0  0  0  0  0  0  0  0  0  0
  -24.5180   -9.5940   21.8250 C   0  0  0  0  0  3  0  0  0  0  0  0
  -23.7900   -8.3990   22.0070 C   0  0  0  0  0  3  0  0  0  0  0  0
  -22.6040   -8.1690   21.2700 C   0  0  0  0  0  0  0  0  0  0  0  0
  -22.1780   -9.1340   20.3400 C   0  0  0  0  0  3  0  0  0  0  0  0
  -22.9060  -10.3210   20.1550 C   0  0  0  0  0  3  0  0  0  0  0  0
  -21.8480   -7.0270   21.3610 O   0  0  0  0  0  0  0  0  0  0  0  0
  -21.7560   -6.3150   22.5310 C   0  0  0  0  0  0  0  0  0  0  0  0
  -21.2700   -6.8980   23.7210 C   0  0  0  0  0  3  0  0  0  0  0  0
  -21.1270   -6.1130   24.8830 C   0  0  0  0  0  3  0  0  0  0  0  0
  -21.4610   -4.7450   24.8550 C   0  0  0  0  0  0  0  0  0  0  0  0
  -21.9420   -4.1630   23.6690 C   0  0  0  0  0  3  0  0  0  0  0  0
  -22.0860   -4.9450   22.5100 C   0  0  0  0  0  0  0  0  0  0  0  0
  -22.5280   -4.3730   21.3640 F   0  0  0  0  0  0  0  0  0  0  0  0
  -21.3180   -3.9880   25.9680 F   0  0  0  0  0  0  0  0  0  0  0  0
  -22.9950  -13.6660   21.2410 C   0  0  0  0  0  0  0  0  0  0  0  0
  -22.3280  -12.9420   22.1320 N   0  0  0  0  0  0  0  0  0  0  0  0
  -22.5310  -14.7170   20.8000 O   0  0  0  0  0  0  0  0  0  0  0  0
  -22.7180  -12.0930   22.5130 H   0  0  0  0  0  0  0  0  0  0  0  0
  -21.4150  -13.2410   22.4410 H   0  0  0  0  0  0  0  0  0  0  0  0
  -25.5700  -15.3390   20.2870 N   0  0  0  0  0  0  0  0  0  0  0  0
  -24.8180  -15.9910   20.4820 H   0  0  0  0  0  0  0  0  0  0  0  0
  -26.3810  -15.7820   19.8750 H   0  0  0  0  0  0  0  0  0  0  0  0
  -28.4890  -24.9530   19.4890 C   0  0  0  0  0  3  0  0  0  0  0  0
  -29.5270  -25.2500   18.3940 C   0  0  0  0  0  0  0  0  0  0  0  0
  -29.0880  -25.7240   17.2340 N   0  0  0  0  0  0  0  0  0  0  0  0
  -30.7290  -25.0880   18.6000 O   0  0  0  0  0  0  0  0  0  0  0  0
  -28.0990  -25.8710   17.0890 H   0  0  0  0  0  0  0  0  0  0  0  0
  -29.7340  -25.9340   16.4880 H   0  0  0  0  0  0  0  0  0  0  0  0
  -28.3420  -26.3150   20.2050 O   0  0  0  0  0  0  0  0  0  0  0  0
  -24.6360  -31.8840   23.1870 C   0  0  0  0  0  0  0  0  0  0  0  0
  -27.2490  -27.2420   20.0960 C   0  0  0  0  0  0  0  0  0  0  0  0
  -23.4370  -30.4810   21.5520 C   0  0  0  0  0  3  0  0  0  0  0  0
  -24.8900  -28.9350   20.1040 C   0  0  0  0  0  0  0  0  0  0  0  0
  -25.9840  -30.7820   21.3670 C   0  0  0  0  0  2  0  0  0  0  0  0
  -26.0660  -29.3990   20.7060 C   0  0  0  0  0  0  0  0  0  0  0  0
  -27.2400  -28.5640   20.6920 C   0  0  0  0  0  3  0  0  0  0  0  0
  -26.0420  -26.8730   19.4580 C   0  0  0  0  0  3  0  0  0  0  0  0
  -24.8890  -27.6850   19.4710 C   0  0  0  0  0  3  0  0  0  0  0  0
  -23.6520  -29.8120   20.1680 C   0  0  0  0  0  2  0  0  0  0  0  0
  -24.7060  -31.0700   22.0900 N   0  0  0  0  0  0  0  0  0  0  0  0
  -23.5530  -32.1530   23.7260 O   0  0  0  0  0  0  0  0  0  0  0  0
  -22.7800  -29.4610   22.5160 C   0  0  0  0  0  0  0  0  0  0  0  0
  -21.4520  -29.2810   22.4030 N   0  0  0  0  0  0  0  0  0  0  0  0
  -23.4660  -28.8360   23.3280 O   0  0  0  0  0  0  0  0  0  0  0  0
  -20.9530  -29.8380   21.7230 H   0  0  0  0  0  0  0  0  0  0  0  0
  -18.0870  -28.0550   22.9380 C   0  0  0  0  0  0  0  0  0  0  0  0
  -20.6460  -28.3340   23.1790 C   0  0  0  0  0  3  0  0  0  0  0  0
  -20.7520  -26.9050   22.5990 C   0  0  0  0  0  2  0  0  0  0  0  0
  -19.6410  -26.5780   21.5940 C   0  0  0  0  0  2  0  0  0  0  0  0
  -18.2660  -26.7100   22.2550 C   0  0  0  0  0  2  0  0  0  0  0  0
  -19.2030  -28.8240   23.3590 C   0  0  0  0  0  0  0  0  0  0  0  0
  -18.9800  -30.0820   23.9620 C   0  0  0  0  0  3  0  0  0  0  0  0
  -17.6740  -30.5700   24.1470 C   0  0  0  0  0  3  0  0  0  0  0  0
  -16.5710  -29.7980   23.7420 C   0  0  0  0  0  3  0  0  0  0  0  0
  -16.7780  -28.5430   23.1420 C   0  0  0  0  0  3  0  0  0  0  0  0
  -25.9130  -32.5310   23.8040 C   0  0  0  0  0  3  0  0  0  0  0  0
  -26.4390  -31.7680   25.0820 C   0  0  1  0  0  0  0  0  0  0  0  0
  -25.3500  -31.5230   26.1540 C   0  0  0  0  0  1  0  0  0  0  0  0
  -27.0360  -30.3950   24.6990 C   0  0  0  0  0  1  0  0  0  0  0  0
  -27.5840  -32.5750   25.7400 C   0  0  0  0  0  1  0  0  0  0  0  0
  -25.5910  -33.9260   24.1380 N   0  0  0  0  0  0  0  0  0  0  0  0
  -25.9120  -34.9880   23.3870 C   0  0  0  0  0  0  0  0  0  0  0  0
  -26.5780  -34.8960   22.3520 O   0  0  0  0  0  0  0  0  0  0  0  0
  -24.9910  -34.0700   24.9390 H   0  0  0  0  0  0  0  0  0  0  0  0
  -24.1750  -36.7780   23.0470 C   0  0  0  0  0  1  0  0  0  0  0  0
  -25.4170  -36.3700   23.8550 C   0  0  0  0  0  3  0  0  0  0  0  0
  -27.5450  -37.2640   24.6970 C   0  0  0  0  0  1  0  0  0  0  0  0
  -26.4430  -37.4310   23.7520 N   0  0  0  0  0  0  0  0  0  0  0  0
  -26.0300  -38.3460   23.9060 H   0  0  0  0  0  0  0  0  0  0  0  0
  2  7  1  0
  2  1  1  0
  3  2  2  0
  4  5  2  0
  4  7  1  0
  5  8  1  0
  7  9  2  0
  8 19  1  0
  8  6  2  0
  9  6  1  0
  9 10  1  0
 11 19  1  0
 12 17  1  0
 13 14  1  0
 13 12  1  0
 15 14  1  0
 15 24  1  0
 15 16  1  0
 17 11  1  0
 17 16  1  0
 18 11  2  0
 19 20  1  0
 21 22  2  0
 22 41  1  0
 23 22  1  0
 23 26  1  0
 24 25  1  0
 24 21  1  0
 25 23  2  0
 26 27  1  0
 27 28  2  0
 29 32  1  0
 29 28  1  0
 30 29  2  0
 31 30  1  0
 31 26  2  0
 32 33  1  0
 33 34  1  0
 34 35  2  0
 36 35  1  0
 36 40  1  0
 37 36  2  0
 38 33  2  0
 38 37  1  0
 39 38  1  0
 41 42  1  0
 42 45  1  0
 42 44  1  0
 43 41  2  0
 46 21  1  0
 46 47  1  0
 48 46  1  0
 49  1  1  0
 49 55  1  0
 50 52  2  0
 50 49  1  0
 51 50  1  0
 53 51  1  0
 54 51  1  0
 56 67  2  0
 57 55  1  0
 57 62  1  0
 58 66  1  0
 58 68  1  0
 59 65  1  0
 59 61  1  0
 60 66  1  0
 61 60  1  0
 62 61  2  0
 63 64  1  0
 63 57  2  0
 64 59  2  0
 65 58  1  0
 66 56  1  0
 68 70  2  0
 69 68  1  0
 71 69  1  0
 72 81  2  0
 72 77  1  0
 73 69  1  0
 73 77  1  0
 74 73  1  0
 75 76  1  0
 75 74  1  0
 76 72  1  0
 77 78  2  0
 78 79  1  0
 80 79  2  0
 81 80  1  0
 82 56  1  0
 82 87  1  0
 82 83  1  0
 83 86  1  1
 83 84  1  0
 85 83  1  0
 87 90  1  0
 88 92  1  0
 88 87  1  0
 89 88  2  0
 92 91  1  0
 94 92  1  0
 94 95  1  0
 94 93  1  0
M  ISO  4  11 100  19 100  49 101  55 101
M  END
>  <TORSDO>  (43) 
F 20

>  <SCORE>  (43) 
-13.104

>  <name>  (43) 
42

>  <ligand_id>  (43) 
42

>  <original_smiles>  (43) 
[H]c1c([H])c([H])c2c(c1[H])C([H])([H])C([H])([H])C([H])([H])C2([H])N([H])C(=O)C1([H])N(C(=O)C([H])(N([H])C(=O)C([H])(N([H])C([H])([H])[H])C([H])([H])[H])C(C([H])([H])[H])(C([H])([H])[H])C([H])([H])[H])C([H])([H])c2c([H])c(OC([H])(C(=O)N([H])[H])C([H])([H])C(=O)c3c([H])c([H])c(N([H])C(=O)N4C([H])([H])C([H])([H])C([H])([H])C([H])(n5nc(-c6c([H])c([H])c(Oc7c([H])c([H])c(F)c([H])c7F)c([H])c6[H])c(C(=O)N([H])[H])c5N([H])[H])C4([H])[H])c([H])c3F)c([H])c([H])c2C1([H])[H]

>  <smiles>  (43) 
[H]c1c([H])c([H])c2c(c1[H])C([H])([H])C([H])([H])C([H])([H])C2([H])N([H])C(=O)C1([H])N(C(=O)C([H])(N([H])C(=O)C([H])(N([H])C([H])([H])[H])C([H])([H])[H])C(C([H])([H])[H])(C([H])([H])[H])C([H])([H])[H])C([H])([H])c2c([H])c(OC([H])(C(=O)N([H])[H])C([H])([H])C(=O)c3c([H])c([H])c(N([H])C(=O)N4C([H])([H])C([H])([H])C([H])([H])C([H])(n5nc(-c6c([H])c([H])c(Oc7c([H])c([H])c(F)c([H])c7F)c([H])c6[H])c(C(=O)N([H])[H])c5N([H])[H])C4([H])[H])c([H])c3F)c([H])c([H])c2C1([H])[H]

$$$$
43:0:0
     RDKit          3D

 97106  0  0  1  0  0  0  0  0999 V2000
  -28.6220  -23.3040   21.5410 C   0  0  0  0  0  0  0  0  0  0  0  0
  -27.2330  -24.1580   19.8260 C   0  0  0  0  0  2  0  0  0  0  0  0
  -27.2360  -22.6340   19.8210 C   0  0  0  0  0  2  0  0  0  0  0  0
  -27.8490  -24.5940   21.1670 C   0  0  1  0  0  0  0  0  0  0  0  0
  -26.7380  -24.8370   22.2140 C   0  0  0  0  0  1  0  0  0  0  0  0
  -28.2790  -22.2590   20.7570 N   0  0  0  0  0  0  0  0  0  0  0  0
  -29.4290  -23.2670   22.4750 O   0  0  0  0  0  0  0  0  0  0  0  0
  -28.4630  -18.5360   20.2760 C   0  0  0  0  0  3  0  0  0  0  0  0
  -30.7190  -19.3950   20.5860 C   0  0  0  0  0  3  0  0  0  0  0  0
  -27.9520  -19.8330   20.4970 C   0  0  0  0  0  3  0  0  0  0  0  0
  -30.2050  -20.6870   20.8300 C   0  0  0  0  0  3  0  0  0  0  0  0
  -29.8560  -18.3140   20.2820 C   0  0  0  0  0  0  0  0  0  0  0  0
  -28.8140  -20.9310   20.7420 C   0  0  0  0  0  0  0  0  0  0  0  0
  -30.8770  -14.5800   20.0700 C   0  0  0  0  0  0  0  0  0  0  0  0
  -30.4590  -12.4600   18.8870 C   0  0  0  0  0  2  0  0  0  0  0  0
  -29.4390  -12.6590   17.7470 C   0  0  0  0  0  2  0  0  0  0  0  0
  -27.9970  -12.5030   18.2670 C   0  0  0  0  0  2  0  0  0  0  0  0
  -27.7400  -13.3170   19.5630 C   0  0  0  0  0  3  0  0  0  0  0  0
  -28.8670  -13.0720   20.5870 C   0  0  0  0  0  2  0  0  0  0  0  0
  -30.1410  -13.4350   19.9480 N   0  0  0  0  0  0  0  0  0  0  0  0
  -31.9800  -14.6870   19.5220 O   0  0  0  0  0  0  0  0  0  0  0  0
  -30.4220  -17.0220   19.8430 C   0  0  0  0  0  0  0  0  0  0  0  0
  -29.5830  -15.8640   21.8280 C   0  0  0  0  0  1  0  0  0  0  0  0
  -30.2220  -15.8230   20.4890 N   0  0  0  0  0  0  0  0  0  0  0  0
  -31.1530  -17.1220   18.7260 N   0  0  0  0  0  4  0  0  0  0  0  0
  -31.2520  -18.0090   18.2540 H   0  0  0  0  0  0  0  0  0  0  0  0
  -31.7450  -16.3390   18.4720 H   0  0  0  0  0  0  0  0  0  0  0  0
  -25.4080  -13.9010   20.4780 C   0  0  0  0  0  0  0  0  0  0  0  0
  -24.3650  -13.1180   20.8930 C   0  0  0  0  0  0  0  0  0  0  0  0
  -24.8110  -11.7670   20.7650 C   0  0  0  0  0  0  0  0  0  0  0  0
  -26.4250  -13.0260   20.1270 N   0  0  0  0  0  0  0  0  0  0  0  0
  -26.0730  -11.7360   20.3560 N   0  0  0  0  0  0  0  0  0  0  0  0
  -24.0920  -10.5000   20.9520 C   0  0  0  0  0  0  0  0  0  0  0  0
  -24.5340   -9.5290   21.8790 C   0  0  0  0  0  3  0  0  0  0  0  0
  -23.8160   -8.3260   22.0540 C   0  0  0  0  0  3  0  0  0  0  0  0
  -22.6410   -8.0860   21.3010 C   0  0  0  0  0  0  0  0  0  0  0  0
  -22.2170   -9.0450   20.3660 C   0  0  0  0  0  3  0  0  0  0  0  0
  -22.9360  -10.2400   20.1890 C   0  0  0  0  0  3  0  0  0  0  0  0
  -21.8940   -6.9360   21.3860 O   0  0  0  0  0  0  0  0  0  0  0  0
  -21.7850   -6.2330   22.5600 C   0  0  0  0  0  0  0  0  0  0  0  0
  -21.2730   -6.8230   23.7370 C   0  0  0  0  0  3  0  0  0  0  0  0
  -21.1130   -6.0450   24.9010 C   0  0  0  0  0  3  0  0  0  0  0  0
  -21.4530   -4.6790   24.8880 C   0  0  0  0  0  0  0  0  0  0  0  0
  -21.9560   -4.0890   23.7160 C   0  0  0  0  0  3  0  0  0  0  0  0
  -22.1190   -4.8640   22.5540 C   0  0  0  0  0  0  0  0  0  0  0  0
  -22.5850   -4.2850   21.4210 F   0  0  0  0  0  0  0  0  0  0  0  0
  -21.2900   -3.9300   26.0040 F   0  0  0  0  0  0  0  0  0  0  0  0
  -22.9950  -13.5900   21.2870 C   0  0  0  0  0  0  0  0  0  0  0  0
  -22.3340  -12.8700   22.1870 N   0  0  0  0  0  0  0  0  0  0  0  0
  -22.5210  -14.6300   20.8320 O   0  0  0  0  0  0  0  0  0  0  0  0
  -22.7320  -12.0280   22.5750 H   0  0  0  0  0  0  0  0  0  0  0  0
  -21.4190  -13.1670   22.4940 H   0  0  0  0  0  0  0  0  0  0  0  0
  -25.5720  -15.2760   20.3480 N   0  0  0  0  0  0  0  0  0  0  0  0
  -24.8040  -15.9180   20.5090 H   0  0  0  0  0  0  0  0  0  0  0  0
  -26.3460  -15.7030   19.8560 H   0  0  0  0  0  0  0  0  0  0  0  0
  -28.7840  -25.8580   21.0740 C   0  0  0  0  0  2  0  0  0  0  0  0
  -28.5310  -26.8300   20.0420 O   0  0  0  0  0  0  0  0  0  0  0  0
  -24.5790  -31.8920   23.2250 C   0  0  0  0  0  0  0  0  0  0  0  0
  -27.3680  -27.5620   20.1130 C   0  0  0  0  0  0  0  0  0  0  0  0
  -23.4360  -30.4990   21.5330 C   0  0  0  0  0  3  0  0  0  0  0  0
  -24.9510  -29.0250   20.1110 C   0  0  0  0  0  0  0  0  0  0  0  0
  -25.9590  -30.9060   21.4020 C   0  0  0  0  0  2  0  0  0  0  0  0
  -26.0850  -29.5470   20.7480 C   0  0  0  0  0  0  0  0  0  0  0  0
  -27.2960  -28.8130   20.7670 C   0  0  0  0  0  3  0  0  0  0  0  0
  -26.2380  -27.0930   19.4170 C   0  0  0  0  0  3  0  0  0  0  0  0
  -25.0200  -27.7910   19.4470 C   0  0  0  0  0  3  0  0  0  0  0  0
  -23.6900  -29.8560   20.1450 C   0  0  0  0  0  2  0  0  0  0  0  0
  -24.6740  -31.1140   22.1110 N   0  0  0  0  0  0  0  0  0  0  0  0
  -23.4830  -32.1300   23.7500 O   0  0  0  0  0  0  0  0  0  0  0  0
  -22.7950  -29.4390   22.4590 C   0  0  0  0  0  0  0  0  0  0  0  0
  -21.4760  -29.2370   22.3110 N   0  0  0  0  0  0  0  0  0  0  0  0
  -23.4820  -28.8050   23.2650 O   0  0  0  0  0  0  0  0  0  0  0  0
  -20.9860  -29.7980   21.6280 H   0  0  0  0  0  0  0  0  0  0  0  0
  -18.1070  -28.0180   22.7830 C   0  0  0  0  0  0  0  0  0  0  0  0
  -20.6650  -28.2700   23.0500 C   0  0  0  0  0  3  0  0  0  0  0  0
  -20.7680  -26.8620   22.4230 C   0  0  0  0  0  2  0  0  0  0  0  0
  -19.6620  -26.5760   21.4020 C   0  0  0  0  0  2  0  0  0  0  0  0
  -18.2840  -26.6940   22.0580 C   0  0  0  0  0  2  0  0  0  0  0  0
  -19.2260  -28.7650   23.2350 C   0  0  0  0  0  0  0  0  0  0  0  0
  -19.0100  -30.0060   23.8740 C   0  0  0  0  0  3  0  0  0  0  0  0
  -17.7050  -30.5000   24.0660 C   0  0  0  0  0  3  0  0  0  0  0  0
  -16.6000  -29.7480   23.6310 C   0  0  0  0  0  3  0  0  0  0  0  0
  -16.8020  -28.5090   22.9960 C   0  0  0  0  0  3  0  0  0  0  0  0
  -25.8410  -32.5390   23.8780 C   0  0  0  0  0  3  0  0  0  0  0  0
  -25.5090  -33.9350   24.1890 N   0  0  0  0  0  0  0  0  0  0  0  0
  -25.8450  -34.9830   23.4270 C   0  0  0  0  0  0  0  0  0  0  0  0
  -26.5380  -34.8780   22.4100 O   0  0  0  0  0  0  0  0  0  0  0  0
  -24.8930  -34.0880   24.9740 H   0  0  0  0  0  0  0  0  0  0  0  0
  -24.0960  -36.7440   23.0200 C   0  0  0  0  0  1  0  0  0  0  0  0
  -25.3290  -36.3690   23.8580 C   0  0  0  0  0  3  0  0  0  0  0  0
  -27.4320  -37.2970   24.7200 C   0  0  0  0  0  1  0  0  0  0  0  0
  -26.3480  -37.4350   23.7500 N   0  0  0  0  0  0  0  0  0  0  0  0
  -25.9260  -38.3510   23.8770 H   0  0  0  0  0  0  0  0  0  0  0  0
  -26.3310  -31.7780   25.1710 C   0  0  1  0  0  0  0  0  0  0  0  0
  -25.2090  -31.5250   26.2050 C   0  0  0  0  0  1  0  0  0  0  0  0
  -26.9470  -30.4090   24.8010 C   0  0  0  0  0  1  0  0  0  0  0  0
  -27.4480  -32.5910   25.8650 C   0  0  0  0  0  1  0  0  0  0  0  0
  1  7  2  0
  2  4  1  0
  3  2  1  0
  3  6  1  0
  4  1  1  0
  4  5  1  1
  6  1  1  0
  8 12  2  0
  8 10  1  0
  9 11  2  0
 10 13  2  0
 12  9  1  0
 13  6  1  0
 13 11  1  0
 14 24  1  0
 15 20  1  0
 16 17  1  0
 16 15  1  0
 18 17  1  0
 18 31  1  0
 18 19  1  0
 20 14  1  0
 20 19  1  0
 21 14  2  0
 22 12  1  0
 22 24  1  0
 24 23  1  0
 25 22  2  0
 26 25  1  0
 27 25  1  0
 28 29  2  0
 29 48  1  0
 30 29  1  0
 30 33  1  0
 31 32  1  0
 31 28  1  0
 32 30  2  0
 33 34  1  0
 34 35  2  0
 36 39  1  0
 36 35  1  0
 37 36  2  0
 38 37  1  0
 38 33  2  0
 39 40  1  0
 40 41  1  0
 41 42  2  0
 43 42  1  0
 43 47  1  0
 44 43  2  0
 45 40  2  0
 45 44  1  0
 46 45  1  0
 48 49  1  0
 49 52  1  0
 49 51  1  0
 50 48  2  0
 53 28  1  0
 53 54  1  0
 55 53  1  0
 56  4  1  0
 57 59  1  0
 57 56  1  0
 58 69  2  0
 59 64  1  0
 60 68  1  0
 60 70  1  0
 61 67  1  0
 61 63  1  0
 62 68  1  0
 63 64  2  0
 63 62  1  0
 65 66  1  0
 65 59  2  0
 66 61  2  0
 67 60  1  0
 68 58  1  0
 70 72  2  0
 71 70  1  0
 73 71  1  0
 74 83  2  0
 74 79  1  0
 75 71  1  0
 75 79  1  0
 76 75  1  0
 77 78  1  0
 77 76  1  0
 78 74  1  0
 79 80  2  0
 80 81  1  0
 82 81  2  0
 83 82  1  0
 84 58  1  0
 84 85  1  0
 84 94  1  0
 85 88  1  0
 86 90  1  0
 86 85  1  0
 87 86  2  0
 90 89  1  0
 92 90  1  0
 92 93  1  0
 92 91  1  0
 94 97  1  1
 94 95  1  0
 96 94  1  0
M  ISO  4  14 100  24 100  56 101  57 101
M  END
>  <TORSDO>  (44) 
F 18

>  <SCORE>  (44) 
-14.476

>  <name>  (44) 
43

>  <ligand_id>  (44) 
43

>  <original_smiles>  (44) 
[H]c1c([H])c([H])c2c(c1[H])C([H])([H])C([H])([H])C([H])([H])C2([H])N([H])C(=O)C1([H])N(C(=O)C([H])(N([H])C(=O)C([H])(N([H])C([H])([H])[H])C([H])([H])[H])C(C([H])([H])[H])(C([H])([H])[H])C([H])([H])[H])C([H])([H])c2c([H])c(OC([H])([H])C3(C([H])([H])[H])C(=O)N(c4c([H])c([H])c(C(N(C(=O)N5C([H])([H])C([H])([H])C([H])([H])C([H])(n6nc(-c7c([H])c([H])c(Oc8c([H])c([H])c(F)c([H])c8F)c([H])c7[H])c(C(=O)N([H])[H])c6N([H])[H])C5([H])[H])C([H])([H])[H])=[N+]([H])[H])c([H])c4[H])C([H])([H])C3([H])[H])c([H])c([H])c2C1([H])[H]

>  <smiles>  (44) 
[H]c1c([H])c([H])c2c(c1[H])C([H])([H])C([H])([H])C([H])([H])C2([H])N([H])C(=O)C1([H])N(C(=O)C([H])(N([H])C(=O)C([H])(N([H])C([H])([H])[H])C([H])([H])[H])C(C([H])([H])[H])(C([H])([H])[H])C([H])([H])[H])C([H])([H])c2c([H])c(OC([H])([H])C3(C([H])([H])[H])C(=O)N(c4c([H])c([H])c(C(N(C(=O)N5C([H])([H])C([H])([H])C([H])([H])C([H])(n6nc(-c7c([H])c([H])c(Oc8c([H])c([H])c(F)c([H])c8F)c([H])c7[H])c(C(=O)N([H])[H])c6N([H])[H])C5([H])[H])C([H])([H])[H])=[N+]([H])[H])c([H])c4[H])C([H])([H])C3([H])[H])c([H])c([H])c2C1([H])[H]

$$$$
44:0:0
     RDKit          3D

 96105  0  0  1  0  0  0  0  0999 V2000
  -29.8860  -19.5590   21.4330 C   0  0  0  0  0  3  0  0  0  0  0  0
  -30.0530  -18.1410   21.5370 C   0  0  0  0  0  3  0  0  0  0  0  0
  -29.5680  -17.9350   19.2210 C   0  0  0  0  0  3  0  0  0  0  0  0
  -29.3810  -19.3600   19.1240 C   0  0  0  0  0  0  0  0  0  0  0  0
  -29.5390  -20.2700   20.2410 C   0  0  0  0  0  0  0  0  0  0  0  0
  -29.9090  -17.2720   20.4270 C   0  0  0  0  0  0  0  0  0  0  0  0
  -30.6330  -14.7850   20.0720 C   0  0  0  0  0  0  0  0  0  0  0  0
  -30.3950  -12.5550   18.9750 C   0  0  0  0  0  2  0  0  0  0  0  0
  -29.3800  -12.6940   17.8160 C   0  0  0  0  0  2  0  0  0  0  0  0
  -27.9360  -12.5130   18.3250 C   0  0  0  0  0  2  0  0  0  0  0  0
  -27.6430  -13.3500   19.5990 C   0  0  0  0  0  3  0  0  0  0  0  0
  -28.7630  -13.1730   20.6500 C   0  0  0  0  0  2  0  0  0  0  0  0
  -30.0350  -13.5480   20.0100 N   0  0  0  0  0  0  0  0  0  0  0  0
  -31.7550  -14.9680   19.5870 O   0  0  0  0  0  0  0  0  0  0  0  0
  -29.8740  -15.8080   20.5900 N   0  0  0  0  0  0  0  0  0  0  0  0
  -29.0500  -15.4670   21.0640 H   0  0  0  0  0  0  0  0  0  0  0  0
  -25.2980  -13.9400   20.4670 C   0  0  0  0  0  0  0  0  0  0  0  0
  -24.2490  -13.1630   20.8740 C   0  0  0  0  0  0  0  0  0  0  0  0
  -24.6990  -11.8100   20.7760 C   0  0  0  0  0  0  0  0  0  0  0  0
  -26.3220  -13.0610   20.1500 N   0  0  0  0  0  0  0  0  0  0  0  0
  -25.9710  -11.7740   20.3940 N   0  0  0  0  0  0  0  0  0  0  0  0
  -23.9750  -10.5460   20.9700 C   0  0  0  0  0  0  0  0  0  0  0  0
  -24.4180   -9.5760   21.8950 C   0  0  0  0  0  3  0  0  0  0  0  0
  -23.6940   -8.3770   22.0770 C   0  0  0  0  0  3  0  0  0  0  0  0
  -22.5160   -8.1400   21.3320 C   0  0  0  0  0  0  0  0  0  0  0  0
  -22.0920   -9.0990   20.3950 C   0  0  0  0  0  3  0  0  0  0  0  0
  -22.8150  -10.2890   20.2120 C   0  0  0  0  0  3  0  0  0  0  0  0
  -21.7640   -6.9930   21.4240 O   0  0  0  0  0  0  0  0  0  0  0  0
  -21.6770   -6.2800   22.5920 C   0  0  0  0  0  0  0  0  0  0  0  0
  -21.1290   -6.8400   23.7670 C   0  0  0  0  0  3  0  0  0  0  0  0
  -20.9920   -6.0510   24.9260 C   0  0  0  0  0  3  0  0  0  0  0  0
  -21.3960   -4.7030   24.9120 C   0  0  0  0  0  0  0  0  0  0  0  0
  -21.9370   -4.1420   23.7420 C   0  0  0  0  0  3  0  0  0  0  0  0
  -22.0750   -4.9280   22.5850 C   0  0  0  0  0  0  0  0  0  0  0  0
  -22.5770   -4.3770   21.4530 F   0  0  0  0  0  0  0  0  0  0  0  0
  -21.2570   -3.9420   26.0230 F   0  0  0  0  0  0  0  0  0  0  0  0
  -22.8720  -13.6400   21.2390 C   0  0  0  0  0  0  0  0  0  0  0  0
  -22.1870  -12.9190   22.1200 N   0  0  0  0  0  0  0  0  0  0  0  0
  -22.4130  -14.6820   20.7740 O   0  0  0  0  0  0  0  0  0  0  0  0
  -22.5750  -12.0770   22.5190 H   0  0  0  0  0  0  0  0  0  0  0  0
  -21.2650  -13.2190   22.4020 H   0  0  0  0  0  0  0  0  0  0  0  0
  -25.4620  -15.3140   20.3210 N   0  0  0  0  0  0  0  0  0  0  0  0
  -24.7010  -15.9660   20.4850 H   0  0  0  0  0  0  0  0  0  0  0  0
  -26.2870  -15.7580   19.9370 H   0  0  0  0  0  0  0  0  0  0  0  0
  -28.9170  -22.7530   21.1530 C   0  0  0  0  0  0  0  0  0  0  0  0
  -29.3680  -22.6690   19.1290 C   0  0  0  0  0  2  0  0  0  0  0  0
  -29.2970  -23.9010   20.1130 C   0  0  2  0  0  0  0  0  0  0  0  0
  -30.6260  -24.5560   20.5010 C   0  0  0  0  0  1  0  0  0  0  0  0
  -29.3940  -21.7570   20.2800 N   0  0  0  0  0  0  0  0  0  0  0  0
  -28.4040  -22.6790   22.2500 O   0  0  0  0  0  0  0  0  0  0  0  0
  -28.2110  -25.0580   19.8430 C   0  0  0  0  0  2  0  0  0  0  0  0
  -28.4140  -26.5010   20.2020 O   0  0  0  0  0  0  0  0  0  0  0  0
  -24.6630  -31.8820   23.2940 C   0  0  0  0  0  0  0  0  0  0  0  0
  -27.3010  -27.3740   20.1550 C   0  0  0  0  0  0  0  0  0  0  0  0
  -23.4730  -30.5180   21.6170 C   0  0  0  0  0  3  0  0  0  0  0  0
  -24.9350  -29.0030   20.1630 C   0  0  0  0  0  0  0  0  0  0  0  0
  -26.0160  -30.8360   21.4590 C   0  0  0  0  0  2  0  0  0  0  0  0
  -26.1010  -29.4720   20.7810 C   0  0  0  0  0  0  0  0  0  0  0  0
  -27.2850  -28.6700   20.7680 C   0  0  0  0  0  3  0  0  0  0  0  0
  -26.1070  -26.9700   19.5120 C   0  0  0  0  0  3  0  0  0  0  0  0
  -24.9430  -27.7580   19.5200 C   0  0  0  0  0  3  0  0  0  0  0  0
  -23.6980  -29.8780   20.2220 C   0  0  0  0  0  2  0  0  0  0  0  0
  -24.7360  -31.0950   22.1800 N   0  0  0  0  0  0  0  0  0  0  0  0
  -23.5770  -32.1470   23.8270 O   0  0  0  0  0  0  0  0  0  0  0  0
  -22.8060  -29.4770   22.5490 C   0  0  0  0  0  0  0  0  0  0  0  0
  -21.4790  -29.3070   22.4140 N   0  0  0  0  0  0  0  0  0  0  0  0
  -23.4800  -28.8310   23.3540 O   0  0  0  0  0  0  0  0  0  0  0  0
  -20.9930  -29.8820   21.7400 H   0  0  0  0  0  0  0  0  0  0  0  0
  -18.0970  -28.1130   22.8820 C   0  0  0  0  0  0  0  0  0  0  0  0
  -20.6570  -28.3530   23.1590 C   0  0  0  0  0  3  0  0  0  0  0  0
  -20.7510  -26.9360   22.5450 C   0  0  0  0  0  2  0  0  0  0  0  0
  -19.6480  -26.6470   21.5220 C   0  0  0  0  0  2  0  0  0  0  0  0
  -18.2670  -26.7820   22.1710 C   0  0  0  0  0  2  0  0  0  0  0  0
  -19.2190  -28.8590   23.3330 C   0  0  0  0  0  0  0  0  0  0  0  0
  -19.0070  -30.1040   23.9600 C   0  0  0  0  0  3  0  0  0  0  0  0
  -17.7040  -30.6060   24.1420 C   0  0  0  0  0  3  0  0  0  0  0  0
  -16.5970  -29.8570   23.7090 C   0  0  0  0  0  3  0  0  0  0  0  0
  -16.7940  -28.6130   23.0840 C   0  0  0  0  0  3  0  0  0  0  0  0
  -25.9410  -32.5020   23.9390 C   0  0  0  0  0  3  0  0  0  0  0  0
  -26.4260  -31.7270   25.2250 C   0  0  1  0  0  0  0  0  0  0  0  0
  -25.3090  -31.4930   26.2690 C   0  0  0  0  0  1  0  0  0  0  0  0
  -27.0130  -30.3480   24.8460 C   0  0  0  0  0  1  0  0  0  0  0  0
  -27.5620  -32.5180   25.9150 C   0  0  0  0  0  1  0  0  0  0  0  0
  -25.6380  -33.9030   24.2650 N   0  0  0  0  0  0  0  0  0  0  0  0
  -25.9360  -34.9510   23.4830 C   0  0  0  0  0  0  0  0  0  0  0  0
  -26.5690  -34.8380   22.4300 O   0  0  0  0  0  0  0  0  0  0  0  0
  -25.0720  -34.0630   25.0850 H   0  0  0  0  0  0  0  0  0  0  0  0
  -24.1730  -36.7220   23.1980 C   0  0  0  0  0  1  0  0  0  0  0  0
  -25.4620  -36.3420   23.9450 C   0  0  0  0  0  3  0  0  0  0  0  0
  -27.6200  -37.2750   24.6520 C   0  0  0  0  0  1  0  0  0  0  0  0
  -26.4760  -37.4020   23.7540 N   0  0  0  0  0  0  0  0  0  0  0  0
  -26.0650  -38.3220   23.8930 H   0  0  0  0  0  0  0  0  0  0  0  0
  -28.9820  -19.8280   17.7800 C   0  0  0  0  0  0  0  0  0  0  0  0
  -30.1000  -20.0480   16.7870 C   0  0  0  0  0  1  0  0  0  0  0  0
  -27.7770  -20.0220   17.4440 N   0  0  0  0  0  0  0  0  0  0  0  0
  -27.1320  -19.8260   18.2020 H   0  0  0  0  0  0  0  0  0  0  0  0
  1  2  1  0
  3  6  1  0
  4  3  2  0
  4  5  1  0
  5 49  1  0
  5  1  2  0
  6 15  1  0
  6  2  2  0
  7 15  1  0
  8 13  1  0
  9 10  1  0
  9  8  1  0
 11 10  1  0
 11 20  1  0
 11 12  1  0
 13  7  1  0
 13 12  1  0
 14  7  2  0
 15 16  1  0
 17 18  2  0
 18 37  1  0
 19 18  1  0
 19 22  1  0
 20 21  1  0
 20 17  1  0
 21 19  2  0
 22 23  1  0
 23 24  2  0
 25 28  1  0
 25 24  1  0
 26 25  2  0
 27 26  1  0
 27 22  2  0
 28 29  1  0
 29 30  1  0
 30 31  2  0
 32 31  1  0
 32 36  1  0
 33 32  2  0
 34 29  2  0
 34 33  1  0
 35 34  1  0
 37 38  1  0
 38 41  1  0
 38 40  1  0
 39 37  2  0
 42 17  1  0
 42 43  1  0
 44 42  1  0
 45 50  2  0
 46 47  1  0
 46 49  1  0
 47 48  1  1
 47 45  1  0
 49 45  1  0
 51 47  1  0
 51 52  1  0
 53 64  2  0
 54 52  1  0
 54 59  1  0
 55 63  1  0
 55 65  1  0
 56 62  1  0
 56 58  1  0
 57 63  1  0
 58 57  1  0
 59 58  2  0
 60 61  1  0
 60 54  2  0
 61 56  2  0
 62 55  1  0
 63 53  1  0
 65 67  2  0
 66 65  1  0
 68 66  1  0
 69 78  2  0
 69 74  1  0
 70 66  1  0
 70 74  1  0
 71 70  1  0
 72 73  1  0
 72 71  1  0
 73 69  1  0
 74 75  2  0
 75 76  1  0
 77 76  2  0
 78 77  1  0
 79 53  1  0
 79 84  1  0
 79 80  1  0
 80 83  1  1
 80 81  1  0
 82 80  1  0
 84 87  1  0
 85 89  1  0
 85 84  1  0
 86 85  2  0
 89 88  1  0
 91 92  1  0
 91 89  1  0
 91 90  1  0
 93  4  1  0
 94 93  1  0
 95 93  2  0
 95 96  1  0
M  ISO  4   7 100  15 100  51 101  52 101
M  END
>  <TORSDO>  (45) 
F 19

>  <SCORE>  (45) 
-14.197

>  <name>  (45) 
44

>  <ligand_id>  (45) 
44

>  <original_smiles>  (45) 
[H]N=C(c1c([H])c(N([H])C(=O)N2C([H])([H])C([H])([H])C([H])([H])C([H])(n3nc(-c4c([H])c([H])c(Oc5c([H])c([H])c(F)c([H])c5F)c([H])c4[H])c(C(=O)N([H])[H])c3N([H])[H])C2([H])[H])c([H])c([H])c1N1C(=O)C(C([H])([H])[H])(C([H])([H])Oc2c([H])c([H])c3c(c2[H])C([H])([H])N(C(=O)C([H])(N([H])C(=O)C([H])(N([H])C([H])([H])[H])C([H])([H])[H])C(C([H])([H])[H])(C([H])([H])[H])C([H])([H])[H])C([H])(C(=O)N([H])C2([H])c4c([H])c([H])c([H])c([H])c4C([H])([H])C([H])([H])C2([H])[H])C3([H])[H])C1([H])[H])C([H])([H])[H]

>  <smiles>  (45) 
[H]N=C(c1c([H])c(N([H])C(=O)N2C([H])([H])C([H])([H])C([H])([H])C([H])(n3nc(-c4c([H])c([H])c(Oc5c([H])c([H])c(F)c([H])c5F)c([H])c4[H])c(C(=O)N([H])[H])c3N([H])[H])C2([H])[H])c([H])c([H])c1N1C(=O)C(C([H])([H])[H])(C([H])([H])Oc2c([H])c([H])c3c(c2[H])C([H])([H])N(C(=O)C([H])(N([H])C(=O)C([H])(N([H])C([H])([H])[H])C([H])([H])[H])C(C([H])([H])[H])(C([H])([H])[H])C([H])([H])[H])C([H])(C(=O)N([H])C2([H])c4c([H])c([H])c([H])c([H])c4C([H])([H])C([H])([H])C2([H])[H])C3([H])[H])C1([H])[H])C([H])([H])[H]

$$$$
45:0:0
     RDKit          3D

 93102  0  0  1  0  0  0  0  0999 V2000
  -28.0250  -23.0540   19.2620 C   0  0  0  0  0  3  0  0  0  0  0  0
  -28.6610  -23.6580   20.2750 C   0  0  0  0  0  0  0  0  0  0  0  0
  -28.3850  -21.6290   19.1580 C   0  0  0  0  0  0  0  0  0  0  0  0
  -29.5150  -22.5450   20.9350 C   0  0  0  0  0  2  0  0  0  0  0  0
  -29.2230  -21.2760   20.1700 N   0  0  0  0  0  0  0  0  0  0  0  0
  -27.9880  -20.8570   18.2800 O   0  0  0  0  0  0  0  0  0  0  0  0
  -32.2870  -19.0600   20.2010 C   0  0  0  0  0  3  0  0  0  0  0  0
  -31.4200  -20.1660   20.1920 C   0  0  0  0  0  3  0  0  0  0  0  0
  -31.8030  -17.7380   20.2600 C   0  0  0  0  0  3  0  0  0  0  0  0
  -30.0220  -20.0080   20.2170 C   0  0  0  0  0  0  0  0  0  0  0  0
  -30.4190  -17.4390   20.2990 C   0  0  0  0  0  0  0  0  0  0  0  0
  -29.5370  -18.6240   20.2590 C   0  0  0  0  0  0  0  0  0  0  0  0
  -28.1960  -18.4320   20.2970 F   0  0  0  0  0  0  0  0  0  0  0  0
  -30.6290  -14.8040   20.0850 C   0  0  0  0  0  0  0  0  0  0  0  0
  -30.3840  -12.5600   18.9460 C   0  0  0  0  0  2  0  0  0  0  0  0
  -29.3760  -12.6440   17.7710 C   0  0  0  0  0  2  0  0  0  0  0  0
  -27.9240  -12.4450   18.2600 C   0  0  0  0  0  2  0  0  0  0  0  0
  -27.6200  -13.2710   19.5380 C   0  0  0  0  0  3  0  0  0  0  0  0
  -28.7360  -13.0610   20.5790 C   0  0  0  0  0  2  0  0  0  0  0  0
  -29.9830  -13.5680   19.9740 N   0  0  0  0  0  0  0  0  0  0  0  0
  -31.7660  -14.8560   19.6040 O   0  0  0  0  0  0  0  0  0  0  0  0
  -28.9290  -15.9130   21.5410 C   0  0  0  0  0  1  0  0  0  0  0  0
  -29.9810  -16.0010   20.5180 N   0  0  0  0  0  0  0  0  0  0  0  0
  -25.2690  -13.8520   20.3900 C   0  0  0  0  0  0  0  0  0  0  0  0
  -24.2250  -13.0710   20.8060 C   0  0  0  0  0  0  0  0  0  0  0  0
  -24.6910  -11.7230   20.7330 C   0  0  0  0  0  0  0  0  0  0  0  0
  -26.3010  -12.9780   20.0870 N   0  0  0  0  0  0  0  0  0  0  0  0
  -25.9630  -11.6930   20.3560 N   0  0  0  0  0  0  0  0  0  0  0  0
  -23.9780  -10.4560   20.9400 C   0  0  0  0  0  0  0  0  0  0  0  0
  -24.4370   -9.4910   21.8610 C   0  0  0  0  0  3  0  0  0  0  0  0
  -23.7230   -8.2880   22.0520 C   0  0  0  0  0  3  0  0  0  0  0  0
  -22.5350   -8.0440   21.3230 C   0  0  0  0  0  0  0  0  0  0  0  0
  -22.0950   -9.0000   20.3900 C   0  0  0  0  0  3  0  0  0  0  0  0
  -22.8100  -10.1930   20.1970 C   0  0  0  0  0  3  0  0  0  0  0  0
  -21.7900   -6.8950   21.4240 O   0  0  0  0  0  0  0  0  0  0  0  0
  -21.7380   -6.1720   22.5890 C   0  0  0  0  0  0  0  0  0  0  0  0
  -21.2990   -6.7440   23.8030 C   0  0  0  0  0  3  0  0  0  0  0  0
  -21.1970   -5.9460   24.9600 C   0  0  0  0  0  3  0  0  0  0  0  0
  -21.5250   -4.5780   24.9030 C   0  0  0  0  0  0  0  0  0  0  0  0
  -21.9600   -4.0080   23.6940 C   0  0  0  0  0  3  0  0  0  0  0  0
  -22.0640   -4.8030   22.5400 C   0  0  0  0  0  0  0  0  0  0  0  0
  -22.4620   -4.2430   21.3710 F   0  0  0  0  0  0  0  0  0  0  0  0
  -21.4200   -3.8090   26.0120 F   0  0  0  0  0  0  0  0  0  0  0  0
  -22.8440  -13.5420   21.1550 C   0  0  0  0  0  0  0  0  0  0  0  0
  -22.1630  -12.8330   22.0470 N   0  0  0  0  0  0  0  0  0  0  0  0
  -22.3780  -14.5710   20.6690 O   0  0  0  0  0  0  0  0  0  0  0  0
  -22.5540  -11.9980   22.4600 H   0  0  0  0  0  0  0  0  0  0  0  0
  -21.2360  -13.1250   22.3220 H   0  0  0  0  0  0  0  0  0  0  0  0
  -25.4150  -15.2260   20.2250 N   0  0  0  0  0  0  0  0  0  0  0  0
  -24.6510  -15.8700   20.3960 H   0  0  0  0  0  0  0  0  0  0  0  0
  -26.2560  -15.6840   19.8970 H   0  0  0  0  0  0  0  0  0  0  0  0
  -28.3900  -25.1090   20.9060 C   0  0  0  0  0  2  0  0  0  0  0  0
  -28.4570  -26.3950   20.1340 O   0  0  0  0  0  0  0  0  0  0  0  0
  -24.6330  -31.8220   23.1710 C   0  0  0  0  0  0  0  0  0  0  0  0
  -27.3420  -27.2640   20.1540 C   0  0  0  0  0  0  0  0  0  0  0  0
  -23.4710  -30.4200   21.5070 C   0  0  0  0  0  3  0  0  0  0  0  0
  -24.9610  -28.8780   20.1010 C   0  0  0  0  0  0  0  0  0  0  0  0
  -26.0130  -30.7540   21.3660 C   0  0  0  0  0  2  0  0  0  0  0  0
  -26.1190  -29.3730   20.7190 C   0  0  0  0  0  0  0  0  0  0  0  0
  -27.3160  -28.5830   20.7280 C   0  0  0  0  0  3  0  0  0  0  0  0
  -26.1610  -26.8270   19.5210 C   0  0  0  0  0  3  0  0  0  0  0  0
  -24.9880  -27.6120   19.4890 C   0  0  0  0  0  3  0  0  0  0  0  0
  -23.7160  -29.7450   20.1300 C   0  0  0  0  0  2  0  0  0  0  0  0
  -24.7230  -31.0170   22.0710 N   0  0  0  0  0  0  0  0  0  0  0  0
  -23.5370  -32.0880   23.6890 O   0  0  0  0  0  0  0  0  0  0  0  0
  -22.8000  -29.3970   22.4540 C   0  0  0  0  0  0  0  0  0  0  0  0
  -21.4770  -29.2120   22.3090 N   0  0  0  0  0  0  0  0  0  0  0  0
  -23.4710  -28.7730   23.2810 O   0  0  0  0  0  0  0  0  0  0  0  0
  -20.9970  -29.7650   21.6120 H   0  0  0  0  0  0  0  0  0  0  0  0
  -18.1080  -27.9730   22.7520 C   0  0  0  0  0  0  0  0  0  0  0  0
  -20.6570  -28.2620   23.0610 C   0  0  0  0  0  3  0  0  0  0  0  0
  -20.7850  -26.8350   22.4810 C   0  0  0  0  0  2  0  0  0  0  0  0
  -19.7010  -26.5040   21.4510 C   0  0  0  0  0  2  0  0  0  0  0  0
  -18.3090  -26.6270   22.0760 C   0  0  0  0  0  2  0  0  0  0  0  0
  -19.2100  -28.7470   23.2000 C   0  0  0  0  0  0  0  0  0  0  0  0
  -18.9670  -30.0060   23.7910 C   0  0  0  0  0  3  0  0  0  0  0  0
  -17.6550  -30.4910   23.9400 C   0  0  0  0  0  3  0  0  0  0  0  0
  -16.5650  -29.7170   23.5050 C   0  0  0  0  0  3  0  0  0  0  0  0
  -16.7930  -28.4590   22.9180 C   0  0  0  0  0  3  0  0  0  0  0  0
  -25.8980  -32.4670   23.8170 C   0  0  0  0  0  3  0  0  0  0  0  0
  -25.5670  -33.8600   24.1500 N   0  0  0  0  0  0  0  0  0  0  0  0
  -25.8940  -34.9210   23.4010 C   0  0  0  0  0  0  0  0  0  0  0  0
  -26.5760  -34.8300   22.3760 O   0  0  0  0  0  0  0  0  0  0  0  0
  -24.9570  -34.0020   24.9400 H   0  0  0  0  0  0  0  0  0  0  0  0
  -24.1400  -36.6950   23.0530 C   0  0  0  0  0  1  0  0  0  0  0  0
  -25.3890  -36.3040   23.8610 C   0  0  0  0  0  3  0  0  0  0  0  0
  -27.5110  -37.2200   24.6920 C   0  0  0  0  0  1  0  0  0  0  0  0
  -26.4070  -37.3720   23.7490 N   0  0  0  0  0  0  0  0  0  0  0  0
  -25.9870  -38.2870   23.8940 H   0  0  0  0  0  0  0  0  0  0  0  0
  -26.3990  -31.6970   25.1010 C   0  0  1  0  0  0  0  0  0  0  0  0
  -25.2910  -31.4460   26.1500 C   0  0  0  0  0  1  0  0  0  0  0  0
  -27.0020  -30.3240   24.7190 C   0  0  0  0  0  1  0  0  0  0  0  0
  -27.5300  -32.5000   25.7850 C   0  0  0  0  0  1  0  0  0  0  0  0
  1  2  2  0
  2 52  1  0
  2  4  1  0
  3  1  1  0
  3  5  1  0
  5 10  1  0
  5  4  1  0
  6  3  2  0
  7  9  1  0
  8  7  2  0
  8 10  1  0
  9 11  2  0
 10 12  2  0
 11 23  1  0
 12 13  1  0
 12 11  1  0
 14 23  1  0
 15 20  1  0
 16 17  1  0
 16 15  1  0
 18 17  1  0
 18 27  1  0
 18 19  1  0
 20 14  1  0
 20 19  1  0
 21 14  2  0
 23 22  1  0
 24 25  2  0
 25 44  1  0
 26 25  1  0
 26 29  1  0
 27 28  1  0
 27 24  1  0
 28 26  2  0
 29 30  1  0
 30 31  2  0
 32 35  1  0
 32 31  1  0
 33 32  2  0
 34 33  1  0
 34 29  2  0
 35 36  1  0
 36 37  1  0
 37 38  2  0
 39 38  1  0
 39 43  1  0
 40 39  2  0
 41 36  2  0
 41 40  1  0
 42 41  1  0
 44 45  1  0
 45 48  1  0
 45 47  1  0
 46 44  2  0
 49 24  1  0
 49 50  1  0
 51 49  1  0
 53 55  1  0
 53 52  1  0
 54 65  2  0
 55 60  1  0
 56 64  1  0
 56 66  1  0
 57 63  1  0
 57 59  1  0
 58 64  1  0
 59 60  2  0
 59 58  1  0
 61 55  2  0
 62 61  1  0
 62 57  2  0
 63 56  1  0
 64 54  1  0
 66 68  2  0
 67 66  1  0
 69 67  1  0
 70 79  2  0
 70 75  1  0
 71 67  1  0
 71 75  1  0
 72 71  1  0
 73 74  1  0
 73 72  1  0
 74 70  1  0
 75 76  2  0
 76 77  1  0
 78 77  2  0
 79 78  1  0
 80 54  1  0
 80 81  1  0
 80 90  1  0
 81 84  1  0
 82 86  1  0
 82 81  1  0
 83 82  2  0
 86 85  1  0
 88 86  1  0
 88 89  1  0
 88 87  1  0
 90 93  1  1
 90 91  1  0
 92 90  1  0
M  ISO  4  14 100  23 100  52 101  53 101
M  END
>  <TORSDO>  (46) 
F 18

>  <SCORE>  (46) 
-14.339

>  <name>  (46) 
45

>  <ligand_id>  (46) 
45

>  <original_smiles>  (46) 
[H]C1=C(C([H])([H])Oc2c([H])c([H])c3c(c2[H])C([H])([H])N(C(=O)C([H])(N([H])C(=O)C([H])(N([H])C([H])([H])[H])C([H])([H])[H])C(C([H])([H])[H])(C([H])([H])[H])C([H])([H])[H])C([H])(C(=O)N([H])C2([H])c4c([H])c([H])c([H])c([H])c4C([H])([H])C([H])([H])C2([H])[H])C3([H])[H])C([H])([H])N(c2c([H])c([H])c([H])c(N(C(=O)N3C([H])([H])C([H])([H])C([H])([H])C([H])(n4nc(-c5c([H])c([H])c(Oc6c([H])c([H])c(F)c([H])c6F)c([H])c5[H])c(C(=O)N([H])[H])c4N([H])[H])C3([H])[H])C([H])([H])[H])c2F)C1=O

>  <smiles>  (46) 
[H]C1=C(C([H])([H])Oc2c([H])c([H])c3c(c2[H])C([H])([H])N(C(=O)C([H])(N([H])C(=O)C([H])(N([H])C([H])([H])[H])C([H])([H])[H])C(C([H])([H])[H])(C([H])([H])[H])C([H])([H])[H])C([H])(C(=O)N([H])C2([H])c4c([H])c([H])c([H])c([H])c4C([H])([H])C([H])([H])C2([H])[H])C3([H])[H])C([H])([H])N(c2c([H])c([H])c([H])c(N(C(=O)N3C([H])([H])C([H])([H])C([H])([H])C([H])(n4nc(-c5c([H])c([H])c(Oc6c([H])c([H])c(F)c([H])c6F)c([H])c5[H])c(C(=O)N([H])[H])c4N([H])[H])C3([H])[H])C([H])([H])[H])c2F)C1=O

$$$$
46:0:0
     RDKit          3D

 94102  0  0  1  0  0  0  0  0999 V2000
  -29.8090  -21.6000   21.6600 C   0  0  0  0  0  0  0  0  0  0  0  0
  -30.2930  -21.5430   22.9000 N   0  0  0  0  0  4  0  0  0  0  0  0
  -29.4100  -22.8890   21.3530 N   0  0  0  0  0  0  0  0  0  0  0  0
  -30.4620  -22.3400   23.4920 H   0  0  0  0  0  0  0  0  0  0  0  0
  -30.5540  -20.6390   23.2640 H   0  0  0  0  0  0  0  0  0  0  0  0
  -29.5090  -23.4860   22.1590 H   0  0  0  0  0  0  0  0  0  0  0  0
  -28.6600  -19.5220   20.5960 C   0  0  0  0  0  3  0  0  0  0  0  0
  -28.6810  -18.1010   20.3920 C   0  0  0  0  0  3  0  0  0  0  0  0
  -31.0130  -19.4420   21.0480 C   0  0  0  0  0  3  0  0  0  0  0  0
  -29.8250  -20.2330   20.9820 C   0  0  0  0  0  0  0  0  0  0  0  0
  -29.8530  -17.2940   20.5450 C   0  0  0  0  0  0  0  0  0  0  0  0
  -31.0370  -18.0240   20.8500 C   0  0  0  0  0  0  0  0  0  0  0  0
  -32.2060  -17.3710   21.0490 F   0  0  0  0  0  0  0  0  0  0  0  0
  -30.5490  -14.7710   20.1640 C   0  0  0  0  0  0  0  0  0  0  0  0
  -30.3170  -12.5410   19.0640 C   0  0  0  0  0  2  0  0  0  0  0  0
  -29.3180  -12.6680   17.8920 C   0  0  0  0  0  2  0  0  0  0  0  0
  -27.8700  -12.4780   18.3830 C   0  0  0  0  0  2  0  0  0  0  0  0
  -27.5540  -13.3220   19.6460 C   0  0  0  0  0  3  0  0  0  0  0  0
  -28.6620  -13.1700   20.7150 C   0  0  0  0  0  2  0  0  0  0  0  0
  -29.9390  -13.5410   20.0860 N   0  0  0  0  0  0  0  0  0  0  0  0
  -31.7030  -14.9220   19.7530 O   0  0  0  0  0  0  0  0  0  0  0  0
  -29.7230  -15.8230   20.4970 N   0  0  0  0  0  0  0  0  0  0  0  0
  -28.7920  -15.5000   20.7030 H   0  0  0  0  0  0  0  0  0  0  0  0
  -25.1940  -13.9040   20.4740 C   0  0  0  0  0  0  0  0  0  0  0  0
  -24.1440  -13.1230   20.8740 C   0  0  0  0  0  0  0  0  0  0  0  0
  -24.6070  -11.7750   20.8040 C   0  0  0  0  0  0  0  0  0  0  0  0
  -26.2290  -13.0300   20.1810 N   0  0  0  0  0  0  0  0  0  0  0  0
  -25.8830  -11.7430   20.4420 N   0  0  0  0  0  0  0  0  0  0  0  0
  -23.8910  -10.5070   21.0020 C   0  0  0  0  0  0  0  0  0  0  0  0
  -24.3550   -9.5310   21.9090 C   0  0  0  0  0  3  0  0  0  0  0  0
  -23.6410   -8.3280   22.0960 C   0  0  0  0  0  3  0  0  0  0  0  0
  -22.4440   -8.0950   21.3760 C   0  0  0  0  0  0  0  0  0  0  0  0
  -21.9980   -9.0620   20.4570 C   0  0  0  0  0  3  0  0  0  0  0  0
  -22.7160  -10.2550   20.2690 C   0  0  0  0  0  3  0  0  0  0  0  0
  -21.6970   -6.9470   21.4740 O   0  0  0  0  0  0  0  0  0  0  0  0
  -21.6850   -6.1920   22.6200 C   0  0  0  0  0  0  0  0  0  0  0  0
  -21.2900   -6.7300   23.8640 C   0  0  0  0  0  3  0  0  0  0  0  0
  -21.2270   -5.9010   25.0010 C   0  0  0  0  0  3  0  0  0  0  0  0
  -21.5480   -4.5350   24.8940 C   0  0  0  0  0  0  0  0  0  0  0  0
  -21.9350   -3.9960   23.6550 C   0  0  0  0  0  3  0  0  0  0  0  0
  -22.0010   -4.8220   22.5200 C   0  0  0  0  0  0  0  0  0  0  0  0
  -22.3550   -4.2940   21.3240 F   0  0  0  0  0  0  0  0  0  0  0  0
  -21.4790   -3.7350   25.9850 F   0  0  0  0  0  0  0  0  0  0  0  0
  -22.7580  -13.5950   21.2070 C   0  0  0  0  0  0  0  0  0  0  0  0
  -22.0630  -12.8800   22.0840 N   0  0  0  0  0  0  0  0  0  0  0  0
  -22.3020  -14.6320   20.7250 O   0  0  0  0  0  0  0  0  0  0  0  0
  -22.4460  -12.0410   22.4920 H   0  0  0  0  0  0  0  0  0  0  0  0
  -21.1340  -13.1770   22.3500 H   0  0  0  0  0  0  0  0  0  0  0  0
  -25.3480  -15.2770   20.3080 N   0  0  0  0  0  0  0  0  0  0  0  0
  -24.5760  -15.9190   20.4440 H   0  0  0  0  0  0  0  0  0  0  0  0
  -26.1460  -15.7120   19.8660 H   0  0  0  0  0  0  0  0  0  0  0  0
  -28.9520  -23.8010   20.2280 C   0  0  0  0  0  2  0  0  0  0  0  0
  -28.1350  -25.1010   20.7340 C   0  0  0  0  0  2  0  0  0  0  0  0
  -28.3590  -26.4920   20.2300 O   0  0  0  0  0  0  0  0  0  0  0  0
  -24.5930  -31.9110   23.2370 C   0  0  0  0  0  0  0  0  0  0  0  0
  -27.2480  -27.3570   20.2030 C   0  0  0  0  0  0  0  0  0  0  0  0
  -23.4060  -30.5070   21.5910 C   0  0  0  0  0  3  0  0  0  0  0  0
  -24.8760  -28.9650   20.1730 C   0  0  0  0  0  0  0  0  0  0  0  0
  -25.9460  -30.8380   21.4210 C   0  0  0  0  0  2  0  0  0  0  0  0
  -26.0390  -29.4590   20.7760 C   0  0  0  0  0  0  0  0  0  0  0  0
  -27.2310  -28.6690   20.7780 C   0  0  0  0  0  3  0  0  0  0  0  0
  -26.0660  -26.9250   19.5630 C   0  0  0  0  0  3  0  0  0  0  0  0
  -24.8920  -27.7040   19.5560 C   0  0  0  0  0  3  0  0  0  0  0  0
  -23.6330  -29.8320   20.2120 C   0  0  0  0  0  2  0  0  0  0  0  0
  -24.6670  -31.1040   22.1390 N   0  0  0  0  0  0  0  0  0  0  0  0
  -23.5060  -32.1830   23.7670 O   0  0  0  0  0  0  0  0  0  0  0  0
  -22.7440  -29.4870   22.5480 C   0  0  0  0  0  0  0  0  0  0  0  0
  -21.4190  -29.3010   22.4130 N   0  0  0  0  0  0  0  0  0  0  0  0
  -23.4210  -28.8660   23.3720 O   0  0  0  0  0  0  0  0  0  0  0  0
  -20.9300  -29.8520   21.7210 H   0  0  0  0  0  0  0  0  0  0  0  0
  -18.0460  -28.0850   22.8940 C   0  0  0  0  0  0  0  0  0  0  0  0
  -20.6010  -28.3590   23.1810 C   0  0  0  0  0  3  0  0  0  0  0  0
  -20.7160  -26.9280   22.6070 C   0  0  0  0  0  2  0  0  0  0  0  0
  -19.6230  -26.5980   21.5860 C   0  0  0  0  0  2  0  0  0  0  0  0
  -18.2360  -26.7360   22.2200 C   0  0  0  0  0  2  0  0  0  0  0  0
  -19.1580  -28.8540   23.3300 C   0  0  0  0  0  0  0  0  0  0  0  0
  -18.9260  -30.1160   23.9180 C   0  0  0  0  0  3  0  0  0  0  0  0
  -17.6180  -30.6090   24.0770 C   0  0  0  0  0  3  0  0  0  0  0  0
  -16.5210  -29.8370   23.6560 C   0  0  0  0  0  3  0  0  0  0  0  0
  -16.7360  -28.5770   23.0700 C   0  0  0  0  0  3  0  0  0  0  0  0
  -25.8680  -32.5520   23.8660 C   0  0  0  0  0  3  0  0  0  0  0  0
  -26.3750  -31.7910   25.1530 C   0  0  1  0  0  0  0  0  0  0  0  0
  -25.2730  -31.5600   26.2130 C   0  0  0  0  0  1  0  0  0  0  0  0
  -26.9650  -30.4110   24.7790 C   0  0  0  0  0  1  0  0  0  0  0  0
  -27.5170  -32.5940   25.8210 C   0  0  0  0  0  1  0  0  0  0  0  0
  -25.5530  -33.9520   24.1840 N   0  0  0  0  0  0  0  0  0  0  0  0
  -25.8940  -35.0010   23.4240 C   0  0  0  0  0  0  0  0  0  0  0  0
  -26.5760  -34.8930   22.4010 O   0  0  0  0  0  0  0  0  0  0  0  0
  -24.9530  -34.1110   24.9800 H   0  0  0  0  0  0  0  0  0  0  0  0
  -24.1720  -36.7930   23.0390 C   0  0  0  0  0  1  0  0  0  0  0  0
  -25.4010  -36.3920   23.8690 C   0  0  0  0  0  3  0  0  0  0  0  0
  -27.5230  -37.2810   24.7280 C   0  0  0  0  0  1  0  0  0  0  0  0
  -26.4360  -37.4440   23.7660 N   0  0  0  0  0  0  0  0  0  0  0  0
  -26.0280  -38.3650   23.9030 H   0  0  0  0  0  0  0  0  0  0  0  0
  1  2  2  0
  2  5  1  0
  2  4  1  0
  3  1  1  0
  3  6  1  0
  7 10  1  0
  8 11  1  0
  8  7  2  0
 10  9  2  0
 10  1  1  0
 11 12  2  0
 12  9  1  0
 12 13  1  0
 14 22  1  0
 15 20  1  0
 16 17  1  0
 16 15  1  0
 18 17  1  0
 18 27  1  0
 18 19  1  0
 20 14  1  0
 20 19  1  0
 21 14  2  0
 22 11  1  0
 22 23  1  0
 24 25  2  0
 25 44  1  0
 26 25  1  0
 26 29  1  0
 27 28  1  0
 27 24  1  0
 28 26  2  0
 29 30  1  0
 30 31  2  0
 32 35  1  0
 32 31  1  0
 33 32  2  0
 34 33  1  0
 34 29  2  0
 35 36  1  0
 36 37  1  0
 37 38  2  0
 39 38  1  0
 39 43  1  0
 40 39  2  0
 41 36  2  0
 41 40  1  0
 42 41  1  0
 44 45  1  0
 45 48  1  0
 45 47  1  0
 46 44  2  0
 49 50  1  0
 49 24  1  0
 51 49  1  0
 52 53  1  0
 52  3  1  0
 54 53  1  0
 55 66  2  0
 56 54  1  0
 56 61  1  0
 57 65  1  0
 57 67  1  0
 58 64  1  0
 58 60  1  0
 59 65  1  0
 60 61  2  0
 60 59  1  0
 62 56  2  0
 63 62  1  0
 63 58  2  0
 64 57  1  0
 65 55  1  0
 67 69  2  0
 68 67  1  0
 70 68  1  0
 71 80  2  0
 71 76  1  0
 72 68  1  0
 72 76  1  0
 73 72  1  0
 74 75  1  0
 74 73  1  0
 75 71  1  0
 76 77  2  0
 77 78  1  0
 79 78  2  0
 80 79  1  0
 81 55  1  0
 81 86  1  0
 81 82  1  0
 82 85  1  1
 82 83  1  0
 84 82  1  0
 86 89  1  0
 87 91  1  0
 87 86  1  0
 88 87  2  0
 91 90  1  0
 93 91  1  0
 93 94  1  0
 93 92  1  0
M  ISO  4  14 100  22 100  53 101  54 101
M  END
>  <TORSDO>  (47) 
F 19

>  <SCORE>  (47) 
-14.647

>  <name>  (47) 
46

>  <ligand_id>  (47) 
46

>  <original_smiles>  (47) 
[H]c1c([H])c([H])c2c(c1[H])C([H])([H])C([H])([H])C([H])([H])C2([H])N([H])C(=O)C1([H])N(C(=O)C([H])(N([H])C(=O)C([H])(N([H])C([H])([H])[H])C([H])([H])[H])C(C([H])([H])[H])(C([H])([H])[H])C([H])([H])[H])C([H])([H])c2c([H])c(OC([H])([H])C([H])([H])[N+]([H])=C(c3c([H])c([H])c(N([H])C(=O)N4C([H])([H])C([H])([H])C([H])([H])C([H])(n5nc(-c6c([H])c([H])c(Oc7c([H])c([H])c(F)c([H])c7F)c([H])c6[H])c(C(=O)N([H])[H])c5N([H])[H])C4([H])[H])c(F)c3[H])N([H])[H])c([H])c([H])c2C1([H])[H]

>  <smiles>  (47) 
[H]c1c([H])c([H])c2c(c1[H])C([H])([H])C([H])([H])C([H])([H])C2([H])N([H])C(=O)C1([H])N(C(=O)C([H])(N([H])C(=O)C([H])(N([H])C([H])([H])[H])C([H])([H])[H])C(C([H])([H])[H])(C([H])([H])[H])C([H])([H])[H])C([H])([H])c2c([H])c(OC([H])([H])C([H])([H])[N+]([H])=C(c3c([H])c([H])c(N([H])C(=O)N4C([H])([H])C([H])([H])C([H])([H])C([H])(n5nc(-c6c([H])c([H])c(Oc7c([H])c([H])c(F)c([H])c7F)c([H])c6[H])c(C(=O)N([H])[H])c5N([H])[H])C4([H])[H])c(F)c3[H])N([H])[H])c([H])c([H])c2C1([H])[H]

$$$$
47:0:0
     RDKit          3D

 94103  0  0  1  0  0  0  0  0999 V2000
  -29.0990  -22.6950   19.9970 C   0  0  0  0  0  0  0  0  0  0  0  0
  -29.9450  -22.2950   18.2560 C   0  0  0  0  0  0  0  0  0  0  0  0
  -28.8060  -23.3470   18.6060 C   0  0  1  0  0  0  0  0  0  0  0  0
  -27.4850  -22.7740   18.0020 C   0  0  0  0  0  1  0  0  0  0  0  0
  -29.5200  -21.4710   19.3580 N   0  0  0  0  0  0  0  0  0  0  0  0
  -28.9720  -23.0070   21.1620 O   0  0  0  0  0  0  0  0  0  0  0  0
  -30.7650  -22.1200   17.3790 O   0  0  0  0  0  0  0  0  0  0  0  0
  -28.1850  -18.2420   21.0490 C   0  0  0  0  0  3  0  0  0  0  0  0
  -28.9600  -17.1820   20.5810 C   0  0  0  0  0  3  0  0  0  0  0  0
  -30.1050  -18.8020   19.1670 C   0  0  0  0  0  3  0  0  0  0  0  0
  -28.3370  -19.5690   20.5920 C   0  0  0  0  0  0  0  0  0  0  0  0
  -29.3740  -19.9850   19.6780 C   0  0  0  0  0  0  0  0  0  0  0  0
  -29.9180  -17.3940   19.5850 C   0  0  0  0  0  0  0  0  0  0  0  0
  -27.2470  -20.4980   21.1180 C   0  0  0  0  0  1  0  0  0  0  0  0
  -31.2200  -15.0520   19.4320 C   0  0  0  0  0  0  0  0  0  0  0  0
  -31.0320  -12.6580   18.7140 C   0  0  0  0  0  2  0  0  0  0  0  0
  -30.0000  -12.5000   17.5770 C   0  0  0  0  0  2  0  0  0  0  0  0
  -28.5810  -12.3260   18.1500 C   0  0  0  0  0  2  0  0  0  0  0  0
  -28.2510  -13.3480   19.2690 C   0  0  0  0  0  3  0  0  0  0  0  0
  -29.3990  -13.4490   20.2900 C   0  0  0  0  0  2  0  0  0  0  0  0
  -30.5960  -13.8220   19.5250 N   0  0  0  0  0  0  0  0  0  0  0  0
  -32.4300  -15.0690   19.1930 O   0  0  0  0  0  0  0  0  0  0  0  0
  -30.5170  -16.1740   18.9660 N   0  0  0  0  0  0  0  0  0  0  0  0
  -30.9720  -16.4340   18.1030 H   0  0  0  0  0  0  0  0  0  0  0  0
  -25.9780  -13.9660   20.2800 C   0  0  0  0  0  0  0  0  0  0  0  0
  -24.9310  -13.2030   20.7230 C   0  0  0  0  0  0  0  0  0  0  0  0
  -25.3480  -11.8430   20.5880 C   0  0  0  0  0  0  0  0  0  0  0  0
  -26.9640  -13.0700   19.8980 N   0  0  0  0  0  0  0  0  0  0  0  0
  -26.6010  -11.7840   20.1500 N   0  0  0  0  0  0  0  0  0  0  0  0
  -24.6050  -10.5930   20.8000 C   0  0  0  0  0  0  0  0  0  0  0  0
  -24.9690   -9.6810   21.8160 C   0  0  0  0  0  3  0  0  0  0  0  0
  -24.2270   -8.4970   22.0130 C   0  0  0  0  0  3  0  0  0  0  0  0
  -23.1070   -8.2160   21.1940 C   0  0  0  0  0  0  0  0  0  0  0  0
  -22.7620   -9.1160   20.1710 C   0  0  0  0  0  3  0  0  0  0  0  0
  -23.5060  -10.2930   19.9730 C   0  0  0  0  0  3  0  0  0  0  0  0
  -22.3440   -7.0780   21.2960 O   0  0  0  0  0  0  0  0  0  0  0  0
  -21.9870   -6.5570   22.5140 C   0  0  0  0  0  0  0  0  0  0  0  0
  -21.2840   -7.3190   23.4720 C   0  0  0  0  0  3  0  0  0  0  0  0
  -20.8740   -6.7240   24.6820 C   0  0  0  0  0  3  0  0  0  0  0  0
  -21.1560   -5.3670   24.9320 C   0  0  0  0  0  0  0  0  0  0  0  0
  -21.8500   -4.6060   23.9760 C   0  0  0  0  0  3  0  0  0  0  0  0
  -22.2620   -5.1980   22.7700 C   0  0  0  0  0  0  0  0  0  0  0  0
  -22.9120   -4.4530   21.8440 F   0  0  0  0  0  0  0  0  0  0  0  0
  -20.7560   -4.7940   26.0910 F   0  0  0  0  0  0  0  0  0  0  0  0
  -23.5840  -13.7070   21.1540 C   0  0  0  0  0  0  0  0  0  0  0  0
  -22.9440  -13.0180   22.0930 N   0  0  0  0  0  0  0  0  0  0  0  0
  -23.1110  -14.7460   20.6950 O   0  0  0  0  0  0  0  0  0  0  0  0
  -23.3450  -12.1830   22.4920 H   0  0  0  0  0  0  0  0  0  0  0  0
  -22.0420  -13.3350   22.4190 H   0  0  0  0  0  0  0  0  0  0  0  0
  -26.1700  -15.3390   20.1540 N   0  0  0  0  0  0  0  0  0  0  0  0
  -25.4530  -16.0070   20.4060 H   0  0  0  0  0  0  0  0  0  0  0  0
  -27.0290  -15.7770   19.8440 H   0  0  0  0  0  0  0  0  0  0  0  0
  -28.6580  -24.9800   18.2890 C   0  0  0  0  0  2  0  0  0  0  0  0
  -28.9500  -26.4060   18.7870 O   0  0  0  0  0  0  0  0  0  0  0  0
  -24.9000  -31.0700   22.7680 C   0  0  0  0  0  0  0  0  0  0  0  0
  -27.8160  -27.2910   18.8960 C   0  0  0  0  0  0  0  0  0  0  0  0
  -23.7760  -29.7930   20.9930 C   0  0  0  0  0  3  0  0  0  0  0  0
  -25.3030  -28.6900   19.2630 C   0  0  0  0  0  0  0  0  0  0  0  0
  -26.2620  -30.4150   20.7560 C   0  0  0  0  0  2  0  0  0  0  0  0
  -26.4580  -29.1690   19.8910 C   0  0  0  0  0  0  0  0  0  0  0  0
  -27.7130  -28.4810   19.7120 C   0  0  0  0  0  3  0  0  0  0  0  0
  -26.6220  -26.9550   18.2010 C   0  0  0  0  0  3  0  0  0  0  0  0
  -25.3920  -27.5940   18.4060 C   0  0  0  0  0  3  0  0  0  0  0  0
  -23.9830  -29.3900   19.5120 C   0  0  0  0  0  2  0  0  0  0  0  0
  -25.0000  -30.4390   21.5620 N   0  0  0  0  0  0  0  0  0  0  0  0
  -23.8250  -31.1250   23.3830 O   0  0  0  0  0  0  0  0  0  0  0  0
  -23.2960  -28.5610   21.8010 C   0  0  0  0  0  0  0  0  0  0  0  0
  -22.0440  -28.1260   21.5660 N   0  0  0  0  0  0  0  0  0  0  0  0
  -24.0490  -28.0090   22.6070 O   0  0  0  0  0  0  0  0  0  0  0  0
  -21.4770  -28.6370   20.9040 H   0  0  0  0  0  0  0  0  0  0  0  0
  -19.0540  -26.0810   21.5850 C   0  0  0  0  0  0  0  0  0  0  0  0
  -21.4060  -26.9650   22.1950 C   0  0  0  0  0  3  0  0  0  0  0  0
  -21.9420  -25.6410   21.6030 C   0  0  0  0  0  2  0  0  0  0  0  0
  -21.0920  -25.1030   20.4480 C   0  0  0  0  0  2  0  0  0  0  0  0
  -19.6520  -24.8610   20.9070 C   0  0  0  0  0  2  0  0  0  0  0  0
  -19.8770  -27.0770   22.1770 C   0  0  0  0  0  0  0  0  0  0  0  0
  -19.2700  -28.2020   22.7710 C   0  0  0  0  0  3  0  0  0  0  0  0
  -17.8690  -28.3420   22.7810 C   0  0  0  0  0  3  0  0  0  0  0  0
  -17.0590  -27.3480   22.2050 C   0  0  0  0  0  3  0  0  0  0  0  0
  -17.6500  -26.2200   21.6110 C   0  0  0  0  0  3  0  0  0  0  0  0
  -26.1320  -31.7640   23.4250 C   0  0  0  0  0  3  0  0  0  0  0  0
  -25.6810  -33.0600   23.9530 N   0  0  0  0  0  0  0  0  0  0  0  0
  -25.8070  -34.2290   23.3100 C   0  0  0  0  0  0  0  0  0  0  0  0
  -26.3820  -34.3360   22.2230 O   0  0  0  0  0  0  0  0  0  0  0  0
  -25.1510  -33.0400   24.8110 H   0  0  0  0  0  0  0  0  0  0  0  0
  -23.8390  -35.7980   23.3370 C   0  0  0  0  0  1  0  0  0  0  0  0
  -25.1980  -35.4780   23.9800 C   0  0  0  0  0  3  0  0  0  0  0  0
  -27.2690  -36.5560   24.7420 C   0  0  0  0  0  1  0  0  0  0  0  0
  -26.0730  -36.6690   23.9100 N   0  0  0  0  0  0  0  0  0  0  0  0
  -25.5680  -37.5040   24.1900 H   0  0  0  0  0  0  0  0  0  0  0  0
  -26.7900  -30.9000   24.5710 C   0  0  1  0  0  0  0  0  0  0  0  0
  -25.7750  -30.3730   25.6120 C   0  0  0  0  0  1  0  0  0  0  0  0
  -27.5360  -29.6810   23.9820 C   0  0  0  0  0  1  0  0  0  0  0  0
  -27.8450  -31.7450   25.3200 C   0  0  0  0  0  1  0  0  0  0  0  0
  1  6  2  0
  2  3  1  0
  2  5  1  0
  3  4  1  6
  3  1  1  0
  5 12  1  0
  5  1  1  0
  7  2  2  0
  9  8  2  0
 10 13  2  0
 10 12  1  0
 11  8  1  0
 11 14  1  0
 12 11  2  0
 13  9  1  0
 15 21  1  0
 16 21  1  0
 17 18  1  0
 17 16  1  0
 19 18  1  0
 19 28  1  0
 19 20  1  0
 21 20  1  0
 22 15  2  0
 23 15  1  0
 23 13  1  0
 24 23  1  0
 25 26  2  0
 26 45  1  0
 27 26  1  0
 27 30  1  0
 28 29  1  0
 28 25  1  0
 29 27  2  0
 30 31  1  0
 31 32  2  0
 33 36  1  0
 33 32  1  0
 34 33  2  0
 35 34  1  0
 35 30  2  0
 36 37  1  0
 37 42  2  0
 37 38  1  0
 38 39  2  0
 39 40  1  0
 40 44  1  0
 41 40  2  0
 42 41  1  0
 43 42  1  0
 45 46  1  0
 46 49  1  0
 46 48  1  0
 47 45  2  0
 50 25  1  0
 50 51  1  0
 52 50  1  0
 53  3  1  0
 53 54  1  0
 54 56  1  0
 55 66  2  0
 56 61  1  0
 57 65  1  0
 57 67  1  0
 58 64  1  0
 58 60  1  0
 59 65  1  0
 60 59  1  0
 61 60  2  0
 62 63  1  0
 62 56  2  0
 63 58  2  0
 64 57  1  0
 65 55  1  0
 67 69  2  0
 68 67  1  0
 70 68  1  0
 71 80  2  0
 71 76  1  0
 72 68  1  0
 73 72  1  0
 74 75  1  0
 74 73  1  0
 75 71  1  0
 76 72  1  0
 76 77  2  0
 77 78  1  0
 79 78  2  0
 80 79  1  0
 81 55  1  0
 81 82  1  0
 81 91  1  0
 82 85  1  0
 83 82  1  0
 83 87  1  0
 84 83  2  0
 87 86  1  0
 89 87  1  0
 89 90  1  0
 89 88  1  0
 91 94  1  1
 91 92  1  0
 93 91  1  0
M  ISO  4  15 100  23 100  53 101  54 101
M  END
>  <TORSDO>  (48) 
F 18

>  <SCORE>  (48) 
-8.138

>  <name>  (48) 
47

>  <ligand_id>  (48) 
47

>  <original_smiles>  (48) 
[H]c1c([H])c([H])c2c(c1[H])C([H])([H])C([H])([H])C([H])([H])C2([H])N([H])C(=O)C1([H])N(C(=O)C([H])(N([H])C(=O)C([H])(N([H])C([H])([H])[H])C([H])([H])[H])C(C([H])([H])[H])(C([H])([H])[H])C([H])([H])[H])C([H])([H])c2c([H])c(OC([H])([H])C3(C([H])([H])[H])C(=O)N(c4c([H])c(N([H])C(=O)N5C([H])([H])C([H])([H])C([H])([H])C([H])(n6nc(-c7c([H])c([H])c(Oc8c([H])c([H])c(F)c([H])c8F)c([H])c7[H])c(C(=O)N([H])[H])c6N([H])[H])C5([H])[H])c([H])c([H])c4C([H])([H])[H])C3=O)c([H])c([H])c2C1([H])[H]

>  <smiles>  (48) 
[H]c1c([H])c([H])c2c(c1[H])C([H])([H])C([H])([H])C([H])([H])C2([H])N([H])C(=O)C1([H])N(C(=O)C([H])(N([H])C(=O)C([H])(N([H])C([H])([H])[H])C([H])([H])[H])C(C([H])([H])[H])(C([H])([H])[H])C([H])([H])[H])C([H])([H])c2c([H])c(OC([H])([H])C3(C([H])([H])[H])C(=O)N(c4c([H])c(N([H])C(=O)N5C([H])([H])C([H])([H])C([H])([H])C([H])(n6nc(-c7c([H])c([H])c(Oc8c([H])c([H])c(F)c([H])c8F)c([H])c7[H])c(C(=O)N([H])[H])c6N([H])[H])C5([H])[H])c([H])c([H])c4C([H])([H])[H])C3=O)c([H])c([H])c2C1([H])[H]

$$$$
48:0:0
     RDKit          3D

 97106  0  0  1  0  0  0  0  0999 V2000
  -31.1210  -23.4040   20.2900 C   0  0  0  0  0  0  0  0  0  0  0  0
  -30.6950  -24.8340   20.6070 C   0  0  0  0  0  2  0  0  0  0  0  0
  -28.8910  -23.2820   20.8470 C   0  0  0  0  0  2  0  0  0  0  0  0
  -29.4040  -24.6420   21.4110 C   0  0  1  0  0  0  0  0  0  0  0  0
  -29.7580  -24.4300   22.9060 C   0  0  0  0  0  1  0  0  0  0  0  0
  -30.0930  -22.5340   20.4260 N   0  0  0  0  0  0  0  0  0  0  0  0
  -32.2900  -23.1390   19.9910 O   0  0  0  0  0  0  0  0  0  0  0  0
  -31.1020  -19.1580   19.0180 C   0  0  0  0  0  3  0  0  0  0  0  0
  -31.0590  -20.5410   19.2810 C   0  0  0  0  0  3  0  0  0  0  0  0
  -29.2840  -20.1810   20.8710 C   0  0  0  0  0  3  0  0  0  0  0  0
  -30.2260  -18.2360   19.6490 C   0  0  0  0  0  0  0  0  0  0  0  0
  -30.1430  -21.0970   20.2050 C   0  0  0  0  0  0  0  0  0  0  0  0
  -29.3250  -18.7820   20.6050 C   0  0  0  0  0  0  0  0  0  0  0  0
  -28.4470  -17.9720   21.2450 F   0  0  0  0  0  0  0  0  0  0  0  0
  -31.2280  -16.4600   18.0660 C   0  0  0  0  0  1  0  0  0  0  0  0
  -28.8090  -16.6460   18.3660 C   0  0  0  0  0  1  0  0  0  0  0  0
  -30.1390  -16.7520   19.1430 C   0  0  2  0  0  0  0  0  0  0  0  0
  -30.8730  -14.5690   20.3130 C   0  0  0  0  0  0  0  0  0  0  0  0
  -30.5760  -12.3520   19.3130 C   0  0  0  0  0  2  0  0  0  0  0  0
  -29.6490  -12.5210   18.0900 C   0  0  0  0  0  2  0  0  0  0  0  0
  -28.1680  -12.4110   18.5060 C   0  0  0  0  0  2  0  0  0  0  0  0
  -27.8200  -13.2760   19.7470 C   0  0  0  0  0  3  0  0  0  0  0  0
  -28.8750  -13.1220   20.8690 C   0  0  0  0  0  2  0  0  0  0  0  0
  -30.2010  -13.3840   20.2920 N   0  0  0  0  0  0  0  0  0  0  0  0
  -32.0830  -14.6360   20.0920 O   0  0  0  0  0  0  0  0  0  0  0  0
  -30.0800  -15.6680   20.1830 N   0  0  0  0  0  0  0  0  0  0  0  0
  -29.1510  -15.5200   20.5460 H   0  0  0  0  0  0  0  0  0  0  0  0
  -25.4250  -13.9150   20.4250 C   0  0  0  0  0  0  0  0  0  0  0  0
  -24.3450  -13.1560   20.7890 C   0  0  0  0  0  0  0  0  0  0  0  0
  -24.7960  -11.8000   20.7840 C   0  0  0  0  0  0  0  0  0  0  0  0
  -26.4650  -13.0190   20.2210 N   0  0  0  0  0  0  0  0  0  0  0  0
  -26.0900  -11.7450   20.4990 N   0  0  0  0  0  0  0  0  0  0  0  0
  -24.0560  -10.5480   20.9800 C   0  0  0  0  0  0  0  0  0  0  0  0
  -24.4720   -9.5870   21.9270 C   0  0  0  0  0  3  0  0  0  0  0  0
  -23.7350   -8.3970   22.1120 C   0  0  0  0  0  3  0  0  0  0  0  0
  -22.5680   -8.1610   21.3470 C   0  0  0  0  0  0  0  0  0  0  0  0
  -22.1710   -9.1110   20.3890 C   0  0  0  0  0  3  0  0  0  0  0  0
  -22.9090  -10.2910   20.2040 C   0  0  0  0  0  3  0  0  0  0  0  0
  -21.8040   -7.0240   21.4410 O   0  0  0  0  0  0  0  0  0  0  0  0
  -21.7390   -6.2930   22.6000 C   0  0  0  0  0  0  0  0  0  0  0  0
  -21.3000   -6.8620   23.8150 C   0  0  0  0  0  3  0  0  0  0  0  0
  -21.1830   -6.0570   24.9660 C   0  0  0  0  0  3  0  0  0  0  0  0
  -21.4940   -4.6860   24.9020 C   0  0  0  0  0  0  0  0  0  0  0  0
  -21.9250   -4.1170   23.6910 C   0  0  0  0  0  3  0  0  0  0  0  0
  -22.0450   -4.9180   22.5420 C   0  0  0  0  0  0  0  0  0  0  0  0
  -22.4410   -4.3600   21.3730 F   0  0  0  0  0  0  0  0  0  0  0  0
  -21.3740   -3.9120   26.0060 F   0  0  0  0  0  0  0  0  0  0  0  0
  -22.9470  -13.6490   21.0310 C   0  0  0  0  0  0  0  0  0  0  0  0
  -22.2000  -12.9750   21.8970 N   0  0  0  0  0  0  0  0  0  0  0  0
  -22.5260  -14.6700   20.4880 O   0  0  0  0  0  0  0  0  0  0  0  0
  -22.5510  -12.1510   22.3630 H   0  0  0  0  0  0  0  0  0  0  0  0
  -21.2610  -13.2890   22.0990 H   0  0  0  0  0  0  0  0  0  0  0  0
  -25.6010  -15.2810   20.2300 N   0  0  0  0  0  0  0  0  0  0  0  0
  -24.8360  -15.9390   20.3330 H   0  0  0  0  0  0  0  0  0  0  0  0
  -26.4590  -15.7170   19.9200 H   0  0  0  0  0  0  0  0  0  0  0  0
  -28.4110  -25.8580   21.3530 C   0  0  0  0  0  2  0  0  0  0  0  0
  -28.2670  -26.5740   20.1140 O   0  0  0  0  0  0  0  0  0  0  0  0
  -24.5110  -31.8280   23.1960 C   0  0  0  0  0  0  0  0  0  0  0  0
  -27.1460  -27.3810   20.1000 C   0  0  0  0  0  0  0  0  0  0  0  0
  -23.3030  -30.4370   21.5460 C   0  0  0  0  0  3  0  0  0  0  0  0
  -24.7570  -28.9020   20.1120 C   0  0  0  0  0  0  0  0  0  0  0  0
  -25.8310  -30.7850   21.3560 C   0  0  0  0  0  2  0  0  0  0  0  0
  -25.9160  -29.4170   20.7080 C   0  0  0  0  0  0  0  0  0  0  0  0
  -27.1160  -28.6630   20.7040 C   0  0  0  0  0  3  0  0  0  0  0  0
  -25.9760  -26.8870   19.4890 C   0  0  0  0  0  3  0  0  0  0  0  0
  -24.7820  -27.6360   19.4990 C   0  0  0  0  0  3  0  0  0  0  0  0
  -23.5130  -29.7620   20.1640 C   0  0  0  0  0  2  0  0  0  0  0  0
  -24.5660  -31.0310   22.0910 N   0  0  0  0  0  0  0  0  0  0  0  0
  -23.4310  -32.1010   23.7380 O   0  0  0  0  0  0  0  0  0  0  0  0
  -22.6460  -29.4150   22.5030 C   0  0  0  0  0  0  0  0  0  0  0  0
  -21.3190  -29.2450   22.3810 N   0  0  0  0  0  0  0  0  0  0  0  0
  -23.3290  -28.7780   23.3090 O   0  0  0  0  0  0  0  0  0  0  0  0
  -20.8310  -29.8100   21.7010 H   0  0  0  0  0  0  0  0  0  0  0  0
  -17.9350  -28.0860   22.8980 C   0  0  0  0  0  0  0  0  0  0  0  0
  -20.4990  -28.3080   23.1480 C   0  0  0  0  0  3  0  0  0  0  0  0
  -20.5780  -26.8840   22.5530 C   0  0  0  0  0  2  0  0  0  0  0  0
  -19.4630  -26.5880   21.5460 C   0  0  0  0  0  2  0  0  0  0  0  0
  -18.0890  -26.7420   22.2040 C   0  0  0  0  0  2  0  0  0  0  0  0
  -19.0680  -28.8270   23.3270 C   0  0  0  0  0  0  0  0  0  0  0  0
  -18.8700  -30.0860   23.9360 C   0  0  0  0  0  3  0  0  0  0  0  0
  -17.5740  -30.6020   24.1200 C   0  0  0  0  0  3  0  0  0  0  0  0
  -16.4570  -29.8560   23.7070 C   0  0  0  0  0  3  0  0  0  0  0  0
  -16.6370  -28.6000   23.1010 C   0  0  0  0  0  3  0  0  0  0  0  0
  -25.7980  -32.4520   23.8200 C   0  0  0  0  0  3  0  0  0  0  0  0
  -26.3140  -31.6760   25.0930 C   0  0  1  0  0  0  0  0  0  0  0  0
  -25.2200  -31.4440   26.1630 C   0  0  0  0  0  1  0  0  0  0  0  0
  -26.8920  -30.2970   24.7000 C   0  0  0  0  0  1  0  0  0  0  0  0
  -27.4690  -32.4640   25.7550 C   0  0  0  0  0  1  0  0  0  0  0  0
  -25.4970  -33.8510   24.1510 N   0  0  0  0  0  0  0  0  0  0  0  0
  -25.8470  -34.9030   23.3990 C   0  0  0  0  0  0  0  0  0  0  0  0
  -26.5310  -34.7990   22.3780 O   0  0  0  0  0  0  0  0  0  0  0  0
  -24.8900  -34.0070   24.9430 H   0  0  0  0  0  0  0  0  0  0  0  0
  -24.1460  -36.7170   23.0190 C   0  0  0  0  0  1  0  0  0  0  0  0
  -25.3640  -36.2940   23.8550 C   0  0  0  0  0  3  0  0  0  0  0  0
  -27.4890  -37.1510   24.7400 C   0  0  0  0  0  1  0  0  0  0  0  0
  -26.4110  -37.3370   23.7730 N   0  0  0  0  0  0  0  0  0  0  0  0
  -26.0110  -38.2610   23.9170 H   0  0  0  0  0  0  0  0  0  0  0  0
  1  6  1  0
  1  2  1  0
  2  4  1  0
  3  4  1  0
  4  5  1  1
  6  3  1  0
  7  1  2  0
  8  9  2  0
  8 11  1  0
  9 12  1  0
 11 13  2  0
 12  6  1  0
 12 10  2  0
 13 10  1  0
 13 14  1  0
 17 15  1  6
 16 17  1  0
 17 11  1  0
 17 26  1  0
 19 24  1  0
 20 21  1  0
 20 19  1  0
 22 21  1  0
 22 31  1  0
 22 23  1  0
 24 18  1  0
 24 23  1  0
 25 18  2  0
 26 18  1  0
 26 27  1  0
 28 29  2  0
 29 48  1  0
 30 29  1  0
 30 33  1  0
 31 28  1  0
 31 32  1  0
 32 30  2  0
 33 34  1  0
 34 35  2  0
 36 39  1  0
 36 35  1  0
 37 36  2  0
 38 37  1  0
 38 33  2  0
 39 40  1  0
 40 41  1  0
 41 42  2  0
 43 42  1  0
 43 47  1  0
 44 43  2  0
 45 40  2  0
 45 44  1  0
 46 45  1  0
 48 49  1  0
 49 52  1  0
 49 51  1  0
 50 48  2  0
 53 54  1  0
 53 28  1  0
 55 53  1  0
 56  4  1  0
 57 56  1  0
 58 69  2  0
 59 57  1  0
 59 64  1  0
 60 68  1  0
 60 70  1  0
 61 67  1  0
 61 63  1  0
 62 68  1  0
 63 62  1  0
 64 63  2  0
 65 66  1  0
 65 59  2  0
 66 61  2  0
 67 60  1  0
 68 58  1  0
 70 72  2  0
 71 70  1  0
 73 71  1  0
 74 83  2  0
 74 79  1  0
 75 71  1  0
 75 79  1  0
 76 75  1  0
 77 78  1  0
 77 76  1  0
 78 74  1  0
 79 80  2  0
 80 81  1  0
 82 81  2  0
 83 82  1  0
 84 58  1  0
 84 89  1  0
 84 85  1  0
 85 88  1  1
 85 86  1  0
 87 85  1  0
 89 92  1  0
 90 94  1  0
 90 89  1  0
 91 90  2  0
 94 93  1  0
 96 94  1  0
 96 97  1  0
 96 95  1  0
M  ISO  4  18 100  26 100  56 101  57 101
M  END
>  <TORSDO>  (49) 
F 19

>  <SCORE>  (49) 
-13.900

>  <name>  (49) 
48

>  <ligand_id>  (49) 
48

>  <original_smiles>  (49) 
[H]c1c([H])c([H])c2c(c1[H])C([H])([H])C([H])([H])C([H])([H])C2([H])N([H])C(=O)C1([H])N(C(=O)C([H])(N([H])C(=O)C([H])(N([H])C([H])([H])[H])C([H])([H])[H])C(C([H])([H])[H])(C([H])([H])[H])C([H])([H])[H])C([H])([H])c2c([H])c(OC([H])([H])C3(C([H])([H])[H])C([H])([H])C(=O)N(c4c([H])c([H])c(C(N([H])C(=O)N5C([H])([H])C([H])([H])C([H])([H])C([H])(n6nc(-c7c([H])c([H])c(Oc8c([H])c([H])c(F)c([H])c8F)c([H])c7[H])c(C(=O)N([H])[H])c6N([H])[H])C5([H])[H])(C([H])([H])[H])C([H])([H])[H])c(F)c4[H])C3([H])[H])c([H])c([H])c2C1([H])[H]

>  <smiles>  (49) 
[H]c1c([H])c([H])c2c(c1[H])C([H])([H])C([H])([H])C([H])([H])C2([H])N([H])C(=O)C1([H])N(C(=O)C([H])(N([H])C(=O)C([H])(N([H])C([H])([H])[H])C([H])([H])[H])C(C([H])([H])[H])(C([H])([H])[H])C([H])([H])[H])C([H])([H])c2c([H])c(OC([H])([H])C3(C([H])([H])[H])C([H])([H])C(=O)N(c4c([H])c([H])c(C(N([H])C(=O)N5C([H])([H])C([H])([H])C([H])([H])C([H])(n6nc(-c7c([H])c([H])c(Oc8c([H])c([H])c(F)c([H])c8F)c([H])c7[H])c(C(=O)N([H])[H])c6N([H])[H])C5([H])[H])(C([H])([H])[H])C([H])([H])[H])c(F)c4[H])C3([H])[H])c([H])c([H])c2C1([H])[H]

$$$$
49:0:0
     RDKit          3D

 95103  0  0  1  0  0  0  0  0999 V2000
  -29.8980  -21.5730   19.7600 C   0  0  0  0  0  0  0  0  0  0  0  0
  -29.1780  -24.0560   19.9120 C   0  0  0  0  0  0  0  0  0  0  0  0
  -29.1310  -22.6060   20.2720 N   0  0  0  0  0  0  0  0  0  0  0  0
  -30.7960  -21.8620   18.8120 N   0  0  0  0  0  4  0  0  0  0  0  0
  -29.9860  -24.4680   19.0690 O   0  0  0  0  0  0  0  0  0  0  0  0
  -28.4850  -22.2800   20.9750 H   0  0  0  0  0  0  0  0  0  0  0  0
  -31.3200  -21.1310   18.3570 H   0  0  0  0  0  0  0  0  0  0  0  0
  -30.8910  -22.8240   18.5080 H   0  0  0  0  0  0  0  0  0  0  0  0
  -31.0630  -19.3350   20.2160 C   0  0  0  0  0  3  0  0  0  0  0  0
  -31.0830  -17.9160   20.3870 C   0  0  0  0  0  3  0  0  0  0  0  0
  -28.6600  -19.3440   20.2690 C   0  0  0  0  0  3  0  0  0  0  0  0
  -29.8560  -20.0940   20.1270 C   0  0  0  0  0  0  0  0  0  0  0  0
  -29.8840  -17.1670   20.4910 C   0  0  0  0  0  0  0  0  0  0  0  0
  -28.6790  -17.9250   20.4460 C   0  0  0  0  0  0  0  0  0  0  0  0
  -27.5020  -17.2610   20.5490 F   0  0  0  0  0  0  0  0  0  0  0  0
  -30.5970  -14.6710   20.3070 C   0  0  0  0  0  0  0  0  0  0  0  0
  -30.3870  -12.4440   19.2170 C   0  0  0  0  0  2  0  0  0  0  0  0
  -29.4310  -12.5860   18.0100 C   0  0  0  0  0  2  0  0  0  0  0  0
  -27.9610  -12.4210   18.4470 C   0  0  0  0  0  2  0  0  0  0  0  0
  -27.6120  -13.2670   19.7010 C   0  0  0  0  0  3  0  0  0  0  0  0
  -28.6790  -13.0950   20.8050 C   0  0  0  0  0  2  0  0  0  0  0  0
  -29.9840  -13.4460   20.2240 N   0  0  0  0  0  0  0  0  0  0  0  0
  -31.7590  -14.8310   19.9220 O   0  0  0  0  0  0  0  0  0  0  0  0
  -29.7860  -15.7150   20.6650 N   0  0  0  0  0  0  0  0  0  0  0  0
  -28.8620  -15.4160   20.9350 H   0  0  0  0  0  0  0  0  0  0  0  0
  -25.2140  -13.8550   20.4150 C   0  0  0  0  0  0  0  0  0  0  0  0
  -24.1530  -13.0780   20.7910 C   0  0  0  0  0  0  0  0  0  0  0  0
  -24.6250  -11.7300   20.7750 C   0  0  0  0  0  0  0  0  0  0  0  0
  -26.2650  -12.9810   20.1900 N   0  0  0  0  0  0  0  0  0  0  0  0
  -25.9170  -11.6990   20.4670 N   0  0  0  0  0  0  0  0  0  0  0  0
  -23.9090  -10.4650   20.9790 C   0  0  0  0  0  0  0  0  0  0  0  0
  -24.3440   -9.5140   21.9270 C   0  0  0  0  0  3  0  0  0  0  0  0
  -23.6260   -8.3130   22.1180 C   0  0  0  0  0  3  0  0  0  0  0  0
  -22.4590   -8.0560   21.3590 C   0  0  0  0  0  0  0  0  0  0  0  0
  -22.0440   -8.9960   20.4010 C   0  0  0  0  0  3  0  0  0  0  0  0
  -22.7620  -10.1880   20.2080 C   0  0  0  0  0  3  0  0  0  0  0  0
  -21.7140   -6.9070   21.4590 O   0  0  0  0  0  0  0  0  0  0  0  0
  -21.6590   -6.1810   22.6230 C   0  0  0  0  0  0  0  0  0  0  0  0
  -21.2080   -6.7510   23.8340 C   0  0  0  0  0  3  0  0  0  0  0  0
  -21.1020   -5.9520   24.9900 C   0  0  0  0  0  3  0  0  0  0  0  0
  -21.4350   -4.5850   24.9360 C   0  0  0  0  0  0  0  0  0  0  0  0
  -21.8790   -4.0160   23.7290 C   0  0  0  0  0  3  0  0  0  0  0  0
  -21.9870   -4.8120   22.5750 C   0  0  0  0  0  0  0  0  0  0  0  0
  -22.3950   -4.2540   21.4100 F   0  0  0  0  0  0  0  0  0  0  0  0
  -21.3260   -3.8160   26.0440 F   0  0  0  0  0  0  0  0  0  0  0  0
  -22.7530  -13.5490   21.0590 C   0  0  0  0  0  0  0  0  0  0  0  0
  -22.0300  -12.8550   21.9320 N   0  0  0  0  0  0  0  0  0  0  0  0
  -22.3080  -14.5670   20.5320 O   0  0  0  0  0  0  0  0  0  0  0  0
  -22.4020  -12.0310   22.3810 H   0  0  0  0  0  0  0  0  0  0  0  0
  -21.0910  -13.1520   22.1540 H   0  0  0  0  0  0  0  0  0  0  0  0
  -25.3630  -15.2260   20.2300 N   0  0  0  0  0  0  0  0  0  0  0  0
  -24.5900  -15.8670   20.3680 H   0  0  0  0  0  0  0  0  0  0  0  0
  -26.2230  -15.7060   19.9890 H   0  0  0  0  0  0  0  0  0  0  0  0
  -28.1860  -25.0720   20.5990 C   0  0  0  0  0  2  0  0  0  0  0  0
  -28.3690  -26.5000   20.2160 O   0  0  0  0  0  0  0  0  0  0  0  0
  -24.6100  -31.8810   23.2430 C   0  0  0  0  0  0  0  0  0  0  0  0
  -27.2410  -27.3330   20.1990 C   0  0  0  0  0  0  0  0  0  0  0  0
  -23.4110  -30.4760   21.6030 C   0  0  0  0  0  3  0  0  0  0  0  0
  -24.8680  -28.9280   20.1820 C   0  0  0  0  0  0  0  0  0  0  0  0
  -25.9480  -30.8060   21.4190 C   0  0  0  0  0  2  0  0  0  0  0  0
  -26.0330  -29.4260   20.7770 C   0  0  0  0  0  0  0  0  0  0  0  0
  -27.2250  -28.6410   20.7730 C   0  0  0  0  0  3  0  0  0  0  0  0
  -26.0560  -26.8890   19.5710 C   0  0  0  0  0  3  0  0  0  0  0  0
  -24.8800  -27.6640   19.5700 C   0  0  0  0  0  3  0  0  0  0  0  0
  -23.6280  -29.7970   20.2250 C   0  0  0  0  0  2  0  0  0  0  0  0
  -24.6750  -31.0720   22.1450 N   0  0  0  0  0  0  0  0  0  0  0  0
  -23.5260  -32.1550   23.7780 O   0  0  0  0  0  0  0  0  0  0  0  0
  -22.7510  -29.4590   22.5650 C   0  0  0  0  0  0  0  0  0  0  0  0
  -21.4260  -29.2800   22.4400 N   0  0  0  0  0  0  0  0  0  0  0  0
  -23.4320  -28.8330   23.3820 O   0  0  0  0  0  0  0  0  0  0  0  0
  -20.9360  -29.8370   21.7530 H   0  0  0  0  0  0  0  0  0  0  0  0
  -18.0490  -28.0890   22.9480 C   0  0  0  0  0  0  0  0  0  0  0  0
  -20.6070  -28.3430   23.2110 C   0  0  0  0  0  3  0  0  0  0  0  0
  -20.7060  -26.9120   22.6330 C   0  0  0  0  0  2  0  0  0  0  0  0
  -19.6000  -26.5930   21.6220 C   0  0  0  0  0  2  0  0  0  0  0  0
  -18.2210  -26.7400   22.2700 C   0  0  0  0  0  2  0  0  0  0  0  0
  -19.1700  -28.8470   23.3760 C   0  0  0  0  0  0  0  0  0  0  0  0
  -18.9540  -30.1110   23.9700 C   0  0  0  0  0  3  0  0  0  0  0  0
  -17.6510  -30.6130   24.1400 C   0  0  0  0  0  3  0  0  0  0  0  0
  -16.5440  -29.8510   23.7290 C   0  0  0  0  0  3  0  0  0  0  0  0
  -16.7440  -28.5900   23.1380 C   0  0  0  0  0  3  0  0  0  0  0  0
  -25.8920  -32.5170   23.8650 C   0  0  0  0  0  3  0  0  0  0  0  0
  -25.5800  -33.9160   24.1890 N   0  0  0  0  0  0  0  0  0  0  0  0
  -25.9130  -34.9660   23.4280 C   0  0  0  0  0  0  0  0  0  0  0  0
  -26.5850  -34.8600   22.3980 O   0  0  0  0  0  0  0  0  0  0  0  0
  -24.9840  -34.0720   24.9880 H   0  0  0  0  0  0  0  0  0  0  0  0
  -24.1860  -36.7600   23.0620 C   0  0  0  0  0  1  0  0  0  0  0  0
  -25.4240  -36.3570   23.8800 C   0  0  0  0  0  3  0  0  0  0  0  0
  -27.5550  -37.2440   24.7180 C   0  0  0  0  0  1  0  0  0  0  0  0
  -26.4570  -37.4090   23.7680 N   0  0  0  0  0  0  0  0  0  0  0  0
  -26.0510  -38.3290   23.9090 H   0  0  0  0  0  0  0  0  0  0  0  0
  -26.4060  -31.7520   25.1460 C   0  0  1  0  0  0  0  0  0  0  0  0
  -25.3110  -31.5170   26.2120 C   0  0  0  0  0  1  0  0  0  0  0  0
  -26.9920  -30.3720   24.7610 C   0  0  0  0  0  1  0  0  0  0  0  0
  -27.5540  -32.5490   25.8060 C   0  0  0  0  0  1  0  0  0  0  0  0
  1 12  1  0
  1  3  1  0
  2  3  1  0
  2 54  1  0
  3  6  1  0
  4  1  2  0
  5  2  2  0
  7  4  1  0
  8  4  1  0
  9 10  1  0
 10 13  2  0
 11 14  2  0
 12  9  2  0
 12 11  1  0
 13 24  1  0
 14 13  1  0
 14 15  1  0
 16 24  1  0
 17 22  1  0
 18 19  1  0
 18 17  1  0
 20 19  1  0
 20 29  1  0
 20 21  1  0
 22 16  1  0
 22 21  1  0
 23 16  2  0
 24 25  1  0
 26 27  2  0
 27 46  1  0
 28 27  1  0
 28 31  1  0
 29 26  1  0
 29 30  1  0
 30 28  2  0
 31 32  1  0
 32 33  2  0
 34 37  1  0
 34 33  1  0
 35 34  2  0
 36 35  1  0
 36 31  2  0
 37 38  1  0
 38 39  1  0
 39 40  2  0
 41 40  1  0
 41 45  1  0
 42 41  2  0
 43 38  2  0
 43 42  1  0
 44 43  1  0
 46 47  1  0
 47 50  1  0
 47 49  1  0
 48 46  2  0
 51 52  1  0
 51 26  1  0
 53 51  1  0
 55 54  1  0
 56 67  2  0
 57 55  1  0
 57 62  1  0
 58 66  1  0
 58 68  1  0
 59 65  1  0
 59 61  1  0
 60 66  1  0
 61 60  1  0
 62 61  2  0
 63 57  2  0
 64 63  1  0
 64 59  2  0
 65 58  1  0
 66 56  1  0
 68 70  2  0
 69 68  1  0
 71 69  1  0
 72 81  2  0
 72 77  1  0
 73 69  1  0
 73 77  1  0
 74 73  1  0
 75 76  1  0
 75 74  1  0
 76 72  1  0
 77 78  2  0
 78 79  1  0
 80 79  2  0
 81 80  1  0
 82 56  1  0
 82 83  1  0
 82 92  1  0
 83 86  1  0
 84 88  1  0
 84 83  1  0
 85 84  2  0
 88 87  1  0
 90 88  1  0
 90 91  1  0
 90 89  1  0
 92 95  1  1
 92 93  1  0
 94 92  1  0
M  ISO  4  16 100  24 100  54 101  55 101
M  END
>  <TORSDO>  (50) 
F 18

>  <SCORE>  (50) 
-14.872

>  <name>  (50) 
49

>  <ligand_id>  (50) 
49

>  <original_smiles>  (50) 
[H]c1c([H])c([H])c2c(c1[H])C([H])([H])C([H])([H])C([H])([H])C2([H])N([H])C(=O)C1([H])N(C(=O)C([H])(N([H])C(=O)C([H])(N([H])C([H])([H])[H])C([H])([H])[H])C(C([H])([H])[H])(C([H])([H])[H])C([H])([H])[H])C([H])([H])c2c([H])c(OC([H])([H])C(=O)N([H])C(c3c([H])c([H])c(N([H])C(=O)N4C([H])([H])C([H])([H])C([H])([H])C([H])(n5nc(-c6c([H])c([H])c(Oc7c([H])c([H])c(F)c([H])c7F)c([H])c6[H])c(C(=O)N([H])[H])c5N([H])[H])C4([H])[H])c(F)c3[H])=[N+]([H])[H])c([H])c([H])c2C1([H])[H]

>  <smiles>  (50) 
[H]c1c([H])c([H])c2c(c1[H])C([H])([H])C([H])([H])C([H])([H])C2([H])N([H])C(=O)C1([H])N(C(=O)C([H])(N([H])C(=O)C([H])(N([H])C([H])([H])[H])C([H])([H])[H])C(C([H])([H])[H])(C([H])([H])[H])C([H])([H])[H])C([H])([H])c2c([H])c(OC([H])([H])C(=O)N([H])C(c3c([H])c([H])c(N([H])C(=O)N4C([H])([H])C([H])([H])C([H])([H])C([H])(n5nc(-c6c([H])c([H])c(Oc7c([H])c([H])c(F)c([H])c7F)c([H])c6[H])c(C(=O)N([H])[H])c5N([H])[H])C4([H])[H])c(F)c3[H])=[N+]([H])[H])c([H])c([H])c2C1([H])[H]

$$$$
50:0:0
     RDKit          3D

 94103  0  0  1  0  0  0  0  0999 V2000
  -30.4360  -24.4340   20.5940 C   0  0  0  0  0  3  0  0  0  0  0  0
  -29.2120  -24.0260   20.2200 C   0  0  0  0  0  0  0  0  0  0  0  0
  -31.5470  -23.4770   20.9890 C   0  0  0  0  0  2  0  0  0  0  0  0
  -28.8970  -22.4860   20.1470 C   0  0  0  0  0  2  0  0  0  0  0  0
  -31.0320  -22.0740   21.3610 C   0  0  0  0  0  2  0  0  0  0  0  0
  -30.0480  -21.5610   20.4010 N   0  0  0  0  0  0  0  0  0  0  0  0
  -28.7870  -19.3770   20.5180 C   0  0  0  0  0  3  0  0  0  0  0  0
  -31.1430  -17.8930   20.1690 C   0  0  0  0  0  3  0  0  0  0  0  0
  -29.9860  -20.1150   20.3380 C   0  0  0  0  0  0  0  0  0  0  0  0
  -29.9460  -17.1660   20.3930 C   0  0  0  0  0  0  0  0  0  0  0  0
  -28.7710  -17.9490   20.5520 C   0  0  0  0  0  0  0  0  0  0  0  0
  -31.1600  -19.3200   20.1370 C   0  0  0  0  0  0  0  0  0  0  0  0
  -27.5940  -17.3080   20.7470 F   0  0  0  0  0  0  0  0  0  0  0  0
  -32.3500  -19.9280   19.9000 F   0  0  0  0  0  0  0  0  0  0  0  0
  -30.5890  -14.6680   20.0380 C   0  0  0  0  0  0  0  0  0  0  0  0
  -30.2950  -12.4660   18.9220 C   0  0  0  0  0  2  0  0  0  0  0  0
  -29.2750  -12.6390   17.7740 C   0  0  0  0  0  2  0  0  0  0  0  0
  -27.8320  -12.4760   18.2910 C   0  0  0  0  0  2  0  0  0  0  0  0
  -27.5590  -13.3010   19.5770 C   0  0  0  0  0  3  0  0  0  0  0  0
  -28.6860  -13.1020   20.6170 C   0  0  0  0  0  2  0  0  0  0  0  0
  -29.9600  -13.4520   19.9670 N   0  0  0  0  0  0  0  0  0  0  0  0
  -31.7230  -14.8280   19.5800 O   0  0  0  0  0  0  0  0  0  0  0  0
  -29.8180  -15.7090   20.4780 N   0  0  0  0  0  0  0  0  0  0  0  0
  -28.9220  -15.4120   20.8310 H   0  0  0  0  0  0  0  0  0  0  0  0
  -25.2160  -13.8900   20.4540 C   0  0  0  0  0  0  0  0  0  0  0  0
  -24.1690  -13.1120   20.8660 C   0  0  0  0  0  0  0  0  0  0  0  0
  -24.6210  -11.7590   20.7720 C   0  0  0  0  0  0  0  0  0  0  0  0
  -26.2410  -13.0130   20.1350 N   0  0  0  0  0  0  0  0  0  0  0  0
  -25.8910  -11.7250   20.3860 N   0  0  0  0  0  0  0  0  0  0  0  0
  -23.9000  -10.4960   20.9730 C   0  0  0  0  0  0  0  0  0  0  0  0
  -24.3580   -9.5220   21.8880 C   0  0  0  0  0  3  0  0  0  0  0  0
  -23.6380   -8.3230   22.0770 C   0  0  0  0  0  3  0  0  0  0  0  0
  -22.4450   -8.0900   21.3510 C   0  0  0  0  0  0  0  0  0  0  0  0
  -22.0060   -9.0520   20.4260 C   0  0  0  0  0  3  0  0  0  0  0  0
  -22.7270  -10.2430   20.2340 C   0  0  0  0  0  3  0  0  0  0  0  0
  -21.6940   -6.9440   21.4510 O   0  0  0  0  0  0  0  0  0  0  0  0
  -21.6450   -6.2120   22.6110 C   0  0  0  0  0  0  0  0  0  0  0  0
  -21.2170   -6.7800   23.8310 C   0  0  0  0  0  3  0  0  0  0  0  0
  -21.1160   -5.9760   24.9830 C   0  0  0  0  0  3  0  0  0  0  0  0
  -21.4330   -4.6050   24.9180 C   0  0  0  0  0  0  0  0  0  0  0  0
  -21.8550   -4.0380   23.7030 C   0  0  0  0  0  3  0  0  0  0  0  0
  -21.9580   -4.8400   22.5520 C   0  0  0  0  0  0  0  0  0  0  0  0
  -22.3450   -4.2830   21.3790 F   0  0  0  0  0  0  0  0  0  0  0  0
  -21.3290   -3.8310   26.0230 F   0  0  0  0  0  0  0  0  0  0  0  0
  -22.7930  -13.5880   21.2360 C   0  0  0  0  0  0  0  0  0  0  0  0
  -22.1180  -12.8740   22.1310 N   0  0  0  0  0  0  0  0  0  0  0  0
  -22.3270  -14.6250   20.7680 O   0  0  0  0  0  0  0  0  0  0  0  0
  -22.5090  -12.0340   22.5300 H   0  0  0  0  0  0  0  0  0  0  0  0
  -21.1980  -13.1740   22.4210 H   0  0  0  0  0  0  0  0  0  0  0  0
  -25.3750  -15.2650   20.3090 N   0  0  0  0  0  0  0  0  0  0  0  0
  -24.6280  -15.9160   20.5220 H   0  0  0  0  0  0  0  0  0  0  0  0
  -26.2320  -15.7310   20.0360 H   0  0  0  0  0  0  0  0  0  0  0  0
  -28.0980  -25.0510   19.8280 C   0  0  0  0  0  2  0  0  0  0  0  0
  -28.3220  -26.4950   20.0770 O   0  0  0  0  0  0  0  0  0  0  0  0
  -24.5300  -31.8000   23.1710 C   0  0  0  0  0  0  0  0  0  0  0  0
  -27.1980  -27.3380   20.0300 C   0  0  0  0  0  0  0  0  0  0  0  0
  -23.3480  -30.4330   21.4890 C   0  0  0  0  0  3  0  0  0  0  0  0
  -24.8210  -28.9300   20.0400 C   0  0  0  0  0  0  0  0  0  0  0  0
  -25.8870  -30.7730   21.3360 C   0  0  0  0  0  2  0  0  0  0  0  0
  -25.9820  -29.4120   20.6560 C   0  0  0  0  0  0  0  0  0  0  0  0
  -27.1740  -28.6280   20.6420 C   0  0  0  0  0  3  0  0  0  0  0  0
  -26.0110  -26.9120   19.3880 C   0  0  0  0  0  3  0  0  0  0  0  0
  -24.8370  -27.6850   19.3980 C   0  0  0  0  0  3  0  0  0  0  0  0
  -23.5780  -29.7940   20.0960 C   0  0  0  0  0  2  0  0  0  0  0  0
  -24.6070  -31.0170   22.0560 N   0  0  0  0  0  0  0  0  0  0  0  0
  -23.4410  -32.0580   23.7020 O   0  0  0  0  0  0  0  0  0  0  0  0
  -22.6850  -29.3890   22.4190 C   0  0  0  0  0  0  0  0  0  0  0  0
  -21.3630  -29.2020   22.2710 N   0  0  0  0  0  0  0  0  0  0  0  0
  -23.3590  -28.7510   23.2320 O   0  0  0  0  0  0  0  0  0  0  0  0
  -20.8780  -29.7690   21.5890 H   0  0  0  0  0  0  0  0  0  0  0  0
  -17.9900  -27.9690   22.7020 C   0  0  0  0  0  0  0  0  0  0  0  0
  -20.5420  -28.2430   23.0110 C   0  0  0  0  0  3  0  0  0  0  0  0
  -20.6630  -26.8230   22.4090 C   0  0  0  0  0  2  0  0  0  0  0  0
  -19.5770  -26.5130   21.3740 C   0  0  0  0  0  2  0  0  0  0  0  0
  -18.1860  -26.6340   22.0030 C   0  0  0  0  0  2  0  0  0  0  0  0
  -19.0960  -28.7300   23.1610 C   0  0  0  0  0  0  0  0  0  0  0  0
  -18.8590  -29.9810   23.7750 C   0  0  0  0  0  3  0  0  0  0  0  0
  -17.5480  -30.4680   23.9320 C   0  0  0  0  0  3  0  0  0  0  0  0
  -16.4550  -29.7020   23.4890 C   0  0  0  0  0  3  0  0  0  0  0  0
  -16.6770  -28.4540   22.8790 C   0  0  0  0  0  3  0  0  0  0  0  0
  -25.8040  -32.4240   23.8180 C   0  0  0  0  0  3  0  0  0  0  0  0
  -25.4870  -33.8160   24.1680 N   0  0  0  0  0  0  0  0  0  0  0  0
  -25.8050  -34.8810   23.4190 C   0  0  0  0  0  0  0  0  0  0  0  0
  -26.4680  -34.7950   22.3810 O   0  0  0  0  0  0  0  0  0  0  0  0
  -24.8970  -33.9570   24.9750 H   0  0  0  0  0  0  0  0  0  0  0  0
  -24.0510  -36.6580   23.1140 C   0  0  0  0  0  1  0  0  0  0  0  0
  -25.3110  -36.2610   23.8980 C   0  0  0  0  0  3  0  0  0  0  0  0
  -27.4500  -37.1640   24.6960 C   0  0  0  0  0  1  0  0  0  0  0  0
  -26.3300  -37.3260   23.7730 N   0  0  0  0  0  0  0  0  0  0  0  0
  -25.9160  -38.2400   23.9330 H   0  0  0  0  0  0  0  0  0  0  0  0
  -26.3070  -31.6340   25.0890 C   0  0  1  0  0  0  0  0  0  0  0  0
  -25.2000  -31.3760   26.1390 C   0  0  0  0  0  1  0  0  0  0  0  0
  -26.8990  -30.2640   24.6820 C   0  0  0  0  0  1  0  0  0  0  0  0
  -27.4460  -32.4200   25.7780 C   0  0  0  0  0  1  0  0  0  0  0  0
  1  3  1  0
  2  1  2  0
  3  5  1  0
  4  2  1  0
  4  6  1  0
  6  5  1  0
  7 11  1  0
  8 10  1  0
  9  6  1  0
  9  7  2  0
 10 23  1  0
 10 11  2  0
 11 13  1  0
 12  8  2  0
 12  9  1  0
 14 12  1  0
 15 23  1  0
 16 21  1  0
 17 18  1  0
 17 16  1  0
 19 18  1  0
 19 28  1  0
 19 20  1  0
 21 15  1  0
 21 20  1  0
 22 15  2  0
 23 24  1  0
 25 26  2  0
 26 45  1  0
 27 26  1  0
 27 30  1  0
 28 29  1  0
 28 25  1  0
 29 27  2  0
 30 31  1  0
 31 32  2  0
 33 36  1  0
 33 32  1  0
 34 33  2  0
 35 34  1  0
 35 30  2  0
 36 37  1  0
 37 38  1  0
 38 39  2  0
 40 39  1  0
 40 44  1  0
 41 40  2  0
 42 37  2  0
 42 41  1  0
 43 42  1  0
 45 46  1  0
 46 49  1  0
 46 48  1  0
 47 45  2  0
 50 25  1  0
 50 51  1  0
 52 50  1  0
 53 54  1  0
 53  2  1  0
 55 66  2  0
 56 54  1  0
 56 61  1  0
 57 65  1  0
 57 67  1  0
 58 64  1  0
 58 60  1  0
 59 65  1  0
 60 59  1  0
 61 60  2  0
 62 63  1  0
 62 56  2  0
 63 58  2  0
 64 57  1  0
 65 55  1  0
 67 69  2  0
 68 67  1  0
 70 68  1  0
 71 80  2  0
 71 76  1  0
 72 68  1  0
 72 76  1  0
 73 72  1  0
 74 75  1  0
 74 73  1  0
 75 71  1  0
 76 77  2  0
 77 78  1  0
 79 78  2  0
 80 79  1  0
 81 55  1  0
 81 82  1  0
 81 91  1  0
 82 85  1  0
 83 87  1  0
 83 82  1  0
 84 83  2  0
 87 86  1  0
 89 87  1  0
 89 90  1  0
 89 88  1  0
 91 94  1  1
 91 92  1  0
 93 91  1  0
M  ISO  4  15 100  23 100  53 101  54 101
M  END
>  <TORSDO>  (51) 
F 18

>  <SCORE>  (51) 
-14.669

>  <name>  (51) 
50

>  <ligand_id>  (51) 
50

>  <original_smiles>  (51) 
[H]C1=C(C([H])([H])Oc2c([H])c([H])c3c(c2[H])C([H])([H])N(C(=O)C([H])(N([H])C(=O)C([H])(N([H])C([H])([H])[H])C([H])([H])[H])C(C([H])([H])[H])(C([H])([H])[H])C([H])([H])[H])C([H])(C(=O)N([H])C2([H])c4c([H])c([H])c([H])c([H])c4C([H])([H])C([H])([H])C2([H])[H])C3([H])[H])C([H])([H])N(c2c([H])c(F)c(N([H])C(=O)N3C([H])([H])C([H])([H])C([H])([H])C([H])(n4nc(-c5c([H])c([H])c(Oc6c([H])c([H])c(F)c([H])c6F)c([H])c5[H])c(C(=O)N([H])[H])c4N([H])[H])C3([H])[H])c([H])c2F)C([H])([H])C1([H])[H]

>  <smiles>  (51) 
[H]C1=C(C([H])([H])Oc2c([H])c([H])c3c(c2[H])C([H])([H])N(C(=O)C([H])(N([H])C(=O)C([H])(N([H])C([H])([H])[H])C([H])([H])[H])C(C([H])([H])[H])(C([H])([H])[H])C([H])([H])[H])C([H])(C(=O)N([H])C2([H])c4c([H])c([H])c([H])c([H])c4C([H])([H])C([H])([H])C2([H])[H])C3([H])[H])C([H])([H])N(c2c([H])c(F)c(N([H])C(=O)N3C([H])([H])C([H])([H])C([H])([H])C([H])(n4nc(-c5c([H])c([H])c(Oc6c([H])c([H])c(F)c([H])c6F)c([H])c5[H])c(C(=O)N([H])[H])c4N([H])[H])C3([H])[H])c([H])c2F)C([H])([H])C1([H])[H]

$$$$
51:0:0
     RDKit          3D

 95104  0  0  1  0  0  0  0  0999 V2000
  -29.7320  -22.9760   21.3010 C   0  0  0  0  0  0  0  0  0  0  0  0
  -28.3800  -22.4930   19.8090 C   0  0  0  0  0  2  0  0  0  0  0  0
  -29.0410  -23.8800   20.1820 C   0  0  2  0  0  0  0  0  0  0  0  0
  -30.1020  -24.4220   19.2180 C   0  0  0  0  0  1  0  0  0  0  0  0
  -29.4320  -21.8120   20.5760 N   0  0  0  0  0  0  0  0  0  0  0  0
  -30.2640  -23.1360   22.3780 O   0  0  0  0  0  0  0  0  0  0  0  0
  -30.3840  -19.6910   21.6750 C   0  0  0  0  0  3  0  0  0  0  0  0
  -30.5290  -18.2720   21.8050 C   0  0  0  0  0  3  0  0  0  0  0  0
  -28.9100  -19.3960   19.8630 C   0  0  0  0  0  3  0  0  0  0  0  0
  -29.0200  -17.9650   19.9670 C   0  0  0  0  0  0  0  0  0  0  0  0
  -29.5590  -20.3420   20.7090 C   0  0  0  0  0  0  0  0  0  0  0  0
  -29.8550  -17.3480   20.9600 C   0  0  0  0  0  0  0  0  0  0  0  0
  -30.7130  -14.8610   21.0750 C   0  0  0  0  0  0  0  0  0  0  0  0
  -30.7010  -12.5370   20.1640 C   0  0  0  0  0  2  0  0  0  0  0  0
  -29.8640  -12.5330   18.8650 C   0  0  0  0  0  2  0  0  0  0  0  0
  -28.3650  -12.3400   19.1720 C   0  0  0  0  0  2  0  0  0  0  0  0
  -27.8650  -13.2620   20.3150 C   0  0  0  0  0  3  0  0  0  0  0  0
  -28.8260  -13.2290   21.5260 C   0  0  0  0  0  2  0  0  0  0  0  0
  -30.1640  -13.6010   21.0390 N   0  0  0  0  0  0  0  0  0  0  0  0
  -31.9030  -15.0420   20.7970 O   0  0  0  0  0  0  0  0  0  0  0  0
  -29.8280  -15.9010   21.2800 N   0  0  0  0  0  0  0  0  0  0  0  0
  -28.9090  -15.5480   21.4960 H   0  0  0  0  0  0  0  0  0  0  0  0
  -25.4260  -13.8360   20.8740 C   0  0  0  0  0  0  0  0  0  0  0  0
  -24.3390  -13.0520   21.1470 C   0  0  0  0  0  0  0  0  0  0  0  0
  -24.8100  -11.7030   21.1220 C   0  0  0  0  0  0  0  0  0  0  0  0
  -26.4890  -12.9640   20.6960 N   0  0  0  0  0  0  0  0  0  0  0  0
  -26.1200  -11.6750   20.9070 N   0  0  0  0  0  0  0  0  0  0  0  0
  -24.0790  -10.4350   21.2330 C   0  0  0  0  0  0  0  0  0  0  0  0
  -24.4650   -9.4390   22.1580 C   0  0  0  0  0  3  0  0  0  0  0  0
  -23.7340   -8.2360   22.2600 C   0  0  0  0  0  3  0  0  0  0  0  0
  -22.6060   -8.0190   21.4340 C   0  0  0  0  0  0  0  0  0  0  0  0
  -22.2390   -9.0040   20.4990 C   0  0  0  0  0  3  0  0  0  0  0  0
  -22.9700  -10.1980   20.3960 C   0  0  0  0  0  3  0  0  0  0  0  0
  -21.8530   -6.8700   21.4440 O   0  0  0  0  0  0  0  0  0  0  0  0
  -21.7490   -6.0870   22.5660 C   0  0  0  0  0  0  0  0  0  0  0  0
  -21.2400   -6.5910   23.7820 C   0  0  0  0  0  3  0  0  0  0  0  0
  -21.0870   -5.7340   24.8900 C   0  0  0  0  0  3  0  0  0  0  0  0
  -21.4320   -4.3730   24.7820 C   0  0  0  0  0  0  0  0  0  0  0  0
  -21.9340   -3.8680   23.5700 C   0  0  0  0  0  3  0  0  0  0  0  0
  -22.0890   -4.7230   22.4640 C   0  0  0  0  0  0  0  0  0  0  0  0
  -22.5540   -4.2260   21.2920 F   0  0  0  0  0  0  0  0  0  0  0  0
  -21.2780   -3.5480   25.8440 F   0  0  0  0  0  0  0  0  0  0  0  0
  -22.9230  -13.5190   21.3270 C   0  0  0  0  0  0  0  0  0  0  0  0
  -22.1410  -12.8090   22.1330 N   0  0  0  0  0  0  0  0  0  0  0  0
  -22.5170  -14.5480   20.7890 O   0  0  0  0  0  0  0  0  0  0  0  0
  -22.4810  -11.9770   22.5910 H   0  0  0  0  0  0  0  0  0  0  0  0
  -21.1890  -13.1040   22.2940 H   0  0  0  0  0  0  0  0  0  0  0  0
  -25.5950  -15.2120   20.7410 N   0  0  0  0  0  0  0  0  0  0  0  0
  -24.8190  -15.8580   20.8190 H   0  0  0  0  0  0  0  0  0  0  0  0
  -26.4640  -15.6610   20.4940 H   0  0  0  0  0  0  0  0  0  0  0  0
  -28.2650  -17.1500   18.9670 C   0  0  0  0  0  0  0  0  0  0  0  0
  -26.9620  -17.7290   18.4280 C   0  0  0  0  0  1  0  0  0  0  0  0
  -28.6180  -16.0340   18.5810 O   0  0  0  0  0  0  0  0  0  0  0  0
  -28.1550  -25.1160   20.7140 C   0  0  0  0  0  2  0  0  0  0  0  0
  -28.3570  -26.5220   20.2300 O   0  0  0  0  0  0  0  0  0  0  0  0
  -24.6490  -31.9250   23.3340 C   0  0  0  0  0  0  0  0  0  0  0  0
  -27.2470  -27.3900   20.2180 C   0  0  0  0  0  0  0  0  0  0  0  0
  -23.4400  -30.5520   21.6760 C   0  0  0  0  0  3  0  0  0  0  0  0
  -24.8880  -29.0170   20.2270 C   0  0  0  0  0  0  0  0  0  0  0  0
  -25.9820  -30.8650   21.4960 C   0  0  0  0  0  2  0  0  0  0  0  0
  -26.0590  -29.4930   20.8300 C   0  0  0  0  0  0  0  0  0  0  0  0
  -27.2430  -28.6920   20.8150 C   0  0  0  0  0  3  0  0  0  0  0  0
  -26.0580  -26.9800   19.5770 C   0  0  0  0  0  3  0  0  0  0  0  0
  -24.8900  -27.7670   19.5900 C   0  0  0  0  0  3  0  0  0  0  0  0
  -23.6530  -29.8950   20.2870 C   0  0  0  0  0  2  0  0  0  0  0  0
  -24.7090  -31.1310   22.2260 N   0  0  0  0  0  0  0  0  0  0  0  0
  -23.5660  -32.1970   23.8740 O   0  0  0  0  0  0  0  0  0  0  0  0
  -22.7760  -29.5230   22.6240 C   0  0  0  0  0  0  0  0  0  0  0  0
  -21.4530  -29.3350   22.4810 N   0  0  0  0  0  0  0  0  0  0  0  0
  -23.4510  -28.8980   23.4460 O   0  0  0  0  0  0  0  0  0  0  0  0
  -20.9680  -29.8920   21.7920 H   0  0  0  0  0  0  0  0  0  0  0  0
  -18.0830  -28.0960   22.9270 C   0  0  0  0  0  0  0  0  0  0  0  0
  -20.6340  -28.3860   23.2360 C   0  0  0  0  0  3  0  0  0  0  0  0
  -20.7620  -26.9570   22.6590 C   0  0  0  0  0  2  0  0  0  0  0  0
  -19.6790  -26.6250   21.6270 C   0  0  0  0  0  2  0  0  0  0  0  0
  -18.2860  -26.7510   22.2510 C   0  0  0  0  0  2  0  0  0  0  0  0
  -19.1860  -28.8710   23.3760 C   0  0  0  0  0  0  0  0  0  0  0  0
  -18.9440  -30.1290   23.9680 C   0  0  0  0  0  3  0  0  0  0  0  0
  -17.6300  -30.6140   24.1170 C   0  0  0  0  0  3  0  0  0  0  0  0
  -16.5420  -29.8370   23.6850 C   0  0  0  0  0  3  0  0  0  0  0  0
  -16.7690  -28.5800   23.0960 C   0  0  0  0  0  3  0  0  0  0  0  0
  -25.9330  -32.5460   23.9640 C   0  0  0  0  0  3  0  0  0  0  0  0
  -26.4570  -31.7480   25.2200 C   0  0  1  0  0  0  0  0  0  0  0  0
  -25.3710  -31.4860   26.2900 C   0  0  0  0  0  1  0  0  0  0  0  0
  -27.0380  -30.3790   24.7960 C   0  0  0  0  0  1  0  0  0  0  0  0
  -27.6120  -32.5280   25.8930 C   0  0  0  0  0  1  0  0  0  0  0  0
  -25.6220  -33.9360   24.3290 N   0  0  0  0  0  0  0  0  0  0  0  0
  -25.9510  -35.0080   23.5960 C   0  0  0  0  0  0  0  0  0  0  0  0
  -26.6190  -34.9310   22.5620 O   0  0  0  0  0  0  0  0  0  0  0  0
  -25.0290  -34.0700   25.1350 H   0  0  0  0  0  0  0  0  0  0  0  0
  -24.2290  -36.8150   23.2820 C   0  0  0  0  0  1  0  0  0  0  0  0
  -25.4650  -36.3850   24.0900 C   0  0  0  0  0  3  0  0  0  0  0  0
  -27.5940  -37.2450   24.9590 C   0  0  0  0  0  1  0  0  0  0  0  0
  -26.4990  -37.4390   24.0110 N   0  0  0  0  0  0  0  0  0  0  0  0
  -26.0940  -38.3560   24.1780 H   0  0  0  0  0  0  0  0  0  0  0  0
  1  6  2  0
  2  3  1  0
  2  5  1  0
  3  4  1  6
  3 54  1  0
  3  1  1  0
  5 11  1  0
  5  1  1  0
  7  8  1  0
  9 10  2  0
  9 11  1  0
 10 12  1  0
 11  7  2  0
 12 21  1  0
 12  8  2  0
 13 21  1  0
 14 19  1  0
 15 16  1  0
 15 14  1  0
 17 16  1  0
 17 26  1  0
 17 18  1  0
 19 13  1  0
 19 18  1  0
 20 13  2  0
 21 22  1  0
 23 24  2  0
 24 43  1  0
 25 24  1  0
 25 28  1  0
 26 23  1  0
 26 27  1  0
 27 25  2  0
 28 29  1  0
 29 30  2  0
 31 34  1  0
 31 30  1  0
 32 31  2  0
 33 32  1  0
 33 28  2  0
 34 35  1  0
 35 36  1  0
 36 37  2  0
 38 37  1  0
 38 42  1  0
 39 38  2  0
 40 35  2  0
 40 39  1  0
 41 40  1  0
 43 44  1  0
 44 47  1  0
 44 46  1  0
 45 43  2  0
 48 49  1  0
 48 23  1  0
 50 48  1  0
 51 10  1  0
 52 51  1  0
 53 51  2  0
 55 54  1  0
 56 67  2  0
 57 55  1  0
 57 62  1  0
 58 66  1  0
 58 68  1  0
 59 65  1  0
 59 61  1  0
 60 66  1  0
 61 60  1  0
 62 61  2  0
 63 64  1  0
 63 57  2  0
 64 59  2  0
 65 58  1  0
 66 56  1  0
 68 70  2  0
 69 68  1  0
 71 69  1  0
 72 81  2  0
 72 77  1  0
 73 69  1  0
 73 77  1  0
 74 73  1  0
 75 76  1  0
 75 74  1  0
 76 72  1  0
 77 78  2  0
 78 79  1  0
 80 79  2  0
 81 80  1  0
 82 56  1  0
 82 87  1  0
 82 83  1  0
 83 86  1  1
 83 84  1  0
 85 83  1  0
 87 90  1  0
 88 92  1  0
 88 87  1  0
 89 88  2  0
 92 91  1  0
 94 92  1  0
 94 95  1  0
 94 93  1  0
M  ISO  4  13 100  21 100  54 101  55 101
M  END
>  <TORSDO>  (52) 
F 19

>  <SCORE>  (52) 
-13.381

>  <name>  (52) 
51

>  <ligand_id>  (52) 
51

>  <original_smiles>  (52) 
[H]c1c([H])c([H])c2c(c1[H])C([H])([H])C([H])([H])C([H])([H])C2([H])N([H])C(=O)C1([H])N(C(=O)C([H])(N([H])C(=O)C([H])(N([H])C([H])([H])[H])C([H])([H])[H])C(C([H])([H])[H])(C([H])([H])[H])C([H])([H])[H])C([H])([H])c2c([H])c(OC([H])([H])C3(C([H])([H])[H])C(=O)N(c4c([H])c([H])c(N([H])C(=O)N5C([H])([H])C([H])([H])C([H])([H])C([H])(n6nc(-c7c([H])c([H])c(Oc8c([H])c([H])c(F)c([H])c8F)c([H])c7[H])c(C(=O)N([H])[H])c6N([H])[H])C5([H])[H])c(C(=O)C([H])([H])[H])c4[H])C3([H])[H])c([H])c([H])c2C1([H])[H]

>  <smiles>  (52) 
[H]c1c([H])c([H])c2c(c1[H])C([H])([H])C([H])([H])C([H])([H])C2([H])N([H])C(=O)C1([H])N(C(=O)C([H])(N([H])C(=O)C([H])(N([H])C([H])([H])[H])C([H])([H])[H])C(C([H])([H])[H])(C([H])([H])[H])C([H])([H])[H])C([H])([H])c2c([H])c(OC([H])([H])C3(C([H])([H])[H])C(=O)N(c4c([H])c([H])c(N([H])C(=O)N5C([H])([H])C([H])([H])C([H])([H])C([H])(n6nc(-c7c([H])c([H])c(Oc8c([H])c([H])c(F)c([H])c8F)c([H])c7[H])c(C(=O)N([H])[H])c6N([H])[H])C5([H])[H])c(C(=O)C([H])([H])[H])c4[H])C3([H])[H])c([H])c([H])c2C1([H])[H]

$$$$
52:0:0
     RDKit          3D

 99107  0  0  1  0  0  0  0  0999 V2000
  -30.5190  -21.2440   20.9580 C   0  0  0  0  0  0  0  0  0  0  0  0
  -29.7620  -22.0870   20.2230 N   0  0  0  0  0  0  0  0  0  0  0  0
  -31.4440  -21.7650   21.7640 N   0  0  0  0  0  4  0  0  0  0  0  0
  -29.0210  -21.6750   19.6710 H   0  0  0  0  0  0  0  0  0  0  0  0
  -31.9760  -21.1550   22.3650 H   0  0  0  0  0  0  0  0  0  0  0  0
  -31.6000  -22.7560   21.8180 H   0  0  0  0  0  0  0  0  0  0  0  0
  -31.5650  -18.9740   20.9930 C   0  0  0  0  0  3  0  0  0  0  0  0
  -31.4840  -17.5640   20.9850 C   0  0  0  0  0  3  0  0  0  0  0  0
  -29.1500  -19.1310   20.7530 C   0  0  0  0  0  3  0  0  0  0  0  0
  -30.4010  -19.7740   20.8870 C   0  0  0  0  0  0  0  0  0  0  0  0
  -30.2310  -16.9190   20.8590 C   0  0  0  0  0  0  0  0  0  0  0  0
  -29.0720  -17.7200   20.7450 C   0  0  0  0  0  0  0  0  0  0  0  0
  -27.8640  -17.1160   20.6260 F   0  0  0  0  0  0  0  0  0  0  0  0
  -30.7480  -14.5380   20.2510 C   0  0  0  0  0  0  0  0  0  0  0  0
  -30.4080  -12.4220   19.0270 C   0  0  0  0  0  2  0  0  0  0  0  0
  -29.4090  -12.6750   17.8770 C   0  0  0  0  0  2  0  0  0  0  0  0
  -27.9550  -12.5230   18.3680 C   0  0  0  0  0  2  0  0  0  0  0  0
  -27.6790  -13.3060   19.6810 C   0  0  0  0  0  3  0  0  0  0  0  0
  -28.7830  -13.0270   20.7260 C   0  0  0  0  0  2  0  0  0  0  0  0
  -30.0830  -13.3590   20.1130 N   0  0  0  0  0  0  0  0  0  0  0  0
  -31.8480  -14.7440   19.7310 O   0  0  0  0  0  0  0  0  0  0  0  0
  -30.0500  -15.5020   20.8820 N   0  0  0  0  0  0  0  0  0  0  0  0
  -29.1450  -15.2060   21.2180 H   0  0  0  0  0  0  0  0  0  0  0  0
  -25.3120  -13.8920   20.5060 C   0  0  0  0  0  0  0  0  0  0  0  0
  -24.2610  -13.1090   20.8970 C   0  0  0  0  0  0  0  0  0  0  0  0
  -24.7200  -11.7590   20.8100 C   0  0  0  0  0  0  0  0  0  0  0  0
  -26.3480  -13.0190   20.2090 N   0  0  0  0  0  0  0  0  0  0  0  0
  -25.9960  -11.7290   20.4470 N   0  0  0  0  0  0  0  0  0  0  0  0
  -24.0040  -10.4910   20.9980 C   0  0  0  0  0  0  0  0  0  0  0  0
  -24.4440   -9.5240   21.9280 C   0  0  0  0  0  3  0  0  0  0  0  0
  -23.7270   -8.3200   22.1020 C   0  0  0  0  0  3  0  0  0  0  0  0
  -22.5570   -8.0760   21.3460 C   0  0  0  0  0  0  0  0  0  0  0  0
  -22.1360   -9.0320   20.4040 C   0  0  0  0  0  3  0  0  0  0  0  0
  -22.8540  -10.2270   20.2280 C   0  0  0  0  0  3  0  0  0  0  0  0
  -21.8120   -6.9250   21.4290 O   0  0  0  0  0  0  0  0  0  0  0  0
  -21.7190   -6.2110   22.5960 C   0  0  0  0  0  0  0  0  0  0  0  0
  -21.2040   -6.7810   23.7810 C   0  0  0  0  0  3  0  0  0  0  0  0
  -21.0620   -5.9910   24.9390 C   0  0  0  0  0  3  0  0  0  0  0  0
  -21.4240   -4.6300   24.9130 C   0  0  0  0  0  0  0  0  0  0  0  0
  -21.9320   -4.0590   23.7320 C   0  0  0  0  0  3  0  0  0  0  0  0
  -22.0760   -4.8460   22.5770 C   0  0  0  0  0  0  0  0  0  0  0  0
  -22.5450   -4.2860   21.4360 F   0  0  0  0  0  0  0  0  0  0  0  0
  -21.2810   -3.8690   26.0230 F   0  0  0  0  0  0  0  0  0  0  0  0
  -22.8780  -13.5770   21.2450 C   0  0  0  0  0  0  0  0  0  0  0  0
  -22.1870  -12.8530   22.1210 N   0  0  0  0  0  0  0  0  0  0  0  0
  -22.4170  -14.6170   20.7770 O   0  0  0  0  0  0  0  0  0  0  0  0
  -22.5730  -12.0100   22.5210 H   0  0  0  0  0  0  0  0  0  0  0  0
  -21.2610  -13.1470   22.3950 H   0  0  0  0  0  0  0  0  0  0  0  0
  -25.4680  -15.2670   20.3640 N   0  0  0  0  0  0  0  0  0  0  0  0
  -24.7120  -15.9140   20.5560 H   0  0  0  0  0  0  0  0  0  0  0  0
  -26.3330  -15.7360   20.1210 H   0  0  0  0  0  0  0  0  0  0  0  0
  -29.8930  -23.5700   20.1200 C   0  0  0  0  0  3  0  0  0  0  0  0
  -29.7420  -23.3880   17.5310 C   0  0  0  0  0  1  0  0  0  0  0  0
  -31.9960  -23.5560   18.6600 C   0  0  0  0  0  1  0  0  0  0  0  0
  -30.5130  -23.9500   18.7440 C   0  0  0  0  0  3  0  0  0  0  0  0
  -28.5430  -24.2920   20.3520 C   0  0  0  0  0  0  0  0  0  0  0  0
  -27.4640  -23.7760   20.0410 O   0  0  0  0  0  0  0  0  0  0  0  0
  -28.5790  -25.6840   21.0210 C   0  0  0  0  0  2  0  0  0  0  0  0
  -28.5030  -26.7530   20.0650 O   0  0  0  0  0  0  0  0  0  0  0  0
  -24.6230  -31.8610   23.1920 C   0  0  0  0  0  0  0  0  0  0  0  0
  -27.3350  -27.4760   20.1000 C   0  0  0  0  0  0  0  0  0  0  0  0
  -23.4480  -30.4690   21.5190 C   0  0  0  0  0  3  0  0  0  0  0  0
  -24.9290  -28.9550   20.1000 C   0  0  0  0  0  0  0  0  0  0  0  0
  -25.9710  -30.8510   21.3560 C   0  0  0  0  0  2  0  0  0  0  0  0
  -26.0750  -29.4850   20.7060 C   0  0  0  0  0  0  0  0  0  0  0  0
  -27.2850  -28.7520   20.7030 C   0  0  0  0  0  3  0  0  0  0  0  0
  -26.1760  -26.9530   19.4930 C   0  0  0  0  0  3  0  0  0  0  0  0
  -24.9740  -27.6860   19.4920 C   0  0  0  0  0  3  0  0  0  0  0  0
  -23.6780  -29.8030   20.1360 C   0  0  0  0  0  2  0  0  0  0  0  0
  -24.6980  -31.0750   22.0820 N   0  0  0  0  0  0  0  0  0  0  0  0
  -23.5340  -32.1200   23.7230 O   0  0  0  0  0  0  0  0  0  0  0  0
  -22.7920  -29.4340   22.4620 C   0  0  0  0  0  0  0  0  0  0  0  0
  -21.4650  -29.2680   22.3390 N   0  0  0  0  0  0  0  0  0  0  0  0
  -23.4740  -28.7820   23.2580 O   0  0  0  0  0  0  0  0  0  0  0  0
  -20.9770  -29.8460   21.6670 H   0  0  0  0  0  0  0  0  0  0  0  0
  -18.0750  -28.1320   22.8600 C   0  0  0  0  0  0  0  0  0  0  0  0
  -20.6420  -28.3220   23.0910 C   0  0  0  0  0  3  0  0  0  0  0  0
  -20.7010  -26.9110   22.4620 C   0  0  0  0  0  2  0  0  0  0  0  0
  -19.5730  -26.6500   21.4590 C   0  0  0  0  0  2  0  0  0  0  0  0
  -18.2070  -26.8040   22.1350 C   0  0  0  0  0  2  0  0  0  0  0  0
  -19.2190  -28.8520   23.2950 C   0  0  0  0  0  0  0  0  0  0  0  0
  -19.0400  -30.1000   23.9330 C   0  0  0  0  0  3  0  0  0  0  0  0
  -17.7520  -30.6250   24.1410 C   0  0  0  0  0  3  0  0  0  0  0  0
  -16.6220  -29.9010   23.7220 C   0  0  0  0  0  3  0  0  0  0  0  0
  -16.7850  -28.6560   23.0880 C   0  0  0  0  0  3  0  0  0  0  0  0
  -25.8970  -32.4930   23.8350 C   0  0  0  0  0  3  0  0  0  0  0  0
  -25.5820  -33.8890   24.1660 N   0  0  0  0  0  0  0  0  0  0  0  0
  -25.9230  -34.9440   23.4140 C   0  0  0  0  0  0  0  0  0  0  0  0
  -26.6090  -34.8450   22.3940 O   0  0  0  0  0  0  0  0  0  0  0  0
  -24.9720  -34.0400   24.9560 H   0  0  0  0  0  0  0  0  0  0  0  0
  -24.2020  -36.7370   23.0290 C   0  0  0  0  0  1  0  0  0  0  0  0
  -25.4240  -36.3290   23.8670 C   0  0  0  0  0  3  0  0  0  0  0  0
  -27.5360  -37.2110   24.7570 C   0  0  0  0  0  1  0  0  0  0  0  0
  -26.4590  -37.3840   23.7860 N   0  0  0  0  0  0  0  0  0  0  0  0
  -26.0480  -38.3020   23.9280 H   0  0  0  0  0  0  0  0  0  0  0  0
  -26.4010  -31.7160   25.1140 C   0  0  1  0  0  0  0  0  0  0  0  0
  -25.2950  -31.4630   26.1630 C   0  0  0  0  0  1  0  0  0  0  0  0
  -26.9970  -30.3450   24.7180 C   0  0  0  0  0  1  0  0  0  0  0  0
  -27.5380  -32.5110   25.7970 C   0  0  0  0  0  1  0  0  0  0  0  0
  1  3  2  0
  2  1  1  0
  3  6  1  0
  3  5  1  0
  4  2  1  0
  8  7  1  0
  9 10  1  0
 10  1  1  0
 10  7  2  0
 11 22  1  0
 11  8  2  0
 12  9  2  0
 12 11  1  0
 13 12  1  0
 14 22  1  0
 15 20  1  0
 16 17  1  0
 16 15  1  0
 18 17  1  0
 18 27  1  0
 18 19  1  0
 20 14  1  0
 20 19  1  0
 21 14  2  0
 22 23  1  0
 24 25  2  0
 25 44  1  0
 26 25  1  0
 26 29  1  0
 27 28  1  0
 27 24  1  0
 28 26  2  0
 29 30  1  0
 30 31  2  0
 32 35  1  0
 32 31  1  0
 33 32  2  0
 34 33  1  0
 34 29  2  0
 35 36  1  0
 36 37  1  0
 37 38  2  0
 39 38  1  0
 39 43  1  0
 40 39  2  0
 41 36  2  0
 41 40  1  0
 42 41  1  0
 44 45  1  0
 45 48  1  0
 45 47  1  0
 46 44  2  0
 49 24  1  0
 49 50  1  0
 51 49  1  0
 52 55  1  0
 52  2  1  0
 52 56  1  0
 53 55  1  0
 54 55  1  0
 56 58  1  0
 57 56  2  0
 59 61  1  0
 59 58  1  0
 60 71  2  0
 61 66  1  0
 62 70  1  0
 62 72  1  0
 63 69  1  0
 63 65  1  0
 64 70  1  0
 65 64  1  0
 66 65  2  0
 67 61  2  0
 68 67  1  0
 68 63  2  0
 69 62  1  0
 70 60  1  0
 72 74  2  0
 73 72  1  0
 75 73  1  0
 76 85  2  0
 76 81  1  0
 77 73  1  0
 77 81  1  0
 78 77  1  0
 79 80  1  0
 79 78  1  0
 80 76  1  0
 81 82  2  0
 82 83  1  0
 84 83  2  0
 85 84  1  0
 86 60  1  0
 86 87  1  0
 86 96  1  0
 87 90  1  0
 88 92  1  0
 88 87  1  0
 89 88  2  0
 92 91  1  0
 94 92  1  0
 94 95  1  0
 94 93  1  0
 96 99  1  1
 96 97  1  0
 98 96  1  0
M  ISO  4  14 100  22 100  58 101  59 101
M  END
>  <TORSDO>  (53) 
F 21

>  <SCORE>  (53) 
-13.916

>  <name>  (53) 
52

>  <ligand_id>  (53) 
52

>  <original_smiles>  (53) 
[H]c1c([H])c([H])c2c(c1[H])C([H])([H])C([H])([H])C([H])([H])C2([H])N([H])C(=O)C1([H])N(C(=O)C([H])(N([H])C(=O)C([H])(N([H])C([H])([H])[H])C([H])([H])[H])C(C([H])([H])[H])(C([H])([H])[H])C([H])([H])[H])C([H])([H])c2c([H])c(OC([H])([H])C(=O)C([H])(N([H])C(c3c([H])c([H])c(N([H])C(=O)N4C([H])([H])C([H])([H])C([H])([H])C([H])(n5nc(-c6c([H])c([H])c(Oc7c([H])c([H])c(F)c([H])c7F)c([H])c6[H])c(C(=O)N([H])[H])c5N([H])[H])C4([H])[H])c(F)c3[H])=[N+]([H])[H])C([H])(C([H])([H])[H])C([H])([H])[H])c([H])c([H])c2C1([H])[H]

>  <smiles>  (53) 
[H]c1c([H])c([H])c2c(c1[H])C([H])([H])C([H])([H])C([H])([H])C2([H])N([H])C(=O)C1([H])N(C(=O)C([H])(N([H])C(=O)C([H])(N([H])C([H])([H])[H])C([H])([H])[H])C(C([H])([H])[H])(C([H])([H])[H])C([H])([H])[H])C([H])([H])c2c([H])c(OC([H])([H])C(=O)C([H])(N([H])C(c3c([H])c([H])c(N([H])C(=O)N4C([H])([H])C([H])([H])C([H])([H])C([H])(n5nc(-c6c([H])c([H])c(Oc7c([H])c([H])c(F)c([H])c7F)c([H])c6[H])c(C(=O)N([H])[H])c5N([H])[H])C4([H])[H])c(F)c3[H])=[N+]([H])[H])C([H])(C([H])([H])[H])C([H])([H])[H])c([H])c([H])c2C1([H])[H]

$$$$
53:0:0
     RDKit          3D

 99108  0  0  1  0  0  0  0  0999 V2000
  -28.4270  -23.7280   17.6110 C   0  0  0  0  0  3  0  0  0  0  0  0
  -28.7900  -24.4320   18.7990 C   0  0  0  0  0  0  0  0  0  0  0  0
  -28.6790  -22.4000   17.7980 C   0  0  0  0  0  0  0  0  0  0  0  0
  -29.2110  -23.4520   19.6780 C   0  0  0  0  0  0  0  0  0  0  0  0
  -29.1770  -22.1860   19.0710 N   0  0  0  0  0  0  0  0  0  0  0  0
  -28.8970  -20.3140   20.6690 C   0  0  0  0  0  3  0  0  0  0  0  0
  -29.2960  -19.0510   21.1660 C   0  0  0  0  0  3  0  0  0  0  0  0
  -30.6610  -20.2000   19.0120 C   0  0  0  0  0  3  0  0  0  0  0  0
  -31.0710  -18.9300   19.5040 C   0  0  0  0  0  0  0  0  0  0  0  0
  -29.5860  -20.9150   19.5950 C   0  0  0  0  0  0  0  0  0  0  0  0
  -30.3880  -18.3440   20.6080 C   0  0  0  0  0  0  0  0  0  0  0  0
  -32.2600  -18.2580   18.8370 C   0  0  0  0  0  1  0  0  0  0  0  0
  -32.4330  -16.7280   21.3630 O   0  0  0  0  0  0  0  0  0  0  0  0
  -30.4240  -16.9260   22.8710 O   0  0  0  0  0  0  0  0  0  0  0  0
  -30.9730  -16.8430   21.5050 S   0  0  1  0  0  0  0  0  0  0  0  0
  -30.8040  -14.3880   20.0710 C   0  0  0  0  0  0  0  0  0  0  0  0
  -30.3720  -12.2390   18.9120 C   0  0  0  0  0  2  0  0  0  0  0  0
  -29.3760  -12.4690   17.7550 C   0  0  0  0  0  2  0  0  0  0  0  0
  -27.9230  -12.3760   18.2610 C   0  0  0  0  0  2  0  0  0  0  0  0
  -27.6760  -13.2260   19.5370 C   0  0  0  0  0  3  0  0  0  0  0  0
  -28.7780  -12.9770   20.5900 C   0  0  0  0  0  2  0  0  0  0  0  0
  -30.0800  -13.2380   19.9530 N   0  0  0  0  0  0  0  0  0  0  0  0
  -31.8910  -14.5350   19.5050 O   0  0  0  0  0  0  0  0  0  0  0  0
  -30.2220  -15.4370   20.8030 N   0  0  0  0  0  0  0  0  0  0  0  0
  -29.2650  -15.3420   21.1280 H   0  0  0  0  0  0  0  0  0  0  0  0
  -25.3470  -13.9230   20.3730 C   0  0  0  0  0  0  0  0  0  0  0  0
  -24.2690  -13.1920   20.7960 C   0  0  0  0  0  0  0  0  0  0  0  0
  -24.6720  -11.8230   20.7360 C   0  0  0  0  0  0  0  0  0  0  0  0
  -26.3410  -13.0020   20.0830 N   0  0  0  0  0  0  0  0  0  0  0  0
  -25.9420  -11.7340   20.3600 N   0  0  0  0  0  0  0  0  0  0  0  0
  -23.9080  -10.5890   20.9580 C   0  0  0  0  0  0  0  0  0  0  0  0
  -24.3510   -9.5940   21.8570 C   0  0  0  0  0  3  0  0  0  0  0  0
  -23.5850   -8.4280   22.0670 C   0  0  0  0  0  3  0  0  0  0  0  0
  -22.3630   -8.2470   21.3760 C   0  0  0  0  0  0  0  0  0  0  0  0
  -21.9370   -9.2300   20.4660 C   0  0  0  0  0  3  0  0  0  0  0  0
  -22.7030  -10.3890   20.2540 C   0  0  0  0  0  3  0  0  0  0  0  0
  -21.5660   -7.1340   21.4990 O   0  0  0  0  0  0  0  0  0  0  0  0
  -21.5570   -6.3780   22.6430 C   0  0  0  0  0  0  0  0  0  0  0  0
  -21.2530   -6.9380   23.9020 C   0  0  0  0  0  3  0  0  0  0  0  0
  -21.1840   -6.1110   25.0420 C   0  0  0  0  0  3  0  0  0  0  0  0
  -21.4080   -4.7270   24.9250 C   0  0  0  0  0  0  0  0  0  0  0  0
  -21.7080   -4.1660   23.6690 C   0  0  0  0  0  3  0  0  0  0  0  0
  -21.7770   -4.9900   22.5310 C   0  0  0  0  0  0  0  0  0  0  0  0
  -22.0440   -4.4420   21.3220 F   0  0  0  0  0  0  0  0  0  0  0  0
  -21.3360   -3.9310   26.0170 F   0  0  0  0  0  0  0  0  0  0  0  0
  -22.9070  -13.7230   21.1420 C   0  0  0  0  0  0  0  0  0  0  0  0
  -22.1990  -13.0570   22.0460 N   0  0  0  0  0  0  0  0  0  0  0  0
  -22.4840  -14.7650   20.6430 O   0  0  0  0  0  0  0  0  0  0  0  0
  -22.5570  -12.2160   22.4740 H   0  0  0  0  0  0  0  0  0  0  0  0
  -21.2870  -13.3950   22.3170 H   0  0  0  0  0  0  0  0  0  0  0  0
  -25.5560  -15.2880   20.1890 N   0  0  0  0  0  0  0  0  0  0  0  0
  -24.8110  -15.9640   20.3310 H   0  0  0  0  0  0  0  0  0  0  0  0
  -26.3860  -15.6940   19.7800 H   0  0  0  0  0  0  0  0  0  0  0  0
  -28.5210  -21.3750   16.9150 O   0  0  0  0  0  0  0  0  0  0  0  0
  -28.2690  -21.7520   16.0770 H   0  0  0  0  0  0  0  0  0  0  0  0
  -29.6810  -23.5910   20.9500 O   0  0  0  0  0  0  0  0  0  0  0  0
  -29.6120  -24.5120   21.1880 H   0  0  0  0  0  0  0  0  0  0  0  0
  -28.7970  -25.9640   18.8770 C   0  0  0  0  0  2  0  0  0  0  0  0
  -28.3970  -26.5860   20.1110 O   0  0  0  0  0  0  0  0  0  0  0  0
  -24.5930  -31.7880   23.2030 C   0  0  0  0  0  0  0  0  0  0  0  0
  -27.2360  -27.3400   20.1020 C   0  0  0  0  0  0  0  0  0  0  0  0
  -23.3920  -30.4050   21.5390 C   0  0  0  0  0  3  0  0  0  0  0  0
  -24.8510  -28.8650   20.1210 C   0  0  0  0  0  0  0  0  0  0  0  0
  -25.9240  -30.7480   21.3670 C   0  0  0  0  0  2  0  0  0  0  0  0
  -26.0070  -29.3750   20.7230 C   0  0  0  0  0  0  0  0  0  0  0  0
  -27.2000  -28.6140   20.7210 C   0  0  0  0  0  3  0  0  0  0  0  0
  -26.0550  -26.8410   19.5100 C   0  0  0  0  0  3  0  0  0  0  0  0
  -24.8670  -27.5960   19.5170 C   0  0  0  0  0  3  0  0  0  0  0  0
  -23.6140  -29.7330   20.1570 C   0  0  0  0  0  2  0  0  0  0  0  0
  -24.6530  -30.9970   22.0950 N   0  0  0  0  0  0  0  0  0  0  0  0
  -23.5090  -32.0600   23.7400 O   0  0  0  0  0  0  0  0  0  0  0  0
  -22.7260  -29.3820   22.4890 C   0  0  0  0  0  0  0  0  0  0  0  0
  -21.3990  -29.2100   22.3570 N   0  0  0  0  0  0  0  0  0  0  0  0
  -23.4020  -28.7460   23.3020 O   0  0  0  0  0  0  0  0  0  0  0  0
  -20.9140  -29.7770   21.6760 H   0  0  0  0  0  0  0  0  0  0  0  0
  -18.0200  -28.0130   22.8130 C   0  0  0  0  0  0  0  0  0  0  0  0
  -20.5740  -28.2710   23.1180 C   0  0  0  0  0  3  0  0  0  0  0  0
  -20.6850  -26.8390   22.5470 C   0  0  0  0  0  2  0  0  0  0  0  0
  -19.5990  -26.5150   21.5180 C   0  0  0  0  0  2  0  0  0  0  0  0
  -18.2060  -26.6620   22.1420 C   0  0  0  0  0  2  0  0  0  0  0  0
  -19.1320  -28.7750   23.2580 C   0  0  0  0  0  0  0  0  0  0  0  0
  -18.9070  -30.0380   23.8450 C   0  0  0  0  0  3  0  0  0  0  0  0
  -17.6010  -30.5410   23.9920 C   0  0  0  0  0  3  0  0  0  0  0  0
  -16.5010  -29.7760   23.5650 C   0  0  0  0  0  3  0  0  0  0  0  0
  -16.7120  -28.5140   22.9800 C   0  0  0  0  0  3  0  0  0  0  0  0
  -25.8770  -32.4120   23.8340 C   0  0  0  0  0  3  0  0  0  0  0  0
  -25.5720  -33.8080   24.1750 N   0  0  0  0  0  0  0  0  0  0  0  0
  -25.9060  -34.8650   23.4200 C   0  0  0  0  0  0  0  0  0  0  0  0
  -26.5710  -34.7670   22.3860 O   0  0  0  0  0  0  0  0  0  0  0  0
  -24.9870  -33.9580   24.9820 H   0  0  0  0  0  0  0  0  0  0  0  0
  -24.1760  -36.6600   23.0880 C   0  0  0  0  0  1  0  0  0  0  0  0
  -25.4220  -36.2510   23.8890 C   0  0  0  0  0  3  0  0  0  0  0  0
  -27.5660  -37.1300   24.7040 C   0  0  0  0  0  1  0  0  0  0  0  0
  -26.4540  -37.3050   23.7720 N   0  0  0  0  0  0  0  0  0  0  0  0
  -26.0480  -38.2240   23.9310 H   0  0  0  0  0  0  0  0  0  0  0  0
  -26.3900  -31.6280   25.1020 C   0  0  1  0  0  0  0  0  0  0  0  0
  -25.2980  -31.3850   26.1700 C   0  0  0  0  0  1  0  0  0  0  0  0
  -26.9650  -30.2510   24.6970 C   0  0  0  0  0  1  0  0  0  0  0  0
  -27.5450  -32.4090   25.7720 C   0  0  0  0  0  1  0  0  0  0  0  0
  1  3  2  0
  1  2  1  0
  2 58  1  0
  2  4  2  0
  3  5  1  0
  4 56  1  0
  5 10  1  0
  5  4  1  0
  6  7  1  0
  8  9  2  0
  8 10  1  0
  9 11  1  0
 10  6  2  0
 11  7  2  0
 11 15  1  0
 12  9  1  0
 13 15  2  0
 15 14  2  0
 16 24  1  0
 17 22  1  0
 18 19  1  0
 18 17  1  0
 20 19  1  0
 20 29  1  0
 20 21  1  0
 22 16  1  0
 22 21  1  0
 23 16  2  0
 24 25  1  0
 15 24  1  6
 26 27  2  0
 27 46  1  0
 28 27  1  0
 28 31  1  0
 29 30  1  0
 29 26  1  0
 30 28  2  0
 31 32  1  0
 32 33  2  0
 34 37  1  0
 34 33  1  0
 35 34  2  0
 36 35  1  0
 36 31  2  0
 37 38  1  0
 38 39  1  0
 39 40  2  0
 41 40  1  0
 41 45  1  0
 42 41  2  0
 43 38  2  0
 43 42  1  0
 44 43  1  0
 46 47  1  0
 47 50  1  0
 47 49  1  0
 48 46  2  0
 51 52  1  0
 51 26  1  0
 53 51  1  0
 54  3  1  0
 55 54  1  0
 56 57  1  0
 58 59  1  0
 60 71  2  0
 61 59  1  0
 61 66  1  0
 62 70  1  0
 62 72  1  0
 63 69  1  0
 63 65  1  0
 64 70  1  0
 65 64  1  0
 66 65  2  0
 67 68  1  0
 67 61  2  0
 68 63  2  0
 69 62  1  0
 70 60  1  0
 72 74  2  0
 73 72  1  0
 75 73  1  0
 76 85  2  0
 76 81  1  0
 77 73  1  0
 77 81  1  0
 78 77  1  0
 79 80  1  0
 79 78  1  0
 80 76  1  0
 81 82  2  0
 82 83  1  0
 84 83  2  0
 85 84  1  0
 86 60  1  0
 86 87  1  0
 86 96  1  0
 87 90  1  0
 88 92  1  0
 88 87  1  0
 89 88  2  0
 92 91  1  0
 94 92  1  0
 94 95  1  0
 94 93  1  0
 96 99  1  1
 96 97  1  0
 98 96  1  0
M  ISO  4  16 100  24 100  58 101  59 101
M  END
>  <TORSDO>  (54) 
F 21

>  <SCORE>  (54) 
-13.717

>  <name>  (54) 
53

>  <ligand_id>  (54) 
53

>  <original_smiles>  (54) 
[H]Oc1c([H])c(C([H])([H])Oc2c([H])c([H])c3c(c2[H])C([H])([H])N(C(=O)C([H])(N([H])C(=O)C([H])(N([H])C([H])([H])[H])C([H])([H])[H])C(C([H])([H])[H])(C([H])([H])[H])C([H])([H])[H])C([H])(C(=O)N([H])C2([H])c4c([H])c([H])c([H])c([H])c4C([H])([H])C([H])([H])C2([H])[H])C3([H])[H])c(O[H])n1-c1c([H])c([H])c(S(=O)(=O)N([H])C(=O)N2C([H])([H])C([H])([H])C([H])([H])C([H])(n3nc(-c4c([H])c([H])c(Oc5c([H])c([H])c(F)c([H])c5F)c([H])c4[H])c(C(=O)N([H])[H])c3N([H])[H])C2([H])[H])c(C([H])([H])[H])c1[H]

>  <smiles>  (54) 
[H]Oc1c([H])c(C([H])([H])Oc2c([H])c([H])c3c(c2[H])C([H])([H])N(C(=O)C([H])(N([H])C(=O)C([H])(N([H])C([H])([H])[H])C([H])([H])[H])C(C([H])([H])[H])(C([H])([H])[H])C([H])([H])[H])C([H])(C(=O)N([H])C2([H])c4c([H])c([H])c([H])c([H])c4C([H])([H])C([H])([H])C2([H])[H])C3([H])[H])c(O[H])n1-c1c([H])c([H])c(S(=O)(=O)N([H])C(=O)N2C([H])([H])C([H])([H])C([H])([H])C([H])(n3nc(-c4c([H])c([H])c(Oc5c([H])c([H])c(F)c([H])c5F)c([H])c4[H])c(C(=O)N([H])[H])c3N([H])[H])C2([H])[H])c(C([H])([H])[H])c1[H]

$$$$
54:0:0
     RDKit          3D

 93102  0  0  1  0  0  0  0  0999 V2000
  -29.5960  -21.8450   21.3460 C   0  0  0  0  0  0  0  0  0  0  0  0
  -28.5360  -22.3620   19.3760 C   0  0  0  0  0  2  0  0  0  0  0  0
  -28.3760  -23.6440   20.3010 C   0  0  0  0  0  3  0  0  0  0  0  0
  -29.0700  -21.2390   20.2090 N   0  0  0  0  0  0  0  0  0  0  0  0
  -30.2230  -21.3120   22.2610 O   0  0  0  0  0  0  0  0  0  0  0  0
  -29.3260  -23.2120   21.2890 O   0  0  0  0  0  0  0  0  0  0  0  0
  -29.2760  -19.6090   18.3530 C   0  0  0  0  0  3  0  0  0  0  0  0
  -29.7350  -17.2070   18.5780 C   0  0  0  0  0  3  0  0  0  0  0  0
  -29.5300  -18.6170   20.5580 C   0  0  0  0  0  3  0  0  0  0  0  0
  -29.4790  -18.3370   17.7770 C   0  0  0  0  0  0  0  0  0  0  0  0
  -29.3000  -19.8240   19.7510 C   0  0  0  0  0  0  0  0  0  0  0  0
  -29.7590  -17.2840   19.9880 C   0  0  0  0  0  0  0  0  0  0  0  0
  -29.3900  -18.1630   16.2720 C   0  0  0  0  0  1  0  0  0  0  0  0
  -30.6170  -14.8560   20.3800 C   0  0  0  0  0  0  0  0  0  0  0  0
  -30.4310  -12.5750   19.3820 C   0  0  0  0  0  2  0  0  0  0  0  0
  -29.5190  -12.6860   18.1390 C   0  0  0  0  0  2  0  0  0  0  0  0
  -28.0420  -12.5130   18.5410 C   0  0  0  0  0  2  0  0  0  0  0  0
  -27.6580  -13.3810   19.7680 C   0  0  0  0  0  3  0  0  0  0  0  0
  -28.6950  -13.2680   20.9070 C   0  0  0  0  0  2  0  0  0  0  0  0
  -30.0050  -13.6200   20.3460 N   0  0  0  0  0  0  0  0  0  0  0  0
  -31.7860  -14.9620   19.9920 O   0  0  0  0  0  0  0  0  0  0  0  0
  -29.8760  -15.9870   20.7160 N   0  0  0  0  0  0  0  0  0  0  0  0
  -29.0920  -15.7890   21.3200 H   0  0  0  0  0  0  0  0  0  0  0  0
  -25.2580  -13.9820   20.4360 C   0  0  0  0  0  0  0  0  0  0  0  0
  -24.1830  -13.2130   20.7930 C   0  0  0  0  0  0  0  0  0  0  0  0
  -24.6470  -11.8610   20.7890 C   0  0  0  0  0  0  0  0  0  0  0  0
  -26.3060  -13.0990   20.2320 N   0  0  0  0  0  0  0  0  0  0  0  0
  -25.9440  -11.8190   20.5090 N   0  0  0  0  0  0  0  0  0  0  0  0
  -23.9160  -10.6020   20.9840 C   0  0  0  0  0  0  0  0  0  0  0  0
  -24.3260   -9.6510   21.9450 C   0  0  0  0  0  3  0  0  0  0  0  0
  -23.5950   -8.4570   22.1290 C   0  0  0  0  0  3  0  0  0  0  0  0
  -22.4420   -8.2050   21.3510 C   0  0  0  0  0  0  0  0  0  0  0  0
  -22.0510   -9.1440   20.3790 C   0  0  0  0  0  3  0  0  0  0  0  0
  -22.7820  -10.3300   20.1950 C   0  0  0  0  0  3  0  0  0  0  0  0
  -21.6880   -7.0590   21.4400 O   0  0  0  0  0  0  0  0  0  0  0  0
  -21.6070   -6.3400   22.6050 C   0  0  0  0  0  0  0  0  0  0  0  0
  -21.1520   -6.9210   23.8090 C   0  0  0  0  0  3  0  0  0  0  0  0
  -21.0140   -6.1270   24.9650 C   0  0  0  0  0  3  0  0  0  0  0  0
  -21.3260   -4.7550   24.9200 C   0  0  0  0  0  0  0  0  0  0  0  0
  -21.7770   -4.1750   23.7210 C   0  0  0  0  0  3  0  0  0  0  0  0
  -21.9130   -4.9650   22.5670 C   0  0  0  0  0  0  0  0  0  0  0  0
  -22.3260   -4.3970   21.4080 F   0  0  0  0  0  0  0  0  0  0  0  0
  -21.1890   -3.9910   26.0290 F   0  0  0  0  0  0  0  0  0  0  0  0
  -22.7820  -13.6940   21.0330 C   0  0  0  0  0  0  0  0  0  0  0  0
  -22.0410  -13.0090   21.8970 N   0  0  0  0  0  0  0  0  0  0  0  0
  -22.3540  -14.7110   20.4900 O   0  0  0  0  0  0  0  0  0  0  0  0
  -22.4010  -12.1850   22.3520 H   0  0  0  0  0  0  0  0  0  0  0  0
  -21.1020  -13.3170   22.1100 H   0  0  0  0  0  0  0  0  0  0  0  0
  -25.4320  -15.3490   20.2440 N   0  0  0  0  0  0  0  0  0  0  0  0
  -24.6720  -16.0150   20.3370 H   0  0  0  0  0  0  0  0  0  0  0  0
  -26.2970  -15.7730   19.9350 H   0  0  0  0  0  0  0  0  0  0  0  0
  -28.5300  -25.1340   19.6320 C   0  0  0  0  0  2  0  0  0  0  0  0
  -28.3570  -26.4760   20.3130 O   0  0  0  0  0  0  0  0  0  0  0  0
  -24.5840  -31.9620   23.2290 C   0  0  0  0  0  0  0  0  0  0  0  0
  -27.2290  -27.3320   20.2150 C   0  0  0  0  0  0  0  0  0  0  0  0
  -23.3930  -30.5350   21.6040 C   0  0  0  0  0  3  0  0  0  0  0  0
  -24.8560  -28.9670   20.1940 C   0  0  0  0  0  0  0  0  0  0  0  0
  -25.9350  -30.8480   21.4280 C   0  0  0  0  0  2  0  0  0  0  0  0
  -26.0230  -29.4580   20.7890 C   0  0  0  0  0  0  0  0  0  0  0  0
  -27.2050  -28.6500   20.7920 C   0  0  0  0  0  3  0  0  0  0  0  0
  -26.0350  -26.9050   19.5940 C   0  0  0  0  0  3  0  0  0  0  0  0
  -24.8680  -27.7000   19.5860 C   0  0  0  0  0  3  0  0  0  0  0  0
  -23.6130  -29.8360   20.2360 C   0  0  0  0  0  2  0  0  0  0  0  0
  -24.6560  -31.1370   22.1430 N   0  0  0  0  0  0  0  0  0  0  0  0
  -23.4980  -32.2420   23.7570 O   0  0  0  0  0  0  0  0  0  0  0  0
  -22.7310  -29.5320   22.5780 C   0  0  0  0  0  0  0  0  0  0  0  0
  -21.4060  -29.3450   22.4500 N   0  0  0  0  0  0  0  0  0  0  0  0
  -23.4100  -28.9210   23.4090 O   0  0  0  0  0  0  0  0  0  0  0  0
  -20.9150  -29.8890   21.7540 H   0  0  0  0  0  0  0  0  0  0  0  0
  -18.0360  -28.1320   22.9710 C   0  0  0  0  0  0  0  0  0  0  0  0
  -20.5940  -28.4100   23.2300 C   0  0  0  0  0  3  0  0  0  0  0  0
  -20.7020  -26.9740   22.6650 C   0  0  0  0  0  2  0  0  0  0  0  0
  -19.5990  -26.6360   21.6580 C   0  0  0  0  0  2  0  0  0  0  0  0
  -18.2180  -26.7790   22.3030 C   0  0  0  0  0  2  0  0  0  0  0  0
  -19.1520  -28.9040   23.3920 C   0  0  0  0  0  0  0  0  0  0  0  0
  -18.9280  -30.1690   23.9770 C   0  0  0  0  0  3  0  0  0  0  0  0
  -17.6210  -30.6650   24.1410 C   0  0  0  0  0  3  0  0  0  0  0  0
  -16.5200  -29.8920   23.7360 C   0  0  0  0  0  3  0  0  0  0  0  0
  -16.7280  -28.6250   23.1600 C   0  0  0  0  0  3  0  0  0  0  0  0
  -25.8590  -32.6130   23.8480 C   0  0  0  0  0  3  0  0  0  0  0  0
  -25.5370  -34.0100   24.1710 N   0  0  0  0  0  0  0  0  0  0  0  0
  -25.8720  -35.0650   23.4160 C   0  0  0  0  0  0  0  0  0  0  0  0
  -26.5540  -34.9640   22.3930 O   0  0  0  0  0  0  0  0  0  0  0  0
  -24.9310  -34.1630   24.9640 H   0  0  0  0  0  0  0  0  0  0  0  0
  -24.1430  -36.8520   23.0400 C   0  0  0  0  0  1  0  0  0  0  0  0
  -25.3740  -36.4520   23.8680 C   0  0  0  0  0  3  0  0  0  0  0  0
  -27.4910  -37.3430   24.7330 C   0  0  0  0  0  1  0  0  0  0  0  0
  -26.4060  -37.5080   23.7700 N   0  0  0  0  0  0  0  0  0  0  0  0
  -25.9960  -38.4270   23.9110 H   0  0  0  0  0  0  0  0  0  0  0  0
  -26.3810  -31.8580   25.1340 C   0  0  1  0  0  0  0  0  0  0  0  0
  -25.2830  -31.6090   26.1960 C   0  0  0  0  0  1  0  0  0  0  0  0
  -26.9890  -30.4880   24.7590 C   0  0  0  0  0  1  0  0  0  0  0  0
  -27.5190  -32.6740   25.7950 C   0  0  0  0  0  1  0  0  0  0  0  0
  1  5  2  0
  2  4  1  0
  2  3  1  0
  3 52  1  0
  3  6  1  0
  4  1  1  0
  6  1  1  0
  7 11  1  0
  8 12  2  0
 10  7  2  0
 10  8  1  0
 11  4  1  0
 11  9  2  0
 12  9  1  0
 12 22  1  0
 13 10  1  0
 14 22  1  0
 15 20  1  0
 16 17  1  0
 16 15  1  0
 18 17  1  0
 18 27  1  0
 18 19  1  0
 20 14  1  0
 20 19  1  0
 21 14  2  0
 22 23  1  0
 24 25  2  0
 25 44  1  0
 26 25  1  0
 26 29  1  0
 27 24  1  0
 27 28  1  0
 28 26  2  0
 29 30  1  0
 30 31  2  0
 32 35  1  0
 32 31  1  0
 33 32  2  0
 34 33  1  0
 34 29  2  0
 35 36  1  0
 36 37  1  0
 37 38  2  0
 39 38  1  0
 39 43  1  0
 40 39  2  0
 41 36  2  0
 41 40  1  0
 42 41  1  0
 44 45  1  0
 45 48  1  0
 45 47  1  0
 46 44  2  0
 49 50  1  0
 49 24  1  0
 51 49  1  0
 52 53  1  0
 54 65  2  0
 55 53  1  0
 55 60  1  0
 56 64  1  0
 56 66  1  0
 57 63  1  0
 57 59  1  0
 58 64  1  0
 59 60  2  0
 59 58  1  0
 61 55  2  0
 62 61  1  0
 62 57  2  0
 63 56  1  0
 64 54  1  0
 66 68  2  0
 67 66  1  0
 69 67  1  0
 70 79  2  0
 70 75  1  0
 71 67  1  0
 71 75  1  0
 72 71  1  0
 73 74  1  0
 73 72  1  0
 74 70  1  0
 75 76  2  0
 76 77  1  0
 78 77  2  0
 79 78  1  0
 80 54  1  0
 80 81  1  0
 80 90  1  0
 81 84  1  0
 82 86  1  0
 82 81  1  0
 83 82  2  0
 86 85  1  0
 88 86  1  0
 88 89  1  0
 88 87  1  0
 90 93  1  1
 90 91  1  0
 92 90  1  0
M  ISO  4  14 100  22 100  52 101  53 101
M  END
>  <TORSDO>  (55) 
F 18

>  <SCORE>  (55) 
-14.446

>  <name>  (55) 
54

>  <ligand_id>  (55) 
54

>  <original_smiles>  (55) 
[H]c1c([H])c([H])c2c(c1[H])C([H])([H])C([H])([H])C([H])([H])C2([H])N([H])C(=O)C1([H])N(C(=O)C([H])(N([H])C(=O)C([H])(N([H])C([H])([H])[H])C([H])([H])[H])C(C([H])([H])[H])(C([H])([H])[H])C([H])([H])[H])C([H])([H])c2c([H])c(OC([H])([H])C3([H])OC(=O)N(c4c([H])c(N([H])C(=O)N5C([H])([H])C([H])([H])C([H])([H])C([H])(n6nc(-c7c([H])c([H])c(Oc8c([H])c([H])c(F)c([H])c8F)c([H])c7[H])c(C(=O)N([H])[H])c6N([H])[H])C5([H])[H])c([H])c(C([H])([H])[H])c4[H])C3([H])[H])c([H])c([H])c2C1([H])[H]

>  <smiles>  (55) 
[H]c1c([H])c([H])c2c(c1[H])C([H])([H])C([H])([H])C([H])([H])C2([H])N([H])C(=O)C1([H])N(C(=O)C([H])(N([H])C(=O)C([H])(N([H])C([H])([H])[H])C([H])([H])[H])C(C([H])([H])[H])(C([H])([H])[H])C([H])([H])[H])C([H])([H])c2c([H])c(OC([H])([H])C3([H])OC(=O)N(c4c([H])c(N([H])C(=O)N5C([H])([H])C([H])([H])C([H])([H])C([H])(n6nc(-c7c([H])c([H])c(Oc8c([H])c([H])c(F)c([H])c8F)c([H])c7[H])c(C(=O)N([H])[H])c6N([H])[H])C5([H])[H])c([H])c(C([H])([H])[H])c4[H])C3([H])[H])c([H])c([H])c2C1([H])[H]

$$$$
55:0:0
     RDKit          3D

 98107  0  0  1  0  0  0  0  0999 V2000
  -29.6300  -21.7760   21.6070 C   0  0  0  0  0  0  0  0  0  0  0  0
  -28.9790  -22.3820   19.5050 C   0  0  0  0  0  2  0  0  0  0  0  0
  -29.1810  -23.7840   20.2260 C   0  0  0  0  0  3  0  0  0  0  0  0
  -29.2660  -23.2970   21.7020 C   0  0  1  0  0  0  0  0  0  0  0  0
  -27.9240  -23.4220   22.4520 C   0  0  0  0  0  1  0  0  0  0  0  0
  -30.3530  -24.0760   22.4800 C   0  0  0  0  0  1  0  0  0  0  0  0
  -29.4530  -21.2470   20.3740 N   0  0  0  0  0  0  0  0  0  0  0  0
  -30.0400  -21.1540   22.5910 O   0  0  0  0  0  0  0  0  0  0  0  0
  -29.7380  -19.6130   18.5270 C   0  0  0  0  0  3  0  0  0  0  0  0
  -29.8440  -18.6290   20.7480 C   0  0  0  0  0  3  0  0  0  0  0  0
  -29.6820  -19.8310   19.9250 C   0  0  0  0  0  0  0  0  0  0  0  0
  -29.9510  -18.3360   17.9700 C   0  0  0  0  0  0  0  0  0  0  0  0
  -30.0620  -17.2910   20.1990 C   0  0  0  0  0  0  0  0  0  0  0  0
  -30.1020  -17.1980   18.7860 C   0  0  0  0  0  0  0  0  0  0  0  0
  -30.2140  -15.9910   18.1780 F   0  0  0  0  0  0  0  0  0  0  0  0
  -30.8620  -14.8880   20.7080 C   0  0  0  0  0  0  0  0  0  0  0  0
  -30.7300  -12.5790   19.7750 C   0  0  0  0  0  2  0  0  0  0  0  0
  -29.8750  -12.6150   18.4890 C   0  0  0  0  0  2  0  0  0  0  0  0
  -28.3800  -12.4630   18.8210 C   0  0  0  0  0  2  0  0  0  0  0  0
  -27.9280  -13.3750   19.9940 C   0  0  0  0  0  3  0  0  0  0  0  0
  -28.9120  -13.3190   21.1840 C   0  0  0  0  0  2  0  0  0  0  0  0
  -30.2470  -13.6560   20.6720 N   0  0  0  0  0  0  0  0  0  0  0  0
  -32.0510  -14.9920   20.3960 O   0  0  0  0  0  0  0  0  0  0  0  0
  -30.1020  -16.0180   20.9650 N   0  0  0  0  0  0  0  0  0  0  0  0
  -29.2520  -15.8200   21.4720 H   0  0  0  0  0  0  0  0  0  0  0  0
  -25.4920  -13.9630   20.5500 C   0  0  0  0  0  0  0  0  0  0  0  0
  -24.4080  -13.1880   20.8680 C   0  0  0  0  0  0  0  0  0  0  0  0
  -24.8820  -11.8410   20.9000 C   0  0  0  0  0  0  0  0  0  0  0  0
  -26.5550  -13.0860   20.4020 N   0  0  0  0  0  0  0  0  0  0  0  0
  -26.1900  -11.8060   20.6750 N   0  0  0  0  0  0  0  0  0  0  0  0
  -24.1510  -10.5770   21.0750 C   0  0  0  0  0  0  0  0  0  0  0  0
  -24.5400   -9.6250   22.0450 C   0  0  0  0  0  3  0  0  0  0  0  0
  -23.8100   -8.4290   22.2040 C   0  0  0  0  0  3  0  0  0  0  0  0
  -22.6780   -8.1740   21.3940 C   0  0  0  0  0  0  0  0  0  0  0  0
  -22.3090   -9.1130   20.4150 C   0  0  0  0  0  3  0  0  0  0  0  0
  -23.0400  -10.3010   20.2530 C   0  0  0  0  0  3  0  0  0  0  0  0
  -21.9260   -7.0270   21.4630 O   0  0  0  0  0  0  0  0  0  0  0  0
  -21.8260   -6.2950   22.6200 C   0  0  0  0  0  0  0  0  0  0  0  0
  -21.3280   -6.8580   23.8160 C   0  0  0  0  0  3  0  0  0  0  0  0
  -21.1770   -6.0550   24.9640 C   0  0  0  0  0  3  0  0  0  0  0  0
  -21.5150   -4.6890   24.9170 C   0  0  0  0  0  0  0  0  0  0  0  0
  -22.0080   -4.1250   23.7260 C   0  0  0  0  0  3  0  0  0  0  0  0
  -22.1590   -4.9270   22.5810 C   0  0  0  0  0  0  0  0  0  0  0  0
  -22.6130   -4.3750   21.4290 F   0  0  0  0  0  0  0  0  0  0  0  0
  -21.3650   -3.9130   26.0150 F   0  0  0  0  0  0  0  0  0  0  0  0
  -22.9930  -13.6620   21.0410 C   0  0  0  0  0  0  0  0  0  0  0  0
  -22.2170  -12.9850   21.8800 N   0  0  0  0  0  0  0  0  0  0  0  0
  -22.5810  -14.6690   20.4680 O   0  0  0  0  0  0  0  0  0  0  0  0
  -22.5580  -12.1680   22.3640 H   0  0  0  0  0  0  0  0  0  0  0  0
  -21.2660  -13.2870   22.0390 H   0  0  0  0  0  0  0  0  0  0  0  0
  -25.6630  -15.3300   20.3510 N   0  0  0  0  0  0  0  0  0  0  0  0
  -24.8950  -15.9910   20.3880 H   0  0  0  0  0  0  0  0  0  0  0  0
  -26.5350  -15.7560   20.0640 H   0  0  0  0  0  0  0  0  0  0  0  0
  -29.9860  -18.1830   16.5790 N   0  0  0  0  0  0  0  0  0  0  0  0
  -29.4010  -18.7950   16.0230 H   0  0  0  0  0  0  0  0  0  0  0  0
  -29.9500  -17.2230   16.2510 H   0  0  0  0  0  0  0  0  0  0  0  0
  -28.1800  -24.9990   19.8000 C   0  0  0  0  0  2  0  0  0  0  0  0
  -28.3940  -26.4720   20.0360 O   0  0  0  0  0  0  0  0  0  0  0  0
  -24.5670  -31.8730   23.0440 C   0  0  0  0  0  0  0  0  0  0  0  0
  -27.2760  -27.3450   19.9660 C   0  0  0  0  0  0  0  0  0  0  0  0
  -23.3910  -30.4480   21.4060 C   0  0  0  0  0  3  0  0  0  0  0  0
  -24.8750  -28.9380   19.9630 C   0  0  0  0  0  0  0  0  0  0  0  0
  -25.9240  -30.8170   21.2140 C   0  0  0  0  0  2  0  0  0  0  0  0
  -26.0350  -29.4380   20.5640 C   0  0  0  0  0  0  0  0  0  0  0  0
  -27.2350  -28.6530   20.5610 C   0  0  0  0  0  3  0  0  0  0  0  0
  -26.0900  -26.9240   19.3180 C   0  0  0  0  0  3  0  0  0  0  0  0
  -24.9080  -27.6890   19.3240 C   0  0  0  0  0  3  0  0  0  0  0  0
  -23.6160  -29.7810   20.0220 C   0  0  0  0  0  2  0  0  0  0  0  0
  -24.6460  -31.0630   21.9450 N   0  0  0  0  0  0  0  0  0  0  0  0
  -23.4800  -32.1230   23.5840 O   0  0  0  0  0  0  0  0  0  0  0  0
  -22.7540  -29.4140   22.3680 C   0  0  0  0  0  0  0  0  0  0  0  0
  -21.4270  -29.2240   22.2670 N   0  0  0  0  0  0  0  0  0  0  0  0
  -23.4540  -28.7870   23.1670 O   0  0  0  0  0  0  0  0  0  0  0  0
  -20.9170  -29.7810   21.5960 H   0  0  0  0  0  0  0  0  0  0  0  0
  -18.0780  -27.9740   22.8180 C   0  0  0  0  0  0  0  0  0  0  0  0
  -20.6370  -28.2680   23.0440 C   0  0  0  0  0  3  0  0  0  0  0  0
  -20.7480  -26.8420   22.4540 C   0  0  0  0  0  2  0  0  0  0  0  0
  -19.6330  -26.5130   21.4560 C   0  0  0  0  0  2  0  0  0  0  0  0
  -18.2610  -26.6340   22.1250 C   0  0  0  0  0  2  0  0  0  0  0  0
  -19.1940  -28.7480   23.2350 C   0  0  0  0  0  0  0  0  0  0  0  0
  -18.9660  -30.0010   23.8450 C   0  0  0  0  0  3  0  0  0  0  0  0
  -17.6570  -30.4810   24.0390 C   0  0  0  0  0  3  0  0  0  0  0  0
  -16.5570  -29.7030   23.6360 C   0  0  0  0  0  3  0  0  0  0  0  0
  -16.7690  -28.4510   23.0310 C   0  0  0  0  0  3  0  0  0  0  0  0
  -25.8360  -32.5360   23.6600 C   0  0  0  0  0  3  0  0  0  0  0  0
  -26.4040  -31.7500   24.9050 C   0  0  1  0  0  0  0  0  0  0  0  0
  -25.3430  -31.4580   25.9910 C   0  0  0  0  0  1  0  0  0  0  0  0
  -27.0150  -30.3990   24.4670 C   0  0  0  0  0  1  0  0  0  0  0  0
  -27.5480  -32.5600   25.5580 C   0  0  0  0  0  1  0  0  0  0  0  0
  -25.4800  -33.9120   24.0380 N   0  0  0  0  0  0  0  0  0  0  0  0
  -25.7840  -35.0020   23.3210 C   0  0  0  0  0  0  0  0  0  0  0  0
  -26.4630  -34.9580   22.2920 O   0  0  0  0  0  0  0  0  0  0  0  0
  -24.8720  -34.0180   24.8370 H   0  0  0  0  0  0  0  0  0  0  0  0
  -24.0240  -36.7720   23.0000 C   0  0  0  0  0  1  0  0  0  0  0  0
  -25.2530  -36.3580   23.8250 C   0  0  0  0  0  3  0  0  0  0  0  0
  -27.3410  -37.2560   24.7530 C   0  0  0  0  0  1  0  0  0  0  0  0
  -26.2610  -37.4380   23.7870 N   0  0  0  0  0  0  0  0  0  0  0  0
  -25.8280  -38.3410   23.9630 H   0  0  0  0  0  0  0  0  0  0  0  0
  1  4  1  0
  1  8  2  0
  2  3  1  0
  2  7  1  0
  3 57  1  0
  3  4  1  0
  4  5  1  1
  4  6  1  0
  7  1  1  0
  9 11  1  0
 11  7  1  0
 11 10  2  0
 12  9  2  0
 12 14  1  0
 13 10  1  0
 13 24  1  0
 14 13  2  0
 15 14  1  0
 16 24  1  0
 17 22  1  0
 18 19  1  0
 18 17  1  0
 20 19  1  0
 20 29  1  0
 20 21  1  0
 22 16  1  0
 22 21  1  0
 23 16  2  0
 24 25  1  0
 26 27  2  0
 27 28  1  0
 27 46  1  0
 28 31  1  0
 29 26  1  0
 29 30  1  0
 30 28  2  0
 31 32  1  0
 32 33  2  0
 34 37  1  0
 34 33  1  0
 35 34  2  0
 36 35  1  0
 36 31  2  0
 37 38  1  0
 38 39  1  0
 39 40  2  0
 41 40  1  0
 41 45  1  0
 42 41  2  0
 43 38  2  0
 43 42  1  0
 44 43  1  0
 46 47  1  0
 47 50  1  0
 47 49  1  0
 48 46  2  0
 51 52  1  0
 51 26  1  0
 53 51  1  0
 54 12  1  0
 55 54  1  0
 56 54  1  0
 57 58  1  0
 59 70  2  0
 60 58  1  0
 60 65  1  0
 61 69  1  0
 61 71  1  0
 62 68  1  0
 62 64  1  0
 63 69  1  0
 64 63  1  0
 65 64  2  0
 66 67  1  0
 66 60  2  0
 67 62  2  0
 68 61  1  0
 69 59  1  0
 71 73  2  0
 72 71  1  0
 74 72  1  0
 75 84  2  0
 75 80  1  0
 76 72  1  0
 76 80  1  0
 77 76  1  0
 78 79  1  0
 78 77  1  0
 79 75  1  0
 80 81  2  0
 81 82  1  0
 83 82  2  0
 84 83  1  0
 85 59  1  0
 85 90  1  0
 85 86  1  0
 86 89  1  1
 86 87  1  0
 88 86  1  0
 90 93  1  0
 91 95  1  0
 91 90  1  0
 92 91  2  0
 95 94  1  0
 97 95  1  0
 97 98  1  0
 97 96  1  0
M  ISO  4  16 100  24 100  57 101  58 101
M  END
>  <TORSDO>  (56) 
F 19

>  <SCORE>  (56) 
-13.804

>  <name>  (56) 
55

>  <ligand_id>  (56) 
55

>  <original_smiles>  (56) 
[H]c1c([H])c([H])c2c(c1[H])C([H])([H])C([H])([H])C([H])([H])C2([H])N([H])C(=O)C1([H])N(C(=O)C([H])(N([H])C(=O)C([H])(N([H])C([H])([H])[H])C([H])([H])[H])C(C([H])([H])[H])(C([H])([H])[H])C([H])([H])[H])C([H])([H])c2c([H])c(OC([H])([H])C3([H])C([H])([H])N(c4c([H])c(N([H])[H])c(F)c(N([H])C(=O)N5C([H])([H])C([H])([H])C([H])([H])C([H])(n6nc(-c7c([H])c([H])c(Oc8c([H])c([H])c(F)c([H])c8F)c([H])c7[H])c(C(=O)N([H])[H])c6N([H])[H])C5([H])[H])c4[H])C(=O)C3(C([H])([H])[H])C([H])([H])[H])c([H])c([H])c2C1([H])[H]

>  <smiles>  (56) 
[H]c1c([H])c([H])c2c(c1[H])C([H])([H])C([H])([H])C([H])([H])C2([H])N([H])C(=O)C1([H])N(C(=O)C([H])(N([H])C(=O)C([H])(N([H])C([H])([H])[H])C([H])([H])[H])C(C([H])([H])[H])(C([H])([H])[H])C([H])([H])[H])C([H])([H])c2c([H])c(OC([H])([H])C3([H])C([H])([H])N(c4c([H])c(N([H])[H])c(F)c(N([H])C(=O)N5C([H])([H])C([H])([H])C([H])([H])C([H])(n6nc(-c7c([H])c([H])c(Oc8c([H])c([H])c(F)c([H])c8F)c([H])c7[H])c(C(=O)N([H])[H])c6N([H])[H])C5([H])[H])c4[H])C(=O)C3(C([H])([H])[H])C([H])([H])[H])c([H])c([H])c2C1([H])[H]

$$$$
56:0:0
     RDKit          3D

 94103  0  0  1  0  0  0  0  0999 V2000
  -29.5930  -22.5470   19.3340 C   0  0  0  0  0  0  0  0  0  0  0  0
  -29.7800  -23.7220   21.4060 C   0  0  0  0  0  3  0  0  0  0  0  0
  -29.9010  -22.1940   21.5820 C   0  0  0  0  0  3  0  0  0  0  0  0
  -29.6950  -24.0190   19.8980 C   0  0  1  0  0  0  0  0  0  0  0  0
  -31.0140  -24.6280   19.3730 C   0  0  0  0  0  1  0  0  0  0  0  0
  -29.8410  -21.5680   20.2590 N   0  0  0  0  0  0  0  0  0  0  0  0
  -29.3410  -22.3340   18.1440 O   0  0  0  0  0  0  0  0  0  0  0  0
  -30.5220  -19.4410   18.9600 C   0  0  0  0  0  3  0  0  0  0  0  0
  -30.7160  -18.0160   18.9090 C   0  0  0  0  0  3  0  0  0  0  0  0
  -29.6710  -19.2390   21.1910 C   0  0  0  0  0  3  0  0  0  0  0  0
  -29.8210  -17.8230   21.1340 C   0  0  0  0  0  0  0  0  0  0  0  0
  -29.9970  -20.1020   20.1090 C   0  0  0  0  0  0  0  0  0  0  0  0
  -30.3680  -17.1670   19.9980 C   0  0  0  0  0  0  0  0  0  0  0  0
  -29.3630  -17.0030   22.3320 C   0  0  0  0  0  1  0  0  0  0  0  0
  -31.1610  -14.7220   19.4170 C   0  0  0  0  0  0  0  0  0  0  0  0
  -30.8460  -12.4840   18.3700 C   0  0  0  0  0  2  0  0  0  0  0  0
  -29.6800  -12.5960   17.3590 C   0  0  0  0  0  2  0  0  0  0  0  0
  -28.3170  -12.3940   18.0540 C   0  0  0  0  0  2  0  0  0  0  0  0
  -28.1820  -13.2260   19.3570 C   0  0  0  0  0  3  0  0  0  0  0  0
  -29.4360  -13.0630   20.2470 C   0  0  0  0  0  2  0  0  0  0  0  0
  -30.6040  -13.4670   19.4440 N   0  0  0  0  0  0  0  0  0  0  0  0
  -32.2050  -14.9500   18.7980 O   0  0  0  0  0  0  0  0  0  0  0  0
  -30.4060  -15.6980   20.0110 N   0  0  0  0  0  0  0  0  0  0  0  0
  -29.6690  -15.2910   20.5640 H   0  0  0  0  0  0  0  0  0  0  0  0
  -26.0700  -13.7650   20.7210 C   0  0  0  0  0  0  0  0  0  0  0  0
  -25.0410  -12.9780   21.1650 C   0  0  0  0  0  0  0  0  0  0  0  0
  -25.3540  -11.6470   20.7530 C   0  0  0  0  0  0  0  0  0  0  0  0
  -26.9510  -12.9080   20.0770 N   0  0  0  0  0  0  0  0  0  0  0  0
  -26.5370  -11.6180   20.1490 N   0  0  0  0  0  0  0  0  0  0  0  0
  -24.5720  -10.4080   20.8460 C   0  0  0  0  0  0  0  0  0  0  0  0
  -24.9870   -9.3280   21.6570 C   0  0  0  0  0  3  0  0  0  0  0  0
  -24.2060   -8.1560   21.7440 C   0  0  0  0  0  3  0  0  0  0  0  0
  -22.9940   -8.0550   21.0220 C   0  0  0  0  0  0  0  0  0  0  0  0
  -22.5960   -9.1220   20.1970 C   0  0  0  0  0  3  0  0  0  0  0  0
  -23.3780  -10.2870   20.1060 C   0  0  0  0  0  3  0  0  0  0  0  0
  -22.1840   -6.9450   21.0260 O   0  0  0  0  0  0  0  0  0  0  0  0
  -21.9450   -6.2340   22.1750 C   0  0  0  0  0  0  0  0  0  0  0  0
  -21.3770   -6.8350   23.3200 C   0  0  0  0  0  3  0  0  0  0  0  0
  -21.0840   -6.0520   24.4540 C   0  0  0  0  0  3  0  0  0  0  0  0
  -21.3490   -4.6700   24.4430 C   0  0  0  0  0  0  0  0  0  0  0  0
  -21.9100   -4.0690   23.3040 C   0  0  0  0  0  3  0  0  0  0  0  0
  -22.2050   -4.8490   22.1710 C   0  0  0  0  0  0  0  0  0  0  0  0
  -22.7260   -4.2600   21.0680 F   0  0  0  0  0  0  0  0  0  0  0  0
  -21.0600   -3.9160   25.5300 F   0  0  0  0  0  0  0  0  0  0  0  0
  -23.7890  -13.4470   21.8490 C   0  0  0  0  0  0  0  0  0  0  0  0
  -23.2300  -12.6290   22.7350 N   0  0  0  0  0  0  0  0  0  0  0  0
  -23.3240  -14.5660   21.6350 O   0  0  0  0  0  0  0  0  0  0  0  0
  -23.6220  -11.7180   22.9230 H   0  0  0  0  0  0  0  0  0  0  0  0
  -22.4010  -12.9170   23.2320 H   0  0  0  0  0  0  0  0  0  0  0  0
  -26.3190  -15.1320   20.7910 N   0  0  0  0  0  0  0  0  0  0  0  0
  -25.6570  -15.7800   21.2040 H   0  0  0  0  0  0  0  0  0  0  0  0
  -27.1010  -15.5990   20.3490 H   0  0  0  0  0  0  0  0  0  0  0  0
  -28.5150  -25.0430   19.5490 C   0  0  0  0  0  2  0  0  0  0  0  0
  -28.6170  -26.4490   20.0230 O   0  0  0  0  0  0  0  0  0  0  0  0
  -24.8420  -31.6750   23.2600 C   0  0  0  0  0  0  0  0  0  0  0  0
  -27.4840  -27.2800   19.9920 C   0  0  0  0  0  0  0  0  0  0  0  0
  -23.6440  -30.3390   21.5640 C   0  0  0  0  0  3  0  0  0  0  0  0
  -25.1020  -28.8690   20.0610 C   0  0  0  0  0  0  0  0  0  0  0  0
  -26.1800  -30.6850   21.3900 C   0  0  0  0  0  2  0  0  0  0  0  0
  -26.2670  -29.3390   20.6790 C   0  0  0  0  0  0  0  0  0  0  0  0
  -27.4590  -28.5550   20.6370 C   0  0  0  0  0  3  0  0  0  0  0  0
  -26.2950  -26.8700   19.3430 C   0  0  0  0  0  3  0  0  0  0  0  0
  -25.1180  -27.6400   19.3850 C   0  0  0  0  0  3  0  0  0  0  0  0
  -23.8580  -29.7290   20.1530 C   0  0  0  0  0  2  0  0  0  0  0  0
  -24.9080  -30.9140   22.1270 N   0  0  0  0  0  0  0  0  0  0  0  0
  -23.7590  -31.9210   23.8080 O   0  0  0  0  0  0  0  0  0  0  0  0
  -22.9940  -29.2740   22.4780 C   0  0  0  0  0  0  0  0  0  0  0  0
  -21.6840  -29.0390   22.2940 N   0  0  0  0  0  0  0  0  0  0  0  0
  -23.6680  -28.6640   23.3130 O   0  0  0  0  0  0  0  0  0  0  0  0
  -21.1980  -29.5870   21.5980 H   0  0  0  0  0  0  0  0  0  0  0  0
  -18.3440  -27.6930   22.6430 C   0  0  0  0  0  0  0  0  0  0  0  0
  -20.8780  -28.0510   23.0130 C   0  0  0  0  0  3  0  0  0  0  0  0
  -21.0600  -26.6380   22.4130 C   0  0  0  0  0  2  0  0  0  0  0  0
  -20.0120  -26.2930   21.3520 C   0  0  0  0  0  2  0  0  0  0  0  0
  -18.6020  -26.3660   21.9470 C   0  0  0  0  0  2  0  0  0  0  0  0
  -19.4140  -28.4910   23.1290 C   0  0  0  0  0  0  0  0  0  0  0  0
  -19.1220  -29.7310   23.7360 C   0  0  0  0  0  3  0  0  0  0  0  0
  -17.7930  -30.1760   23.8630 C   0  0  0  0  0  3  0  0  0  0  0  0
  -16.7360  -29.3740   23.3960 C   0  0  0  0  0  3  0  0  0  0  0  0
  -17.0120  -28.1360   22.7920 C   0  0  0  0  0  3  0  0  0  0  0  0
  -26.1230  -32.2870   23.9040 C   0  0  0  0  0  3  0  0  0  0  0  0
  -25.8230  -33.6840   24.2440 N   0  0  0  0  0  0  0  0  0  0  0  0
  -26.1170  -34.7390   23.4710 C   0  0  0  0  0  0  0  0  0  0  0  0
  -26.7410  -34.6370   22.4110 O   0  0  0  0  0  0  0  0  0  0  0  0
  -25.2640  -33.8360   25.0700 H   0  0  0  0  0  0  0  0  0  0  0  0
  -24.3570  -36.5170   23.2060 C   0  0  0  0  0  1  0  0  0  0  0  0
  -25.6440  -36.1250   23.9510 C   0  0  0  0  0  3  0  0  0  0  0  0
  -27.8030  -37.0400   24.6760 C   0  0  0  0  0  1  0  0  0  0  0  0
  -26.6600  -37.1850   23.7790 N   0  0  0  0  0  0  0  0  0  0  0  0
  -26.2510  -38.1040   23.9340 H   0  0  0  0  0  0  0  0  0  0  0  0
  -26.6170  -31.5000   25.1790 C   0  0  1  0  0  0  0  0  0  0  0  0
  -25.5010  -31.2380   26.2170 C   0  0  0  0  0  1  0  0  0  0  0  0
  -27.2180  -30.1320   24.7790 C   0  0  0  0  0  1  0  0  0  0  0  0
  -27.7450  -32.2920   25.8810 C   0  0  0  0  0  1  0  0  0  0  0  0
  1  4  1  0
  1  6  1  0
  2  3  2  0
  4  5  1  6
  4  2  1  0
  6  3  1  0
  7  1  2  0
  8 12  1  0
  9  8  2  0
  9 13  1  0
 11 10  1  0
 11 14  1  0
 12  6  1  0
 12 10  2  0
 13 23  1  0
 13 11  2  0
 15 21  1  0
 15 23  1  0
 16 21  1  0
 17 18  1  0
 17 16  1  0
 19 18  1  0
 19 28  1  0
 19 20  1  0
 21 20  1  0
 22 15  2  0
 23 24  1  0
 25 50  1  0
 25 26  2  0
 26 45  1  0
 27 30  1  0
 27 26  1  0
 28 29  1  0
 28 25  1  0
 29 27  2  0
 30 31  1  0
 31 32  2  0
 33 36  1  0
 33 32  1  0
 34 33  2  0
 35 34  1  0
 35 30  2  0
 36 37  1  0
 37 38  1  0
 38 39  2  0
 40 39  1  0
 40 44  1  0
 41 40  2  0
 42 37  2  0
 42 41  1  0
 43 42  1  0
 45 46  1  0
 46 48  1  0
 46 49  1  0
 47 45  2  0
 50 51  1  0
 52 50  1  0
 53  4  1  0
 53 54  1  0
 55 66  2  0
 56 54  1  0
 56 61  1  0
 57 65  1  0
 57 67  1  0
 58 64  1  0
 58 60  1  0
 59 65  1  0
 60 59  1  0
 61 60  2  0
 62 63  1  0
 62 56  2  0
 63 58  2  0
 64 57  1  0
 65 55  1  0
 67 69  2  0
 68 67  1  0
 70 68  1  0
 71 80  2  0
 71 76  1  0
 72 68  1  0
 72 76  1  0
 73 72  1  0
 74 75  1  0
 74 73  1  0
 75 71  1  0
 76 77  2  0
 77 78  1  0
 79 78  2  0
 80 79  1  0
 81 55  1  0
 81 82  1  0
 81 91  1  0
 82 85  1  0
 83 87  1  0
 83 82  1  0
 84 83  2  0
 87 86  1  0
 89 90  1  0
 89 87  1  0
 89 88  1  0
 91 94  1  1
 91 92  1  0
 93 91  1  0
M  ISO  4  15 100  23 100  53 101  54 101
M  END
>  <TORSDO>  (57) 
F 18

>  <SCORE>  (57) 
-9.912

>  <name>  (57) 
56

>  <ligand_id>  (57) 
56

>  <original_smiles>  (57) 
[H]c1c([H])c([H])c2c(c1[H])C([H])([H])C([H])([H])C([H])([H])C2([H])N([H])C(=O)C1([H])N(C(=O)C([H])(N([H])C(=O)C([H])(N([H])C([H])([H])[H])C([H])([H])[H])C(C([H])([H])[H])(C([H])([H])[H])C([H])([H])[H])C([H])([H])c2c([H])c(OC([H])([H])C3(C([H])([H])[H])C(=O)N(c4c([H])c([H])c(N([H])C(=O)N5C([H])([H])C([H])([H])C([H])([H])C([H])(n6nc(-c7c([H])c([H])c(Oc8c([H])c([H])c(F)c([H])c8F)c([H])c7[H])c(C(=O)N([H])[H])c6N([H])[H])C5([H])[H])c(C([H])([H])[H])c4[H])C([H])([H])C3([H])[H])c([H])c([H])c2C1([H])[H]

>  <smiles>  (57) 
[H]c1c([H])c([H])c2c(c1[H])C([H])([H])C([H])([H])C([H])([H])C2([H])N([H])C(=O)C1([H])N(C(=O)C([H])(N([H])C(=O)C([H])(N([H])C([H])([H])[H])C([H])([H])[H])C(C([H])([H])[H])(C([H])([H])[H])C([H])([H])[H])C([H])([H])c2c([H])c(OC([H])([H])C3(C([H])([H])[H])C(=O)N(c4c([H])c([H])c(N([H])C(=O)N5C([H])([H])C([H])([H])C([H])([H])C([H])(n6nc(-c7c([H])c([H])c(Oc8c([H])c([H])c(F)c([H])c8F)c([H])c7[H])c(C(=O)N([H])[H])c6N([H])[H])C5([H])[H])c(C([H])([H])[H])c4[H])C([H])([H])C3([H])[H])c([H])c([H])c2C1([H])[H]

$$$$
57:0:0
     RDKit          3D

 93102  0  0  1  0  0  0  0  0999 V2000
  -28.5320  -22.2320   20.2260 C   0  0  0  0  0  0  0  0  0  0  0  0
  -30.4080  -23.6450   20.3000 C   0  0  0  0  0  2  0  0  0  0  0  0
  -30.7950  -22.1530   20.5110 C   0  0  0  0  0  2  0  0  0  0  0  0
  -28.9070  -23.7240   20.5920 C   0  0  0  0  0  3  0  0  0  0  0  0
  -29.5890  -21.3530   20.2810 N   0  0  0  0  0  0  0  0  0  0  0  0
  -27.3730  -21.9080   19.9520 O   0  0  0  0  0  0  0  0  0  0  0  0
  -29.9210  -18.5680   17.7560 C   0  0  0  0  0  3  0  0  0  0  0  0
  -30.0760  -17.3980   18.5280 C   0  0  0  0  0  3  0  0  0  0  0  0
  -29.7270  -19.8250   18.3590 C   0  0  0  0  0  3  0  0  0  0  0  0
  -29.8530  -18.7470   20.5350 C   0  0  0  0  0  3  0  0  0  0  0  0
  -30.0470  -17.4260   19.9410 C   0  0  0  0  0  0  0  0  0  0  0  0
  -29.6860  -19.9690   19.7610 C   0  0  0  0  0  0  0  0  0  0  0  0
  -30.1150  -16.0760   20.7220 C   0  0  0  0  0  0  0  0  0  0  0  0
  -29.6290  -16.0450   21.8920 N   0  0  0  0  0  0  0  0  0  0  0  0
  -29.2330  -16.9430   22.1410 H   0  0  0  0  0  0  0  0  0  0  0  0
  -30.8150  -14.7810   20.0850 C   0  0  0  0  0  0  0  0  0  0  0  0
  -30.5190  -12.5590   18.9860 C   0  0  0  0  0  2  0  0  0  0  0  0
  -29.5350  -12.7190   17.8040 C   0  0  0  0  0  2  0  0  0  0  0  0
  -28.0780  -12.5490   18.2780 C   0  0  0  0  0  2  0  0  0  0  0  0
  -27.7730  -13.3730   19.5570 C   0  0  0  0  0  3  0  0  0  0  0  0
  -28.8730  -13.1790   20.6220 C   0  0  0  0  0  2  0  0  0  0  0  0
  -30.1600  -13.5630   20.0200 N   0  0  0  0  0  0  0  0  0  0  0  0
  -31.9360  -14.9000   19.5760 O   0  0  0  0  0  0  0  0  0  0  0  0
  -25.4120  -13.9640   20.3710 C   0  0  0  0  0  0  0  0  0  0  0  0
  -24.3580  -13.1890   20.7730 C   0  0  0  0  0  0  0  0  0  0  0  0
  -24.8160  -11.8380   20.7100 C   0  0  0  0  0  0  0  0  0  0  0  0
  -26.4450  -13.0850   20.0880 N   0  0  0  0  0  0  0  0  0  0  0  0
  -26.0940  -11.8000   20.3520 N   0  0  0  0  0  0  0  0  0  0  0  0
  -24.0940  -10.5750   20.9140 C   0  0  0  0  0  0  0  0  0  0  0  0
  -24.5320   -9.6160   21.8540 C   0  0  0  0  0  3  0  0  0  0  0  0
  -23.8090   -8.4190   22.0450 C   0  0  0  0  0  3  0  0  0  0  0  0
  -22.6330   -8.1720   21.2980 C   0  0  0  0  0  0  0  0  0  0  0  0
  -22.2140   -9.1190   20.3480 C   0  0  0  0  0  3  0  0  0  0  0  0
  -22.9380  -10.3070   20.1550 C   0  0  0  0  0  3  0  0  0  0  0  0
  -21.8820   -7.0250   21.3980 O   0  0  0  0  0  0  0  0  0  0  0  0
  -21.7980   -6.3210   22.5720 C   0  0  0  0  0  0  0  0  0  0  0  0
  -21.3300   -6.9130   23.7660 C   0  0  0  0  0  3  0  0  0  0  0  0
  -21.1950   -6.1340   24.9320 C   0  0  0  0  0  3  0  0  0  0  0  0
  -21.5150   -4.7640   24.9060 C   0  0  0  0  0  0  0  0  0  0  0  0
  -21.9760   -4.1710   23.7170 C   0  0  0  0  0  3  0  0  0  0  0  0
  -22.1130   -4.9470   22.5530 C   0  0  0  0  0  0  0  0  0  0  0  0
  -22.5380   -4.3660   21.4050 F   0  0  0  0  0  0  0  0  0  0  0  0
  -21.3770   -4.0140   26.0230 F   0  0  0  0  0  0  0  0  0  0  0  0
  -22.9730  -13.6660   21.1040 C   0  0  0  0  0  0  0  0  0  0  0  0
  -22.2800  -12.9670   21.9960 N   0  0  0  0  0  0  0  0  0  0  0  0
  -22.5160  -14.6940   20.6050 O   0  0  0  0  0  0  0  0  0  0  0  0
  -22.6660  -12.1370   22.4210 H   0  0  0  0  0  0  0  0  0  0  0  0
  -21.3530  -13.2690   22.2600 H   0  0  0  0  0  0  0  0  0  0  0  0
  -25.5710  -15.3370   20.2020 N   0  0  0  0  0  0  0  0  0  0  0  0
  -24.8090  -15.9900   20.3460 H   0  0  0  0  0  0  0  0  0  0  0  0
  -26.4170  -15.7800   19.8680 H   0  0  0  0  0  0  0  0  0  0  0  0
  -28.0610  -24.9390   19.9420 C   0  0  0  0  0  2  0  0  0  0  0  0
  -28.2720  -26.3940   20.2670 O   0  0  0  0  0  0  0  0  0  0  0  0
  -24.6210  -31.9210   23.2220 C   0  0  0  0  0  0  0  0  0  0  0  0
  -27.1810  -27.2950   20.1800 C   0  0  0  0  0  0  0  0  0  0  0  0
  -23.4000  -30.5190   21.6000 C   0  0  0  0  0  3  0  0  0  0  0  0
  -24.8340  -28.9540   20.1700 C   0  0  0  0  0  0  0  0  0  0  0  0
  -25.9440  -30.8110   21.4040 C   0  0  0  0  0  2  0  0  0  0  0  0
  -26.0110  -29.4250   20.7650 C   0  0  0  0  0  0  0  0  0  0  0  0
  -27.1860  -28.6070   20.7650 C   0  0  0  0  0  3  0  0  0  0  0  0
  -25.9850  -26.9050   19.5300 C   0  0  0  0  0  3  0  0  0  0  0  0
  -24.8260  -27.7010   19.5430 C   0  0  0  0  0  3  0  0  0  0  0  0
  -23.6040  -29.8370   20.2220 C   0  0  0  0  0  2  0  0  0  0  0  0
  -24.6750  -31.1020   22.1310 N   0  0  0  0  0  0  0  0  0  0  0  0
  -23.5420  -32.2080   23.7600 O   0  0  0  0  0  0  0  0  0  0  0  0
  -22.7390  -29.5110   22.5700 C   0  0  0  0  0  0  0  0  0  0  0  0
  -21.4120  -29.3280   22.4440 N   0  0  0  0  0  0  0  0  0  0  0  0
  -23.4170  -28.8970   23.3980 O   0  0  0  0  0  0  0  0  0  0  0  0
  -20.9230  -29.8760   21.7500 H   0  0  0  0  0  0  0  0  0  0  0  0
  -18.0400  -28.1150   22.9450 C   0  0  0  0  0  0  0  0  0  0  0  0
  -20.5960  -28.3980   23.2250 C   0  0  0  0  0  3  0  0  0  0  0  0
  -20.7110  -26.9570   22.6760 C   0  0  0  0  0  2  0  0  0  0  0  0
  -19.6190  -26.6080   21.6610 C   0  0  0  0  0  2  0  0  0  0  0  0
  -18.2320  -26.7550   22.2930 C   0  0  0  0  0  2  0  0  0  0  0  0
  -19.1500  -28.8920   23.3680 C   0  0  0  0  0  0  0  0  0  0  0  0
  -18.9190  -30.1630   23.9390 C   0  0  0  0  0  3  0  0  0  0  0  0
  -17.6090  -30.6570   24.0870 C   0  0  0  0  0  3  0  0  0  0  0  0
  -16.5130  -29.8770   23.6790 C   0  0  0  0  0  3  0  0  0  0  0  0
  -16.7300  -28.6070   23.1140 C   0  0  0  0  0  3  0  0  0  0  0  0
  -25.9100  -32.5530   23.8300 C   0  0  0  0  0  3  0  0  0  0  0  0
  -26.4400  -31.7810   25.1010 C   0  0  1  0  0  0  0  0  0  0  0  0
  -25.3570  -31.5420   26.1790 C   0  0  0  0  0  1  0  0  0  0  0  0
  -27.0190  -30.4040   24.7030 C   0  0  0  0  0  1  0  0  0  0  0  0
  -27.5950  -32.5750   25.7520 C   0  0  0  0  0  1  0  0  0  0  0  0
  -25.6030  -33.9520   24.1670 N   0  0  0  0  0  0  0  0  0  0  0  0
  -25.9250  -35.0080   23.4090 C   0  0  0  0  0  0  0  0  0  0  0  0
  -26.5840  -34.9070   22.3700 O   0  0  0  0  0  0  0  0  0  0  0  0
  -25.0170  -34.1030   24.9750 H   0  0  0  0  0  0  0  0  0  0  0  0
  -24.1970  -36.8060   23.0780 C   0  0  0  0  0  1  0  0  0  0  0  0
  -25.4450  -36.3950   23.8780 C   0  0  0  0  0  3  0  0  0  0  0  0
  -27.5860  -37.2750   24.6960 C   0  0  0  0  0  1  0  0  0  0  0  0
  -26.4770  -37.4470   23.7610 N   0  0  0  0  0  0  0  0  0  0  0  0
  -26.0740  -38.3670   23.9140 H   0  0  0  0  0  0  0  0  0  0  0  0
  1  5  1  0
  1  4  1  0
  2  3  1  0
  2  4  1  0
  4 52  1  0
  5  3  1  0
  6  1  2  0
  7  9  2  0
  7  8  1  0
  8 11  2  0
  9 12  1  0
 11 10  1  0
 11 13  1  0
 12  5  1  0
 12 10  2  0
 13 14  2  0
 14 15  1  0
 16 13  1  0
 17 22  1  0
 18 19  1  0
 18 17  1  0
 20 19  1  0
 20 27  1  0
 20 21  1  0
 22 16  1  0
 22 21  1  0
 23 16  2  0
 24 25  2  0
 25 44  1  0
 26 25  1  0
 26 29  1  0
 27 28  1  0
 27 24  1  0
 28 26  2  0
 29 30  1  0
 30 31  2  0
 32 35  1  0
 32 31  1  0
 33 32  2  0
 34 33  1  0
 34 29  2  0
 35 36  1  0
 36 37  1  0
 37 38  2  0
 39 38  1  0
 39 43  1  0
 40 39  2  0
 41 36  2  0
 41 40  1  0
 42 41  1  0
 44 45  1  0
 45 48  1  0
 45 47  1  0
 46 44  2  0
 49 50  1  0
 49 24  1  0
 51 49  1  0
 52 53  1  0
 54 65  2  0
 55 53  1  0
 55 60  1  0
 56 64  1  0
 56 66  1  0
 57 63  1  0
 57 59  1  0
 58 64  1  0
 59 60  2  0
 59 58  1  0
 61 62  1  0
 61 55  2  0
 62 57  2  0
 63 56  1  0
 64 54  1  0
 66 68  2  0
 67 66  1  0
 69 67  1  0
 70 79  2  0
 70 75  1  0
 71 67  1  0
 71 75  1  0
 72 71  1  0
 73 74  1  0
 73 72  1  0
 74 70  1  0
 75 76  2  0
 76 77  1  0
 78 77  2  0
 79 78  1  0
 80 54  1  0
 80 85  1  0
 80 81  1  0
 81 84  1  1
 81 82  1  0
 83 81  1  0
 85 88  1  0
 86 90  1  0
 86 85  1  0
 87 86  2  0
 90 89  1  0
 92 90  1  0
 92 93  1  0
 92 91  1  0
M  ISO  4  13 100  16 100  52 101  53 101
M  END
>  <TORSDO>  (58) 
F 19

>  <SCORE>  (58) 
-14.289

>  <name>  (58) 
57

>  <ligand_id>  (58) 
57

>  <original_smiles>  (58) 
[H]N=C(C(=O)N1C([H])([H])C([H])([H])C([H])([H])C([H])(n2nc(-c3c([H])c([H])c(Oc4c([H])c([H])c(F)c([H])c4F)c([H])c3[H])c(C(=O)N([H])[H])c2N([H])[H])C1([H])[H])c1c([H])c([H])c([H])c(N2C(=O)C([H])(C([H])([H])Oc3c([H])c([H])c4c(c3[H])C([H])([H])N(C(=O)C([H])(N([H])C(=O)C([H])(N([H])C([H])([H])[H])C([H])([H])[H])C(C([H])([H])[H])(C([H])([H])[H])C([H])([H])[H])C([H])(C(=O)N([H])C3([H])c5c([H])c([H])c([H])c([H])c5C([H])([H])C([H])([H])C3([H])[H])C4([H])[H])C([H])([H])C2([H])[H])c1[H]

>  <smiles>  (58) 
[H]N=C(C(=O)N1C([H])([H])C([H])([H])C([H])([H])C([H])(n2nc(-c3c([H])c([H])c(Oc4c([H])c([H])c(F)c([H])c4F)c([H])c3[H])c(C(=O)N([H])[H])c2N([H])[H])C1([H])[H])c1c([H])c([H])c([H])c(N2C(=O)C([H])(C([H])([H])Oc3c([H])c([H])c4c(c3[H])C([H])([H])N(C(=O)C([H])(N([H])C(=O)C([H])(N([H])C([H])([H])[H])C([H])([H])[H])C(C([H])([H])[H])(C([H])([H])[H])C([H])([H])[H])C([H])(C(=O)N([H])C3([H])c5c([H])c([H])c([H])c([H])c5C([H])([H])C([H])([H])C3([H])[H])C4([H])[H])C([H])([H])C2([H])[H])c1[H]

$$$$
58:0:0
     RDKit          3D

 94103  0  0  1  0  0  0  0  0999 V2000
  -28.4910  -21.5740   19.9890 C   0  0  0  0  0  0  0  0  0  0  0  0
  -29.3710  -22.4810   22.0030 C   0  0  0  0  0  2  0  0  0  0  0  0
  -29.5900  -20.9550   21.9190 C   0  0  0  0  0  2  0  0  0  0  0  0
  -28.3670  -22.8110   20.8890 C   0  0  0  0  0  3  0  0  0  0  0  0
  -29.2210  -20.5840   20.5580 N   0  0  0  0  0  0  0  0  0  0  0  0
  -27.9390  -21.5230   18.8850 O   0  0  0  0  0  0  0  0  0  0  0  0
  -30.6050  -18.3130   17.9070 C   0  0  0  0  0  3  0  0  0  0  0  0
  -30.1580  -19.4550   18.5870 C   0  0  0  0  0  3  0  0  0  0  0  0
  -30.5840  -17.0610   18.5420 C   0  0  0  0  0  3  0  0  0  0  0  0
  -29.6660  -19.3700   19.9130 C   0  0  0  0  0  0  0  0  0  0  0  0
  -30.1290  -16.9250   19.8770 C   0  0  0  0  0  0  0  0  0  0  0  0
  -29.6620  -18.0920   20.5540 C   0  0  0  0  0  0  0  0  0  0  0  0
  -29.1970  -17.9700   21.8210 F   0  0  0  0  0  0  0  0  0  0  0  0
  -30.7860  -14.5380   20.1200 C   0  0  0  0  0  0  0  0  0  0  0  0
  -30.4270  -12.3800   19.0030 C   0  0  0  0  0  2  0  0  0  0  0  0
  -29.4490  -12.6320   17.8340 C   0  0  0  0  0  2  0  0  0  0  0  0
  -27.9910  -12.4920   18.3150 C   0  0  0  0  0  2  0  0  0  0  0  0
  -27.7070  -13.2990   19.6110 C   0  0  0  0  0  3  0  0  0  0  0  0
  -28.8060  -13.0680   20.6750 C   0  0  0  0  0  2  0  0  0  0  0  0
  -30.1070  -13.3590   20.0570 N   0  0  0  0  0  0  0  0  0  0  0  0
  -31.9330  -14.6610   19.6840 O   0  0  0  0  0  0  0  0  0  0  0  0
  -30.0720  -15.6250   20.5000 N   0  0  0  0  0  0  0  0  0  0  0  0
  -29.2750  -15.4570   21.0940 H   0  0  0  0  0  0  0  0  0  0  0  0
  -25.3420  -13.8980   20.4210 C   0  0  0  0  0  0  0  0  0  0  0  0
  -24.2880  -13.1230   20.8240 C   0  0  0  0  0  0  0  0  0  0  0  0
  -24.7430  -11.7700   20.7550 C   0  0  0  0  0  0  0  0  0  0  0  0
  -26.3750  -13.0180   20.1380 N   0  0  0  0  0  0  0  0  0  0  0  0
  -26.0210  -11.7330   20.3960 N   0  0  0  0  0  0  0  0  0  0  0  0
  -24.0200  -10.5070   20.9570 C   0  0  0  0  0  0  0  0  0  0  0  0
  -24.4660   -9.5400   21.8830 C   0  0  0  0  0  3  0  0  0  0  0  0
  -23.7440   -8.3430   22.0720 C   0  0  0  0  0  3  0  0  0  0  0  0
  -22.5600   -8.1030   21.3350 C   0  0  0  0  0  0  0  0  0  0  0  0
  -22.1320   -9.0590   20.3970 C   0  0  0  0  0  3  0  0  0  0  0  0
  -22.8560  -10.2470   20.2050 C   0  0  0  0  0  3  0  0  0  0  0  0
  -21.8080   -6.9570   21.4340 O   0  0  0  0  0  0  0  0  0  0  0  0
  -21.7480   -6.2340   22.5990 C   0  0  0  0  0  0  0  0  0  0  0  0
  -21.2980   -6.8050   23.8100 C   0  0  0  0  0  3  0  0  0  0  0  0
  -21.1880   -6.0060   24.9670 C   0  0  0  0  0  3  0  0  0  0  0  0
  -21.5160   -4.6370   24.9130 C   0  0  0  0  0  0  0  0  0  0  0  0
  -21.9570   -4.0660   23.7050 C   0  0  0  0  0  3  0  0  0  0  0  0
  -22.0720   -4.8620   22.5520 C   0  0  0  0  0  0  0  0  0  0  0  0
  -22.4770   -4.3010   21.3870 F   0  0  0  0  0  0  0  0  0  0  0  0
  -21.4020   -3.8680   26.0190 F   0  0  0  0  0  0  0  0  0  0  0  0
  -22.9050  -13.6000   21.1600 C   0  0  0  0  0  0  0  0  0  0  0  0
  -22.2110  -12.8930   22.0450 N   0  0  0  0  0  0  0  0  0  0  0  0
  -22.4500  -14.6350   20.6750 O   0  0  0  0  0  0  0  0  0  0  0  0
  -22.5920  -12.0550   22.4590 H   0  0  0  0  0  0  0  0  0  0  0  0
  -21.2840  -13.1940   22.3130 H   0  0  0  0  0  0  0  0  0  0  0  0
  -25.5050  -15.2690   20.2540 N   0  0  0  0  0  0  0  0  0  0  0  0
  -24.7420  -15.9240   20.3800 H   0  0  0  0  0  0  0  0  0  0  0  0
  -26.3470  -15.7030   19.8960 H   0  0  0  0  0  0  0  0  0  0  0  0
  -28.5770  -24.1660   20.1310 C   0  0  0  0  0  2  0  0  0  0  0  0
  -28.2840  -25.4450   20.9540 C   0  0  0  0  0  2  0  0  0  0  0  0
  -28.4000  -26.6650   20.1880 O   0  0  0  0  0  0  0  0  0  0  0  0
  -24.6240  -31.8890   23.2180 C   0  0  0  0  0  0  0  0  0  0  0  0
  -27.2530  -27.4310   20.1540 C   0  0  0  0  0  0  0  0  0  0  0  0
  -23.4110  -30.4770   21.5870 C   0  0  0  0  0  3  0  0  0  0  0  0
  -24.8600  -28.9370   20.1570 C   0  0  0  0  0  0  0  0  0  0  0  0
  -25.9340  -30.8410   21.3710 C   0  0  0  0  0  2  0  0  0  0  0  0
  -26.0200  -29.4680   20.7350 C   0  0  0  0  0  0  0  0  0  0  0  0
  -27.2240  -28.7260   20.7250 C   0  0  0  0  0  3  0  0  0  0  0  0
  -26.0810  -26.9160   19.5650 C   0  0  0  0  0  3  0  0  0  0  0  0
  -24.8860  -27.6620   19.5660 C   0  0  0  0  0  3  0  0  0  0  0  0
  -23.6130  -29.7920   20.2080 C   0  0  0  0  0  2  0  0  0  0  0  0
  -24.6750  -31.0860   22.1160 N   0  0  0  0  0  0  0  0  0  0  0  0
  -23.5450  -32.1600   23.7660 O   0  0  0  0  0  0  0  0  0  0  0  0
  -22.7680  -29.4590   22.5570 C   0  0  0  0  0  0  0  0  0  0  0  0
  -21.4420  -29.2770   22.4410 N   0  0  0  0  0  0  0  0  0  0  0  0
  -23.4590  -28.8350   23.3670 O   0  0  0  0  0  0  0  0  0  0  0  0
  -20.9480  -29.8320   21.7570 H   0  0  0  0  0  0  0  0  0  0  0  0
  -18.0730  -28.0790   22.9650 C   0  0  0  0  0  0  0  0  0  0  0  0
  -20.6320  -28.3410   23.2210 C   0  0  0  0  0  3  0  0  0  0  0  0
  -20.7310  -26.9080   22.6490 C   0  0  0  0  0  2  0  0  0  0  0  0
  -19.6260  -26.5810   21.6420 C   0  0  0  0  0  2  0  0  0  0  0  0
  -18.2460  -26.7280   22.2910 C   0  0  0  0  0  2  0  0  0  0  0  0
  -19.1920  -28.8440   23.3850 C   0  0  0  0  0  0  0  0  0  0  0  0
  -18.9770  -30.1090   23.9720 C   0  0  0  0  0  3  0  0  0  0  0  0
  -17.6730  -30.6100   24.1450 C   0  0  0  0  0  3  0  0  0  0  0  0
  -16.5670  -29.8410   23.7440 C   0  0  0  0  0  3  0  0  0  0  0  0
  -16.7670  -28.5790   23.1580 C   0  0  0  0  0  3  0  0  0  0  0  0
  -25.9130  -32.5240   23.8280 C   0  0  0  0  0  3  0  0  0  0  0  0
  -26.4500  -31.7490   25.0940 C   0  0  1  0  0  0  0  0  0  0  0  0
  -25.3730  -31.5020   26.1760 C   0  0  0  0  0  1  0  0  0  0  0  0
  -27.0330  -30.3750   24.6870 C   0  0  0  0  0  1  0  0  0  0  0  0
  -27.6070  -32.5450   25.7440 C   0  0  0  0  0  1  0  0  0  0  0  0
  -25.6030  -33.9190   24.1670 N   0  0  0  0  0  0  0  0  0  0  0  0
  -25.9210  -34.9770   23.4060 C   0  0  0  0  0  0  0  0  0  0  0  0
  -26.5820  -34.8810   22.3680 O   0  0  0  0  0  0  0  0  0  0  0  0
  -25.0180  -34.0680   24.9760 H   0  0  0  0  0  0  0  0  0  0  0  0
  -24.1830  -36.7610   23.0610 C   0  0  0  0  0  1  0  0  0  0  0  0
  -25.4260  -36.3590   23.8710 C   0  0  0  0  0  3  0  0  0  0  0  0
  -27.5660  -37.2400   24.6930 C   0  0  0  0  0  1  0  0  0  0  0  0
  -26.4490  -37.4230   23.7690 N   0  0  0  0  0  0  0  0  0  0  0  0
  -26.0370  -38.3340   23.9470 H   0  0  0  0  0  0  0  0  0  0  0  0
  1  5  1  0
  1  4  1  0
  3  2  1  0
  4 52  1  0
  4  2  1  0
  5  3  1  0
  6  1  2  0
  7  9  2  0
  7  8  1  0
  8 10  2  0
  9 11  1  0
 10 12  1  0
 10  5  1  0
 11 22  1  0
 11 12  2  0
 12 13  1  0
 14 22  1  0
 15 20  1  0
 16 17  1  0
 16 15  1  0
 18 17  1  0
 18 27  1  0
 18 19  1  0
 20 14  1  0
 20 19  1  0
 21 14  2  0
 22 23  1  0
 24 25  2  0
 25 44  1  0
 26 25  1  0
 26 29  1  0
 27 28  1  0
 27 24  1  0
 28 26  2  0
 29 30  1  0
 30 31  2  0
 32 35  1  0
 32 31  1  0
 33 32  2  0
 34 33  1  0
 34 29  2  0
 35 36  1  0
 36 37  1  0
 37 38  2  0
 39 38  1  0
 39 43  1  0
 40 39  2  0
 41 36  2  0
 41 40  1  0
 42 41  1  0
 44 45  1  0
 45 48  1  0
 45 47  1  0
 46 44  2  0
 49 50  1  0
 49 24  1  0
 51 49  1  0
 52 53  1  0
 54 53  1  0
 55 66  2  0
 56 54  1  0
 56 61  1  0
 57 65  1  0
 57 67  1  0
 58 64  1  0
 58 60  1  0
 59 65  1  0
 60 59  1  0
 61 60  2  0
 62 63  1  0
 62 56  2  0
 63 58  2  0
 64 57  1  0
 65 55  1  0
 67 69  2  0
 68 67  1  0
 70 68  1  0
 71 80  2  0
 71 76  1  0
 72 68  1  0
 72 76  1  0
 73 72  1  0
 74 75  1  0
 74 73  1  0
 75 71  1  0
 76 77  2  0
 77 78  1  0
 79 78  2  0
 80 79  1  0
 81 55  1  0
 81 86  1  0
 81 82  1  0
 82 85  1  1
 82 83  1  0
 84 82  1  0
 86 89  1  0
 87 91  1  0
 87 86  1  0
 88 87  2  0
 91 90  1  0
 93 91  1  0
 93 94  1  0
 93 92  1  0
M  ISO  4  14 100  22 100  53 101  54 101
M  END
>  <TORSDO>  (59) 
F 19

>  <SCORE>  (59) 
-14.139

>  <name>  (59) 
58

>  <ligand_id>  (59) 
58

>  <original_smiles>  (59) 
[H]c1c([H])c(N([H])C(=O)N2C([H])([H])C([H])([H])C([H])([H])C([H])(n3nc(-c4c([H])c([H])c(Oc5c([H])c([H])c(F)c([H])c5F)c([H])c4[H])c(C(=O)N([H])[H])c3N([H])[H])C2([H])[H])c(F)c(N2C(=O)C([H])(C([H])([H])C([H])([H])Oc3c([H])c([H])c4c(c3[H])C([H])([H])N(C(=O)C([H])(N([H])C(=O)C([H])(N([H])C([H])([H])[H])C([H])([H])[H])C(C([H])([H])[H])(C([H])([H])[H])C([H])([H])[H])C([H])(C(=O)N([H])C3([H])c5c([H])c([H])c([H])c([H])c5C([H])([H])C([H])([H])C3([H])[H])C4([H])[H])C([H])([H])C2([H])[H])c1[H]

>  <smiles>  (59) 
[H]c1c([H])c(N([H])C(=O)N2C([H])([H])C([H])([H])C([H])([H])C([H])(n3nc(-c4c([H])c([H])c(Oc5c([H])c([H])c(F)c([H])c5F)c([H])c4[H])c(C(=O)N([H])[H])c3N([H])[H])C2([H])[H])c(F)c(N2C(=O)C([H])(C([H])([H])C([H])([H])Oc3c([H])c([H])c4c(c3[H])C([H])([H])N(C(=O)C([H])(N([H])C(=O)C([H])(N([H])C([H])([H])[H])C([H])([H])[H])C(C([H])([H])[H])(C([H])([H])[H])C([H])([H])[H])C([H])(C(=O)N([H])C3([H])c5c([H])c([H])c([H])c([H])c5C([H])([H])C([H])([H])C3([H])[H])C4([H])[H])C([H])([H])C2([H])[H])c1[H]

$$$$
59:0:0
     RDKit          3D

 98107  0  0  1  0  0  0  0  0999 V2000
  -31.3200  -19.6600   18.5080 C   0  0  0  0  0  3  0  0  0  0  0  0
  -31.5340  -18.3340   18.9970 C   0  0  0  0  0  3  0  0  0  0  0  0
  -30.0440  -20.3020   18.4920 C   0  0  0  0  0  0  0  0  0  0  0  0
  -30.4680  -17.5540   19.5150 C   0  0  0  0  0  0  0  0  0  0  0  0
  -28.9780  -19.5100   19.0230 C   0  0  0  0  0  0  0  0  0  0  0  0
  -29.1940  -18.1800   19.5200 C   0  0  0  0  0  0  0  0  0  0  0  0
  -28.1590  -17.4830   20.0530 F   0  0  0  0  0  0  0  0  0  0  0  0
  -31.3600  -15.1080   19.6480 C   0  0  0  0  0  0  0  0  0  0  0  0
  -31.2570  -12.6960   19.0430 C   0  0  0  0  0  2  0  0  0  0  0  0
  -30.2660  -12.5380   17.8670 C   0  0  0  0  0  2  0  0  0  0  0  0
  -28.8200  -12.3900   18.3800 C   0  0  0  0  0  2  0  0  0  0  0  0
  -28.4540  -13.4570   19.4470 C   0  0  0  0  0  3  0  0  0  0  0  0
  -29.5540  -13.5650   20.5270 C   0  0  0  0  0  2  0  0  0  0  0  0
  -30.8260  -13.8600   19.8460 N   0  0  0  0  0  0  0  0  0  0  0  0
  -32.4670  -15.2550   19.1200 O   0  0  0  0  0  0  0  0  0  0  0  0
  -30.5550  -16.1650   19.9760 N   0  0  0  0  0  0  0  0  0  0  0  0
  -29.7920  -15.9050   20.5830 H   0  0  0  0  0  0  0  0  0  0  0  0
  -26.1720  -14.1220   20.4260 C   0  0  0  0  0  0  0  0  0  0  0  0
  -25.0980  -13.3790   20.8330 C   0  0  0  0  0  0  0  0  0  0  0  0
  -25.4720  -12.0120   20.6520 C   0  0  0  0  0  0  0  0  0  0  0  0
  -27.1370  -13.2090   20.0280 N   0  0  0  0  0  0  0  0  0  0  0  0
  -26.7260  -11.9290   20.2230 N   0  0  0  0  0  0  0  0  0  0  0  0
  -24.6910  -10.7780   20.8110 C   0  0  0  0  0  0  0  0  0  0  0  0
  -25.0700   -9.7770   21.7320 C   0  0  0  0  0  3  0  0  0  0  0  0
  -24.2930   -8.6080   21.8790 C   0  0  0  0  0  3  0  0  0  0  0  0
  -23.1200   -8.4330   21.1060 C   0  0  0  0  0  0  0  0  0  0  0  0
  -22.7600   -9.4230   20.1750 C   0  0  0  0  0  3  0  0  0  0  0  0
  -23.5380  -10.5830   20.0250 C   0  0  0  0  0  3  0  0  0  0  0  0
  -22.3180   -7.3200   21.1640 O   0  0  0  0  0  0  0  0  0  0  0  0
  -22.0980   -6.6510   22.3410 C   0  0  0  0  0  0  0  0  0  0  0  0
  -21.5360   -7.2890   23.4680 C   0  0  0  0  0  3  0  0  0  0  0  0
  -21.2640   -6.5470   24.6350 C   0  0  0  0  0  3  0  0  0  0  0  0
  -21.5430   -5.1690   24.6740 C   0  0  0  0  0  0  0  0  0  0  0  0
  -22.0980   -4.5300   23.5510 C   0  0  0  0  0  3  0  0  0  0  0  0
  -22.3720   -5.2680   22.3870 C   0  0  0  0  0  0  0  0  0  0  0  0
  -22.8860   -4.6440   21.3010 F   0  0  0  0  0  0  0  0  0  0  0  0
  -21.2740   -4.4540   25.7910 F   0  0  0  0  0  0  0  0  0  0  0  0
  -23.7620  -13.9040   21.2730 C   0  0  0  0  0  0  0  0  0  0  0  0
  -23.0970  -13.2040   22.1850 N   0  0  0  0  0  0  0  0  0  0  0  0
  -23.3210  -14.9690   20.8420 O   0  0  0  0  0  0  0  0  0  0  0  0
  -23.4680  -12.3400   22.5530 H   0  0  0  0  0  0  0  0  0  0  0  0
  -22.2040  -13.5370   22.5210 H   0  0  0  0  0  0  0  0  0  0  0  0
  -26.4030  -15.4900   20.3420 N   0  0  0  0  0  0  0  0  0  0  0  0
  -25.7030  -16.1760   20.6040 H   0  0  0  0  0  0  0  0  0  0  0  0
  -27.2580  -15.9130   20.0020 H   0  0  0  0  0  0  0  0  0  0  0  0
  -30.4450  -23.6850   16.7940 C   0  0  0  0  0  2  0  0  0  0  0  0
  -30.6820  -22.1560   16.8540 C   0  0  0  0  0  2  0  0  0  0  0  0
  -28.9260  -22.7210   18.3480 C   0  0  0  0  0  2  0  0  0  0  0  0
  -29.0030  -23.8810   17.2780 C   0  0  0  0  0  3  0  0  0  0  0  0
  -29.8960  -21.6540   17.9790 N   0  0  0  0  0  0  0  0  0  0  0  0
  -28.5970  -25.3510   17.7510 C   0  0  0  0  0  2  0  0  0  0  0  0
  -27.8660  -26.2730   16.8570 O   0  0  0  0  0  0  0  0  0  0  0  0
  -25.5370  -30.0590   22.5470 C   0  0  0  0  0  0  0  0  0  0  0  0
  -26.8910  -27.0920   17.4340 C   0  0  0  0  0  0  0  0  0  0  0  0
  -23.8730  -29.5690   20.7860 C   0  0  0  0  0  3  0  0  0  0  0  0
  -24.8130  -28.6780   18.5800 C   0  0  0  0  0  0  0  0  0  0  0  0
  -26.3590  -29.7870   20.1980 C   0  0  0  0  0  2  0  0  0  0  0  0
  -26.1260  -28.8080   19.0530 C   0  0  0  0  0  0  0  0  0  0  0  0
  -27.1700  -28.0330   18.4710 C   0  0  0  0  0  3  0  0  0  0  0  0
  -25.5620  -27.0080   16.9690 C   0  0  0  0  0  3  0  0  0  0  0  0
  -24.5310  -27.7860   17.5320 C   0  0  0  0  0  3  0  0  0  0  0  0
  -23.7440  -29.5240   19.2390 C   0  0  0  0  0  2  0  0  0  0  0  0
  -25.2880  -29.7940   21.2310 N   0  0  0  0  0  0  0  0  0  0  0  0
  -24.6150  -30.1470   23.3720 O   0  0  0  0  0  0  0  0  0  0  0  0
  -23.2430  -28.2850   21.3760 C   0  0  0  0  0  0  0  0  0  0  0  0
  -21.9040  -28.1840   21.3100 N   0  0  0  0  0  0  0  0  0  0  0  0
  -23.9540  -27.3970   21.8550 O   0  0  0  0  0  0  0  0  0  0  0  0
  -21.3900  -28.9590   20.9140 H   0  0  0  0  0  0  0  0  0  0  0  0
  -18.5430  -26.8610   21.4730 C   0  0  0  0  0  0  0  0  0  0  0  0
  -21.1050  -27.0450   21.7640 C   0  0  0  0  0  3  0  0  0  0  0  0
  -21.1990  -25.8660   20.7680 C   0  0  0  0  0  2  0  0  0  0  0  0
  -20.0780  -25.8670   19.7230 C   0  0  0  0  0  2  0  0  0  0  0  0
  -18.7100  -25.7920   20.4060 C   0  0  0  0  0  2  0  0  0  0  0  0
  -19.6680  -27.4590   22.0990 C   0  0  0  0  0  0  0  0  0  0  0  0
  -19.4560  -28.4720   23.0590 C   0  0  0  0  0  3  0  0  0  0  0  0
  -18.1550  -28.8850   23.3970 C   0  0  0  0  0  3  0  0  0  0  0  0
  -17.0430  -28.2790   22.7860 C   0  0  0  0  0  3  0  0  0  0  0  0
  -17.2390  -27.2660   21.8290 C   0  0  0  0  0  3  0  0  0  0  0  0
  -26.9870  -30.2820   23.0740 C   0  0  0  0  0  3  0  0  0  0  0  0
  -27.6880  -28.9510   23.5510 C   0  0  1  0  0  0  0  0  0  0  0  0
  -26.8490  -28.1320   24.5590 C   0  0  0  0  0  1  0  0  0  0  0  0
  -28.0000  -28.0370   22.3430 C   0  0  0  0  0  1  0  0  0  0  0  0
  -29.0450  -29.2820   24.2160 C   0  0  0  0  0  1  0  0  0  0  0  0
  -26.9160  -31.2500   24.1780 N   0  0  0  0  0  0  0  0  0  0  0  0
  -27.4150  -32.4930   24.1340 C   0  0  0  0  0  0  0  0  0  0  0  0
  -28.0520  -32.9240   23.1710 O   0  0  0  0  0  0  0  0  0  0  0  0
  -26.3610  -30.9840   24.9790 H   0  0  0  0  0  0  0  0  0  0  0  0
  -26.1020  -34.4550   25.0030 C   0  0  0  0  0  1  0  0  0  0  0  0
  -27.1660  -33.4030   25.3540 C   0  0  0  0  0  3  0  0  0  0  0  0
  -29.3420  -33.1600   26.4650 C   0  0  0  0  0  1  0  0  0  0  0  0
  -28.3880  -34.0760   25.8450 N   0  0  0  0  0  0  0  0  0  0  0  0
  -28.1560  -34.7970   26.5220 H   0  0  0  0  0  0  0  0  0  0  0  0
  -26.8780  -20.4390   18.1530 C   0  0  0  0  0  0  0  0  0  0  0  0
  -27.6890  -20.0830   19.1550 N   0  0  0  0  0  0  0  0  0  0  0  0
  -27.1910  -20.3540   16.9630 O   0  0  0  0  0  0  0  0  0  0  0  0
  -27.4060  -20.3230   20.0940 H   0  0  0  0  0  0  0  0  0  0  0  0
  -24.4120  -20.7430   17.5250 C   0  0  0  0  0  1  0  0  0  0  0  0
  -25.5170  -21.0090   18.5600 C   0  0  0  0  0  2  0  0  0  0  0  0
  1  2  1  0
  2  4  2  0
  3  1  2  0
  3  5  1  0
  4  6  1  0
  4 16  1  0
  5 94  1  0
  5  6  2  0
  6  7  1  0
  8 14  1  0
  8 16  1  0
  9 14  1  0
 10 11  1  0
 10  9  1  0
 12 11  1  0
 12 21  1  0
 12 13  1  0
 14 13  1  0
 15  8  2  0
 16 17  1  0
 18 19  2  0
 19 38  1  0
 20 23  1  0
 20 19  1  0
 21 22  1  0
 21 18  1  0
 22 20  2  0
 23 24  1  0
 24 25  2  0
 26 29  1  0
 26 25  1  0
 27 26  2  0
 28 27  1  0
 28 23  2  0
 29 30  1  0
 30 35  2  0
 30 31  1  0
 31 32  2  0
 32 33  1  0
 33 37  1  0
 34 33  2  0
 35 34  1  0
 36 35  1  0
 38 39  1  0
 39 42  1  0
 39 41  1  0
 40 38  2  0
 43 18  1  0
 43 44  1  0
 45 43  1  0
 46 47  1  0
 46 49  1  0
 47 50  1  0
 49 51  1  0
 49 48  1  0
 50 48  1  0
 50  3  1  0
 52 54  1  0
 52 51  1  0
 53 64  2  0
 54 59  1  0
 55 63  1  0
 55 65  1  0
 56 58  1  0
 56 62  1  0
 57 63  1  0
 58 57  1  0
 59 58  2  0
 60 54  2  0
 60 61  1  0
 61 56  2  0
 62 55  1  0
 63 53  1  0
 65 67  2  0
 66 65  1  0
 68 66  1  0
 69 78  2  0
 69 74  1  0
 70 66  1  0
 70 74  1  0
 71 70  1  0
 72 73  1  0
 72 71  1  0
 73 69  1  0
 74 75  2  0
 75 76  1  0
 77 76  2  0
 78 77  1  0
 79 53  1  0
 79 80  1  0
 79 84  1  0
 80 83  1  1
 80 81  1  0
 82 80  1  0
 84 87  1  0
 85 84  1  0
 85 89  1  0
 86 85  2  0
 89 88  1  0
 89 91  1  0
 91 90  1  0
 91 92  1  0
 93 98  1  0
 93 94  1  0
 94 96  1  0
 95 93  2  0
 97 98  1  0
M  ISO  4   8 100  16 100  51 101  52 101
M  END
>  <TORSDO>  (60) 
F 20

>  <SCORE>  (60) 
-9.731

>  <name>  (60) 
59

>  <ligand_id>  (60) 
59

>  <original_smiles>  (60) 
[H]c1c([H])c([H])c2c(c1[H])C([H])([H])C([H])([H])C([H])([H])C2([H])N([H])C(=O)C1([H])N(C(=O)C([H])(N([H])C(=O)C([H])(N([H])C([H])([H])[H])C([H])([H])[H])C(C([H])([H])[H])(C([H])([H])[H])C([H])([H])[H])C([H])([H])c2c([H])c(OC([H])([H])C3([H])C([H])([H])N(c4c([H])c([H])c(N([H])C(=O)N5C([H])([H])C([H])([H])C([H])([H])C([H])(n6nc(-c7c([H])c([H])c(Oc8c([H])c([H])c(F)c([H])c8F)c([H])c7[H])c(C(=O)N([H])[H])c6N([H])[H])C5([H])[H])c(F)c4N([H])C(=O)C([H])([H])C([H])([H])[H])C([H])([H])C3([H])[H])c([H])c([H])c2C1([H])[H]

>  <smiles>  (60) 
[H]c1c([H])c([H])c2c(c1[H])C([H])([H])C([H])([H])C([H])([H])C2([H])N([H])C(=O)C1([H])N(C(=O)C([H])(N([H])C(=O)C([H])(N([H])C([H])([H])[H])C([H])([H])[H])C(C([H])([H])[H])(C([H])([H])[H])C([H])([H])[H])C([H])([H])c2c([H])c(OC([H])([H])C3([H])C([H])([H])N(c4c([H])c([H])c(N([H])C(=O)N5C([H])([H])C([H])([H])C([H])([H])C([H])(n6nc(-c7c([H])c([H])c(Oc8c([H])c([H])c(F)c([H])c8F)c([H])c7[H])c(C(=O)N([H])[H])c6N([H])[H])C5([H])[H])c(F)c4N([H])C(=O)C([H])([H])C([H])([H])[H])C([H])([H])C3([H])[H])c([H])c([H])c2C1([H])[H]

$$$$
60:0:0
     RDKit          3D

 92101  0  0  1  0  0  0  0  0999 V2000
  -28.6310  -23.6250   19.7640 C   0  0  0  0  0  0  0  0  0  0  0  0
  -28.5240  -22.4330   18.9040 C   0  0  0  0  0  0  0  0  0  0  0  0
  -28.2300  -24.9570   19.4950 C   0  0  0  0  0  3  0  0  0  0  0  0
  -29.3330  -22.6990   20.8050 C   0  0  0  0  0  2  0  0  0  0  0  0
  -29.0090  -21.5310   19.9030 N   0  0  0  0  0  0  0  0  0  0  0  0
  -28.2540  -22.3490   17.7250 O   0  0  0  0  0  0  0  0  0  0  0  0
  -32.1040  -19.3470   19.3910 C   0  0  0  0  0  3  0  0  0  0  0  0
  -31.2040  -20.4210   19.5260 C   0  0  0  0  0  3  0  0  0  0  0  0
  -31.7120  -18.0050   19.5550 C   0  0  0  0  0  3  0  0  0  0  0  0
  -29.4880  -18.8250   20.0110 C   0  0  0  0  0  3  0  0  0  0  0  0
  -29.8370  -20.2580   19.8380 C   0  0  0  0  0  0  0  0  0  0  0  0
  -30.3850  -17.6390   19.8830 C   0  0  0  0  0  0  0  0  0  0  0  0
  -30.7330  -14.9580   19.6850 C   0  0  0  0  0  0  0  0  0  0  0  0
  -30.4560  -12.6860   18.5810 C   0  0  0  0  0  2  0  0  0  0  0  0
  -29.3790  -12.7440   17.4720 C   0  0  0  0  0  2  0  0  0  0  0  0
  -27.9750  -12.4970   18.0580 C   0  0  0  0  0  2  0  0  0  0  0  0
  -27.7290  -13.3250   19.3480 C   0  0  0  0  0  3  0  0  0  0  0  0
  -28.9130  -13.1810   20.3220 C   0  0  0  0  0  2  0  0  0  0  0  0
  -30.1050  -13.7030   19.6230 N   0  0  0  0  0  0  0  0  0  0  0  0
  -31.8380  -15.0160   19.1350 O   0  0  0  0  0  0  0  0  0  0  0  0
  -30.0910  -16.1530   20.1810 N   0  0  0  0  0  0  0  0  0  0  0  0
  -25.4490  -13.8550   20.3920 C   0  0  0  0  0  0  0  0  0  0  0  0
  -24.4400  -13.0590   20.8530 C   0  0  0  0  0  0  0  0  0  0  0  0
  -24.8860  -11.7160   20.6710 C   0  0  0  0  0  0  0  0  0  0  0  0
  -26.4550  -12.9980   19.9780 N   0  0  0  0  0  0  0  0  0  0  0  0
  -26.1270  -11.6990   20.1990 N   0  0  0  0  0  0  0  0  0  0  0  0
  -24.1760  -10.4450   20.8600 C   0  0  0  0  0  0  0  0  0  0  0  0
  -24.6370   -9.4710   21.7730 C   0  0  0  0  0  3  0  0  0  0  0  0
  -23.9230   -8.2660   21.9530 C   0  0  0  0  0  3  0  0  0  0  0  0
  -22.7370   -8.0270   21.2190 C   0  0  0  0  0  0  0  0  0  0  0  0
  -22.2960   -8.9910   20.2960 C   0  0  0  0  0  3  0  0  0  0  0  0
  -23.0100  -10.1870   20.1130 C   0  0  0  0  0  3  0  0  0  0  0  0
  -21.9930   -6.8750   21.3090 O   0  0  0  0  0  0  0  0  0  0  0  0
  -21.8620   -6.1950   22.4930 C   0  0  0  0  0  0  0  0  0  0  0  0
  -21.3070   -6.8000   23.6420 C   0  0  0  0  0  3  0  0  0  0  0  0
  -21.1260   -6.0440   24.8180 C   0  0  0  0  0  3  0  0  0  0  0  0
  -21.4910   -4.6840   24.8450 C   0  0  0  0  0  0  0  0  0  0  0  0
  -22.0400   -4.0800   23.7010 C   0  0  0  0  0  3  0  0  0  0  0  0
  -22.2220   -4.8330   22.5280 C   0  0  0  0  0  0  0  0  0  0  0  0
  -22.7310   -4.2400   21.4200 F   0  0  0  0  0  0  0  0  0  0  0  0
  -21.3110   -3.9560   25.9710 F   0  0  0  0  0  0  0  0  0  0  0  0
  -23.0950  -13.5190   21.3380 C   0  0  0  0  0  0  0  0  0  0  0  0
  -22.4880  -12.7730   22.2540 N   0  0  0  0  0  0  0  0  0  0  0  0
  -22.6010  -14.5740   20.9450 O   0  0  0  0  0  0  0  0  0  0  0  0
  -22.9030  -11.9140   22.5870 H   0  0  0  0  0  0  0  0  0  0  0  0
  -21.5970  -13.0640   22.6280 H   0  0  0  0  0  0  0  0  0  0  0  0
  -25.5770  -15.2320   20.2640 N   0  0  0  0  0  0  0  0  0  0  0  0
  -24.8260  -15.8720   20.4990 H   0  0  0  0  0  0  0  0  0  0  0  0
  -26.3870  -15.6900   19.8710 H   0  0  0  0  0  0  0  0  0  0  0  0
  -28.0770  -16.2910   21.5560 C   0  0  0  0  0  2  0  0  0  0  0  0
  -29.3730  -15.9950   21.3710 C   0  0  0  0  0  3  0  0  0  0  0  0
  -28.3070  -26.2430   20.1610 O   0  0  0  0  0  0  0  0  0  0  0  0
  -24.7530  -31.8470   23.2780 C   0  0  0  0  0  0  0  0  0  0  0  0
  -27.2590  -27.2240   20.0890 C   0  0  0  0  0  0  0  0  0  0  0  0
  -23.5240  -30.5160   21.6060 C   0  0  0  0  0  3  0  0  0  0  0  0
  -24.9440  -28.9720   20.1270 C   0  0  0  0  0  0  0  0  0  0  0  0
  -26.0780  -30.7630   21.4320 C   0  0  0  0  0  2  0  0  0  0  0  0
  -26.1300  -29.3920   20.7420 C   0  0  0  0  0  0  0  0  0  0  0  0
  -27.2860  -28.5310   20.7120 C   0  0  0  0  0  3  0  0  0  0  0  0
  -26.0420  -26.8990   19.4440 C   0  0  0  0  0  3  0  0  0  0  0  0
  -24.9090  -27.7370   19.4660 C   0  0  0  0  0  3  0  0  0  0  0  0
  -23.7270  -29.8790   20.2070 C   0  0  0  0  0  2  0  0  0  0  0  0
  -24.8060  -31.0600   22.1620 N   0  0  0  0  0  0  0  0  0  0  0  0
  -23.6730  -32.1330   23.8190 O   0  0  0  0  0  0  0  0  0  0  0  0
  -22.8370  -29.4900   22.5410 C   0  0  0  0  0  0  0  0  0  0  0  0
  -21.5150  -29.2990   22.3740 N   0  0  0  0  0  0  0  0  0  0  0  0
  -23.4940  -28.8690   23.3780 O   0  0  0  0  0  0  0  0  0  0  0  0
  -21.0430  -29.8510   21.6710 H   0  0  0  0  0  0  0  0  0  0  0  0
  -18.1510  -28.0060   22.7350 C   0  0  0  0  0  0  0  0  0  0  0  0
  -20.6870  -28.3460   23.1160 C   0  0  0  0  0  3  0  0  0  0  0  0
  -20.8570  -26.9120   22.5630 C   0  0  0  0  0  2  0  0  0  0  0  0
  -19.8130  -26.5480   21.5040 C   0  0  0  0  0  2  0  0  0  0  0  0
  -18.3980  -26.6570   22.0820 C   0  0  0  0  0  2  0  0  0  0  0  0
  -19.2260  -28.8060   23.2070 C   0  0  0  0  0  0  0  0  0  0  0  0
  -18.9410  -30.0660   23.7790 C   0  0  0  0  0  3  0  0  0  0  0  0
  -17.6160  -30.5260   23.8820 C   0  0  0  0  0  3  0  0  0  0  0  0
  -16.5550  -29.7260   23.4250 C   0  0  0  0  0  3  0  0  0  0  0  0
  -16.8240  -28.4670   22.8580 C   0  0  0  0  0  3  0  0  0  0  0  0
  -26.0440  -32.4450   23.9170 C   0  0  0  0  0  3  0  0  0  0  0  0
  -25.7780  -33.8580   24.2260 N   0  0  0  0  0  0  0  0  0  0  0  0
  -26.1270  -34.8880   23.4430 C   0  0  0  0  0  0  0  0  0  0  0  0
  -26.7720  -34.7450   22.4020 O   0  0  0  0  0  0  0  0  0  0  0  0
  -25.2030  -34.0430   25.0350 H   0  0  0  0  0  0  0  0  0  0  0  0
  -24.4290  -36.7150   23.1100 C   0  0  0  0  0  1  0  0  0  0  0  0
  -25.6900  -36.3000   23.8830 C   0  0  0  0  0  3  0  0  0  0  0  0
  -27.8670  -37.1630   24.6210 C   0  0  0  0  0  1  0  0  0  0  0  0
  -26.7430  -37.3220   23.7020 N   0  0  0  0  0  0  0  0  0  0  0  0
  -26.3660  -38.2570   23.8260 H   0  0  0  0  0  0  0  0  0  0  0  0
  -26.5070  -31.6740   25.2150 C   0  0  1  0  0  0  0  0  0  0  0  0
  -25.3850  -31.4870   26.2630 C   0  0  0  0  0  1  0  0  0  0  0  0
  -27.0510  -30.2710   24.8560 C   0  0  0  0  0  1  0  0  0  0  0  0
  -27.6710  -32.4370   25.8890 C   0  0  0  0  0  1  0  0  0  0  0  0
  1  4  1  0
  2  1  1  0
  2  5  1  0
  3  1  2  0
  3 52  1  0
  5  4  1  0
  6  2  2  0
  7  8  2  0
  7  9  1  0
  8 11  1  0
  9 12  2  0
 11  5  1  0
 11 10  2  0
 12 10  1  0
 12 21  1  0
 13 21  1  0
 14 19  1  0
 15 16  1  0
 15 14  1  0
 17 16  1  0
 17 25  1  0
 17 18  1  0
 19 13  1  0
 19 18  1  0
 20 13  2  0
 21 51  1  0
 22 23  2  0
 23 42  1  0
 24 23  1  0
 24 27  1  0
 25 26  1  0
 25 22  1  0
 26 24  2  0
 27 28  1  0
 28 29  2  0
 30 33  1  0
 30 29  1  0
 31 30  2  0
 32 31  1  0
 32 27  2  0
 33 34  1  0
 34 39  2  0
 34 35  1  0
 35 36  2  0
 36 37  1  0
 37 41  1  0
 38 37  2  0
 39 38  1  0
 40 39  1  0
 42 43  1  0
 43 45  1  0
 43 46  1  0
 44 42  2  0
 47 22  1  0
 47 48  1  0
 49 47  1  0
 51 50  2  0
 53 64  2  0
 54 52  1  0
 54 59  1  0
 55 63  1  0
 55 65  1  0
 56 62  1  0
 56 58  1  0
 57 63  1  0
 58 57  1  0
 59 58  2  0
 60 61  1  0
 60 54  2  0
 61 56  2  0
 62 55  1  0
 63 53  1  0
 65 67  2  0
 66 65  1  0
 68 66  1  0
 69 78  2  0
 69 74  1  0
 70 66  1  0
 70 74  1  0
 71 70  1  0
 72 73  1  0
 72 71  1  0
 73 69  1  0
 74 75  2  0
 75 76  1  0
 77 76  2  0
 78 77  1  0
 79 53  1  0
 79 80  1  0
 79 89  1  0
 80 83  1  0
 81 85  1  0
 81 80  1  0
 82 81  2  0
 85 84  1  0
 87 88  1  0
 87 85  1  0
 87 86  1  0
 89 92  1  1
 89 90  1  0
 91 89  1  0
M  ISO  4   3 101  13 100  21 100  52 101
M  END
>  <TORSDO>  (61) 
F 18

>  <SCORE>  (61) 
-12.234

>  <name>  (61) 
60

>  <ligand_id>  (61) 
60

>  <original_smiles>  (61) 
[H]C([H])=C([H])N(C(=O)N1C([H])([H])C([H])([H])C([H])([H])C([H])(n2nc(-c3c([H])c([H])c(Oc4c([H])c([H])c(F)c([H])c4F)c([H])c3[H])c(C(=O)N([H])[H])c2N([H])[H])C1([H])[H])c1c([H])c([H])c([H])c(N2C(=O)C(=C([H])Oc3c([H])c([H])c4c(c3[H])C([H])([H])N(C(=O)C([H])(N([H])C(=O)C([H])(N([H])C([H])([H])[H])C([H])([H])[H])C(C([H])([H])[H])(C([H])([H])[H])C([H])([H])[H])C([H])(C(=O)N([H])C3([H])c5c([H])c([H])c([H])c([H])c5C([H])([H])C([H])([H])C3([H])[H])C4([H])[H])C2([H])[H])c1[H]

>  <smiles>  (61) 
[H]C([H])=C([H])N(C(=O)N1C([H])([H])C([H])([H])C([H])([H])C([H])(n2nc(-c3c([H])c([H])c(Oc4c([H])c([H])c(F)c([H])c4F)c([H])c3[H])c(C(=O)N([H])[H])c2N([H])[H])C1([H])[H])c1c([H])c([H])c([H])c(N2C(=O)C(=C([H])Oc3c([H])c([H])c4c(c3[H])C([H])([H])N(C(=O)C([H])(N([H])C(=O)C([H])(N([H])C([H])([H])[H])C([H])([H])[H])C(C([H])([H])[H])(C([H])([H])[H])C([H])([H])[H])C([H])(C(=O)N([H])C3([H])c5c([H])c([H])c([H])c([H])c5C([H])([H])C([H])([H])C3([H])[H])C4([H])[H])C2([H])[H])c1[H]

$$$$
61:0:0
     RDKit          3D

100109  0  0  1  0  0  0  0  0999 V2000
  -30.5070  -23.9690   19.7030 C   0  0  0  0  0  0  0  0  0  0  0  0
  -29.1800  -24.0800   20.3090 C   0  0  0  0  0  0  0  0  0  0  0  0
  -30.9770  -22.5710   19.8960 C   0  0  0  0  0  0  0  0  0  0  0  0
  -28.3700  -25.1710   20.5860 C   0  0  0  0  0  3  0  0  0  0  0  0
  -31.1960  -24.8930   18.9650 C   0  0  0  0  0  0  0  0  0  0  0  0
  -28.8020  -22.6460   20.7160 C   0  0  0  0  0  2  0  0  0  0  0  0
  -32.5980  -24.6940   18.3860 C   0  0  0  0  0  1  0  0  0  0  0  0
  -30.6270  -26.2360   18.5370 C   0  0  0  0  0  1  0  0  0  0  0  0
  -29.9950  -21.8020   20.4450 N   0  0  0  0  0  0  0  0  0  0  0  0
  -32.0740  -22.1020   19.5740 O   0  0  0  0  0  0  0  0  0  0  0  0
  -31.1900  -19.5910   21.0050 C   0  0  0  0  0  3  0  0  0  0  0  0
  -31.2100  -18.1620   21.1140 C   0  0  0  0  0  3  0  0  0  0  0  0
  -28.9200  -19.5220   20.2490 C   0  0  0  0  0  3  0  0  0  0  0  0
  -30.0390  -20.3240   20.5850 C   0  0  0  0  0  0  0  0  0  0  0  0
  -30.0830  -17.3610   20.7830 C   0  0  0  0  0  0  0  0  0  0  0  0
  -28.9370  -18.0850   20.3130 C   0  0  0  0  0  0  0  0  0  0  0  0
  -30.9100  -14.8690   21.0460 C   0  0  0  0  0  0  0  0  0  0  0  0
  -30.9080  -12.5320   20.1880 C   0  0  0  0  0  2  0  0  0  0  0  0
  -30.0720  -12.5100   18.8880 C   0  0  0  0  0  2  0  0  0  0  0  0
  -28.5730  -12.3130   19.1990 C   0  0  0  0  0  2  0  0  0  0  0  0
  -28.0640  -13.2480   20.3280 C   0  0  0  0  0  3  0  0  0  0  0  0
  -29.0270  -13.2490   21.5360 C   0  0  0  0  0  2  0  0  0  0  0  0
  -30.3640  -13.6090   21.0370 N   0  0  0  0  0  0  0  0  0  0  0  0
  -32.1180  -15.0390   20.8570 O   0  0  0  0  0  0  0  0  0  0  0  0
  -30.0000  -15.9030   21.0030 N   0  0  0  0  0  0  0  0  0  0  0  0
  -29.0560  -15.5570   21.0520 H   0  0  0  0  0  0  0  0  0  0  0  0
  -25.6280  -13.8050   20.9200 C   0  0  0  0  0  0  0  0  0  0  0  0
  -24.5390  -13.0170   21.1700 C   0  0  0  0  0  0  0  0  0  0  0  0
  -25.0100  -11.6720   21.1160 C   0  0  0  0  0  0  0  0  0  0  0  0
  -26.6890  -12.9410   20.7130 N   0  0  0  0  0  0  0  0  0  0  0  0
  -26.3200  -11.6470   20.8960 N   0  0  0  0  0  0  0  0  0  0  0  0
  -24.2790  -10.4020   21.2070 C   0  0  0  0  0  0  0  0  0  0  0  0
  -24.6660   -9.3920   22.1130 C   0  0  0  0  0  3  0  0  0  0  0  0
  -23.9330   -8.1870   22.1960 C   0  0  0  0  0  3  0  0  0  0  0  0
  -22.8020   -7.9860   21.3700 C   0  0  0  0  0  0  0  0  0  0  0  0
  -22.4370   -8.9870   20.4530 C   0  0  0  0  0  3  0  0  0  0  0  0
  -23.1690  -10.1820   20.3690 C   0  0  0  0  0  3  0  0  0  0  0  0
  -22.0470   -6.8380   21.3630 O   0  0  0  0  0  0  0  0  0  0  0  0
  -21.9330   -6.0440   22.4750 C   0  0  0  0  0  0  0  0  0  0  0  0
  -21.4280   -6.5400   23.6960 C   0  0  0  0  0  3  0  0  0  0  0  0
  -21.2640   -5.6710   24.7940 C   0  0  0  0  0  3  0  0  0  0  0  0
  -21.5940   -4.3080   24.6700 C   0  0  0  0  0  0  0  0  0  0  0  0
  -22.0930   -3.8120   23.4530 C   0  0  0  0  0  3  0  0  0  0  0  0
  -22.2590   -4.6770   22.3580 C   0  0  0  0  0  0  0  0  0  0  0  0
  -22.7190   -4.1900   21.1810 F   0  0  0  0  0  0  0  0  0  0  0  0
  -21.4290   -3.4720   25.7210 F   0  0  0  0  0  0  0  0  0  0  0  0
  -23.1260  -13.4840   21.3590 C   0  0  0  0  0  0  0  0  0  0  0  0
  -22.3460  -12.7650   22.1610 N   0  0  0  0  0  0  0  0  0  0  0  0
  -22.7180  -14.5190   20.8330 O   0  0  0  0  0  0  0  0  0  0  0  0
  -22.6890  -11.9280   22.6080 H   0  0  0  0  0  0  0  0  0  0  0  0
  -21.3940  -13.0560   22.3300 H   0  0  0  0  0  0  0  0  0  0  0  0
  -25.7920  -15.1800   20.8350 N   0  0  0  0  0  0  0  0  0  0  0  0
  -25.0040  -15.8150   20.9190 H   0  0  0  0  0  0  0  0  0  0  0  0
  -26.6670  -15.6610   20.6800 H   0  0  0  0  0  0  0  0  0  0  0  0
  -26.5550  -17.6820   19.7130 C   0  0  0  0  0  0  0  0  0  0  0  0
  -25.6730  -16.8780   18.7690 C   0  0  0  0  0  1  0  0  0  0  0  0
  -27.8540  -17.3410   19.7680 N   0  0  0  0  0  0  0  0  0  0  0  0
  -26.0390  -18.5510   20.4190 O   0  0  0  0  0  0  0  0  0  0  0  0
  -28.1190  -16.5310   19.2260 H   0  0  0  0  0  0  0  0  0  0  0  0
  -28.5300  -26.5580   20.3590 O   0  0  0  0  0  0  0  0  0  0  0  0
  -24.6830  -31.9390   23.3220 C   0  0  0  0  0  0  0  0  0  0  0  0
  -27.3940  -27.3890   20.3270 C   0  0  0  0  0  0  0  0  0  0  0  0
  -23.5130  -30.5090   21.6840 C   0  0  0  0  0  3  0  0  0  0  0  0
  -24.9950  -28.9570   20.2910 C   0  0  0  0  0  0  0  0  0  0  0  0
  -26.0470  -30.8570   21.5180 C   0  0  0  0  0  2  0  0  0  0  0  0
  -26.1530  -29.4700   20.8930 C   0  0  0  0  0  0  0  0  0  0  0  0
  -27.3530  -28.6950   20.9060 C   0  0  0  0  0  3  0  0  0  0  0  0
  -26.2160  -26.9350   19.6920 C   0  0  0  0  0  3  0  0  0  0  0  0
  -25.0280  -27.6930   19.6850 C   0  0  0  0  0  3  0  0  0  0  0  0
  -23.7460  -29.8150   20.3160 C   0  0  0  0  0  2  0  0  0  0  0  0
  -24.7670  -31.1190   22.2320 N   0  0  0  0  0  0  0  0  0  0  0  0
  -23.5900  -32.2080   23.8450 O   0  0  0  0  0  0  0  0  0  0  0  0
  -22.8520  -29.4960   22.6490 C   0  0  0  0  0  0  0  0  0  0  0  0
  -21.5320  -29.2940   22.5030 N   0  0  0  0  0  0  0  0  0  0  0  0
  -23.5260  -28.8930   23.4880 O   0  0  0  0  0  0  0  0  0  0  0  0
  -21.0460  -29.8270   21.7960 H   0  0  0  0  0  0  0  0  0  0  0  0
  -18.1690  -28.0380   22.9580 C   0  0  0  0  0  0  0  0  0  0  0  0
  -20.7170  -28.3530   23.2730 C   0  0  0  0  0  3  0  0  0  0  0  0
  -20.8570  -26.9140   22.7250 C   0  0  0  0  0  2  0  0  0  0  0  0
  -19.7820  -26.5520   21.6940 C   0  0  0  0  0  2  0  0  0  0  0  0
  -18.3850  -26.6820   22.3080 C   0  0  0  0  0  2  0  0  0  0  0  0
  -19.2640  -28.8290   23.3960 C   0  0  0  0  0  0  0  0  0  0  0  0
  -19.0090  -30.0960   23.9630 C   0  0  0  0  0  3  0  0  0  0  0  0
  -17.6920  -30.5750   24.0960 C   0  0  0  0  0  3  0  0  0  0  0  0
  -16.6110  -29.7820   23.6730 C   0  0  0  0  0  3  0  0  0  0  0  0
  -16.8500  -28.5150   23.1090 C   0  0  0  0  0  3  0  0  0  0  0  0
  -25.9510  -32.5920   23.9510 C   0  0  0  0  0  3  0  0  0  0  0  0
  -25.6280  -33.9960   24.2460 N   0  0  0  0  0  0  0  0  0  0  0  0
  -25.9740  -35.0360   23.4750 C   0  0  0  0  0  0  0  0  0  0  0  0
  -26.6700  -34.9140   22.4620 O   0  0  0  0  0  0  0  0  0  0  0  0
  -25.0100  -34.1630   25.0280 H   0  0  0  0  0  0  0  0  0  0  0  0
  -24.2560  -36.8200   23.0360 C   0  0  0  0  0  1  0  0  0  0  0  0
  -25.4720  -36.4330   23.8930 C   0  0  0  0  0  3  0  0  0  0  0  0
  -27.5810  -37.3350   24.7700 C   0  0  0  0  0  1  0  0  0  0  0  0
  -26.5070  -37.4850   23.7910 N   0  0  0  0  0  0  0  0  0  0  0  0
  -26.0960  -38.4060   23.9080 H   0  0  0  0  0  0  0  0  0  0  0  0
  -26.4480  -31.8530   25.2550 C   0  0  1  0  0  0  0  0  0  0  0  0
  -25.3380  -31.6350   26.3090 C   0  0  0  0  0  1  0  0  0  0  0  0
  -27.0410  -30.4700   24.9010 C   0  0  0  0  0  1  0  0  0  0  0  0
  -27.5850  -32.6660   25.9170 C   0  0  0  0  0  1  0  0  0  0  0  0
  1  3  1  0
  1  2  1  0
  2  4  2  0
  2  6  1  0
  3  9  1  0
  5  1  2  0
  7  5  1  0
  8  5  1  0
  9 14  1  0
  9  6  1  0
 10  3  2  0
 11 12  1  0
 13 16  2  0
 13 14  1  0
 14 11  2  0
 15 25  1  0
 15 12  2  0
 16 15  1  0
 18 23  1  0
 19 20  1  0
 19 18  1  0
 21 20  1  0
 21 30  1  0
 21 22  1  0
 23 17  1  0
 23 22  1  0
 24 17  2  0
 25 17  1  0
 25 26  1  0
 27 28  2  0
 28 47  1  0
 29 28  1  0
 29 32  1  0
 30 31  1  0
 30 27  1  0
 31 29  2  0
 32 33  1  0
 33 34  2  0
 35 34  1  0
 36 35  2  0
 37 36  1  0
 37 32  2  0
 38 35  1  0
 38 39  1  0
 39 40  1  0
 40 41  2  0
 42 41  1  0
 42 46  1  0
 43 42  2  0
 44 39  2  0
 44 43  1  0
 45 44  1  0
 47 48  1  0
 48 51  1  0
 48 50  1  0
 49 47  2  0
 52 53  1  0
 52 27  1  0
 54 52  1  0
 55 57  1  0
 55 58  2  0
 56 55  1  0
 57 16  1  0
 59 57  1  0
 60  4  1  0
 61 72  2  0
 62 60  1  0
 62 67  1  0
 63 71  1  0
 63 73  1  0
 64 70  1  0
 64 66  1  0
 65 71  1  0
 66 67  2  0
 66 65  1  0
 68 62  2  0
 69 68  1  0
 69 64  2  0
 70 63  1  0
 71 61  1  0
 73 75  2  0
 74 73  1  0
 76 74  1  0
 77 86  2  0
 77 82  1  0
 78 74  1  0
 78 82  1  0
 79 78  1  0
 80 81  1  0
 80 79  1  0
 81 77  1  0
 82 83  2  0
 83 84  1  0
 85 84  2  0
 86 85  1  0
 87 61  1  0
 87 88  1  0
 87 97  1  0
 88 91  1  0
 89 93  1  0
 89 88  1  0
 90 89  2  0
 93 92  1  0
 95 93  1  0
 95 96  1  0
 95 94  1  0
 97100  1  1
 97 98  1  0
 99 97  1  0
M  ISO  4   4 101  17 100  25 100  60 101
M  END
>  <TORSDO>  (62) 
F 18

>  <SCORE>  (62) 
-11.722

>  <name>  (62) 
61

>  <ligand_id>  (62) 
61

>  <original_smiles>  (62) 
[H]C(Oc1c([H])c([H])c2c(c1[H])C([H])([H])N(C(=O)C([H])(N([H])C(=O)C([H])(N([H])C([H])([H])[H])C([H])([H])[H])C(C([H])([H])[H])(C([H])([H])[H])C([H])([H])[H])C([H])(C(=O)N([H])C1([H])c3c([H])c([H])c([H])c([H])c3C([H])([H])C([H])([H])C1([H])[H])C2([H])[H])=C1C(=C(C([H])([H])[H])C([H])([H])[H])C(=O)N(c2c([H])c([H])c(N([H])C(=O)N3C([H])([H])C([H])([H])C([H])([H])C([H])(n4nc(-c5c([H])c([H])c(Oc6c([H])c([H])c(F)c([H])c6F)c([H])c5[H])c(C(=O)N([H])[H])c4N([H])[H])C3([H])[H])c(N([H])C(=O)C([H])([H])[H])c2[H])C1([H])[H]

>  <smiles>  (62) 
[H]C(Oc1c([H])c([H])c2c(c1[H])C([H])([H])N(C(=O)C([H])(N([H])C(=O)C([H])(N([H])C([H])([H])[H])C([H])([H])[H])C(C([H])([H])[H])(C([H])([H])[H])C([H])([H])[H])C([H])(C(=O)N([H])C1([H])c3c([H])c([H])c([H])c([H])c3C([H])([H])C([H])([H])C1([H])[H])C2([H])[H])=C1C(=C(C([H])([H])[H])C([H])([H])[H])C(=O)N(c2c([H])c([H])c(N([H])C(=O)N3C([H])([H])C([H])([H])C([H])([H])C([H])(n4nc(-c5c([H])c([H])c(Oc6c([H])c([H])c(F)c([H])c6F)c([H])c5[H])c(C(=O)N([H])[H])c4N([H])[H])C3([H])[H])c(N([H])C(=O)C([H])([H])[H])c2[H])C1([H])[H]

$$$$
62:0:0
     RDKit          3D

 94102  0  0  1  0  0  0  0  0999 V2000
  -29.8370  -21.5660   19.7070 C   0  0  0  0  0  0  0  0  0  0  0  0
  -29.1410  -24.0530   19.8730 C   0  0  0  0  0  0  0  0  0  0  0  0
  -29.1140  -22.6100   20.2580 N   0  0  0  0  0  0  0  0  0  0  0  0
  -30.6630  -21.8350   18.6890 N   0  0  0  0  0  4  0  0  0  0  0  0
  -29.8980  -24.4520   18.9770 O   0  0  0  0  0  0  0  0  0  0  0  0
  -28.5150  -22.2950   21.0050 H   0  0  0  0  0  0  0  0  0  0  0  0
  -31.1500  -21.0930   18.2120 H   0  0  0  0  0  0  0  0  0  0  0  0
  -30.7430  -22.7920   18.3670 H   0  0  0  0  0  0  0  0  0  0  0  0
  -28.6350  -19.3580   20.3940 C   0  0  0  0  0  3  0  0  0  0  0  0
  -31.0150  -19.3170   20.0740 C   0  0  0  0  0  3  0  0  0  0  0  0
  -28.6610  -17.9410   20.5980 C   0  0  0  0  0  3  0  0  0  0  0  0
  -31.0380  -17.9000   20.2630 C   0  0  0  0  0  3  0  0  0  0  0  0
  -29.8150  -20.0920   20.1030 C   0  0  0  0  0  0  0  0  0  0  0  0
  -29.8520  -17.1610   20.5120 C   0  0  0  0  0  0  0  0  0  0  0  0
  -30.5890  -14.6680   20.3050 C   0  0  0  0  0  0  0  0  0  0  0  0
  -30.3820  -12.4400   19.2140 C   0  0  0  0  0  2  0  0  0  0  0  0
  -29.4220  -12.5810   18.0110 C   0  0  0  0  0  2  0  0  0  0  0  0
  -27.9540  -12.4140   18.4540 C   0  0  0  0  0  2  0  0  0  0  0  0
  -27.6090  -13.2600   19.7090 C   0  0  0  0  0  3  0  0  0  0  0  0
  -28.6800  -13.0850   20.8100 C   0  0  0  0  0  2  0  0  0  0  0  0
  -29.9820  -13.4400   20.2250 N   0  0  0  0  0  0  0  0  0  0  0  0
  -31.7460  -14.8330   19.9050 O   0  0  0  0  0  0  0  0  0  0  0  0
  -29.7780  -15.7060   20.6880 N   0  0  0  0  0  0  0  0  0  0  0  0
  -28.8800  -15.3790   21.0090 H   0  0  0  0  0  0  0  0  0  0  0  0
  -25.2210  -13.8550   20.4470 C   0  0  0  0  0  0  0  0  0  0  0  0
  -24.1590  -13.0790   20.8280 C   0  0  0  0  0  0  0  0  0  0  0  0
  -24.6230  -11.7290   20.7910 C   0  0  0  0  0  0  0  0  0  0  0  0
  -26.2650  -12.9770   20.2030 N   0  0  0  0  0  0  0  0  0  0  0  0
  -25.9110  -11.6930   20.4700 N   0  0  0  0  0  0  0  0  0  0  0  0
  -23.9020  -10.4650   20.9850 C   0  0  0  0  0  0  0  0  0  0  0  0
  -24.3350   -9.5030   21.9250 C   0  0  0  0  0  3  0  0  0  0  0  0
  -23.6140   -8.3040   22.1060 C   0  0  0  0  0  3  0  0  0  0  0  0
  -22.4440   -8.0580   21.3480 C   0  0  0  0  0  0  0  0  0  0  0  0
  -22.0310   -9.0080   20.3970 C   0  0  0  0  0  3  0  0  0  0  0  0
  -22.7520  -10.1980   20.2140 C   0  0  0  0  0  3  0  0  0  0  0  0
  -21.6950   -6.9100   21.4380 O   0  0  0  0  0  0  0  0  0  0  0  0
  -21.6340   -6.1790   22.5970 C   0  0  0  0  0  0  0  0  0  0  0  0
  -21.1720   -6.7400   23.8080 C   0  0  0  0  0  3  0  0  0  0  0  0
  -21.0600   -5.9340   24.9580 C   0  0  0  0  0  3  0  0  0  0  0  0
  -21.4000   -4.5690   24.9000 C   0  0  0  0  0  0  0  0  0  0  0  0
  -21.8560   -4.0080   23.6940 C   0  0  0  0  0  3  0  0  0  0  0  0
  -21.9690   -4.8110   22.5450 C   0  0  0  0  0  0  0  0  0  0  0  0
  -22.3890   -4.2610   21.3810 F   0  0  0  0  0  0  0  0  0  0  0  0
  -21.2860   -3.7940   26.0040 F   0  0  0  0  0  0  0  0  0  0  0  0
  -22.7620  -13.5530   21.1120 C   0  0  0  0  0  0  0  0  0  0  0  0
  -22.0420  -12.8520   21.9790 N   0  0  0  0  0  0  0  0  0  0  0  0
  -22.3200  -14.5800   20.5990 O   0  0  0  0  0  0  0  0  0  0  0  0
  -22.4130  -12.0220   22.4160 H   0  0  0  0  0  0  0  0  0  0  0  0
  -21.1050  -13.1520   22.2110 H   0  0  0  0  0  0  0  0  0  0  0  0
  -25.3780  -15.2260   20.2620 N   0  0  0  0  0  0  0  0  0  0  0  0
  -24.5910  -15.8600   20.3370 H   0  0  0  0  0  0  0  0  0  0  0  0
  -26.1810  -15.6450   19.8110 H   0  0  0  0  0  0  0  0  0  0  0  0
  -28.1890  -25.0800   20.6000 C   0  0  0  0  0  2  0  0  0  0  0  0
  -28.3680  -26.5030   20.2010 O   0  0  0  0  0  0  0  0  0  0  0  0
  -24.6040  -31.8740   23.2310 C   0  0  0  0  0  0  0  0  0  0  0  0
  -27.2400  -27.3340   20.1830 C   0  0  0  0  0  0  0  0  0  0  0  0
  -23.4080  -30.4730   21.5840 C   0  0  0  0  0  3  0  0  0  0  0  0
  -24.8670  -28.9270   20.1630 C   0  0  0  0  0  0  0  0  0  0  0  0
  -25.9450  -30.8030   21.4070 C   0  0  0  0  0  2  0  0  0  0  0  0
  -26.0310  -29.4250   20.7620 C   0  0  0  0  0  0  0  0  0  0  0  0
  -27.2230  -28.6400   20.7600 C   0  0  0  0  0  3  0  0  0  0  0  0
  -26.0570  -26.8890   19.5540 C   0  0  0  0  0  3  0  0  0  0  0  0
  -24.8810  -27.6650   19.5500 C   0  0  0  0  0  3  0  0  0  0  0  0
  -23.6270  -29.7970   20.2060 C   0  0  0  0  0  2  0  0  0  0  0  0
  -24.6700  -31.0670   22.1310 N   0  0  0  0  0  0  0  0  0  0  0  0
  -23.5180  -32.1470   23.7630 O   0  0  0  0  0  0  0  0  0  0  0  0
  -22.7450  -29.4540   22.5420 C   0  0  0  0  0  0  0  0  0  0  0  0
  -21.4200  -29.2760   22.4130 N   0  0  0  0  0  0  0  0  0  0  0  0
  -23.4240  -28.8260   23.3600 O   0  0  0  0  0  0  0  0  0  0  0  0
  -20.9320  -29.8360   21.7260 H   0  0  0  0  0  0  0  0  0  0  0  0
  -18.0400  -28.0890   22.9130 C   0  0  0  0  0  0  0  0  0  0  0  0
  -20.6000  -28.3380   23.1800 C   0  0  0  0  0  3  0  0  0  0  0  0
  -20.6960  -26.9090   22.5970 C   0  0  0  0  0  2  0  0  0  0  0  0
  -19.5910  -26.5960   21.5830 C   0  0  0  0  0  2  0  0  0  0  0  0
  -18.2110  -26.7430   22.2310 C   0  0  0  0  0  2  0  0  0  0  0  0
  -19.1620  -28.8460   23.3450 C   0  0  0  0  0  0  0  0  0  0  0  0
  -18.9480  -30.1060   23.9440 C   0  0  0  0  0  3  0  0  0  0  0  0
  -17.6450  -30.6110   24.1140 C   0  0  0  0  0  3  0  0  0  0  0  0
  -16.5380  -29.8510   23.6980 C   0  0  0  0  0  3  0  0  0  0  0  0
  -16.7360  -28.5920   23.1040 C   0  0  0  0  0  3  0  0  0  0  0  0
  -25.8830  -32.5070   23.8580 C   0  0  0  0  0  3  0  0  0  0  0  0
  -25.5720  -33.9070   24.1830 N   0  0  0  0  0  0  0  0  0  0  0  0
  -25.9090  -34.9580   23.4240 C   0  0  0  0  0  0  0  0  0  0  0  0
  -26.5830  -34.8520   22.3960 O   0  0  0  0  0  0  0  0  0  0  0  0
  -24.9730  -34.0630   24.9810 H   0  0  0  0  0  0  0  0  0  0  0  0
  -24.1890  -36.7550   23.0520 C   0  0  0  0  0  1  0  0  0  0  0  0
  -25.4210  -36.3480   23.8760 C   0  0  0  0  0  3  0  0  0  0  0  0
  -27.5470  -37.2290   24.7320 C   0  0  0  0  0  1  0  0  0  0  0  0
  -26.4570  -37.3970   23.7730 N   0  0  0  0  0  0  0  0  0  0  0  0
  -26.0510  -38.3200   23.9130 H   0  0  0  0  0  0  0  0  0  0  0  0
  -26.3930  -31.7400   25.1390 C   0  0  1  0  0  0  0  0  0  0  0  0
  -25.2950  -31.5050   26.2010 C   0  0  0  0  0  1  0  0  0  0  0  0
  -26.9790  -30.3610   24.7540 C   0  0  0  0  0  1  0  0  0  0  0  0
  -27.5410  -32.5360   25.8040 C   0  0  0  0  0  1  0  0  0  0  0  0
  1 13  1  0
  1  3  1  0
  2  3  1  0
  2 53  1  0
  3  6  1  0
  4  1  2  0
  5  2  2  0
  7  4  1  0
  8  4  1  0
  9 11  1  0
 10 13  1  0
 10 12  2  0
 12 14  1  0
 13  9  2  0
 14 11  2  0
 14 23  1  0
 15 23  1  0
 16 21  1  0
 17 18  1  0
 17 16  1  0
 19 18  1  0
 19 28  1  0
 19 20  1  0
 21 15  1  0
 21 20  1  0
 22 15  2  0
 23 24  1  0
 25 26  2  0
 26 45  1  0
 27 26  1  0
 27 30  1  0
 28 25  1  0
 28 29  1  0
 29 27  2  0
 30 31  1  0
 31 32  2  0
 33 36  1  0
 33 32  1  0
 34 33  2  0
 35 34  1  0
 35 30  2  0
 36 37  1  0
 37 38  1  0
 38 39  2  0
 40 39  1  0
 40 44  1  0
 41 40  2  0
 42 37  2  0
 42 41  1  0
 43 42  1  0
 45 46  1  0
 46 49  1  0
 46 48  1  0
 47 45  2  0
 50 51  1  0
 50 25  1  0
 52 50  1  0
 54 53  1  0
 55 66  2  0
 56 54  1  0
 56 61  1  0
 57 65  1  0
 57 67  1  0
 58 64  1  0
 58 60  1  0
 59 65  1  0
 60 59  1  0
 61 60  2  0
 62 56  2  0
 63 62  1  0
 63 58  2  0
 64 57  1  0
 65 55  1  0
 67 69  2  0
 68 67  1  0
 70 68  1  0
 71 80  2  0
 71 76  1  0
 72 68  1  0
 72 76  1  0
 73 72  1  0
 74 75  1  0
 74 73  1  0
 75 71  1  0
 76 77  2  0
 77 78  1  0
 79 78  2  0
 80 79  1  0
 81 55  1  0
 81 82  1  0
 81 91  1  0
 82 85  1  0
 83 87  1  0
 83 82  1  0
 84 83  2  0
 87 86  1  0
 89 87  1  0
 89 90  1  0
 89 88  1  0
 91 94  1  1
 91 92  1  0
 93 91  1  0
M  ISO  4  15 100  23 100  53 101  54 101
M  END
>  <TORSDO>  (63) 
F 18

>  <SCORE>  (63) 
-14.723

>  <name>  (63) 
62

>  <ligand_id>  (63) 
62

>  <original_smiles>  (63) 
[H]c1c([H])c([H])c2c(c1[H])C([H])([H])C([H])([H])C([H])([H])C2([H])N([H])C(=O)C1([H])N(C(=O)C([H])(N([H])C(=O)C([H])(N([H])C([H])([H])[H])C([H])([H])[H])C(C([H])([H])[H])(C([H])([H])[H])C([H])([H])[H])C([H])([H])c2c([H])c(OC([H])([H])C(=O)N([H])C(c3c([H])c([H])c(N([H])C(=O)N4C([H])([H])C([H])([H])C([H])([H])C([H])(n5nc(-c6c([H])c([H])c(Oc7c([H])c([H])c(F)c([H])c7F)c([H])c6[H])c(C(=O)N([H])[H])c5N([H])[H])C4([H])[H])c([H])c3[H])=[N+]([H])[H])c([H])c([H])c2C1([H])[H]

>  <smiles>  (63) 
[H]c1c([H])c([H])c2c(c1[H])C([H])([H])C([H])([H])C([H])([H])C2([H])N([H])C(=O)C1([H])N(C(=O)C([H])(N([H])C(=O)C([H])(N([H])C([H])([H])[H])C([H])([H])[H])C(C([H])([H])[H])(C([H])([H])[H])C([H])([H])[H])C([H])([H])c2c([H])c(OC([H])([H])C(=O)N([H])C(c3c([H])c([H])c(N([H])C(=O)N4C([H])([H])C([H])([H])C([H])([H])C([H])(n5nc(-c6c([H])c([H])c(Oc7c([H])c([H])c(F)c([H])c7F)c([H])c6[H])c(C(=O)N([H])[H])c5N([H])[H])C4([H])[H])c([H])c3[H])=[N+]([H])[H])c([H])c([H])c2C1([H])[H]

$$$$
63:0:0
     RDKit          3D

 98107  0  0  1  0  0  0  0  0999 V2000
  -29.0810  -18.8980   20.7290 C   0  0  0  0  0  3  0  0  0  0  0  0
  -28.7200  -20.2350   20.9960 C   0  0  0  0  0  3  0  0  0  0  0  0
  -30.9970  -20.7160   21.6420 C   0  0  0  0  0  3  0  0  0  0  0  0
  -30.4280  -18.4830   20.8010 C   0  0  0  0  0  0  0  0  0  0  0  0
  -31.3730  -19.3840   21.3630 C   0  0  0  0  0  0  0  0  0  0  0  0
  -29.6920  -21.1970   21.3730 C   0  0  0  0  0  0  0  0  0  0  0  0
  -32.8190  -18.9940   21.6310 C   0  0  0  0  0  1  0  0  0  0  0  0
  -28.3040  -23.2820   21.0960 C   0  0  0  0  0  0  0  0  0  0  0  0
  -29.9640  -24.9860   21.4480 C   0  0  0  0  0  3  0  0  0  0  0  0
  -30.5100  -23.5760   21.7110 C   0  0  0  0  0  3  0  0  0  0  0  0
  -28.4890  -24.8000   21.0850 C   0  0  0  0  0  3  0  0  0  0  0  0
  -29.4330  -22.6210   21.4380 N   0  0  0  0  0  0  0  0  0  0  0  0
  -27.2050  -22.7830   20.8350 O   0  0  0  0  0  0  0  0  0  0  0  0
  -28.0950  -25.4270   19.7250 C   0  0  0  0  0  2  0  0  0  0  0  0
  -28.0880  -26.8630   19.7800 O   0  0  0  0  0  0  0  0  0  0  0  0
  -24.4800  -31.9660   23.1620 C   0  0  0  0  0  0  0  0  0  0  0  0
  -26.8950  -27.5600   19.8470 C   0  0  0  0  0  0  0  0  0  0  0  0
  -23.1670  -30.6140   21.5610 C   0  0  0  0  0  3  0  0  0  0  0  0
  -24.5190  -29.0980   20.0240 C   0  0  0  0  0  0  0  0  0  0  0  0
  -25.6830  -30.9480   21.2320 C   0  0  0  0  0  2  0  0  0  0  0  0
  -25.7150  -29.5920   20.5590 C   0  0  0  0  0  0  0  0  0  0  0  0
  -26.9010  -28.8300   20.4700 C   0  0  0  0  0  3  0  0  0  0  0  0
  -25.6770  -27.0910   19.2910 C   0  0  0  0  0  3  0  0  0  0  0  0
  -24.4970  -27.8480   19.3890 C   0  0  0  0  0  3  0  0  0  0  0  0
  -23.2890  -29.9670   20.1570 C   0  0  0  0  0  2  0  0  0  0  0  0
  -24.4640  -31.1900   22.0410 N   0  0  0  0  0  0  0  0  0  0  0  0
  -23.4350  -32.2370   23.7670 O   0  0  0  0  0  0  0  0  0  0  0  0
  -22.5630  -29.5740   22.5340 C   0  0  0  0  0  0  0  0  0  0  0  0
  -21.2420  -29.3540   22.4250 N   0  0  0  0  0  0  0  0  0  0  0  0
  -23.2760  -28.9690   23.3390 O   0  0  0  0  0  0  0  0  0  0  0  0
  -20.7270  -29.8950   21.7440 H   0  0  0  0  0  0  0  0  0  0  0  0
  -17.9230  -28.0160   22.9200 C   0  0  0  0  0  0  0  0  0  0  0  0
  -20.4620  -28.3970   23.2090 C   0  0  0  0  0  3  0  0  0  0  0  0
  -20.6370  -26.9590   22.6660 C   0  0  0  0  0  2  0  0  0  0  0  0
  -19.5610  -26.5630   21.6500 C   0  0  0  0  0  2  0  0  0  0  0  0
  -18.1670  -26.6590   22.2780 C   0  0  0  0  0  2  0  0  0  0  0  0
  -19.0010  -28.8380   23.3420 C   0  0  0  0  0  0  0  0  0  0  0  0
  -18.7190  -30.1040   23.9000 C   0  0  0  0  0  3  0  0  0  0  0  0
  -17.3910  -30.5490   24.0410 C   0  0  0  0  0  3  0  0  0  0  0  0
  -16.3280  -29.7240   23.6380 C   0  0  0  0  0  3  0  0  0  0  0  0
  -16.5930  -28.4610   23.0810 C   0  0  0  0  0  3  0  0  0  0  0  0
  -25.8080  -32.5690   23.7200 C   0  0  0  0  0  3  0  0  0  0  0  0
  -26.3930  -31.7600   24.9420 C   0  0  1  0  0  0  0  0  0  0  0  0
  -25.3580  -31.4890   26.0580 C   0  0  0  0  0  1  0  0  0  0  0  0
  -26.9550  -30.3970   24.4750 C   0  0  0  0  0  1  0  0  0  0  0  0
  -27.5780  -32.5370   25.5630 C   0  0  0  0  0  1  0  0  0  0  0  0
  -25.5340  -33.9610   24.0980 N   0  0  0  0  0  0  0  0  0  0  0  0
  -25.8600  -35.0280   23.3570 C   0  0  0  0  0  0  0  0  0  0  0  0
  -26.4940  -34.9420   22.3030 O   0  0  0  0  0  0  0  0  0  0  0  0
  -24.9670  -34.1030   24.9230 H   0  0  0  0  0  0  0  0  0  0  0  0
  -24.1640  -36.8650   23.0900 C   0  0  0  0  0  1  0  0  0  0  0  0
  -25.4090  -36.4100   23.8670 C   0  0  0  0  0  3  0  0  0  0  0  0
  -27.5730  -37.2250   24.6960 C   0  0  0  0  0  1  0  0  0  0  0  0
  -26.4620  -37.4440   23.7730 N   0  0  0  0  0  0  0  0  0  0  0  0
  -26.0770  -38.3660   23.9520 H   0  0  0  0  0  0  0  0  0  0  0  0
  -30.8580  -17.1660   20.1180 C   0  0  0  0  0  3  0  0  0  0  0  0
  -31.0190  -14.7820   20.7980 C   0  0  0  0  0  0  0  0  0  0  0  0
  -30.7430  -12.5830   19.7730 C   0  0  0  0  0  2  0  0  0  0  0  0
  -29.8950  -12.7410   18.4960 C   0  0  0  0  0  2  0  0  0  0  0  0
  -28.3920  -12.6450   18.8230 C   0  0  0  0  0  2  0  0  0  0  0  0
  -27.9670  -13.5130   20.0420 C   0  0  0  0  0  3  0  0  0  0  0  0
  -28.9570  -13.3830   21.2210 C   0  0  0  0  0  2  0  0  0  0  0  0
  -30.3110  -13.6300   20.7080 N   0  0  0  0  0  0  0  0  0  0  0  0
  -32.2390  -14.8150   20.6360 O   0  0  0  0  0  0  0  0  0  0  0  0
  -30.3060  -15.9210   20.7000 N   0  0  0  0  0  0  0  0  0  0  0  0
  -29.3040  -15.8540   20.7760 H   0  0  0  0  0  0  0  0  0  0  0  0
  -25.5270  -14.1080   20.5890 C   0  0  0  0  0  0  0  0  0  0  0  0
  -24.4440  -13.3330   20.8980 C   0  0  0  0  0  0  0  0  0  0  0  0
  -24.9170  -11.9840   20.9210 C   0  0  0  0  0  0  0  0  0  0  0  0
  -26.5920  -13.2330   20.4440 N   0  0  0  0  0  0  0  0  0  0  0  0
  -26.2250  -11.9520   20.7040 N   0  0  0  0  0  0  0  0  0  0  0  0
  -24.1900  -10.7190   21.0790 C   0  0  0  0  0  0  0  0  0  0  0  0
  -24.5550   -9.7760   22.0660 C   0  0  0  0  0  3  0  0  0  0  0  0
  -23.8280   -8.5750   22.2120 C   0  0  0  0  0  3  0  0  0  0  0  0
  -22.7220   -8.3070   21.3690 C   0  0  0  0  0  0  0  0  0  0  0  0
  -22.3780   -9.2400   20.3730 C   0  0  0  0  0  3  0  0  0  0  0  0
  -23.1060  -10.4310   20.2260 C   0  0  0  0  0  3  0  0  0  0  0  0
  -21.9730   -7.1580   21.4210 O   0  0  0  0  0  0  0  0  0  0  0  0
  -21.8040   -6.4620   22.5930 C   0  0  0  0  0  0  0  0  0  0  0  0
  -21.2100   -7.0500   23.7310 C   0  0  0  0  0  3  0  0  0  0  0  0
  -20.9930   -6.2780   24.8890 C   0  0  0  0  0  3  0  0  0  0  0  0
  -21.3590   -4.9180   24.9100 C   0  0  0  0  0  0  0  0  0  0  0  0
  -21.9440   -4.3300   23.7740 C   0  0  0  0  0  3  0  0  0  0  0  0
  -22.1640   -5.1000   22.6190 C   0  0  0  0  0  0  0  0  0  0  0  0
  -22.7090   -4.5220   21.5210 F   0  0  0  0  0  0  0  0  0  0  0  0
  -21.1430   -4.1740   26.0200 F   0  0  0  0  0  0  0  0  0  0  0  0
  -23.0270  -13.8000   21.0640 C   0  0  0  0  0  0  0  0  0  0  0  0
  -22.2520  -13.1230   21.9030 N   0  0  0  0  0  0  0  0  0  0  0  0
  -22.6120  -14.8030   20.4840 O   0  0  0  0  0  0  0  0  0  0  0  0
  -22.5980  -12.3120   22.3950 H   0  0  0  0  0  0  0  0  0  0  0  0
  -21.2970  -13.4180   22.0570 H   0  0  0  0  0  0  0  0  0  0  0  0
  -25.6890  -15.4770   20.3960 N   0  0  0  0  0  0  0  0  0  0  0  0
  -24.9050  -16.1190   20.4380 H   0  0  0  0  0  0  0  0  0  0  0  0
  -26.5470  -15.9220   20.0990 H   0  0  0  0  0  0  0  0  0  0  0  0
  -31.8510  -16.2820   17.9190 C   0  0  0  0  0  1  0  0  0  0  0  0
  -31.0680  -18.6210   17.9720 C   0  0  0  0  0  1  0  0  0  0  0  0
  -29.4070  -16.7560   17.9990 C   0  0  0  0  0  1  0  0  0  0  0  0
  -30.7800  -17.2090   18.5370 C   0  0  2  0  0  0  0  0  0  0  0  0
  1  4  2  0
  1  2  1  0
  2  6  2  0
  4  5  1  0
  5  7  1  0
  5  3  2  0
  6 12  1  0
  6  3  1  0
  8 12  1  0
  9 10  2  0
 11 14  1  0
 11  8  1  0
 11  9  1  0
 12 10  1  0
 13  8  2  0
 14 15  1  0
 15 17  1  0
 16 27  2  0
 17 22  1  0
 18 26  1  0
 18 28  1  0
 19 25  1  0
 19 21  1  0
 20 26  1  0
 21 20  1  0
 22 21  2  0
 23 24  1  0
 23 17  2  0
 24 19  2  0
 25 18  1  0
 26 16  1  0
 28 30  2  0
 29 28  1  0
 31 29  1  0
 32 41  2  0
 32 37  1  0
 33 29  1  0
 33 37  1  0
 34 33  1  0
 35 36  1  0
 35 34  1  0
 36 32  1  0
 37 38  2  0
 38 39  1  0
 40 39  2  0
 41 40  1  0
 42 16  1  0
 42 47  1  0
 42 43  1  0
 43 46  1  1
 43 44  1  0
 45 43  1  0
 47 50  1  0
 48 52  1  0
 48 47  1  0
 49 48  2  0
 52 51  1  0
 54 52  1  0
 54 55  1  0
 54 53  1  0
 56 98  1  0
 56 65  1  0
 56  4  1  0
 58 63  1  0
 59 60  1  0
 59 58  1  0
 61 60  1  0
 61 70  1  0
 61 62  1  0
 63 57  1  0
 63 62  1  0
 64 57  2  0
 65 66  1  0
 65 57  1  0
 67 68  2  0
 68 69  1  0
 68 87  1  0
 69 72  1  0
 70 67  1  0
 70 71  1  0
 71 69  2  0
 72 73  1  0
 73 74  2  0
 75 78  1  0
 75 74  1  0
 76 75  2  0
 77 76  1  0
 77 72  2  0
 78 79  1  0
 79 84  2  0
 79 80  1  0
 80 81  2  0
 81 82  1  0
 82 86  1  0
 83 82  2  0
 84 83  1  0
 85 84  1  0
 87 88  1  0
 88 91  1  0
 88 90  1  0
 89 87  2  0
 92 93  1  0
 92 67  1  0
 94 92  1  0
 98 95  1  6
 96 98  1  0
 97 98  1  0
M  ISO  4  14 101  15 101  57 100  65 100
M  END
>  <TORSDO>  (64) 
F 20

>  <SCORE>  (64) 
-13.251

>  <name>  (64) 
63

>  <ligand_id>  (64) 
63

>  <original_smiles>  (64) 
[H]c1c([H])c([H])c2c(c1[H])C([H])([H])C([H])([H])C([H])([H])C2([H])N([H])C(=O)C1([H])N(C(=O)C([H])(N([H])C(=O)C([H])(N([H])C([H])([H])[H])C([H])([H])[H])C(C([H])([H])[H])(C([H])([H])[H])C([H])([H])[H])C([H])([H])c2c([H])c(OC([H])([H])C3([H])C(=O)N(c4c([H])c([H])c(C([H])(N([H])C(=O)N5C([H])([H])C([H])([H])C([H])([H])C([H])(n6nc(-c7c([H])c([H])c(Oc8c([H])c([H])c(F)c([H])c8F)c([H])c7[H])c(C(=O)N([H])[H])c6N([H])[H])C5([H])[H])C(C([H])([H])[H])(C([H])([H])[H])C([H])([H])[H])c(C([H])([H])[H])c4[H])C([H])([H])C3([H])[H])c([H])c([H])c2C1([H])[H]

>  <smiles>  (64) 
[H]c1c([H])c([H])c2c(c1[H])C([H])([H])C([H])([H])C([H])([H])C2([H])N([H])C(=O)C1([H])N(C(=O)C([H])(N([H])C(=O)C([H])(N([H])C([H])([H])[H])C([H])([H])[H])C(C([H])([H])[H])(C([H])([H])[H])C([H])([H])[H])C([H])([H])c2c([H])c(OC([H])([H])C3([H])C(=O)N(c4c([H])c([H])c(C([H])(N([H])C(=O)N5C([H])([H])C([H])([H])C([H])([H])C([H])(n6nc(-c7c([H])c([H])c(Oc8c([H])c([H])c(F)c([H])c8F)c([H])c7[H])c(C(=O)N([H])[H])c6N([H])[H])C5([H])[H])C(C([H])([H])[H])(C([H])([H])[H])C([H])([H])[H])c(C([H])([H])[H])c4[H])C([H])([H])C3([H])[H])c([H])c([H])c2C1([H])[H]

$$$$
64:0:0
     RDKit          3D

 94103  0  0  1  0  0  0  0  0999 V2000
  -28.5180  -22.4130   21.2720 C   0  0  0  0  0  0  0  0  0  0  0  0
  -29.5490  -22.5230   19.4710 C   0  0  0  0  0  2  0  0  0  0  0  0
  -29.0700  -23.6880   20.4500 C   0  0  2  0  0  0  0  0  0  0  0  0
  -30.1470  -24.4030   21.2900 C   0  0  0  0  0  1  0  0  0  0  0  0
  -29.1440  -21.4570   20.4210 N   0  0  0  0  0  0  0  0  0  0  0  0
  -27.9090  -22.2490   22.3070 O   0  0  0  0  0  0  0  0  0  0  0  0
  -29.4760  -18.7610   20.3300 C   0  0  0  0  0  3  0  0  0  0  0  0
  -31.5620  -17.7460   21.0350 C   0  0  0  0  0  3  0  0  0  0  0  0
  -31.2290  -20.1870   21.1610 C   0  0  0  0  0  0  0  0  0  0  0  0
  -29.9080  -20.1520   20.6060 C   0  0  0  0  0  0  0  0  0  0  0  0
  -30.2670  -17.5280   20.5350 C   0  0  0  0  0  0  0  0  0  0  0  0
  -32.0260  -19.0300   21.3390 C   0  0  0  0  0  0  0  0  0  0  0  0
  -31.8550  -21.4900   21.6280 C   0  0  0  0  0  1  0  0  0  0  0  0
  -33.2810  -19.1410   21.8400 F   0  0  0  0  0  0  0  0  0  0  0  0
  -30.5840  -14.9040   20.2070 C   0  0  0  0  0  0  0  0  0  0  0  0
  -30.3780  -12.5880   19.2510 C   0  0  0  0  0  2  0  0  0  0  0  0
  -29.4200  -12.5790   18.0390 C   0  0  0  0  0  2  0  0  0  0  0  0
  -27.9630  -12.3920   18.5040 C   0  0  0  0  0  2  0  0  0  0  0  0
  -27.5900  -13.3240   19.6870 C   0  0  0  0  0  3  0  0  0  0  0  0
  -28.6680  -13.3190   20.7930 C   0  0  0  0  0  2  0  0  0  0  0  0
  -29.9400  -13.6810   20.1550 N   0  0  0  0  0  0  0  0  0  0  0  0
  -31.7800  -14.9410   19.9010 O   0  0  0  0  0  0  0  0  0  0  0  0
  -29.8380  -16.0920   20.3410 N   0  0  0  0  0  0  0  0  0  0  0  0
  -28.8410  -15.9420   20.3440 H   0  0  0  0  0  0  0  0  0  0  0  0
  -25.2280  -13.9160   20.4830 C   0  0  0  0  0  0  0  0  0  0  0  0
  -24.1660  -13.1450   20.8660 C   0  0  0  0  0  0  0  0  0  0  0  0
  -24.6190  -11.7910   20.8090 C   0  0  0  0  0  0  0  0  0  0  0  0
  -26.2600  -13.0340   20.2110 N   0  0  0  0  0  0  0  0  0  0  0  0
  -25.9030  -11.7500   20.4720 N   0  0  0  0  0  0  0  0  0  0  0  0
  -23.8890  -10.5320   20.9970 C   0  0  0  0  0  0  0  0  0  0  0  0
  -24.3160   -9.5620   21.9300 C   0  0  0  0  0  3  0  0  0  0  0  0
  -23.5820   -8.3670   22.1080 C   0  0  0  0  0  3  0  0  0  0  0  0
  -22.4080   -8.1370   21.3520 C   0  0  0  0  0  0  0  0  0  0  0  0
  -22.0000   -9.0960   20.4090 C   0  0  0  0  0  3  0  0  0  0  0  0
  -22.7340  -10.2810   20.2300 C   0  0  0  0  0  3  0  0  0  0  0  0
  -21.6480   -6.9950   21.4380 O   0  0  0  0  0  0  0  0  0  0  0  0
  -21.5740   -6.2660   22.5970 C   0  0  0  0  0  0  0  0  0  0  0  0
  -21.1090   -6.8320   23.8050 C   0  0  0  0  0  3  0  0  0  0  0  0
  -20.9830   -6.0280   24.9560 C   0  0  0  0  0  3  0  0  0  0  0  0
  -21.3110   -4.6610   24.9000 C   0  0  0  0  0  0  0  0  0  0  0  0
  -21.7690   -4.0950   23.6970 C   0  0  0  0  0  3  0  0  0  0  0  0
  -21.8970   -4.8950   22.5490 C   0  0  0  0  0  0  0  0  0  0  0  0
  -22.3180   -4.3400   21.3860 F   0  0  0  0  0  0  0  0  0  0  0  0
  -21.1840   -3.8870   26.0030 F   0  0  0  0  0  0  0  0  0  0  0  0
  -22.7780  -13.6290   21.1680 C   0  0  0  0  0  0  0  0  0  0  0  0
  -22.0600  -12.9280   22.0370 N   0  0  0  0  0  0  0  0  0  0  0  0
  -22.3400  -14.6650   20.6680 O   0  0  0  0  0  0  0  0  0  0  0  0
  -22.4270  -12.0920   22.4660 H   0  0  0  0  0  0  0  0  0  0  0  0
  -21.1280  -13.2360   22.2810 H   0  0  0  0  0  0  0  0  0  0  0  0
  -25.3960  -15.2880   20.3170 N   0  0  0  0  0  0  0  0  0  0  0  0
  -24.6290  -15.9410   20.4430 H   0  0  0  0  0  0  0  0  0  0  0  0
  -26.2250  -15.7260   19.9340 H   0  0  0  0  0  0  0  0  0  0  0  0
  -27.9830  -24.8590   20.0500 C   0  0  0  0  0  2  0  0  0  0  0  0
  -28.2190  -26.3630   20.2170 O   0  0  0  0  0  0  0  0  0  0  0  0
  -24.5900  -31.9280   23.2330 C   0  0  0  0  0  0  0  0  0  0  0  0
  -27.1390  -27.2900   20.1550 C   0  0  0  0  0  0  0  0  0  0  0  0
  -23.3700  -30.5400   21.5990 C   0  0  0  0  0  3  0  0  0  0  0  0
  -24.8020  -28.9810   20.1520 C   0  0  0  0  0  0  0  0  0  0  0  0
  -25.9150  -30.8260   21.4030 C   0  0  0  0  0  2  0  0  0  0  0  0
  -25.9820  -29.4430   20.7460 C   0  0  0  0  0  0  0  0  0  0  0  0
  -27.1540  -28.6120   20.7320 C   0  0  0  0  0  3  0  0  0  0  0  0
  -25.9340  -26.9090   19.5240 C   0  0  0  0  0  3  0  0  0  0  0  0
  -24.7850  -27.7250   19.5280 C   0  0  0  0  0  3  0  0  0  0  0  0
  -23.5730  -29.8700   20.2130 C   0  0  0  0  0  2  0  0  0  0  0  0
  -24.6450  -31.1160   22.1340 N   0  0  0  0  0  0  0  0  0  0  0  0
  -23.5100  -32.2080   23.7750 O   0  0  0  0  0  0  0  0  0  0  0  0
  -22.7050  -29.5260   22.5620 C   0  0  0  0  0  0  0  0  0  0  0  0
  -21.3770  -29.3500   22.4400 N   0  0  0  0  0  0  0  0  0  0  0  0
  -23.3840  -28.9010   23.3810 O   0  0  0  0  0  0  0  0  0  0  0  0
  -20.8860  -29.9050   21.7530 H   0  0  0  0  0  0  0  0  0  0  0  0
  -18.0030  -28.1460   22.9570 C   0  0  0  0  0  0  0  0  0  0  0  0
  -20.5630  -28.4120   23.2150 C   0  0  0  0  0  3  0  0  0  0  0  0
  -20.6650  -26.9800   22.6410 C   0  0  0  0  0  2  0  0  0  0  0  0
  -19.5600  -26.6540   21.6310 C   0  0  0  0  0  2  0  0  0  0  0  0
  -18.1800  -26.7970   22.2800 C   0  0  0  0  0  2  0  0  0  0  0  0
  -19.1210  -28.9100   23.3820 C   0  0  0  0  0  0  0  0  0  0  0  0
  -18.9010  -30.1720   23.9750 C   0  0  0  0  0  3  0  0  0  0  0  0
  -17.5950  -30.6710   24.1470 C   0  0  0  0  0  3  0  0  0  0  0  0
  -16.4920  -29.9040   23.7360 C   0  0  0  0  0  3  0  0  0  0  0  0
  -16.6970  -28.6430   23.1470 C   0  0  0  0  0  3  0  0  0  0  0  0
  -25.8780  -32.5550   23.8470 C   0  0  0  0  0  3  0  0  0  0  0  0
  -25.5720  -33.9530   24.1880 N   0  0  0  0  0  0  0  0  0  0  0  0
  -25.8930  -35.0110   23.4310 C   0  0  0  0  0  0  0  0  0  0  0  0
  -26.5450  -34.9120   22.3890 O   0  0  0  0  0  0  0  0  0  0  0  0
  -24.9890  -34.1040   24.9980 H   0  0  0  0  0  0  0  0  0  0  0  0
  -24.1590  -36.8100   23.1220 C   0  0  0  0  0  1  0  0  0  0  0  0
  -25.4170  -36.3980   23.9060 C   0  0  0  0  0  3  0  0  0  0  0  0
  -27.5670  -37.2810   24.6990 C   0  0  0  0  0  1  0  0  0  0  0  0
  -26.4480  -37.4520   23.7770 N   0  0  0  0  0  0  0  0  0  0  0  0
  -26.0440  -38.3710   23.9340 H   0  0  0  0  0  0  0  0  0  0  0  0
  -26.4010  -31.7790   25.1180 C   0  0  1  0  0  0  0  0  0  0  0  0
  -25.3150  -31.5390   26.1920 C   0  0  0  0  0  1  0  0  0  0  0  0
  -26.9780  -30.4000   24.7210 C   0  0  0  0  0  1  0  0  0  0  0  0
  -27.5570  -32.5680   25.7750 C   0  0  0  0  0  1  0  0  0  0  0  0
  1  6  2  0
  2  5  1  0
  2  3  1  0
  3  1  1  0
  3  4  1  1
  5 10  1  0
  5  1  1  0
  7 11  2  0
  7 10  1  0
  8 12  2  0
  9 12  1  0
  9 13  1  0
 10  9  2  0
 11  8  1  0
 12 14  1  0
 15 23  1  0
 16 21  1  0
 17 18  1  0
 17 16  1  0
 19 18  1  0
 19 28  1  0
 19 20  1  0
 21 15  1  0
 21 20  1  0
 22 15  2  0
 23 24  1  0
 23 11  1  0
 25 26  2  0
 26 45  1  0
 27 26  1  0
 27 30  1  0
 28 29  1  0
 28 25  1  0
 29 27  2  0
 30 31  1  0
 31 32  2  0
 33 36  1  0
 33 32  1  0
 34 33  2  0
 35 34  1  0
 35 30  2  0
 36 37  1  0
 37 38  1  0
 38 39  2  0
 40 39  1  0
 40 44  1  0
 41 40  2  0
 42 37  2  0
 42 41  1  0
 43 42  1  0
 45 46  1  0
 46 49  1  0
 46 48  1  0
 47 45  2  0
 50 51  1  0
 50 25  1  0
 52 50  1  0
 53 54  1  0
 53  3  1  0
 55 66  2  0
 56 54  1  0
 56 61  1  0
 57 65  1  0
 57 67  1  0
 58 64  1  0
 58 60  1  0
 59 65  1  0
 60 59  1  0
 61 60  2  0
 62 63  1  0
 62 56  2  0
 63 58  2  0
 64 57  1  0
 65 55  1  0
 67 69  2  0
 68 67  1  0
 70 68  1  0
 71 80  2  0
 71 76  1  0
 72 68  1  0
 72 76  1  0
 73 72  1  0
 74 75  1  0
 74 73  1  0
 75 71  1  0
 76 77  2  0
 77 78  1  0
 79 78  2  0
 80 79  1  0
 81 55  1  0
 81 82  1  0
 81 91  1  0
 82 85  1  0
 83 87  1  0
 83 82  1  0
 84 83  2  0
 87 86  1  0
 89 87  1  0
 89 90  1  0
 89 88  1  0
 91 94  1  1
 91 92  1  0
 93 91  1  0
M  ISO  4  15 100  23 100  53 101  54 101
M  END
>  <TORSDO>  (65) 
F 18

>  <SCORE>  (65) 
-14.955

>  <name>  (65) 
64

>  <ligand_id>  (65) 
64

>  <original_smiles>  (65) 
[H]c1c([H])c([H])c2c(c1[H])C([H])([H])C([H])([H])C([H])([H])C2([H])N([H])C(=O)C1([H])N(C(=O)C([H])(N([H])C(=O)C([H])(N([H])C([H])([H])[H])C([H])([H])[H])C(C([H])([H])[H])(C([H])([H])[H])C([H])([H])[H])C([H])([H])c2c([H])c(OC([H])([H])C3(C([H])([H])[H])C(=O)N(c4c([H])c(N([H])C(=O)N5C([H])([H])C([H])([H])C([H])([H])C([H])(n6nc(-c7c([H])c([H])c(Oc8c([H])c([H])c(F)c([H])c8F)c([H])c7[H])c(C(=O)N([H])[H])c6N([H])[H])C5([H])[H])c([H])c(F)c4C([H])([H])[H])C3([H])[H])c([H])c([H])c2C1([H])[H]

>  <smiles>  (65) 
[H]c1c([H])c([H])c2c(c1[H])C([H])([H])C([H])([H])C([H])([H])C2([H])N([H])C(=O)C1([H])N(C(=O)C([H])(N([H])C(=O)C([H])(N([H])C([H])([H])[H])C([H])([H])[H])C(C([H])([H])[H])(C([H])([H])[H])C([H])([H])[H])C([H])([H])c2c([H])c(OC([H])([H])C3(C([H])([H])[H])C(=O)N(c4c([H])c(N([H])C(=O)N5C([H])([H])C([H])([H])C([H])([H])C([H])(n6nc(-c7c([H])c([H])c(Oc8c([H])c([H])c(F)c([H])c8F)c([H])c7[H])c(C(=O)N([H])[H])c6N([H])[H])C5([H])[H])c([H])c(F)c4C([H])([H])[H])C3([H])[H])c([H])c([H])c2C1([H])[H]

$$$$
65:0:0
     RDKit          3D

 96105  0  0  1  0  0  0  0  0999 V2000
  -28.7520  -19.5600   20.6470 C   0  0  0  0  0  3  0  0  0  0  0  0
  -28.7780  -18.1350   20.6770 C   0  0  0  0  0  3  0  0  0  0  0  0
  -31.1030  -18.1650   20.2030 C   0  0  0  0  0  3  0  0  0  0  0  0
  -31.0750  -19.6140   20.1690 C   0  0  0  0  0  0  0  0  0  0  0  0
  -29.8760  -20.3960   20.3940 C   0  0  0  0  0  0  0  0  0  0  0  0
  -29.9470  -17.3700   20.4490 C   0  0  0  0  0  0  0  0  0  0  0  0
  -30.6170  -14.8120   20.1460 C   0  0  0  0  0  0  0  0  0  0  0  0
  -30.3580  -12.5560   19.0920 C   0  0  0  0  0  2  0  0  0  0  0  0
  -29.3660  -12.6600   17.9120 C   0  0  0  0  0  2  0  0  0  0  0  0
  -27.9190  -12.4660   18.4020 C   0  0  0  0  0  2  0  0  0  0  0  0
  -27.5930  -13.3410   19.6390 C   0  0  0  0  0  3  0  0  0  0  0  0
  -28.6980  -13.2400   20.7170 C   0  0  0  0  0  2  0  0  0  0  0  0
  -29.9840  -13.5890   20.0840 N   0  0  0  0  0  0  0  0  0  0  0  0
  -31.7770  -14.9410   19.7450 O   0  0  0  0  0  0  0  0  0  0  0  0
  -29.8300  -15.8920   20.4940 N   0  0  0  0  0  0  0  0  0  0  0  0
  -28.9080  -15.5790   20.7550 H   0  0  0  0  0  0  0  0  0  0  0  0
  -25.2360  -13.9220   20.4720 C   0  0  0  0  0  0  0  0  0  0  0  0
  -24.1830  -13.1410   20.8700 C   0  0  0  0  0  0  0  0  0  0  0  0
  -24.6430  -11.7910   20.7950 C   0  0  0  0  0  0  0  0  0  0  0  0
  -26.2680  -13.0450   20.1790 N   0  0  0  0  0  0  0  0  0  0  0  0
  -25.9210  -11.7590   20.4370 N   0  0  0  0  0  0  0  0  0  0  0  0
  -23.9250  -10.5250   20.9920 C   0  0  0  0  0  0  0  0  0  0  0  0
  -24.3760   -9.5510   21.9100 C   0  0  0  0  0  3  0  0  0  0  0  0
  -23.6550   -8.3520   22.0940 C   0  0  0  0  0  3  0  0  0  0  0  0
  -22.4670   -8.1170   21.3630 C   0  0  0  0  0  0  0  0  0  0  0  0
  -22.0340   -9.0800   20.4340 C   0  0  0  0  0  3  0  0  0  0  0  0
  -22.7570  -10.2700   20.2470 C   0  0  0  0  0  3  0  0  0  0  0  0
  -21.7180   -6.9710   21.4560 O   0  0  0  0  0  0  0  0  0  0  0  0
  -21.6680   -6.2350   22.6130 C   0  0  0  0  0  0  0  0  0  0  0  0
  -21.1820   -6.7820   23.8210 C   0  0  0  0  0  3  0  0  0  0  0  0
  -21.0810   -5.9720   24.9700 C   0  0  0  0  0  3  0  0  0  0  0  0
  -21.4570   -4.6170   24.9120 C   0  0  0  0  0  0  0  0  0  0  0  0
  -21.9390   -4.0700   23.7100 C   0  0  0  0  0  3  0  0  0  0  0  0
  -22.0400   -4.8770   22.5630 C   0  0  0  0  0  0  0  0  0  0  0  0
  -22.4830   -4.3390   21.4010 F   0  0  0  0  0  0  0  0  0  0  0  0
  -21.3540   -3.8380   26.0150 F   0  0  0  0  0  0  0  0  0  0  0  0
  -22.7990  -13.6130   21.2040 C   0  0  0  0  0  0  0  0  0  0  0  0
  -22.1090  -12.9080   22.0930 N   0  0  0  0  0  0  0  0  0  0  0  0
  -22.3370  -14.6420   20.7110 O   0  0  0  0  0  0  0  0  0  0  0  0
  -22.4990  -12.0760   22.5110 H   0  0  0  0  0  0  0  0  0  0  0  0
  -21.1810  -13.2020   22.3630 H   0  0  0  0  0  0  0  0  0  0  0  0
  -25.3940  -15.2950   20.3110 N   0  0  0  0  0  0  0  0  0  0  0  0
  -24.6330  -15.9470   20.4660 H   0  0  0  0  0  0  0  0  0  0  0  0
  -26.2110  -15.7340   19.9080 H   0  0  0  0  0  0  0  0  0  0  0  0
  -32.3810  -20.3110   19.9000 C   0  0  0  0  0  0  0  0  0  0  0  0
  -33.3510  -20.0930   20.7790 N   0  0  0  0  0  0  0  0  0  0  0  0
  -32.5470  -21.0390   18.9240 O   0  0  0  0  0  0  0  0  0  0  0  0
  -33.1780  -19.5240   21.5940 H   0  0  0  0  0  0  0  0  0  0  0  0
  -34.2500  -20.5380   20.6640 H   0  0  0  0  0  0  0  0  0  0  0  0
  -28.9350  -22.7770   21.1940 C   0  0  0  0  0  0  0  0  0  0  0  0
  -29.6790  -22.7400   19.2850 C   0  0  0  0  0  2  0  0  0  0  0  0
  -29.3400  -23.9580   20.2240 C   0  0  0  0  0  3  0  0  0  0  0  0
  -29.7550  -21.8790   20.4810 N   0  0  0  0  0  0  0  0  0  0  0  0
  -28.1590  -22.5990   22.1110 O   0  0  0  0  0  0  0  0  0  0  0  0
  -28.2160  -25.0580   19.8930 C   0  0  0  0  0  2  0  0  0  0  0  0
  -28.3770  -26.5080   20.2260 O   0  0  0  0  0  0  0  0  0  0  0  0
  -24.6220  -31.8820   23.3060 C   0  0  0  0  0  0  0  0  0  0  0  0
  -27.2490  -27.3630   20.1800 C   0  0  0  0  0  0  0  0  0  0  0  0
  -23.4210  -30.5080   21.6410 C   0  0  0  0  0  3  0  0  0  0  0  0
  -24.8750  -28.9840   20.1920 C   0  0  0  0  0  0  0  0  0  0  0  0
  -25.9620  -30.8320   21.4660 C   0  0  0  0  0  2  0  0  0  0  0  0
  -26.0450  -29.4640   20.7930 C   0  0  0  0  0  0  0  0  0  0  0  0
  -27.2330  -28.6670   20.7730 C   0  0  0  0  0  3  0  0  0  0  0  0
  -26.0460  -26.9410   19.5640 C   0  0  0  0  0  3  0  0  0  0  0  0
  -24.8780  -27.7280   19.5690 C   0  0  0  0  0  3  0  0  0  0  0  0
  -23.6420  -29.8620   20.2480 C   0  0  0  0  0  2  0  0  0  0  0  0
  -24.6860  -31.0910   22.1950 N   0  0  0  0  0  0  0  0  0  0  0  0
  -23.5380  -32.1530   23.8430 O   0  0  0  0  0  0  0  0  0  0  0  0
  -22.7560  -29.4760   22.5860 C   0  0  0  0  0  0  0  0  0  0  0  0
  -21.4310  -29.2930   22.4490 N   0  0  0  0  0  0  0  0  0  0  0  0
  -23.4310  -28.8480   23.4050 O   0  0  0  0  0  0  0  0  0  0  0  0
  -20.9450  -29.8570   21.7680 H   0  0  0  0  0  0  0  0  0  0  0  0
  -18.0570  -28.0720   22.9190 C   0  0  0  0  0  0  0  0  0  0  0  0
  -20.6130  -28.3420   23.2070 C   0  0  0  0  0  3  0  0  0  0  0  0
  -20.7240  -26.9150   22.6190 C   0  0  0  0  0  2  0  0  0  0  0  0
  -19.6300  -26.5990   21.5930 C   0  0  0  0  0  2  0  0  0  0  0  0
  -18.2440  -26.7310   22.2310 C   0  0  0  0  0  2  0  0  0  0  0  0
  -19.1690  -28.8350   23.3660 C   0  0  0  0  0  0  0  0  0  0  0  0
  -18.9380  -30.0880   23.9730 C   0  0  0  0  0  3  0  0  0  0  0  0
  -17.6280  -30.5780   24.1370 C   0  0  0  0  0  3  0  0  0  0  0  0
  -16.5320  -29.8150   23.7030 C   0  0  0  0  0  3  0  0  0  0  0  0
  -16.7470  -28.5630   23.1000 C   0  0  0  0  0  3  0  0  0  0  0  0
  -25.9020  -32.5050   23.9380 C   0  0  0  0  0  3  0  0  0  0  0  0
  -26.3940  -31.7400   25.2300 C   0  0  1  0  0  0  0  0  0  0  0  0
  -25.2850  -31.5220   26.2860 C   0  0  0  0  0  1  0  0  0  0  0  0
  -26.9690  -30.3530   24.8590 C   0  0  0  0  0  1  0  0  0  0  0  0
  -27.5440  -32.5280   25.8990 C   0  0  0  0  0  1  0  0  0  0  0  0
  -25.6040  -33.9090   24.2510 N   0  0  0  0  0  0  0  0  0  0  0  0
  -25.9220  -34.9500   23.4680 C   0  0  0  0  0  0  0  0  0  0  0  0
  -26.5650  -34.8270   22.4220 O   0  0  0  0  0  0  0  0  0  0  0  0
  -25.0260  -34.0780   25.0610 H   0  0  0  0  0  0  0  0  0  0  0  0
  -24.1820  -36.7370   23.1410 C   0  0  0  0  0  1  0  0  0  0  0  0
  -25.4510  -36.3470   23.9160 C   0  0  0  0  0  3  0  0  0  0  0  0
  -27.6100  -37.2540   24.6560 C   0  0  0  0  0  1  0  0  0  0  0  0
  -26.4780  -37.3980   23.7450 N   0  0  0  0  0  0  0  0  0  0  0  0
  -26.0750  -38.3200   23.8860 H   0  0  0  0  0  0  0  0  0  0  0  0
  1  2  1  0
  3  6  1  0
  4  3  2  0
  4  5  1  0
  5 53  1  0
  5  1  2  0
  6 15  1  0
  6  2  2  0
  7 15  1  0
  8 13  1  0
  9 10  1  0
  9  8  1  0
 11 10  1  0
 11 20  1  0
 11 12  1  0
 13  7  1  0
 13 12  1  0
 14  7  2  0
 15 16  1  0
 17 18  2  0
 18 37  1  0
 19 18  1  0
 19 22  1  0
 20 21  1  0
 20 17  1  0
 21 19  2  0
 22 23  1  0
 23 24  2  0
 25 28  1  0
 25 24  1  0
 26 25  2  0
 27 26  1  0
 27 22  2  0
 28 29  1  0
 29 30  1  0
 30 31  2  0
 32 31  1  0
 32 36  1  0
 33 32  2  0
 34 29  2  0
 34 33  1  0
 35 34  1  0
 37 38  1  0
 38 41  1  0
 38 40  1  0
 39 37  2  0
 42 43  1  0
 42 17  1  0
 44 42  1  0
 45  4  1  0
 45 46  1  0
 46 48  1  0
 47 45  2  0
 49 46  1  0
 50 54  2  0
 51 52  1  0
 51 53  1  0
 52 55  1  0
 52 50  1  0
 53 50  1  0
 55 56  1  0
 57 68  2  0
 58 56  1  0
 58 63  1  0
 59 67  1  0
 59 69  1  0
 60 66  1  0
 60 62  1  0
 61 67  1  0
 62 61  1  0
 63 62  2  0
 64 65  1  0
 64 58  2  0
 65 60  2  0
 66 59  1  0
 67 57  1  0
 69 71  2  0
 70 69  1  0
 72 70  1  0
 73 82  2  0
 73 78  1  0
 74 70  1  0
 74 78  1  0
 75 74  1  0
 76 77  1  0
 76 75  1  0
 77 73  1  0
 78 79  2  0
 79 80  1  0
 81 80  2  0
 82 81  1  0
 83 57  1  0
 83 88  1  0
 83 84  1  0
 84 87  1  1
 84 85  1  0
 86 84  1  0
 88 91  1  0
 89 93  1  0
 89 88  1  0
 90 89  2  0
 93 92  1  0
 95 96  1  0
 95 93  1  0
 95 94  1  0
M  ISO  4   7 100  15 100  55 101  56 101
M  END
>  <TORSDO>  (66) 
F 19

>  <SCORE>  (66) 
-14.418

>  <name>  (66) 
65

>  <ligand_id>  (66) 
65

>  <original_smiles>  (66) 
[H]c1c([H])c([H])c2c(c1[H])C([H])([H])C([H])([H])C([H])([H])C2([H])N([H])C(=O)C1([H])N(C(=O)C([H])(N([H])C(=O)C([H])(N([H])C([H])([H])[H])C([H])([H])[H])C(C([H])([H])[H])(C([H])([H])[H])C([H])([H])[H])C([H])([H])c2c([H])c(OC([H])([H])C3([H])C(=O)N(c4c([H])c([H])c(N([H])C(=O)N5C([H])([H])C([H])([H])C([H])([H])C([H])(n6nc(-c7c([H])c([H])c(Oc8c([H])c([H])c(F)c([H])c8F)c([H])c7[H])c(C(=O)N([H])[H])c6N([H])[H])C5([H])[H])c([H])c4C(=O)N([H])[H])C3([H])[H])c([H])c([H])c2C1([H])[H]

>  <smiles>  (66) 
[H]c1c([H])c([H])c2c(c1[H])C([H])([H])C([H])([H])C([H])([H])C2([H])N([H])C(=O)C1([H])N(C(=O)C([H])(N([H])C(=O)C([H])(N([H])C([H])([H])[H])C([H])([H])[H])C(C([H])([H])[H])(C([H])([H])[H])C([H])([H])[H])C([H])([H])c2c([H])c(OC([H])([H])C3([H])C(=O)N(c4c([H])c([H])c(N([H])C(=O)N5C([H])([H])C([H])([H])C([H])([H])C([H])(n6nc(-c7c([H])c([H])c(Oc8c([H])c([H])c(F)c([H])c8F)c([H])c7[H])c(C(=O)N([H])[H])c6N([H])[H])C5([H])[H])c([H])c4C(=O)N([H])[H])C3([H])[H])c([H])c([H])c2C1([H])[H]

$$$$
66:0:0
     RDKit          3D

 95104  0  0  1  0  0  0  0  0999 V2000
  -30.9800  -24.7910   18.8050 C   0  0  0  0  0  3  0  0  0  0  0  0
  -29.9430  -24.4800   19.6040 C   0  0  0  0  0  0  0  0  0  0  0  0
  -32.1430  -23.8470   18.5490 C   0  0  0  0  0  2  0  0  0  0  0  0
  -29.8580  -23.1250   20.3100 C   0  0  0  0  0  2  0  0  0  0  0  0
  -32.1450  -22.6060   19.4640 C   0  0  0  0  0  2  0  0  0  0  0  0
  -30.7880  -22.1370   19.7580 N   0  0  0  0  0  0  0  0  0  0  0  0
  -30.7390  -18.4240   19.3710 C   0  0  0  0  0  3  0  0  0  0  0  0
  -30.8720  -19.7970   19.0830 C   0  0  0  0  0  3  0  0  0  0  0  0
  -30.2640  -20.3230   21.3690 C   0  0  0  0  0  3  0  0  0  0  0  0
  -30.3840  -17.9700   20.6630 C   0  0  0  0  0  0  0  0  0  0  0  0
  -30.1430  -18.9420   21.6750 C   0  0  0  0  0  0  0  0  0  0  0  0
  -30.6400  -20.7670   20.0770 C   0  0  0  0  0  0  0  0  0  0  0  0
  -29.7920  -18.5470   23.1050 C   0  0  0  0  0  1  0  0  0  0  0  0
  -31.8310  -14.6520   20.2450 C   0  0  0  0  0  0  0  0  0  0  0  0
  -31.4130  -12.4890   19.1450 C   0  0  0  0  0  2  0  0  0  0  0  0
  -30.3860  -12.6040   18.0040 C   0  0  0  0  0  2  0  0  0  0  0  0
  -28.9630  -12.4120   18.5570 C   0  0  0  0  0  2  0  0  0  0  0  0
  -28.6840  -13.2840   19.8120 C   0  0  0  0  0  3  0  0  0  0  0  0
  -29.8330  -13.1510   20.8430 C   0  0  0  0  0  2  0  0  0  0  0  0
  -31.0740  -13.5170   20.1530 N   0  0  0  0  0  0  0  0  0  0  0  0
  -32.9430  -14.7110   19.7250 O   0  0  0  0  0  0  0  0  0  0  0  0
  -30.2480  -16.4780   20.8850 C   0  0  0  0  0  0  0  0  0  0  0  0
  -31.4140  -15.8430   20.7150 N   0  0  0  0  0  0  0  0  0  0  0  0
  -29.1600  -15.9860   21.1780 O   0  0  0  0  0  0  0  0  0  0  0  0
  -32.1640  -16.5100   20.6480 H   0  0  0  0  0  0  0  0  0  0  0  0
  -26.3780  -13.8570   20.7910 C   0  0  0  0  0  0  0  0  0  0  0  0
  -25.3290  -13.0670   21.1780 C   0  0  0  0  0  0  0  0  0  0  0  0
  -25.7620  -11.7190   20.9890 C   0  0  0  0  0  0  0  0  0  0  0  0
  -27.3810  -12.9870   20.3960 N   0  0  0  0  0  0  0  0  0  0  0  0
  -27.0190  -11.6910   20.5690 N   0  0  0  0  0  0  0  0  0  0  0  0
  -25.0340  -10.4540   21.1300 C   0  0  0  0  0  0  0  0  0  0  0  0
  -25.3560   -9.5270   22.1450 C   0  0  0  0  0  3  0  0  0  0  0  0
  -24.6300   -8.3250   22.2720 C   0  0  0  0  0  3  0  0  0  0  0  0
  -23.5680   -8.0410   21.3810 C   0  0  0  0  0  0  0  0  0  0  0  0
  -23.2660   -8.9560   20.3580 C   0  0  0  0  0  3  0  0  0  0  0  0
  -23.9930  -10.1520   20.2310 C   0  0  0  0  0  3  0  0  0  0  0  0
  -22.8250   -6.8860   21.4120 O   0  0  0  0  0  0  0  0  0  0  0  0
  -22.4120   -6.3290   22.5950 C   0  0  0  0  0  0  0  0  0  0  0  0
  -21.6020   -7.0380   23.5090 C   0  0  0  0  0  3  0  0  0  0  0  0
  -21.1380   -6.4050   24.6790 C   0  0  0  0  0  3  0  0  0  0  0  0
  -21.4740   -5.0610   24.9320 C   0  0  0  0  0  0  0  0  0  0  0  0
  -22.2760   -4.3510   24.0210 C   0  0  0  0  0  3  0  0  0  0  0  0
  -22.7390   -4.9840   22.8540 C   0  0  0  0  0  0  0  0  0  0  0  0
  -23.4940   -4.2890   21.9680 F   0  0  0  0  0  0  0  0  0  0  0  0
  -21.0230   -4.4470   26.0520 F   0  0  0  0  0  0  0  0  0  0  0  0
  -23.9740  -13.5360   21.6230 C   0  0  0  0  0  0  0  0  0  0  0  0
  -23.3450  -12.8100   22.5400 N   0  0  0  0  0  0  0  0  0  0  0  0
  -23.4850  -14.5810   21.1960 O   0  0  0  0  0  0  0  0  0  0  0  0
  -23.7590  -11.9690   22.9130 H   0  0  0  0  0  0  0  0  0  0  0  0
  -22.4410  -13.1060   22.8770 H   0  0  0  0  0  0  0  0  0  0  0  0
  -26.5560  -15.2340   20.7320 N   0  0  0  0  0  0  0  0  0  0  0  0
  -25.8650  -15.8600   21.1320 H   0  0  0  0  0  0  0  0  0  0  0  0
  -27.5080  -15.5940   20.8040 H   0  0  0  0  0  0  0  0  0  0  0  0
  -28.6910  -25.3360   19.6840 C   0  0  0  0  0  2  0  0  0  0  0  0
  -28.8830  -26.7330   19.9870 O   0  0  0  0  0  0  0  0  0  0  0  0
  -24.9620  -31.7070   23.3030 C   0  0  0  0  0  0  0  0  0  0  0  0
  -27.7190  -27.4860   19.9920 C   0  0  0  0  0  0  0  0  0  0  0  0
  -23.8150  -30.4200   21.5360 C   0  0  0  0  0  3  0  0  0  0  0  0
  -25.3200  -29.0020   20.0530 C   0  0  0  0  0  0  0  0  0  0  0  0
  -26.3490  -30.7970   21.4400 C   0  0  0  0  0  2  0  0  0  0  0  0
  -26.4630  -29.4740   20.7090 C   0  0  0  0  0  0  0  0  0  0  0  0
  -27.6660  -28.7260   20.6790 C   0  0  0  0  0  3  0  0  0  0  0  0
  -26.5430  -27.0440   19.3300 C   0  0  0  0  0  3  0  0  0  0  0  0
  -25.3550  -27.7850   19.3650 C   0  0  0  0  0  3  0  0  0  0  0  0
  -24.0710  -29.8490   20.1170 C   0  0  0  0  0  2  0  0  0  0  0  0
  -25.0590  -30.9850   22.1510 N   0  0  0  0  0  0  0  0  0  0  0  0
  -23.8620  -31.9350   23.8270 O   0  0  0  0  0  0  0  0  0  0  0  0
  -23.1460  -29.3240   22.3980 C   0  0  0  0  0  0  0  0  0  0  0  0
  -21.8180  -29.1850   22.2610 N   0  0  0  0  0  0  0  0  0  0  0  0
  -23.8190  -28.6090   23.1460 O   0  0  0  0  0  0  0  0  0  0  0  0
  -21.3340  -29.8150   21.6370 H   0  0  0  0  0  0  0  0  0  0  0  0
  -18.4070  -28.1030   22.7700 C   0  0  0  0  0  0  0  0  0  0  0  0
  -20.9850  -28.1990   22.9510 C   0  0  0  0  0  3  0  0  0  0  0  0
  -20.9850  -26.8460   22.2030 C   0  0  0  0  0  2  0  0  0  0  0  0
  -19.8280  -26.7060   21.2100 C   0  0  0  0  0  2  0  0  0  0  0  0
  -18.4830  -26.8390   21.9300 C   0  0  0  0  0  2  0  0  0  0  0  0
  -19.5820  -28.7500   23.2370 C   0  0  0  0  0  0  0  0  0  0  0  0
  -19.4580  -29.9410   23.9850 C   0  0  0  0  0  3  0  0  0  0  0  0
  -18.1910  -30.4840   24.2680 C   0  0  0  0  0  3  0  0  0  0  0  0
  -17.0310  -29.8340   23.8160 C   0  0  0  0  0  3  0  0  0  0  0  0
  -17.1390  -28.6440   23.0730 C   0  0  0  0  0  3  0  0  0  0  0  0
  -26.2250  -32.3010   23.9990 C   0  0  0  0  0  3  0  0  0  0  0  0
  -25.8880  -33.6640   24.4300 N   0  0  0  0  0  0  0  0  0  0  0  0
  -26.1470  -34.7710   23.7200 C   0  0  0  0  0  0  0  0  0  0  0  0
  -26.7650  -34.7510   22.6510 O   0  0  0  0  0  0  0  0  0  0  0  0
  -25.3270  -33.7500   25.2640 H   0  0  0  0  0  0  0  0  0  0  0  0
  -24.3280  -36.5050   23.5770 C   0  0  0  0  0  1  0  0  0  0  0  0
  -25.6360  -36.1120   24.2810 C   0  0  0  0  0  3  0  0  0  0  0  0
  -27.7730  -37.0590   25.0350 C   0  0  0  0  0  1  0  0  0  0  0  0
  -26.6160  -37.2110   24.1570 N   0  0  0  0  0  0  0  0  0  0  0  0
  -26.1800  -38.1060   24.3610 H   0  0  0  0  0  0  0  0  0  0  0  0
  -26.7250  -31.4350   25.2180 C   0  0  1  0  0  0  0  0  0  0  0  0
  -25.6100  -31.0970   26.2350 C   0  0  0  0  0  1  0  0  0  0  0  0
  -27.3400  -30.1010   24.7290 C   0  0  0  0  0  1  0  0  0  0  0  0
  -27.8460  -32.1890   25.9700 C   0  0  0  0  0  1  0  0  0  0  0  0
  1  2  2  0
  2 54  1  0
  2  4  1  0
  3  1  1  0
  3  5  1  0
  5  6  1  0
  6 12  1  0
  6  4  1  0
  7 10  1  0
  8  7  2  0
  8 12  1  0
  9 11  1  0
 10 22  1  0
 10 11  2  0
 11 13  1  0
 12  9  2  0
 14 23  1  0
 15 20  1  0
 16 17  1  0
 16 15  1  0
 18 17  1  0
 18 29  1  0
 18 19  1  0
 20 14  1  0
 20 19  1  0
 21 14  2  0
 22 24  2  0
 23 22  1  0
 25 23  1  0
 26 27  2  0
 27 46  1  0
 28 31  1  0
 28 27  1  0
 29 30  1  0
 29 26  1  0
 30 28  2  0
 31 32  1  0
 32 33  2  0
 34 37  1  0
 34 33  1  0
 35 34  2  0
 36 35  1  0
 36 31  2  0
 37 38  1  0
 38 43  2  0
 38 39  1  0
 39 40  2  0
 40 41  1  0
 41 45  1  0
 42 41  2  0
 43 42  1  0
 44 43  1  0
 46 47  1  0
 47 50  1  0
 47 49  1  0
 48 46  2  0
 51 26  1  0
 51 53  1  0
 51 52  1  0
 54 55  1  0
 55 57  1  0
 56 67  2  0
 57 62  1  0
 58 66  1  0
 58 68  1  0
 59 65  1  0
 59 61  1  0
 60 66  1  0
 61 60  1  0
 62 61  2  0
 63 64  1  0
 63 57  2  0
 64 59  2  0
 65 58  1  0
 66 56  1  0
 68 70  2  0
 69 68  1  0
 71 69  1  0
 72 81  2  0
 72 77  1  0
 73 69  1  0
 73 77  1  0
 74 73  1  0
 75 76  1  0
 75 74  1  0
 76 72  1  0
 77 78  2  0
 78 79  1  0
 80 79  2  0
 81 80  1  0
 82 56  1  0
 82 83  1  0
 82 92  1  0
 83 86  1  0
 84 88  1  0
 84 83  1  0
 85 84  2  0
 88 87  1  0
 90 88  1  0
 90 91  1  0
 90 89  1  0
 92 95  1  1
 92 93  1  0
 94 92  1  0
M  ISO  4  14 100  23 100  54 101  55 101
M  END
>  <TORSDO>  (67) 
F 18

>  <SCORE>  (67) 
-9.915

>  <name>  (67) 
66

>  <ligand_id>  (67) 
66

>  <original_smiles>  (67) 
[H]C1=C(C([H])([H])Oc2c([H])c([H])c3c(c2[H])C([H])([H])N(C(=O)C([H])(N([H])C(=O)C([H])(N([H])C([H])([H])[H])C([H])([H])[H])C(C([H])([H])[H])(C([H])([H])[H])C([H])([H])[H])C([H])(C(=O)N([H])C2([H])c4c([H])c([H])c([H])c([H])c4C([H])([H])C([H])([H])C2([H])[H])C3([H])[H])C([H])([H])N(c2c([H])c([H])c(C(=O)N([H])C(=O)N3C([H])([H])C([H])([H])C([H])([H])C([H])(n4nc(-c5c([H])c([H])c(Oc6c([H])c([H])c(F)c([H])c6F)c([H])c5[H])c(C(=O)N([H])[H])c4N([H])[H])C3([H])[H])c(C([H])([H])[H])c2[H])C([H])([H])C1([H])[H]

>  <smiles>  (67) 
[H]C1=C(C([H])([H])Oc2c([H])c([H])c3c(c2[H])C([H])([H])N(C(=O)C([H])(N([H])C(=O)C([H])(N([H])C([H])([H])[H])C([H])([H])[H])C(C([H])([H])[H])(C([H])([H])[H])C([H])([H])[H])C([H])(C(=O)N([H])C2([H])c4c([H])c([H])c([H])c([H])c4C([H])([H])C([H])([H])C2([H])[H])C3([H])[H])C([H])([H])N(c2c([H])c([H])c(C(=O)N([H])C(=O)N3C([H])([H])C([H])([H])C([H])([H])C([H])(n4nc(-c5c([H])c([H])c(Oc6c([H])c([H])c(F)c([H])c6F)c([H])c5[H])c(C(=O)N([H])[H])c4N([H])[H])C3([H])[H])c(C([H])([H])[H])c2[H])C([H])([H])C1([H])[H]

$$$$
67:0:0
     RDKit          3D

 99106  0  0  1  0  0  0  0  0999 V2000
  -27.0920  -20.8800   19.8640 C   0  0  0  0  0  3  0  0  0  0  0  0
  -28.2400  -21.7110   19.5990 C   0  0  0  0  0  0  0  0  0  0  0  0
  -27.2640  -19.4960   19.6880 C   0  0  0  0  0  0  0  0  0  0  0  0
  -29.1060  -20.5020   19.3090 C   0  0  0  0  0  0  0  0  0  0  0  0
  -28.5450  -19.0370   19.3140 N   0  0  0  0  0  0  0  0  0  0  0  0
  -29.9460  -16.3240   19.1250 C   0  0  0  0  0  2  0  0  0  0  0  0
  -28.9710  -14.2550   18.7140 C   0  0  0  0  0  3  0  0  0  0  0  0
  -27.7800  -16.5360   18.5220 C   0  0  0  0  0  3  0  0  0  0  0  0
  -30.0830  -14.7140   19.5110 C   0  0  0  0  0  2  0  0  0  0  0  0
  -28.8290  -17.3780   19.0130 C   0  0  0  0  0  0  0  0  0  0  0  0
  -27.8850  -15.1070   18.2760 C   0  0  0  0  0  0  0  0  0  0  0  0
  -26.8070  -14.4740   17.6520 N   0  0  0  0  0  0  0  0  0  0  0  0
  -26.7340  -13.4620   17.7280 H   0  0  0  0  0  0  0  0  0  0  0  0
  -25.9060  -14.9440   17.6230 H   0  0  0  0  0  0  0  0  0  0  0  0
  -31.3180  -13.8190   21.8760 C   0  0  0  0  0  1  0  0  0  0  0  0
  -32.8320  -12.9390   21.2120 C   0  0  1  0  0  0  0  0  0  0  0  0
  -32.7540  -14.2970   19.8090 C   0  0  0  0  0  3  0  0  0  0  0  0
  -32.0820  -15.6860   20.9250 C   0  0  0  0  0  1  0  0  0  0  0  0
  -29.8890  -15.4920   21.5090 C   0  0  0  0  0 15  0  0  0  0  0  0
  -29.1700  -13.7080   21.0200 C   0  0  0  0  0  3  0  0  0  0  0  0
  -30.3430  -12.5330   20.1860 C   0  0  0  0  0  3  0  0  0  0  0  0
  -32.0800  -12.8920   20.0370 N   0  0  0  0  0  0  0  0  0  0  0  0
  -33.9480  -13.4420   21.5620 O   0  0  0  0  0  1  0  0  0  0  0  0
  -32.0280  -12.5910   22.1160 N   0  0  0  0  0  0  0  0  0  0  0  0
  -32.4200  -12.4660   23.0410 H   0  0  0  0  0  0  0  0  0  0  0  0
  -26.8120  -14.2770   21.0830 C   0  0  0  0  0  0  0  0  0  0  0  0
  -25.7470  -13.4810   21.3190 C   0  0  0  0  0  0  0  0  0  0  0  0
  -26.1920  -12.1260   21.2150 C   0  0  0  0  0  0  0  0  0  0  0  0
  -27.8270  -13.4090   20.8850 N   0  0  0  0  0  0  0  0  0  0  0  0
  -27.4790  -12.0950   20.9380 N   0  0  0  0  0  0  0  0  0  0  0  0
  -25.4440  -10.8760   21.2940 C   0  0  0  0  0  0  0  0  0  0  0  0
  -25.6800   -9.9120   22.2980 C   0  0  0  0  0  3  0  0  0  0  0  0
  -24.9020   -8.7360   22.3500 C   0  0  0  0  0  3  0  0  0  0  0  0
  -23.8770   -8.5210   21.3990 C   0  0  0  0  0  0  0  0  0  0  0  0
  -23.6700   -9.4730   20.3870 C   0  0  0  0  0  3  0  0  0  0  0  0
  -24.4460  -10.6390   20.3330 C   0  0  0  0  0  3  0  0  0  0  0  0
  -23.0820   -7.4070   21.3470 O   0  0  0  0  0  0  0  0  0  0  0  0
  -22.5830   -6.8170   22.4780 C   0  0  0  0  0  0  0  0  0  0  0  0
  -21.7710   -7.5220   23.3970 C   0  0  0  0  0  3  0  0  0  0  0  0
  -21.2290   -6.8480   24.5100 C   0  0  0  0  0  3  0  0  0  0  0  0
  -21.4840   -5.4770   24.6920 C   0  0  0  0  0  0  0  0  0  0  0  0
  -22.2780   -4.7770   23.7710 C   0  0  0  0  0  3  0  0  0  0  0  0
  -22.8280   -5.4430   22.6660 C   0  0  0  0  0  0  0  0  0  0  0  0
  -23.5810   -4.7600   21.7690 F   0  0  0  0  0  0  0  0  0  0  0  0
  -20.9550   -4.8280   25.7570 F   0  0  0  0  0  0  0  0  0  0  0  0
  -24.3730  -13.9890   21.5530 C   0  0  0  0  0  0  0  0  0  0  0  0
  -23.5980  -13.3020   22.3750 N   0  0  0  0  0  0  0  0  0  0  0  0
  -24.0080  -15.0450   21.0420 O   0  0  0  0  0  0  0  0  0  0  0  0
  -23.9200  -12.4630   22.8380 H   0  0  0  0  0  0  0  0  0  0  0  0
  -22.6630  -13.6400   22.5560 H   0  0  0  0  0  0  0  0  0  0  0  0
  -26.9990  -15.6500   21.0640 N   0  0  0  0  0  0  0  0  0  0  0  0
  -26.1850  -16.2510   21.0200 H   0  0  0  0  0  0  0  0  0  0  0  0
  -27.8240  -16.0470   20.6370 H   0  0  0  0  0  0  0  0  0  0  0  0
  -26.2770  -18.5700   19.8340 O   0  0  0  0  0  0  0  0  0  0  0  0
  -26.6640  -17.7160   19.6730 H   0  0  0  0  0  0  0  0  0  0  0  0
  -30.4150  -20.6180   18.9370 O   0  0  0  0  0  0  0  0  0  0  0  0
  -30.9130  -19.9200   19.3540 H   0  0  0  0  0  0  0  0  0  0  0  0
  -28.1640  -23.5840   19.4030 C   0  0  0  0  0  2  0  0  0  0  0  0
  -28.2420  -25.1110   20.2570 O   0  0  0  0  0  0  0  0  0  0  0  0
  -24.5650  -31.4630   23.0470 C   0  0  0  0  0  0  0  0  0  0  0  0
  -27.3750  -26.3850   20.2020 C   0  0  0  0  0  0  0  0  0  0  0  0
  -23.5580  -30.0080   21.3590 C   0  0  0  0  0  3  0  0  0  0  0  0
  -25.1270  -28.3930   20.0730 C   0  0  0  0  0  0  0  0  0  0  0  0
  -26.1430  -30.1790   21.4620 C   0  0  0  0  0  2  0  0  0  0  0  0
  -26.2680  -28.7460   20.8040 C   0  0  0  0  0  0  0  0  0  0  0  0
  -27.3840  -27.7520   20.8600 C   0  0  0  0  0  3  0  0  0  0  0  0
  -26.2060  -26.2630   19.4400 C   0  0  0  0  0  3  0  0  0  0  0  0
  -25.1330  -27.1790   19.3830 C   0  0  0  0  0  3  0  0  0  0  0  0
  -23.9160  -29.3240   20.0180 C   0  0  0  0  0  2  0  0  0  0  0  0
  -24.7780  -30.5910   22.0040 N   0  0  0  0  0  0  0  0  0  0  0  0
  -23.4220  -31.7360   23.4580 O   0  0  0  0  0  0  0  0  0  0  0  0
  -22.7980  -29.0120   22.2780 C   0  0  0  0  0  0  0  0  0  0  0  0
  -21.4670  -28.8900   22.1130 N   0  0  0  0  0  0  0  0  0  0  0  0
  -23.4180  -28.3540   23.1150 O   0  0  0  0  0  0  0  0  0  0  0  0
  -21.0160  -29.4650   21.4160 H   0  0  0  0  0  0  0  0  0  0  0  0
  -18.0260  -27.8300   22.5910 C   0  0  0  0  0  0  0  0  0  0  0  0
  -20.5990  -27.9630   22.8470 C   0  0  0  0  0  3  0  0  0  0  0  0
  -20.6250  -26.5530   22.2090 C   0  0  0  0  0  2  0  0  0  0  0  0
  -19.5050  -26.3340   21.1860 C   0  0  0  0  0  2  0  0  0  0  0  0
  -18.1330  -26.5110   21.8430 C   0  0  0  0  0  2  0  0  0  0  0  0
  -19.1830  -28.5210   23.0470 C   0  0  0  0  0  0  0  0  0  0  0  0
  -19.0200  -29.7560   23.7110 C   0  0  0  0  0  3  0  0  0  0  0  0
  -17.7400  -30.3060   23.9120 C   0  0  0  0  0  3  0  0  0  0  0  0
  -16.6000  -29.6150   23.4650 C   0  0  0  0  0  3  0  0  0  0  0  0
  -16.7440  -28.3760   22.8130 C   0  0  0  0  0  3  0  0  0  0  0  0
  -25.7470  -32.1720   23.7730 C   0  0  0  0  0  3  0  0  0  0  0  0
  -25.3550  -33.5750   24.0130 N   0  0  0  0  0  0  0  0  0  0  0  0
  -25.7990  -34.6340   23.3210 C   0  0  0  0  0  0  0  0  0  0  0  0
  -26.6380  -34.5320   22.4210 O   0  0  0  0  0  0  0  0  0  0  0  0
  -24.6280  -33.7240   24.6960 H   0  0  0  0  0  0  0  0  0  0  0  0
  -24.1610  -36.4330   22.6550 C   0  0  0  0  0  1  0  0  0  0  0  0
  -25.2330  -36.0260   23.6800 C   0  0  0  0  0  3  0  0  0  0  0  0
  -27.1800  -36.9220   24.8810 C   0  0  0  0  0  1  0  0  0  0  0  0
  -26.2650  -37.0840   23.7550 N   0  0  0  0  0  0  0  0  0  0  0  0
  -25.8350  -38.0020   23.8280 H   0  0  0  0  0  0  0  0  0  0  0  0
  -26.1260  -31.4800   25.1410 C   0  0  1  0  0  0  0  0  0  0  0  0
  -24.9280  -31.2830   26.1040 C   0  0  0  0  0  1  0  0  0  0  0  0
  -26.7580  -30.0910   24.9020 C   0  0  0  0  0  1  0  0  0  0  0  0
  -27.1940  -32.3270   25.8720 C   0  0  0  0  0  1  0  0  0  0  0  0
  2  1  1  0
  3 54  1  0
  3  1  2  0
  4  5  1  0
  4  2  2  0
  5  3  1  0
  6  9  1  0
  7  9  1  0
  8 10  2  0
 10  6  1  0
 10  5  1  0
 11  8  1  0
 11  7  2  0
 12 13  1  0
 12 11  1  0
 14 12  1  0
 15 24  1  0
 16 23  1  6
 16 24  1  0
 17 22  1  0
 17 18  1  0
 17 16  1  0
 21 20  2  0
 22 21  1  0
 22 16  1  0
 24 25  1  0
 26 27  2  0
 27 46  1  0
 28 31  1  0
 28 27  1  0
 29 30  1  0
 29 20  1  0
 29 26  1  0
 30 28  2  0
 31 32  1  0
 32 33  2  0
 34 33  1  0
 35 34  2  0
 36 35  1  0
 36 31  2  0
 37 34  1  0
 37 38  1  0
 38 43  2  0
 38 39  1  0
 39 40  2  0
 40 41  1  0
 41 45  1  0
 42 41  2  0
 43 42  1  0
 44 43  1  0
 46 47  1  0
 47 50  1  0
 47 49  1  0
 48 46  2  0
 51 26  1  0
 52 51  1  0
 53 51  1  0
 55 54  1  0
 56  4  1  0
 56 57  1  0
 58  2  1  0
 58 59  1  0
 60 71  2  0
 61 59  1  0
 61 66  1  0
 62 70  1  0
 62 72  1  0
 63 65  1  0
 64 70  1  0
 65 66  2  0
 65 64  1  0
 67 61  2  0
 68 67  1  0
 68 63  2  0
 69 63  1  0
 69 62  1  0
 70 60  1  0
 72 74  2  0
 73 72  1  0
 75 73  1  0
 76 85  2  0
 76 81  1  0
 77 73  1  0
 77 81  1  0
 78 77  1  0
 79 80  1  0
 79 78  1  0
 80 76  1  0
 81 82  2  0
 82 83  1  0
 84 83  2  0
 85 84  1  0
 86 60  1  0
 86 87  1  0
 86 96  1  0
 87 90  1  0
 88 92  1  0
 88 87  1  0
 89 88  2  0
 92 91  1  0
 92 94  1  0
 94 95  1  0
 94 93  1  0
 96 99  1  1
 96 97  1  0
 98 96  1  0
M  ISO  4  16 100  24 100  58 101  59 101
M  END
>  <TORSDO>  (68) 
F 22

>  <SCORE>  (68) 
-6.152

>  <name>  (68) 
67

>  <ligand_id>  (68) 
67

>  <original_smiles>  (68) 
[H]Oc1c([H])c(C([H])([H])Oc2c([H])c([H])c3c(c2[H])C([H])([H])N(C(=O)C([H])(N([H])C(=O)C([H])(N([H])C([H])([H])[H])C([H])([H])[H])C(C([H])([H])[H])(C([H])([H])[H])C([H])([H])[H])C([H])(C(=O)N([H])C2([H])c4c([H])c([H])c([H])c([H])c4C([H])([H])C([H])([H])C2([H])[H])C3([H])[H])c(O[H])n1-c1c([H])c(N([H])[H])c([H])c(C([H])([H])N([H])C(=O)N2C([H])([H])C([H])([H])C([H])([H])C([H])(n3nc(-c4c([H])c([H])c(Oc5c([H])c([H])c(F)c([H])c5F)c([H])c4[H])c(C(=O)N([H])[H])c3N([H])[H])C2([H])[H])c1[H]

>  <smiles>  (68) 
[H]Oc1c([H])c(C([H])([H])Oc2c([H])c([H])c3c(c2[H])C([H])([H])N(C(=O)C([H])(N([H])C(=O)C([H])(N([H])C([H])([H])[H])C([H])([H])[H])C(C([H])([H])[H])(C([H])([H])[H])C([H])([H])[H])C([H])(C(=O)N([H])C2([H])c4c([H])c([H])c([H])c([H])c4C([H])([H])C([H])([H])C2([H])[H])C3([H])[H])c(O[H])n1-c1c([H])c(N([H])[H])c([H])c(C([H])([H])N([H])C(=O)N2C([H])([H])C([H])([H])C([H])([H])C([H])(n3nc(-c4c([H])c([H])c(Oc5c([H])c([H])c(F)c([H])c5F)c([H])c4[H])c(C(=O)N([H])[H])c3N([H])[H])C2([H])[H])c1[H]

$$$$
68:0:0
     RDKit          3D

 95104  0  0  1  0  0  0  0  0999 V2000
  -28.7840  -22.3170   19.5830 C   0  0  0  0  0  0  0  0  0  0  0  0
  -29.4970  -23.3380   21.5420 C   0  0  0  0  0  2  0  0  0  0  0  0
  -29.9430  -21.8370   21.4800 C   0  0  0  0  0  2  0  0  0  0  0  0
  -29.1820  -23.7650   20.0920 C   0  0  1  0  0  0  0  0  0  0  0  0
  -30.4760  -24.1790   19.3570 C   0  0  0  0  0  1  0  0  0  0  0  0
  -29.3630  -21.2630   20.2660 N   0  0  0  0  0  0  0  0  0  0  0  0
  -27.9440  -22.1870   18.6900 O   0  0  0  0  0  0  0  0  0  0  0  0
  -29.6130  -18.6670   20.7600 C   0  0  0  0  0  3  0  0  0  0  0  0
  -29.8050  -18.2020   18.0220 C   0  0  0  0  0  3  0  0  0  0  0  0
  -29.5230  -19.8250   19.8630 C   0  0  0  0  0  0  0  0  0  0  0  0
  -29.8100  -17.2890   20.3020 C   0  0  0  0  0  0  0  0  0  0  0  0
  -29.6560  -19.5230   18.4800 C   0  0  0  0  0  0  0  0  0  0  0  0
  -29.8780  -17.1110   18.9010 C   0  0  0  0  0  0  0  0  0  0  0  0
  -29.6920  -20.5000   17.5420 F   0  0  0  0  0  0  0  0  0  0  0  0
  -29.9720  -15.8710   18.3640 F   0  0  0  0  0  0  0  0  0  0  0  0
  -30.6290  -14.9400   21.0540 C   0  0  0  0  0  0  0  0  0  0  0  0
  -30.6210  -12.5790   20.2540 C   0  0  0  0  0  2  0  0  0  0  0  0
  -29.8390  -12.5100   18.9220 C   0  0  0  0  0  2  0  0  0  0  0  0
  -28.3300  -12.3380   19.1790 C   0  0  0  0  0  2  0  0  0  0  0  0
  -27.7900  -13.3000   20.2700 C   0  0  0  0  0  3  0  0  0  0  0  0
  -28.7040  -13.3350   21.5140 C   0  0  0  0  0  2  0  0  0  0  0  0
  -30.0550  -13.6870   21.0610 N   0  0  0  0  0  0  0  0  0  0  0  0
  -31.8400  -15.0540   20.8440 O   0  0  0  0  0  0  0  0  0  0  0  0
  -29.8100  -16.0620   21.1440 N   0  0  0  0  0  0  0  0  0  0  0  0
  -28.9240  -15.8790   21.5880 H   0  0  0  0  0  0  0  0  0  0  0  0
  -25.3290  -13.8700   20.7100 C   0  0  0  0  0  0  0  0  0  0  0  0
  -24.2390  -13.0880   20.9850 C   0  0  0  0  0  0  0  0  0  0  0  0
  -24.7230  -11.7440   21.0490 C   0  0  0  0  0  0  0  0  0  0  0  0
  -26.4040  -13.0010   20.6180 N   0  0  0  0  0  0  0  0  0  0  0  0
  -26.0400  -11.7210   20.8890 N   0  0  0  0  0  0  0  0  0  0  0  0
  -23.9990  -10.4750   21.1980 C   0  0  0  0  0  0  0  0  0  0  0  0
  -24.3670   -9.5260   22.1790 C   0  0  0  0  0  3  0  0  0  0  0  0
  -23.6480   -8.3210   22.3160 C   0  0  0  0  0  3  0  0  0  0  0  0
  -22.5440   -8.0560   21.4710 C   0  0  0  0  0  0  0  0  0  0  0  0
  -22.1940   -8.9930   20.4810 C   0  0  0  0  0  3  0  0  0  0  0  0
  -22.9150  -10.1900   20.3430 C   0  0  0  0  0  3  0  0  0  0  0  0
  -21.8010   -6.9010   21.5140 O   0  0  0  0  0  0  0  0  0  0  0  0
  -21.6900   -6.1570   22.6600 C   0  0  0  0  0  0  0  0  0  0  0  0
  -21.1800   -6.7050   23.8590 C   0  0  0  0  0  3  0  0  0  0  0  0
  -21.0210   -5.8870   24.9950 C   0  0  0  0  0  3  0  0  0  0  0  0
  -21.3590   -4.5230   24.9340 C   0  0  0  0  0  0  0  0  0  0  0  0
  -21.8610   -3.9720   23.7410 C   0  0  0  0  0  3  0  0  0  0  0  0
  -22.0220   -4.7870   22.6060 C   0  0  0  0  0  0  0  0  0  0  0  0
  -22.4860   -4.2480   21.4530 F   0  0  0  0  0  0  0  0  0  0  0  0
  -21.1970   -3.7350   26.0220 F   0  0  0  0  0  0  0  0  0  0  0  0
  -22.8140  -13.5470   21.0800 C   0  0  0  0  0  0  0  0  0  0  0  0
  -22.0030  -12.8700   21.8850 N   0  0  0  0  0  0  0  0  0  0  0  0
  -22.4210  -14.5420   20.4740 O   0  0  0  0  0  0  0  0  0  0  0  0
  -22.3280  -12.0670   22.4040 H   0  0  0  0  0  0  0  0  0  0  0  0
  -21.0410  -13.1600   21.9880 H   0  0  0  0  0  0  0  0  0  0  0  0
  -25.4980  -15.2370   20.5090 N   0  0  0  0  0  0  0  0  0  0  0  0
  -24.7270  -15.8950   20.5430 H   0  0  0  0  0  0  0  0  0  0  0  0
  -26.3790  -15.6690   20.2560 H   0  0  0  0  0  0  0  0  0  0  0  0
  -28.0930  -24.9620   19.8590 C   0  0  0  0  0  2  0  0  0  0  0  0
  -28.3320  -26.4450   20.0480 O   0  0  0  0  0  0  0  0  0  0  0  0
  -24.5800  -31.9050   23.0880 C   0  0  0  0  0  0  0  0  0  0  0  0
  -27.2210  -27.3330   20.0050 C   0  0  0  0  0  0  0  0  0  0  0  0
  -23.3850  -30.4960   21.4560 C   0  0  0  0  0  3  0  0  0  0  0  0
  -24.8460  -28.9670   20.0140 C   0  0  0  0  0  0  0  0  0  0  0  0
  -25.9290  -30.8290   21.2640 C   0  0  0  0  0  2  0  0  0  0  0  0
  -26.0200  -29.4520   20.6040 C   0  0  0  0  0  0  0  0  0  0  0  0
  -27.2090  -28.6490   20.5860 C   0  0  0  0  0  3  0  0  0  0  0  0
  -26.0120  -26.9180   19.3930 C   0  0  0  0  0  3  0  0  0  0  0  0
  -24.8480  -27.7080   19.3980 C   0  0  0  0  0  3  0  0  0  0  0  0
  -23.6010  -29.8330   20.0710 C   0  0  0  0  0  2  0  0  0  0  0  0
  -24.6510  -31.0940   21.9900 N   0  0  0  0  0  0  0  0  0  0  0  0
  -23.4960  -32.1680   23.6280 O   0  0  0  0  0  0  0  0  0  0  0  0
  -22.7400  -29.4680   22.4170 C   0  0  0  0  0  0  0  0  0  0  0  0
  -21.4110  -29.2950   22.3200 N   0  0  0  0  0  0  0  0  0  0  0  0
  -23.4360  -28.8300   23.2120 O   0  0  0  0  0  0  0  0  0  0  0  0
  -20.9080  -29.8610   21.6510 H   0  0  0  0  0  0  0  0  0  0  0  0
  -18.0420  -28.1040   22.8950 C   0  0  0  0  0  0  0  0  0  0  0  0
  -20.6090  -28.3500   23.0980 C   0  0  0  0  0  3  0  0  0  0  0  0
  -20.6890  -26.9260   22.4990 C   0  0  0  0  0  2  0  0  0  0  0  0
  -19.5590  -26.6220   21.5110 C   0  0  0  0  0  2  0  0  0  0  0  0
  -18.1940  -26.7640   22.1930 C   0  0  0  0  0  2  0  0  0  0  0  0
  -19.1750  -28.8550   23.3050 C   0  0  0  0  0  0  0  0  0  0  0  0
  -18.9790  -30.1080   23.9230 C   0  0  0  0  0  3  0  0  0  0  0  0
  -17.6820  -30.6110   24.1350 C   0  0  0  0  0  3  0  0  0  0  0  0
  -16.5620  -29.8580   23.7420 C   0  0  0  0  0  3  0  0  0  0  0  0
  -16.7440  -28.6060   23.1260 C   0  0  0  0  0  3  0  0  0  0  0  0
  -25.8570  -32.5570   23.7010 C   0  0  0  0  0  3  0  0  0  0  0  0
  -25.5160  -33.9370   24.0760 N   0  0  0  0  0  0  0  0  0  0  0  0
  -25.8480  -35.0250   23.3690 C   0  0  0  0  0  0  0  0  0  0  0  0
  -26.5390  -34.9740   22.3470 O   0  0  0  0  0  0  0  0  0  0  0  0
  -24.9060  -34.0500   24.8710 H   0  0  0  0  0  0  0  0  0  0  0  0
  -24.1230  -36.8260   23.0230 C   0  0  0  0  0  1  0  0  0  0  0  0
  -25.3270  -36.3850   23.8710 C   0  0  0  0  0  3  0  0  0  0  0  0
  -27.4110  -37.2390   24.8470 C   0  0  0  0  0  1  0  0  0  0  0  0
  -26.3520  -37.4510   23.8640 N   0  0  0  0  0  0  0  0  0  0  0  0
  -25.9270  -38.3560   24.0470 H   0  0  0  0  0  0  0  0  0  0  0  0
  -26.4170  -31.7700   24.9480 C   0  0  1  0  0  0  0  0  0  0  0  0
  -25.3540  -31.4780   26.0330 C   0  0  0  0  0  1  0  0  0  0  0  0
  -27.0200  -30.4150   24.5120 C   0  0  0  0  0  1  0  0  0  0  0  0
  -27.5600  -32.5750   25.6070 C   0  0  0  0  0  1  0  0  0  0  0  0
  1  4  1  0
  1  6  1  0
  3  2  1  0
  4  5  1  6
  4  2  1  0
  6  3  1  0
  7  1  2  0
  9 12  2  0
  9 13  1  0
 10  6  1  0
 10  8  2  0
 11  8  1  0
 11 24  1  0
 12 10  1  0
 13 11  2  0
 14 12  1  0
 15 13  1  0
 16 22  1  0
 16 24  1  0
 17 22  1  0
 18 19  1  0
 18 17  1  0
 20 19  1  0
 20 29  1  0
 20 21  1  0
 22 21  1  0
 23 16  2  0
 24 25  1  0
 26 27  2  0
 27 28  1  0
 27 46  1  0
 28 31  1  0
 29 26  1  0
 29 30  1  0
 30 28  2  0
 31 32  1  0
 32 33  2  0
 34 37  1  0
 34 33  1  0
 35 34  2  0
 36 35  1  0
 36 31  2  0
 37 38  1  0
 38 39  1  0
 39 40  2  0
 41 40  1  0
 41 45  1  0
 42 41  2  0
 43 38  2  0
 43 42  1  0
 44 43  1  0
 46 47  1  0
 47 50  1  0
 47 49  1  0
 48 46  2  0
 51 52  1  0
 51 26  1  0
 53 51  1  0
 54 55  1  0
 54  4  1  0
 56 67  2  0
 57 55  1  0
 57 62  1  0
 58 66  1  0
 58 68  1  0
 59 65  1  0
 59 61  1  0
 60 66  1  0
 61 60  1  0
 62 61  2  0
 63 64  1  0
 63 57  2  0
 64 59  2  0
 65 58  1  0
 66 56  1  0
 68 70  2  0
 69 68  1  0
 71 69  1  0
 72 81  2  0
 72 77  1  0
 73 69  1  0
 73 77  1  0
 74 73  1  0
 75 76  1  0
 75 74  1  0
 76 72  1  0
 77 78  2  0
 78 79  1  0
 80 79  2  0
 81 80  1  0
 82 56  1  0
 82 83  1  0
 82 92  1  0
 83 86  1  0
 84 88  1  0
 84 83  1  0
 85 84  2  0
 88 87  1  0
 90 88  1  0
 90 91  1  0
 90 89  1  0
 92 95  1  1
 92 93  1  0
 94 92  1  0
M  ISO  4  16 100  24 100  54 101  55 101
M  END
>  <TORSDO>  (69) 
F 18

>  <SCORE>  (69) 
-14.351

>  <name>  (69) 
68

>  <ligand_id>  (69) 
68

>  <original_smiles>  (69) 
[H]c1c([H])c([H])c2c(c1[H])C([H])([H])C([H])([H])C([H])([H])C2([H])N([H])C(=O)C1([H])N(C(=O)C([H])(N([H])C(=O)C([H])(N([H])C([H])([H])[H])C([H])([H])[H])C(C([H])([H])[H])(C([H])([H])[H])C([H])([H])[H])C([H])([H])c2c([H])c(OC([H])([H])C3(C([H])([H])[H])C(=O)N(c4c([H])c(N([H])C(=O)N5C([H])([H])C([H])([H])C([H])([H])C([H])(n6nc(-c7c([H])c([H])c(Oc8c([H])c([H])c(F)c([H])c8F)c([H])c7[H])c(C(=O)N([H])[H])c6N([H])[H])C5([H])[H])c(F)c([H])c4F)C([H])([H])C3([H])[H])c([H])c([H])c2C1([H])[H]

>  <smiles>  (69) 
[H]c1c([H])c([H])c2c(c1[H])C([H])([H])C([H])([H])C([H])([H])C2([H])N([H])C(=O)C1([H])N(C(=O)C([H])(N([H])C(=O)C([H])(N([H])C([H])([H])[H])C([H])([H])[H])C(C([H])([H])[H])(C([H])([H])[H])C([H])([H])[H])C([H])([H])c2c([H])c(OC([H])([H])C3(C([H])([H])[H])C(=O)N(c4c([H])c(N([H])C(=O)N5C([H])([H])C([H])([H])C([H])([H])C([H])(n6nc(-c7c([H])c([H])c(Oc8c([H])c([H])c(F)c([H])c8F)c([H])c7[H])c(C(=O)N([H])[H])c6N([H])[H])C5([H])[H])c(F)c([H])c4F)C([H])([H])C3([H])[H])c([H])c([H])c2C1([H])[H]

$$$$
69:0:0
     RDKit          3D

 94103  0  0  1  0  0  0  0  0999 V2000
  -29.3840  -22.7210   20.0480 C   0  0  0  0  0  0  0  0  0  0  0  0
  -28.1580  -23.8880   18.3800 C   0  0  0  0  0  2  0  0  0  0  0  0
  -28.3560  -22.4040   18.0080 C   0  0  0  0  0  2  0  0  0  0  0  0
  -29.0920  -24.1700   19.5490 C   0  0  0  0  0  3  0  0  0  0  0  0
  -28.9860  -21.7710   19.1670 N   0  0  0  0  0  0  0  0  0  0  0  0
  -29.9740  -22.4950   21.1110 O   0  0  0  0  0  0  0  0  0  0  0  0
  -27.0650  -18.6200   19.8040 C   0  0  0  0  0  3  0  0  0  0  0  0
  -28.0580  -17.6180   19.8300 C   0  0  0  0  0  3  0  0  0  0  0  0
  -27.4090  -19.9700   19.6060 C   0  0  0  0  0  3  0  0  0  0  0  0
  -29.7500  -19.3500   19.5300 C   0  0  0  0  0  3  0  0  0  0  0  0
  -29.4220  -17.9560   19.7120 C   0  0  0  0  0  0  0  0  0  0  0  0
  -28.7460  -20.3670   19.4490 C   0  0  0  0  0  0  0  0  0  0  0  0
  -31.0270  -14.5010   19.8620 C   0  0  0  0  0  0  0  0  0  0  0  0
  -30.9080  -12.1030   19.1620 C   0  0  0  0  0  2  0  0  0  0  0  0
  -29.9340  -11.8670   17.9810 C   0  0  0  0  0  2  0  0  0  0  0  0
  -28.4700  -11.8040   18.4670 C   0  0  0  0  0  2  0  0  0  0  0  0
  -28.1300  -12.9290   19.4850 C   0  0  0  0  0  3  0  0  0  0  0  0
  -29.1780  -12.9510   20.6160 C   0  0  0  0  0  2  0  0  0  0  0  0
  -30.4630  -13.2580   19.9860 N   0  0  0  0  0  0  0  0  0  0  0  0
  -32.1600  -14.5970   19.3710 O   0  0  0  0  0  0  0  0  0  0  0  0
  -30.5310  -16.9100   19.9190 C   0  0  0  0  0  0  0  0  0  0  0  0
  -30.2230  -15.5900   20.1440 N   0  0  0  0  0  0  0  0  0  0  0  0
  -31.6950  -17.3260   19.8030 O   0  0  0  0  0  0  0  0  0  0  0  0
  -29.2730  -15.3980   20.4270 H   0  0  0  0  0  0  0  0  0  0  0  0
  -25.8610  -13.7420   20.3770 C   0  0  0  0  0  0  0  0  0  0  0  0
  -24.7410  -13.0510   20.7720 C   0  0  0  0  0  0  0  0  0  0  0  0
  -25.0750  -11.6660   20.6640 C   0  0  0  0  0  0  0  0  0  0  0  0
  -26.7900  -12.7700   20.0260 N   0  0  0  0  0  0  0  0  0  0  0  0
  -26.3340  -11.5200   20.2850 N   0  0  0  0  0  0  0  0  0  0  0  0
  -24.2610  -10.4660   20.8630 C   0  0  0  0  0  0  0  0  0  0  0  0
  -24.6080   -9.4850   21.8150 C   0  0  0  0  0  3  0  0  0  0  0  0
  -23.7940   -8.3500   22.0090 C   0  0  0  0  0  3  0  0  0  0  0  0
  -22.6140   -8.1840   21.2520 C   0  0  0  0  0  0  0  0  0  0  0  0
  -22.2750   -9.1570   20.3010 C   0  0  0  0  0  3  0  0  0  0  0  0
  -23.0880  -10.2870   20.1040 C   0  0  0  0  0  3  0  0  0  0  0  0
  -21.7830   -7.0950   21.3560 O   0  0  0  0  0  0  0  0  0  0  0  0
  -21.6190   -6.4230   22.5390 C   0  0  0  0  0  0  0  0  0  0  0  0
  -21.1580   -7.0740   23.7040 C   0  0  0  0  0  3  0  0  0  0  0  0
  -20.9450   -6.3370   24.8840 C   0  0  0  0  0  3  0  0  0  0  0  0
  -21.1760   -4.9440   24.8960 C   0  0  0  0  0  0  0  0  0  0  0  0
  -21.6230   -4.2950   23.7380 C   0  0  0  0  0  3  0  0  0  0  0  0
  -21.8410   -5.0290   22.5570 C   0  0  0  0  0  0  0  0  0  0  0  0
  -22.2500   -4.3950   21.4320 F   0  0  0  0  0  0  0  0  0  0  0  0
  -20.9590   -4.2320   26.0270 F   0  0  0  0  0  0  0  0  0  0  0  0
  -23.4130  -13.6410   21.1220 C   0  0  0  0  0  0  0  0  0  0  0  0
  -22.6680  -13.0150   22.0320 N   0  0  0  0  0  0  0  0  0  0  0  0
  -23.0230  -14.6950   20.6160 O   0  0  0  0  0  0  0  0  0  0  0  0
  -22.9700  -12.1560   22.4730 H   0  0  0  0  0  0  0  0  0  0  0  0
  -21.7670  -13.3960   22.2860 H   0  0  0  0  0  0  0  0  0  0  0  0
  -26.1510  -15.0980   20.2920 N   0  0  0  0  0  0  0  0  0  0  0  0
  -26.6050  -15.5020   19.4810 H   0  0  0  0  0  0  0  0  0  0  0  0
  -25.5370  -15.7600   20.7690 H   0  0  0  0  0  0  0  0  0  0  0  0
  -28.4810  -25.1960   20.5880 C   0  0  0  0  0  2  0  0  0  0  0  0
  -28.5610  -26.6230   20.2770 O   0  0  0  0  0  0  0  0  0  0  0  0
  -24.5710  -31.8120   23.2420 C   0  0  0  0  0  0  0  0  0  0  0  0
  -27.3870  -27.3630   20.2710 C   0  0  0  0  0  0  0  0  0  0  0  0
  -23.4490  -30.4080   21.5450 C   0  0  0  0  0  3  0  0  0  0  0  0
  -24.9830  -28.8780   20.1800 C   0  0  0  0  0  0  0  0  0  0  0  0
  -25.9830  -30.7670   21.4710 C   0  0  0  0  0  2  0  0  0  0  0  0
  -26.1080  -29.3990   20.8270 C   0  0  0  0  0  0  0  0  0  0  0  0
  -27.3080  -28.6450   20.8770 C   0  0  0  0  0  3  0  0  0  0  0  0
  -26.2480  -26.8740   19.5980 C   0  0  0  0  0  3  0  0  0  0  0  0
  -25.0470  -27.6170   19.5630 C   0  0  0  0  0  3  0  0  0  0  0  0
  -23.7340  -29.7330   20.1730 C   0  0  0  0  0  2  0  0  0  0  0  0
  -24.6800  -31.0190   22.1410 N   0  0  0  0  0  0  0  0  0  0  0  0
  -23.4690  -32.0630   23.7480 O   0  0  0  0  0  0  0  0  0  0  0  0
  -22.7710  -29.3770   22.4750 C   0  0  0  0  0  0  0  0  0  0  0  0
  -21.4480  -29.1910   22.3110 N   0  0  0  0  0  0  0  0  0  0  0  0
  -23.4370  -28.7400   23.2960 O   0  0  0  0  0  0  0  0  0  0  0  0
  -20.9690  -29.7570   21.6240 H   0  0  0  0  0  0  0  0  0  0  0  0
  -18.0630  -28.0230   22.7700 C   0  0  0  0  0  0  0  0  0  0  0  0
  -20.6200  -28.2400   23.0590 C   0  0  0  0  0  3  0  0  0  0  0  0
  -20.7080  -26.8210   22.4470 C   0  0  0  0  0  2  0  0  0  0  0  0
  -19.6100  -26.5480   21.4160 C   0  0  0  0  0  2  0  0  0  0  0  0
  -18.2270  -26.6910   22.0610 C   0  0  0  0  0  2  0  0  0  0  0  0
  -19.1870  -28.7570   23.2280 C   0  0  0  0  0  0  0  0  0  0  0  0
  -18.9830  -30.0070   23.8480 C   0  0  0  0  0  3  0  0  0  0  0  0
  -17.6850  -30.5210   24.0170 C   0  0  0  0  0  3  0  0  0  0  0  0
  -16.5730  -29.7810   23.5760 C   0  0  0  0  0  3  0  0  0  0  0  0
  -16.7640  -28.5350   22.9570 C   0  0  0  0  0  3  0  0  0  0  0  0
  -25.8230  -32.4610   23.9040 C   0  0  0  0  0  3  0  0  0  0  0  0
  -25.4910  -33.8610   24.1980 N   0  0  0  0  0  0  0  0  0  0  0  0
  -25.8450  -34.9060   23.4350 C   0  0  0  0  0  0  0  0  0  0  0  0
  -26.5530  -34.7980   22.4310 O   0  0  0  0  0  0  0  0  0  0  0  0
  -24.8600  -34.0210   24.9700 H   0  0  0  0  0  0  0  0  0  0  0  0
  -24.1130  -36.6780   22.9950 C   0  0  0  0  0  1  0  0  0  0  0  0
  -25.3310  -36.2950   23.8530 C   0  0  0  0  0  3  0  0  0  0  0  0
  -27.4300  -37.2200   24.7360 C   0  0  0  0  0  1  0  0  0  0  0  0
  -26.3570  -37.3570   23.7540 N   0  0  0  0  0  0  0  0  0  0  0  0
  -25.9390  -38.2770   23.8700 H   0  0  0  0  0  0  0  0  0  0  0  0
  -26.2960  -31.7080   25.2080 C   0  0  1  0  0  0  0  0  0  0  0  0
  -25.1630  -31.4480   26.2250 C   0  0  0  0  0  1  0  0  0  0  0  0
  -26.9230  -30.3380   24.8610 C   0  0  0  0  0  1  0  0  0  0  0  0
  -27.3960  -32.5290   25.9140 C   0  0  0  0  0  1  0  0  0  0  0  0
  1  6  2  0
  2  4  1  0
  3  2  1  0
  3  5  1  0
  4  1  1  0
  4 53  1  0
  5 12  1  0
  5  1  1  0
  7  8  1  0
  9  7  2  0
 10 11  1  0
 11  8  2  0
 11 21  1  0
 12 10  2  0
 12  9  1  0
 13 19  1  0
 13 22  1  0
 14 19  1  0
 15 16  1  0
 15 14  1  0
 17 16  1  0
 17 28  1  0
 17 18  1  0
 19 18  1  0
 20 13  2  0
 21 22  1  0
 22 24  1  0
 23 21  2  0
 25 26  2  0
 26 45  1  0
 27 26  1  0
 27 30  1  0
 28 29  1  0
 28 25  1  0
 29 27  2  0
 30 31  1  0
 31 32  2  0
 33 36  1  0
 33 32  1  0
 34 33  2  0
 35 34  1  0
 35 30  2  0
 36 37  1  0
 37 42  2  0
 37 38  1  0
 38 39  2  0
 39 40  1  0
 40 44  1  0
 41 40  2  0
 42 41  1  0
 43 42  1  0
 45 46  1  0
 46 49  1  0
 46 48  1  0
 47 45  2  0
 50 25  1  0
 50 52  1  0
 51 50  1  0
 54 53  1  0
 55 66  2  0
 56 54  1  0
 56 61  1  0
 57 65  1  0
 57 67  1  0
 58 60  1  0
 59 65  1  0
 60 61  2  0
 60 59  1  0
 62 56  2  0
 63 62  1  0
 63 58  2  0
 64 58  1  0
 64 57  1  0
 65 55  1  0
 67 69  2  0
 68 67  1  0
 70 68  1  0
 71 80  2  0
 71 76  1  0
 72 68  1  0
 72 76  1  0
 73 72  1  0
 74 75  1  0
 74 73  1  0
 75 71  1  0
 76 77  2  0
 77 78  1  0
 79 78  2  0
 80 79  1  0
 81 55  1  0
 81 82  1  0
 81 91  1  0
 82 85  1  0
 83 87  1  0
 83 82  1  0
 84 83  2  0
 87 86  1  0
 89 87  1  0
 89 90  1  0
 89 88  1  0
 91 94  1  1
 91 92  1  0
 93 91  1  0
M  ISO  4  13 100  22 100  53 101  54 101
M  END
>  <TORSDO>  (70) 
F 18

>  <SCORE>  (70) 
-14.302

>  <name>  (70) 
69

>  <ligand_id>  (70) 
69

>  <original_smiles>  (70) 
[H]c1c([H])c(C(=O)N([H])C(=O)N2C([H])([H])C([H])([H])C([H])([H])C([H])(n3nc(-c4c([H])c([H])c(Oc5c([H])c([H])c(F)c([H])c5F)c([H])c4[H])c(C(=O)N([H])[H])c3N([H])[H])C2([H])[H])c([H])c(N2C(=O)C([H])(C([H])([H])Oc3c([H])c([H])c4c(c3[H])C([H])([H])N(C(=O)C([H])(N([H])C(=O)C([H])(N([H])C([H])([H])[H])C([H])([H])[H])C(C([H])([H])[H])(C([H])([H])[H])C([H])([H])[H])C([H])(C(=O)N([H])C3([H])c5c([H])c([H])c([H])c([H])c5C([H])([H])C([H])([H])C3([H])[H])C4([H])[H])C([H])([H])C2([H])[H])c1[H]

>  <smiles>  (70) 
[H]c1c([H])c(C(=O)N([H])C(=O)N2C([H])([H])C([H])([H])C([H])([H])C([H])(n3nc(-c4c([H])c([H])c(Oc5c([H])c([H])c(F)c([H])c5F)c([H])c4[H])c(C(=O)N([H])[H])c3N([H])[H])C2([H])[H])c([H])c(N2C(=O)C([H])(C([H])([H])Oc3c([H])c([H])c4c(c3[H])C([H])([H])N(C(=O)C([H])(N([H])C(=O)C([H])(N([H])C([H])([H])[H])C([H])([H])[H])C(C([H])([H])[H])(C([H])([H])[H])C([H])([H])[H])C([H])(C(=O)N([H])C3([H])c5c([H])c([H])c([H])c([H])c5C([H])([H])C([H])([H])C3([H])[H])C4([H])[H])C([H])([H])C2([H])[H])c1[H]

$$$$
70:0:0
     RDKit          3D

 95104  0  0  1  0  0  0  0  0999 V2000
  -28.8500  -23.8660   21.5050 C   0  0  0  0  0  0  0  0  0  0  0  0
  -29.1220  -22.3880   21.8430 C   0  0  0  0  0  0  0  0  0  0  0  0
  -28.8390  -22.5700   19.5560 C   0  0  0  0  0  2  0  0  0  0  0  0
  -28.3170  -23.9780   20.1040 C   0  0  0  0  0  3  0  0  0  0  0  0
  -29.2180  -21.6560   20.6940 N   0  0  0  0  0  0  0  0  0  0  0  0
  -28.9740  -24.8150   22.2920 O   0  0  0  0  0  0  0  0  0  0  0  0
  -29.1550  -22.0150   23.0180 O   0  0  0  0  0  0  0  0  0  0  0  0
  -29.2310  -19.4180   19.4160 C   0  0  0  0  0  3  0  0  0  0  0  0
  -30.4760  -18.0300   21.4690 C   0  0  0  0  0  3  0  0  0  0  0  0
  -29.5740  -20.1990   20.5690 C   0  0  0  0  0  0  0  0  0  0  0  0
  -30.0670  -17.2570   20.3560 C   0  0  0  0  0  0  0  0  0  0  0  0
  -29.4760  -18.0050   19.3010 C   0  0  0  0  0  0  0  0  0  0  0  0
  -30.2860  -19.4350   21.5580 C   0  0  0  0  0  0  0  0  0  0  0  0
  -29.0750  -17.3520   18.1830 F   0  0  0  0  0  0  0  0  0  0  0  0
  -30.8530  -20.0050   22.6430 F   0  0  0  0  0  0  0  0  0  0  0  0
  -30.8520  -14.7950   19.8870 C   0  0  0  0  0  0  0  0  0  0  0  0
  -30.6820  -12.4980   18.9210 C   0  0  0  0  0  2  0  0  0  0  0  0
  -29.6450  -12.5350   17.7730 C   0  0  0  0  0  2  0  0  0  0  0  0
  -28.2130  -12.3390   18.3110 C   0  0  0  0  0  2  0  0  0  0  0  0
  -27.9110  -13.2510   19.5320 C   0  0  0  0  0  3  0  0  0  0  0  0
  -29.0460  -13.1570   20.5750 C   0  0  0  0  0  2  0  0  0  0  0  0
  -30.3000  -13.5360   19.9010 N   0  0  0  0  0  0  0  0  0  0  0  0
  -31.9410  -15.0050   19.3430 O   0  0  0  0  0  0  0  0  0  0  0  0
  -30.0870  -15.7890   20.4480 N   0  0  0  0  0  0  0  0  0  0  0  0
  -29.3070  -15.4110   20.9640 H   0  0  0  0  0  0  0  0  0  0  0  0
  -25.6060  -13.8370   20.5080 C   0  0  0  0  0  0  0  0  0  0  0  0
  -24.5610  -13.0600   20.9240 C   0  0  0  0  0  0  0  0  0  0  0  0
  -24.9840  -11.7080   20.7520 C   0  0  0  0  0  0  0  0  0  0  0  0
  -26.6050  -12.9610   20.1170 N   0  0  0  0  0  0  0  0  0  0  0  0
  -26.2360  -11.6690   20.3170 N   0  0  0  0  0  0  0  0  0  0  0  0
  -24.2490  -10.4470   20.9240 C   0  0  0  0  0  0  0  0  0  0  0  0
  -24.6390   -9.4880   21.8850 C   0  0  0  0  0  3  0  0  0  0  0  0
  -23.9020   -8.2950   22.0450 C   0  0  0  0  0  3  0  0  0  0  0  0
  -22.7640   -8.0480   21.2400 C   0  0  0  0  0  0  0  0  0  0  0  0
  -22.3940   -8.9980   20.2710 C   0  0  0  0  0  3  0  0  0  0  0  0
  -23.1330  -10.1820   20.1090 C   0  0  0  0  0  3  0  0  0  0  0  0
  -22.0060   -6.9040   21.3030 O   0  0  0  0  0  0  0  0  0  0  0  0
  -21.7480   -6.2800   22.4960 C   0  0  0  0  0  0  0  0  0  0  0  0
  -21.0880   -6.9410   23.5550 C   0  0  0  0  0  3  0  0  0  0  0  0
  -20.7770   -6.2410   24.7370 C   0  0  0  0  0  3  0  0  0  0  0  0
  -21.1170   -4.8800   24.8630 C   0  0  0  0  0  0  0  0  0  0  0  0
  -21.7730   -4.2210   23.8080 C   0  0  0  0  0  3  0  0  0  0  0  0
  -22.0830   -4.9180   22.6280 C   0  0  0  0  0  0  0  0  0  0  0  0
  -22.6940   -4.2720   21.6060 F   0  0  0  0  0  0  0  0  0  0  0  0
  -20.8140   -4.2050   25.9960 F   0  0  0  0  0  0  0  0  0  0  0  0
  -23.2070  -13.5420   21.3600 C   0  0  0  0  0  0  0  0  0  0  0  0
  -22.5640  -12.8230   22.2730 N   0  0  0  0  0  0  0  0  0  0  0  0
  -22.7330  -14.5940   20.9320 O   0  0  0  0  0  0  0  0  0  0  0  0
  -22.9610  -11.9760   22.6510 H   0  0  0  0  0  0  0  0  0  0  0  0
  -21.6620  -13.1290   22.6080 H   0  0  0  0  0  0  0  0  0  0  0  0
  -25.7810  -15.2160   20.4180 N   0  0  0  0  0  0  0  0  0  0  0  0
  -25.0380  -15.8590   20.6690 H   0  0  0  0  0  0  0  0  0  0  0  0
  -26.5980  -15.6830   20.0470 H   0  0  0  0  0  0  0  0  0  0  0  0
  -28.6310  -25.3450   19.3320 C   0  0  0  0  0  2  0  0  0  0  0  0
  -28.4220  -26.6950   19.9110 O   0  0  0  0  0  0  0  0  0  0  0  0
  -24.5470  -31.8000   23.1840 C   0  0  0  0  0  0  0  0  0  0  0  0
  -27.2320  -27.4370   19.8920 C   0  0  0  0  0  0  0  0  0  0  0  0
  -23.3430  -30.4160   21.5230 C   0  0  0  0  0  3  0  0  0  0  0  0
  -24.8040  -28.9520   20.0050 C   0  0  0  0  0  0  0  0  0  0  0  0
  -25.8620  -30.8190   21.2900 C   0  0  0  0  0  2  0  0  0  0  0  0
  -25.9660  -29.4640   20.5940 C   0  0  0  0  0  0  0  0  0  0  0  0
  -27.1740  -28.7130   20.5330 C   0  0  0  0  0  3  0  0  0  0  0  0
  -26.0500  -26.9670   19.2870 C   0  0  0  0  0  3  0  0  0  0  0  0
  -24.8490  -27.7090   19.3440 C   0  0  0  0  0  3  0  0  0  0  0  0
  -23.5440  -29.7900   20.1130 C   0  0  0  0  0  2  0  0  0  0  0  0
  -24.6020  -31.0280   22.0560 N   0  0  0  0  0  0  0  0  0  0  0  0
  -23.4690  -32.0240   23.7540 O   0  0  0  0  0  0  0  0  0  0  0  0
  -22.7360  -29.3500   22.4680 C   0  0  0  0  0  0  0  0  0  0  0  0
  -21.4300  -29.0750   22.3110 N   0  0  0  0  0  0  0  0  0  0  0  0
  -23.4410  -28.7750   23.3010 O   0  0  0  0  0  0  0  0  0  0  0  0
  -20.9150  -29.5980   21.6160 H   0  0  0  0  0  0  0  0  0  0  0  0
  -18.1690  -27.5490   22.6600 C   0  0  0  0  0  0  0  0  0  0  0  0
  -20.6680  -28.0740   23.0620 C   0  0  0  0  0  3  0  0  0  0  0  0
  -20.9470  -26.6480   22.5310 C   0  0  0  0  0  2  0  0  0  0  0  0
  -19.9430  -26.1950   21.4660 C   0  0  0  0  0  2  0  0  0  0  0  0
  -18.5180  -26.2120   22.0300 C   0  0  0  0  0  2  0  0  0  0  0  0
  -19.1790  -28.4290   23.1310 C   0  0  0  0  0  0  0  0  0  0  0  0
  -18.8020  -29.6730   23.6810 C   0  0  0  0  0  3  0  0  0  0  0  0
  -17.4460  -30.0420   23.7620 C   0  0  0  0  0  3  0  0  0  0  0  0
  -16.4500  -29.1610   23.3070 C   0  0  0  0  0  3  0  0  0  0  0  0
  -16.8120  -27.9160   22.7610 C   0  0  0  0  0  3  0  0  0  0  0  0
  -25.8250  -32.4490   23.7950 C   0  0  0  0  0  3  0  0  0  0  0  0
  -25.4970  -33.8420   24.1360 N   0  0  0  0  0  0  0  0  0  0  0  0
  -25.7930  -34.9020   23.3730 C   0  0  0  0  0  0  0  0  0  0  0  0
  -26.4390  -34.8140   22.3250 O   0  0  0  0  0  0  0  0  0  0  0  0
  -24.9230  -33.9840   24.9550 H   0  0  0  0  0  0  0  0  0  0  0  0
  -24.0140  -36.6560   23.0800 C   0  0  0  0  0  1  0  0  0  0  0  0
  -25.2920  -36.2810   23.8470 C   0  0  0  0  0  3  0  0  0  0  0  0
  -27.4340  -37.2160   24.6010 C   0  0  0  0  0  1  0  0  0  0  0  0
  -26.2960  -37.3570   23.6960 N   0  0  0  0  0  0  0  0  0  0  0  0
  -25.8740  -38.2670   23.8550 H   0  0  0  0  0  0  0  0  0  0  0  0
  -26.3670  -31.6850   25.0660 C   0  0  1  0  0  0  0  0  0  0  0  0
  -25.2830  -31.4160   26.1370 C   0  0  0  0  0  1  0  0  0  0  0  0
  -26.9860  -30.3260   24.6640 C   0  0  0  0  0  1  0  0  0  0  0  0
  -27.4970  -32.5050   25.7310 C   0  0  0  0  0  1  0  0  0  0  0  0
  1  2  1  0
  1  6  2  0
  2  7  2  0
  3  4  1  0
  3  5  1  0
  4 54  1  0
  4  1  1  0
  5  2  1  0
  8 10  1  0
  9 13  1  0
 10  5  1  0
 10 13  2  0
 11 24  1  0
 11  9  2  0
 12  8  2  0
 12 11  1  0
 13 15  1  0
 14 12  1  0
 16 22  1  0
 16 24  1  0
 17 22  1  0
 18 19  1  0
 18 17  1  0
 20 19  1  0
 20 29  1  0
 20 21  1  0
 22 21  1  0
 23 16  2  0
 24 25  1  0
 26 27  2  0
 27 46  1  0
 28 27  1  0
 28 31  1  0
 29 30  1  0
 29 26  1  0
 30 28  2  0
 31 32  1  0
 32 33  2  0
 34 37  1  0
 34 33  1  0
 35 34  2  0
 36 35  1  0
 36 31  2  0
 37 38  1  0
 38 43  2  0
 38 39  1  0
 39 40  2  0
 40 41  1  0
 41 45  1  0
 42 41  2  0
 43 42  1  0
 44 43  1  0
 46 47  1  0
 47 50  1  0
 47 49  1  0
 48 46  2  0
 51 26  1  0
 51 52  1  0
 53 51  1  0
 54 55  1  0
 56 67  2  0
 57 55  1  0
 57 62  1  0
 58 66  1  0
 58 68  1  0
 59 65  1  0
 59 61  1  0
 60 66  1  0
 61 60  1  0
 62 61  2  0
 63 64  1  0
 63 57  2  0
 64 59  2  0
 65 58  1  0
 66 56  1  0
 68 70  2  0
 69 68  1  0
 71 69  1  0
 72 81  2  0
 72 77  1  0
 73 69  1  0
 73 77  1  0
 74 73  1  0
 75 76  1  0
 75 74  1  0
 76 72  1  0
 77 78  2  0
 78 79  1  0
 80 79  2  0
 81 80  1  0
 82 56  1  0
 82 83  1  0
 82 92  1  0
 83 86  1  0
 84 88  1  0
 84 83  1  0
 85 84  2  0
 88 87  1  0
 90 88  1  0
 90 91  1  0
 90 89  1  0
 92 95  1  1
 92 93  1  0
 94 92  1  0
M  ISO  4  16 100  24 100  54 101  55 101
M  END
>  <TORSDO>  (71) 
F 18

>  <SCORE>  (71) 
-14.087

>  <name>  (71) 
70

>  <ligand_id>  (71) 
70

>  <original_smiles>  (71) 
[H]c1c([H])c([H])c2c(c1[H])C([H])([H])C([H])([H])C([H])([H])C2([H])N([H])C(=O)C1([H])N(C(=O)C([H])(N([H])C(=O)C([H])(N([H])C([H])([H])[H])C([H])([H])[H])C(C([H])([H])[H])(C([H])([H])[H])C([H])([H])[H])C([H])([H])c2c([H])c(OC([H])([H])C3([H])C(=O)C(=O)N(c4c([H])c(F)c(N([H])C(=O)N5C([H])([H])C([H])([H])C([H])([H])C([H])(n6nc(-c7c([H])c([H])c(Oc8c([H])c([H])c(F)c([H])c8F)c([H])c7[H])c(C(=O)N([H])[H])c6N([H])[H])C5([H])[H])c([H])c4F)C3([H])[H])c([H])c([H])c2C1([H])[H]

>  <smiles>  (71) 
[H]c1c([H])c([H])c2c(c1[H])C([H])([H])C([H])([H])C([H])([H])C2([H])N([H])C(=O)C1([H])N(C(=O)C([H])(N([H])C(=O)C([H])(N([H])C([H])([H])[H])C([H])([H])[H])C(C([H])([H])[H])(C([H])([H])[H])C([H])([H])[H])C([H])([H])c2c([H])c(OC([H])([H])C3([H])C(=O)C(=O)N(c4c([H])c(F)c(N([H])C(=O)N5C([H])([H])C([H])([H])C([H])([H])C([H])(n6nc(-c7c([H])c([H])c(Oc8c([H])c([H])c(F)c([H])c8F)c([H])c7[H])c(C(=O)N([H])[H])c6N([H])[H])C5([H])[H])c([H])c4F)C3([H])[H])c([H])c([H])c2C1([H])[H]

$$$$
71:0:0
     RDKit          3D

 98106  0  0  1  0  0  0  0  0999 V2000
  -29.9180  -21.6560   21.0820 C   0  0  0  0  0  0  0  0  0  0  0  0
  -30.5730  -22.0910   22.1590 N   0  0  0  0  0  4  0  0  0  0  0  0
  -29.2760  -22.6320   20.3480 N   0  0  0  0  0  0  0  0  0  0  0  0
  -31.1490  -21.4160   22.6470 H   0  0  0  0  0  0  0  0  0  0  0  0
  -30.5450  -23.0390   22.4900 H   0  0  0  0  0  0  0  0  0  0  0  0
  -28.8050  -22.3030   19.5130 H   0  0  0  0  0  0  0  0  0  0  0  0
  -28.8110  -19.4280   20.4700 C   0  0  0  0  0  3  0  0  0  0  0  0
  -31.1220  -17.9100   20.9450 C   0  0  0  0  0  3  0  0  0  0  0  0
  -29.9820  -20.1500   20.8230 C   0  0  0  0  0  0  0  0  0  0  0  0
  -31.1560  -19.3390   21.0410 C   0  0  0  0  0  0  0  0  0  0  0  0
  -29.9310  -17.2030   20.6470 C   0  0  0  0  0  0  0  0  0  0  0  0
  -28.7850  -18.0030   20.4010 C   0  0  0  0  0  0  0  0  0  0  0  0
  -27.6160  -17.3820   20.1140 F   0  0  0  0  0  0  0  0  0  0  0  0
  -30.6030  -14.7120   20.2960 C   0  0  0  0  0  0  0  0  0  0  0  0
  -30.3710  -12.5010   19.1730 C   0  0  0  0  0  2  0  0  0  0  0  0
  -29.3850  -12.6550   17.9940 C   0  0  0  0  0  2  0  0  0  0  0  0
  -27.9240  -12.4920   18.4650 C   0  0  0  0  0  2  0  0  0  0  0  0
  -27.6070  -13.3240   19.7370 C   0  0  0  0  0  3  0  0  0  0  0  0
  -28.6990  -13.1310   20.8120 C   0  0  0  0  0  2  0  0  0  0  0  0
  -29.9910  -13.4890   20.2020 N   0  0  0  0  0  0  0  0  0  0  0  0
  -31.7600  -14.8870   19.8950 O   0  0  0  0  0  0  0  0  0  0  0  0
  -29.7850  -15.7460   20.6610 N   0  0  0  0  0  0  0  0  0  0  0  0
  -28.8460  -15.4430   20.8670 H   0  0  0  0  0  0  0  0  0  0  0  0
  -25.2390  -13.9180   20.5400 C   0  0  0  0  0  0  0  0  0  0  0  0
  -24.1800  -13.1410   20.9230 C   0  0  0  0  0  0  0  0  0  0  0  0
  -24.6350  -11.7880   20.8470 C   0  0  0  0  0  0  0  0  0  0  0  0
  -26.2720  -13.0380   20.2540 N   0  0  0  0  0  0  0  0  0  0  0  0
  -25.9150  -11.7510   20.4980 N   0  0  0  0  0  0  0  0  0  0  0  0
  -23.9080  -10.5260   21.0290 C   0  0  0  0  0  0  0  0  0  0  0  0
  -24.3460   -9.5480   21.9490 C   0  0  0  0  0  3  0  0  0  0  0  0
  -23.6190   -8.3490   22.1210 C   0  0  0  0  0  3  0  0  0  0  0  0
  -22.4400   -8.1210   21.3720 C   0  0  0  0  0  0  0  0  0  0  0  0
  -22.0220   -9.0880   20.4410 C   0  0  0  0  0  3  0  0  0  0  0  0
  -22.7490  -10.2770   20.2670 C   0  0  0  0  0  3  0  0  0  0  0  0
  -21.6850   -6.9750   21.4520 O   0  0  0  0  0  0  0  0  0  0  0  0
  -21.6190   -6.2370   22.6070 C   0  0  0  0  0  0  0  0  0  0  0  0
  -21.1300   -6.7830   23.8140 C   0  0  0  0  0  3  0  0  0  0  0  0
  -21.0140   -5.9680   24.9580 C   0  0  0  0  0  3  0  0  0  0  0  0
  -21.3780   -4.6090   24.8960 C   0  0  0  0  0  0  0  0  0  0  0  0
  -21.8610   -4.0630   23.6940 C   0  0  0  0  0  3  0  0  0  0  0  0
  -21.9790   -4.8750   22.5510 C   0  0  0  0  0  0  0  0  0  0  0  0
  -22.4240   -4.3400   21.3900 F   0  0  0  0  0  0  0  0  0  0  0  0
  -21.2600   -3.8240   25.9930 F   0  0  0  0  0  0  0  0  0  0  0  0
  -22.7940  -13.6170   21.2490 C   0  0  0  0  0  0  0  0  0  0  0  0
  -22.0860  -12.9010   22.1150 N   0  0  0  0  0  0  0  0  0  0  0  0
  -22.3480  -14.6610   20.7720 O   0  0  0  0  0  0  0  0  0  0  0  0
  -22.4600  -12.0560   22.5220 H   0  0  0  0  0  0  0  0  0  0  0  0
  -21.1570  -13.1990   22.3730 H   0  0  0  0  0  0  0  0  0  0  0  0
  -25.4010  -15.2910   20.3930 N   0  0  0  0  0  0  0  0  0  0  0  0
  -24.6380  -15.9360   20.5620 H   0  0  0  0  0  0  0  0  0  0  0  0
  -26.2420  -15.7640   20.0830 H   0  0  0  0  0  0  0  0  0  0  0  0
  -32.3920  -19.8870   21.4080 N   0  0  0  0  0  0  0  0  0  0  0  0
  -33.2050  -19.2780   21.4390 H   0  0  0  0  0  0  0  0  0  0  0  0
  -32.6320  -20.8210   21.0900 H   0  0  0  0  0  0  0  0  0  0  0  0
  -30.6700  -24.5900   19.6570 C   0  0  0  0  0  1  0  0  0  0  0  0
  -29.4330  -24.1540   20.4580 C   0  0  0  0  0  3  0  0  0  0  0  0
  -28.1930  -25.0790   20.0730 C   0  0  0  0  0  2  0  0  0  0  0  0
  -28.3460  -26.5460   20.2390 O   0  0  0  0  0  0  0  0  0  0  0  0
  -24.5650  -31.8920   23.2470 C   0  0  0  0  0  0  0  0  0  0  0  0
  -27.2080  -27.3680   20.1850 C   0  0  0  0  0  0  0  0  0  0  0  0
  -23.3670  -30.4940   21.6020 C   0  0  0  0  0  3  0  0  0  0  0  0
  -24.8260  -28.9550   20.1720 C   0  0  0  0  0  0  0  0  0  0  0  0
  -25.9020  -30.8330   21.4130 C   0  0  0  0  0  2  0  0  0  0  0  0
  -25.9910  -29.4560   20.7680 C   0  0  0  0  0  0  0  0  0  0  0  0
  -27.1840  -28.6740   20.7610 C   0  0  0  0  0  3  0  0  0  0  0  0
  -26.0180  -26.9160   19.5690 C   0  0  0  0  0  3  0  0  0  0  0  0
  -24.8420  -27.6910   19.5650 C   0  0  0  0  0  3  0  0  0  0  0  0
  -23.5840  -29.8200   20.2210 C   0  0  0  0  0  2  0  0  0  0  0  0
  -24.6310  -31.0920   22.1450 N   0  0  0  0  0  0  0  0  0  0  0  0
  -23.4810  -32.1600   23.7860 O   0  0  0  0  0  0  0  0  0  0  0  0
  -22.7100  -29.4730   22.5610 C   0  0  0  0  0  0  0  0  0  0  0  0
  -21.3850  -29.2870   22.4330 N   0  0  0  0  0  0  0  0  0  0  0  0
  -23.3930  -28.8500   23.3800 O   0  0  0  0  0  0  0  0  0  0  0  0
  -20.8940  -29.8410   21.7450 H   0  0  0  0  0  0  0  0  0  0  0  0
  -18.0110  -28.0880   22.9400 C   0  0  0  0  0  0  0  0  0  0  0  0
  -20.5700  -28.3430   23.2000 C   0  0  0  0  0  3  0  0  0  0  0  0
  -20.6690  -26.9150   22.6120 C   0  0  0  0  0  2  0  0  0  0  0  0
  -19.5620  -26.6020   21.6010 C   0  0  0  0  0  2  0  0  0  0  0  0
  -18.1830  -26.7460   22.2510 C   0  0  0  0  0  2  0  0  0  0  0  0
  -19.1330  -28.8450   23.3710 C   0  0  0  0  0  0  0  0  0  0  0  0
  -18.9170  -30.1050   23.9720 C   0  0  0  0  0  3  0  0  0  0  0  0
  -17.6130  -30.6060   24.1480 C   0  0  0  0  0  3  0  0  0  0  0  0
  -16.5060  -29.8450   23.7340 C   0  0  0  0  0  3  0  0  0  0  0  0
  -16.7060  -28.5880   23.1360 C   0  0  0  0  0  3  0  0  0  0  0  0
  -25.8450  -32.5300   23.8710 C   0  0  0  0  0  3  0  0  0  0  0  0
  -26.3580  -31.7630   25.1520 C   0  0  1  0  0  0  0  0  0  0  0  0
  -25.2600  -31.5210   26.2130 C   0  0  0  0  0  1  0  0  0  0  0  0
  -26.9480  -30.3880   24.7620 C   0  0  0  0  0  1  0  0  0  0  0  0
  -27.5000  -32.5620   25.8210 C   0  0  0  0  0  1  0  0  0  0  0  0
  -25.5330  -33.9280   24.1980 N   0  0  0  0  0  0  0  0  0  0  0  0
  -25.8490  -34.9790   23.4280 C   0  0  0  0  0  0  0  0  0  0  0  0
  -26.5030  -34.8720   22.3870 O   0  0  0  0  0  0  0  0  0  0  0  0
  -24.9510  -34.0850   25.0080 H   0  0  0  0  0  0  0  0  0  0  0  0
  -24.1070  -36.7600   23.0900 C   0  0  0  0  0  1  0  0  0  0  0  0
  -25.3630  -36.3680   23.8850 C   0  0  0  0  0  3  0  0  0  0  0  0
  -27.5010  -37.2740   24.6850 C   0  0  0  0  0  1  0  0  0  0  0  0
  -26.3890  -37.4240   23.7490 N   0  0  0  0  0  0  0  0  0  0  0  0
  -25.9790  -38.3440   23.8870 H   0  0  0  0  0  0  0  0  0  0  0  0
  1  2  2  0
  2  5  1  0
  2  4  1  0
  3 56  1  0
  3  1  1  0
  6  3  1  0
  7  9  1  0
  8 10  1  0
  9 10  2  0
  9  1  1  0
 10 52  1  0
 11 22  1  0
 11  8  2  0
 12  7  2  0
 12 11  1  0
 13 12  1  0
 14 22  1  0
 15 20  1  0
 16 17  1  0
 16 15  1  0
 18 17  1  0
 18 27  1  0
 18 19  1  0
 20 14  1  0
 20 19  1  0
 21 14  2  0
 22 23  1  0
 24 25  2  0
 25 44  1  0
 26 25  1  0
 26 29  1  0
 27 28  1  0
 27 24  1  0
 28 26  2  0
 29 30  1  0
 30 31  2  0
 32 35  1  0
 32 31  1  0
 33 32  2  0
 34 33  1  0
 34 29  2  0
 35 36  1  0
 36 37  1  0
 37 38  2  0
 39 38  1  0
 39 43  1  0
 40 39  2  0
 41 36  2  0
 41 40  1  0
 42 41  1  0
 44 45  1  0
 45 48  1  0
 45 47  1  0
 46 44  2  0
 49 24  1  0
 49 50  1  0
 51 49  1  0
 52 53  1  0
 54 52  1  0
 56 55  1  0
 57 58  1  0
 57 56  1  0
 59 70  2  0
 60 58  1  0
 60 65  1  0
 61 69  1  0
 61 71  1  0
 62 68  1  0
 62 64  1  0
 63 69  1  0
 64 63  1  0
 65 64  2  0
 66 60  2  0
 67 66  1  0
 67 62  2  0
 68 61  1  0
 69 59  1  0
 71 73  2  0
 72 71  1  0
 74 72  1  0
 75 84  2  0
 75 80  1  0
 76 72  1  0
 76 80  1  0
 77 76  1  0
 78 79  1  0
 78 77  1  0
 79 75  1  0
 80 81  2  0
 81 82  1  0
 83 82  2  0
 84 83  1  0
 85 59  1  0
 85 90  1  0
 85 86  1  0
 86 89  1  1
 86 87  1  0
 88 86  1  0
 90 93  1  0
 91 95  1  0
 91 90  1  0
 92 91  2  0
 95 94  1  0
 97 95  1  0
 97 98  1  0
 97 96  1  0
M  ISO  4  14 100  22 100  57 101  58 101
M  END
>  <TORSDO>  (72) 
F 20

>  <SCORE>  (72) 
-14.587

>  <name>  (72) 
71

>  <ligand_id>  (72) 
71

>  <original_smiles>  (72) 
[H]c1c([H])c([H])c2c(c1[H])C([H])([H])C([H])([H])C([H])([H])C2([H])N([H])C(=O)C1([H])N(C(=O)C([H])(N([H])C(=O)C([H])(N([H])C([H])([H])[H])C([H])([H])[H])C(C([H])([H])[H])(C([H])([H])[H])C([H])([H])[H])C([H])([H])c2c([H])c(OC([H])([H])C([H])([N+]([H])=C(c3c([H])c(F)c(N([H])C(=O)N4C([H])([H])C([H])([H])C([H])([H])C([H])(n5nc(-c6c([H])c([H])c(Oc7c([H])c([H])c(F)c([H])c7F)c([H])c6[H])c(C(=O)N([H])[H])c5N([H])[H])C4([H])[H])c([H])c3N([H])[H])N([H])[H])C([H])([H])[H])c([H])c([H])c2C1([H])[H]

>  <smiles>  (72) 
[H]c1c([H])c([H])c2c(c1[H])C([H])([H])C([H])([H])C([H])([H])C2([H])N([H])C(=O)C1([H])N(C(=O)C([H])(N([H])C(=O)C([H])(N([H])C([H])([H])[H])C([H])([H])[H])C(C([H])([H])[H])(C([H])([H])[H])C([H])([H])[H])C([H])([H])c2c([H])c(OC([H])([H])C([H])([N+]([H])=C(c3c([H])c(F)c(N([H])C(=O)N4C([H])([H])C([H])([H])C([H])([H])C([H])(n5nc(-c6c([H])c([H])c(Oc7c([H])c([H])c(F)c([H])c7F)c([H])c6[H])c(C(=O)N([H])[H])c5N([H])[H])C4([H])[H])c([H])c3N([H])[H])N([H])[H])C([H])([H])[H])c([H])c([H])c2C1([H])[H]

$$$$
72:0:0
     RDKit          3D

 96105  0  0  1  0  0  0  0  0999 V2000
  -27.2980  -22.8180   19.9640 C   0  0  0  0  0  0  0  0  0  0  0  0
  -27.7490  -21.3230   19.9570 C   0  0  0  0  0  0  0  0  0  0  0  0
  -29.6010  -22.6740   20.3180 C   0  0  0  0  0  2  0  0  0  0  0  0
  -28.4990  -23.7620   19.9560 C   0  0  0  0  0  3  0  0  0  0  0  0
  -29.0890  -21.2560   20.1260 N   0  0  0  0  0  0  0  0  0  0  0  0
  -26.1210  -23.2020   19.9530 O   0  0  0  0  0  0  0  0  0  0  0  0
  -26.9660  -20.3730   19.8100 O   0  0  0  0  0  0  0  0  0  0  0  0
  -29.5120  -18.6160   20.1880 C   0  0  0  0  0  3  0  0  0  0  0  0
  -31.3270  -20.2090   19.9050 C   0  0  0  0  0  3  0  0  0  0  0  0
  -31.7850  -17.8120   19.9200 C   0  0  0  0  0  3  0  0  0  0  0  0
  -29.9370  -20.0150   20.0850 C   0  0  0  0  0  0  0  0  0  0  0  0
  -30.4200  -17.4740   20.1080 C   0  0  0  0  0  0  0  0  0  0  0  0
  -32.2480  -19.1430   19.7930 C   0  0  0  0  0  0  0  0  0  0  0  0
  -30.7070  -14.8470   19.9660 C   0  0  0  0  0  0  0  0  0  0  0  0
  -30.4030  -12.5750   18.9740 C   0  0  0  0  0  2  0  0  0  0  0  0
  -29.4000  -12.6480   17.8040 C   0  0  0  0  0  2  0  0  0  0  0  0
  -27.9620  -12.4670   18.3230 C   0  0  0  0  0  2  0  0  0  0  0  0
  -27.6560  -13.3520   19.5590 C   0  0  0  0  0  3  0  0  0  0  0  0
  -28.7810  -13.2950   20.6150 C   0  0  0  0  0  2  0  0  0  0  0  0
  -30.0350  -13.6420   19.9370 N   0  0  0  0  0  0  0  0  0  0  0  0
  -31.8750  -14.8630   19.5780 O   0  0  0  0  0  0  0  0  0  0  0  0
  -30.0070  -16.0320   20.2150 N   0  0  0  0  0  0  0  0  0  0  0  0
  -29.0390  -15.8820   20.4580 H   0  0  0  0  0  0  0  0  0  0  0  0
  -25.3240  -13.9190   20.4570 C   0  0  0  0  0  0  0  0  0  0  0  0
  -24.2820  -13.1340   20.8690 C   0  0  0  0  0  0  0  0  0  0  0  0
  -24.7390  -11.7840   20.7710 C   0  0  0  0  0  0  0  0  0  0  0  0
  -26.3490  -13.0470   20.1300 N   0  0  0  0  0  0  0  0  0  0  0  0
  -26.0090  -11.7560   20.3830 N   0  0  0  0  0  0  0  0  0  0  0  0
  -24.0230  -10.5170   20.9670 C   0  0  0  0  0  0  0  0  0  0  0  0
  -24.4810   -9.5430   21.8820 C   0  0  0  0  0  3  0  0  0  0  0  0
  -23.7620   -8.3420   22.0680 C   0  0  0  0  0  3  0  0  0  0  0  0
  -22.5730   -8.1050   21.3400 C   0  0  0  0  0  0  0  0  0  0  0  0
  -22.1330   -9.0690   20.4140 C   0  0  0  0  0  3  0  0  0  0  0  0
  -22.8520  -10.2610   20.2270 C   0  0  0  0  0  3  0  0  0  0  0  0
  -21.8240   -6.9590   21.4370 O   0  0  0  0  0  0  0  0  0  0  0  0
  -21.7610   -6.2360   22.6000 C   0  0  0  0  0  0  0  0  0  0  0  0
  -21.2860   -6.8000   23.8040 C   0  0  0  0  0  3  0  0  0  0  0  0
  -21.1750   -6.0020   24.9600 C   0  0  0  0  0  3  0  0  0  0  0  0
  -21.5270   -4.6400   24.9130 C   0  0  0  0  0  0  0  0  0  0  0  0
  -21.9960   -4.0750   23.7140 C   0  0  0  0  0  3  0  0  0  0  0  0
  -22.1090   -4.8700   22.5610 C   0  0  0  0  0  0  0  0  0  0  0  0
  -22.5400   -4.3150   21.4020 F   0  0  0  0  0  0  0  0  0  0  0  0
  -21.4130   -3.8710   26.0210 F   0  0  0  0  0  0  0  0  0  0  0  0
  -22.9040  -13.6030   21.2370 C   0  0  0  0  0  0  0  0  0  0  0  0
  -22.2290  -12.8850   22.1260 N   0  0  0  0  0  0  0  0  0  0  0  0
  -22.4390  -14.6430   20.7720 O   0  0  0  0  0  0  0  0  0  0  0  0
  -22.6200  -12.0420   22.5200 H   0  0  0  0  0  0  0  0  0  0  0  0
  -21.3090  -13.1820   22.4160 H   0  0  0  0  0  0  0  0  0  0  0  0
  -25.4790  -15.2940   20.3080 N   0  0  0  0  0  0  0  0  0  0  0  0
  -24.7210  -15.9450   20.4820 H   0  0  0  0  0  0  0  0  0  0  0  0
  -26.3010  -15.7390   19.9190 H   0  0  0  0  0  0  0  0  0  0  0  0
  -33.9640  -20.6240   18.7910 C   0  0  0  0  0  1  0  0  0  0  0  0
  -34.6200  -18.3660   19.6580 C   0  0  0  0  0  1  0  0  0  0  0  0
  -33.6160  -19.4220   19.5490 N   0  0  0  0  0  0  0  0  0  0  0  0
  -28.3300  -25.1410   20.8050 C   0  0  0  0  0  2  0  0  0  0  0  0
  -28.4300  -26.5210   20.2300 O   0  0  0  0  0  0  0  0  0  0  0  0
  -24.6230  -31.9210   23.2570 C   0  0  0  0  0  0  0  0  0  0  0  0
  -27.3050  -27.3680   20.2360 C   0  0  0  0  0  0  0  0  0  0  0  0
  -23.4490  -30.5160   21.6020 C   0  0  0  0  0  3  0  0  0  0  0  0
  -24.9310  -28.9710   20.1940 C   0  0  0  0  0  0  0  0  0  0  0  0
  -25.9900  -30.8530   21.4470 C   0  0  0  0  0  2  0  0  0  0  0  0
  -26.0910  -29.4730   20.7990 C   0  0  0  0  0  0  0  0  0  0  0  0
  -27.2840  -28.6850   20.8020 C   0  0  0  0  0  3  0  0  0  0  0  0
  -26.1220  -26.9180   19.6180 C   0  0  0  0  0  3  0  0  0  0  0  0
  -24.9490  -27.7000   19.5930 C   0  0  0  0  0  3  0  0  0  0  0  0
  -23.6860  -29.8360   20.2250 C   0  0  0  0  0  2  0  0  0  0  0  0
  -24.7050  -31.1160   22.1580 N   0  0  0  0  0  0  0  0  0  0  0  0
  -23.5310  -32.1890   23.7810 O   0  0  0  0  0  0  0  0  0  0  0  0
  -22.7830  -29.4960   22.5540 C   0  0  0  0  0  0  0  0  0  0  0  0
  -21.4560  -29.3210   22.4220 N   0  0  0  0  0  0  0  0  0  0  0  0
  -23.4590  -28.8620   23.3680 O   0  0  0  0  0  0  0  0  0  0  0  0
  -20.9700  -29.8840   21.7380 H   0  0  0  0  0  0  0  0  0  0  0  0
  -18.0730  -28.1350   22.9140 C   0  0  0  0  0  0  0  0  0  0  0  0
  -20.6340  -28.3790   23.1820 C   0  0  0  0  0  3  0  0  0  0  0  0
  -20.7270  -26.9540   22.5890 C   0  0  0  0  0  2  0  0  0  0  0  0
  -19.6220  -26.6480   21.5740 C   0  0  0  0  0  2  0  0  0  0  0  0
  -18.2410  -26.7940   22.2220 C   0  0  0  0  0  2  0  0  0  0  0  0
  -19.1960  -28.8860   23.3520 C   0  0  0  0  0  0  0  0  0  0  0  0
  -18.9840  -30.1420   23.9590 C   0  0  0  0  0  3  0  0  0  0  0  0
  -17.6830  -30.6480   24.1350 C   0  0  0  0  0  3  0  0  0  0  0  0
  -16.5740  -29.8930   23.7150 C   0  0  0  0  0  3  0  0  0  0  0  0
  -16.7700  -28.6390   23.1110 C   0  0  0  0  0  3  0  0  0  0  0  0
  -25.8920  -32.5650   23.8950 C   0  0  0  0  0  3  0  0  0  0  0  0
  -26.3890  -31.8080   25.1880 C   0  0  1  0  0  0  0  0  0  0  0  0
  -25.2780  -31.5760   26.2390 C   0  0  0  0  0  1  0  0  0  0  0  0
  -26.9860  -30.4300   24.8230 C   0  0  0  0  0  1  0  0  0  0  0  0
  -27.5250  -32.6130   25.8630 C   0  0  0  0  0  1  0  0  0  0  0  0
  -25.5730  -33.9650   24.2100 N   0  0  0  0  0  0  0  0  0  0  0  0
  -25.9070  -35.0130   23.4450 C   0  0  0  0  0  0  0  0  0  0  0  0
  -26.5860  -34.9030   22.4200 O   0  0  0  0  0  0  0  0  0  0  0  0
  -24.9690  -34.1240   25.0030 H   0  0  0  0  0  0  0  0  0  0  0  0
  -24.1750  -36.7970   23.0620 C   0  0  0  0  0  1  0  0  0  0  0  0
  -25.4120  -36.4040   23.8860 C   0  0  0  0  0  3  0  0  0  0  0  0
  -27.5350  -37.3060   24.7280 C   0  0  0  0  0  1  0  0  0  0  0  0
  -26.4410  -37.4600   23.7740 N   0  0  0  0  0  0  0  0  0  0  0  0
  -26.0300  -38.3790   23.9100 H   0  0  0  0  0  0  0  0  0  0  0  0
  2  1  1  0
  2  5  1  0
  4  1  1  0
  4  3  1  0
  4 55  1  0
  5  3  1  0
  6  1  2  0
  7  2  2  0
  9 11  1  0
 10 12  2  0
 11  5  1  0
 11  8  2  0
 12  8  1  0
 12 22  1  0
 13  9  2  0
 13 10  1  0
 14 22  1  0
 15 20  1  0
 16 17  1  0
 16 15  1  0
 18 17  1  0
 18 27  1  0
 18 19  1  0
 20 14  1  0
 20 19  1  0
 21 14  2  0
 22 23  1  0
 24 25  2  0
 25 44  1  0
 26 25  1  0
 26 29  1  0
 27 28  1  0
 27 24  1  0
 28 26  2  0
 29 30  1  0
 30 31  2  0
 32 35  1  0
 32 31  1  0
 33 32  2  0
 34 33  1  0
 34 29  2  0
 35 36  1  0
 36 37  1  0
 37 38  2  0
 39 38  1  0
 39 43  1  0
 40 39  2  0
 41 36  2  0
 41 40  1  0
 42 41  1  0
 44 45  1  0
 45 48  1  0
 45 47  1  0
 46 44  2  0
 49 24  1  0
 49 50  1  0
 51 49  1  0
 52 54  1  0
 54 53  1  0
 54 13  1  0
 56 58  1  0
 56 55  1  0
 57 68  2  0
 58 63  1  0
 59 67  1  0
 59 69  1  0
 60 66  1  0
 60 62  1  0
 61 67  1  0
 62 63  2  0
 62 61  1  0
 64 58  2  0
 65 64  1  0
 65 60  2  0
 66 59  1  0
 67 57  1  0
 69 71  2  0
 70 69  1  0
 72 70  1  0
 73 82  2  0
 73 78  1  0
 74 70  1  0
 74 78  1  0
 75 74  1  0
 76 77  1  0
 76 75  1  0
 77 73  1  0
 78 79  2  0
 79 80  1  0
 81 80  2  0
 82 81  1  0
 83 57  1  0
 83 88  1  0
 83 84  1  0
 84 87  1  1
 84 85  1  0
 86 84  1  0
 88 91  1  0
 89 93  1  0
 89 88  1  0
 90 89  2  0
 93 92  1  0
 95 93  1  0
 95 96  1  0
 95 94  1  0
M  ISO  4  14 100  22 100  55 101  56 101
M  END
>  <TORSDO>  (73) 
F 19

>  <SCORE>  (73) 
-14.035

>  <name>  (73) 
72

>  <ligand_id>  (73) 
72

>  <original_smiles>  (73) 
[H]c1c([H])c([H])c2c(c1[H])C([H])([H])C([H])([H])C([H])([H])C2([H])N([H])C(=O)C1([H])N(C(=O)C([H])(N([H])C(=O)C([H])(N([H])C([H])([H])[H])C([H])([H])[H])C(C([H])([H])[H])(C([H])([H])[H])C([H])([H])[H])C([H])([H])c2c([H])c(OC([H])([H])C3([H])C(=O)C(=O)N(c4c([H])c(N([H])C(=O)N5C([H])([H])C([H])([H])C([H])([H])C([H])(n6nc(-c7c([H])c([H])c(Oc8c([H])c([H])c(F)c([H])c8F)c([H])c7[H])c(C(=O)N([H])[H])c6N([H])[H])C5([H])[H])c([H])c(N(C([H])([H])[H])C([H])([H])[H])c4[H])C3([H])[H])c([H])c([H])c2C1([H])[H]

>  <smiles>  (73) 
[H]c1c([H])c([H])c2c(c1[H])C([H])([H])C([H])([H])C([H])([H])C2([H])N([H])C(=O)C1([H])N(C(=O)C([H])(N([H])C(=O)C([H])(N([H])C([H])([H])[H])C([H])([H])[H])C(C([H])([H])[H])(C([H])([H])[H])C([H])([H])[H])C([H])([H])c2c([H])c(OC([H])([H])C3([H])C(=O)C(=O)N(c4c([H])c(N([H])C(=O)N5C([H])([H])C([H])([H])C([H])([H])C([H])(n6nc(-c7c([H])c([H])c(Oc8c([H])c([H])c(F)c([H])c8F)c([H])c7[H])c(C(=O)N([H])[H])c6N([H])[H])C5([H])[H])c([H])c(N(C([H])([H])[H])C([H])([H])[H])c4[H])C3([H])[H])c([H])c([H])c2C1([H])[H]

$$$$
73:0:0
     RDKit          3D

 94102  0  0  1  0  0  0  0  0999 V2000
  -30.3150  -17.9560   21.8800 C   0  0  0  0  0  3  0  0  0  0  0  0
  -30.2170  -19.1880   22.5650 C   0  0  0  0  0  3  0  0  0  0  0  0
  -29.7790  -19.1700   19.8590 C   0  0  0  0  0  3  0  0  0  0  0  0
  -29.6830  -20.5130   20.5340 C   0  0  0  0  0  0  0  0  0  0  0  0
  -30.0930  -17.8450   20.4930 C   0  0  0  0  0  0  0  0  0  0  0  0
  -29.9230  -20.4270   21.9360 C   0  0  0  0  0  0  0  0  0  0  0  0
  -30.7930  -15.1980   19.9900 C   0  0  0  0  0  0  0  0  0  0  0  0
  -30.6240  -12.8620   18.9650 C   0  0  0  0  0  2  0  0  0  0  0  0
  -29.6300  -12.8160   17.7820 C   0  0  0  0  0  2  0  0  0  0  0  0
  -28.1870  -12.6070   18.2820 C   0  0  0  0  0  2  0  0  0  0  0  0
  -27.8400  -13.5170   19.4890 C   0  0  0  0  0  3  0  0  0  0  0  0
  -28.9480  -13.5130   20.5590 C   0  0  0  0  0  2  0  0  0  0  0  0
  -30.1750  -13.9480   19.8820 N   0  0  0  0  0  0  0  0  0  0  0  0
  -32.0140  -15.2260   19.7910 O   0  0  0  0  0  0  0  0  0  0  0  0
  -30.0100  -16.4020   19.9340 N   0  0  0  0  0  0  0  0  0  0  0  0
  -29.0840  -16.1880   19.6010 H   0  0  0  0  0  0  0  0  0  0  0  0
  -25.5020  -14.1100   20.3380 C   0  0  0  0  0  0  0  0  0  0  0  0
  -24.4460  -13.3420   20.7410 C   0  0  0  0  0  0  0  0  0  0  0  0
  -24.8960  -11.9890   20.6830 C   0  0  0  0  0  0  0  0  0  0  0  0
  -26.5250  -13.2250   20.0480 N   0  0  0  0  0  0  0  0  0  0  0  0
  -26.1740  -11.9430   20.3240 N   0  0  0  0  0  0  0  0  0  0  0  0
  -24.1650  -10.7320   20.8910 C   0  0  0  0  0  0  0  0  0  0  0  0
  -24.5830   -9.7810   21.8480 C   0  0  0  0  0  3  0  0  0  0  0  0
  -23.8510   -8.5910   22.0410 C   0  0  0  0  0  3  0  0  0  0  0  0
  -22.6850   -8.3410   21.2790 C   0  0  0  0  0  0  0  0  0  0  0  0
  -22.2850   -9.2810   20.3110 C   0  0  0  0  0  3  0  0  0  0  0  0
  -23.0190  -10.4630   20.1150 C   0  0  0  0  0  3  0  0  0  0  0  0
  -21.9250   -7.2020   21.3820 O   0  0  0  0  0  0  0  0  0  0  0  0
  -21.8330   -6.5020   22.5580 C   0  0  0  0  0  0  0  0  0  0  0  0
  -21.3260   -7.0910   23.7370 C   0  0  0  0  0  3  0  0  0  0  0  0
  -21.1830   -6.3160   24.9060 C   0  0  0  0  0  3  0  0  0  0  0  0
  -21.5360   -4.9530   24.8960 C   0  0  0  0  0  0  0  0  0  0  0  0
  -22.0360   -4.3640   23.7210 C   0  0  0  0  0  3  0  0  0  0  0  0
  -22.1800   -5.1360   22.5540 C   0  0  0  0  0  0  0  0  0  0  0  0
  -22.6410   -4.5590   21.4190 F   0  0  0  0  0  0  0  0  0  0  0  0
  -21.3930   -4.2060   26.0150 F   0  0  0  0  0  0  0  0  0  0  0  0
  -23.0640  -13.8320   21.0660 C   0  0  0  0  0  0  0  0  0  0  0  0
  -22.3560  -13.1330   21.9450 N   0  0  0  0  0  0  0  0  0  0  0  0
  -22.6220  -14.8690   20.5730 O   0  0  0  0  0  0  0  0  0  0  0  0
  -22.7290  -12.2950   22.3670 H   0  0  0  0  0  0  0  0  0  0  0  0
  -21.4310  -13.4420   22.2050 H   0  0  0  0  0  0  0  0  0  0  0  0
  -25.6690  -15.4820   20.1670 N   0  0  0  0  0  0  0  0  0  0  0  0
  -24.9120  -16.1380   20.3210 H   0  0  0  0  0  0  0  0  0  0  0  0
  -26.5070  -15.9260   19.8160 H   0  0  0  0  0  0  0  0  0  0  0  0
  -29.9210  -21.5540   22.7650 N   0  0  0  0  0  0  0  0  0  0  0  0
  -30.5880  -22.2720   22.4990 H   0  0  0  0  0  0  0  0  0  0  0  0
  -30.0930  -21.3400   23.7430 H   0  0  0  0  0  0  0  0  0  0  0  0
  -29.5090  -21.9970   19.8450 C   0  0  0  0  0  0  0  0  0  0  0  0
  -30.1750  -22.2050   18.8270 O   0  0  0  0  0  0  0  0  0  0  0  0
  -28.4860  -23.2720   20.2620 C   0  0  0  0  0  3  0  0  0  0  0  0
  -27.5470  -22.7690   21.2070 O   0  0  0  0  0  0  0  0  0  0  0  0
  -28.0760  -22.3560   21.8980 H   0  0  0  0  0  0  0  0  0  0  0  0
  -28.8240  -24.8870   20.7490 C   0  0  0  0  0  2  0  0  0  0  0  0
  -28.6520  -26.3420   20.1670 O   0  0  0  0  0  0  0  0  0  0  0  0
  -24.7290  -31.8780   23.2300 C   0  0  0  0  0  0  0  0  0  0  0  0
  -27.5220  -27.2440   20.2480 C   0  0  0  0  0  0  0  0  0  0  0  0
  -23.6120  -30.4600   21.5520 C   0  0  0  0  0  3  0  0  0  0  0  0
  -25.1410  -28.9250   20.1640 C   0  0  0  0  0  0  0  0  0  0  0  0
  -26.1590  -30.7990   21.4490 C   0  0  0  0  0  2  0  0  0  0  0  0
  -26.2920  -29.4070   20.7990 C   0  0  0  0  0  0  0  0  0  0  0  0
  -27.4860  -28.5860   20.8150 C   0  0  0  0  0  3  0  0  0  0  0  0
  -26.3400  -26.8590   19.5860 C   0  0  0  0  0  3  0  0  0  0  0  0
  -25.1780  -27.6660   19.5410 C   0  0  0  0  0  3  0  0  0  0  0  0
  -23.8890  -29.7920   20.1770 C   0  0  0  0  0  2  0  0  0  0  0  0
  -24.8530  -31.0700   22.1320 N   0  0  0  0  0  0  0  0  0  0  0  0
  -23.6220  -32.1240   23.7350 O   0  0  0  0  0  0  0  0  0  0  0  0
  -22.9400  -29.4280   22.4920 C   0  0  0  0  0  0  0  0  0  0  0  0
  -21.6180  -29.2310   22.3460 N   0  0  0  0  0  0  0  0  0  0  0  0
  -23.6130  -28.8030   23.3160 O   0  0  0  0  0  0  0  0  0  0  0  0
  -21.1290  -29.7870   21.6570 H   0  0  0  0  0  0  0  0  0  0  0  0
  -18.2510  -27.9740   22.8100 C   0  0  0  0  0  0  0  0  0  0  0  0
  -20.8060  -28.2650   23.0900 C   0  0  0  0  0  3  0  0  0  0  0  0
  -20.9290  -26.8480   22.4810 C   0  0  0  0  0  2  0  0  0  0  0  0
  -19.8330  -26.5360   21.4560 C   0  0  0  0  0  2  0  0  0  0  0  0
  -18.4480  -26.6450   22.1000 C   0  0  0  0  0  2  0  0  0  0  0  0
  -19.3590  -28.7410   23.2620 C   0  0  0  0  0  0  0  0  0  0  0  0
  -19.1200  -29.9830   23.8880 C   0  0  0  0  0  3  0  0  0  0  0  0
  -17.8070  -30.4600   24.0660 C   0  0  0  0  0  3  0  0  0  0  0  0
  -16.7150  -29.6900   23.6290 C   0  0  0  0  0  3  0  0  0  0  0  0
  -16.9380  -28.4480   23.0090 C   0  0  0  0  0  3  0  0  0  0  0  0
  -25.9700  -32.5480   23.8930 C   0  0  0  0  0  3  0  0  0  0  0  0
  -25.6230  -33.9490   24.1870 N   0  0  0  0  0  0  0  0  0  0  0  0
  -25.9670  -34.9980   23.4270 C   0  0  0  0  0  0  0  0  0  0  0  0
  -26.6780  -34.8890   22.4250 O   0  0  0  0  0  0  0  0  0  0  0  0
  -24.9940  -34.1040   24.9600 H   0  0  0  0  0  0  0  0  0  0  0  0
  -24.2300  -36.7640   22.9820 C   0  0  0  0  0  1  0  0  0  0  0  0
  -25.4450  -36.3870   23.8460 C   0  0  0  0  0  3  0  0  0  0  0  0
  -27.5290  -37.3210   24.7520 C   0  0  0  0  0  1  0  0  0  0  0  0
  -26.4660  -37.4530   23.7570 N   0  0  0  0  0  0  0  0  0  0  0  0
  -26.0420  -38.3700   23.8680 H   0  0  0  0  0  0  0  0  0  0  0  0
  -26.4410  -31.8150   25.2100 C   0  0  1  0  0  0  0  0  0  0  0  0
  -25.3050  -31.5820   26.2340 C   0  0  0  0  0  1  0  0  0  0  0  0
  -27.0630  -30.4390   24.8800 C   0  0  0  0  0  1  0  0  0  0  0  0
  -27.5470  -32.6430   25.9040 C   0  0  0  0  0  1  0  0  0  0  0  0
  1  2  1  0
  3  5  1  0
  3  4  2  0
  4  6  1  0
  5  1  2  0
  6  2  2  0
  6 45  1  0
  8 13  1  0
  9 10  1  0
  9  8  1  0
 11 10  1  0
 11 20  1  0
 11 12  1  0
 13  7  1  0
 13 12  1  0
 14  7  2  0
 15  7  1  0
 15  5  1  0
 16 15  1  0
 17 18  2  0
 18 37  1  0
 19 18  1  0
 19 22  1  0
 20 21  1  0
 20 17  1  0
 21 19  2  0
 22 23  1  0
 23 24  2  0
 25 28  1  0
 25 24  1  0
 26 25  2  0
 27 26  1  0
 27 22  2  0
 28 29  1  0
 29 30  1  0
 30 31  2  0
 32 31  1  0
 32 36  1  0
 33 32  2  0
 34 29  2  0
 34 33  1  0
 35 34  1  0
 37 38  1  0
 38 41  1  0
 38 40  1  0
 39 37  2  0
 42 43  1  0
 42 17  1  0
 44 42  1  0
 45 47  1  0
 46 45  1  0
 48 50  1  0
 48  4  1  0
 49 48  2  0
 50 53  1  0
 50 51  1  0
 51 52  1  0
 54 56  1  0
 54 53  1  0
 55 66  2  0
 56 61  1  0
 57 65  1  0
 57 67  1  0
 58 64  1  0
 58 60  1  0
 59 65  1  0
 60 61  2  0
 60 59  1  0
 62 56  2  0
 63 62  1  0
 63 58  2  0
 64 57  1  0
 65 55  1  0
 67 69  2  0
 68 67  1  0
 70 68  1  0
 71 80  2  0
 71 76  1  0
 72 68  1  0
 72 76  1  0
 73 72  1  0
 74 75  1  0
 74 73  1  0
 75 71  1  0
 76 77  2  0
 77 78  1  0
 79 78  2  0
 80 79  1  0
 81 55  1  0
 81 82  1  0
 81 91  1  0
 82 85  1  0
 83 87  1  0
 83 82  1  0
 84 83  2  0
 87 86  1  0
 89 87  1  0
 89 90  1  0
 89 88  1  0
 91 94  1  1
 91 92  1  0
 93 91  1  0
M  ISO  4   7 100  15 100  53 101  54 101
M  END
>  <TORSDO>  (74) 
F 21

>  <SCORE>  (74) 
-13.432

>  <name>  (74) 
73

>  <ligand_id>  (74) 
73

>  <original_smiles>  (74) 
[H]OC([H])(C(=O)c1c([H])c(N([H])C(=O)N2C([H])([H])C([H])([H])C([H])([H])C([H])(n3nc(-c4c([H])c([H])c(Oc5c([H])c([H])c(F)c([H])c5F)c([H])c4[H])c(C(=O)N([H])[H])c3N([H])[H])C2([H])[H])c([H])c([H])c1N([H])[H])C([H])([H])Oc1c([H])c([H])c2c(c1[H])C([H])([H])N(C(=O)C([H])(N([H])C(=O)C([H])(N([H])C([H])([H])[H])C([H])([H])[H])C(C([H])([H])[H])(C([H])([H])[H])C([H])([H])[H])C([H])(C(=O)N([H])C1([H])c3c([H])c([H])c([H])c([H])c3C([H])([H])C([H])([H])C1([H])[H])C2([H])[H]

>  <smiles>  (74) 
[H]OC([H])(C(=O)c1c([H])c(N([H])C(=O)N2C([H])([H])C([H])([H])C([H])([H])C([H])(n3nc(-c4c([H])c([H])c(Oc5c([H])c([H])c(F)c([H])c5F)c([H])c4[H])c(C(=O)N([H])[H])c3N([H])[H])C2([H])[H])c([H])c([H])c1N([H])[H])C([H])([H])Oc1c([H])c([H])c2c(c1[H])C([H])([H])N(C(=O)C([H])(N([H])C(=O)C([H])(N([H])C([H])([H])[H])C([H])([H])[H])C(C([H])([H])[H])(C([H])([H])[H])C([H])([H])[H])C([H])(C(=O)N([H])C1([H])c3c([H])c([H])c([H])c([H])c3C([H])([H])C([H])([H])C1([H])[H])C2([H])[H]

$$$$
74:0:0
     RDKit          3D

 97105  0  0  1  0  0  0  0  0999 V2000
  -29.4170  -21.6330   19.3510 C   0  0  0  0  0  0  0  0  0  0  0  0
  -29.5950  -22.0290   18.0880 N   0  0  0  0  0  4  0  0  0  0  0  0
  -28.8390  -22.5630   20.1930 N   0  0  0  0  0  0  0  0  0  0  0  0
  -30.1090  -21.4370   17.4550 H   0  0  0  0  0  0  0  0  0  0  0  0
  -29.2620  -22.9140   17.7470 H   0  0  0  0  0  0  0  0  0  0  0  0
  -28.8130  -22.2870   21.1680 H   0  0  0  0  0  0  0  0  0  0  0  0
  -29.4620  -19.5910   20.9490 C   0  0  0  0  0  3  0  0  0  0  0  0
  -29.6220  -18.1920   21.1890 C   0  0  0  0  0  3  0  0  0  0  0  0
  -30.4270  -19.3020   18.7800 C   0  0  0  0  0  3  0  0  0  0  0  0
  -29.8050  -20.1940   19.7130 C   0  0  0  0  0  0  0  0  0  0  0  0
  -30.1480  -17.2810   20.2280 C   0  0  0  0  0  0  0  0  0  0  0  0
  -30.5830  -17.8980   19.0140 C   0  0  0  0  0  0  0  0  0  0  0  0
  -31.0870  -17.1350   18.0120 F   0  0  0  0  0  0  0  0  0  0  0  0
  -30.7820  -14.7620   19.9900 C   0  0  0  0  0  0  0  0  0  0  0  0
  -30.4820  -12.5360   18.9360 C   0  0  0  0  0  2  0  0  0  0  0  0
  -29.4660  -12.6440   17.7760 C   0  0  0  0  0  2  0  0  0  0  0  0
  -28.0340  -12.4460   18.3090 C   0  0  0  0  0  2  0  0  0  0  0  0
  -27.7220  -13.3280   19.5480 C   0  0  0  0  0  3  0  0  0  0  0  0
  -28.8510  -13.2160   20.5990 C   0  0  0  0  0  2  0  0  0  0  0  0
  -30.1330  -13.5520   19.9500 N   0  0  0  0  0  0  0  0  0  0  0  0
  -31.9120  -14.8860   19.5110 O   0  0  0  0  0  0  0  0  0  0  0  0
  -30.0990  -15.8370   20.5080 N   0  0  0  0  0  0  0  0  0  0  0  0
  -29.3280  -15.5630   21.0990 H   0  0  0  0  0  0  0  0  0  0  0  0
  -25.3800  -13.9140   20.4460 C   0  0  0  0  0  0  0  0  0  0  0  0
  -24.3300  -13.1370   20.8540 C   0  0  0  0  0  0  0  0  0  0  0  0
  -24.7790  -11.7850   20.7500 C   0  0  0  0  0  0  0  0  0  0  0  0
  -26.4000  -13.0380   20.1110 N   0  0  0  0  0  0  0  0  0  0  0  0
  -26.0460  -11.7470   20.3570 N   0  0  0  0  0  0  0  0  0  0  0  0
  -24.0540  -10.5200   20.9500 C   0  0  0  0  0  0  0  0  0  0  0  0
  -24.5030   -9.5490   21.8760 C   0  0  0  0  0  3  0  0  0  0  0  0
  -23.7760   -8.3530   22.0650 C   0  0  0  0  0  3  0  0  0  0  0  0
  -22.5890   -8.1180   21.3310 C   0  0  0  0  0  0  0  0  0  0  0  0
  -22.1610   -9.0760   20.3960 C   0  0  0  0  0  3  0  0  0  0  0  0
  -22.8860  -10.2650   20.2040 C   0  0  0  0  0  3  0  0  0  0  0  0
  -21.8410   -6.9670   21.4250 O   0  0  0  0  0  0  0  0  0  0  0  0
  -21.7790   -6.2440   22.5890 C   0  0  0  0  0  0  0  0  0  0  0  0
  -21.2880   -6.8040   23.7880 C   0  0  0  0  0  3  0  0  0  0  0  0
  -21.1690   -6.0030   24.9410 C   0  0  0  0  0  3  0  0  0  0  0  0
  -21.5340   -4.6440   24.9000 C   0  0  0  0  0  0  0  0  0  0  0  0
  -22.0220   -4.0850   23.7060 C   0  0  0  0  0  3  0  0  0  0  0  0
  -22.1420   -4.8820   22.5520 C   0  0  0  0  0  0  0  0  0  0  0  0
  -22.5870   -4.3300   21.3980 F   0  0  0  0  0  0  0  0  0  0  0  0
  -21.4160   -3.8750   26.0080 F   0  0  0  0  0  0  0  0  0  0  0  0
  -22.9560  -13.6150   21.2250 C   0  0  0  0  0  0  0  0  0  0  0  0
  -22.2710  -12.8990   22.1090 N   0  0  0  0  0  0  0  0  0  0  0  0
  -22.4970  -14.6620   20.7670 O   0  0  0  0  0  0  0  0  0  0  0  0
  -22.6550  -12.0640   22.5240 H   0  0  0  0  0  0  0  0  0  0  0  0
  -21.3460  -13.2000   22.3850 H   0  0  0  0  0  0  0  0  0  0  0  0
  -25.5420  -15.2890   20.3140 N   0  0  0  0  0  0  0  0  0  0  0  0
  -24.7880  -15.9330   20.5230 H   0  0  0  0  0  0  0  0  0  0  0  0
  -26.3750  -15.7580   19.9860 H   0  0  0  0  0  0  0  0  0  0  0  0
  -27.9800  -23.8120   19.9410 C   0  0  0  0  0  3  0  0  0  0  0  0
  -26.9860  -23.8930   21.1070 C   0  0  0  0  0  0  0  0  0  0  0  0
  -25.5580  -23.4110   20.8350 C   0  0  0  0  0  1  0  0  0  0  0  0
  -27.3240  -24.2110   22.2460 O   0  0  0  0  0  0  0  0  0  0  0  0
  -28.6630  -25.2420   19.6110 C   0  0  0  0  0  2  0  0  0  0  0  0
  -28.4240  -26.5530   20.2740 O   0  0  0  0  0  0  0  0  0  0  0  0
  -24.6210  -31.8970   23.2160 C   0  0  0  0  0  0  0  0  0  0  0  0
  -27.2850  -27.3660   20.1490 C   0  0  0  0  0  0  0  0  0  0  0  0
  -23.4320  -30.4960   21.5610 C   0  0  0  0  0  3  0  0  0  0  0  0
  -24.9030  -28.9660   20.1180 C   0  0  0  0  0  0  0  0  0  0  0  0
  -25.9650  -30.8370   21.3830 C   0  0  0  0  0  2  0  0  0  0  0  0
  -26.0560  -29.4580   20.7400 C   0  0  0  0  0  0  0  0  0  0  0  0
  -27.2430  -28.6660   20.7490 C   0  0  0  0  0  3  0  0  0  0  0  0
  -26.1130  -26.9280   19.4960 C   0  0  0  0  0  3  0  0  0  0  0  0
  -24.9380  -27.7120   19.4810 C   0  0  0  0  0  3  0  0  0  0  0  0
  -23.6530  -29.8250   20.1760 C   0  0  0  0  0  2  0  0  0  0  0  0
  -24.6930  -31.0970   22.1110 N   0  0  0  0  0  0  0  0  0  0  0  0
  -23.5350  -32.1630   23.7510 O   0  0  0  0  0  0  0  0  0  0  0  0
  -22.7780  -29.4710   22.5160 C   0  0  0  0  0  0  0  0  0  0  0  0
  -21.4540  -29.2930   22.3900 N   0  0  0  0  0  0  0  0  0  0  0  0
  -23.4610  -28.8430   23.3290 O   0  0  0  0  0  0  0  0  0  0  0  0
  -20.9660  -29.8410   21.6980 H   0  0  0  0  0  0  0  0  0  0  0  0
  -18.0760  -28.1150   22.9020 C   0  0  0  0  0  0  0  0  0  0  0  0
  -20.6380  -28.3490   23.1540 C   0  0  0  0  0  3  0  0  0  0  0  0
  -20.7240  -26.9270   22.5500 C   0  0  0  0  0  2  0  0  0  0  0  0
  -19.6120  -26.6350   21.5380 C   0  0  0  0  0  2  0  0  0  0  0  0
  -18.2350  -26.7790   22.1950 C   0  0  0  0  0  2  0  0  0  0  0  0
  -19.2040  -28.8590   23.3390 C   0  0  0  0  0  0  0  0  0  0  0  0
  -19.0030  -30.1110   23.9570 C   0  0  0  0  0  3  0  0  0  0  0  0
  -17.7040  -30.6180   24.1490 C   0  0  0  0  0  3  0  0  0  0  0  0
  -16.5900  -29.8680   23.7330 C   0  0  0  0  0  3  0  0  0  0  0  0
  -16.7750  -28.6190   23.1150 C   0  0  0  0  0  3  0  0  0  0  0  0
  -25.8960  -32.5410   23.8470 C   0  0  0  0  0  3  0  0  0  0  0  0
  -26.4120  -31.7720   25.1240 C   0  0  1  0  0  0  0  0  0  0  0  0
  -25.3210  -31.5180   26.1910 C   0  0  0  0  0  1  0  0  0  0  0  0
  -27.0090  -30.4030   24.7270 C   0  0  0  0  0  1  0  0  0  0  0  0
  -27.5570  -32.5730   25.7870 C   0  0  0  0  0  1  0  0  0  0  0  0
  -25.5800  -33.9380   24.1780 N   0  0  0  0  0  0  0  0  0  0  0  0
  -25.9070  -34.9920   23.4180 C   0  0  0  0  0  0  0  0  0  0  0  0
  -26.5800  -34.8900   22.3880 O   0  0  0  0  0  0  0  0  0  0  0  0
  -24.9860  -34.0860   24.9800 H   0  0  0  0  0  0  0  0  0  0  0  0
  -24.1770  -36.7780   23.0490 C   0  0  0  0  0  1  0  0  0  0  0  0
  -25.4120  -36.3800   23.8730 C   0  0  0  0  0  3  0  0  0  0  0  0
  -27.5360  -37.2720   24.7240 C   0  0  0  0  0  1  0  0  0  0  0  0
  -26.4430  -37.4350   23.7690 N   0  0  0  0  0  0  0  0  0  0  0  0
  -26.0330  -38.3540   23.9120 H   0  0  0  0  0  0  0  0  0  0  0  0
  1 10  1  0
  1  3  1  0
  2  1  2  0
  3  6  1  0
  4  2  1  0
  5  2  1  0
  7  8  1  0
  9 12  2  0
  9 10  1  0
 10  7  2  0
 11 22  1  0
 11  8  2  0
 12 11  1  0
 13 12  1  0
 14 22  1  0
 15 20  1  0
 16 17  1  0
 16 15  1  0
 18 17  1  0
 18 27  1  0
 18 19  1  0
 20 14  1  0
 20 19  1  0
 21 14  2  0
 22 23  1  0
 24 25  2  0
 25 44  1  0
 26 25  1  0
 26 29  1  0
 27 28  1  0
 27 24  1  0
 28 26  2  0
 29 30  1  0
 30 31  2  0
 32 35  1  0
 32 31  1  0
 33 32  2  0
 34 33  1  0
 34 29  2  0
 35 36  1  0
 36 37  1  0
 37 38  2  0
 39 38  1  0
 39 43  1  0
 40 39  2  0
 41 36  2  0
 41 40  1  0
 42 41  1  0
 44 45  1  0
 45 48  1  0
 45 47  1  0
 46 44  2  0
 49 24  1  0
 49 50  1  0
 51 49  1  0
 52 56  1  0
 52  3  1  0
 52 53  1  0
 53 55  2  0
 54 53  1  0
 56 57  1  0
 58 69  2  0
 59 57  1  0
 59 64  1  0
 60 68  1  0
 60 70  1  0
 61 67  1  0
 61 63  1  0
 62 68  1  0
 63 64  2  0
 63 62  1  0
 65 59  2  0
 66 65  1  0
 66 61  2  0
 67 60  1  0
 68 58  1  0
 70 72  2  0
 71 70  1  0
 73 71  1  0
 74 83  2  0
 74 79  1  0
 75 71  1  0
 75 79  1  0
 76 75  1  0
 77 78  1  0
 77 76  1  0
 78 74  1  0
 79 80  2  0
 80 81  1  0
 82 81  2  0
 83 82  1  0
 84 58  1  0
 84 89  1  0
 84 85  1  0
 85 88  1  1
 85 86  1  0
 87 85  1  0
 89 92  1  0
 90 94  1  0
 90 89  1  0
 91 90  2  0
 94 93  1  0
 96 94  1  0
 96 97  1  0
 96 95  1  0
M  ISO  4  14 100  22 100  56 101  57 101
M  END
>  <TORSDO>  (75) 
F 20

>  <SCORE>  (75) 
-13.657

>  <name>  (75) 
74

>  <ligand_id>  (75) 
74

>  <original_smiles>  (75) 
[H]c1c([H])c([H])c2c(c1[H])C([H])([H])C([H])([H])C([H])([H])C2([H])N([H])C(=O)C1([H])N(C(=O)C([H])(N([H])C(=O)C([H])(N([H])C([H])([H])[H])C([H])([H])[H])C(C([H])([H])[H])(C([H])([H])[H])C([H])([H])[H])C([H])([H])c2c([H])c(OC([H])([H])C([H])(C(=O)C([H])([H])[H])[N+]([H])=C(c3c([H])c([H])c(N([H])C(=O)N4C([H])([H])C([H])([H])C([H])([H])C([H])(n5nc(-c6c([H])c([H])c(Oc7c([H])c([H])c(F)c([H])c7F)c([H])c6[H])c(C(=O)N([H])[H])c5N([H])[H])C4([H])[H])c(F)c3[H])N([H])[H])c([H])c([H])c2C1([H])[H]

>  <smiles>  (75) 
[H]c1c([H])c([H])c2c(c1[H])C([H])([H])C([H])([H])C([H])([H])C2([H])N([H])C(=O)C1([H])N(C(=O)C([H])(N([H])C(=O)C([H])(N([H])C([H])([H])[H])C([H])([H])[H])C(C([H])([H])[H])(C([H])([H])[H])C([H])([H])[H])C([H])([H])c2c([H])c(OC([H])([H])C([H])(C(=O)C([H])([H])[H])[N+]([H])=C(c3c([H])c([H])c(N([H])C(=O)N4C([H])([H])C([H])([H])C([H])([H])C([H])(n5nc(-c6c([H])c([H])c(Oc7c([H])c([H])c(F)c([H])c7F)c([H])c6[H])c(C(=O)N([H])[H])c5N([H])[H])C4([H])[H])c(F)c3[H])N([H])[H])c([H])c([H])c2C1([H])[H]

$$$$
75:0:0
     RDKit          3D

 94103  0  0  1  0  0  0  0  0999 V2000
  -27.4260  -23.4950   20.3790 C   0  0  0  0  0  3  0  0  0  0  0  0
  -28.4860  -24.2020   20.7590 C   0  0  0  0  0  0  0  0  0  0  0  0
  -27.7850  -22.0970   20.2390 C   0  0  0  0  0  0  0  0  0  0  0  0
  -29.6640  -23.2720   20.9260 C   0  0  0  0  0  2  0  0  0  0  0  0
  -29.1120  -21.9470   20.5390 N   0  0  0  0  0  0  0  0  0  0  0  0
  -26.9840  -21.2100   19.9360 O   0  0  0  0  0  0  0  0  0  0  0  0
  -31.7710  -19.5420   21.7620 C   0  0  0  0  0  3  0  0  0  0  0  0
  -31.3230  -18.2930   21.2920 C   0  0  0  0  0  3  0  0  0  0  0  0
  -31.0440  -20.7180   21.4820 C   0  0  0  0  0  3  0  0  0  0  0  0
  -30.1650  -18.2140   20.5000 C   0  0  0  0  0  0  0  0  0  0  0  0
  -29.8570  -20.6960   20.7010 C   0  0  0  0  0  0  0  0  0  0  0  0
  -29.4800  -19.4190   20.1560 C   0  0  0  0  0  0  0  0  0  0  0  0
  -28.4830  -19.3120   19.2450 F   0  0  0  0  0  0  0  0  0  0  0  0
  -29.6800  -16.8460   19.9690 C   0  0  0  0  0  2  0  0  0  0  0  0
  -30.6870  -14.5840   20.4130 C   0  0  0  0  0  0  0  0  0  0  0  0
  -30.4430  -12.3870   19.3180 C   0  0  0  0  0  2  0  0  0  0  0  0
  -29.5040  -12.5740   18.1050 C   0  0  0  0  0  2  0  0  0  0  0  0
  -28.0310  -12.4280   18.5290 C   0  0  0  0  0  2  0  0  0  0  0  0
  -27.6810  -13.2820   19.7730 C   0  0  0  0  0  3  0  0  0  0  0  0
  -28.7270  -13.0640   20.8940 C   0  0  0  0  0  2  0  0  0  0  0  0
  -30.0590  -13.3750   20.3440 N   0  0  0  0  0  0  0  0  0  0  0  0
  -31.8160  -14.7750   19.9570 O   0  0  0  0  0  0  0  0  0  0  0  0
  -29.8910  -15.6140   20.7740 N   0  0  0  0  0  0  0  0  0  0  0  0
  -29.0760  -15.3260   21.2980 H   0  0  0  0  0  0  0  0  0  0  0  0
  -25.2750  -13.9020   20.4400 C   0  0  0  0  0  0  0  0  0  0  0  0
  -24.2000  -13.1370   20.8050 C   0  0  0  0  0  0  0  0  0  0  0  0
  -24.6620  -11.7860   20.7980 C   0  0  0  0  0  0  0  0  0  0  0  0
  -26.3240  -13.0170   20.2400 N   0  0  0  0  0  0  0  0  0  0  0  0
  -25.9570  -11.7380   20.5090 N   0  0  0  0  0  0  0  0  0  0  0  0
  -23.9280  -10.5270   20.9910 C   0  0  0  0  0  0  0  0  0  0  0  0
  -24.3490   -9.5690   21.9410 C   0  0  0  0  0  3  0  0  0  0  0  0
  -23.6200   -8.3730   22.1220 C   0  0  0  0  0  3  0  0  0  0  0  0
  -22.4570   -8.1280   21.3550 C   0  0  0  0  0  0  0  0  0  0  0  0
  -22.0580   -9.0710   20.3920 C   0  0  0  0  0  3  0  0  0  0  0  0
  -22.7870  -10.2590   20.2110 C   0  0  0  0  0  3  0  0  0  0  0  0
  -21.7050   -6.9820   21.4440 O   0  0  0  0  0  0  0  0  0  0  0  0
  -21.6410   -6.2510   22.6050 C   0  0  0  0  0  0  0  0  0  0  0  0
  -21.1910   -6.8190   23.8170 C   0  0  0  0  0  3  0  0  0  0  0  0
  -21.0720   -6.0150   24.9680 C   0  0  0  0  0  3  0  0  0  0  0  0
  -21.3920   -4.6460   24.9060 C   0  0  0  0  0  0  0  0  0  0  0  0
  -21.8310   -4.0780   23.6970 C   0  0  0  0  0  3  0  0  0  0  0  0
  -21.9540   -4.8790   22.5500 C   0  0  0  0  0  0  0  0  0  0  0  0
  -22.3580   -4.3220   21.3820 F   0  0  0  0  0  0  0  0  0  0  0  0
  -21.2700   -3.8740   26.0100 F   0  0  0  0  0  0  0  0  0  0  0  0
  -22.7990  -13.6200   21.0480 C   0  0  0  0  0  0  0  0  0  0  0  0
  -22.0570  -12.9380   21.9130 N   0  0  0  0  0  0  0  0  0  0  0  0
  -22.3650  -14.6360   20.5050 O   0  0  0  0  0  0  0  0  0  0  0  0
  -22.4140  -12.1170   22.3790 H   0  0  0  0  0  0  0  0  0  0  0  0
  -21.1170  -13.2450   22.1140 H   0  0  0  0  0  0  0  0  0  0  0  0
  -25.4450  -15.2700   20.2440 N   0  0  0  0  0  0  0  0  0  0  0  0
  -24.6710  -15.9200   20.3140 H   0  0  0  0  0  0  0  0  0  0  0  0
  -26.2870  -15.7030   19.8930 H   0  0  0  0  0  0  0  0  0  0  0  0
  -28.4900  -25.6700   21.2390 C   0  0  0  0  0  2  0  0  0  0  0  0
  -28.4030  -26.6730   20.1970 O   0  0  0  0  0  0  0  0  0  0  0  0
  -24.5760  -31.9020   23.2320 C   0  0  0  0  0  0  0  0  0  0  0  0
  -27.2530  -27.4370   20.2100 C   0  0  0  0  0  0  0  0  0  0  0  0
  -23.3860  -30.4960   21.5810 C   0  0  0  0  0  3  0  0  0  0  0  0
  -24.8560  -28.9480   20.1840 C   0  0  0  0  0  0  0  0  0  0  0  0
  -25.9080  -30.8590   21.3950 C   0  0  0  0  0  2  0  0  0  0  0  0
  -26.0090  -29.4790   20.7760 C   0  0  0  0  0  0  0  0  0  0  0  0
  -27.2120  -28.7300   20.7900 C   0  0  0  0  0  3  0  0  0  0  0  0
  -26.0850  -26.9250   19.6070 C   0  0  0  0  0  3  0  0  0  0  0  0
  -24.8860  -27.6700   19.5970 C   0  0  0  0  0  3  0  0  0  0  0  0
  -23.6110  -29.8070   20.2080 C   0  0  0  0  0  2  0  0  0  0  0  0
  -24.6420  -31.1030   22.1300 N   0  0  0  0  0  0  0  0  0  0  0  0
  -23.4910  -32.1770   23.7660 O   0  0  0  0  0  0  0  0  0  0  0  0
  -22.7300  -29.4790   22.5430 C   0  0  0  0  0  0  0  0  0  0  0  0
  -21.4030  -29.3030   22.4150 N   0  0  0  0  0  0  0  0  0  0  0  0
  -23.4050  -28.8530   23.3620 O   0  0  0  0  0  0  0  0  0  0  0  0
  -20.9180  -29.8630   21.7260 H   0  0  0  0  0  0  0  0  0  0  0  0
  -18.0210  -28.1320   22.9190 C   0  0  0  0  0  0  0  0  0  0  0  0
  -20.5810  -28.3660   23.1840 C   0  0  0  0  0  3  0  0  0  0  0  0
  -20.6710  -26.9390   22.6010 C   0  0  0  0  0  2  0  0  0  0  0  0
  -19.5640  -26.6320   21.5880 C   0  0  0  0  0  2  0  0  0  0  0  0
  -18.1850  -26.7870   22.2350 C   0  0  0  0  0  2  0  0  0  0  0  0
  -19.1460  -28.8820   23.3510 C   0  0  0  0  0  0  0  0  0  0  0  0
  -18.9410  -30.1440   23.9500 C   0  0  0  0  0  3  0  0  0  0  0  0
  -17.6410  -30.6540   24.1240 C   0  0  0  0  0  3  0  0  0  0  0  0
  -16.5290  -29.9020   23.7070 C   0  0  0  0  0  3  0  0  0  0  0  0
  -16.7210  -28.6430   23.1120 C   0  0  0  0  0  3  0  0  0  0  0  0
  -25.8570  -32.5410   23.8590 C   0  0  0  0  0  3  0  0  0  0  0  0
  -26.3680  -31.7760   25.1430 C   0  0  1  0  0  0  0  0  0  0  0  0
  -25.2720  -31.5470   26.2110 C   0  0  0  0  0  1  0  0  0  0  0  0
  -26.9540  -30.3970   24.7580 C   0  0  0  0  0  1  0  0  0  0  0  0
  -27.5130  -32.5780   25.8070 C   0  0  0  0  0  1  0  0  0  0  0  0
  -25.5450  -33.9400   24.1780 N   0  0  0  0  0  0  0  0  0  0  0  0
  -25.8930  -34.9870   23.4190 C   0  0  0  0  0  0  0  0  0  0  0  0
  -26.5820  -34.8760   22.4000 O   0  0  0  0  0  0  0  0  0  0  0  0
  -24.9310  -34.1020   24.9640 H   0  0  0  0  0  0  0  0  0  0  0  0
  -24.1830  -36.7890   23.0210 C   0  0  0  0  0  1  0  0  0  0  0  0
  -25.4030  -36.3780   23.8600 C   0  0  0  0  0  3  0  0  0  0  0  0
  -27.5220  -37.2560   24.7400 C   0  0  0  0  0  1  0  0  0  0  0  0
  -26.4440  -37.4250   23.7670 N   0  0  0  0  0  0  0  0  0  0  0  0
  -26.0380  -38.3460   23.9040 H   0  0  0  0  0  0  0  0  0  0  0  0
  1  2  2  0
  2  4  1  0
  2 53  1  0
  3  1  1  0
  3  5  1  0
  5 11  1  0
  5  4  1  0
  6  3  2  0
  8  7  2  0
  9  7  1  0
 10  8  1  0
 11  9  2  0
 12 10  2  0
 12 11  1  0
 13 12  1  0
 14 10  1  0
 14 23  1  0
 15 23  1  0
 16 21  1  0
 17 18  1  0
 17 16  1  0
 19 18  1  0
 19 28  1  0
 19 20  1  0
 21 15  1  0
 21 20  1  0
 22 15  2  0
 23 24  1  0
 25 26  2  0
 26 45  1  0
 27 26  1  0
 27 30  1  0
 28 25  1  0
 28 29  1  0
 29 27  2  0
 30 31  1  0
 31 32  2  0
 33 36  1  0
 33 32  1  0
 34 33  2  0
 35 34  1  0
 35 30  2  0
 36 37  1  0
 37 38  1  0
 38 39  2  0
 40 39  1  0
 40 44  1  0
 41 40  2  0
 42 37  2  0
 42 41  1  0
 43 42  1  0
 45 46  1  0
 46 49  1  0
 46 48  1  0
 47 45  2  0
 50 51  1  0
 50 25  1  0
 52 50  1  0
 54 56  1  0
 54 53  1  0
 55 66  2  0
 56 61  1  0
 57 65  1  0
 57 67  1  0
 58 64  1  0
 58 60  1  0
 59 65  1  0
 60 61  2  0
 60 59  1  0
 62 56  2  0
 63 62  1  0
 63 58  2  0
 64 57  1  0
 65 55  1  0
 67 69  2  0
 68 67  1  0
 70 68  1  0
 71 80  2  0
 71 76  1  0
 72 68  1  0
 72 76  1  0
 73 72  1  0
 74 75  1  0
 74 73  1  0
 75 71  1  0
 76 77  2  0
 77 78  1  0
 79 78  2  0
 80 79  1  0
 81 55  1  0
 81 86  1  0
 81 82  1  0
 82 85  1  1
 82 83  1  0
 84 82  1  0
 86 89  1  0
 87 91  1  0
 87 86  1  0
 88 87  2  0
 91 90  1  0
 93 91  1  0
 93 94  1  0
 93 92  1  0
M  ISO  4  15 100  23 100  53 101  54 101
M  END
>  <TORSDO>  (76) 
F 19

>  <SCORE>  (76) 
-14.497

>  <name>  (76) 
75

>  <ligand_id>  (76) 
75

>  <original_smiles>  (76) 
[H]C1=C(C([H])([H])Oc2c([H])c([H])c3c(c2[H])C([H])([H])N(C(=O)C([H])(N([H])C(=O)C([H])(N([H])C([H])([H])[H])C([H])([H])[H])C(C([H])([H])[H])(C([H])([H])[H])C([H])([H])[H])C([H])(C(=O)N([H])C2([H])c4c([H])c([H])c([H])c([H])c4C([H])([H])C([H])([H])C2([H])[H])C3([H])[H])C([H])([H])N(c2c([H])c([H])c([H])c(C([H])([H])N([H])C(=O)N3C([H])([H])C([H])([H])C([H])([H])C([H])(n4nc(-c5c([H])c([H])c(Oc6c([H])c([H])c(F)c([H])c6F)c([H])c5[H])c(C(=O)N([H])[H])c4N([H])[H])C3([H])[H])c2F)C1=O

>  <smiles>  (76) 
[H]C1=C(C([H])([H])Oc2c([H])c([H])c3c(c2[H])C([H])([H])N(C(=O)C([H])(N([H])C(=O)C([H])(N([H])C([H])([H])[H])C([H])([H])[H])C(C([H])([H])[H])(C([H])([H])[H])C([H])([H])[H])C([H])(C(=O)N([H])C2([H])c4c([H])c([H])c([H])c([H])c4C([H])([H])C([H])([H])C2([H])[H])C3([H])[H])C([H])([H])N(c2c([H])c([H])c([H])c(C([H])([H])N([H])C(=O)N3C([H])([H])C([H])([H])C([H])([H])C([H])(n4nc(-c5c([H])c([H])c(Oc6c([H])c([H])c(F)c([H])c6F)c([H])c5[H])c(C(=O)N([H])[H])c4N([H])[H])C3([H])[H])c2F)C1=O

$$$$
76:0:0
     RDKit          3D

 93101  0  0  1  0  0  0  0  0999 V2000
  -29.6490  -18.4610   21.5920 C   0  0  0  0  0  3  0  0  0  0  0  0
  -29.3600  -19.8590   21.4050 C   0  0  0  0  0  3  0  0  0  0  0  0
  -30.1400  -19.6940   19.1530 C   0  0  0  0  0  3  0  0  0  0  0  0
  -30.1730  -17.6130   20.5650 C   0  0  0  0  0  0  0  0  0  0  0  0
  -30.4160  -18.2890   19.3270 C   0  0  0  0  0  0  0  0  0  0  0  0
  -29.5710  -20.5230   20.1660 C   0  0  0  0  0  0  0  0  0  0  0  0
  -30.9520  -15.0750   20.2820 C   0  0  0  0  0  0  0  0  0  0  0  0
  -30.7620  -12.8180   19.2080 C   0  0  0  0  0  2  0  0  0  0  0  0
  -29.8050  -12.9460   17.9990 C   0  0  0  0  0  2  0  0  0  0  0  0
  -28.3380  -12.7680   18.4400 C   0  0  0  0  0  2  0  0  0  0  0  0
  -27.9920  -13.6170   19.6930 C   0  0  0  0  0  3  0  0  0  0  0  0
  -29.0620  -13.4580   20.7970 C   0  0  0  0  0  2  0  0  0  0  0  0
  -30.3590  -13.8320   20.2130 N   0  0  0  0  0  0  0  0  0  0  0  0
  -32.0950  -15.2380   19.8410 O   0  0  0  0  0  0  0  0  0  0  0  0
  -30.1760  -16.1290   20.7440 N   0  0  0  0  0  0  0  0  0  0  0  0
  -29.3670  -15.7930   21.2430 H   0  0  0  0  0  0  0  0  0  0  0  0
  -25.6190  -14.2240   20.4610 C   0  0  0  0  0  0  0  0  0  0  0  0
  -24.5460  -13.4550   20.8210 C   0  0  0  0  0  0  0  0  0  0  0  0
  -24.9860  -12.0990   20.7440 C   0  0  0  0  0  0  0  0  0  0  0  0
  -26.6470  -13.3360   20.1860 N   0  0  0  0  0  0  0  0  0  0  0  0
  -26.2720  -12.0510   20.4160 N   0  0  0  0  0  0  0  0  0  0  0  0
  -24.2420  -10.8440   20.9090 C   0  0  0  0  0  0  0  0  0  0  0  0
  -24.6220   -9.8840   21.8720 C   0  0  0  0  0  3  0  0  0  0  0  0
  -23.8820   -8.6910   22.0240 C   0  0  0  0  0  3  0  0  0  0  0  0
  -22.7470   -8.4520   21.2140 C   0  0  0  0  0  0  0  0  0  0  0  0
  -22.3850   -9.4010   20.2410 C   0  0  0  0  0  3  0  0  0  0  0  0
  -23.1260  -10.5850   20.0870 C   0  0  0  0  0  3  0  0  0  0  0  0
  -21.9830   -7.3120   21.2740 O   0  0  0  0  0  0  0  0  0  0  0  0
  -21.8000   -6.6280   22.4500 C   0  0  0  0  0  0  0  0  0  0  0  0
  -21.1920   -7.2270   23.5740 C   0  0  0  0  0  3  0  0  0  0  0  0
  -20.9610   -6.4690   24.7390 C   0  0  0  0  0  3  0  0  0  0  0  0
  -21.3270   -5.1090   24.7780 C   0  0  0  0  0  0  0  0  0  0  0  0
  -21.9260   -4.5070   23.6560 C   0  0  0  0  0  3  0  0  0  0  0  0
  -22.1580   -5.2650   22.4950 C   0  0  0  0  0  0  0  0  0  0  0  0
  -22.7170   -4.6750   21.4100 F   0  0  0  0  0  0  0  0  0  0  0  0
  -21.0980   -4.3770   25.8920 F   0  0  0  0  0  0  0  0  0  0  0  0
  -23.1600  -13.9460   21.1260 C   0  0  0  0  0  0  0  0  0  0  0  0
  -22.4370  -13.2420   21.9880 N   0  0  0  0  0  0  0  0  0  0  0  0
  -22.7300  -14.9890   20.6350 O   0  0  0  0  0  0  0  0  0  0  0  0
  -22.7990  -12.4000   22.4100 H   0  0  0  0  0  0  0  0  0  0  0  0
  -21.5050  -13.5500   22.2310 H   0  0  0  0  0  0  0  0  0  0  0  0
  -25.8040  -15.5970   20.3290 N   0  0  0  0  0  0  0  0  0  0  0  0
  -25.0500  -16.2590   20.4810 H   0  0  0  0  0  0  0  0  0  0  0  0
  -26.6600  -16.0370   20.0170 H   0  0  0  0  0  0  0  0  0  0  0  0
  -29.9700  -17.7220   17.0450 C   0  0  0  0  0  1  0  0  0  0  0  0
  -30.8120  -17.5270   18.2210 N   0  0  0  0  0  0  0  0  0  0  0  0
  -31.0030  -16.5550   18.4470 H   0  0  0  0  0  0  0  0  0  0  0  0
  -28.7770  -22.2520   18.2360 O   0  0  0  0  0  0  0  0  0  0  0  0
  -27.3810  -22.0970   20.2970 O   0  0  0  0  0  0  0  0  0  0  0  0
  -28.7300  -22.1860   19.7090 S   0  0  1  0  0  0  0  0  0  0  0  0
  -29.4120  -23.9150   20.3020 C   0  0  0  0  0  2  0  0  0  0  0  0
  -28.4660  -25.1840   19.9050 C   0  0  0  0  0  2  0  0  0  0  0  0
  -28.6510  -26.6350   20.3000 O   0  0  0  0  0  0  0  0  0  0  0  0
  -24.6430  -31.9470   23.2780 C   0  0  0  0  0  0  0  0  0  0  0  0
  -27.5340  -27.5130   20.2130 C   0  0  0  0  0  0  0  0  0  0  0  0
  -23.5620  -30.5580   21.5510 C   0  0  0  0  0  3  0  0  0  0  0  0
  -25.1260  -29.0960   20.1450 C   0  0  0  0  0  0  0  0  0  0  0  0
  -26.1020  -30.9470   21.4940 C   0  0  0  0  0  2  0  0  0  0  0  0
  -26.2570  -29.5880   20.8090 C   0  0  0  0  0  0  0  0  0  0  0  0
  -27.4620  -28.8090   20.8340 C   0  0  0  0  0  3  0  0  0  0  0  0
  -26.3740  -27.1020   19.5140 C   0  0  0  0  0  3  0  0  0  0  0  0
  -25.1900  -27.8620   19.4890 C   0  0  0  0  0  3  0  0  0  0  0  0
  -23.8620  -29.9340   20.1630 C   0  0  0  0  0  2  0  0  0  0  0  0
  -24.7850  -31.1690   22.1640 N   0  0  0  0  0  0  0  0  0  0  0  0
  -23.5270  -32.1740   23.7690 O   0  0  0  0  0  0  0  0  0  0  0  0
  -22.8920  -29.4910   22.4510 C   0  0  0  0  0  0  0  0  0  0  0  0
  -21.5770  -29.2810   22.2680 N   0  0  0  0  0  0  0  0  0  0  0  0
  -23.5560  -28.8590   23.2750 O   0  0  0  0  0  0  0  0  0  0  0  0
  -21.0990  -29.8440   21.5780 H   0  0  0  0  0  0  0  0  0  0  0  0
  -18.2060  -28.0180   22.6500 C   0  0  0  0  0  0  0  0  0  0  0  0
  -20.7560  -28.2970   22.9790 C   0  0  0  0  0  3  0  0  0  0  0  0
  -20.8880  -26.8970   22.3370 C   0  0  0  0  0  2  0  0  0  0  0  0
  -19.8090  -26.6100   21.2890 C   0  0  0  0  0  2  0  0  0  0  0  0
  -18.4130  -26.7060   21.9130 C   0  0  0  0  0  2  0  0  0  0  0  0
  -19.3070  -28.7730   23.1360 C   0  0  0  0  0  0  0  0  0  0  0  0
  -19.0590  -30.0020   23.7850 C   0  0  0  0  0  3  0  0  0  0  0  0
  -17.7440  -30.4760   23.9530 C   0  0  0  0  0  3  0  0  0  0  0  0
  -16.6570  -29.7180   23.4830 C   0  0  0  0  0  3  0  0  0  0  0  0
  -16.8910  -28.4900   22.8360 C   0  0  0  0  0  3  0  0  0  0  0  0
  -25.8730  -32.6050   23.9740 C   0  0  0  0  0  3  0  0  0  0  0  0
  -26.3100  -31.8590   25.2950 C   0  0  1  0  0  0  0  0  0  0  0  0
  -25.1420  -31.5890   26.2720 C   0  0  0  0  0  1  0  0  0  0  0  0
  -26.9720  -30.5010   24.9660 C   0  0  0  0  0  1  0  0  0  0  0  0
  -27.3770  -32.6980   26.0390 C   0  0  0  0  0  1  0  0  0  0  0  0
  -25.5250  -34.0050   24.2620 N   0  0  0  0  0  0  0  0  0  0  0  0
  -25.8570  -35.0460   23.4890 C   0  0  0  0  0  0  0  0  0  0  0  0
  -26.5560  -34.9340   22.4780 O   0  0  0  0  0  0  0  0  0  0  0  0
  -24.9050  -34.1650   25.0410 H   0  0  0  0  0  0  0  0  0  0  0  0
  -24.0820  -36.7800   23.0740 C   0  0  0  0  0  1  0  0  0  0  0  0
  -25.3300  -36.4350   23.9020 C   0  0  0  0  0  3  0  0  0  0  0  0
  -27.4270  -37.4150   24.7240 C   0  0  0  0  0  1  0  0  0  0  0  0
  -26.3340  -37.5120   23.7590 N   0  0  0  0  0  0  0  0  0  0  0  0
  -25.9010  -38.4250   23.8630 H   0  0  0  0  0  0  0  0  0  0  0  0
  2  1  1  0
  3  5  2  0
  3  6  1  0
  4 15  1  0
  4  1  2  0
  5  4  1  0
  6  2  2  0
  7 15  1  0
  8 13  1  0
  9 10  1  0
  9  8  1  0
 11 10  1  0
 11 20  1  0
 11 12  1  0
 13  7  1  0
 13 12  1  0
 14  7  2  0
 15 16  1  0
 17 18  2  0
 18 37  1  0
 19 18  1  0
 19 22  1  0
 20 21  1  0
 20 17  1  0
 21 19  2  0
 22 23  1  0
 23 24  2  0
 25 28  1  0
 25 24  1  0
 26 25  2  0
 27 26  1  0
 27 22  2  0
 28 29  1  0
 29 34  2  0
 29 30  1  0
 30 31  2  0
 31 32  1  0
 32 36  1  0
 33 32  2  0
 34 33  1  0
 35 34  1  0
 37 38  1  0
 38 41  1  0
 38 40  1  0
 39 37  2  0
 42 17  1  0
 42 43  1  0
 44 42  1  0
 45 46  1  0
 46 47  1  0
 46  5  1  0
 48 50  2  0
 50  6  1  0
 50 49  2  0
 50 51  1  1
 52 53  1  0
 52 51  1  0
 54 65  2  0
 55 53  1  0
 55 60  1  0
 56 64  1  0
 56 66  1  0
 57 63  1  0
 57 59  1  0
 58 64  1  0
 59 60  2  0
 59 58  1  0
 61 55  2  0
 62 61  1  0
 62 57  2  0
 63 56  1  0
 64 54  1  0
 66 68  2  0
 67 66  1  0
 69 67  1  0
 70 79  2  0
 70 75  1  0
 71 67  1  0
 71 75  1  0
 72 71  1  0
 73 74  1  0
 73 72  1  0
 74 70  1  0
 75 76  2  0
 76 77  1  0
 78 77  2  0
 79 78  1  0
 80 54  1  0
 80 85  1  0
 80 81  1  0
 81 84  1  1
 81 82  1  0
 83 81  1  0
 85 88  1  0
 86 90  1  0
 86 85  1  0
 87 86  2  0
 90 89  1  0
 92 93  1  0
 92 90  1  0
 92 91  1  0
M  ISO  4   7 100  15 100  52 101  53 101
M  END
>  <TORSDO>  (77) 
F 20

>  <SCORE>  (77) 
-12.442

>  <name>  (77) 
76

>  <ligand_id>  (77) 
76

>  <original_smiles>  (77) 
[H]c1c([H])c([H])c2c(c1[H])C([H])([H])C([H])([H])C([H])([H])C2([H])N([H])C(=O)C1([H])N(C(=O)C([H])(N([H])C(=O)C([H])(N([H])C([H])([H])[H])C([H])([H])[H])C(C([H])([H])[H])(C([H])([H])[H])C([H])([H])[H])C([H])([H])c2c([H])c(OC([H])([H])C([H])([H])S(=O)(=O)c3c([H])c([H])c(N([H])C(=O)N4C([H])([H])C([H])([H])C([H])([H])C([H])(n5nc(-c6c([H])c([H])c(Oc7c([H])c([H])c(F)c([H])c7F)c([H])c6[H])c(C(=O)N([H])[H])c5N([H])[H])C4([H])[H])c(N([H])C([H])([H])[H])c3[H])c([H])c([H])c2C1([H])[H]

>  <smiles>  (77) 
[H]c1c([H])c([H])c2c(c1[H])C([H])([H])C([H])([H])C([H])([H])C2([H])N([H])C(=O)C1([H])N(C(=O)C([H])(N([H])C(=O)C([H])(N([H])C([H])([H])[H])C([H])([H])[H])C(C([H])([H])[H])(C([H])([H])[H])C([H])([H])[H])C([H])([H])c2c([H])c(OC([H])([H])C([H])([H])S(=O)(=O)c3c([H])c([H])c(N([H])C(=O)N4C([H])([H])C([H])([H])C([H])([H])C([H])(n5nc(-c6c([H])c([H])c(Oc7c([H])c([H])c(F)c([H])c7F)c([H])c6[H])c(C(=O)N([H])[H])c5N([H])[H])C4([H])[H])c(N([H])C([H])([H])[H])c3[H])c([H])c([H])c2C1([H])[H]

$$$$
77:0:0
     RDKit          3D

 95104  0  0  1  0  0  0  0  0999 V2000
  -26.7380  -22.7230   20.5450 C   0  0  0  0  0  2  0  0  0  0  0  0
  -26.6490  -21.8970   19.5030 C   0  0  0  0  0  2  0  0  0  0  0  0
  -28.0580  -23.2990   20.5170 C   0  0  0  0  0  3  0  0  0  0  0  0
  -27.9750  -21.7510   18.9290 C   0  0  0  0  0  0  0  0  0  0  0  0
  -27.8730  -24.7530   20.5920 C   0  0  0  0  0  2  0  0  0  0  0  0
  -28.8560  -22.1320   19.8870 N   0  0  0  0  0  0  0  0  0  0  0  0
  -28.2520  -21.3220   17.8010 O   0  0  0  0  0  0  0  0  0  0  0  0
  -30.7820  -19.4960   22.2180 C   0  0  0  0  0  3  0  0  0  0  0  0
  -30.6930  -18.2330   21.5890 C   0  0  0  0  0  3  0  0  0  0  0  0
  -29.4730  -19.3640   19.8600 C   0  0  0  0  0  3  0  0  0  0  0  0
  -30.2230  -20.7330   21.7420 C   0  0  0  0  0  0  0  0  0  0  0  0
  -29.4970  -20.7720   20.4850 C   0  0  0  0  0  0  0  0  0  0  0  0
  -30.0410  -18.0520   20.3640 C   0  0  0  0  0  0  0  0  0  0  0  0
  -30.7160  -15.3260   19.9430 C   0  0  0  0  0  0  0  0  0  0  0  0
  -30.6240  -12.9310   19.0060 C   0  0  0  0  0  2  0  0  0  0  0  0
  -29.6420  -12.8090   17.8160 C   0  0  0  0  0  2  0  0  0  0  0  0
  -28.1980  -12.5730   18.3150 C   0  0  0  0  0  2  0  0  0  0  0  0
  -27.8220  -13.5000   19.5020 C   0  0  0  0  0  3  0  0  0  0  0  0
  -28.9340  -13.5620   20.5680 C   0  0  0  0  0  2  0  0  0  0  0  0
  -30.1330  -14.0450   19.8720 N   0  0  0  0  0  0  0  0  0  0  0  0
  -31.9400  -15.3490   19.7530 O   0  0  0  0  0  0  0  0  0  0  0  0
  -29.9260  -16.5510   19.8810 N   0  0  0  0  0  0  0  0  0  0  0  0
  -29.0070  -16.3370   19.5220 H   0  0  0  0  0  0  0  0  0  0  0  0
  -25.4960  -14.0580   20.4000 C   0  0  0  0  0  0  0  0  0  0  0  0
  -24.4480  -13.2780   20.7990 C   0  0  0  0  0  0  0  0  0  0  0  0
  -24.9010  -11.9270   20.7040 C   0  0  0  0  0  0  0  0  0  0  0  0
  -26.5180  -13.1840   20.0730 N   0  0  0  0  0  0  0  0  0  0  0  0
  -26.1750  -11.8930   20.3240 N   0  0  0  0  0  0  0  0  0  0  0  0
  -24.1730  -10.6650   20.8960 C   0  0  0  0  0  0  0  0  0  0  0  0
  -24.5910   -9.7060   21.8450 C   0  0  0  0  0  3  0  0  0  0  0  0
  -23.8590   -8.5130   22.0290 C   0  0  0  0  0  3  0  0  0  0  0  0
  -22.6960   -8.2700   21.2620 C   0  0  0  0  0  0  0  0  0  0  0  0
  -22.2940   -9.2190   20.3050 C   0  0  0  0  0  3  0  0  0  0  0  0
  -23.0260  -10.4030   20.1190 C   0  0  0  0  0  3  0  0  0  0  0  0
  -21.9380   -7.1270   21.3540 O   0  0  0  0  0  0  0  0  0  0  0  0
  -21.8220   -6.4340   22.5320 C   0  0  0  0  0  0  0  0  0  0  0  0
  -21.2810   -7.0250   23.6940 C   0  0  0  0  0  3  0  0  0  0  0  0
  -21.1110   -6.2550   24.8610 C   0  0  0  0  0  3  0  0  0  0  0  0
  -21.4700   -4.8950   24.8660 C   0  0  0  0  0  0  0  0  0  0  0  0
  -22.0060   -4.3040   23.7090 C   0  0  0  0  0  3  0  0  0  0  0  0
  -22.1750   -5.0700   22.5440 C   0  0  0  0  0  0  0  0  0  0  0  0
  -22.6700   -4.4900   21.4240 F   0  0  0  0  0  0  0  0  0  0  0  0
  -21.3020   -4.1520   25.9850 F   0  0  0  0  0  0  0  0  0  0  0  0
  -23.0700  -13.7590   21.1470 C   0  0  0  0  0  0  0  0  0  0  0  0
  -22.3830  -13.0590   22.0390 N   0  0  0  0  0  0  0  0  0  0  0  0
  -22.6100  -14.7940   20.6590 O   0  0  0  0  0  0  0  0  0  0  0  0
  -22.7650  -12.2260   22.4620 H   0  0  0  0  0  0  0  0  0  0  0  0
  -21.4590  -13.3640   22.3120 H   0  0  0  0  0  0  0  0  0  0  0  0
  -25.6590  -15.4320   20.2640 N   0  0  0  0  0  0  0  0  0  0  0  0
  -24.9190  -16.0910   20.4810 H   0  0  0  0  0  0  0  0  0  0  0  0
  -26.5050  -15.8840   19.9430 H   0  0  0  0  0  0  0  0  0  0  0  0
  -30.5070  -21.9410   22.6150 C   0  0  0  0  0  0  0  0  0  0  0  0
  -30.9670  -21.7070   24.0660 C   0  0  0  0  0  1  0  0  0  0  0  0
  -30.4510  -23.1090   22.2360 O   0  0  0  0  0  0  0  0  0  0  0  0
  -28.3290  -26.1180   20.1950 O   0  0  0  0  0  0  0  0  0  0  0  0
  -24.6230  -31.9090   23.1050 C   0  0  0  0  0  0  0  0  0  0  0  0
  -27.3240  -27.1930   20.0890 C   0  0  0  0  0  0  0  0  0  0  0  0
  -23.4830  -30.4880   21.4570 C   0  0  0  0  0  3  0  0  0  0  0  0
  -24.9710  -28.9470   20.0300 C   0  0  0  0  0  0  0  0  0  0  0  0
  -26.0380  -30.7940   21.3100 C   0  0  0  0  0  2  0  0  0  0  0  0
  -26.1440  -29.4040   20.6430 C   0  0  0  0  0  0  0  0  0  0  0  0
  -27.3290  -28.5560   20.6290 C   0  0  0  0  0  3  0  0  0  0  0  0
  -26.1230  -26.8690   19.4170 C   0  0  0  0  0  3  0  0  0  0  0  0
  -24.9770  -27.6980   19.3900 C   0  0  0  0  0  3  0  0  0  0  0  0
  -23.7320  -29.8360   20.0730 C   0  0  0  0  0  2  0  0  0  0  0  0
  -24.7380  -31.0880   22.0130 N   0  0  0  0  0  0  0  0  0  0  0  0
  -23.5190  -32.1580   23.6240 O   0  0  0  0  0  0  0  0  0  0  0  0
  -22.8170  -29.4590   22.4050 C   0  0  0  0  0  0  0  0  0  0  0  0
  -21.4920  -29.2700   22.2680 N   0  0  0  0  0  0  0  0  0  0  0  0
  -23.4930  -28.8370   23.2300 O   0  0  0  0  0  0  0  0  0  0  0  0
  -21.0090  -29.8000   21.5570 H   0  0  0  0  0  0  0  0  0  0  0  0
  -18.1310  -28.0070   22.7370 C   0  0  0  0  0  0  0  0  0  0  0  0
  -20.6820  -28.3170   23.0230 C   0  0  0  0  0  3  0  0  0  0  0  0
  -20.8220  -26.8950   22.4320 C   0  0  0  0  0  2  0  0  0  0  0  0
  -19.7330  -26.5600   21.4090 C   0  0  0  0  0  2  0  0  0  0  0  0
  -18.3420  -26.6750   22.0420 C   0  0  0  0  0  2  0  0  0  0  0  0
  -19.2320  -28.7860   23.1830 C   0  0  0  0  0  0  0  0  0  0  0  0
  -18.9810  -30.0340   23.7960 C   0  0  0  0  0  3  0  0  0  0  0  0
  -17.6650  -30.5050   23.9650 C   0  0  0  0  0  3  0  0  0  0  0  0
  -16.5780  -29.7230   23.5340 C   0  0  0  0  0  3  0  0  0  0  0  0
  -16.8130  -28.4740   22.9290 C   0  0  0  0  0  3  0  0  0  0  0  0
  -25.8730  -32.5770   23.7520 C   0  0  0  0  0  3  0  0  0  0  0  0
  -25.5110  -33.9630   24.0970 N   0  0  0  0  0  0  0  0  0  0  0  0
  -25.8640  -35.0450   23.3930 C   0  0  0  0  0  0  0  0  0  0  0  0
  -26.5940  -34.9820   22.4000 O   0  0  0  0  0  0  0  0  0  0  0  0
  -24.8710  -34.0790   24.8690 H   0  0  0  0  0  0  0  0  0  0  0  0
  -24.1510  -36.8360   22.9590 C   0  0  0  0  0  1  0  0  0  0  0  0
  -25.3280  -36.4150   23.8580 C   0  0  0  0  0  3  0  0  0  0  0  0
  -27.3790  -37.2740   24.8990 C   0  0  0  0  0  1  0  0  0  0  0  0
  -26.3590  -37.4780   23.8720 N   0  0  0  0  0  0  0  0  0  0  0  0
  -25.9400  -38.3950   24.0170 H   0  0  0  0  0  0  0  0  0  0  0  0
  -26.3790  -31.8200   25.0420 C   0  0  1  0  0  0  0  0  0  0  0  0
  -25.2620  -31.5390   26.0750 C   0  0  0  0  0  1  0  0  0  0  0  0
  -27.0050  -30.4630   24.6570 C   0  0  0  0  0  1  0  0  0  0  0  0
  -27.4970  -32.6390   25.7350 C   0  0  0  0  0  1  0  0  0  0  0  0
  2  1  1  0
  3  1  1  0
  3  5  1  0
  4  2  1  0
  4  6  1  0
  6 12  1  0
  6  3  1  0
  7  4  2  0
  9  8  2  0
 10 13  2  0
 10 12  1  0
 11  8  1  0
 11 52  1  0
 12 11  2  0
 13  9  1  0
 15 20  1  0
 16 17  1  0
 16 15  1  0
 18 17  1  0
 18 27  1  0
 18 19  1  0
 20 14  1  0
 20 19  1  0
 21 14  2  0
 22 14  1  0
 22 13  1  0
 23 22  1  0
 24 25  2  0
 25 44  1  0
 26 25  1  0
 26 29  1  0
 27 28  1  0
 27 24  1  0
 28 26  2  0
 29 30  1  0
 30 31  2  0
 32 35  1  0
 32 31  1  0
 33 32  2  0
 34 33  1  0
 34 29  2  0
 35 36  1  0
 36 41  2  0
 36 37  1  0
 37 38  2  0
 38 39  1  0
 39 43  1  0
 40 39  2  0
 41 40  1  0
 42 41  1  0
 44 45  1  0
 45 48  1  0
 45 47  1  0
 46 44  2  0
 49 24  1  0
 49 50  1  0
 51 49  1  0
 52 53  1  0
 54 52  2  0
 55  5  1  0
 56 67  2  0
 57 55  1  0
 57 62  1  0
 58 66  1  0
 58 68  1  0
 59 65  1  0
 59 61  1  0
 60 66  1  0
 61 60  1  0
 62 61  2  0
 63 57  2  0
 64 63  1  0
 64 59  2  0
 65 58  1  0
 66 56  1  0
 68 70  2  0
 69 68  1  0
 71 69  1  0
 72 81  2  0
 72 77  1  0
 73 69  1  0
 73 77  1  0
 74 73  1  0
 75 76  1  0
 75 74  1  0
 76 72  1  0
 77 78  2  0
 78 79  1  0
 80 79  2  0
 81 80  1  0
 82 56  1  0
 82 83  1  0
 82 92  1  0
 83 86  1  0
 84 88  1  0
 84 83  1  0
 85 84  2  0
 88 87  1  0
 88 90  1  0
 90 91  1  0
 90 89  1  0
 92 95  1  1
 92 93  1  0
 94 92  1  0
M  ISO  4   5 101  14 100  22 100  55 101
M  END
>  <TORSDO>  (78) 
F 18

>  <SCORE>  (78) 
-14.875

>  <name>  (78) 
77

>  <ligand_id>  (78) 
77

>  <original_smiles>  (78) 
[H]C(Oc1c([H])c([H])c2c(c1[H])C([H])([H])N(C(=O)C([H])(N([H])C(=O)C([H])(N([H])C([H])([H])[H])C([H])([H])[H])C(C([H])([H])[H])(C([H])([H])[H])C([H])([H])[H])C([H])(C(=O)N([H])C1([H])c3c([H])c([H])c([H])c([H])c3C([H])([H])C([H])([H])C1([H])[H])C2([H])[H])=C1C([H])=C([H])C(=O)N1c1c([H])c(N([H])C(=O)N2C([H])([H])C([H])([H])C([H])([H])C([H])(n3nc(-c4c([H])c([H])c(Oc5c([H])c([H])c(F)c([H])c5F)c([H])c4[H])c(C(=O)N([H])[H])c3N([H])[H])C2([H])[H])c([H])c([H])c1C(=O)C([H])([H])[H]

>  <smiles>  (78) 
[H]C(Oc1c([H])c([H])c2c(c1[H])C([H])([H])N(C(=O)C([H])(N([H])C(=O)C([H])(N([H])C([H])([H])[H])C([H])([H])[H])C(C([H])([H])[H])(C([H])([H])[H])C([H])([H])[H])C([H])(C(=O)N([H])C1([H])c3c([H])c([H])c([H])c([H])c3C([H])([H])C([H])([H])C1([H])[H])C2([H])[H])=C1C([H])=C([H])C(=O)N1c1c([H])c(N([H])C(=O)N2C([H])([H])C([H])([H])C([H])([H])C([H])(n3nc(-c4c([H])c([H])c(Oc5c([H])c([H])c(F)c([H])c5F)c([H])c4[H])c(C(=O)N([H])[H])c3N([H])[H])C2([H])[H])c([H])c([H])c1C(=O)C([H])([H])[H]

$$$$
78:0:0
     RDKit          3D

 94103  0  0  1  0  0  0  0  0999 V2000
  -30.1710  -23.3350   22.6210 C   0  0  0  0  0  2  0  0  0  0  0  0
  -30.5170  -21.9590   22.0340 C   0  0  0  0  0  2  0  0  0  0  0  0
  -30.0490  -24.4010   21.5210 C   0  0  0  0  0  2  0  0  0  0  0  0
  -29.2570  -22.5920   19.9100 C   0  0  0  0  0  2  0  0  0  0  0  0
  -29.4460  -21.4890   21.0330 C   0  0  0  0  0  3  0  0  0  0  0  0
  -28.9630  -24.0550   20.4840 C   0  0  0  0  0  3  0  0  0  0  0  0
  -28.5420  -19.0810   20.8940 C   0  0  0  0  0  3  0  0  0  0  0  0
  -31.0260  -17.9270   20.2960 C   0  0  0  0  0  3  0  0  0  0  0  0
  -29.6290  -19.9640   20.6840 C   0  0  0  0  0  0  0  0  0  0  0  0
  -29.9330  -17.0580   20.5700 C   0  0  0  0  0  0  0  0  0  0  0  0
  -28.6920  -17.6730   20.8430 C   0  0  0  0  0  0  0  0  0  0  0  0
  -30.8740  -19.3510   20.3520 C   0  0  0  0  0  0  0  0  0  0  0  0
  -27.6190  -16.8860   21.0930 F   0  0  0  0  0  0  0  0  0  0  0  0
  -31.9620  -20.1260   20.1270 F   0  0  0  0  0  0  0  0  0  0  0  0
  -30.7080  -14.6180   20.0870 C   0  0  0  0  0  0  0  0  0  0  0  0
  -30.4080  -12.4310   18.9460 C   0  0  0  0  0  2  0  0  0  0  0  0
  -29.3860  -12.6260   17.8010 C   0  0  0  0  0  2  0  0  0  0  0  0
  -27.9360  -12.4930   18.3130 C   0  0  0  0  0  2  0  0  0  0  0  0
  -27.6810  -13.3090   19.6080 C   0  0  0  0  0  3  0  0  0  0  0  0
  -28.8000  -13.0560   20.6440 C   0  0  0  0  0  2  0  0  0  0  0  0
  -30.0840  -13.4010   20.0070 N   0  0  0  0  0  0  0  0  0  0  0  0
  -31.8260  -14.8160   19.6010 O   0  0  0  0  0  0  0  0  0  0  0  0
  -29.9350  -15.6040   20.6170 N   0  0  0  0  0  0  0  0  0  0  0  0
  -29.0850  -15.2410   21.0220 H   0  0  0  0  0  0  0  0  0  0  0  0
  -25.3460  -13.9440   20.4840 C   0  0  0  0  0  0  0  0  0  0  0  0
  -24.2800  -13.1840   20.8860 C   0  0  0  0  0  0  0  0  0  0  0  0
  -24.7050  -11.8240   20.7810 C   0  0  0  0  0  0  0  0  0  0  0  0
  -26.3540  -13.0480   20.1620 N   0  0  0  0  0  0  0  0  0  0  0  0
  -25.9750  -11.7650   20.3960 N   0  0  0  0  0  0  0  0  0  0  0  0
  -23.9590  -10.5740   20.9720 C   0  0  0  0  0  0  0  0  0  0  0  0
  -24.4120   -9.5710   21.8580 C   0  0  0  0  0  3  0  0  0  0  0  0
  -23.6680   -8.3860   22.0380 C   0  0  0  0  0  3  0  0  0  0  0  0
  -22.4560   -8.1950   21.3320 C   0  0  0  0  0  0  0  0  0  0  0  0
  -22.0210   -9.1870   20.4340 C   0  0  0  0  0  3  0  0  0  0  0  0
  -22.7660  -10.3630   20.2520 C   0  0  0  0  0  3  0  0  0  0  0  0
  -21.6810   -7.0640   21.4230 O   0  0  0  0  0  0  0  0  0  0  0  0
  -21.6520   -6.3010   22.5630 C   0  0  0  0  0  0  0  0  0  0  0  0
  -21.2960   -6.8470   23.8160 C   0  0  0  0  0  3  0  0  0  0  0  0
  -21.2120   -6.0130   24.9480 C   0  0  0  0  0  3  0  0  0  0  0  0
  -21.4710   -4.6340   24.8290 C   0  0  0  0  0  0  0  0  0  0  0  0
  -21.8210   -4.0890   23.5820 C   0  0  0  0  0  3  0  0  0  0  0  0
  -21.9070   -4.9200   22.4510 C   0  0  0  0  0  0  0  0  0  0  0  0
  -22.2240   -4.3850   21.2470 F   0  0  0  0  0  0  0  0  0  0  0  0
  -21.3830   -3.8310   25.9150 F   0  0  0  0  0  0  0  0  0  0  0  0
  -22.9150  -13.6860   21.2590 C   0  0  0  0  0  0  0  0  0  0  0  0
  -22.2280  -12.9830   22.1530 N   0  0  0  0  0  0  0  0  0  0  0  0
  -22.4700  -14.7350   20.7970 O   0  0  0  0  0  0  0  0  0  0  0  0
  -22.6030  -12.1340   22.5490 H   0  0  0  0  0  0  0  0  0  0  0  0
  -21.3140  -13.2980   22.4420 H   0  0  0  0  0  0  0  0  0  0  0  0
  -25.5340  -15.3160   20.3530 N   0  0  0  0  0  0  0  0  0  0  0  0
  -24.8090  -15.9790   20.6050 H   0  0  0  0  0  0  0  0  0  0  0  0
  -26.4240  -15.7620   20.1660 H   0  0  0  0  0  0  0  0  0  0  0  0
  -28.8320  -25.2430   19.4390 C   0  0  0  0  0  2  0  0  0  0  0  0
  -28.6510  -26.6040   19.9800 O   0  0  0  0  0  0  0  0  0  0  0  0
  -24.5920  -31.6740   23.0630 C   0  0  0  0  0  0  0  0  0  0  0  0
  -27.4480  -27.3210   19.9370 C   0  0  0  0  0  0  0  0  0  0  0  0
  -23.4690  -30.2640   21.3740 C   0  0  0  0  0  3  0  0  0  0  0  0
  -25.0040  -28.8050   19.9410 C   0  0  0  0  0  0  0  0  0  0  0  0
  -25.9940  -30.6950   21.2400 C   0  0  0  0  0  2  0  0  0  0  0  0
  -26.1390  -29.3410   20.5580 C   0  0  0  0  0  0  0  0  0  0  0  0
  -27.3610  -28.6090   20.5450 C   0  0  0  0  0  3  0  0  0  0  0  0
  -26.2770  -26.8190   19.3230 C   0  0  0  0  0  3  0  0  0  0  0  0
  -25.0720  -27.5470   19.3220 C   0  0  0  0  0  3  0  0  0  0  0  0
  -23.7300  -29.6230   19.9860 C   0  0  0  0  0  2  0  0  0  0  0  0
  -24.7020  -30.8940   21.9490 N   0  0  0  0  0  0  0  0  0  0  0  0
  -23.4910  -31.8940   23.5870 O   0  0  0  0  0  0  0  0  0  0  0  0
  -22.8360  -29.2000   22.3020 C   0  0  0  0  0  0  0  0  0  0  0  0
  -21.5160  -28.9910   22.1690 N   0  0  0  0  0  0  0  0  0  0  0  0
  -23.5310  -28.5670   23.1000 O   0  0  0  0  0  0  0  0  0  0  0  0
  -21.0110  -29.5500   21.4940 H   0  0  0  0  0  0  0  0  0  0  0  0
  -18.1660  -27.7270   22.6630 C   0  0  0  0  0  0  0  0  0  0  0  0
  -20.7230  -28.0110   22.9130 C   0  0  0  0  0  3  0  0  0  0  0  0
  -20.8380  -26.6070   22.2760 C   0  0  0  0  0  2  0  0  0  0  0  0
  -19.7270  -26.3110   21.2630 C   0  0  0  0  0  2  0  0  0  0  0  0
  -18.3520  -26.4090   21.9300 C   0  0  0  0  0  2  0  0  0  0  0  0
  -19.2790  -28.4870   23.1110 C   0  0  0  0  0  0  0  0  0  0  0  0
  -19.0490  -29.7210   23.7560 C   0  0  0  0  0  3  0  0  0  0  0  0
  -17.7400  -30.1970   23.9590 C   0  0  0  0  0  3  0  0  0  0  0  0
  -16.6410  -29.4320   23.5280 C   0  0  0  0  0  3  0  0  0  0  0  0
  -16.8550  -28.1990   22.8860 C   0  0  0  0  0  3  0  0  0  0  0  0
  -25.8410  -32.3410   23.7170 C   0  0  0  0  0  3  0  0  0  0  0  0
  -25.4650  -33.7130   24.0890 N   0  0  0  0  0  0  0  0  0  0  0  0
  -25.7560  -34.8040   23.3700 C   0  0  0  0  0  0  0  0  0  0  0  0
  -26.4400  -34.7660   22.3430 O   0  0  0  0  0  0  0  0  0  0  0  0
  -24.8520  -33.8110   24.8840 H   0  0  0  0  0  0  0  0  0  0  0  0
  -23.9470  -36.5250   23.0630 C   0  0  0  0  0  1  0  0  0  0  0  0
  -25.2020  -36.1510   23.8690 C   0  0  0  0  0  3  0  0  0  0  0  0
  -27.2860  -37.1070   24.7480 C   0  0  0  0  0  1  0  0  0  0  0  0
  -26.1830  -37.2560   23.8010 N   0  0  0  0  0  0  0  0  0  0  0  0
  -25.7310  -38.1490   23.9780 H   0  0  0  0  0  0  0  0  0  0  0  0
  -26.3800  -31.5540   24.9750 C   0  0  1  0  0  0  0  0  0  0  0  0
  -25.2880  -31.2400   26.0220 C   0  0  0  0  0  1  0  0  0  0  0  0
  -27.0280  -30.2140   24.5550 C   0  0  0  0  0  1  0  0  0  0  0  0
  -27.4860  -32.3800   25.6740 C   0  0  0  0  0  1  0  0  0  0  0  0
  2  1  1  0
  3  1  1  0
  4  6  1  0
  4  5  1  0
  5  9  1  0
  5  2  1  0
  6 53  1  0
  6  3  1  0
  8 12  2  0
  8 10  1  0
  9  7  2  0
 10 23  1  0
 10 11  2  0
 11  7  1  0
 11 13  1  0
 12  9  1  0
 14 12  1  0
 15 23  1  0
 16 21  1  0
 17 18  1  0
 17 16  1  0
 19 18  1  0
 19 28  1  0
 19 20  1  0
 21 15  1  0
 21 20  1  0
 22 15  2  0
 23 24  1  0
 25 26  2  0
 26 45  1  0
 27 26  1  0
 27 30  1  0
 28 29  1  0
 28 25  1  0
 29 27  2  0
 30 31  1  0
 31 32  2  0
 33 36  1  0
 33 32  1  0
 34 33  2  0
 35 34  1  0
 35 30  2  0
 36 37  1  0
 37 38  1  0
 38 39  2  0
 40 39  1  0
 40 44  1  0
 41 40  2  0
 42 37  2  0
 42 41  1  0
 43 42  1  0
 45 46  1  0
 46 49  1  0
 46 48  1  0
 47 45  2  0
 50 25  1  0
 50 51  1  0
 52 50  1  0
 53 54  1  0
 55 66  2  0
 56 54  1  0
 56 61  1  0
 57 65  1  0
 57 67  1  0
 58 64  1  0
 58 60  1  0
 59 65  1  0
 60 59  1  0
 61 60  2  0
 62 56  2  0
 63 62  1  0
 63 58  2  0
 64 57  1  0
 65 55  1  0
 67 69  2  0
 68 67  1  0
 70 68  1  0
 71 80  2  0
 71 76  1  0
 72 68  1  0
 72 76  1  0
 73 72  1  0
 74 75  1  0
 74 73  1  0
 75 71  1  0
 76 77  2  0
 77 78  1  0
 79 78  2  0
 80 79  1  0
 81 55  1  0
 81 82  1  0
 81 91  1  0
 82 85  1  0
 83 87  1  0
 83 82  1  0
 84 83  2  0
 87 86  1  0
 89 87  1  0
 89 90  1  0
 89 88  1  0
 91 94  1  1
 91 92  1  0
 93 91  1  0
M  ISO  4  15 100  23 100  53 101  54 101
M  END
>  <TORSDO>  (79) 
F 18

>  <SCORE>  (79) 
-13.963

>  <name>  (79) 
78

>  <ligand_id>  (79) 
78

>  <original_smiles>  (79) 
[H]c1c([H])c([H])c2c(c1[H])C([H])([H])C([H])([H])C([H])([H])C2([H])N([H])C(=O)C1([H])N(C(=O)C([H])(N([H])C(=O)C([H])(N([H])C([H])([H])[H])C([H])([H])[H])C(C([H])([H])[H])(C([H])([H])[H])C([H])([H])[H])C([H])([H])c2c([H])c(OC([H])([H])C3([H])C([H])([H])C([H])([H])C([H])([H])C([H])(c4c([H])c(F)c(N([H])C(=O)N5C([H])([H])C([H])([H])C([H])([H])C([H])(n6nc(-c7c([H])c([H])c(Oc8c([H])c([H])c(F)c([H])c8F)c([H])c7[H])c(C(=O)N([H])[H])c6N([H])[H])C5([H])[H])c([H])c4F)C3([H])[H])c([H])c([H])c2C1([H])[H]

>  <smiles>  (79) 
[H]c1c([H])c([H])c2c(c1[H])C([H])([H])C([H])([H])C([H])([H])C2([H])N([H])C(=O)C1([H])N(C(=O)C([H])(N([H])C(=O)C([H])(N([H])C([H])([H])[H])C([H])([H])[H])C(C([H])([H])[H])(C([H])([H])[H])C([H])([H])[H])C([H])([H])c2c([H])c(OC([H])([H])C3([H])C([H])([H])C([H])([H])C([H])([H])C([H])(c4c([H])c(F)c(N([H])C(=O)N5C([H])([H])C([H])([H])C([H])([H])C([H])(n6nc(-c7c([H])c([H])c(Oc8c([H])c([H])c(F)c([H])c8F)c([H])c7[H])c(C(=O)N([H])[H])c6N([H])[H])C5([H])[H])c([H])c4F)C3([H])[H])c([H])c([H])c2C1([H])[H]

$$$$
79:0:0
     RDKit          3D

 93102  0  0  1  0  0  0  0  0999 V2000
  -29.4190  -22.7960   21.2810 C   0  0  0  0  0  0  0  0  0  0  0  0
  -28.7520  -22.5030   19.3450 C   0  0  0  0  0  2  0  0  0  0  0  0
  -29.1520  -23.8340   20.1000 C   0  0  2  0  0  0  0  0  0  0  0  0
  -30.4600  -24.5080   19.6730 C   0  0  0  0  0  1  0  0  0  0  0  0
  -29.4570  -21.7290   20.3700 N   0  0  0  0  0  0  0  0  0  0  0  0
  -29.5050  -22.8210   22.4910 O   0  0  0  0  0  0  0  0  0  0  0  0
  -30.3670  -19.5330   21.3250 C   0  0  0  0  0  3  0  0  0  0  0  0
  -30.5030  -18.1050   21.3760 C   0  0  0  0  0  3  0  0  0  0  0  0
  -29.0070  -17.9310   19.5320 C   0  0  0  0  0  3  0  0  0  0  0  0
  -29.5570  -20.2480   20.3860 C   0  0  0  0  0  0  0  0  0  0  0  0
  -29.8180  -17.2480   20.4770 C   0  0  0  0  0  0  0  0  0  0  0  0
  -28.8950  -19.3570   19.4790 C   0  0  0  0  0  0  0  0  0  0  0  0
  -28.0890  -19.8810   18.5240 F   0  0  0  0  0  0  0  0  0  0  0  0
  -30.5630  -14.7430   20.2740 C   0  0  0  0  0  0  0  0  0  0  0  0
  -30.3700  -12.4960   19.2030 C   0  0  0  0  0  2  0  0  0  0  0  0
  -29.3920  -12.6020   18.0100 C   0  0  0  0  0  2  0  0  0  0  0  0
  -27.9320  -12.4220   18.4750 C   0  0  0  0  0  2  0  0  0  0  0  0
  -27.5920  -13.2830   19.7200 C   0  0  0  0  0  3  0  0  0  0  0  0
  -28.6770  -13.1370   20.8100 C   0  0  0  0  0  2  0  0  0  0  0  0
  -29.9670  -13.5060   20.2040 N   0  0  0  0  0  0  0  0  0  0  0  0
  -31.7190  -14.9160   19.8760 O   0  0  0  0  0  0  0  0  0  0  0  0
  -29.7410  -15.7850   20.6430 N   0  0  0  0  0  0  0  0  0  0  0  0
  -28.8240  -15.4510   20.8990 H   0  0  0  0  0  0  0  0  0  0  0  0
  -25.2170  -13.8680   20.5070 C   0  0  0  0  0  0  0  0  0  0  0  0
  -24.1590  -13.0890   20.8890 C   0  0  0  0  0  0  0  0  0  0  0  0
  -24.6210  -11.7380   20.8240 C   0  0  0  0  0  0  0  0  0  0  0  0
  -26.2560  -12.9920   20.2330 N   0  0  0  0  0  0  0  0  0  0  0  0
  -25.9040  -11.7050   20.4850 N   0  0  0  0  0  0  0  0  0  0  0  0
  -23.9000  -10.4730   21.0100 C   0  0  0  0  0  0  0  0  0  0  0  0
  -24.3290   -9.5080   21.9470 C   0  0  0  0  0  3  0  0  0  0  0  0
  -23.6070   -8.3070   22.1210 C   0  0  0  0  0  3  0  0  0  0  0  0
  -22.4420   -8.0630   21.3550 C   0  0  0  0  0  0  0  0  0  0  0  0
  -22.0320   -9.0170   20.4080 C   0  0  0  0  0  3  0  0  0  0  0  0
  -22.7540  -10.2080   20.2330 C   0  0  0  0  0  3  0  0  0  0  0  0
  -21.6930   -6.9140   21.4380 O   0  0  0  0  0  0  0  0  0  0  0  0
  -21.6050   -6.1940   22.6030 C   0  0  0  0  0  0  0  0  0  0  0  0
  -21.1010   -6.7620   23.7930 C   0  0  0  0  0  3  0  0  0  0  0  0
  -20.9620   -5.9670   24.9500 C   0  0  0  0  0  3  0  0  0  0  0  0
  -21.3180   -4.6060   24.9150 C   0  0  0  0  0  0  0  0  0  0  0  0
  -21.8160   -4.0370   23.7290 C   0  0  0  0  0  3  0  0  0  0  0  0
  -21.9560   -4.8290   22.5760 C   0  0  0  0  0  0  0  0  0  0  0  0
  -22.4160   -4.2720   21.4300 F   0  0  0  0  0  0  0  0  0  0  0  0
  -21.1790   -3.8400   26.0220 F   0  0  0  0  0  0  0  0  0  0  0  0
  -22.7680  -13.5610   21.2000 C   0  0  0  0  0  0  0  0  0  0  0  0
  -22.0600  -12.8520   22.0720 N   0  0  0  0  0  0  0  0  0  0  0  0
  -22.3190  -14.5940   20.7060 O   0  0  0  0  0  0  0  0  0  0  0  0
  -22.4360  -12.0160   22.4940 H   0  0  0  0  0  0  0  0  0  0  0  0
  -21.1290  -13.1510   22.3230 H   0  0  0  0  0  0  0  0  0  0  0  0
  -25.3740  -15.2420   20.3470 N   0  0  0  0  0  0  0  0  0  0  0  0
  -24.6040  -15.8870   20.4840 H   0  0  0  0  0  0  0  0  0  0  0  0
  -26.2010  -15.6910   19.9750 H   0  0  0  0  0  0  0  0  0  0  0  0
  -28.0390  -24.9680   20.3420 C   0  0  0  0  0  2  0  0  0  0  0  0
  -28.3000  -26.4470   20.2270 O   0  0  0  0  0  0  0  0  0  0  0  0
  -24.6080  -31.9270   23.2500 C   0  0  0  0  0  0  0  0  0  0  0  0
  -27.1940  -27.3280   20.1910 C   0  0  0  0  0  0  0  0  0  0  0  0
  -23.3980  -30.5330   21.6140 C   0  0  0  0  0  3  0  0  0  0  0  0
  -24.8410  -28.9790   20.1860 C   0  0  0  0  0  0  0  0  0  0  0  0
  -25.9440  -30.8320   21.4320 C   0  0  0  0  0  2  0  0  0  0  0  0
  -26.0160  -29.4520   20.7840 C   0  0  0  0  0  0  0  0  0  0  0  0
  -27.1950  -28.6380   20.7770 C   0  0  0  0  0  3  0  0  0  0  0  0
  -25.9930  -26.9310   19.5570 C   0  0  0  0  0  3  0  0  0  0  0  0
  -24.8330  -27.7260   19.5640 C   0  0  0  0  0  3  0  0  0  0  0  0
  -23.6100  -29.8610   20.2330 C   0  0  0  0  0  2  0  0  0  0  0  0
  -24.6690  -31.1140   22.1550 N   0  0  0  0  0  0  0  0  0  0  0  0
  -23.5250  -32.2100   23.7850 O   0  0  0  0  0  0  0  0  0  0  0  0
  -22.7320  -29.5170   22.5740 C   0  0  0  0  0  0  0  0  0  0  0  0
  -21.4070  -29.3370   22.4430 N   0  0  0  0  0  0  0  0  0  0  0  0
  -23.4080  -28.8950   23.3990 O   0  0  0  0  0  0  0  0  0  0  0  0
  -20.9210  -29.8890   21.7510 H   0  0  0  0  0  0  0  0  0  0  0  0
  -18.0270  -28.1460   22.9450 C   0  0  0  0  0  0  0  0  0  0  0  0
  -20.5860  -28.4020   23.2150 C   0  0  0  0  0  3  0  0  0  0  0  0
  -20.6850  -26.9700   22.6420 C   0  0  0  0  0  2  0  0  0  0  0  0
  -19.5830  -26.6470   21.6290 C   0  0  0  0  0  2  0  0  0  0  0  0
  -18.2020  -26.7950   22.2730 C   0  0  0  0  0  2  0  0  0  0  0  0
  -19.1470  -28.9070   23.3740 C   0  0  0  0  0  0  0  0  0  0  0  0
  -18.9290  -30.1710   23.9640 C   0  0  0  0  0  3  0  0  0  0  0  0
  -17.6250  -30.6740   24.1300 C   0  0  0  0  0  3  0  0  0  0  0  0
  -16.5200  -29.9100   23.7170 C   0  0  0  0  0  3  0  0  0  0  0  0
  -16.7220  -28.6480   23.1310 C   0  0  0  0  0  3  0  0  0  0  0  0
  -25.8920  -32.5570   23.8690 C   0  0  0  0  0  3  0  0  0  0  0  0
  -25.5840  -33.9560   24.2010 N   0  0  0  0  0  0  0  0  0  0  0  0
  -25.9030  -35.0090   23.4370 C   0  0  0  0  0  0  0  0  0  0  0  0
  -26.5550  -34.9060   22.3940 O   0  0  0  0  0  0  0  0  0  0  0  0
  -25.0030  -34.1100   25.0120 H   0  0  0  0  0  0  0  0  0  0  0  0
  -24.1670  -36.8000   23.1100 C   0  0  0  0  0  1  0  0  0  0  0  0
  -25.4220  -36.3970   23.9000 C   0  0  0  0  0  3  0  0  0  0  0  0
  -27.5650  -37.2890   24.7010 C   0  0  0  0  0  1  0  0  0  0  0  0
  -26.4510  -37.4520   23.7710 N   0  0  0  0  0  0  0  0  0  0  0  0
  -26.0450  -38.3710   23.9190 H   0  0  0  0  0  0  0  0  0  0  0  0
  -26.4090  -31.7860   25.1450 C   0  0  1  0  0  0  0  0  0  0  0  0
  -25.3170  -31.5470   26.2130 C   0  0  0  0  0  1  0  0  0  0  0  0
  -26.9930  -30.4090   24.7540 C   0  0  0  0  0  1  0  0  0  0  0  0
  -27.5590  -32.5810   25.8060 C   0  0  0  0  0  1  0  0  0  0  0  0
  1  6  2  0
  2  3  1  0
  2  5  1  0
  3  4  1  6
  3 52  1  0
  3  1  1  0
  5 10  1  0
  5  1  1  0
  7  8  1  0
  9 11  1  0
 10  7  2  0
 11 22  1  0
 11  8  2  0
 12  9  2  0
 12 10  1  0
 13 12  1  0
 14 22  1  0
 15 20  1  0
 16 17  1  0
 16 15  1  0
 18 17  1  0
 18 27  1  0
 18 19  1  0
 20 14  1  0
 20 19  1  0
 21 14  2  0
 22 23  1  0
 24 25  2  0
 25 44  1  0
 26 25  1  0
 26 29  1  0
 27 28  1  0
 27 24  1  0
 28 26  2  0
 29 30  1  0
 30 31  2  0
 32 35  1  0
 32 31  1  0
 33 32  2  0
 34 33  1  0
 34 29  2  0
 35 36  1  0
 36 37  1  0
 37 38  2  0
 39 38  1  0
 39 43  1  0
 40 39  2  0
 41 36  2  0
 41 40  1  0
 42 41  1  0
 44 45  1  0
 45 48  1  0
 45 47  1  0
 46 44  2  0
 49 50  1  0
 49 24  1  0
 51 49  1  0
 53 52  1  0
 54 65  2  0
 55 53  1  0
 55 60  1  0
 56 64  1  0
 56 66  1  0
 57 63  1  0
 57 59  1  0
 58 64  1  0
 59 58  1  0
 60 59  2  0
 61 62  1  0
 61 55  2  0
 62 57  2  0
 63 56  1  0
 64 54  1  0
 66 68  2  0
 67 66  1  0
 69 67  1  0
 70 79  2  0
 70 75  1  0
 71 67  1  0
 71 75  1  0
 72 71  1  0
 73 74  1  0
 73 72  1  0
 74 70  1  0
 75 76  2  0
 76 77  1  0
 78 77  2  0
 79 78  1  0
 80 54  1  0
 80 81  1  0
 80 90  1  0
 81 84  1  0
 82 86  1  0
 82 81  1  0
 83 82  2  0
 86 85  1  0
 88 86  1  0
 88 89  1  0
 88 87  1  0
 90 93  1  1
 90 91  1  0
 92 90  1  0
M  ISO  4  14 100  22 100  52 101  53 101
M  END
>  <TORSDO>  (80) 
F 18

>  <SCORE>  (80) 
-14.963

>  <name>  (80) 
79

>  <ligand_id>  (80) 
79

>  <original_smiles>  (80) 
[H]c1c([H])c([H])c2c(c1[H])C([H])([H])C([H])([H])C([H])([H])C2([H])N([H])C(=O)C1([H])N(C(=O)C([H])(N([H])C(=O)C([H])(N([H])C([H])([H])[H])C([H])([H])[H])C(C([H])([H])[H])(C([H])([H])[H])C([H])([H])[H])C([H])([H])c2c([H])c(OC([H])([H])C3(C([H])([H])[H])C(=O)N(c4c([H])c([H])c(N([H])C(=O)N5C([H])([H])C([H])([H])C([H])([H])C([H])(n6nc(-c7c([H])c([H])c(Oc8c([H])c([H])c(F)c([H])c8F)c([H])c7[H])c(C(=O)N([H])[H])c6N([H])[H])C5([H])[H])c([H])c4F)C3([H])[H])c([H])c([H])c2C1([H])[H]

>  <smiles>  (80) 
[H]c1c([H])c([H])c2c(c1[H])C([H])([H])C([H])([H])C([H])([H])C2([H])N([H])C(=O)C1([H])N(C(=O)C([H])(N([H])C(=O)C([H])(N([H])C([H])([H])[H])C([H])([H])[H])C(C([H])([H])[H])(C([H])([H])[H])C([H])([H])[H])C([H])([H])c2c([H])c(OC([H])([H])C3(C([H])([H])[H])C(=O)N(c4c([H])c([H])c(N([H])C(=O)N5C([H])([H])C([H])([H])C([H])([H])C([H])(n6nc(-c7c([H])c([H])c(Oc8c([H])c([H])c(F)c([H])c8F)c([H])c7[H])c(C(=O)N([H])[H])c6N([H])[H])C5([H])[H])c([H])c4F)C3([H])[H])c([H])c([H])c2C1([H])[H]

$$$$
80:0:0
     RDKit          3D

 95104  0  0  1  0  0  0  0  0999 V2000
  -28.6600  -24.1070   19.1830 C   0  0  0  0  0  0  0  0  0  0  0  0
  -28.8630  -24.7290   17.8680 C   0  0  0  0  0  0  0  0  0  0  0  0
  -28.5870  -22.4470   17.6070 C   0  0  0  0  0  0  0  0  0  0  0  0
  -28.4120  -24.9520   20.2560 C   0  0  0  0  0  3  0  0  0  0  0  0
  -28.6770  -23.7140   16.7780 C   0  0  0  0  0  2  0  0  0  0  0  0
  -28.6480  -22.6530   18.9520 N   0  0  0  0  0  0  0  0  0  0  0  0
  -29.1380  -25.9070   17.6150 O   0  0  0  0  0  0  0  0  0  0  0  0
  -28.4660  -21.3570   17.0330 O   0  0  0  0  0  0  0  0  0  0  0  0
  -28.5950  -18.9540   20.1040 C   0  0  0  0  0  3  0  0  0  0  0  0
  -28.1420  -20.2870   19.8000 C   0  0  0  0  0  3  0  0  0  0  0  0
  -30.3530  -21.1320   20.0770 C   0  0  0  0  0  3  0  0  0  0  0  0
  -29.9590  -18.6430   20.3660 C   0  0  0  0  0  0  0  0  0  0  0  0
  -30.8140  -19.8020   20.3810 C   0  0  0  0  0  0  0  0  0  0  0  0
  -29.0070  -21.4290   19.7350 C   0  0  0  0  0  0  0  0  0  0  0  0
  -32.2910  -19.6460   20.7060 C   0  0  0  0  0  1  0  0  0  0  0  0
  -30.4530  -17.0700   22.3200 C   0  0  0  0  0  1  0  0  0  0  0  0
  -30.5130  -17.1870   20.7890 C   0  0  0  0  0  3  0  0  0  0  0  0
  -29.9560  -15.8890   20.3080 O   0  0  0  0  0  0  0  0  0  0  0  0
  -30.7910  -14.7370   19.9660 C   0  0  0  0  0  0  0  0  0  0  0  0
  -30.4890  -12.4450   18.9530 C   0  0  0  0  0  2  0  0  0  0  0  0
  -29.4970  -12.5520   17.7730 C   0  0  0  0  0  2  0  0  0  0  0  0
  -28.0440  -12.4050   18.2690 C   0  0  0  0  0  2  0  0  0  0  0  0
  -27.7400  -13.2970   19.5030 C   0  0  0  0  0  3  0  0  0  0  0  0
  -28.8370  -13.1940   20.5770 C   0  0  0  0  0  2  0  0  0  0  0  0
  -30.1160  -13.4860   19.9320 N   0  0  0  0  0  0  0  0  0  0  0  0
  -31.9590  -14.8520   19.5930 O   0  0  0  0  0  0  0  0  0  0  0  0
  -25.4090  -13.9220   20.3630 C   0  0  0  0  0  0  0  0  0  0  0  0
  -24.3490  -13.1640   20.7790 C   0  0  0  0  0  0  0  0  0  0  0  0
  -24.7850  -11.8040   20.7140 C   0  0  0  0  0  0  0  0  0  0  0  0
  -26.4190  -13.0260   20.0600 N   0  0  0  0  0  0  0  0  0  0  0  0
  -26.0580  -11.7470   20.3370 N   0  0  0  0  0  0  0  0  0  0  0  0
  -24.0480  -10.5540   20.9310 C   0  0  0  0  0  0  0  0  0  0  0  0
  -24.4900   -9.5840   21.8570 C   0  0  0  0  0  3  0  0  0  0  0  0
  -23.7510   -8.3980   22.0600 C   0  0  0  0  0  3  0  0  0  0  0  0
  -22.5560   -8.1740   21.3370 C   0  0  0  0  0  0  0  0  0  0  0  0
  -22.1320   -9.1320   20.4000 C   0  0  0  0  0  3  0  0  0  0  0  0
  -22.8710  -10.3090   20.1940 C   0  0  0  0  0  3  0  0  0  0  0  0
  -21.7860   -7.0410   21.4500 O   0  0  0  0  0  0  0  0  0  0  0  0
  -21.7320   -6.3220   22.6170 C   0  0  0  0  0  0  0  0  0  0  0  0
  -21.3060   -6.9030   23.8310 C   0  0  0  0  0  3  0  0  0  0  0  0
  -21.1970   -6.1100   24.9900 C   0  0  0  0  0  3  0  0  0  0  0  0
  -21.5050   -4.7380   24.9380 C   0  0  0  0  0  0  0  0  0  0  0  0
  -21.9230   -4.1560   23.7280 C   0  0  0  0  0  3  0  0  0  0  0  0
  -22.0330   -4.9460   22.5700 C   0  0  0  0  0  0  0  0  0  0  0  0
  -22.4170   -4.3760   21.4020 F   0  0  0  0  0  0  0  0  0  0  0  0
  -21.3930   -3.9730   26.0500 F   0  0  0  0  0  0  0  0  0  0  0  0
  -22.9780  -13.6630   21.1250 C   0  0  0  0  0  0  0  0  0  0  0  0
  -22.2850  -12.9760   22.0270 N   0  0  0  0  0  0  0  0  0  0  0  0
  -22.5310  -14.6980   20.6320 O   0  0  0  0  0  0  0  0  0  0  0  0
  -22.6620  -12.1380   22.4460 H   0  0  0  0  0  0  0  0  0  0  0  0
  -21.3660  -13.2920   22.3010 H   0  0  0  0  0  0  0  0  0  0  0  0
  -25.5930  -15.2920   20.1940 N   0  0  0  0  0  0  0  0  0  0  0  0
  -24.8550  -15.9670   20.3600 H   0  0  0  0  0  0  0  0  0  0  0  0
  -26.4500  -15.7130   19.8550 H   0  0  0  0  0  0  0  0  0  0  0  0
  -28.4780  -26.3870   20.2260 O   0  0  0  0  0  0  0  0  0  0  0  0
  -24.6130  -31.8230   23.1520 C   0  0  0  0  0  0  0  0  0  0  0  0
  -27.3430  -27.2270   20.2060 C   0  0  0  0  0  0  0  0  0  0  0  0
  -23.4700  -30.4020   21.4880 C   0  0  0  0  0  3  0  0  0  0  0  0
  -24.9730  -28.8470   20.1170 C   0  0  0  0  0  0  0  0  0  0  0  0
  -26.0130  -30.7310   21.3760 C   0  0  0  0  0  2  0  0  0  0  0  0
  -26.1210  -29.3430   20.7440 C   0  0  0  0  0  0  0  0  0  0  0  0
  -27.3110  -28.5450   20.7770 C   0  0  0  0  0  3  0  0  0  0  0  0
  -26.1710  -26.7910   19.5550 C   0  0  0  0  0  3  0  0  0  0  0  0
  -25.0020  -27.5780   19.5120 C   0  0  0  0  0  3  0  0  0  0  0  0
  -23.7290  -29.7170   20.1210 C   0  0  0  0  0  2  0  0  0  0  0  0
  -24.7160  -31.0060   22.0610 N   0  0  0  0  0  0  0  0  0  0  0  0
  -23.5120  -32.0950   23.6520 O   0  0  0  0  0  0  0  0  0  0  0  0
  -22.7870  -29.3880   22.4380 C   0  0  0  0  0  0  0  0  0  0  0  0
  -21.4620  -29.2160   22.2920 N   0  0  0  0  0  0  0  0  0  0  0  0
  -23.4500  -28.7600   23.2670 O   0  0  0  0  0  0  0  0  0  0  0  0
  -20.9870  -29.7720   21.5940 H   0  0  0  0  0  0  0  0  0  0  0  0
  -18.0770  -28.0180   22.7360 C   0  0  0  0  0  0  0  0  0  0  0  0
  -20.6300  -28.2790   23.0480 C   0  0  0  0  0  3  0  0  0  0  0  0
  -20.7410  -26.8480   22.4730 C   0  0  0  0  0  2  0  0  0  0  0  0
  -19.6560  -26.5260   21.4410 C   0  0  0  0  0  2  0  0  0  0  0  0
  -18.2630  -26.6710   22.0600 C   0  0  0  0  0  2  0  0  0  0  0  0
  -19.1880  -28.7810   23.1860 C   0  0  0  0  0  0  0  0  0  0  0  0
  -18.9590  -30.0420   23.7780 C   0  0  0  0  0  3  0  0  0  0  0  0
  -17.6500  -30.5430   23.9210 C   0  0  0  0  0  3  0  0  0  0  0  0
  -16.5540  -29.7780   23.4860 C   0  0  0  0  0  3  0  0  0  0  0  0
  -16.7670  -28.5170   22.9010 C   0  0  0  0  0  3  0  0  0  0  0  0
  -25.8700  -32.4720   23.8080 C   0  0  0  0  0  3  0  0  0  0  0  0
  -26.3630  -31.7070   25.0980 C   0  0  1  0  0  0  0  0  0  0  0  0
  -25.2450  -31.4550   26.1370 C   0  0  0  0  0  1  0  0  0  0  0  0
  -26.9750  -30.3370   24.7240 C   0  0  0  0  0  1  0  0  0  0  0  0
  -27.4870  -32.5160   25.7890 C   0  0  0  0  0  1  0  0  0  0  0  0
  -25.5330  -33.8660   24.1350 N   0  0  0  0  0  0  0  0  0  0  0  0
  -25.8850  -34.9280   23.3970 C   0  0  0  0  0  0  0  0  0  0  0  0
  -26.5950  -34.8370   22.3930 O   0  0  0  0  0  0  0  0  0  0  0  0
  -24.9040  -34.0080   24.9120 H   0  0  0  0  0  0  0  0  0  0  0  0
  -24.1670  -36.7170   22.9760 C   0  0  0  0  0  1  0  0  0  0  0  0
  -25.3690  -36.3090   23.8440 C   0  0  0  0  0  3  0  0  0  0  0  0
  -27.4520  -37.1990   24.7940 C   0  0  0  0  0  1  0  0  0  0  0  0
  -26.4020  -37.3670   23.7930 N   0  0  0  0  0  0  0  0  0  0  0  0
  -25.9840  -38.2850   23.9240 H   0  0  0  0  0  0  0  0  0  0  0  0
  1  4  2  0
  2  1  1  0
  3  6  1  0
  5  3  1  0
  5  2  1  0
  6  1  1  0
  6 14  1  0
  7  2  2  0
  8  3  2  0
  9 12  1  0
 10  9  2  0
 11 13  1  0
 12 13  2  0
 12 17  1  0
 13 15  1  0
 14 10  1  0
 14 11  2  0
 17 16  1  0
 18 17  1  0
 19 18  1  0
 20 25  1  0
 21 22  1  0
 21 20  1  0
 23 22  1  0
 23 30  1  0
 23 24  1  0
 25 19  1  0
 25 24  1  0
 26 19  2  0
 27 28  2  0
 28 47  1  0
 29 28  1  0
 29 32  1  0
 30 31  1  0
 30 27  1  0
 31 29  2  0
 32 33  1  0
 33 34  2  0
 35 38  1  0
 35 34  1  0
 36 35  2  0
 37 36  1  0
 37 32  2  0
 38 39  1  0
 39 40  1  0
 40 41  2  0
 42 41  1  0
 42 46  1  0
 43 42  2  0
 44 39  2  0
 44 43  1  0
 45 44  1  0
 47 48  1  0
 48 51  1  0
 48 50  1  0
 49 47  2  0
 52 53  1  0
 52 27  1  0
 54 52  1  0
 55  4  1  0
 56 67  2  0
 57 55  1  0
 57 62  1  0
 58 66  1  0
 58 68  1  0
 59 65  1  0
 59 61  1  0
 60 66  1  0
 61 62  2  0
 61 60  1  0
 63 57  2  0
 64 63  1  0
 64 59  2  0
 65 58  1  0
 66 56  1  0
 68 70  2  0
 69 68  1  0
 71 69  1  0
 72 81  2  0
 72 77  1  0
 73 69  1  0
 73 77  1  0
 74 73  1  0
 75 76  1  0
 75 74  1  0
 76 72  1  0
 77 78  2  0
 78 79  1  0
 80 79  2  0
 81 80  1  0
 82 56  1  0
 82 87  1  0
 82 83  1  0
 83 86  1  1
 83 84  1  0
 85 83  1  0
 87 90  1  0
 88 92  1  0
 88 87  1  0
 89 88  2  0
 92 91  1  0
 94 92  1  0
 94 95  1  0
 94 93  1  0
M  ISO  4   4 101  18 100  19 100  55 101
M  END
>  <TORSDO>  (81) 
F 19

>  <SCORE>  (81) 
-14.427

>  <name>  (81) 
80

>  <ligand_id>  (81) 
80

>  <original_smiles>  (81) 
[H]C(Oc1c([H])c([H])c2c(c1[H])C([H])([H])N(C(=O)C([H])(N([H])C(=O)C([H])(N([H])C([H])([H])[H])C([H])([H])[H])C(C([H])([H])[H])(C([H])([H])[H])C([H])([H])[H])C([H])(C(=O)N([H])C1([H])c3c([H])c([H])c([H])c([H])c3C([H])([H])C([H])([H])C1([H])[H])C2([H])[H])=C1C(=O)C([H])([H])C(=O)N1c1c([H])c([H])c(C([H])(OC(=O)N2C([H])([H])C([H])([H])C([H])([H])C([H])(n3nc(-c4c([H])c([H])c(Oc5c([H])c([H])c(F)c([H])c5F)c([H])c4[H])c(C(=O)N([H])[H])c3N([H])[H])C2([H])[H])C([H])([H])[H])c(C([H])([H])[H])c1[H]

>  <smiles>  (81) 
[H]C(Oc1c([H])c([H])c2c(c1[H])C([H])([H])N(C(=O)C([H])(N([H])C(=O)C([H])(N([H])C([H])([H])[H])C([H])([H])[H])C(C([H])([H])[H])(C([H])([H])[H])C([H])([H])[H])C([H])(C(=O)N([H])C1([H])c3c([H])c([H])c([H])c([H])c3C([H])([H])C([H])([H])C1([H])[H])C2([H])[H])=C1C(=O)C([H])([H])C(=O)N1c1c([H])c([H])c(C([H])(OC(=O)N2C([H])([H])C([H])([H])C([H])([H])C([H])(n3nc(-c4c([H])c([H])c(Oc5c([H])c([H])c(F)c([H])c5F)c([H])c4[H])c(C(=O)N([H])[H])c3N([H])[H])C2([H])[H])C([H])([H])[H])c(C([H])([H])[H])c1[H]

$$$$
81:0:0
     RDKit          3D

 95104  0  0  1  0  0  0  0  0999 V2000
  -29.5130  -22.5740   20.4970 C   0  0  0  0  0  0  0  0  0  0  0  0
  -27.3180  -22.7220   19.6900 C   0  0  0  0  0  2  0  0  0  0  0  0
  -27.8830  -21.2790   19.5400 C   0  0  0  0  0  2  0  0  0  0  0  0
  -28.5180  -23.6640   19.9300 C   0  0  0  0  0  3  0  0  0  0  0  0
  -29.1950  -21.2580   20.1870 N   0  0  0  0  0  0  0  0  0  0  0  0
  -30.4800  -22.9210   21.1810 O   0  0  0  0  0  0  0  0  0  0  0  0
  -31.4310  -20.1610   20.2950 C   0  0  0  0  0  3  0  0  0  0  0  0
  -31.8130  -17.7490   20.4730 C   0  0  0  0  0  3  0  0  0  0  0  0
  -29.5490  -18.6210   20.3630 C   0  0  0  0  0  3  0  0  0  0  0  0
  -32.3150  -19.0660   20.3730 C   0  0  0  0  0  0  0  0  0  0  0  0
  -30.0240  -20.0080   20.3050 C   0  0  0  0  0  0  0  0  0  0  0  0
  -30.4250  -17.4480   20.4500 C   0  0  0  0  0  0  0  0  0  0  0  0
  -30.6500  -14.8080   20.3080 C   0  0  0  0  0  0  0  0  0  0  0  0
  -30.3530  -12.5450   19.2860 C   0  0  0  0  0  2  0  0  0  0  0  0
  -29.4090  -12.6380   18.0690 C   0  0  0  0  0  2  0  0  0  0  0  0
  -27.9470  -12.4670   18.5170 C   0  0  0  0  0  2  0  0  0  0  0  0
  -27.5920  -13.3360   19.7550 C   0  0  0  0  0  3  0  0  0  0  0  0
  -28.6720  -13.2720   20.8580 C   0  0  0  0  0  2  0  0  0  0  0  0
  -29.9580  -13.6140   20.2370 N   0  0  0  0  0  0  0  0  0  0  0  0
  -31.8350  -14.8030   19.9750 O   0  0  0  0  0  0  0  0  0  0  0  0
  -29.9680  -16.0140   20.5230 N   0  0  0  0  0  0  0  0  0  0  0  0
  -28.9850  -15.8920   20.7090 H   0  0  0  0  0  0  0  0  0  0  0  0
  -25.2100  -13.8970   20.5100 C   0  0  0  0  0  0  0  0  0  0  0  0
  -24.1530  -13.1130   20.8810 C   0  0  0  0  0  0  0  0  0  0  0  0
  -24.6250  -11.7660   20.8390 C   0  0  0  0  0  0  0  0  0  0  0  0
  -26.2580  -13.0270   20.2620 N   0  0  0  0  0  0  0  0  0  0  0  0
  -25.9150  -11.7390   20.5230 N   0  0  0  0  0  0  0  0  0  0  0  0
  -23.9050  -10.4980   21.0230 C   0  0  0  0  0  0  0  0  0  0  0  0
  -24.3320   -9.5380   21.9680 C   0  0  0  0  0  3  0  0  0  0  0  0
  -23.6120   -8.3370   22.1420 C   0  0  0  0  0  3  0  0  0  0  0  0
  -22.4490   -8.0870   21.3750 C   0  0  0  0  0  0  0  0  0  0  0  0
  -22.0410   -9.0360   20.4210 C   0  0  0  0  0  3  0  0  0  0  0  0
  -22.7620  -10.2290   20.2430 C   0  0  0  0  0  3  0  0  0  0  0  0
  -21.7000   -6.9380   21.4600 O   0  0  0  0  0  0  0  0  0  0  0  0
  -21.6270   -6.2100   22.6210 C   0  0  0  0  0  0  0  0  0  0  0  0
  -21.1410   -6.7700   23.8220 C   0  0  0  0  0  3  0  0  0  0  0  0
  -21.0180   -5.9670   24.9740 C   0  0  0  0  0  3  0  0  0  0  0  0
  -21.3700   -4.6050   24.9250 C   0  0  0  0  0  0  0  0  0  0  0  0
  -21.8480   -4.0450   23.7260 C   0  0  0  0  0  3  0  0  0  0  0  0
  -21.9740   -4.8450   22.5770 C   0  0  0  0  0  0  0  0  0  0  0  0
  -22.4150   -4.2950   21.4210 F   0  0  0  0  0  0  0  0  0  0  0  0
  -21.2450   -3.8310   26.0280 F   0  0  0  0  0  0  0  0  0  0  0  0
  -22.7550  -13.5810   21.1650 C   0  0  0  0  0  0  0  0  0  0  0  0
  -22.0360  -12.8690   22.0230 N   0  0  0  0  0  0  0  0  0  0  0  0
  -22.3100  -14.6130   20.6600 O   0  0  0  0  0  0  0  0  0  0  0  0
  -22.4110  -12.0330   22.4490 H   0  0  0  0  0  0  0  0  0  0  0  0
  -21.0970  -13.1610   22.2570 H   0  0  0  0  0  0  0  0  0  0  0  0
  -25.3650  -15.2690   20.3350 N   0  0  0  0  0  0  0  0  0  0  0  0
  -24.5980  -15.9210   20.4480 H   0  0  0  0  0  0  0  0  0  0  0  0
  -26.2040  -15.7090   19.9800 H   0  0  0  0  0  0  0  0  0  0  0  0
  -34.3240  -20.1400   21.5240 C   0  0  0  0  0  1  0  0  0  0  0  0
  -34.2840  -19.9330   19.0030 C   0  0  0  0  0  1  0  0  0  0  0  0
  -33.8280  -19.3030   20.3310 C   0  0  0  0  0  3  0  0  0  0  0  0
  -28.1840  -25.0370   20.7450 C   0  0  0  0  0  2  0  0  0  0  0  0
  -28.3430  -26.4350   20.2070 O   0  0  0  0  0  0  0  0  0  0  0  0
  -24.5870  -31.8800   23.2380 C   0  0  0  0  0  0  0  0  0  0  0  0
  -27.2330  -27.3070   20.2000 C   0  0  0  0  0  0  0  0  0  0  0  0
  -23.4010  -30.4810   21.5860 C   0  0  0  0  0  3  0  0  0  0  0  0
  -24.8660  -28.9290   20.1690 C   0  0  0  0  0  0  0  0  0  0  0  0
  -25.9420  -30.8050   21.4180 C   0  0  0  0  0  2  0  0  0  0  0  0
  -26.0330  -29.4220   20.7720 C   0  0  0  0  0  0  0  0  0  0  0  0
  -27.2230  -28.6250   20.7680 C   0  0  0  0  0  3  0  0  0  0  0  0
  -26.0450  -26.8730   19.5790 C   0  0  0  0  0  3  0  0  0  0  0  0
  -24.8770  -27.6620   19.5630 C   0  0  0  0  0  3  0  0  0  0  0  0
  -23.6280  -29.8030   20.2080 C   0  0  0  0  0  2  0  0  0  0  0  0
  -24.6630  -31.0710   22.1390 N   0  0  0  0  0  0  0  0  0  0  0  0
  -23.4970  -32.1540   23.7630 O   0  0  0  0  0  0  0  0  0  0  0  0
  -22.7320  -29.4620   22.5410 C   0  0  0  0  0  0  0  0  0  0  0  0
  -21.4070  -29.2850   22.4060 N   0  0  0  0  0  0  0  0  0  0  0  0
  -23.4050  -28.8340   23.3620 O   0  0  0  0  0  0  0  0  0  0  0  0
  -20.9200  -29.8450   21.7200 H   0  0  0  0  0  0  0  0  0  0  0  0
  -18.0270  -28.0940   22.9010 C   0  0  0  0  0  0  0  0  0  0  0  0
  -20.5850  -28.3420   23.1690 C   0  0  0  0  0  3  0  0  0  0  0  0
  -20.6820  -26.9160   22.5800 C   0  0  0  0  0  2  0  0  0  0  0  0
  -19.5760  -26.6060   21.5650 C   0  0  0  0  0  2  0  0  0  0  0  0
  -18.1960  -26.7500   22.2110 C   0  0  0  0  0  2  0  0  0  0  0  0
  -19.1480  -28.8480   23.3360 C   0  0  0  0  0  0  0  0  0  0  0  0
  -18.9340  -30.1050   23.9420 C   0  0  0  0  0  3  0  0  0  0  0  0
  -17.6310  -30.6080   24.1150 C   0  0  0  0  0  3  0  0  0  0  0  0
  -16.5240  -29.8510   23.6960 C   0  0  0  0  0  3  0  0  0  0  0  0
  -16.7220  -28.5950   23.0950 C   0  0  0  0  0  3  0  0  0  0  0  0
  -25.8610  -32.5200   23.8740 C   0  0  0  0  0  3  0  0  0  0  0  0
  -26.3570  -31.7610   25.1670 C   0  0  1  0  0  0  0  0  0  0  0  0
  -25.2490  -31.5350   26.2210 C   0  0  0  0  0  1  0  0  0  0  0  0
  -26.9460  -30.3800   24.7990 C   0  0  0  0  0  1  0  0  0  0  0  0
  -27.5000  -32.5590   25.8350 C   0  0  0  0  0  1  0  0  0  0  0  0
  -25.5480  -33.9210   24.1910 N   0  0  0  0  0  0  0  0  0  0  0  0
  -25.8890  -34.9700   23.4290 C   0  0  0  0  0  0  0  0  0  0  0  0
  -26.5690  -34.8580   22.4060 O   0  0  0  0  0  0  0  0  0  0  0  0
  -24.9540  -34.0840   24.9900 H   0  0  0  0  0  0  0  0  0  0  0  0
  -24.1780  -36.7670   23.0280 C   0  0  0  0  0  1  0  0  0  0  0  0
  -25.3970  -36.3610   23.8710 C   0  0  0  0  0  3  0  0  0  0  0  0
  -27.5150  -37.2390   24.7510 C   0  0  0  0  0  1  0  0  0  0  0  0
  -26.4360  -37.4110   23.7820 N   0  0  0  0  0  0  0  0  0  0  0  0
  -26.0290  -38.3320   23.9210 H   0  0  0  0  0  0  0  0  0  0  0  0
  1  6  2  0
  2  4  1  0
  3  2  1  0
  3  5  1  0
  4  1  1  0
  4 54  1  0
  5 11  1  0
  5  1  1  0
  7 11  2  0
  7 10  1  0
  9 12  2  0
 10  8  2  0
 11  9  1  0
 12  8  1  0
 12 21  1  0
 13 21  1  0
 14 19  1  0
 15 16  1  0
 15 14  1  0
 17 16  1  0
 17 26  1  0
 17 18  1  0
 19 13  1  0
 19 18  1  0
 20 13  2  0
 21 22  1  0
 23 24  2  0
 24 43  1  0
 25 24  1  0
 25 28  1  0
 26 23  1  0
 26 27  1  0
 27 25  2  0
 28 29  1  0
 29 30  2  0
 31 34  1  0
 31 30  1  0
 32 31  2  0
 33 32  1  0
 33 28  2  0
 34 35  1  0
 35 36  1  0
 36 37  2  0
 38 37  1  0
 38 42  1  0
 39 38  2  0
 40 35  2  0
 40 39  1  0
 41 40  1  0
 43 44  1  0
 44 47  1  0
 44 46  1  0
 45 43  2  0
 48 49  1  0
 48 23  1  0
 50 48  1  0
 52 53  1  0
 53 10  1  0
 53 51  1  0
 55 54  1  0
 56 67  2  0
 57 55  1  0
 57 62  1  0
 58 66  1  0
 58 68  1  0
 59 65  1  0
 59 61  1  0
 60 66  1  0
 61 60  1  0
 62 61  2  0
 63 57  2  0
 64 63  1  0
 64 59  2  0
 65 58  1  0
 66 56  1  0
 68 70  2  0
 69 68  1  0
 71 69  1  0
 72 81  2  0
 72 77  1  0
 73 69  1  0
 73 77  1  0
 74 73  1  0
 75 76  1  0
 75 74  1  0
 76 72  1  0
 77 78  2  0
 78 79  1  0
 80 79  2  0
 81 80  1  0
 82 56  1  0
 82 87  1  0
 82 83  1  0
 83 86  1  1
 83 84  1  0
 85 83  1  0
 87 90  1  0
 88 92  1  0
 88 87  1  0
 89 88  2  0
 92 91  1  0
 94 92  1  0
 94 95  1  0
 94 93  1  0
M  ISO  4  13 100  21 100  54 101  55 101
M  END
>  <TORSDO>  (82) 
F 19

>  <SCORE>  (82) 
-14.742

>  <name>  (82) 
81

>  <ligand_id>  (82) 
81

>  <original_smiles>  (82) 
[H]c1c([H])c([H])c2c(c1[H])C([H])([H])C([H])([H])C([H])([H])C2([H])N([H])C(=O)C1([H])N(C(=O)C([H])(N([H])C(=O)C([H])(N([H])C([H])([H])[H])C([H])([H])[H])C(C([H])([H])[H])(C([H])([H])[H])C([H])([H])[H])C([H])([H])c2c([H])c(OC([H])([H])C3([H])C(=O)N(c4c([H])c(N([H])C(=O)N5C([H])([H])C([H])([H])C([H])([H])C([H])(n6nc(-c7c([H])c([H])c(Oc8c([H])c([H])c(F)c([H])c8F)c([H])c7[H])c(C(=O)N([H])[H])c6N([H])[H])C5([H])[H])c([H])c(C([H])(C([H])([H])[H])C([H])([H])[H])c4[H])C([H])([H])C3([H])[H])c([H])c([H])c2C1([H])[H]

>  <smiles>  (82) 
[H]c1c([H])c([H])c2c(c1[H])C([H])([H])C([H])([H])C([H])([H])C2([H])N([H])C(=O)C1([H])N(C(=O)C([H])(N([H])C(=O)C([H])(N([H])C([H])([H])[H])C([H])([H])[H])C(C([H])([H])[H])(C([H])([H])[H])C([H])([H])[H])C([H])([H])c2c([H])c(OC([H])([H])C3([H])C(=O)N(c4c([H])c(N([H])C(=O)N5C([H])([H])C([H])([H])C([H])([H])C([H])(n6nc(-c7c([H])c([H])c(Oc8c([H])c([H])c(F)c([H])c8F)c([H])c7[H])c(C(=O)N([H])[H])c6N([H])[H])C5([H])[H])c([H])c(C([H])(C([H])([H])[H])C([H])([H])[H])c4[H])C([H])([H])C3([H])[H])c([H])c([H])c2C1([H])[H]

$$$$
82:0:0
     RDKit          3D

 88 95  0  0  1  0  0  0  0  0999 V2000
  -28.8050  -22.7370   19.8690 C   0  0  0  0  0  0  0  0  0  0  0  0
  -28.8700  -21.3140   20.3240 N   0  0  0  0  0  0  0  0  0  0  0  0
  -29.2990  -22.9400   18.7600 O   0  0  0  0  0  0  0  0  0  0  0  0
  -28.5250  -21.2490   21.2730 H   0  0  0  0  0  0  0  0  0  0  0  0
  -28.0690  -24.1790   20.5880 C   0  0  0  0  0  2  0  0  0  0  0  0
  -28.3240  -25.8030   20.3280 O   0  0  0  0  0  0  0  0  0  0  0  0
  -24.6120  -31.7920   23.2020 C   0  0  0  0  0  0  0  0  0  0  0  0
  -27.3010  -26.8990   20.2990 C   0  0  0  0  0  0  0  0  0  0  0  0
  -23.4820  -30.3750   21.5380 C   0  0  0  0  0  3  0  0  0  0  0  0
  -24.9870  -28.7700   20.1740 C   0  0  0  0  0  0  0  0  0  0  0  0
  -26.0510  -30.6040   21.4690 C   0  0  0  0  0  2  0  0  0  0  0  0
  -26.1560  -29.1880   20.8250 C   0  0  0  0  0  0  0  0  0  0  0  0
  -27.3100  -28.2760   20.8560 C   0  0  0  0  0  3  0  0  0  0  0  0
  -26.0990  -26.6390   19.6040 C   0  0  0  0  0  3  0  0  0  0  0  0
  -24.9860  -27.5170   19.5430 C   0  0  0  0  0  3  0  0  0  0  0  0
  -23.7610  -29.6840   20.1750 C   0  0  0  0  0  2  0  0  0  0  0  0
  -24.7360  -30.9510   22.1240 N   0  0  0  0  0  0  0  0  0  0  0  0
  -23.5040  -32.0750   23.6870 O   0  0  0  0  0  0  0  0  0  0  0  0
  -22.7670  -29.3780   22.4890 C   0  0  0  0  0  0  0  0  0  0  0  0
  -21.4410  -29.2060   22.3300 N   0  0  0  0  0  0  0  0  0  0  0  0
  -23.4140  -28.7600   23.3380 O   0  0  0  0  0  0  0  0  0  0  0  0
  -20.9710  -29.7530   21.6220 H   0  0  0  0  0  0  0  0  0  0  0  0
  -18.0560  -27.9670   22.7490 C   0  0  0  0  0  0  0  0  0  0  0  0
  -20.6050  -28.2650   23.0830 C   0  0  0  0  0  3  0  0  0  0  0  0
  -20.7390  -26.8300   22.5220 C   0  0  0  0  0  2  0  0  0  0  0  0
  -19.6700  -26.4890   21.4780 C   0  0  0  0  0  2  0  0  0  0  0  0
  -18.2690  -26.6180   22.0830 C   0  0  0  0  0  2  0  0  0  0  0  0
  -19.1530  -28.7470   23.2050 C   0  0  0  0  0  0  0  0  0  0  0  0
  -18.9000  -30.0060   23.7910 C   0  0  0  0  0  3  0  0  0  0  0  0
  -17.5840  -30.4880   23.9230 C   0  0  0  0  0  3  0  0  0  0  0  0
  -16.5020  -29.7070   23.4810 C   0  0  0  0  0  3  0  0  0  0  0  0
  -16.7380  -28.4470   22.9020 C   0  0  0  0  0  3  0  0  0  0  0  0
  -25.8560  -32.4520   23.8700 C   0  0  0  0  0  3  0  0  0  0  0  0
  -26.3190  -31.7110   25.1850 C   0  0  1  0  0  0  0  0  0  0  0  0
  -25.1820  -31.4900   26.2110 C   0  0  0  0  0  1  0  0  0  0  0  0
  -26.9250  -30.3270   24.8570 C   0  0  0  0  0  1  0  0  0  0  0  0
  -27.4370  -32.5240   25.8800 C   0  0  0  0  0  1  0  0  0  0  0  0
  -25.5190  -33.8550   24.1740 N   0  0  0  0  0  0  0  0  0  0  0  0
  -25.8640  -34.9080   23.4220 C   0  0  0  0  0  0  0  0  0  0  0  0
  -26.5620  -34.8030   22.4110 O   0  0  0  0  0  0  0  0  0  0  0  0
  -24.9010  -34.0080   24.9570 H   0  0  0  0  0  0  0  0  0  0  0  0
  -24.1300  -36.6900   23.0230 C   0  0  0  0  0  1  0  0  0  0  0  0
  -25.3590  -36.3000   23.8590 C   0  0  0  0  0  3  0  0  0  0  0  0
  -27.4680  -37.2140   24.7240 C   0  0  0  0  0  1  0  0  0  0  0  0
  -26.3860  -37.3590   23.7550 N   0  0  0  0  0  0  0  0  0  0  0  0
  -25.9690  -38.2780   23.8810 H   0  0  0  0  0  0  0  0  0  0  0  0
  -29.0740  -19.7670   19.6750 C   0  0  0  0  0  2  0  0  0  0  0  0
  -30.1140  -18.4160   21.6840 C   0  0  0  0  0  1  0  0  0  0  0  0
  -31.4260  -18.5760   19.5800 C   0  0  0  0  0  1  0  0  0  0  0  0
  -30.0270  -18.2920   20.1540 C   0  0  2  0  0  0  0  0  0  0  0  0
  -30.5080  -15.3360   19.8170 C   0  0  0  0  0  0  0  0  0  0  0  0
  -30.4230  -12.8800   18.9460 C   0  0  0  0  0  2  0  0  0  0  0  0
  -29.4240  -12.6350   17.7870 C   0  0  0  0  0  2  0  0  0  0  0  0
  -28.0110  -12.3610   18.3310 C   0  0  0  0  0  2  0  0  0  0  0  0
  -27.6280  -13.3410   19.4660 C   0  0  0  0  0  3  0  0  0  0  0  0
  -28.7490  -13.5230   20.5110 C   0  0  0  0  0  2  0  0  0  0  0  0
  -29.9210  -14.0350   19.7790 N   0  0  0  0  0  0  0  0  0  0  0  0
  -31.7260  -15.2950   19.5900 O   0  0  0  0  0  0  0  0  0  0  0  0
  -29.7660  -16.6360   19.9080 N   0  0  0  0  0  0  0  0  0  0  0  0
  -28.7760  -16.4370   19.9260 H   0  0  0  0  0  0  0  0  0  0  0  0
  -25.3330  -13.9090   20.4120 C   0  0  0  0  0  0  0  0  0  0  0  0
  -24.2880  -13.1360   20.8370 C   0  0  0  0  0  0  0  0  0  0  0  0
  -24.7330  -11.7810   20.7400 C   0  0  0  0  0  0  0  0  0  0  0  0
  -26.3410  -13.0270   20.0700 N   0  0  0  0  0  0  0  0  0  0  0  0
  -25.9990  -11.7390   20.3370 N   0  0  0  0  0  0  0  0  0  0  0  0
  -24.0020  -10.5240   20.9490 C   0  0  0  0  0  0  0  0  0  0  0  0
  -24.4570   -9.5440   21.8580 C   0  0  0  0  0  3  0  0  0  0  0  0
  -23.7220   -8.3550   22.0560 C   0  0  0  0  0  3  0  0  0  0  0  0
  -22.5170   -8.1380   21.3460 C   0  0  0  0  0  0  0  0  0  0  0  0
  -22.0810   -9.1060   20.4250 C   0  0  0  0  0  3  0  0  0  0  0  0
  -22.8160  -10.2860   20.2250 C   0  0  0  0  0  3  0  0  0  0  0  0
  -21.7520   -7.0020   21.4570 O   0  0  0  0  0  0  0  0  0  0  0  0
  -21.7160   -6.2680   22.6160 C   0  0  0  0  0  0  0  0  0  0  0  0
  -21.3020   -6.8320   23.8420 C   0  0  0  0  0  3  0  0  0  0  0  0
  -21.2110   -6.0260   24.9940 C   0  0  0  0  0  3  0  0  0  0  0  0
  -21.5260   -4.6560   24.9200 C   0  0  0  0  0  0  0  0  0  0  0  0
  -21.9330   -4.0910   23.6990 C   0  0  0  0  0  3  0  0  0  0  0  0
  -22.0260   -4.8950   22.5500 C   0  0  0  0  0  0  0  0  0  0  0  0
  -22.3980   -4.3420   21.3710 F   0  0  0  0  0  0  0  0  0  0  0  0
  -21.4320   -3.8780   26.0240 F   0  0  0  0  0  0  0  0  0  0  0  0
  -22.9210  -13.6250   21.2120 C   0  0  0  0  0  0  0  0  0  0  0  0
  -22.2400  -12.9220   22.1090 N   0  0  0  0  0  0  0  0  0  0  0  0
  -22.4670  -14.6690   20.7440 O   0  0  0  0  0  0  0  0  0  0  0  0
  -22.6190  -12.0770   22.5130 H   0  0  0  0  0  0  0  0  0  0  0  0
  -21.3270  -13.2360   22.4010 H   0  0  0  0  0  0  0  0  0  0  0  0
  -25.4980  -15.2810   20.2550 N   0  0  0  0  0  0  0  0  0  0  0  0
  -24.7460  -15.9370   20.4370 H   0  0  0  0  0  0  0  0  0  0  0  0
  -26.3130  -15.7190   19.8480 H   0  0  0  0  0  0  0  0  0  0  0  0
  1  2  1  0
  1  5  1  0
  2  4  1  0
  3  1  2  0
  6  5  1  0
  7 18  2  0
  8  6  1  0
  8 13  1  0
  9 17  1  0
  9 19  1  0
 10 16  1  0
 10 12  1  0
 11 17  1  0
 12 13  2  0
 12 11  1  0
 14  8  2  0
 15 14  1  0
 15 10  2  0
 16  9  1  0
 17  7  1  0
 19 21  2  0
 20 19  1  0
 22 20  1  0
 23 32  2  0
 23 28  1  0
 24 20  1  0
 24 28  1  0
 25 24  1  0
 26 27  1  0
 26 25  1  0
 27 23  1  0
 28 29  2  0
 29 30  1  0
 31 30  2  0
 32 31  1  0
 33  7  1  0
 33 38  1  0
 33 34  1  0
 34 37  1  1
 34 35  1  0
 36 34  1  0
 38 41  1  0
 39 43  1  0
 39 38  1  0
 40 39  2  0
 43 42  1  0
 45 43  1  0
 45 46  1  0
 45 44  1  0
 47 50  1  0
 47  2  1  0
 50 49  1  6
 50 48  1  0
 51 59  1  0
 52 57  1  0
 53 54  1  0
 53 52  1  0
 55 54  1  0
 55 64  1  0
 55 56  1  0
 57 51  1  0
 57 56  1  0
 58 51  2  0
 59 60  1  0
 59 50  1  0
 61 62  2  0
 62 81  1  0
 63 62  1  0
 63 66  1  0
 64 65  1  0
 64 61  1  0
 65 63  2  0
 66 67  1  0
 67 68  2  0
 69 72  1  0
 69 68  1  0
 70 69  2  0
 71 70  1  0
 71 66  2  0
 72 73  1  0
 73 74  1  0
 74 75  2  0
 76 75  1  0
 76 80  1  0
 77 76  2  0
 78 73  2  0
 78 77  1  0
 79 78  1  0
 81 82  1  0
 82 85  1  0
 82 84  1  0
 83 81  2  0
 86 61  1  0
 86 87  1  0
 88 86  1  0
M  ISO  4   5 101   6 101  51 100  59 100
M  END
>  <TORSDO>  (83) 
F 19

>  <SCORE>  (83) 
-16.129

>  <name>  (83) 
82

>  <ligand_id>  (83) 
82

>  <original_smiles>  (83) 
[H]c1c([H])c([H])c2c(c1[H])C([H])([H])C([H])([H])C([H])([H])C2([H])N([H])C(=O)C1([H])N(C(=O)C([H])(N([H])C(=O)C([H])(N([H])C([H])([H])[H])C([H])([H])[H])C(C([H])([H])[H])(C([H])([H])[H])C([H])([H])[H])C([H])([H])c2c([H])c(OC([H])([H])C(=O)N([H])C([H])([H])C(N([H])C(=O)N3C([H])([H])C([H])([H])C([H])([H])C([H])(n4nc(-c5c([H])c([H])c(Oc6c([H])c([H])c(F)c([H])c6F)c([H])c5[H])c(C(=O)N([H])[H])c4N([H])[H])C3([H])[H])(C([H])([H])[H])C([H])([H])[H])c([H])c([H])c2C1([H])[H]

>  <smiles>  (83) 
[H]c1c([H])c([H])c2c(c1[H])C([H])([H])C([H])([H])C([H])([H])C2([H])N([H])C(=O)C1([H])N(C(=O)C([H])(N([H])C(=O)C([H])(N([H])C([H])([H])[H])C([H])([H])[H])C(C([H])([H])[H])(C([H])([H])[H])C([H])([H])[H])C([H])([H])c2c([H])c(OC([H])([H])C(=O)N([H])C([H])([H])C(N([H])C(=O)N3C([H])([H])C([H])([H])C([H])([H])C([H])(n4nc(-c5c([H])c([H])c(Oc6c([H])c([H])c(F)c([H])c6F)c([H])c5[H])c(C(=O)N([H])[H])c4N([H])[H])C3([H])[H])(C([H])([H])[H])C([H])([H])[H])c([H])c([H])c2C1([H])[H]

$$$$
83:0:0
     RDKit          3D

 99107  0  0  1  0  0  0  0  0999 V2000
  -30.1200  -20.9680   21.2030 C   0  0  0  0  0  0  0  0  0  0  0  0
  -29.9020  -21.9800   20.3330 N   0  0  0  0  0  0  0  0  0  0  0  0
  -30.2530  -21.2710   22.5010 N   0  0  0  0  0  4  0  0  0  0  0  0
  -29.7460  -21.7520   19.3600 H   0  0  0  0  0  0  0  0  0  0  0  0
  -30.4620  -20.5350   23.1590 H   0  0  0  0  0  0  0  0  0  0  0  0
  -30.2450  -22.2160   22.8390 H   0  0  0  0  0  0  0  0  0  0  0  0
  -29.2210  -18.6570   21.3380 C   0  0  0  0  0  3  0  0  0  0  0  0
  -31.3740  -17.5860   19.8790 C   0  0  0  0  0  3  0  0  0  0  0  0
  -30.2050  -19.5370   20.8330 C   0  0  0  0  0  0  0  0  0  0  0  0
  -30.3980  -16.7120   20.4210 C   0  0  0  0  0  0  0  0  0  0  0  0
  -29.3180  -17.2680   21.1350 C   0  0  0  0  0  0  0  0  0  0  0  0
  -31.2760  -18.9890   20.0820 C   0  0  0  0  0  0  0  0  0  0  0  0
  -28.3650  -16.4490   21.6430 F   0  0  0  0  0  0  0  0  0  0  0  0
  -32.2390  -19.7980   19.5780 F   0  0  0  0  0  0  0  0  0  0  0  0
  -30.9000  -14.4440   19.4050 C   0  0  0  0  0  0  0  0  0  0  0  0
  -30.4480  -12.3300   18.1980 C   0  0  0  0  0  2  0  0  0  0  0  0
  -29.3320  -12.5620   17.1560 C   0  0  0  0  0  2  0  0  0  0  0  0
  -27.9340  -12.4170   17.7930 C   0  0  0  0  0  2  0  0  0  0  0  0
  -27.7950  -13.2180   19.1140 C   0  0  0  0  0  3  0  0  0  0  0  0
  -28.9920  -12.9220   20.0450 C   0  0  0  0  0  2  0  0  0  0  0  0
  -30.2330  -13.2600   19.3170 N   0  0  0  0  0  0  0  0  0  0  0  0
  -31.8790  -14.7210   18.7030 O   0  0  0  0  0  0  0  0  0  0  0  0
  -30.3790  -15.2870   20.3110 N   0  0  0  0  0  0  0  0  0  0  0  0
  -29.6870  -14.8600   20.9080 H   0  0  0  0  0  0  0  0  0  0  0  0
  -25.5250  -13.8350   20.1650 C   0  0  0  0  0  0  0  0  0  0  0  0
  -24.5140  -13.0650   20.6720 C   0  0  0  0  0  0  0  0  0  0  0  0
  -24.9510  -11.7110   20.5540 C   0  0  0  0  0  0  0  0  0  0  0  0
  -26.5180  -12.9500   19.7740 N   0  0  0  0  0  0  0  0  0  0  0  0
  -26.1830  -11.6660   20.0600 N   0  0  0  0  0  0  0  0  0  0  0  0
  -24.2490  -10.4510   20.8270 C   0  0  0  0  0  0  0  0  0  0  0  0
  -24.6940   -9.5600   21.8290 C   0  0  0  0  0  3  0  0  0  0  0  0
  -23.9920   -8.3630   22.0830 C   0  0  0  0  0  3  0  0  0  0  0  0
  -22.8310   -8.0480   21.3370 C   0  0  0  0  0  0  0  0  0  0  0  0
  -22.4060   -8.9260   20.3250 C   0  0  0  0  0  3  0  0  0  0  0  0
  -23.1100  -10.1150   20.0690 C   0  0  0  0  0  3  0  0  0  0  0  0
  -22.1000   -6.8960   21.4980 O   0  0  0  0  0  0  0  0  0  0  0  0
  -21.8590   -6.3630   22.7400 C   0  0  0  0  0  0  0  0  0  0  0  0
  -21.2030   -7.1000   23.7510 C   0  0  0  0  0  3  0  0  0  0  0  0
  -20.9130   -6.4920   24.9890 C   0  0  0  0  0  3  0  0  0  0  0  0
  -21.2680   -5.1480   25.2150 C   0  0  0  0  0  0  0  0  0  0  0  0
  -21.9170   -4.4120   24.2080 C   0  0  0  0  0  3  0  0  0  0  0  0
  -22.2090   -5.0180   22.9720 C   0  0  0  0  0  0  0  0  0  0  0  0
  -22.8140   -4.2980   21.9980 F   0  0  0  0  0  0  0  0  0  0  0  0
  -20.9840   -4.5620   26.4010 F   0  0  0  0  0  0  0  0  0  0  0  0
  -23.1750  -13.5470   21.1550 C   0  0  0  0  0  0  0  0  0  0  0  0
  -22.5910  -12.8620   22.1300 N   0  0  0  0  0  0  0  0  0  0  0  0
  -22.6600  -14.5670   20.6980 O   0  0  0  0  0  0  0  0  0  0  0  0
  -23.0220  -12.0360   22.5190 H   0  0  0  0  0  0  0  0  0  0  0  0
  -21.6980  -13.1660   22.4940 H   0  0  0  0  0  0  0  0  0  0  0  0
  -25.6760  -15.2070   19.9870 N   0  0  0  0  0  0  0  0  0  0  0  0
  -24.9440  -15.8690   20.2210 H   0  0  0  0  0  0  0  0  0  0  0  0
  -26.4790  -15.6440   19.5510 H   0  0  0  0  0  0  0  0  0  0  0  0
  -29.9050  -23.4410   20.6510 C   0  0  0  0  0  3  0  0  0  0  0  0
  -31.3180  -24.0200   20.4610 C   0  0  0  0  0  3  0  0  0  0  0  0
  -32.3530  -23.3870   20.6930 O   0  0  0  0  0  0  0  0  0  0  0  0
  -28.8600  -24.2450   19.8410 C   0  0  0  0  0  0  0  0  0  0  0  0
  -28.3610  -23.8180   18.7930 O   0  0  0  0  0  0  0  0  0  0  0  0
  -28.4350  -25.6130   20.4260 C   0  0  0  0  0  2  0  0  0  0  0  0
  -28.2710  -26.6200   19.4160 O   0  0  0  0  0  0  0  0  0  0  0  0
  -24.7120  -31.6100   23.0840 C   0  0  0  0  0  0  0  0  0  0  0  0
  -27.1290  -27.3720   19.5660 C   0  0  0  0  0  0  0  0  0  0  0  0
  -23.3970  -30.3240   21.4280 C   0  0  0  0  0  3  0  0  0  0  0  0
  -24.7510  -28.8750   19.8220 C   0  0  0  0  0  0  0  0  0  0  0  0
  -25.9080  -30.6860   21.1000 C   0  0  0  0  0  2  0  0  0  0  0  0
  -25.9450  -29.3580   20.3720 C   0  0  0  0  0  0  0  0  0  0  0  0
  -27.1400  -28.6120   20.2420 C   0  0  0  0  0  3  0  0  0  0  0  0
  -25.9210  -26.8990   19.0150 C   0  0  0  0  0  3  0  0  0  0  0  0
  -24.7320  -27.6430   19.1410 C   0  0  0  0  0  3  0  0  0  0  0  0
  -23.5180  -29.7330   19.9980 C   0  0  0  0  0  2  0  0  0  0  0  0
  -24.6940  -30.8850   21.9300 N   0  0  0  0  0  0  0  0  0  0  0  0
  -23.6690  -31.8520   23.7040 O   0  0  0  0  0  0  0  0  0  0  0  0
  -22.7960  -29.2470   22.3600 C   0  0  0  0  0  0  0  0  0  0  0  0
  -21.4750  -29.0310   22.2500 N   0  0  0  0  0  0  0  0  0  0  0  0
  -23.5140  -28.6080   23.1340 O   0  0  0  0  0  0  0  0  0  0  0  0
  -20.9550  -29.6000   21.5970 H   0  0  0  0  0  0  0  0  0  0  0  0
  -18.1630  -27.6550   22.6920 C   0  0  0  0  0  0  0  0  0  0  0  0
  -20.7010  -28.0390   22.9960 C   0  0  0  0  0  3  0  0  0  0  0  0
  -20.8840  -26.6260   22.3950 C   0  0  0  0  0  2  0  0  0  0  0  0
  -19.8100  -26.2650   21.3640 C   0  0  0  0  0  2  0  0  0  0  0  0
  -18.4160  -26.3270   21.9950 C   0  0  0  0  0  2  0  0  0  0  0  0
  -19.2360  -28.4650   23.1470 C   0  0  0  0  0  0  0  0  0  0  0  0
  -18.9480  -29.7060   23.7560 C   0  0  0  0  0  3  0  0  0  0  0  0
  -17.6170  -30.1380   23.9150 C   0  0  0  0  0  3  0  0  0  0  0  0
  -16.5580  -29.3240   23.4770 C   0  0  0  0  0  3  0  0  0  0  0  0
  -16.8310  -28.0850   22.8720 C   0  0  0  0  0  3  0  0  0  0  0  0
  -26.0410  -32.1910   23.6640 C   0  0  0  0  0  3  0  0  0  0  0  0
  -25.7710  -33.5690   24.0920 N   0  0  0  0  0  0  0  0  0  0  0  0
  -26.0860  -34.6620   23.3840 C   0  0  0  0  0  0  0  0  0  0  0  0
  -26.7070  -34.6120   22.3190 O   0  0  0  0  0  0  0  0  0  0  0  0
  -25.2160  -33.6830   24.9280 H   0  0  0  0  0  0  0  0  0  0  0  0
  -24.3690  -36.4900   23.2210 C   0  0  0  0  0  1  0  0  0  0  0  0
  -25.6420  -36.0250   23.9450 C   0  0  0  0  0  3  0  0  0  0  0  0
  -27.8230  -36.8380   24.7270 C   0  0  0  0  0  1  0  0  0  0  0  0
  -26.6830  -37.0710   23.8440 N   0  0  0  0  0  0  0  0  0  0  0  0
  -26.2960  -37.9870   24.0600 H   0  0  0  0  0  0  0  0  0  0  0  0
  -26.6250  -31.3390   24.8560 C   0  0  1  0  0  0  0  0  0  0  0  0
  -25.5900  -31.0320   25.9630 C   0  0  0  0  0  1  0  0  0  0  0  0
  -27.1810  -29.9910   24.3410 C   0  0  0  0  0  1  0  0  0  0  0  0
  -27.8120  -32.0890   25.5030 C   0  0  0  0  0  1  0  0  0  0  0  0
  1  3  2  0
  2 53  1  0
  2  1  1  0
  3  6  1  0
  3  5  1  0
  4  2  1  0
  8 12  2  0
  8 10  1  0
  9  1  1  0
  9  7  2  0
 10 11  2  0
 11  7  1  0
 11 13  1  0
 12  9  1  0
 14 12  1  0
 15 23  1  0
 16 21  1  0
 17 18  1  0
 17 16  1  0
 19 18  1  0
 19 28  1  0
 19 20  1  0
 21 15  1  0
 21 20  1  0
 22 15  2  0
 23 10  1  0
 23 24  1  0
 25 26  2  0
 26 45  1  0
 27 26  1  0
 27 30  1  0
 28 29  1  0
 28 25  1  0
 29 27  2  0
 30 31  1  0
 31 32  2  0
 33 36  1  0
 33 32  1  0
 34 33  2  0
 35 34  1  0
 35 30  2  0
 36 37  1  0
 37 42  2  0
 37 38  1  0
 38 39  2  0
 39 40  1  0
 40 44  1  0
 41 40  2  0
 42 41  1  0
 43 42  1  0
 45 46  1  0
 46 49  1  0
 46 48  1  0
 47 45  2  0
 50 25  1  0
 50 51  1  0
 52 50  1  0
 53 54  1  0
 54 55  2  0
 56 58  1  0
 56 53  1  0
 57 56  2  0
 59 61  1  0
 59 58  1  0
 60 71  2  0
 61 66  1  0
 62 70  1  0
 62 72  1  0
 63 69  1  0
 63 65  1  0
 64 70  1  0
 65 64  1  0
 66 65  2  0
 67 68  1  0
 67 61  2  0
 68 63  2  0
 69 62  1  0
 70 60  1  0
 72 74  2  0
 73 72  1  0
 75 73  1  0
 76 85  2  0
 76 81  1  0
 77 73  1  0
 77 81  1  0
 78 77  1  0
 79 80  1  0
 79 78  1  0
 80 76  1  0
 81 82  2  0
 82 83  1  0
 84 83  2  0
 85 84  1  0
 86 60  1  0
 86 87  1  0
 86 96  1  0
 87 90  1  0
 88 92  1  0
 88 87  1  0
 89 88  2  0
 92 91  1  0
 94 92  1  0
 94 95  1  0
 94 93  1  0
 96 99  1  1
 96 97  1  0
 98 96  1  0
M  ISO  4  15 100  23 100  58 101  59 101
M  END
>  <TORSDO>  (84) 
F 21

>  <SCORE>  (84) 
-10.397

>  <name>  (84) 
83

>  <ligand_id>  (84) 
83

>  <original_smiles>  (84) 
[H]C(=O)C([H])(C(=O)C([H])([H])Oc1c([H])c([H])c2c(c1[H])C([H])([H])N(C(=O)C([H])(N([H])C(=O)C([H])(N([H])C([H])([H])[H])C([H])([H])[H])C(C([H])([H])[H])(C([H])([H])[H])C([H])([H])[H])C([H])(C(=O)N([H])C1([H])c3c([H])c([H])c([H])c([H])c3C([H])([H])C([H])([H])C1([H])[H])C2([H])[H])N([H])C(c1c([H])c(F)c(N([H])C(=O)N2C([H])([H])C([H])([H])C([H])([H])C([H])(n3nc(-c4c([H])c([H])c(Oc5c([H])c([H])c(F)c([H])c5F)c([H])c4[H])c(C(=O)N([H])[H])c3N([H])[H])C2([H])[H])c([H])c1F)=[N+]([H])[H]

>  <smiles>  (84) 
[H]C(=O)C([H])(C(=O)C([H])([H])Oc1c([H])c([H])c2c(c1[H])C([H])([H])N(C(=O)C([H])(N([H])C(=O)C([H])(N([H])C([H])([H])[H])C([H])([H])[H])C(C([H])([H])[H])(C([H])([H])[H])C([H])([H])[H])C([H])(C(=O)N([H])C1([H])c3c([H])c([H])c([H])c([H])c3C([H])([H])C([H])([H])C1([H])[H])C2([H])[H])N([H])C(c1c([H])c(F)c(N([H])C(=O)N2C([H])([H])C([H])([H])C([H])([H])C([H])(n3nc(-c4c([H])c([H])c(Oc5c([H])c([H])c(F)c([H])c5F)c([H])c4[H])c(C(=O)N([H])[H])c3N([H])[H])C2([H])[H])c([H])c1F)=[N+]([H])[H]

$$$$
84:0:0
     RDKit          3D

 94103  0  0  1  0  0  0  0  0999 V2000
  -28.8540  -22.6810   20.9750 C   0  0  0  0  0  0  0  0  0  0  0  0
  -29.5450  -22.6530   19.0240 C   0  0  0  0  0  2  0  0  0  0  0  0
  -29.3320  -23.8650   20.0240 C   0  0  2  0  0  0  0  0  0  0  0  0
  -30.5940  -24.5220   20.5940 C   0  0  0  0  0  1  0  0  0  0  0  0
  -29.5060  -21.7330   20.1670 N   0  0  0  0  0  0  0  0  0  0  0  0
  -28.1670  -22.5520   21.9660 O   0  0  0  0  0  0  0  0  0  0  0  0
  -30.2210  -19.5160   18.9940 C   0  0  0  0  0  3  0  0  0  0  0  0
  -29.2880  -19.3900   21.1550 C   0  0  0  0  0  3  0  0  0  0  0  0
  -29.6610  -20.2570   20.0860 C   0  0  0  0  0  0  0  0  0  0  0  0
  -30.0130  -17.2620   20.0610 C   0  0  0  0  0  0  0  0  0  0  0  0
  -30.3970  -18.0870   18.9650 C   0  0  0  0  0  0  0  0  0  0  0  0
  -29.4410  -17.9700   21.1480 C   0  0  0  0  0  0  0  0  0  0  0  0
  -30.9020  -17.5180   17.8440 F   0  0  0  0  0  0  0  0  0  0  0  0
  -29.0120  -17.2620   22.2220 F   0  0  0  0  0  0  0  0  0  0  0  0
  -30.7650  -14.7840   19.5380 C   0  0  0  0  0  0  0  0  0  0  0  0
  -30.4670  -12.5550   18.4520 C   0  0  0  0  0  2  0  0  0  0  0  0
  -29.3540  -12.6820   17.3860 C   0  0  0  0  0  2  0  0  0  0  0  0
  -27.9620  -12.4760   18.0160 C   0  0  0  0  0  2  0  0  0  0  0  0
  -27.7690  -13.2990   19.3170 C   0  0  0  0  0  3  0  0  0  0  0  0
  -28.9790  -13.1360   20.2650 C   0  0  0  0  0  2  0  0  0  0  0  0
  -30.1840  -13.5380   19.5210 N   0  0  0  0  0  0  0  0  0  0  0  0
  -31.8430  -14.9830   18.9710 O   0  0  0  0  0  0  0  0  0  0  0  0
  -30.0330  -15.7860   20.1300 N   0  0  0  0  0  0  0  0  0  0  0  0
  -29.3000  -15.4220   20.7190 H   0  0  0  0  0  0  0  0  0  0  0  0
  -25.5290  -13.8430   20.4500 C   0  0  0  0  0  0  0  0  0  0  0  0
  -24.5170  -13.0470   20.9130 C   0  0  0  0  0  0  0  0  0  0  0  0
  -24.9420  -11.7010   20.6910 C   0  0  0  0  0  0  0  0  0  0  0  0
  -26.5060  -12.9810   19.9790 N   0  0  0  0  0  0  0  0  0  0  0  0
  -26.1670  -11.6820   20.1820 N   0  0  0  0  0  0  0  0  0  0  0  0
  -24.2280  -10.4310   20.8800 C   0  0  0  0  0  0  0  0  0  0  0  0
  -24.6800   -9.4600   21.8010 C   0  0  0  0  0  3  0  0  0  0  0  0
  -23.9660   -8.2550   21.9790 C   0  0  0  0  0  3  0  0  0  0  0  0
  -22.7860   -8.0130   21.2360 C   0  0  0  0  0  0  0  0  0  0  0  0
  -22.3530   -8.9730   20.3050 C   0  0  0  0  0  3  0  0  0  0  0  0
  -23.0680  -10.1690   20.1250 C   0  0  0  0  0  3  0  0  0  0  0  0
  -22.0420   -6.8610   21.3250 O   0  0  0  0  0  0  0  0  0  0  0  0
  -21.8540   -6.2160   22.5200 C   0  0  0  0  0  0  0  0  0  0  0  0
  -21.2570   -6.8570   23.6280 C   0  0  0  0  0  3  0  0  0  0  0  0
  -21.0200   -6.1350   24.8150 C   0  0  0  0  0  3  0  0  0  0  0  0
  -21.3680   -4.7730   24.8950 C   0  0  0  0  0  0  0  0  0  0  0  0
  -21.9580   -4.1330   23.7910 C   0  0  0  0  0  3  0  0  0  0  0  0
  -22.1970   -4.8510   22.6060 C   0  0  0  0  0  0  0  0  0  0  0  0
  -22.7460   -4.2230   21.5380 F   0  0  0  0  0  0  0  0  0  0  0  0
  -21.1340   -4.0780   26.0320 F   0  0  0  0  0  0  0  0  0  0  0  0
  -23.1880  -13.5060   21.4400 C   0  0  0  0  0  0  0  0  0  0  0  0
  -22.6050  -12.7560   22.3690 N   0  0  0  0  0  0  0  0  0  0  0  0
  -22.6820  -14.5630   21.0660 O   0  0  0  0  0  0  0  0  0  0  0  0
  -23.0310  -11.9000   22.6920 H   0  0  0  0  0  0  0  0  0  0  0  0
  -21.7210  -13.0430   22.7640 H   0  0  0  0  0  0  0  0  0  0  0  0
  -25.6910  -15.2230   20.3690 N   0  0  0  0  0  0  0  0  0  0  0  0
  -24.9630  -15.8690   20.6560 H   0  0  0  0  0  0  0  0  0  0  0  0
  -26.4830  -15.6860   19.9420 H   0  0  0  0  0  0  0  0  0  0  0  0
  -28.2420  -25.0170   19.7360 C   0  0  0  0  0  2  0  0  0  0  0  0
  -28.4460  -26.4570   20.1100 O   0  0  0  0  0  0  0  0  0  0  0  0
  -24.7070  -31.7580   23.3430 C   0  0  0  0  0  0  0  0  0  0  0  0
  -27.3410  -27.3400   20.0750 C   0  0  0  0  0  0  0  0  0  0  0  0
  -23.5210  -30.4570   21.6140 C   0  0  0  0  0  3  0  0  0  0  0  0
  -24.9860  -28.9830   20.1200 C   0  0  0  0  0  0  0  0  0  0  0  0
  -26.0670  -30.7660   21.4840 C   0  0  0  0  0  2  0  0  0  0  0  0
  -26.1500  -29.4250   20.7620 C   0  0  0  0  0  0  0  0  0  0  0  0
  -27.3300  -28.6150   20.7290 C   0  0  0  0  0  3  0  0  0  0  0  0
  -26.1530  -26.9680   19.4030 C   0  0  0  0  0  3  0  0  0  0  0  0
  -24.9920  -27.7610   19.4320 C   0  0  0  0  0  3  0  0  0  0  0  0
  -23.7520  -29.8600   20.2010 C   0  0  0  0  0  2  0  0  0  0  0  0
  -24.7830  -31.0080   22.2040 N   0  0  0  0  0  0  0  0  0  0  0  0
  -23.6160  -32.0100   23.8770 O   0  0  0  0  0  0  0  0  0  0  0  0
  -22.8400  -29.3920   22.5070 C   0  0  0  0  0  0  0  0  0  0  0  0
  -21.5220  -29.2020   22.3260 N   0  0  0  0  0  0  0  0  0  0  0  0
  -23.4990  -28.7420   23.3230 O   0  0  0  0  0  0  0  0  0  0  0  0
  -21.0500  -29.7800   21.6450 H   0  0  0  0  0  0  0  0  0  0  0  0
  -18.1530  -27.9210   22.6400 C   0  0  0  0  0  0  0  0  0  0  0  0
  -20.6910  -28.2230   23.0290 C   0  0  0  0  0  3  0  0  0  0  0  0
  -20.8490  -26.8140   22.4120 C   0  0  0  0  0  2  0  0  0  0  0  0
  -19.7980  -26.5030   21.3400 C   0  0  0  0  0  2  0  0  0  0  0  0
  -18.3880  -26.5990   21.9280 C   0  0  0  0  0  2  0  0  0  0  0  0
  -19.2350  -28.6900   23.1420 C   0  0  0  0  0  0  0  0  0  0  0  0
  -18.9630  -29.9280   23.7660 C   0  0  0  0  0  3  0  0  0  0  0  0
  -17.6410  -30.3960   23.8910 C   0  0  0  0  0  3  0  0  0  0  0  0
  -16.5740  -29.6230   23.4040 C   0  0  0  0  0  3  0  0  0  0  0  0
  -16.8300  -28.3870   22.7840 C   0  0  0  0  0  3  0  0  0  0  0  0
  -25.9820  -32.3500   24.0160 C   0  0  0  0  0  3  0  0  0  0  0  0
  -25.6830  -33.7400   24.3890 N   0  0  0  0  0  0  0  0  0  0  0  0
  -26.0170  -34.8130   23.6590 C   0  0  0  0  0  0  0  0  0  0  0  0
  -26.6800  -34.7360   22.6190 O   0  0  0  0  0  0  0  0  0  0  0  0
  -25.0950  -33.8760   25.1970 H   0  0  0  0  0  0  0  0  0  0  0  0
  -24.2850  -36.6170   23.3880 C   0  0  0  0  0  1  0  0  0  0  0  0
  -25.5440  -36.1910   24.1600 C   0  0  0  0  0  3  0  0  0  0  0  0
  -27.6930  -37.0620   24.9690 C   0  0  0  0  0  1  0  0  0  0  0  0
  -26.5750  -37.2460   24.0470 N   0  0  0  0  0  0  0  0  0  0  0  0
  -26.1730  -38.1640   24.2160 H   0  0  0  0  0  0  0  0  0  0  0  0
  -26.4560  -31.5290   25.2790 C   0  0  1  0  0  0  0  0  0  0  0  0
  -25.3330  -31.2650   26.3070 C   0  0  0  0  0  1  0  0  0  0  0  0
  -27.0370  -30.1600   24.8550 C   0  0  0  0  0  1  0  0  0  0  0  0
  -27.5950  -32.2870   25.9990 C   0  0  0  0  0  1  0  0  0  0  0  0
  1  6  2  0
  2  3  1  0
  2  5  1  0
  3  4  1  1
  3  1  1  0
  5  1  1  0
  7  9  1  0
  9  5  1  0
  9  8  2  0
 10 23  1  0
 10 12  2  0
 11  7  2  0
 11 10  1  0
 12  8  1  0
 12 14  1  0
 13 11  1  0
 15 23  1  0
 16 21  1  0
 17 18  1  0
 17 16  1  0
 19 18  1  0
 19 28  1  0
 19 20  1  0
 21 15  1  0
 21 20  1  0
 22 15  2  0
 23 24  1  0
 25 26  2  0
 26 45  1  0
 27 30  1  0
 27 26  1  0
 28 29  1  0
 28 25  1  0
 29 27  2  0
 30 31  1  0
 31 32  2  0
 33 36  1  0
 33 32  1  0
 34 33  2  0
 35 34  1  0
 35 30  2  0
 36 37  1  0
 37 42  2  0
 37 38  1  0
 38 39  2  0
 39 40  1  0
 40 44  1  0
 41 40  2  0
 42 41  1  0
 43 42  1  0
 45 46  1  0
 46 48  1  0
 46 49  1  0
 47 45  2  0
 50 25  1  0
 50 51  1  0
 52 50  1  0
 53  3  1  0
 53 54  1  0
 55 66  2  0
 56 54  1  0
 56 61  1  0
 57 65  1  0
 57 67  1  0
 58 64  1  0
 58 60  1  0
 59 65  1  0
 60 59  1  0
 61 60  2  0
 62 63  1  0
 62 56  2  0
 63 58  2  0
 64 57  1  0
 65 55  1  0
 67 69  2  0
 68 67  1  0
 70 68  1  0
 71 80  2  0
 71 76  1  0
 72 68  1  0
 72 76  1  0
 73 72  1  0
 74 75  1  0
 74 73  1  0
 75 71  1  0
 76 77  2  0
 77 78  1  0
 79 78  2  0
 80 79  1  0
 81 55  1  0
 81 82  1  0
 81 91  1  0
 82 85  1  0
 83 87  1  0
 83 82  1  0
 84 83  2  0
 87 86  1  0
 89 87  1  0
 89 90  1  0
 89 88  1  0
 91 94  1  1
 91 92  1  0
 93 91  1  0
M  ISO  4  15 100  23 100  53 101  54 101
M  END
>  <TORSDO>  (85) 
F 18

>  <SCORE>  (85) 
-12.496

>  <name>  (85) 
84

>  <ligand_id>  (85) 
84

>  <original_smiles>  (85) 
[H]c1c([H])c([H])c2c(c1[H])C([H])([H])C([H])([H])C([H])([H])C2([H])N([H])C(=O)C1([H])N(C(=O)C([H])(N([H])C(=O)C([H])(N([H])C([H])([H])[H])C([H])([H])[H])C(C([H])([H])[H])(C([H])([H])[H])C([H])([H])[H])C([H])([H])c2c([H])c(OC([H])([H])C3(C([H])([H])[H])C(=O)N(c4c([H])c(F)c(N([H])C(=O)N5C([H])([H])C([H])([H])C([H])([H])C([H])(n6nc(-c7c([H])c([H])c(Oc8c([H])c([H])c(F)c([H])c8F)c([H])c7[H])c(C(=O)N([H])[H])c6N([H])[H])C5([H])[H])c(F)c4[H])C3([H])[H])c([H])c([H])c2C1([H])[H]

>  <smiles>  (85) 
[H]c1c([H])c([H])c2c(c1[H])C([H])([H])C([H])([H])C([H])([H])C2([H])N([H])C(=O)C1([H])N(C(=O)C([H])(N([H])C(=O)C([H])(N([H])C([H])([H])[H])C([H])([H])[H])C(C([H])([H])[H])(C([H])([H])[H])C([H])([H])[H])C([H])([H])c2c([H])c(OC([H])([H])C3(C([H])([H])[H])C(=O)N(c4c([H])c(F)c(N([H])C(=O)N5C([H])([H])C([H])([H])C([H])([H])C([H])(n6nc(-c7c([H])c([H])c(Oc8c([H])c([H])c(F)c([H])c8F)c([H])c7[H])c(C(=O)N([H])[H])c6N([H])[H])C5([H])[H])c(F)c4[H])C3([H])[H])c([H])c([H])c2C1([H])[H]

$$$$
85:0:0
     RDKit          3D

 99108  0  0  1  0  0  0  0  0999 V2000
  -31.3090  -20.1830   19.6700 C   0  0  0  0  0  3  0  0  0  0  0  0
  -31.6100  -17.7550   19.6670 C   0  0  0  0  0  3  0  0  0  0  0  0
  -29.5640  -18.7610   20.5010 C   0  0  0  0  0  3  0  0  0  0  0  0
  -32.0870  -19.0460   19.3940 C   0  0  0  0  0  0  0  0  0  0  0  0
  -30.0060  -20.1500   20.2280 C   0  0  0  0  0  0  0  0  0  0  0  0
  -30.3400  -17.5260   20.2460 C   0  0  0  0  0  0  0  0  0  0  0  0
  -30.6110  -14.8700   20.3560 C   0  0  0  0  0  0  0  0  0  0  0  0
  -30.3600  -12.5730   19.3850 C   0  0  0  0  0  2  0  0  0  0  0  0
  -29.4350  -12.6140   18.1500 C   0  0  0  0  0  2  0  0  0  0  0  0
  -27.9650  -12.4500   18.5790 C   0  0  0  0  0  2  0  0  0  0  0  0
  -27.5860  -13.3610   19.7780 C   0  0  0  0  0  3  0  0  0  0  0  0
  -28.6420  -13.3230   20.9030 C   0  0  0  0  0  2  0  0  0  0  0  0
  -29.9330  -13.6660   20.2990 N   0  0  0  0  0  0  0  0  0  0  0  0
  -31.8140  -14.8450   20.0920 O   0  0  0  0  0  0  0  0  0  0  0  0
  -29.9190  -16.0900   20.5070 N   0  0  0  0  0  0  0  0  0  0  0  0
  -28.9520  -15.9730   20.7640 H   0  0  0  0  0  0  0  0  0  0  0  0
  -25.2070  -13.9610   20.5100 C   0  0  0  0  0  0  0  0  0  0  0  0
  -24.1350  -13.1950   20.8770 C   0  0  0  0  0  0  0  0  0  0  0  0
  -24.5880  -11.8400   20.8440 C   0  0  0  0  0  0  0  0  0  0  0  0
  -26.2430  -13.0750   20.2720 N   0  0  0  0  0  0  0  0  0  0  0  0
  -25.8790  -11.7940   20.5380 N   0  0  0  0  0  0  0  0  0  0  0  0
  -23.8490  -10.5830   21.0280 C   0  0  0  0  0  0  0  0  0  0  0  0
  -24.2720   -9.6060   21.9560 C   0  0  0  0  0  3  0  0  0  0  0  0
  -23.5330   -8.4160   22.1290 C   0  0  0  0  0  3  0  0  0  0  0  0
  -22.3570   -8.1930   21.3730 C   0  0  0  0  0  0  0  0  0  0  0  0
  -21.9550   -9.1580   20.4330 C   0  0  0  0  0  3  0  0  0  0  0  0
  -22.6940  -10.3400   20.2590 C   0  0  0  0  0  3  0  0  0  0  0  0
  -21.5910   -7.0560   21.4560 O   0  0  0  0  0  0  0  0  0  0  0  0
  -21.5400   -6.3040   22.6030 C   0  0  0  0  0  0  0  0  0  0  0  0
  -21.1230   -6.8520   23.8360 C   0  0  0  0  0  3  0  0  0  0  0  0
  -21.0200   -6.0260   24.9730 C   0  0  0  0  0  3  0  0  0  0  0  0
  -21.3220   -4.6550   24.8790 C   0  0  0  0  0  0  0  0  0  0  0  0
  -21.7320   -4.1080   23.6510 C   0  0  0  0  0  3  0  0  0  0  0  0
  -21.8380   -4.9290   22.5150 C   0  0  0  0  0  0  0  0  0  0  0  0
  -22.2120   -4.3920   21.3300 F   0  0  0  0  0  0  0  0  0  0  0  0
  -21.2160   -3.8600   25.9690 F   0  0  0  0  0  0  0  0  0  0  0  0
  -22.7410  -13.6830   21.1430 C   0  0  0  0  0  0  0  0  0  0  0  0
  -22.0020  -12.9910   22.0030 N   0  0  0  0  0  0  0  0  0  0  0  0
  -22.3160  -14.7140   20.6220 O   0  0  0  0  0  0  0  0  0  0  0  0
  -22.3590  -12.1580   22.4460 H   0  0  0  0  0  0  0  0  0  0  0  0
  -21.0660  -13.3010   22.2220 H   0  0  0  0  0  0  0  0  0  0  0  0
  -25.3820  -15.3310   20.3360 N   0  0  0  0  0  0  0  0  0  0  0  0
  -24.6170  -15.9890   20.4370 H   0  0  0  0  0  0  0  0  0  0  0  0
  -26.2260  -15.7610   19.9780 H   0  0  0  0  0  0  0  0  0  0  0  0
  -33.4170  -19.2130   18.8150 C   0  0  0  0  0  0  0  0  0  0  0  0
  -34.2740  -20.0920   19.3300 N   0  0  0  0  0  0  0  0  0  0  0  0
  -33.7890  -18.4900   17.7620 N   0  0  0  0  0  4  0  0  0  0  0  0
  -34.0260  -20.5810   20.1770 H   0  0  0  0  0  0  0  0  0  0  0  0
  -35.1950  -20.2460   18.9510 H   0  0  0  0  0  0  0  0  0  0  0  0
  -33.1190  -17.8640   17.3370 H   0  0  0  0  0  0  0  0  0  0  0  0
  -34.6950  -18.5790   17.3300 H   0  0  0  0  0  0  0  0  0  0  0  0
  -28.1800  -22.1750   20.7420 C   0  0  0  0  0  0  0  0  0  0  0  0
  -29.9640  -22.7800   19.9030 C   0  0  0  0  0  2  0  0  0  0  0  0
  -28.8980  -23.6280   20.6970 C   0  0  2  0  0  0  0  0  0  0  0  0
  -29.2610  -24.0430   22.1260 C   0  0  0  0  0  1  0  0  0  0  0  0
  -29.3960  -21.5200   20.4480 N   0  0  0  0  0  0  0  0  0  0  0  0
  -27.0620  -21.7380   20.9120 O   0  0  0  0  0  0  0  0  0  0  0  0
  -28.0550  -24.8720   20.0500 C   0  0  0  0  0  2  0  0  0  0  0  0
  -28.3230  -26.3580   20.2900 O   0  0  0  0  0  0  0  0  0  0  0  0
  -24.6410  -31.9010   23.2720 C   0  0  0  0  0  0  0  0  0  0  0  0
  -27.2520  -27.2940   20.2030 C   0  0  0  0  0  0  0  0  0  0  0  0
  -23.4460  -30.5090   21.6250 C   0  0  0  0  0  3  0  0  0  0  0  0
  -24.9030  -28.9700   20.1830 C   0  0  0  0  0  0  0  0  0  0  0  0
  -25.9920  -30.8140   21.4530 C   0  0  0  0  0  2  0  0  0  0  0  0
  -26.0750  -29.4350   20.7930 C   0  0  0  0  0  0  0  0  0  0  0  0
  -27.2520  -28.6100   20.7920 C   0  0  0  0  0  3  0  0  0  0  0  0
  -26.0600  -26.9220   19.5370 C   0  0  0  0  0  3  0  0  0  0  0  0
  -24.9040  -27.7240   19.5400 C   0  0  0  0  0  3  0  0  0  0  0  0
  -23.6670  -29.8470   20.2390 C   0  0  0  0  0  2  0  0  0  0  0  0
  -24.7120  -31.0940   22.1720 N   0  0  0  0  0  0  0  0  0  0  0  0
  -23.5550  -32.1730   23.8050 O   0  0  0  0  0  0  0  0  0  0  0  0
  -22.7840  -29.4830   22.5780 C   0  0  0  0  0  0  0  0  0  0  0  0
  -21.4580  -29.2980   22.4470 N   0  0  0  0  0  0  0  0  0  0  0  0
  -23.4630  -28.8590   23.3980 O   0  0  0  0  0  0  0  0  0  0  0  0
  -20.9690  -29.8530   21.7610 H   0  0  0  0  0  0  0  0  0  0  0  0
  -18.0900  -28.0660   22.9340 C   0  0  0  0  0  0  0  0  0  0  0  0
  -20.6450  -28.3520   23.2140 C   0  0  0  0  0  3  0  0  0  0  0  0
  -20.7620  -26.9220   22.6370 C   0  0  0  0  0  2  0  0  0  0  0  0
  -19.6680  -26.5900   21.6180 C   0  0  0  0  0  2  0  0  0  0  0  0
  -18.2820  -26.7200   22.2560 C   0  0  0  0  0  2  0  0  0  0  0  0
  -19.1990  -28.8390   23.3690 C   0  0  0  0  0  0  0  0  0  0  0  0
  -18.9640  -30.0980   23.9640 C   0  0  0  0  0  3  0  0  0  0  0  0
  -17.6530  -30.5840   24.1280 C   0  0  0  0  0  3  0  0  0  0  0  0
  -16.5590  -29.8090   23.7070 C   0  0  0  0  0  3  0  0  0  0  0  0
  -16.7770  -28.5510   23.1170 C   0  0  0  0  0  3  0  0  0  0  0  0
  -25.9180  -32.5390   23.8990 C   0  0  0  0  0  3  0  0  0  0  0  0
  -26.4240  -31.7770   25.1870 C   0  0  1  0  0  0  0  0  0  0  0  0
  -25.3230  -31.5500   26.2480 C   0  0  0  0  0  1  0  0  0  0  0  0
  -27.0090  -30.3960   24.8140 C   0  0  0  0  0  1  0  0  0  0  0  0
  -27.5710  -32.5760   25.8510 C   0  0  0  0  0  1  0  0  0  0  0  0
  -25.6050  -33.9400   24.2200 N   0  0  0  0  0  0  0  0  0  0  0  0
  -25.9230  -34.9880   23.4480 C   0  0  0  0  0  0  0  0  0  0  0  0
  -26.5810  -34.8780   22.4100 O   0  0  0  0  0  0  0  0  0  0  0  0
  -25.0210  -34.0990   25.0280 H   0  0  0  0  0  0  0  0  0  0  0  0
  -24.1760  -36.7660   23.1130 C   0  0  0  0  0  1  0  0  0  0  0  0
  -25.4370  -36.3780   23.9020 C   0  0  0  0  0  3  0  0  0  0  0  0
  -27.5810  -37.2890   24.6770 C   0  0  0  0  0  1  0  0  0  0  0  0
  -26.4590  -37.4370   23.7540 N   0  0  0  0  0  0  0  0  0  0  0  0
  -26.0480  -38.3570   23.8970 H   0  0  0  0  0  0  0  0  0  0  0  0
  1  5  1  0
  2  6  2  0
  4  2  1  0
  4  1  2  0
  5 56  1  0
  5  3  2  0
  6  3  1  0
  6 15  1  0
  7 15  1  0
  8 13  1  0
  9 10  1  0
  9  8  1  0
 11 10  1  0
 11 20  1  0
 11 12  1  0
 13  7  1  0
 13 12  1  0
 14  7  2  0
 15 16  1  0
 17 18  2  0
 18 37  1  0
 19 18  1  0
 19 22  1  0
 20 17  1  0
 20 21  1  0
 21 19  2  0
 22 23  1  0
 23 24  2  0
 25 28  1  0
 25 24  1  0
 26 25  2  0
 27 26  1  0
 27 22  2  0
 28 29  1  0
 29 30  1  0
 30 31  2  0
 32 31  1  0
 32 36  1  0
 33 32  2  0
 34 29  2  0
 34 33  1  0
 35 34  1  0
 37 38  1  0
 38 41  1  0
 38 40  1  0
 39 37  2  0
 42 43  1  0
 42 17  1  0
 44 42  1  0
 45 46  1  0
 45  4  1  0
 46 48  1  0
 47 45  2  0
 49 46  1  0
 50 47  1  0
 51 47  1  0
 52 57  2  0
 53 56  1  0
 53 54  1  0
 54 52  1  0
 54 55  1  1
 56 52  1  0
 58 59  1  0
 58 54  1  0
 60 71  2  0
 61 59  1  0
 61 66  1  0
 62 70  1  0
 62 72  1  0
 63 69  1  0
 63 65  1  0
 64 70  1  0
 65 64  1  0
 66 65  2  0
 67 68  1  0
 67 61  2  0
 68 63  2  0
 69 62  1  0
 70 60  1  0
 72 74  2  0
 73 72  1  0
 75 73  1  0
 76 85  2  0
 76 81  1  0
 77 73  1  0
 77 81  1  0
 78 77  1  0
 79 80  1  0
 79 78  1  0
 80 76  1  0
 81 82  2  0
 82 83  1  0
 84 83  2  0
 85 84  1  0
 86 60  1  0
 86 91  1  0
 86 87  1  0
 87 90  1  1
 87 88  1  0
 89 87  1  0
 91 94  1  0
 92 96  1  0
 92 91  1  0
 93 92  2  0
 96 95  1  0
 98 99  1  0
 98 96  1  0
 98 97  1  0
M  ISO  4   7 100  15 100  58 101  59 101
M  END
>  <TORSDO>  (86) 
F 19

>  <SCORE>  (86) 
-14.178

>  <name>  (86) 
85

>  <ligand_id>  (86) 
85

>  <original_smiles>  (86) 
[H]c1c([H])c([H])c2c(c1[H])C([H])([H])C([H])([H])C([H])([H])C2([H])N([H])C(=O)C1([H])N(C(=O)C([H])(N([H])C(=O)C([H])(N([H])C([H])([H])[H])C([H])([H])[H])C(C([H])([H])[H])(C([H])([H])[H])C([H])([H])[H])C([H])([H])c2c([H])c(OC([H])([H])C3(C([H])([H])[H])C(=O)N(c4c([H])c(C(N([H])[H])=[N+]([H])[H])c([H])c(N([H])C(=O)N5C([H])([H])C([H])([H])C([H])([H])C([H])(n6nc(-c7c([H])c([H])c(Oc8c([H])c([H])c(F)c([H])c8F)c([H])c7[H])c(C(=O)N([H])[H])c6N([H])[H])C5([H])[H])c4[H])C3([H])[H])c([H])c([H])c2C1([H])[H]

>  <smiles>  (86) 
[H]c1c([H])c([H])c2c(c1[H])C([H])([H])C([H])([H])C([H])([H])C2([H])N([H])C(=O)C1([H])N(C(=O)C([H])(N([H])C(=O)C([H])(N([H])C([H])([H])[H])C([H])([H])[H])C(C([H])([H])[H])(C([H])([H])[H])C([H])([H])[H])C([H])([H])c2c([H])c(OC([H])([H])C3(C([H])([H])[H])C(=O)N(c4c([H])c(C(N([H])[H])=[N+]([H])[H])c([H])c(N([H])C(=O)N5C([H])([H])C([H])([H])C([H])([H])C([H])(n6nc(-c7c([H])c([H])c(Oc8c([H])c([H])c(F)c([H])c8F)c([H])c7[H])c(C(=O)N([H])[H])c6N([H])[H])C5([H])[H])c4[H])C3([H])[H])c([H])c([H])c2C1([H])[H]

$$$$
86:0:0
     RDKit          3D

 93102  0  0  1  0  0  0  0  0999 V2000
  -28.5500  -24.3570   20.8280 C   0  0  0  0  0  0  0  0  0  0  0  0
  -28.5010  -23.2510   21.7500 C   0  0  0  0  0  0  0  0  0  0  0  0
  -28.3460  -25.6810   21.0360 C   0  0  0  0  0  3  0  0  0  0  0  0
  -28.8940  -23.4220   19.6880 C   0  0  0  0  0  2  0  0  0  0  0  0
  -28.5810  -22.3640   20.6730 N   0  0  0  0  0  0  0  0  0  0  0  0
  -28.5300  -23.2020   22.9610 O   0  0  0  0  0  0  0  0  0  0  0  0
  -30.9680  -19.4800   20.0370 C   0  0  0  0  0  3  0  0  0  0  0  0
  -28.7680  -18.5710   20.4290 C   0  0  0  0  0  3  0  0  0  0  0  0
  -30.4740  -20.7860   20.2400 C   0  0  0  0  0  3  0  0  0  0  0  0
  -28.2870  -19.8910   20.6350 C   0  0  0  0  0  3  0  0  0  0  0  0
  -30.1230  -18.3510   20.1040 C   0  0  0  0  0  0  0  0  0  0  0  0
  -29.1110  -21.0430   20.5190 C   0  0  0  0  0  0  0  0  0  0  0  0
  -30.5350  -16.8690   18.1340 C   0  0  0  0  0  1  0  0  0  0  0  0
  -30.6960  -16.9910   19.6620 C   0  0  0  0  0  3  0  0  0  0  0  0
  -30.9290  -14.5900   20.2070 C   0  0  0  0  0  0  0  0  0  0  0  0
  -30.5420  -12.4470   19.0850 C   0  0  0  0  0  2  0  0  0  0  0  0
  -29.5960  -12.6990   17.8950 C   0  0  0  0  0  2  0  0  0  0  0  0
  -28.1270  -12.5770   18.3450 C   0  0  0  0  0  2  0  0  0  0  0  0
  -27.8210  -13.3950   19.6300 C   0  0  0  0  0  3  0  0  0  0  0  0
  -28.8970  -13.1780   20.7190 C   0  0  0  0  0  2  0  0  0  0  0  0
  -30.2090  -13.4410   20.1180 N   0  0  0  0  0  0  0  0  0  0  0  0
  -32.1170  -14.6370   19.8830 O   0  0  0  0  0  0  0  0  0  0  0  0
  -30.2210  -15.7430   20.3100 N   0  0  0  0  0  0  0  0  0  0  0  0
  -29.2460  -15.6750   20.5520 H   0  0  0  0  0  0  0  0  0  0  0  0
  -25.4350  -14.0030   20.3670 C   0  0  0  0  0  0  0  0  0  0  0  0
  -24.3710  -13.2320   20.7540 C   0  0  0  0  0  0  0  0  0  0  0  0
  -24.8330  -11.8810   20.7280 C   0  0  0  0  0  0  0  0  0  0  0  0
  -26.4770  -13.1210   20.1310 N   0  0  0  0  0  0  0  0  0  0  0  0
  -26.1190  -11.8400   20.4090 N   0  0  0  0  0  0  0  0  0  0  0  0
  -24.1070  -10.6200   20.9330 C   0  0  0  0  0  0  0  0  0  0  0  0
  -24.5360   -9.6670   21.8830 C   0  0  0  0  0  3  0  0  0  0  0  0
  -23.8100   -8.4710   22.0740 C   0  0  0  0  0  3  0  0  0  0  0  0
  -22.6420   -8.2200   21.3150 C   0  0  0  0  0  0  0  0  0  0  0  0
  -22.2340   -9.1620   20.3550 C   0  0  0  0  0  3  0  0  0  0  0  0
  -22.9600  -10.3490   20.1620 C   0  0  0  0  0  3  0  0  0  0  0  0
  -21.8890   -7.0750   21.4160 O   0  0  0  0  0  0  0  0  0  0  0  0
  -21.8140   -6.3630   22.5860 C   0  0  0  0  0  0  0  0  0  0  0  0
  -21.3530   -6.9470   23.7860 C   0  0  0  0  0  3  0  0  0  0  0  0
  -21.2260   -6.1600   24.9480 C   0  0  0  0  0  3  0  0  0  0  0  0
  -21.5500   -4.7920   24.9120 C   0  0  0  0  0  0  0  0  0  0  0  0
  -22.0050   -4.2060   23.7170 C   0  0  0  0  0  3  0  0  0  0  0  0
  -22.1330   -4.9900   22.5560 C   0  0  0  0  0  0  0  0  0  0  0  0
  -22.5520   -4.4170   21.4020 F   0  0  0  0  0  0  0  0  0  0  0  0
  -21.4210   -4.0340   26.0260 F   0  0  0  0  0  0  0  0  0  0  0  0
  -22.9770  -13.7120   21.0340 C   0  0  0  0  0  0  0  0  0  0  0  0
  -22.2560  -13.0250   21.9130 N   0  0  0  0  0  0  0  0  0  0  0  0
  -22.5340  -14.7330   20.5070 O   0  0  0  0  0  0  0  0  0  0  0  0
  -22.6280  -12.2000   22.3620 H   0  0  0  0  0  0  0  0  0  0  0  0
  -21.3210  -13.3280   22.1430 H   0  0  0  0  0  0  0  0  0  0  0  0
  -25.5970  -15.3710   20.1740 N   0  0  0  0  0  0  0  0  0  0  0  0
  -24.8260  -16.0220   20.2760 H   0  0  0  0  0  0  0  0  0  0  0  0
  -26.4290  -15.8020   19.7920 H   0  0  0  0  0  0  0  0  0  0  0  0
  -28.3870  -26.6750   20.0790 O   0  0  0  0  0  0  0  0  0  0  0  0
  -24.6050  -31.8770   23.1720 C   0  0  0  0  0  0  0  0  0  0  0  0
  -27.2650  -27.4720   20.0550 C   0  0  0  0  0  0  0  0  0  0  0  0
  -23.4060  -30.4840   21.5170 C   0  0  0  0  0  3  0  0  0  0  0  0
  -24.8690  -28.9710   20.0730 C   0  0  0  0  0  0  0  0  0  0  0  0
  -25.9310  -30.8600   21.3210 C   0  0  0  0  0  2  0  0  0  0  0  0
  -26.0260  -29.4950   20.6670 C   0  0  0  0  0  0  0  0  0  0  0  0
  -27.2310  -28.7530   20.6560 C   0  0  0  0  0  3  0  0  0  0  0  0
  -26.0970  -26.9660   19.4500 C   0  0  0  0  0  3  0  0  0  0  0  0
  -24.9000  -27.7070   19.4590 C   0  0  0  0  0  3  0  0  0  0  0  0
  -23.6180  -29.8200   20.1300 C   0  0  0  0  0  2  0  0  0  0  0  0
  -24.6660  -31.0870   22.0620 N   0  0  0  0  0  0  0  0  0  0  0  0
  -23.5220  -32.1370   23.7160 O   0  0  0  0  0  0  0  0  0  0  0  0
  -22.7620  -29.4480   22.4680 C   0  0  0  0  0  0  0  0  0  0  0  0
  -21.4340  -29.2760   22.3560 N   0  0  0  0  0  0  0  0  0  0  0  0
  -23.4530  -28.8050   23.2630 O   0  0  0  0  0  0  0  0  0  0  0  0
  -20.9380  -29.8480   21.6870 H   0  0  0  0  0  0  0  0  0  0  0  0
  -18.0580  -28.1040   22.8900 C   0  0  0  0  0  0  0  0  0  0  0  0
  -20.6230  -28.3290   23.1210 C   0  0  0  0  0  3  0  0  0  0  0  0
  -20.7000  -26.9110   22.5100 C   0  0  0  0  0  2  0  0  0  0  0  0
  -19.5760  -26.6230   21.5100 C   0  0  0  0  0  2  0  0  0  0  0  0
  -18.2070  -26.7690   22.1820 C   0  0  0  0  0  2  0  0  0  0  0  0
  -19.1930  -28.8440   23.3170 C   0  0  0  0  0  0  0  0  0  0  0  0
  -18.9980  -30.0970   23.9390 C   0  0  0  0  0  3  0  0  0  0  0  0
  -17.7030  -30.6090   24.1380 C   0  0  0  0  0  3  0  0  0  0  0  0
  -16.5830  -29.8650   23.7280 C   0  0  0  0  0  3  0  0  0  0  0  0
  -16.7620  -28.6150   23.1090 C   0  0  0  0  0  3  0  0  0  0  0  0
  -25.8880  -32.5090   23.7970 C   0  0  0  0  0  3  0  0  0  0  0  0
  -25.5730  -33.9020   24.1400 N   0  0  0  0  0  0  0  0  0  0  0  0
  -25.9050  -34.9620   23.3920 C   0  0  0  0  0  0  0  0  0  0  0  0
  -26.5800  -34.8720   22.3630 O   0  0  0  0  0  0  0  0  0  0  0  0
  -24.9740  -34.0450   24.9390 H   0  0  0  0  0  0  0  0  0  0  0  0
  -24.1780  -36.7560   23.0370 C   0  0  0  0  0  1  0  0  0  0  0  0
  -25.4090  -36.3440   23.8600 C   0  0  0  0  0  3  0  0  0  0  0  0
  -27.5310  -37.2220   24.7290 C   0  0  0  0  0  1  0  0  0  0  0  0
  -26.4410  -37.4000   23.7730 N   0  0  0  0  0  0  0  0  0  0  0  0
  -26.0310  -38.3170   23.9260 H   0  0  0  0  0  0  0  0  0  0  0  0
  -26.4140  -31.7260   25.0630 C   0  0  1  0  0  0  0  0  0  0  0  0
  -25.3260  -31.4720   26.1320 C   0  0  0  0  0  1  0  0  0  0  0  0
  -27.0030  -30.3560   24.6520 C   0  0  0  0  0  1  0  0  0  0  0  0
  -27.5630  -32.5200   25.7290 C   0  0  0  0  0  1  0  0  0  0  0  0
  1  3  2  0
  1  2  1  0
  2  6  2  0
  4  5  1  0
  4  1  1  0
  5  2  1  0
  7 11  2  0
  7  9  1  0
  8 10  2  0
  9 12  2  0
 11  8  1  0
 12 10  1  0
 12  5  1  0
 14 13  1  0
 14 11  1  0
 14 23  1  0
 15 23  1  0
 16 21  1  0
 17 18  1  0
 17 16  1  0
 19 18  1  0
 19 28  1  0
 19 20  1  0
 21 15  1  0
 21 20  1  0
 22 15  2  0
 23 24  1  0
 25 26  2  0
 26 45  1  0
 27 26  1  0
 27 30  1  0
 28 25  1  0
 28 29  1  0
 29 27  2  0
 30 31  1  0
 31 32  2  0
 33 36  1  0
 33 32  1  0
 34 33  2  0
 35 34  1  0
 35 30  2  0
 36 37  1  0
 37 38  1  0
 38 39  2  0
 40 39  1  0
 40 44  1  0
 41 40  2  0
 42 37  2  0
 42 41  1  0
 43 42  1  0
 45 46  1  0
 46 49  1  0
 46 48  1  0
 47 45  2  0
 50 51  1  0
 50 25  1  0
 52 50  1  0
 53  3  1  0
 54 65  2  0
 55 53  1  0
 55 60  1  0
 56 64  1  0
 56 66  1  0
 57 63  1  0
 57 59  1  0
 58 64  1  0
 59 58  1  0
 60 59  2  0
 61 62  1  0
 61 55  2  0
 62 57  2  0
 63 56  1  0
 64 54  1  0
 66 68  2  0
 67 66  1  0
 69 67  1  0
 70 79  2  0
 70 75  1  0
 71 67  1  0
 71 75  1  0
 72 71  1  0
 73 74  1  0
 73 72  1  0
 74 70  1  0
 75 76  2  0
 76 77  1  0
 78 77  2  0
 79 78  1  0
 80 54  1  0
 80 81  1  0
 80 90  1  0
 81 84  1  0
 82 86  1  0
 82 81  1  0
 83 82  2  0
 86 85  1  0
 88 86  1  0
 88 89  1  0
 88 87  1  0
 90 93  1  1
 90 91  1  0
 92 90  1  0
M  ISO  4   3 101  15 100  23 100  53 101
M  END
>  <TORSDO>  (87) 
F 18

>  <SCORE>  (87) 
-14.076

>  <name>  (87) 
86

>  <ligand_id>  (87) 
86

>  <original_smiles>  (87) 
[H]C(Oc1c([H])c([H])c2c(c1[H])C([H])([H])N(C(=O)C([H])(N([H])C(=O)C([H])(N([H])C([H])([H])[H])C([H])([H])[H])C(C([H])([H])[H])(C([H])([H])[H])C([H])([H])[H])C([H])(C(=O)N([H])C1([H])c3c([H])c([H])c([H])c([H])c3C([H])([H])C([H])([H])C1([H])[H])C2([H])[H])=C1C(=O)N(c2c([H])c([H])c(C([H])(N([H])C(=O)N3C([H])([H])C([H])([H])C([H])([H])C([H])(n4nc(-c5c([H])c([H])c(Oc6c([H])c([H])c(F)c([H])c6F)c([H])c5[H])c(C(=O)N([H])[H])c4N([H])[H])C3([H])[H])C([H])([H])[H])c([H])c2[H])C1([H])[H]

>  <smiles>  (87) 
[H]C(Oc1c([H])c([H])c2c(c1[H])C([H])([H])N(C(=O)C([H])(N([H])C(=O)C([H])(N([H])C([H])([H])[H])C([H])([H])[H])C(C([H])([H])[H])(C([H])([H])[H])C([H])([H])[H])C([H])(C(=O)N([H])C1([H])c3c([H])c([H])c([H])c([H])c3C([H])([H])C([H])([H])C1([H])[H])C2([H])[H])=C1C(=O)N(c2c([H])c([H])c(C([H])(N([H])C(=O)N3C([H])([H])C([H])([H])C([H])([H])C([H])(n4nc(-c5c([H])c([H])c(Oc6c([H])c([H])c(F)c([H])c6F)c([H])c5[H])c(C(=O)N([H])[H])c4N([H])[H])C3([H])[H])C([H])([H])[H])c([H])c2[H])C1([H])[H]

$$$$
87:0:0
     RDKit          3D

 96105  0  0  1  0  0  0  0  0999 V2000
  -30.4320  -21.9140   20.6870 C   0  0  0  0  0  0  0  0  0  0  0  0
  -28.2420  -22.2020   20.1600 C   0  0  0  0  0  2  0  0  0  0  0  0
  -30.2150  -23.4550   20.6120 C   0  0  0  0  0  3  0  0  0  0  0  0
  -28.6890  -23.6580   20.6400 C   0  0  0  0  0  3  0  0  0  0  0  0
  -30.9640  -24.2270   21.7130 C   0  0  0  0  0  1  0  0  0  0  0  0
  -29.3140  -21.1890   20.4580 N   0  0  0  0  0  0  0  0  0  0  0  0
  -31.5420  -21.4320   20.9410 O   0  0  0  0  0  0  0  0  0  0  0  0
  -29.1240  -19.5980   18.5870 C   0  0  0  0  0  3  0  0  0  0  0  0
  -29.6210  -18.5610   20.7360 C   0  0  0  0  0  3  0  0  0  0  0  0
  -29.4960  -17.1770   18.7300 C   0  0  0  0  0  3  0  0  0  0  0  0
  -29.3460  -19.7770   19.9700 C   0  0  0  0  0  0  0  0  0  0  0  0
  -29.2070  -18.3320   17.9750 C   0  0  0  0  0  0  0  0  0  0  0  0
  -29.7000  -17.2340   20.1280 C   0  0  0  0  0  0  0  0  0  0  0  0
  -30.5610  -14.8090   20.4300 C   0  0  0  0  0  0  0  0  0  0  0  0
  -30.3800  -12.5300   19.4240 C   0  0  0  0  0  2  0  0  0  0  0  0
  -29.4700  -12.6050   18.1760 C   0  0  0  0  0  2  0  0  0  0  0  0
  -27.9900  -12.4370   18.5720 C   0  0  0  0  0  2  0  0  0  0  0  0
  -27.5920  -13.3210   19.7840 C   0  0  0  0  0  3  0  0  0  0  0  0
  -28.6270  -13.2290   20.9300 C   0  0  0  0  0  2  0  0  0  0  0  0
  -29.9430  -13.5790   20.3780 N   0  0  0  0  0  0  0  0  0  0  0  0
  -31.7200  -14.9270   20.0200 O   0  0  0  0  0  0  0  0  0  0  0  0
  -29.8430  -15.9280   20.8250 N   0  0  0  0  0  0  0  0  0  0  0  0
  -29.0680  -15.7080   21.4330 H   0  0  0  0  0  0  0  0  0  0  0  0
  -25.1810  -13.9000   20.4450 C   0  0  0  0  0  0  0  0  0  0  0  0
  -24.1120  -13.1240   20.8040 C   0  0  0  0  0  0  0  0  0  0  0  0
  -24.5840  -11.7760   20.8030 C   0  0  0  0  0  0  0  0  0  0  0  0
  -26.2370  -13.0280   20.2460 N   0  0  0  0  0  0  0  0  0  0  0  0
  -25.8840  -11.7450   20.5220 N   0  0  0  0  0  0  0  0  0  0  0  0
  -23.8630  -10.5100   21.0000 C   0  0  0  0  0  0  0  0  0  0  0  0
  -24.2870   -9.5580   21.9530 C   0  0  0  0  0  3  0  0  0  0  0  0
  -23.5660   -8.3570   22.1370 C   0  0  0  0  0  3  0  0  0  0  0  0
  -22.4060   -8.1010   21.3670 C   0  0  0  0  0  0  0  0  0  0  0  0
  -21.9990   -9.0440   20.4070 C   0  0  0  0  0  3  0  0  0  0  0  0
  -22.7210  -10.2360   20.2210 C   0  0  0  0  0  3  0  0  0  0  0  0
  -21.6580   -6.9510   21.4590 O   0  0  0  0  0  0  0  0  0  0  0  0
  -21.6030   -6.2200   22.6180 C   0  0  0  0  0  0  0  0  0  0  0  0
  -21.1600   -6.7840   23.8340 C   0  0  0  0  0  3  0  0  0  0  0  0
  -21.0520   -5.9770   24.9840 C   0  0  0  0  0  3  0  0  0  0  0  0
  -21.3770   -4.6090   24.9190 C   0  0  0  0  0  0  0  0  0  0  0  0
  -21.8120   -4.0440   23.7080 C   0  0  0  0  0  3  0  0  0  0  0  0
  -21.9220   -4.8470   22.5590 C   0  0  0  0  0  0  0  0  0  0  0  0
  -22.3220   -4.2950   21.3890 F   0  0  0  0  0  0  0  0  0  0  0  0
  -21.2660   -3.8330   26.0230 F   0  0  0  0  0  0  0  0  0  0  0  0
  -22.7040  -13.5940   21.0380 C   0  0  0  0  0  0  0  0  0  0  0  0
  -21.9630  -12.9070   21.8990 N   0  0  0  0  0  0  0  0  0  0  0  0
  -22.2710  -14.6080   20.4920 O   0  0  0  0  0  0  0  0  0  0  0  0
  -22.3250  -12.0890   22.3650 H   0  0  0  0  0  0  0  0  0  0  0  0
  -21.0170  -13.2070   22.0950 H   0  0  0  0  0  0  0  0  0  0  0  0
  -25.3430  -15.2680   20.2500 N   0  0  0  0  0  0  0  0  0  0  0  0
  -24.5810  -15.9270   20.3630 H   0  0  0  0  0  0  0  0  0  0  0  0
  -26.2010  -15.7030   19.9360 H   0  0  0  0  0  0  0  0  0  0  0  0
  -28.9910  -18.2140   16.6040 N   0  0  0  0  0  0  0  0  0  0  0  0
  -28.9960  -19.0320   16.0030 H   0  0  0  0  0  0  0  0  0  0  0  0
  -29.1960  -17.3440   16.1200 H   0  0  0  0  0  0  0  0  0  0  0  0
  -28.0220  -24.9450   19.9050 C   0  0  0  0  0  2  0  0  0  0  0  0
  -28.2090  -26.4010   20.2700 O   0  0  0  0  0  0  0  0  0  0  0  0
  -24.5650  -31.9390   23.2450 C   0  0  0  0  0  0  0  0  0  0  0  0
  -27.1250  -27.3140   20.1760 C   0  0  0  0  0  0  0  0  0  0  0  0
  -23.3490  -30.5450   21.6160 C   0  0  0  0  0  3  0  0  0  0  0  0
  -24.7810  -28.9930   20.1700 C   0  0  0  0  0  0  0  0  0  0  0  0
  -25.8940  -30.8340   21.4260 C   0  0  0  0  0  2  0  0  0  0  0  0
  -25.9600  -29.4530   20.7720 C   0  0  0  0  0  0  0  0  0  0  0  0
  -27.1290  -28.6240   20.7700 C   0  0  0  0  0  3  0  0  0  0  0  0
  -25.9270  -26.9450   19.5130 C   0  0  0  0  0  3  0  0  0  0  0  0
  -24.7730  -27.7470   19.5280 C   0  0  0  0  0  3  0  0  0  0  0  0
  -23.5500  -29.8760   20.2320 C   0  0  0  0  0  2  0  0  0  0  0  0
  -24.6230  -31.1240   22.1500 N   0  0  0  0  0  0  0  0  0  0  0  0
  -23.4850  -32.2230   23.7820 O   0  0  0  0  0  0  0  0  0  0  0  0
  -22.6870  -29.5290   22.5790 C   0  0  0  0  0  0  0  0  0  0  0  0
  -21.3630  -29.3410   22.4470 N   0  0  0  0  0  0  0  0  0  0  0  0
  -23.3650  -28.9150   23.4060 O   0  0  0  0  0  0  0  0  0  0  0  0
  -20.8750  -29.8870   21.7510 H   0  0  0  0  0  0  0  0  0  0  0  0
  -17.9940  -28.1050   22.9280 C   0  0  0  0  0  0  0  0  0  0  0  0
  -20.5460  -28.4050   23.2230 C   0  0  0  0  0  3  0  0  0  0  0  0
  -20.6740  -26.9660   22.6710 C   0  0  0  0  0  2  0  0  0  0  0  0
  -19.5870  -26.6130   21.6490 C   0  0  0  0  0  2  0  0  0  0  0  0
  -18.1960  -26.7490   22.2750 C   0  0  0  0  0  2  0  0  0  0  0  0
  -19.0970  -28.8900   23.3580 C   0  0  0  0  0  0  0  0  0  0  0  0
  -18.8550  -30.1570   23.9300 C   0  0  0  0  0  3  0  0  0  0  0  0
  -17.5400  -30.6420   24.0770 C   0  0  0  0  0  3  0  0  0  0  0  0
  -16.4510  -29.8560   23.6610 C   0  0  0  0  0  3  0  0  0  0  0  0
  -16.6800  -28.5900   23.0920 C   0  0  0  0  0  3  0  0  0  0  0  0
  -25.8520  -32.5700   23.8590 C   0  0  0  0  0  3  0  0  0  0  0  0
  -26.3580  -31.8120   25.1480 C   0  0  1  0  0  0  0  0  0  0  0  0
  -25.2610  -31.6070   26.2190 C   0  0  0  0  0  1  0  0  0  0  0  0
  -26.9290  -30.4230   24.7830 C   0  0  0  0  0  1  0  0  0  0  0  0
  -27.5160  -32.6080   25.7980 C   0  0  0  0  0  1  0  0  0  0  0  0
  -25.5530  -33.9750   24.1710 N   0  0  0  0  0  0  0  0  0  0  0  0
  -25.8930  -35.0160   23.4020 C   0  0  0  0  0  0  0  0  0  0  0  0
  -26.5640  -34.8950   22.3720 O   0  0  0  0  0  0  0  0  0  0  0  0
  -24.9570  -34.1440   24.9690 H   0  0  0  0  0  0  0  0  0  0  0  0
  -24.1820  -36.8230   23.0260 C   0  0  0  0  0  1  0  0  0  0  0  0
  -25.4180  -36.4140   23.8440 C   0  0  0  0  0  3  0  0  0  0  0  0
  -27.5600  -37.2860   24.6680 C   0  0  0  0  0  1  0  0  0  0  0  0
  -26.4610  -37.4560   23.7230 N   0  0  0  0  0  0  0  0  0  0  0  0
  -26.0640  -38.3820   23.8600 H   0  0  0  0  0  0  0  0  0  0  0  0
  1  7  2  0
  2  6  1  0
  2  4  1  0
  3  4  1  0
  3  1  1  0
  3  5  1  0
  4 55  1  0
  6  1  1  0
  8 11  1  0
 10 13  2  0
 11  6  1  0
 11  9  2  0
 12  8  2  0
 12 10  1  0
 13  9  1  0
 13 22  1  0
 14 22  1  0
 15 20  1  0
 16 17  1  0
 16 15  1  0
 18 17  1  0
 18 27  1  0
 18 19  1  0
 20 14  1  0
 20 19  1  0
 21 14  2  0
 22 23  1  0
 24 25  2  0
 25 44  1  0
 26 25  1  0
 26 29  1  0
 27 24  1  0
 27 28  1  0
 28 26  2  0
 29 30  1  0
 30 31  2  0
 32 35  1  0
 32 31  1  0
 33 32  2  0
 34 33  1  0
 34 29  2  0
 35 36  1  0
 36 37  1  0
 37 38  2  0
 39 38  1  0
 39 43  1  0
 40 39  2  0
 41 36  2  0
 41 40  1  0
 42 41  1  0
 44 45  1  0
 45 48  1  0
 45 47  1  0
 46 44  2  0
 49 50  1  0
 49 24  1  0
 51 49  1  0
 52 12  1  0
 53 52  1  0
 54 52  1  0
 55 56  1  0
 57 68  2  0
 58 56  1  0
 58 63  1  0
 59 67  1  0
 59 69  1  0
 60 66  1  0
 60 62  1  0
 61 67  1  0
 62 61  1  0
 63 62  2  0
 64 65  1  0
 64 58  2  0
 65 60  2  0
 66 59  1  0
 67 57  1  0
 69 71  2  0
 70 69  1  0
 72 70  1  0
 73 82  2  0
 73 78  1  0
 74 70  1  0
 74 78  1  0
 75 74  1  0
 76 77  1  0
 76 75  1  0
 77 73  1  0
 78 79  2  0
 79 80  1  0
 81 80  2  0
 82 81  1  0
 83 57  1  0
 83 88  1  0
 83 84  1  0
 84 87  1  1
 84 85  1  0
 86 84  1  0
 88 91  1  0
 89 93  1  0
 89 88  1  0
 90 89  2  0
 93 92  1  0
 95 93  1  0
 95 96  1  0
 95 94  1  0
M  ISO  4  14 100  22 100  55 101  56 101
M  END
>  <TORSDO>  (88) 
F 19

>  <SCORE>  (88) 
-14.363

>  <name>  (88) 
87

>  <ligand_id>  (88) 
87

>  <original_smiles>  (88) 
[H]c1c([H])c([H])c2c(c1[H])C([H])([H])C([H])([H])C([H])([H])C2([H])N([H])C(=O)C1([H])N(C(=O)C([H])(N([H])C(=O)C([H])(N([H])C([H])([H])[H])C([H])([H])[H])C(C([H])([H])[H])(C([H])([H])[H])C([H])([H])[H])C([H])([H])c2c([H])c(OC([H])([H])C3([H])C([H])([H])N(c4c([H])c(N([H])[H])c([H])c(N([H])C(=O)N5C([H])([H])C([H])([H])C([H])([H])C([H])(n6nc(-c7c([H])c([H])c(Oc8c([H])c([H])c(F)c([H])c8F)c([H])c7[H])c(C(=O)N([H])[H])c6N([H])[H])C5([H])[H])c4[H])C(=O)C3([H])C([H])([H])[H])c([H])c([H])c2C1([H])[H]

>  <smiles>  (88) 
[H]c1c([H])c([H])c2c(c1[H])C([H])([H])C([H])([H])C([H])([H])C2([H])N([H])C(=O)C1([H])N(C(=O)C([H])(N([H])C(=O)C([H])(N([H])C([H])([H])[H])C([H])([H])[H])C(C([H])([H])[H])(C([H])([H])[H])C([H])([H])[H])C([H])([H])c2c([H])c(OC([H])([H])C3([H])C([H])([H])N(c4c([H])c(N([H])[H])c([H])c(N([H])C(=O)N5C([H])([H])C([H])([H])C([H])([H])C([H])(n6nc(-c7c([H])c([H])c(Oc8c([H])c([H])c(F)c([H])c8F)c([H])c7[H])c(C(=O)N([H])[H])c6N([H])[H])C5([H])[H])c4[H])C(=O)C3([H])C([H])([H])[H])c([H])c([H])c2C1([H])[H]

$$$$
88:0:0
     RDKit          3D

 93102  0  0  1  0  0  0  0  0999 V2000
  -30.5370  -22.0970   20.5670 C   0  0  0  0  0  0  0  0  0  0  0  0
  -28.2960  -22.3050   20.1090 C   0  0  0  0  0  2  0  0  0  0  0  0
  -28.7960  -23.7220   20.5880 C   0  0  0  0  0  3  0  0  0  0  0  0
  -29.3850  -21.3370   20.3810 N   0  0  0  0  0  0  0  0  0  0  0  0
  -31.6900  -21.6890   20.7190 O   0  0  0  0  0  0  0  0  0  0  0  0
  -30.1950  -23.4340   20.5380 O   0  0  0  0  0  0  0  0  0  0  0  0
  -29.1590  -18.3950   18.0060 C   0  0  0  0  0  3  0  0  0  0  0  0
  -29.4760  -17.2730   18.7990 C   0  0  0  0  0  3  0  0  0  0  0  0
  -29.1190  -19.6950   18.5510 C   0  0  0  0  0  3  0  0  0  0  0  0
  -29.7570  -18.7670   20.7040 C   0  0  0  0  0  3  0  0  0  0  0  0
  -29.7770  -17.4120   20.1710 C   0  0  0  0  0  0  0  0  0  0  0  0
  -29.4240  -19.9350   19.9090 C   0  0  0  0  0  0  0  0  0  0  0  0
  -29.9630  -16.1010   21.0560 C   0  0  1  0  0  0  0  0  0  0  0  0
  -30.7090  -16.4450   22.1060 F   0  0  0  0  0  0  0  0  0  0  0  0
  -28.7370  -15.8600   21.5130 F   0  0  0  0  0  0  0  0  0  0  0  0
  -30.6140  -14.7520   20.4340 C   0  0  0  0  0  0  0  0  0  0  0  0
  -30.4060  -12.5070   19.3360 C   0  0  0  0  0  2  0  0  0  0  0  0
  -29.4720  -12.6330   18.1110 C   0  0  0  0  0  2  0  0  0  0  0  0
  -27.9940  -12.4700   18.5220 C   0  0  0  0  0  2  0  0  0  0  0  0
  -27.6310  -13.3170   19.7720 C   0  0  0  0  0  3  0  0  0  0  0  0
  -28.6820  -13.1260   20.8870 C   0  0  0  0  0  2  0  0  0  0  0  0
  -29.9840  -13.5230   20.3320 N   0  0  0  0  0  0  0  0  0  0  0  0
  -31.7610  -14.8490   19.9790 O   0  0  0  0  0  0  0  0  0  0  0  0
  -25.2320  -13.9230   20.4520 C   0  0  0  0  0  0  0  0  0  0  0  0
  -24.1590  -13.1540   20.8120 C   0  0  0  0  0  0  0  0  0  0  0  0
  -24.6170  -11.8020   20.7960 C   0  0  0  0  0  0  0  0  0  0  0  0
  -26.2760  -13.0380   20.2400 N   0  0  0  0  0  0  0  0  0  0  0  0
  -25.9120  -11.7580   20.5050 N   0  0  0  0  0  0  0  0  0  0  0  0
  -23.8830  -10.5430   20.9860 C   0  0  0  0  0  0  0  0  0  0  0  0
  -24.3020   -9.5790   21.9290 C   0  0  0  0  0  3  0  0  0  0  0  0
  -23.5690   -8.3860   22.1070 C   0  0  0  0  0  3  0  0  0  0  0  0
  -22.4020   -8.1500   21.3420 C   0  0  0  0  0  0  0  0  0  0  0  0
  -22.0020   -9.1020   20.3880 C   0  0  0  0  0  3  0  0  0  0  0  0
  -22.7360  -10.2870   20.2090 C   0  0  0  0  0  3  0  0  0  0  0  0
  -21.6400   -7.0090   21.4290 O   0  0  0  0  0  0  0  0  0  0  0  0
  -21.5790   -6.2720   22.5830 C   0  0  0  0  0  0  0  0  0  0  0  0
  -21.1400   -6.8330   23.8030 C   0  0  0  0  0  3  0  0  0  0  0  0
  -21.0250   -6.0240   24.9500 C   0  0  0  0  0  3  0  0  0  0  0  0
  -21.3350   -4.6520   24.8790 C   0  0  0  0  0  0  0  0  0  0  0  0
  -21.7660   -4.0900   23.6640 C   0  0  0  0  0  3  0  0  0  0  0  0
  -21.8850   -4.8970   22.5190 C   0  0  0  0  0  0  0  0  0  0  0  0
  -22.2800   -4.3460   21.3460 F   0  0  0  0  0  0  0  0  0  0  0  0
  -21.2160   -3.8710   25.9770 F   0  0  0  0  0  0  0  0  0  0  0  0
  -22.7600  -13.6390   21.0630 C   0  0  0  0  0  0  0  0  0  0  0  0
  -22.0200  -12.9510   21.9270 N   0  0  0  0  0  0  0  0  0  0  0  0
  -22.3300  -14.6610   20.5310 O   0  0  0  0  0  0  0  0  0  0  0  0
  -22.3800  -12.1240   22.3790 H   0  0  0  0  0  0  0  0  0  0  0  0
  -21.0800  -13.2560   22.1380 H   0  0  0  0  0  0  0  0  0  0  0  0
  -25.4010  -15.2920   20.2690 N   0  0  0  0  0  0  0  0  0  0  0  0
  -24.6390  -15.9520   20.3790 H   0  0  0  0  0  0  0  0  0  0  0  0
  -26.2690  -15.7330   19.9900 H   0  0  0  0  0  0  0  0  0  0  0  0
  -28.2330  -25.0050   19.7870 C   0  0  0  0  0  2  0  0  0  0  0  0
  -28.3180  -26.4310   20.2590 O   0  0  0  0  0  0  0  0  0  0  0  0
  -24.6080  -31.9090   23.2220 C   0  0  0  0  0  0  0  0  0  0  0  0
  -27.2100  -27.3120   20.1650 C   0  0  0  0  0  0  0  0  0  0  0  0
  -23.4040  -30.5120   21.5840 C   0  0  0  0  0  3  0  0  0  0  0  0
  -24.8540  -28.9630   20.1530 C   0  0  0  0  0  0  0  0  0  0  0  0
  -25.9490  -30.8130   21.4100 C   0  0  0  0  0  2  0  0  0  0  0  0
  -26.0230  -29.4320   20.7620 C   0  0  0  0  0  0  0  0  0  0  0  0
  -27.1990  -28.6150   20.7670 C   0  0  0  0  0  3  0  0  0  0  0  0
  -26.0230  -26.9300   19.4940 C   0  0  0  0  0  3  0  0  0  0  0  0
  -24.8580  -27.7190   19.5110 C   0  0  0  0  0  3  0  0  0  0  0  0
  -23.6190  -29.8390   20.2030 C   0  0  0  0  0  2  0  0  0  0  0  0
  -24.6720  -31.0960   22.1270 N   0  0  0  0  0  0  0  0  0  0  0  0
  -23.5240  -32.1890   23.7540 O   0  0  0  0  0  0  0  0  0  0  0  0
  -22.7390  -29.4940   22.5430 C   0  0  0  0  0  0  0  0  0  0  0  0
  -21.4110  -29.3250   22.4210 N   0  0  0  0  0  0  0  0  0  0  0  0
  -23.4170  -28.8620   23.3570 O   0  0  0  0  0  0  0  0  0  0  0  0
  -20.9220  -29.8860   21.7380 H   0  0  0  0  0  0  0  0  0  0  0  0
  -18.0270  -28.1560   22.9490 C   0  0  0  0  0  0  0  0  0  0  0  0
  -20.5900  -28.3910   23.1950 C   0  0  0  0  0  3  0  0  0  0  0  0
  -20.6730  -26.9610   22.6110 C   0  0  0  0  0  2  0  0  0  0  0  0
  -19.5590  -26.6560   21.6050 C   0  0  0  0  0  2  0  0  0  0  0  0
  -18.1840  -26.8100   22.2630 C   0  0  0  0  0  2  0  0  0  0  0  0
  -19.1570  -28.9060   23.3730 C   0  0  0  0  0  0  0  0  0  0  0  0
  -18.9550  -30.1670   23.9750 C   0  0  0  0  0  3  0  0  0  0  0  0
  -17.6570  -30.6790   24.1560 C   0  0  0  0  0  3  0  0  0  0  0  0
  -16.5430  -29.9280   23.7480 C   0  0  0  0  0  3  0  0  0  0  0  0
  -16.7270  -28.6680   23.1510 C   0  0  0  0  0  3  0  0  0  0  0  0
  -25.8900  -32.5420   23.8420 C   0  0  0  0  0  3  0  0  0  0  0  0
  -26.4090  -31.7690   25.1180 C   0  0  1  0  0  0  0  0  0  0  0  0
  -25.3160  -31.5270   26.1860 C   0  0  0  0  0  1  0  0  0  0  0  0
  -26.9950  -30.3920   24.7250 C   0  0  0  0  0  1  0  0  0  0  0  0
  -27.5590  -32.5640   25.7790 C   0  0  0  0  0  1  0  0  0  0  0  0
  -25.5790  -33.9390   24.1780 N   0  0  0  0  0  0  0  0  0  0  0  0
  -25.9050  -34.9950   23.4210 C   0  0  0  0  0  0  0  0  0  0  0  0
  -26.5700  -34.8960   22.3860 O   0  0  0  0  0  0  0  0  0  0  0  0
  -24.9880  -34.0900   24.9820 H   0  0  0  0  0  0  0  0  0  0  0  0
  -24.1740  -36.7890   23.0770 C   0  0  0  0  0  1  0  0  0  0  0  0
  -25.4180  -36.3820   23.8850 C   0  0  0  0  0  3  0  0  0  0  0  0
  -27.5520  -37.2670   24.7150 C   0  0  0  0  0  1  0  0  0  0  0  0
  -26.4490  -37.4370   23.7750 N   0  0  0  0  0  0  0  0  0  0  0  0
  -26.0420  -38.3560   23.9260 H   0  0  0  0  0  0  0  0  0  0  0  0
  1  5  2  0
  2  4  1  0
  2  3  1  0
  3 52  1  0
  4  1  1  0
  6  1  1  0
  6  3  1  0
  7  9  2  0
  7  8  1  0
  8 11  2  0
  9 12  1  0
 11 10  1  0
 11 13  1  0
 12  4  1  0
 12 10  2  0
 13 15  1  1
 13 14  1  0
 16 13  1  0
 17 22  1  0
 18 19  1  0
 18 17  1  0
 20 19  1  0
 20 27  1  0
 20 21  1  0
 22 16  1  0
 22 21  1  0
 23 16  2  0
 24 25  2  0
 25 44  1  0
 26 25  1  0
 26 29  1  0
 27 24  1  0
 27 28  1  0
 28 26  2  0
 29 30  1  0
 30 31  2  0
 32 35  1  0
 32 31  1  0
 33 32  2  0
 34 33  1  0
 34 29  2  0
 35 36  1  0
 36 37  1  0
 37 38  2  0
 39 38  1  0
 39 43  1  0
 40 39  2  0
 41 36  2  0
 41 40  1  0
 42 41  1  0
 44 45  1  0
 45 48  1  0
 45 47  1  0
 46 44  2  0
 49 50  1  0
 49 24  1  0
 51 49  1  0
 52 53  1  0
 54 65  2  0
 55 53  1  0
 55 60  1  0
 56 64  1  0
 56 66  1  0
 57 63  1  0
 57 59  1  0
 58 64  1  0
 59 60  2  0
 59 58  1  0
 61 62  1  0
 61 55  2  0
 62 57  2  0
 63 56  1  0
 64 54  1  0
 66 68  2  0
 67 66  1  0
 69 67  1  0
 70 79  2  0
 70 75  1  0
 71 67  1  0
 71 75  1  0
 72 71  1  0
 73 74  1  0
 73 72  1  0
 74 70  1  0
 75 76  2  0
 76 77  1  0
 78 77  2  0
 79 78  1  0
 80 54  1  0
 80 85  1  0
 80 81  1  0
 81 84  1  1
 81 82  1  0
 83 81  1  0
 85 88  1  0
 86 90  1  0
 86 85  1  0
 87 86  2  0
 90 89  1  0
 92 90  1  0
 92 93  1  0
 92 91  1  0
M  ISO  4  13 100  16 100  52 101  53 101
M  END
>  <TORSDO>  (89) 
F 19

>  <SCORE>  (89) 
-14.547

>  <name>  (89) 
88

>  <ligand_id>  (89) 
88

>  <original_smiles>  (89) 
[H]c1c([H])c(N2C(=O)OC([H])(C([H])([H])Oc3c([H])c([H])c4c(c3[H])C([H])([H])N(C(=O)C([H])(N([H])C(=O)C([H])(N([H])C([H])([H])[H])C([H])([H])[H])C(C([H])([H])[H])(C([H])([H])[H])C([H])([H])[H])C([H])(C(=O)N([H])C3([H])c5c([H])c([H])c([H])c([H])c5C([H])([H])C([H])([H])C3([H])[H])C4([H])[H])C2([H])[H])c([H])c(C(F)(F)C(=O)N2C([H])([H])C([H])([H])C([H])([H])C([H])(n3nc(-c4c([H])c([H])c(Oc5c([H])c([H])c(F)c([H])c5F)c([H])c4[H])c(C(=O)N([H])[H])c3N([H])[H])C2([H])[H])c1[H]

>  <smiles>  (89) 
[H]c1c([H])c(N2C(=O)OC([H])(C([H])([H])Oc3c([H])c([H])c4c(c3[H])C([H])([H])N(C(=O)C([H])(N([H])C(=O)C([H])(N([H])C([H])([H])[H])C([H])([H])[H])C(C([H])([H])[H])(C([H])([H])[H])C([H])([H])[H])C([H])(C(=O)N([H])C3([H])c5c([H])c([H])c([H])c([H])c5C([H])([H])C([H])([H])C3([H])[H])C4([H])[H])C2([H])[H])c([H])c(C(F)(F)C(=O)N2C([H])([H])C([H])([H])C([H])([H])C([H])(n3nc(-c4c([H])c([H])c(Oc5c([H])c([H])c(F)c([H])c5F)c([H])c4[H])c(C(=O)N([H])[H])c3N([H])[H])C2([H])[H])c1[H]

$$$$
89:0:0
     RDKit          3D

 95103  0  0  1  0  0  0  0  0999 V2000
  -28.0090  -20.6300   19.7890 C   0  0  0  0  0  0  0  0  0  0  0  0
  -28.4580  -21.7030   20.3740 N   0  0  0  0  0  2  0  0  0  0  0  0
  -26.9060  -20.5130   18.9660 N   0  0  0  0  0  4  0  0  0  0  0  0
  -26.5520  -19.6340   18.6040 H   0  0  0  0  0  0  0  0  0  0  0  0
  -26.3350  -21.2920   18.6530 H   0  0  0  0  0  0  0  0  0  0  0  0
  -29.2280  -18.9610   21.2850 C   0  0  0  0  0  3  0  0  0  0  0  0
  -28.7840  -18.3460   18.9820 C   0  0  0  0  0  3  0  0  0  0  0  0
  -29.7710  -17.6750   21.5180 C   0  0  0  0  0  3  0  0  0  0  0  0
  -29.3570  -17.0720   19.2040 C   0  0  0  0  0  3  0  0  0  0  0  0
  -28.7030  -19.3080   20.0180 C   0  0  0  0  0  0  0  0  0  0  0  0
  -29.8460  -16.7130   20.4830 C   0  0  0  0  0  0  0  0  0  0  0  0
  -30.8580  -14.4840   19.9810 C   0  0  0  0  0  0  0  0  0  0  0  0
  -30.5250  -12.3250   18.8320 C   0  0  0  0  0  2  0  0  0  0  0  0
  -29.4920  -12.5210   17.7020 C   0  0  0  0  0  2  0  0  0  0  0  0
  -28.0540  -12.3800   18.2340 C   0  0  0  0  0  2  0  0  0  0  0  0
  -27.8060  -13.2050   19.5240 C   0  0  0  0  0  3  0  0  0  0  0  0
  -28.9350  -12.9630   20.5510 C   0  0  0  0  0  2  0  0  0  0  0  0
  -30.2240  -13.2830   19.9070 N   0  0  0  0  0  0  0  0  0  0  0  0
  -31.8770  -14.7480   19.3330 O   0  0  0  0  0  0  0  0  0  0  0  0
  -30.2820  -15.3870   20.8020 N   0  0  0  0  0  0  0  0  0  0  0  0
  -29.7790  -14.9660   21.5700 H   0  0  0  0  0  0  0  0  0  0  0  0
  -25.4790  -13.8100   20.4460 C   0  0  0  0  0  0  0  0  0  0  0  0
  -24.4370  -13.0340   20.8790 C   0  0  0  0  0  0  0  0  0  0  0  0
  -24.8790  -11.6810   20.7620 C   0  0  0  0  0  0  0  0  0  0  0  0
  -26.4920  -12.9280   20.0980 N   0  0  0  0  0  0  0  0  0  0  0  0
  -26.1360  -11.6410   20.3420 N   0  0  0  0  0  0  0  0  0  0  0  0
  -24.1570  -10.4190   20.9730 C   0  0  0  0  0  0  0  0  0  0  0  0
  -24.5820   -9.4800   21.9360 C   0  0  0  0  0  3  0  0  0  0  0  0
  -23.8650   -8.2780   22.1300 C   0  0  0  0  0  3  0  0  0  0  0  0
  -22.7090   -8.0110   21.3590 C   0  0  0  0  0  0  0  0  0  0  0  0
  -22.3010   -8.9410   20.3840 C   0  0  0  0  0  3  0  0  0  0  0  0
  -23.0190  -10.1330   20.1910 C   0  0  0  0  0  3  0  0  0  0  0  0
  -21.9640   -6.8610   21.4590 O   0  0  0  0  0  0  0  0  0  0  0  0
  -21.8010   -6.2100   22.6570 C   0  0  0  0  0  0  0  0  0  0  0  0
  -21.2150   -6.8460   23.7740 C   0  0  0  0  0  3  0  0  0  0  0  0
  -21.0050   -6.1200   24.9640 C   0  0  0  0  0  3  0  0  0  0  0  0
  -21.3680   -4.7610   25.0350 C   0  0  0  0  0  0  0  0  0  0  0  0
  -21.9450   -4.1270   23.9210 C   0  0  0  0  0  3  0  0  0  0  0  0
  -22.1580   -4.8500   22.7340 C   0  0  0  0  0  0  0  0  0  0  0  0
  -22.6970   -4.2280   21.6560 F   0  0  0  0  0  0  0  0  0  0  0  0
  -21.1560   -4.0620   26.1740 F   0  0  0  0  0  0  0  0  0  0  0  0
  -23.0740  -13.5130   21.2880 C   0  0  0  0  0  0  0  0  0  0  0  0
  -22.4210  -12.8020   22.2000 N   0  0  0  0  0  0  0  0  0  0  0  0
  -22.5990  -14.5530   20.8340 O   0  0  0  0  0  0  0  0  0  0  0  0
  -22.8170  -11.9600   22.5910 H   0  0  0  0  0  0  0  0  0  0  0  0
  -21.5080  -13.1030   22.5110 H   0  0  0  0  0  0  0  0  0  0  0  0
  -25.6450  -15.1840   20.3020 N   0  0  0  0  0  0  0  0  0  0  0  0
  -24.8970  -15.8430   20.4860 H   0  0  0  0  0  0  0  0  0  0  0  0
  -26.4750  -15.6160   19.9170 H   0  0  0  0  0  0  0  0  0  0  0  0
  -26.8290  -23.3100   19.0720 O   0  0  0  0  0  0  0  0  0  0  0  0
  -27.1230  -23.5660   21.5710 O   0  0  0  0  0  0  0  0  0  0  0  0
  -27.6960  -23.2150   20.2600 S   0  0  1  0  0  0  0  0  0  0  0  0
  -29.1510  -24.3130   19.9800 C   0  0  0  0  0  2  0  0  0  0  0  0
  -28.8230  -25.6490   19.2650 C   0  0  0  0  0  2  0  0  0  0  0  0
  -28.5420  -26.7400   20.1610 O   0  0  0  0  0  0  0  0  0  0  0  0
  -24.5430  -31.8080   23.1650 C   0  0  0  0  0  0  0  0  0  0  0  0
  -27.3350  -27.4160   20.1150 C   0  0  0  0  0  0  0  0  0  0  0  0
  -23.4010  -30.3960   21.4850 C   0  0  0  0  0  3  0  0  0  0  0  0
  -24.9120  -28.8920   20.0890 C   0  0  0  0  0  0  0  0  0  0  0  0
  -25.9260  -30.7910   21.3560 C   0  0  0  0  0  2  0  0  0  0  0  0
  -26.0470  -29.4250   20.7080 C   0  0  0  0  0  0  0  0  0  0  0  0
  -27.2550  -28.6920   20.7240 C   0  0  0  0  0  3  0  0  0  0  0  0
  -26.1670  -26.8870   19.5150 C   0  0  0  0  0  3  0  0  0  0  0  0
  -24.9670  -27.6200   19.4960 C   0  0  0  0  0  3  0  0  0  0  0  0
  -23.6550  -29.7310   20.1080 C   0  0  0  0  0  2  0  0  0  0  0  0
  -24.6400  -31.0140   22.0600 N   0  0  0  0  0  0  0  0  0  0  0  0
  -23.4450  -32.0600   23.6780 O   0  0  0  0  0  0  0  0  0  0  0  0
  -22.7440  -29.3580   22.4220 C   0  0  0  0  0  0  0  0  0  0  0  0
  -21.4220  -29.1710   22.2760 N   0  0  0  0  0  0  0  0  0  0  0  0
  -23.4200  -28.7220   23.2360 O   0  0  0  0  0  0  0  0  0  0  0  0
  -20.9370  -29.7370   21.5940 H   0  0  0  0  0  0  0  0  0  0  0  0
  -18.0420  -27.9780   22.7290 C   0  0  0  0  0  0  0  0  0  0  0  0
  -20.5990  -28.2200   23.0220 C   0  0  0  0  0  3  0  0  0  0  0  0
  -20.7010  -26.8010   22.4170 C   0  0  0  0  0  2  0  0  0  0  0  0
  -19.6030  -26.5050   21.3890 C   0  0  0  0  0  2  0  0  0  0  0  0
  -18.2180  -26.6420   22.0270 C   0  0  0  0  0  2  0  0  0  0  0  0
  -19.1610  -28.7270   23.1810 C   0  0  0  0  0  0  0  0  0  0  0  0
  -18.9440  -29.9790   23.7950 C   0  0  0  0  0  3  0  0  0  0  0  0
  -17.6410  -30.4820   23.9640 C   0  0  0  0  0  3  0  0  0  0  0  0
  -16.5360  -29.7300   23.5300 C   0  0  0  0  0  3  0  0  0  0  0  0
  -16.7380  -28.4800   22.9170 C   0  0  0  0  0  3  0  0  0  0  0  0
  -25.8030  -32.4550   23.8180 C   0  0  0  0  0  3  0  0  0  0  0  0
  -26.3070  -31.6810   25.0970 C   0  0  1  0  0  0  0  0  0  0  0  0
  -25.1970  -31.4100   26.1390 C   0  0  0  0  0  1  0  0  0  0  0  0
  -26.9260  -30.3190   24.7020 C   0  0  0  0  0  1  0  0  0  0  0  0
  -27.4270  -32.4900   25.7930 C   0  0  0  0  0  1  0  0  0  0  0  0
  -25.4630  -33.8450   24.1530 N   0  0  0  0  0  0  0  0  0  0  0  0
  -25.7910  -34.9080   23.4060 C   0  0  0  0  0  0  0  0  0  0  0  0
  -26.4830  -34.8240   22.3870 O   0  0  0  0  0  0  0  0  0  0  0  0
  -24.8510  -33.9840   24.9420 H   0  0  0  0  0  0  0  0  0  0  0  0
  -24.0400  -36.6730   23.0220 C   0  0  0  0  0  1  0  0  0  0  0  0
  -25.2680  -36.2840   23.8610 C   0  0  0  0  0  3  0  0  0  0  0  0
  -27.3620  -37.2010   24.7550 C   0  0  0  0  0  1  0  0  0  0  0  0
  -26.2850  -37.3550   23.7820 N   0  0  0  0  0  0  0  0  0  0  0  0
  -25.8580  -38.2670   23.9230 H   0  0  0  0  0  0  0  0  0  0  0  0
  1 10  1  0
  1  2  1  0
  3  1  2  0
  4  3  1  0
  5  3  1  0
  6  8  1  0
  7  9  2  0
  7 10  1  0
  9 11  1  0
 10  6  2  0
 11 20  1  0
 11  8  2  0
 12 20  1  0
 13 18  1  0
 14 15  1  0
 14 13  1  0
 16 15  1  0
 16 25  1  0
 16 17  1  0
 18 12  1  0
 18 17  1  0
 19 12  2  0
 20 21  1  0
 22 23  2  0
 23 42  1  0
 24 23  1  0
 24 27  1  0
 25 26  1  0
 25 22  1  0
 26 24  2  0
 27 28  1  0
 28 29  2  0
 30 33  1  0
 30 29  1  0
 31 30  2  0
 32 31  1  0
 32 27  2  0
 33 34  1  0
 34 39  2  0
 34 35  1  0
 35 36  2  0
 36 37  1  0
 37 41  1  0
 38 37  2  0
 39 38  1  0
 40 39  1  0
 42 43  1  0
 43 46  1  0
 43 45  1  0
 44 42  2  0
 47 22  1  0
 47 48  1  0
 49 47  1  0
 50 52  2  0
 52  2  1  0
 52 51  2  0
 52 53  1  6
 54 53  1  0
 54 55  1  0
 56 67  2  0
 57 55  1  0
 57 62  1  0
 58 66  1  0
 58 68  1  0
 59 65  1  0
 59 61  1  0
 60 66  1  0
 61 62  2  0
 61 60  1  0
 63 57  2  0
 64 63  1  0
 64 59  2  0
 65 58  1  0
 66 56  1  0
 68 70  2  0
 69 68  1  0
 71 69  1  0
 72 81  2  0
 72 77  1  0
 73 69  1  0
 73 77  1  0
 74 73  1  0
 75 76  1  0
 75 74  1  0
 76 72  1  0
 77 78  2  0
 78 79  1  0
 80 79  2  0
 81 80  1  0
 82 56  1  0
 82 87  1  0
 82 83  1  0
 83 86  1  1
 83 84  1  0
 85 83  1  0
 87 90  1  0
 88 92  1  0
 88 87  1  0
 89 88  2  0
 92 91  1  0
 94 92  1  0
 94 95  1  0
 94 93  1  0
M  ISO  4  12 100  20 100  54 101  55 101
M  END
>  <TORSDO>  (90) 
F 20

>  <SCORE>  (90) 
-13.326

>  <name>  (90) 
89

>  <ligand_id>  (90) 
89

>  <original_smiles>  (90) 
[H]c1c([H])c([H])c2c(c1[H])C([H])([H])C([H])([H])C([H])([H])C2([H])N([H])C(=O)C1([H])N(C(=O)C([H])(N([H])C(=O)C([H])(N([H])C([H])([H])[H])C([H])([H])[H])C(C([H])([H])[H])(C([H])([H])[H])C([H])([H])[H])C([H])([H])c2c([H])c(OC([H])([H])C([H])([H])S(=O)(=O)N=C(c3c([H])c([H])c(N([H])C(=O)N4C([H])([H])C([H])([H])C([H])([H])C([H])(n5nc(-c6c([H])c([H])c(Oc7c([H])c([H])c(F)c([H])c7F)c([H])c6[H])c(C(=O)N([H])[H])c5N([H])[H])C4([H])[H])c([H])c3[H])N([H])[H])c([H])c([H])c2C1([H])[H]

>  <smiles>  (90) 
[H]c1c([H])c([H])c2c(c1[H])C([H])([H])C([H])([H])C([H])([H])C2([H])N([H])C(=O)C1([H])N(C(=O)C([H])(N([H])C(=O)C([H])(N([H])C([H])([H])[H])C([H])([H])[H])C(C([H])([H])[H])(C([H])([H])[H])C([H])([H])[H])C([H])([H])c2c([H])c(OC([H])([H])C([H])([H])S(=O)(=O)N=C(c3c([H])c([H])c(N([H])C(=O)N4C([H])([H])C([H])([H])C([H])([H])C([H])(n5nc(-c6c([H])c([H])c(Oc7c([H])c([H])c(F)c([H])c7F)c([H])c6[H])c(C(=O)N([H])[H])c5N([H])[H])C4([H])[H])c([H])c3[H])N([H])[H])c([H])c([H])c2C1([H])[H]

$$$$
90:0:0
     RDKit          3D

 93102  0  0  1  0  0  0  0  0999 V2000
  -29.0240  -22.8410   21.0390 C   0  0  0  0  0  0  0  0  0  0  0  0
  -29.9320  -22.6720   19.1940 C   0  0  0  0  0  2  0  0  0  0  0  0
  -29.6130  -23.9520   20.0700 C   0  0  2  0  0  0  0  0  0  0  0  0
  -30.8100  -24.6510   20.7240 C   0  0  0  0  0  1  0  0  0  0  0  0
  -29.7670  -21.8330   20.3870 N   0  0  0  0  0  0  0  0  0  0  0  0
  -28.2150  -22.7970   21.9430 O   0  0  0  0  0  0  0  0  0  0  0  0
  -31.0890  -19.6370   20.4310 C   0  0  0  0  0  3  0  0  0  0  0  0
  -31.2270  -18.2040   20.4860 C   0  0  0  0  0  3  0  0  0  0  0  0
  -28.8640  -18.0220   20.3030 C   0  0  0  0  0  3  0  0  0  0  0  0
  -28.7350  -19.4470   20.2450 C   0  0  0  0  0  0  0  0  0  0  0  0
  -29.8470  -20.3490   20.3360 C   0  0  0  0  0  0  0  0  0  0  0  0
  -30.1010  -17.3400   20.4360 C   0  0  0  0  0  0  0  0  0  0  0  0
  -27.3270  -19.9920   20.0690 C   0  0  0  0  0  1  0  0  0  0  0  0
  -30.8810  -14.8280   20.0500 C   0  0  0  0  0  0  0  0  0  0  0  0
  -30.6290  -12.5990   18.9440 C   0  0  0  0  0  2  0  0  0  0  0  0
  -29.6220  -12.7440   17.7810 C   0  0  0  0  0  2  0  0  0  0  0  0
  -28.1720  -12.5830   18.2790 C   0  0  0  0  0  2  0  0  0  0  0  0
  -27.8800  -13.4240   19.5500 C   0  0  0  0  0  3  0  0  0  0  0  0
  -28.9910  -13.2340   20.6070 C   0  0  0  0  0  2  0  0  0  0  0  0
  -30.2720  -13.5960   19.9770 N   0  0  0  0  0  0  0  0  0  0  0  0
  -32.0240  -14.9960   19.6130 O   0  0  0  0  0  0  0  0  0  0  0  0
  -30.0780  -15.8610   20.4880 N   0  0  0  0  0  0  0  0  0  0  0  0
  -29.2110  -15.4940   20.8440 H   0  0  0  0  0  0  0  0  0  0  0  0
  -25.5360  -14.0430   20.4010 C   0  0  0  0  0  0  0  0  0  0  0  0
  -24.4750  -13.2780   20.8050 C   0  0  0  0  0  0  0  0  0  0  0  0
  -24.9120  -11.9220   20.7180 C   0  0  0  0  0  0  0  0  0  0  0  0
  -26.5530  -13.1530   20.0940 N   0  0  0  0  0  0  0  0  0  0  0  0
  -26.1850  -11.8700   20.3450 N   0  0  0  0  0  0  0  0  0  0  0  0
  -24.1750  -10.6650   20.9130 C   0  0  0  0  0  0  0  0  0  0  0  0
  -24.5880   -9.7060   21.8630 C   0  0  0  0  0  3  0  0  0  0  0  0
  -23.8510   -8.5160   22.0460 C   0  0  0  0  0  3  0  0  0  0  0  0
  -22.6880   -8.2760   21.2770 C   0  0  0  0  0  0  0  0  0  0  0  0
  -22.2940   -9.2250   20.3160 C   0  0  0  0  0  3  0  0  0  0  0  0
  -23.0320  -10.4060   20.1310 C   0  0  0  0  0  3  0  0  0  0  0  0
  -21.9270   -7.1360   21.3650 O   0  0  0  0  0  0  0  0  0  0  0  0
  -21.7750   -6.4620   22.5510 C   0  0  0  0  0  0  0  0  0  0  0  0
  -21.2220   -7.0800   23.6930 C   0  0  0  0  0  3  0  0  0  0  0  0
  -21.0190   -6.3320   24.8700 C   0  0  0  0  0  3  0  0  0  0  0  0
  -21.3600   -4.9670   24.9040 C   0  0  0  0  0  0  0  0  0  0  0  0
  -21.9070   -4.3480   23.7660 C   0  0  0  0  0  3  0  0  0  0  0  0
  -22.1110   -5.0930   22.5920 C   0  0  0  0  0  0  0  0  0  0  0  0
  -22.6180   -4.4870   21.4910 F   0  0  0  0  0  0  0  0  0  0  0  0
  -21.1580   -4.2460   26.0320 F   0  0  0  0  0  0  0  0  0  0  0  0
  -23.1000  -13.7710   21.1540 C   0  0  0  0  0  0  0  0  0  0  0  0
  -22.4090  -13.0790   22.0520 N   0  0  0  0  0  0  0  0  0  0  0  0
  -22.6490  -14.8050   20.6640 O   0  0  0  0  0  0  0  0  0  0  0  0
  -22.7860  -12.2410   22.4710 H   0  0  0  0  0  0  0  0  0  0  0  0
  -21.4880  -13.3920   22.3260 H   0  0  0  0  0  0  0  0  0  0  0  0
  -25.7150  -15.4160   20.2450 N   0  0  0  0  0  0  0  0  0  0  0  0
  -24.9630  -16.0760   20.4020 H   0  0  0  0  0  0  0  0  0  0  0  0
  -26.5330  -15.8410   19.8280 H   0  0  0  0  0  0  0  0  0  0  0  0
  -28.5730  -25.0720   19.5590 C   0  0  0  0  0  2  0  0  0  0  0  0
  -28.6630  -26.5200   19.9440 O   0  0  0  0  0  0  0  0  0  0  0  0
  -24.6050  -31.6460   23.0620 C   0  0  0  0  0  0  0  0  0  0  0  0
  -27.5050  -27.3280   19.8860 C   0  0  0  0  0  0  0  0  0  0  0  0
  -23.5030  -30.2510   21.3510 C   0  0  0  0  0  3  0  0  0  0  0  0
  -25.0560  -28.8320   19.8930 C   0  0  0  0  0  0  0  0  0  0  0  0
  -26.0270  -30.7010   21.2250 C   0  0  0  0  0  2  0  0  0  0  0  0
  -26.1900  -29.3520   20.5300 C   0  0  0  0  0  0  0  0  0  0  0  0
  -27.4140  -28.6120   20.5180 C   0  0  0  0  0  3  0  0  0  0  0  0
  -26.3430  -26.8740   19.2160 C   0  0  0  0  0  3  0  0  0  0  0  0
  -25.1370  -27.6010   19.2270 C   0  0  0  0  0  3  0  0  0  0  0  0
  -23.7740  -29.6380   19.9520 C   0  0  0  0  0  2  0  0  0  0  0  0
  -24.7290  -30.8840   21.9370 N   0  0  0  0  0  0  0  0  0  0  0  0
  -23.5010  -31.8470   23.5880 O   0  0  0  0  0  0  0  0  0  0  0  0
  -22.8770  -29.1680   22.2610 C   0  0  0  0  0  0  0  0  0  0  0  0
  -21.5570  -28.9540   22.1290 N   0  0  0  0  0  0  0  0  0  0  0  0
  -23.5790  -28.5250   23.0460 O   0  0  0  0  0  0  0  0  0  0  0  0
  -21.0480  -29.5290   21.4720 H   0  0  0  0  0  0  0  0  0  0  0  0
  -18.2110  -27.6740   22.6370 C   0  0  0  0  0  0  0  0  0  0  0  0
  -20.7720  -27.9530   22.8540 C   0  0  0  0  0  3  0  0  0  0  0  0
  -20.8760  -26.5660   22.1790 C   0  0  0  0  0  2  0  0  0  0  0  0
  -19.7520  -26.2970   21.1740 C   0  0  0  0  0  2  0  0  0  0  0  0
  -18.3860  -26.3770   21.8640 C   0  0  0  0  0  2  0  0  0  0  0  0
  -19.3310  -28.4220   23.0890 C   0  0  0  0  0  0  0  0  0  0  0  0
  -19.1120  -29.6370   23.7730 C   0  0  0  0  0  3  0  0  0  0  0  0
  -17.8050  -30.1050   24.0080 C   0  0  0  0  0  3  0  0  0  0  0  0
  -16.7000  -29.3540   23.5720 C   0  0  0  0  0  3  0  0  0  0  0  0
  -16.9030  -28.1390   22.8920 C   0  0  0  0  0  3  0  0  0  0  0  0
  -25.8420  -32.3210   23.7300 C   0  0  0  0  0  3  0  0  0  0  0  0
  -25.4680  -33.7020   24.0680 N   0  0  0  0  0  0  0  0  0  0  0  0
  -25.7560  -34.7750   23.3200 C   0  0  0  0  0  0  0  0  0  0  0  0
  -26.4350  -34.7080   22.2910 O   0  0  0  0  0  0  0  0  0  0  0  0
  -24.8610  -33.8220   24.8650 H   0  0  0  0  0  0  0  0  0  0  0  0
  -23.9410  -36.4850   22.9850 C   0  0  0  0  0  1  0  0  0  0  0  0
  -25.2060  -36.1370   23.7850 C   0  0  0  0  0  3  0  0  0  0  0  0
  -27.2950  -37.1280   24.6110 C   0  0  0  0  0  1  0  0  0  0  0  0
  -26.1850  -37.2400   23.6680 N   0  0  0  0  0  0  0  0  0  0  0  0
  -25.7330  -38.1390   23.8130 H   0  0  0  0  0  0  0  0  0  0  0  0
  -26.3490  -31.5560   25.0150 C   0  0  1  0  0  0  0  0  0  0  0  0
  -25.2330  -31.2600   26.0450 C   0  0  0  0  0  1  0  0  0  0  0  0
  -26.9980  -30.2070   24.6270 C   0  0  0  0  0  1  0  0  0  0  0  0
  -27.4460  -32.3850   25.7220 C   0  0  0  0  0  1  0  0  0  0  0  0
  1  6  2  0
  2  3  1  0
  2  5  1  0
  3  4  1  1
  3  1  1  0
  5  1  1  0
  7  8  1  0
  9 12  1  0
 10  9  2  0
 10 11  1  0
 11  5  1  0
 11  7  2  0
 12  8  2  0
 12 22  1  0
 13 10  1  0
 14 22  1  0
 15 20  1  0
 16 17  1  0
 16 15  1  0
 18 17  1  0
 18 27  1  0
 18 19  1  0
 20 14  1  0
 20 19  1  0
 21 14  2  0
 22 23  1  0
 24 25  2  0
 25 44  1  0
 26 25  1  0
 26 29  1  0
 27 28  1  0
 27 24  1  0
 28 26  2  0
 29 30  1  0
 30 31  2  0
 32 35  1  0
 32 31  1  0
 33 32  2  0
 34 33  1  0
 34 29  2  0
 35 36  1  0
 36 41  2  0
 36 37  1  0
 37 38  2  0
 38 39  1  0
 39 43  1  0
 40 39  2  0
 41 40  1  0
 42 41  1  0
 44 45  1  0
 45 48  1  0
 45 47  1  0
 46 44  2  0
 49 24  1  0
 49 50  1  0
 51 49  1  0
 52 53  1  0
 52  3  1  0
 54 65  2  0
 55 53  1  0
 55 60  1  0
 56 64  1  0
 56 66  1  0
 57 63  1  0
 57 59  1  0
 58 64  1  0
 59 58  1  0
 60 59  2  0
 61 62  1  0
 61 55  2  0
 62 57  2  0
 63 56  1  0
 64 54  1  0
 66 68  2  0
 67 66  1  0
 69 67  1  0
 70 79  2  0
 70 75  1  0
 71 67  1  0
 71 75  1  0
 72 71  1  0
 73 74  1  0
 73 72  1  0
 74 70  1  0
 75 76  2  0
 76 77  1  0
 78 77  2  0
 79 78  1  0
 80 54  1  0
 80 81  1  0
 80 90  1  0
 81 84  1  0
 82 86  1  0
 82 81  1  0
 83 82  2  0
 86 85  1  0
 88 86  1  0
 88 89  1  0
 88 87  1  0
 90 93  1  1
 90 91  1  0
 92 90  1  0
M  ISO  4  14 100  22 100  52 101  53 101
M  END
>  <TORSDO>  (91) 
F 18

>  <SCORE>  (91) 
-13.913

>  <name>  (91) 
90

>  <ligand_id>  (91) 
90

>  <original_smiles>  (91) 
[H]c1c([H])c([H])c2c(c1[H])C([H])([H])C([H])([H])C([H])([H])C2([H])N([H])C(=O)C1([H])N(C(=O)C([H])(N([H])C(=O)C([H])(N([H])C([H])([H])[H])C([H])([H])[H])C(C([H])([H])[H])(C([H])([H])[H])C([H])([H])[H])C([H])([H])c2c([H])c(OC([H])([H])C3(C([H])([H])[H])C(=O)N(c4c([H])c([H])c(N([H])C(=O)N5C([H])([H])C([H])([H])C([H])([H])C([H])(n6nc(-c7c([H])c([H])c(Oc8c([H])c([H])c(F)c([H])c8F)c([H])c7[H])c(C(=O)N([H])[H])c6N([H])[H])C5([H])[H])c([H])c4C([H])([H])[H])C3([H])[H])c([H])c([H])c2C1([H])[H]

>  <smiles>  (91) 
[H]c1c([H])c([H])c2c(c1[H])C([H])([H])C([H])([H])C([H])([H])C2([H])N([H])C(=O)C1([H])N(C(=O)C([H])(N([H])C(=O)C([H])(N([H])C([H])([H])[H])C([H])([H])[H])C(C([H])([H])[H])(C([H])([H])[H])C([H])([H])[H])C([H])([H])c2c([H])c(OC([H])([H])C3(C([H])([H])[H])C(=O)N(c4c([H])c([H])c(N([H])C(=O)N5C([H])([H])C([H])([H])C([H])([H])C([H])(n6nc(-c7c([H])c([H])c(Oc8c([H])c([H])c(F)c([H])c8F)c([H])c7[H])c(C(=O)N([H])[H])c6N([H])[H])C5([H])[H])c([H])c4C([H])([H])[H])C3([H])[H])c([H])c([H])c2C1([H])[H]

$$$$
91:0:0
     RDKit          3D

 96105  0  0  1  0  0  0  0  0999 V2000
  -29.2570  -21.2600   18.6510 C   0  0  0  0  0  2  0  0  0  0  0  0
  -29.8300  -21.7900   20.9290 C   0  0  0  0  0  2  0  0  0  0  0  0
  -29.3860  -19.6880   18.9200 C   0  0  0  0  0  2  0  0  0  0  0  0
  -29.8550  -20.2720   21.3100 C   0  0  0  0  0  2  0  0  0  0  0  0
  -28.7460  -22.0890   19.8760 C   0  0  0  0  0  3  0  0  0  0  0  0
  -30.0090  -19.2860   20.2040 N   0  0  0  0  0  0  0  0  0  0  0  0
  -29.4030  -17.5770   21.8620 C   0  0  0  0  0  2  0  0  0  0  0  0
  -30.0270  -16.6970   22.7750 C   0  0  0  0  0  3  0  0  0  0  0  0
  -31.7790  -16.3080   21.1430 C   0  0  0  0  0  2  0  0  0  0  0  0
  -30.0200  -17.8870   20.6170 C   0  0  0  0  0  3  0  0  0  0  0  0
  -30.9310  -16.8510   20.1460 C   0  0  0  0  0  3  0  0  0  0  0  0
  -31.2760  -16.1490   22.4500 C   0  0  0  0  0  0  0  0  0  0  0  0
  -32.1310  -15.1880   23.6000 Cl  0  0  0  0  0  0  0  0  0  0  0  0
  -31.0280  -14.5850   18.9490 C   0  0  0  0  0  0  0  0  0  0  0  0
  -30.4720  -12.3920   17.8820 C   0  0  0  0  0  2  0  0  0  0  0  0
  -29.2950  -12.5720   16.9000 C   0  0  0  0  0  2  0  0  0  0  0  0
  -27.9520  -12.4360   17.6460 C   0  0  0  0  0  2  0  0  0  0  0  0
  -27.8930  -13.3140   18.9260 C   0  0  0  0  0  3  0  0  0  0  0  0
  -29.1550  -13.0970   19.7890 C   0  0  0  0  0  2  0  0  0  0  0  0
  -30.3130  -13.4160   18.9380 N   0  0  0  0  0  0  0  0  0  0  0  0
  -32.1120  -14.6710   18.3710 O   0  0  0  0  0  0  0  0  0  0  0  0
  -30.3840  -15.7110   19.4090 N   0  0  0  0  0  0  0  0  0  0  0  0
  -29.3910  -15.5910   19.5300 H   0  0  0  0  0  0  0  0  0  0  0  0
  -25.7970  -14.0160   20.2320 C   0  0  0  0  0  0  0  0  0  0  0  0
  -24.7610  -13.2930   20.7570 C   0  0  0  0  0  0  0  0  0  0  0  0
  -25.0550  -11.9230   20.4830 C   0  0  0  0  0  0  0  0  0  0  0  0
  -26.6650  -13.0890   19.6810 N   0  0  0  0  0  0  0  0  0  0  0  0
  -26.2340  -11.8180   19.8860 N   0  0  0  0  0  0  0  0  0  0  0  0
  -24.2540  -10.7130   20.6990 C   0  0  0  0  0  0  0  0  0  0  0  0
  -24.6880   -9.6870   21.5670 C   0  0  0  0  0  3  0  0  0  0  0  0
  -23.8940   -8.5390   21.7760 C   0  0  0  0  0  3  0  0  0  0  0  0
  -22.6490   -8.4120   21.1150 C   0  0  0  0  0  0  0  0  0  0  0  0
  -22.2300   -9.4250   20.2340 C   0  0  0  0  0  3  0  0  0  0  0  0
  -23.0250  -10.5620   20.0250 C   0  0  0  0  0  3  0  0  0  0  0  0
  -21.8180   -7.3270   21.2410 O   0  0  0  0  0  0  0  0  0  0  0  0
  -21.6590   -6.6740   22.4350 C   0  0  0  0  0  0  0  0  0  0  0  0
  -21.1760   -7.3360   23.5850 C   0  0  0  0  0  3  0  0  0  0  0  0
  -20.9690   -6.6140   24.7760 C   0  0  0  0  0  3  0  0  0  0  0  0
  -21.2280   -5.2320   24.8170 C   0  0  0  0  0  0  0  0  0  0  0  0
  -21.7000   -4.5690   23.6710 C   0  0  0  0  0  3  0  0  0  0  0  0
  -21.9120   -5.2880   22.4820 C   0  0  0  0  0  0  0  0  0  0  0  0
  -22.3520   -4.6440   21.3740 F   0  0  0  0  0  0  0  0  0  0  0  0
  -21.0150   -4.5340   25.9570 F   0  0  0  0  0  0  0  0  0  0  0  0
  -23.5170  -13.8460   21.3920 C   0  0  0  0  0  0  0  0  0  0  0  0
  -23.0010  -13.1630   22.4080 N   0  0  0  0  0  0  0  0  0  0  0  0
  -23.0230  -14.9090   21.0170 O   0  0  0  0  0  0  0  0  0  0  0  0
  -23.4170  -12.2990   22.7180 H   0  0  0  0  0  0  0  0  0  0  0  0
  -22.1740  -13.5010   22.8800 H   0  0  0  0  0  0  0  0  0  0  0  0
  -26.0540  -15.3820   20.1620 N   0  0  0  0  0  0  0  0  0  0  0  0
  -25.3870  -16.0610   20.5130 H   0  0  0  0  0  0  0  0  0  0  0  0
  -26.8240  -15.8020   19.6630 H   0  0  0  0  0  0  0  0  0  0  0  0
  -27.0800  -23.6500   21.0230 C   0  0  0  0  0  1  0  0  0  0  0  0
  -27.2550  -23.5840   18.4870 C   0  0  0  0  0  1  0  0  0  0  0  0
  -28.0530  -23.5910   19.8170 C   0  0  2  0  0  0  0  0  0  0  0  0
  -28.9270  -24.9500   19.9200 C   0  0  0  0  0  2  0  0  0  0  0  0
  -28.5840  -26.4120   19.6780 O   0  0  0  0  0  0  0  0  0  0  0  0
  -24.6200  -31.6140   22.9710 C   0  0  0  0  0  0  0  0  0  0  0  0
  -27.3830  -27.1470   19.8100 C   0  0  0  0  0  0  0  0  0  0  0  0
  -23.5070  -30.2660   21.2550 C   0  0  0  0  0  3  0  0  0  0  0  0
  -24.9950  -28.7660   19.8180 C   0  0  0  0  0  0  0  0  0  0  0  0
  -26.0480  -30.5860   21.1710 C   0  0  0  0  0  2  0  0  0  0  0  0
  -26.1470  -29.2340   20.4650 C   0  0  0  0  0  0  0  0  0  0  0  0
  -27.3370  -28.4380   20.4460 C   0  0  0  0  0  3  0  0  0  0  0  0
  -26.1960  -26.7460   19.1640 C   0  0  0  0  0  3  0  0  0  0  0  0
  -25.0240  -27.5280   19.1620 C   0  0  0  0  0  3  0  0  0  0  0  0
  -23.7530  -29.6330   19.8600 C   0  0  0  0  0  2  0  0  0  0  0  0
  -24.7440  -30.8440   21.8490 N   0  0  0  0  0  0  0  0  0  0  0  0
  -23.5130  -31.8580   23.4730 O   0  0  0  0  0  0  0  0  0  0  0  0
  -22.8250  -29.2210   22.1630 C   0  0  0  0  0  0  0  0  0  0  0  0
  -21.5000  -29.2300   22.0670 N   0  0  0  0  0  0  0  0  0  0  0  0
  -23.4640  -28.4310   22.8590 O   0  0  0  0  0  0  0  0  0  0  0  0
  -21.1290  -29.9860   21.5050 H   0  0  0  0  0  0  0  0  0  0  0  0
  -18.0160  -28.0010   22.6590 C   0  0  0  0  0  0  0  0  0  0  0  0
  -20.5050  -28.2500   22.4210 C   0  0  0  0  0  3  0  0  0  0  0  0
  -20.6290  -26.7790   22.0020 C   0  0  0  0  0  2  0  0  0  0  0  0
  -19.4080  -26.4200   21.1280 C   0  0  0  0  0  2  0  0  0  0  0  0
  -18.0700  -26.7060   21.8470 C   0  0  0  0  0  2  0  0  0  0  0  0
  -19.1950  -28.6900   23.0330 C   0  0  0  0  0  0  0  0  0  0  0  0
  -19.1130  -29.8720   23.7970 C   0  0  0  0  0  3  0  0  0  0  0  0
  -17.8560  -30.4030   24.1370 C   0  0  0  0  0  3  0  0  0  0  0  0
  -16.6810  -29.7370   23.7370 C   0  0  0  0  0  3  0  0  0  0  0  0
  -16.7620  -28.5300   23.0170 C   0  0  0  0  0  3  0  0  0  0  0  0
  -25.8670  -32.2390   23.6610 C   0  0  0  0  0  3  0  0  0  0  0  0
  -26.4150  -31.3660   24.8560 C   0  0  1  0  0  0  0  0  0  0  0  0
  -25.3260  -30.9660   25.8800 C   0  0  0  0  0  1  0  0  0  0  0  0
  -27.0760  -30.0660   24.3410 C   0  0  0  0  0  1  0  0  0  0  0  0
  -27.5150  -32.1510   25.6080 C   0  0  0  0  0  1  0  0  0  0  0  0
  -25.4860  -33.5770   24.1310 N   0  0  0  0  0  0  0  0  0  0  0  0
  -25.7470  -34.7140   23.4800 C   0  0  0  0  0  0  0  0  0  0  0  0
  -26.4020  -34.7530   22.4350 O   0  0  0  0  0  0  0  0  0  0  0  0
  -24.8910  -33.6160   24.9450 H   0  0  0  0  0  0  0  0  0  0  0  0
  -23.9070  -36.4290   23.3570 C   0  0  0  0  0  1  0  0  0  0  0  0
  -25.1990  -36.0220   24.0830 C   0  0  0  0  0  3  0  0  0  0  0  0
  -27.2990  -36.9630   24.9380 C   0  0  0  0  0  1  0  0  0  0  0  0
  -26.1650  -37.1420   24.0380 N   0  0  0  0  0  0  0  0  0  0  0  0
  -25.7100  -38.0190   24.2740 H   0  0  0  0  0  0  0  0  0  0  0  0
  1  3  1  0
  1  5  1  0
  2  4  1  0
  5 54  1  0
  5  2  1  0
  6  3  1  0
  6 10  1  0
  6  4  1  0
  7  8  1  0
  9 12  1  0
 10  7  1  0
 11 22  1  0
 11 10  1  0
 11  9  1  0
 12  8  2  0
 12 13  1  0
 14 22  1  0
 15 20  1  0
 16 17  1  0
 16 15  1  0
 18 17  1  0
 18 27  1  0
 18 19  1  0
 20 14  1  0
 20 19  1  0
 21 14  2  0
 22 23  1  0
 24 25  2  0
 25 44  1  0
 26 29  1  0
 26 25  1  0
 27 28  1  0
 27 24  1  0
 28 26  2  0
 29 30  1  0
 30 31  2  0
 32 35  1  0
 32 31  1  0
 33 32  2  0
 34 33  1  0
 34 29  2  0
 35 36  1  0
 36 41  2  0
 36 37  1  0
 37 38  2  0
 38 39  1  0
 39 43  1  0
 40 39  2  0
 41 40  1  0
 42 41  1  0
 44 45  1  0
 45 47  1  0
 45 48  1  0
 46 44  2  0
 49 24  1  0
 49 50  1  0
 51 49  1  0
 54 53  1  6
 54 55  1  0
 54 52  1  0
 56 58  1  0
 56 55  1  0
 57 68  2  0
 58 63  1  0
 59 67  1  0
 59 69  1  0
 60 66  1  0
 60 62  1  0
 61 67  1  0
 62 61  1  0
 63 62  2  0
 64 58  2  0
 65 64  1  0
 65 60  2  0
 66 59  1  0
 67 57  1  0
 69 71  2  0
 70 69  1  0
 72 70  1  0
 73 82  2  0
 73 78  1  0
 74 70  1  0
 74 78  1  0
 75 74  1  0
 76 77  1  0
 76 75  1  0
 77 73  1  0
 78 79  2  0
 79 80  1  0
 81 80  2  0
 82 81  1  0
 83 57  1  0
 83 88  1  0
 83 84  1  0
 84 87  1  1
 84 85  1  0
 86 84  1  0
 88 91  1  0
 89 93  1  0
 89 88  1  0
 90 89  2  0
 93 92  1  0
 95 93  1  0
 95 96  1  0
 95 94  1  0
M  ISO  4  14 100  22 100  55 101  56 101
M  END
>  <TORSDO>  (92) 
F 19

>  <SCORE>  (92) 
-6.156

>  <name>  (92) 
91

>  <ligand_id>  (92) 
91

>  <original_smiles>  (92) 
[H]c1c([H])c([H])c2c(c1[H])C([H])([H])C([H])([H])C([H])([H])C2([H])N([H])C(=O)C1([H])N(C(=O)C([H])(N([H])C(=O)C([H])(N([H])C([H])([H])[H])C([H])([H])[H])C(C([H])([H])[H])(C([H])([H])[H])C([H])([H])[H])C([H])([H])c2c([H])c(OC([H])([H])C(C([H])([H])[H])(C([H])([H])[H])C3([H])C([H])([H])C([H])([H])N(c4c([H])c([H])c(Cl)c([H])c4N([H])C(=O)N4C([H])([H])C([H])([H])C([H])([H])C([H])(n5nc(-c6c([H])c([H])c(Oc7c([H])c([H])c(F)c([H])c7F)c([H])c6[H])c(C(=O)N([H])[H])c5N([H])[H])C4([H])[H])C([H])([H])C3([H])[H])c([H])c([H])c2C1([H])[H]

>  <smiles>  (92) 
[H]c1c([H])c([H])c2c(c1[H])C([H])([H])C([H])([H])C([H])([H])C2([H])N([H])C(=O)C1([H])N(C(=O)C([H])(N([H])C(=O)C([H])(N([H])C([H])([H])[H])C([H])([H])[H])C(C([H])([H])[H])(C([H])([H])[H])C([H])([H])[H])C([H])([H])c2c([H])c(OC([H])([H])C(C([H])([H])[H])(C([H])([H])[H])C3([H])C([H])([H])C([H])([H])N(c4c([H])c([H])c(Cl)c([H])c4N([H])C(=O)N4C([H])([H])C([H])([H])C([H])([H])C([H])(n5nc(-c6c([H])c([H])c(Oc7c([H])c([H])c(F)c([H])c7F)c([H])c6[H])c(C(=O)N([H])[H])c5N([H])[H])C4([H])[H])C([H])([H])C3([H])[H])c([H])c([H])c2C1([H])[H]

$$$$
92:0:0
     RDKit          3D

 96105  0  0  1  0  0  0  0  0999 V2000
  -29.5470  -22.6750   17.9670 C   0  0  0  0  0  0  0  0  0  0  0  0
  -28.8100  -23.1420   20.0640 C   0  0  0  0  0  2  0  0  0  0  0  0
  -28.3670  -24.4930   19.2320 C   0  0  0  0  0  3  0  0  0  0  0  0
  -29.2160  -24.2110   17.9640 C   0  0  1  0  0  0  0  0  0  0  0  0
  -30.5500  -24.9900   18.0140 C   0  0  0  0  0  1  0  0  0  0  0  0
  -28.4480  -24.6020   16.6830 C   0  0  0  0  0  1  0  0  0  0  0  0
  -29.3430  -22.0240   19.1410 N   0  0  0  0  0  0  0  0  0  0  0  0
  -29.9620  -22.1320   16.9370 O   0  0  0  0  0  0  0  0  0  0  0  0
  -30.9090  -19.8760   19.3180 C   0  0  0  0  0  3  0  0  0  0  0  0
  -31.1790  -18.4510   19.4710 C   0  0  0  0  0  3  0  0  0  0  0  0
  -28.6110  -19.5040   19.5530 C   0  0  0  0  0  3  0  0  0  0  0  0
  -28.8590  -18.0660   19.6830 C   0  0  0  0  0  0  0  0  0  0  0  0
  -29.6090  -20.5100   19.3590 C   0  0  0  0  0  0  0  0  0  0  0  0
  -30.1810  -17.4380   19.6790 C   0  0  0  0  0  0  0  0  0  0  0  0
  -30.8920  -14.8020   19.2530 C   0  0  0  0  0  0  0  0  0  0  0  0
  -30.4960  -12.4870   18.2740 C   0  0  0  0  0  2  0  0  0  0  0  0
  -29.4190  -12.5250   17.1640 C   0  0  0  0  0  2  0  0  0  0  0  0
  -28.0120  -12.3770   17.7680 C   0  0  0  0  0  2  0  0  0  0  0  0
  -27.8060  -13.2950   19.0020 C   0  0  0  0  0  3  0  0  0  0  0  0
  -28.9880  -13.2180   19.9910 C   0  0  0  0  0  2  0  0  0  0  0  0
  -30.2100  -13.5800   19.2540 N   0  0  0  0  0  0  0  0  0  0  0  0
  -31.9560  -14.8440   18.6240 O   0  0  0  0  0  0  0  0  0  0  0  0
  -30.8360  -15.7290   21.4150 C   0  0  0  0  0  1  0  0  0  0  0  0
  -30.4490  -15.9360   20.0030 N   0  0  0  0  0  0  0  0  0  0  0  0
  -25.5650  -13.9740   20.0370 C   0  0  0  0  0  0  0  0  0  0  0  0
  -24.5150  -13.2470   20.5210 C   0  0  0  0  0  0  0  0  0  0  0  0
  -24.8980  -11.8760   20.4060 C   0  0  0  0  0  0  0  0  0  0  0  0
  -26.5260  -13.0520   19.6580 N   0  0  0  0  0  0  0  0  0  0  0  0
  -26.1380  -11.7800   19.9400 N   0  0  0  0  0  0  0  0  0  0  0  0
  -24.1290  -10.6500   20.6610 C   0  0  0  0  0  0  0  0  0  0  0  0
  -24.4490   -9.7840   21.7300 C   0  0  0  0  0  3  0  0  0  0  0  0
  -23.6810   -8.6240   21.9650 C   0  0  0  0  0  3  0  0  0  0  0  0
  -22.5780   -8.3210   21.1310 C   0  0  0  0  0  0  0  0  0  0  0  0
  -22.2780   -9.1750   20.0540 C   0  0  0  0  0  3  0  0  0  0  0  0
  -23.0460  -10.3260   19.8190 C   0  0  0  0  0  3  0  0  0  0  0  0
  -21.7920   -7.2030   21.2670 O   0  0  0  0  0  0  0  0  0  0  0  0
  -21.4290   -6.7230   22.5010 C   0  0  0  0  0  0  0  0  0  0  0  0
  -20.7230   -7.5190   23.4300 C   0  0  0  0  0  3  0  0  0  0  0  0
  -20.3090   -6.9660   24.6590 C   0  0  0  0  0  3  0  0  0  0  0  0
  -20.5910   -5.6190   24.9560 C   0  0  0  0  0  0  0  0  0  0  0  0
  -21.2880   -4.8240   24.0290 C   0  0  0  0  0  3  0  0  0  0  0  0
  -21.7030   -5.3750   22.8030 C   0  0  0  0  0  0  0  0  0  0  0  0
  -22.3570   -4.5990   21.9050 F   0  0  0  0  0  0  0  0  0  0  0  0
  -20.1870   -5.0840   26.1310 F   0  0  0  0  0  0  0  0  0  0  0  0
  -23.1930  -13.7930   20.9810 C   0  0  0  0  0  0  0  0  0  0  0  0
  -22.5680  -13.1400   21.9540 N   0  0  0  0  0  0  0  0  0  0  0  0
  -22.7350  -14.8340   20.5150 O   0  0  0  0  0  0  0  0  0  0  0  0
  -22.9550  -12.2980   22.3520 H   0  0  0  0  0  0  0  0  0  0  0  0
  -21.6870  -13.4890   22.3070 H   0  0  0  0  0  0  0  0  0  0  0  0
  -25.7750  -15.3370   19.8690 N   0  0  0  0  0  0  0  0  0  0  0  0
  -25.0960  -15.9890   20.2450 H   0  0  0  0  0  0  0  0  0  0  0  0
  -26.7180  -15.7120   19.9090 H   0  0  0  0  0  0  0  0  0  0  0  0
  -27.6240  -17.2270   19.7130 C   0  0  0  0  0  0  0  0  0  0  0  0
  -26.5130  -17.6380   20.6730 C   0  0  0  0  0  1  0  0  0  0  0  0
  -27.4670  -16.2220   19.0160 O   0  0  0  0  0  0  0  0  0  0  0  0
  -28.3850  -25.9980   19.6810 O   0  0  0  0  0  0  0  0  0  0  0  0
  -24.5480  -31.4650   22.7870 C   0  0  0  0  0  0  0  0  0  0  0  0
  -27.2680  -26.9150   19.6230 C   0  0  0  0  0  0  0  0  0  0  0  0
  -23.3700  -30.0250   21.1700 C   0  0  0  0  0  3  0  0  0  0  0  0
  -24.8500  -28.5430   19.6810 C   0  0  0  0  0  0  0  0  0  0  0  0
  -25.9000  -30.4210   20.9320 C   0  0  0  0  0  2  0  0  0  0  0  0
  -26.0230  -29.0410   20.2620 C   0  0  0  0  0  0  0  0  0  0  0  0
  -27.2280  -28.2410   20.2190 C   0  0  0  0  0  3  0  0  0  0  0  0
  -26.0630  -26.5280   18.9910 C   0  0  0  0  0  3  0  0  0  0  0  0
  -24.8840  -27.3020   19.0300 C   0  0  0  0  0  3  0  0  0  0  0  0
  -23.5810  -29.3740   19.7780 C   0  0  0  0  0  2  0  0  0  0  0  0
  -24.6260  -30.6600   21.6840 N   0  0  0  0  0  0  0  0  0  0  0  0
  -23.4650  -31.6890   23.3510 O   0  0  0  0  0  0  0  0  0  0  0  0
  -22.7750  -28.9750   22.1420 C   0  0  0  0  0  0  0  0  0  0  0  0
  -21.4510  -28.7470   22.0640 N   0  0  0  0  0  0  0  0  0  0  0  0
  -23.5050  -28.3680   22.9300 O   0  0  0  0  0  0  0  0  0  0  0  0
  -20.9150  -29.2910   21.4030 H   0  0  0  0  0  0  0  0  0  0  0  0
  -18.1370  -27.4470   22.7360 C   0  0  0  0  0  0  0  0  0  0  0  0
  -20.7020  -27.7660   22.8520 C   0  0  0  0  0  3  0  0  0  0  0  0
  -20.8000  -26.3560   22.2240 C   0  0  0  0  0  2  0  0  0  0  0  0
  -19.6440  -26.0380   21.2700 C   0  0  0  0  0  2  0  0  0  0  0  0
  -18.3020  -26.1270   22.0020 C   0  0  0  0  0  2  0  0  0  0  0  0
  -19.2620  -28.2240   23.1210 C   0  0  0  0  0  0  0  0  0  0  0  0
  -19.0500  -29.4600   23.7710 C   0  0  0  0  0  3  0  0  0  0  0  0
  -17.7460  -29.9180   24.0380 C   0  0  0  0  0  3  0  0  0  0  0  0
  -16.6370  -29.1380   23.6670 C   0  0  0  0  0  3  0  0  0  0  0  0
  -16.8340  -27.9050   23.0210 C   0  0  0  0  0  3  0  0  0  0  0  0
  -25.8110  -32.1600   23.3810 C   0  0  0  0  0  3  0  0  0  0  0  0
  -25.4160  -33.5080   23.8180 N   0  0  0  0  0  0  0  0  0  0  0  0
  -25.6330  -34.6330   23.1230 C   0  0  0  0  0  0  0  0  0  0  0  0
  -26.2530  -34.6480   22.0570 O   0  0  0  0  0  0  0  0  0  0  0  0
  -24.8540  -33.5640   24.6550 H   0  0  0  0  0  0  0  0  0  0  0  0
  -23.7680  -36.3170   22.9800 C   0  0  0  0  0  1  0  0  0  0  0  0
  -25.0760  -35.9490   23.7000 C   0  0  0  0  0  3  0  0  0  0  0  0
  -27.1780  -36.9370   24.4990 C   0  0  0  0  0  1  0  0  0  0  0  0
  -26.0250  -37.0800   23.6140 N   0  0  0  0  0  0  0  0  0  0  0  0
  -25.5610  -37.9580   23.8360 H   0  0  0  0  0  0  0  0  0  0  0  0
  -26.4530  -31.3590   24.5810 C   0  0  1  0  0  0  0  0  0  0  0  0
  -25.4410  -30.9760   25.6850 C   0  0  0  0  0  1  0  0  0  0  0  0
  -27.1170  -30.0560   24.0800 C   0  0  0  0  0  1  0  0  0  0  0  0
  -27.5740  -32.2030   25.2320 C   0  0  0  0  0  1  0  0  0  0  0  0
  1  7  1  0
  3 56  1  0
  3  2  1  0
  4  1  1  0
  4  5  1  1
  4  3  1  0
  6  4  1  0
  7 13  1  0
  7  2  1  0
  8  1  2  0
  9 13  2  0
  9 10  1  0
 10 14  2  0
 11 12  2  0
 12 53  1  0
 13 11  1  0
 14 12  1  0
 14 24  1  0
 15 21  1  0
 15 24  1  0
 16 21  1  0
 17 18  1  0
 17 16  1  0
 19 18  1  0
 19 28  1  0
 19 20  1  0
 21 20  1  0
 22 15  2  0
 24 23  1  0
 25 26  2  0
 26 45  1  0
 27 26  1  0
 27 30  1  0
 28 29  1  0
 28 25  1  0
 29 27  2  0
 30 31  1  0
 31 32  2  0
 33 36  1  0
 33 32  1  0
 34 33  2  0
 35 34  1  0
 35 30  2  0
 36 37  1  0
 37 42  2  0
 37 38  1  0
 38 39  2  0
 39 40  1  0
 40 44  1  0
 41 40  2  0
 42 41  1  0
 43 42  1  0
 45 46  1  0
 46 49  1  0
 46 48  1  0
 47 45  2  0
 50 52  1  0
 50 25  1  0
 50 51  1  0
 53 54  1  0
 55 53  2  0
 57 68  2  0
 58 56  1  0
 58 63  1  0
 59 67  1  0
 59 69  1  0
 60 66  1  0
 60 62  1  0
 61 67  1  0
 62 61  1  0
 63 62  2  0
 64 65  1  0
 64 58  2  0
 65 60  2  0
 66 59  1  0
 67 57  1  0
 69 71  2  0
 70 69  1  0
 72 70  1  0
 73 82  2  0
 73 78  1  0
 74 70  1  0
 74 78  1  0
 75 74  1  0
 76 77  1  0
 76 75  1  0
 77 73  1  0
 78 79  2  0
 79 80  1  0
 81 80  2  0
 82 81  1  0
 83 57  1  0
 83 84  1  0
 83 93  1  0
 84 87  1  0
 85 89  1  0
 85 84  1  0
 86 85  2  0
 89 88  1  0
 91 89  1  0
 91 92  1  0
 91 90  1  0
 93 96  1  1
 93 94  1  0
 95 93  1  0
M  ISO  4   3 101  15 100  24 100  56 101
M  END
>  <TORSDO>  (93) 
F 18

>  <SCORE>  (93) 
-10.954

>  <name>  (93) 
92

>  <ligand_id>  (93) 
92

>  <original_smiles>  (93) 
[H]c1c([H])c([H])c2c(c1[H])C([H])([H])C([H])([H])C([H])([H])C2([H])N([H])C(=O)C1([H])N(C(=O)C([H])(N([H])C(=O)C([H])(N([H])C([H])([H])[H])C([H])([H])[H])C(C([H])([H])[H])(C([H])([H])[H])C([H])([H])[H])C([H])([H])c2c([H])c(OC3([H])C([H])([H])N(c4c([H])c([H])c(N(C(=O)N5C([H])([H])C([H])([H])C([H])([H])C([H])(n6nc(-c7c([H])c([H])c(Oc8c([H])c([H])c(F)c([H])c8F)c([H])c7[H])c(C(=O)N([H])[H])c6N([H])[H])C5([H])[H])C([H])([H])[H])c(C(=O)C([H])([H])[H])c4[H])C(=O)C3(C([H])([H])[H])C([H])([H])[H])c([H])c([H])c2C1([H])[H]

>  <smiles>  (93) 
[H]c1c([H])c([H])c2c(c1[H])C([H])([H])C([H])([H])C([H])([H])C2([H])N([H])C(=O)C1([H])N(C(=O)C([H])(N([H])C(=O)C([H])(N([H])C([H])([H])[H])C([H])([H])[H])C(C([H])([H])[H])(C([H])([H])[H])C([H])([H])[H])C([H])([H])c2c([H])c(OC3([H])C([H])([H])N(c4c([H])c([H])c(N(C(=O)N5C([H])([H])C([H])([H])C([H])([H])C([H])(n6nc(-c7c([H])c([H])c(Oc8c([H])c([H])c(F)c([H])c8F)c([H])c7[H])c(C(=O)N([H])[H])c6N([H])[H])C5([H])[H])C([H])([H])[H])c(C(=O)C([H])([H])[H])c4[H])C(=O)C3(C([H])([H])[H])C([H])([H])[H])c([H])c([H])c2C1([H])[H]

$$$$
93:0:0
     RDKit          3D

 99107  0  0  1  0  0  0  0  0999 V2000
  -29.1930  -23.2550   21.1290 C   0  0  0  0  0  0  0  0  0  0  0  0
  -29.1500  -21.9890   20.6270 N   0  0  0  0  0  0  0  0  0  0  0  0
  -29.7730  -23.5490   22.1720 O   0  0  0  0  0  0  0  0  0  0  0  0
  -28.6720  -21.8850   19.7410 H   0  0  0  0  0  0  0  0  0  0  0  0
  -31.0330  -19.4820   22.7550 C   0  0  0  0  0  3  0  0  0  0  0  0
  -30.5300  -20.7100   22.2970 C   0  0  0  0  0  3  0  0  0  0  0  0
  -29.4070  -19.5420   20.5050 C   0  0  0  0  0  3  0  0  0  0  0  0
  -30.7470  -18.2690   22.0910 C   0  0  0  0  0  0  0  0  0  0  0  0
  -29.9060  -18.2730   20.9380 C   0  0  0  0  0  0  0  0  0  0  0  0
  -29.6990  -20.7650   21.1600 C   0  0  0  0  0  0  0  0  0  0  0  0
  -31.4190  -17.0160   22.6290 C   0  0  0  0  0  1  0  0  0  0  0  0
  -29.6120  -17.0110   20.0680 C   0  0  0  0  0  3  0  0  0  0  0  0
  -30.3780  -14.6350   20.2440 C   0  0  0  0  0  0  0  0  0  0  0  0
  -30.1080  -12.4750   19.0890 C   0  0  0  0  0  2  0  0  0  0  0  0
  -29.1000  -12.6760   17.9380 C   0  0  0  0  0  2  0  0  0  0  0  0
  -27.6570  -12.4650   18.4330 C   0  0  0  0  0  2  0  0  0  0  0  0
  -27.3470  -13.2630   19.7270 C   0  0  0  0  0  3  0  0  0  0  0  0
  -28.4620  -13.0740   20.7810 C   0  0  0  0  0  2  0  0  0  0  0  0
  -29.7510  -13.4270   20.1570 N   0  0  0  0  0  0  0  0  0  0  0  0
  -31.4820  -14.8380   19.7310 O   0  0  0  0  0  0  0  0  0  0  0  0
  -29.6240  -15.6630   20.6910 N   0  0  0  0  0  0  0  0  0  0  0  0
  -28.7670  -15.3920   21.1470 H   0  0  0  0  0  0  0  0  0  0  0  0
  -24.9670  -13.7580   20.5640 C   0  0  0  0  0  0  0  0  0  0  0  0
  -23.9470  -12.9360   20.9620 C   0  0  0  0  0  0  0  0  0  0  0  0
  -24.4550  -11.6020   20.8700 C   0  0  0  0  0  0  0  0  0  0  0  0
  -26.0300  -12.9240   20.2590 N   0  0  0  0  0  0  0  0  0  0  0  0
  -25.7290  -11.6230   20.5030 N   0  0  0  0  0  0  0  0  0  0  0  0
  -23.7850  -10.3080   21.0570 C   0  0  0  0  0  0  0  0  0  0  0  0
  -24.2680   -9.3510   21.9760 C   0  0  0  0  0  3  0  0  0  0  0  0
  -23.5900   -8.1270   22.1560 C   0  0  0  0  0  3  0  0  0  0  0  0
  -22.4190   -7.8480   21.4130 C   0  0  0  0  0  0  0  0  0  0  0  0
  -21.9530   -8.7970   20.4860 C   0  0  0  0  0  3  0  0  0  0  0  0
  -22.6310  -10.0130   20.3030 C   0  0  0  0  0  3  0  0  0  0  0  0
  -21.7130   -6.6710   21.4970 O   0  0  0  0  0  0  0  0  0  0  0  0
  -21.6860   -5.9290   22.6510 C   0  0  0  0  0  0  0  0  0  0  0  0
  -21.2190   -6.4650   23.8700 C   0  0  0  0  0  3  0  0  0  0  0  0
  -21.1450   -5.6480   25.0160 C   0  0  0  0  0  3  0  0  0  0  0  0
  -21.5310   -4.2960   24.9440 C   0  0  0  0  0  0  0  0  0  0  0  0
  -21.9920   -3.7590   23.7270 C   0  0  0  0  0  3  0  0  0  0  0  0
  -22.0680   -4.5740   22.5840 C   0  0  0  0  0  0  0  0  0  0  0  0
  -22.4910   -4.0460   21.4100 F   0  0  0  0  0  0  0  0  0  0  0  0
  -21.4540   -3.5080   26.0410 F   0  0  0  0  0  0  0  0  0  0  0  0
  -22.5490  -13.3540   21.3150 C   0  0  0  0  0  0  0  0  0  0  0  0
  -21.8920  -12.6110   22.1980 N   0  0  0  0  0  0  0  0  0  0  0  0
  -22.0480  -14.3740   20.8420 O   0  0  0  0  0  0  0  0  0  0  0  0
  -22.3120  -11.7860   22.6010 H   0  0  0  0  0  0  0  0  0  0  0  0
  -20.9570  -12.8720   22.4810 H   0  0  0  0  0  0  0  0  0  0  0  0
  -25.0720  -15.1380   20.4150 N   0  0  0  0  0  0  0  0  0  0  0  0
  -24.2850  -15.7560   20.5760 H   0  0  0  0  0  0  0  0  0  0  0  0
  -25.8770  -15.6130   20.0300 H   0  0  0  0  0  0  0  0  0  0  0  0
  -28.1190  -17.3170   18.0340 C   0  0  0  0  0  2  0  0  0  0  0  0
  -28.2740  -17.1190   19.3530 C   0  0  0  0  0  3  0  0  0  0  0  0
  -28.4080  -24.3660   20.3880 C   0  0  0  0  0  3  0  0  0  0  0  0
  -26.9760  -23.9960   20.3920 N   0  0  0  0  0  4  0  0  0  0  0  0
  -26.6610  -23.8920   21.3440 H   0  0  0  0  0  0  0  0  0  0  0  0
  -26.8440  -23.1130   19.9320 H   0  0  0  0  0  0  0  0  0  0  0  0
  -26.4070  -24.6800   19.9300 H   0  0  0  0  0  0  0  0  0  0  0  0
  -28.6330  -25.7890   21.0140 C   0  0  0  0  0  2  0  0  0  0  0  0
  -28.4650  -26.8900   20.1060 O   0  0  0  0  0  0  0  0  0  0  0  0
  -24.6160  -32.0100   23.2990 C   0  0  0  0  0  0  0  0  0  0  0  0
  -27.2890  -27.5980   20.1990 C   0  0  0  0  0  0  0  0  0  0  0  0
  -23.4180  -30.6070   21.6550 C   0  0  0  0  0  3  0  0  0  0  0  0
  -24.8830  -29.0790   20.2290 C   0  0  0  0  0  0  0  0  0  0  0  0
  -25.9400  -30.9880   21.4500 C   0  0  0  0  0  2  0  0  0  0  0  0
  -26.0370  -29.6120   20.8170 C   0  0  0  0  0  0  0  0  0  0  0  0
  -27.2430  -28.8750   20.8090 C   0  0  0  0  0  3  0  0  0  0  0  0
  -26.1260  -27.0840   19.5940 C   0  0  0  0  0  3  0  0  0  0  0  0
  -24.9210  -27.8120   19.6180 C   0  0  0  0  0  3  0  0  0  0  0  0
  -23.6290  -29.9250   20.2770 C   0  0  0  0  0  2  0  0  0  0  0  0
  -24.6780  -31.2160   22.1920 N   0  0  0  0  0  0  0  0  0  0  0  0
  -23.5330  -32.2690   23.8430 O   0  0  0  0  0  0  0  0  0  0  0  0
  -22.7760  -29.5790   22.6110 C   0  0  0  0  0  0  0  0  0  0  0  0
  -21.4550  -29.3760   22.4750 N   0  0  0  0  0  0  0  0  0  0  0  0
  -23.4640  -28.9590   23.4260 O   0  0  0  0  0  0  0  0  0  0  0  0
  -20.9600  -29.9260   21.7870 H   0  0  0  0  0  0  0  0  0  0  0  0
  -18.0970  -28.1370   22.9600 C   0  0  0  0  0  0  0  0  0  0  0  0
  -20.6480  -28.4260   23.2420 C   0  0  0  0  0  3  0  0  0  0  0  0
  -20.7730  -26.9980   22.6630 C   0  0  0  0  0  2  0  0  0  0  0  0
  -19.6800  -26.6630   21.6450 C   0  0  0  0  0  2  0  0  0  0  0  0
  -18.2920  -26.7920   22.2820 C   0  0  0  0  0  2  0  0  0  0  0  0
  -19.2040  -28.9110   23.3960 C   0  0  0  0  0  0  0  0  0  0  0  0
  -18.9710  -30.1690   23.9880 C   0  0  0  0  0  3  0  0  0  0  0  0
  -17.6610  -30.6590   24.1490 C   0  0  0  0  0  3  0  0  0  0  0  0
  -16.5660  -29.8820   23.7300 C   0  0  0  0  0  3  0  0  0  0  0  0
  -16.7860  -28.6230   23.1430 C   0  0  0  0  0  3  0  0  0  0  0  0
  -25.8990  -32.6480   23.9180 C   0  0  0  0  0  3  0  0  0  0  0  0
  -25.5890  -34.0490   24.2350 N   0  0  0  0  0  0  0  0  0  0  0  0
  -25.9020  -35.0930   23.4570 C   0  0  0  0  0  0  0  0  0  0  0  0
  -26.5640  -34.9810   22.4210 O   0  0  0  0  0  0  0  0  0  0  0  0
  -24.9990  -34.2110   25.0380 H   0  0  0  0  0  0  0  0  0  0  0  0
  -24.1520  -36.8640   23.1090 C   0  0  0  0  0  1  0  0  0  0  0  0
  -25.4110  -36.4830   23.9020 C   0  0  0  0  0  3  0  0  0  0  0  0
  -27.5440  -37.4040   24.6830 C   0  0  0  0  0  1  0  0  0  0  0  0
  -26.4270  -37.5450   23.7550 N   0  0  0  0  0  0  0  0  0  0  0  0
  -26.0120  -38.4610   23.8960 H   0  0  0  0  0  0  0  0  0  0  0  0
  -26.4130  -31.8870   25.2000 C   0  0  1  0  0  0  0  0  0  0  0  0
  -25.3140  -31.6450   26.2620 C   0  0  0  0  0  1  0  0  0  0  0  0
  -27.0140  -30.5140   24.8170 C   0  0  0  0  0  1  0  0  0  0  0  0
  -27.5520  -32.6960   25.8640 C   0  0  0  0  0  1  0  0  0  0  0  0
  1  3  2  0
  2  1  1  0
  2 10  1  0
  4  2  1  0
  6  5  1  0
  7  9  2  0
  7 10  1  0
  8 11  1  0
  8  5  2  0
  9  8  1  0
 10  6  2  0
 12 52  1  0
 12 21  1  0
 12  9  1  0
 13 21  1  0
 14 19  1  0
 15 16  1  0
 15 14  1  0
 17 16  1  0
 17 26  1  0
 17 18  1  0
 19 13  1  0
 19 18  1  0
 20 13  2  0
 21 22  1  0
 23 24  2  0
 24 43  1  0
 25 24  1  0
 25 28  1  0
 26 27  1  0
 26 23  1  0
 27 25  2  0
 28 29  1  0
 29 30  2  0
 31 34  1  0
 31 30  1  0
 32 31  2  0
 33 32  1  0
 33 28  2  0
 34 35  1  0
 35 36  1  0
 36 37  2  0
 38 37  1  0
 38 42  1  0
 39 38  2  0
 40 35  2  0
 40 39  1  0
 41 40  1  0
 43 44  1  0
 44 47  1  0
 44 46  1  0
 45 43  2  0
 48 23  1  0
 48 49  1  0
 50 48  1  0
 51 52  2  0
 53 54  1  0
 53 58  1  0
 53  1  1  0
 54 55  1  0
 56 54  1  0
 57 54  1  0
 59 61  1  0
 59 58  1  0
 60 71  2  0
 61 66  1  0
 62 70  1  0
 62 72  1  0
 63 69  1  0
 63 65  1  0
 64 70  1  0
 65 64  1  0
 66 65  2  0
 67 68  1  0
 67 61  2  0
 68 63  2  0
 69 62  1  0
 70 60  1  0
 72 74  2  0
 73 72  1  0
 75 73  1  0
 76 85  2  0
 76 81  1  0
 77 73  1  0
 77 81  1  0
 78 77  1  0
 79 80  1  0
 79 78  1  0
 80 76  1  0
 81 82  2  0
 82 83  1  0
 84 83  2  0
 85 84  1  0
 86 60  1  0
 86 87  1  0
 86 96  1  0
 87 90  1  0
 88 92  1  0
 88 87  1  0
 89 88  2  0
 92 91  1  0
 94 95  1  0
 94 92  1  0
 94 93  1  0
 96 99  1  1
 96 97  1  0
 98 96  1  0
M  ISO  4  13 100  21 100  58 101  59 101
M  END
>  <TORSDO>  (94) 
F 22

>  <SCORE>  (94) 
-12.659

>  <name>  (94) 
93

>  <ligand_id>  (94) 
93

>  <original_smiles>  (94) 
[H]C([H])=C([H])C([H])(c1c([H])c(N([H])C(=O)C([H])(C([H])([H])Oc2c([H])c([H])c3c(c2[H])C([H])([H])N(C(=O)C([H])(N([H])C(=O)C([H])(N([H])C([H])([H])[H])C([H])([H])[H])C(C([H])([H])[H])(C([H])([H])[H])C([H])([H])[H])C([H])(C(=O)N([H])C2([H])c4c([H])c([H])c([H])c([H])c4C([H])([H])C([H])([H])C2([H])[H])C3([H])[H])[N+]([H])([H])[H])c([H])c([H])c1C([H])([H])[H])N([H])C(=O)N1C([H])([H])C([H])([H])C([H])([H])C([H])(n2nc(-c3c([H])c([H])c(Oc4c([H])c([H])c(F)c([H])c4F)c([H])c3[H])c(C(=O)N([H])[H])c2N([H])[H])C1([H])[H]

>  <smiles>  (94) 
[H]C([H])=C([H])C([H])(c1c([H])c(N([H])C(=O)C([H])(C([H])([H])Oc2c([H])c([H])c3c(c2[H])C([H])([H])N(C(=O)C([H])(N([H])C(=O)C([H])(N([H])C([H])([H])[H])C([H])([H])[H])C(C([H])([H])[H])(C([H])([H])[H])C([H])([H])[H])C([H])(C(=O)N([H])C2([H])c4c([H])c([H])c([H])c([H])c4C([H])([H])C([H])([H])C2([H])[H])C3([H])[H])[N+]([H])([H])[H])c([H])c([H])c1C([H])([H])[H])N([H])C(=O)N1C([H])([H])C([H])([H])C([H])([H])C([H])(n2nc(-c3c([H])c([H])c(Oc4c([H])c([H])c(F)c([H])c4F)c([H])c3[H])c(C(=O)N([H])[H])c2N([H])[H])C1([H])[H]

$$$$
94:0:0
     RDKit          3D

 93102  0  0  1  0  0  0  0  0999 V2000
  -29.9800  -22.2730   18.8730 C   0  0  0  0  0  0  0  0  0  0  0  0
  -29.1110  -22.5080   21.0090 C   0  0  0  0  0  2  0  0  0  0  0  0
  -29.3810  -23.9500   20.4330 C   0  0  0  0  0  3  0  0  0  0  0  0
  -29.6510  -21.5490   20.0200 N   0  0  0  0  0  0  0  0  0  0  0  0
  -30.4370  -21.8590   17.8060 O   0  0  0  0  0  0  0  0  0  0  0  0
  -29.7090  -23.5890   19.0960 O   0  0  0  0  0  0  0  0  0  0  0  0
  -30.0070  -19.5010   21.4790 C   0  0  0  0  0  3  0  0  0  0  0  0
  -30.1980  -18.0980   21.6580 C   0  0  0  0  0  3  0  0  0  0  0  0
  -29.8040  -19.1430   19.1360 C   0  0  0  0  0  3  0  0  0  0  0  0
  -29.9700  -17.7260   19.3030 C   0  0  0  0  0  0  0  0  0  0  0  0
  -29.8210  -20.0860   20.2050 C   0  0  0  0  0  0  0  0  0  0  0  0
  -30.2080  -17.1380   20.5920 C   0  0  0  0  0  0  0  0  0  0  0  0
  -29.8460  -16.8820   18.0440 C   0  0  0  0  0  1  0  0  0  0  0  0
  -30.8910  -14.6900   20.0560 C   0  0  0  0  0  0  0  0  0  0  0  0
  -30.5160  -12.5150   18.8770 C   0  0  0  0  0  2  0  0  0  0  0  0
  -29.4980  -12.6900   17.7300 C   0  0  0  0  0  2  0  0  0  0  0  0
  -28.0580  -12.5110   18.2520 C   0  0  0  0  0  2  0  0  0  0  0  0
  -27.7890  -13.3230   19.5450 C   0  0  0  0  0  3  0  0  0  0  0  0
  -28.9200  -13.1430   20.5750 C   0  0  0  0  0  2  0  0  0  0  0  0
  -30.1950  -13.5060   19.9290 N   0  0  0  0  0  0  0  0  0  0  0  0
  -31.9420  -14.8640   19.4340 O   0  0  0  0  0  0  0  0  0  0  0  0
  -30.5580  -15.3150   22.3150 C   0  0  0  0  0  1  0  0  0  0  0  0
  -30.4030  -15.6810   20.8920 N   0  0  0  0  0  0  0  0  0  0  0  0
  -25.4520  -13.8730   20.4580 C   0  0  0  0  0  0  0  0  0  0  0  0
  -24.4200  -13.0810   20.8800 C   0  0  0  0  0  0  0  0  0  0  0  0
  -24.8860  -11.7340   20.7760 C   0  0  0  0  0  0  0  0  0  0  0  0
  -26.4810  -13.0100   20.1190 N   0  0  0  0  0  0  0  0  0  0  0  0
  -26.1520  -11.7160   20.3690 N   0  0  0  0  0  0  0  0  0  0  0  0
  -24.1830  -10.4600   20.9840 C   0  0  0  0  0  0  0  0  0  0  0  0
  -24.6200   -9.5220   21.9450 C   0  0  0  0  0  3  0  0  0  0  0  0
  -23.9160   -8.3140   22.1380 C   0  0  0  0  0  3  0  0  0  0  0  0
  -22.7590   -8.0350   21.3700 C   0  0  0  0  0  0  0  0  0  0  0  0
  -22.3410   -8.9620   20.3990 C   0  0  0  0  0  3  0  0  0  0  0  0
  -23.0470  -10.1610   20.2040 C   0  0  0  0  0  3  0  0  0  0  0  0
  -22.0270   -6.8770   21.4710 O   0  0  0  0  0  0  0  0  0  0  0  0
  -21.8820   -6.2190   22.6670 C   0  0  0  0  0  0  0  0  0  0  0  0
  -21.3170   -6.8450   23.7980 C   0  0  0  0  0  3  0  0  0  0  0  0
  -21.1220   -6.1110   24.9840 C   0  0  0  0  0  3  0  0  0  0  0  0
  -21.4820   -4.7520   25.0400 C   0  0  0  0  0  0  0  0  0  0  0  0
  -22.0390   -4.1250   23.9110 C   0  0  0  0  0  3  0  0  0  0  0  0
  -22.2370   -4.8570   22.7280 C   0  0  0  0  0  0  0  0  0  0  0  0
  -22.7550   -4.2420   21.6380 F   0  0  0  0  0  0  0  0  0  0  0  0
  -21.2870   -4.0440   26.1770 F   0  0  0  0  0  0  0  0  0  0  0  0
  -23.0430  -13.5390   21.2650 C   0  0  0  0  0  0  0  0  0  0  0  0
  -22.3950  -12.8340   22.1860 N   0  0  0  0  0  0  0  0  0  0  0  0
  -22.5520  -14.5590   20.7840 O   0  0  0  0  0  0  0  0  0  0  0  0
  -22.8050  -12.0090   22.5990 H   0  0  0  0  0  0  0  0  0  0  0  0
  -21.4770  -13.1280   22.4860 H   0  0  0  0  0  0  0  0  0  0  0  0
  -25.5960  -15.2500   20.3170 N   0  0  0  0  0  0  0  0  0  0  0  0
  -24.8370  -15.8920   20.5180 H   0  0  0  0  0  0  0  0  0  0  0  0
  -26.4220  -15.7160   19.9620 H   0  0  0  0  0  0  0  0  0  0  0  0
  -28.2210  -25.0450   20.5310 C   0  0  0  0  0  2  0  0  0  0  0  0
  -28.4840  -26.4940   20.2940 O   0  0  0  0  0  0  0  0  0  0  0  0
  -24.6910  -31.9040   23.2240 C   0  0  0  0  0  0  0  0  0  0  0  0
  -27.3650  -27.3450   20.2270 C   0  0  0  0  0  0  0  0  0  0  0  0
  -23.5090  -30.4780   21.5930 C   0  0  0  0  0  3  0  0  0  0  0  0
  -24.9840  -28.9340   20.1860 C   0  0  0  0  0  0  0  0  0  0  0  0
  -26.0460  -30.8220   21.4180 C   0  0  0  0  0  2  0  0  0  0  0  0
  -26.1440  -29.4380   20.7860 C   0  0  0  0  0  0  0  0  0  0  0  0
  -27.3380  -28.6550   20.8010 C   0  0  0  0  0  3  0  0  0  0  0  0
  -26.1850  -26.9060   19.5830 C   0  0  0  0  0  3  0  0  0  0  0  0
  -25.0060  -27.6730   19.5740 C   0  0  0  0  0  3  0  0  0  0  0  0
  -23.7360  -29.7920   20.2210 C   0  0  0  0  0  2  0  0  0  0  0  0
  -24.7670  -31.0860   22.1340 N   0  0  0  0  0  0  0  0  0  0  0  0
  -23.6020  -32.1730   23.7530 O   0  0  0  0  0  0  0  0  0  0  0  0
  -22.8560  -29.4600   22.5590 C   0  0  0  0  0  0  0  0  0  0  0  0
  -21.5320  -29.2670   22.4300 N   0  0  0  0  0  0  0  0  0  0  0  0
  -23.5390  -28.8490   23.3840 O   0  0  0  0  0  0  0  0  0  0  0  0
  -21.0400  -29.8120   21.7350 H   0  0  0  0  0  0  0  0  0  0  0  0
  -18.1660  -28.0410   22.9320 C   0  0  0  0  0  0  0  0  0  0  0  0
  -20.7210  -28.3290   23.2070 C   0  0  0  0  0  3  0  0  0  0  0  0
  -20.8390  -26.8930   22.6450 C   0  0  0  0  0  2  0  0  0  0  0  0
  -19.7430  -26.5500   21.6300 C   0  0  0  0  0  2  0  0  0  0  0  0
  -18.3580  -26.6880   22.2690 C   0  0  0  0  0  2  0  0  0  0  0  0
  -19.2760  -28.8180   23.3590 C   0  0  0  0  0  0  0  0  0  0  0  0
  -19.0440  -30.0850   23.9390 C   0  0  0  0  0  3  0  0  0  0  0  0
  -17.7340  -30.5740   24.0970 C   0  0  0  0  0  3  0  0  0  0  0  0
  -16.6380  -29.7950   23.6880 C   0  0  0  0  0  3  0  0  0  0  0  0
  -16.8550  -28.5310   23.1100 C   0  0  0  0  0  3  0  0  0  0  0  0
  -25.9650  -32.5560   23.8450 C   0  0  0  0  0  3  0  0  0  0  0  0
  -25.6280  -33.9460   24.1870 N   0  0  0  0  0  0  0  0  0  0  0  0
  -25.9400  -35.0100   23.4360 C   0  0  0  0  0  0  0  0  0  0  0  0
  -26.6100  -34.9280   22.4030 O   0  0  0  0  0  0  0  0  0  0  0  0
  -25.0300  -34.0800   24.9880 H   0  0  0  0  0  0  0  0  0  0  0  0
  -24.1840  -36.7790   23.0930 C   0  0  0  0  0  1  0  0  0  0  0  0
  -25.4280  -36.3860   23.9060 C   0  0  0  0  0  3  0  0  0  0  0  0
  -27.5440  -37.2970   24.7550 C   0  0  0  0  0  1  0  0  0  0  0  0
  -26.4430  -37.4580   23.8090 N   0  0  0  0  0  0  0  0  0  0  0  0
  -26.0190  -38.3690   23.9660 H   0  0  0  0  0  0  0  0  0  0  0  0
  -26.5010  -31.7860   25.1150 C   0  0  1  0  0  0  0  0  0  0  0  0
  -25.4150  -31.5200   26.1830 C   0  0  0  0  0  1  0  0  0  0  0  0
  -27.1100  -30.4220   24.7120 C   0  0  0  0  0  1  0  0  0  0  0  0
  -27.6370  -32.5990   25.7780 C   0  0  0  0  0  1  0  0  0  0  0  0
  1  6  1  0
  1  4  1  0
  3 52  1  0
  3  2  1  0
  4 11  1  0
  4  2  1  0
  5  1  2  0
  6  3  1  0
  7  8  1  0
  9 10  2  0
  9 11  1  0
 10 12  1  0
 11  7  2  0
 12 23  1  0
 12  8  2  0
 13 10  1  0
 14 23  1  0
 15 20  1  0
 16 17  1  0
 16 15  1  0
 18 17  1  0
 18 27  1  0
 18 19  1  0
 20 14  1  0
 20 19  1  0
 21 14  2  0
 23 22  1  0
 24 25  2  0
 25 44  1  0
 26 25  1  0
 26 29  1  0
 27 28  1  0
 27 24  1  0
 28 26  2  0
 29 30  1  0
 30 31  2  0
 32 35  1  0
 32 31  1  0
 33 32  2  0
 34 33  1  0
 34 29  2  0
 35 36  1  0
 36 41  2  0
 36 37  1  0
 37 38  2  0
 38 39  1  0
 39 43  1  0
 40 39  2  0
 41 40  1  0
 42 41  1  0
 44 45  1  0
 45 48  1  0
 45 47  1  0
 46 44  2  0
 49 24  1  0
 49 50  1  0
 51 49  1  0
 53 52  1  0
 54 65  2  0
 55 53  1  0
 55 60  1  0
 56 64  1  0
 56 66  1  0
 57 63  1  0
 57 59  1  0
 58 64  1  0
 59 60  2  0
 59 58  1  0
 61 55  2  0
 62 61  1  0
 62 57  2  0
 63 56  1  0
 64 54  1  0
 66 68  2  0
 67 66  1  0
 69 67  1  0
 70 79  2  0
 70 75  1  0
 71 67  1  0
 71 75  1  0
 72 71  1  0
 73 74  1  0
 73 72  1  0
 74 70  1  0
 75 76  2  0
 76 77  1  0
 78 77  2  0
 79 78  1  0
 80 54  1  0
 80 81  1  0
 80 90  1  0
 81 84  1  0
 82 86  1  0
 82 81  1  0
 83 82  2  0
 86 85  1  0
 88 86  1  0
 88 89  1  0
 88 87  1  0
 90 93  1  1
 90 91  1  0
 92 90  1  0
M  ISO  4  14 100  23 100  52 101  53 101
M  END
>  <TORSDO>  (95) 
F 18

>  <SCORE>  (95) 
-12.983

>  <name>  (95) 
94

>  <ligand_id>  (95) 
94

>  <original_smiles>  (95) 
[H]c1c([H])c([H])c2c(c1[H])C([H])([H])C([H])([H])C([H])([H])C2([H])N([H])C(=O)C1([H])N(C(=O)C([H])(N([H])C(=O)C([H])(N([H])C([H])([H])[H])C([H])([H])[H])C(C([H])([H])[H])(C([H])([H])[H])C([H])([H])[H])C([H])([H])c2c([H])c(OC([H])([H])C3([H])OC(=O)N(c4c([H])c([H])c(N(C(=O)N5C([H])([H])C([H])([H])C([H])([H])C([H])(n6nc(-c7c([H])c([H])c(Oc8c([H])c([H])c(F)c([H])c8F)c([H])c7[H])c(C(=O)N([H])[H])c6N([H])[H])C5([H])[H])C([H])([H])[H])c(C([H])([H])[H])c4[H])C3([H])[H])c([H])c([H])c2C1([H])[H]

>  <smiles>  (95) 
[H]c1c([H])c([H])c2c(c1[H])C([H])([H])C([H])([H])C([H])([H])C2([H])N([H])C(=O)C1([H])N(C(=O)C([H])(N([H])C(=O)C([H])(N([H])C([H])([H])[H])C([H])([H])[H])C(C([H])([H])[H])(C([H])([H])[H])C([H])([H])[H])C([H])([H])c2c([H])c(OC([H])([H])C3([H])OC(=O)N(c4c([H])c([H])c(N(C(=O)N5C([H])([H])C([H])([H])C([H])([H])C([H])(n6nc(-c7c([H])c([H])c(Oc8c([H])c([H])c(F)c([H])c8F)c([H])c7[H])c(C(=O)N([H])[H])c6N([H])[H])C5([H])[H])C([H])([H])[H])c(C([H])([H])[H])c4[H])C3([H])[H])c([H])c([H])c2C1([H])[H]

$$$$
95:0:0
     RDKit          3D

 92100  0  0  1  0  0  0  0  0999 V2000
  -29.8210  -21.7140   20.5300 C   0  0  0  0  0  0  0  0  0  0  0  0
  -28.7410  -22.5310   20.3410 N   0  0  0  0  0  0  0  0  0  0  0  0
  -30.9080  -22.2080   20.8410 O   0  0  0  0  0  0  0  0  0  0  0  0
  -27.9010  -22.0760   20.0130 H   0  0  0  0  0  0  0  0  0  0  0  0
  -30.9400  -19.4180   20.1070 C   0  0  0  0  0  3  0  0  0  0  0  0
  -28.5960  -19.3890   20.6240 C   0  0  0  0  0  3  0  0  0  0  0  0
  -30.9840  -17.9880   20.1120 C   0  0  0  0  0  3  0  0  0  0  0  0
  -28.6400  -17.9580   20.6300 C   0  0  0  0  0  3  0  0  0  0  0  0
  -29.7560  -20.1700   20.3720 C   0  0  0  0  0  0  0  0  0  0  0  0
  -29.8320  -17.2090   20.3930 C   0  0  0  0  0  0  0  0  0  0  0  0
  -30.6020  -14.7110   20.0830 C   0  0  0  0  0  0  0  0  0  0  0  0
  -30.3740  -12.4900   18.9790 C   0  0  0  0  0  2  0  0  0  0  0  0
  -29.3760  -12.6470   17.8080 C   0  0  0  0  0  2  0  0  0  0  0  0
  -27.9240  -12.4700   18.2990 C   0  0  0  0  0  2  0  0  0  0  0  0
  -27.6200  -13.2990   19.5770 C   0  0  0  0  0  3  0  0  0  0  0  0
  -28.7260  -13.1060   20.6390 C   0  0  0  0  0  2  0  0  0  0  0  0
  -30.0060  -13.4760   20.0140 N   0  0  0  0  0  0  0  0  0  0  0  0
  -31.7500  -14.8880   19.6580 O   0  0  0  0  0  0  0  0  0  0  0  0
  -29.7790  -15.7410   20.4750 N   0  0  0  0  0  0  0  0  0  0  0  0
  -28.8960  -15.3900   20.8110 H   0  0  0  0  0  0  0  0  0  0  0  0
  -25.2600  -13.8880   20.4020 C   0  0  0  0  0  0  0  0  0  0  0  0
  -24.2100  -13.1120   20.8080 C   0  0  0  0  0  0  0  0  0  0  0  0
  -24.6710  -11.7610   20.7440 C   0  0  0  0  0  0  0  0  0  0  0  0
  -26.2930  -13.0110   20.1130 N   0  0  0  0  0  0  0  0  0  0  0  0
  -25.9480  -11.7260   20.3800 N   0  0  0  0  0  0  0  0  0  0  0  0
  -23.9540  -10.4980   20.9520 C   0  0  0  0  0  0  0  0  0  0  0  0
  -24.4050   -9.5400   21.8870 C   0  0  0  0  0  3  0  0  0  0  0  0
  -23.6890   -8.3380   22.0820 C   0  0  0  0  0  3  0  0  0  0  0  0
  -22.5110   -8.0860   21.3410 C   0  0  0  0  0  0  0  0  0  0  0  0
  -22.0790   -9.0330   20.3960 C   0  0  0  0  0  3  0  0  0  0  0  0
  -22.7940  -10.2260   20.1990 C   0  0  0  0  0  3  0  0  0  0  0  0
  -21.7650   -6.9360   21.4450 O   0  0  0  0  0  0  0  0  0  0  0  0
  -21.7090   -6.2190   22.6130 C   0  0  0  0  0  0  0  0  0  0  0  0
  -21.2450   -6.7900   23.8170 C   0  0  0  0  0  3  0  0  0  0  0  0
  -21.1390   -5.9970   24.9770 C   0  0  0  0  0  3  0  0  0  0  0  0
  -21.4860   -4.6330   24.9320 C   0  0  0  0  0  0  0  0  0  0  0  0
  -21.9440   -4.0620   23.7320 C   0  0  0  0  0  3  0  0  0  0  0  0
  -22.0520   -4.8520   22.5750 C   0  0  0  0  0  0  0  0  0  0  0  0
  -22.4730   -4.2900   21.4150 F   0  0  0  0  0  0  0  0  0  0  0  0
  -21.3760   -3.8680   26.0440 F   0  0  0  0  0  0  0  0  0  0  0  0
  -22.8250  -13.5860   21.1420 C   0  0  0  0  0  0  0  0  0  0  0  0
  -22.1290  -12.8800   22.0240 N   0  0  0  0  0  0  0  0  0  0  0  0
  -22.3670  -14.6190   20.6520 O   0  0  0  0  0  0  0  0  0  0  0  0
  -22.5120  -12.0460   22.4460 H   0  0  0  0  0  0  0  0  0  0  0  0
  -21.2020  -13.1820   22.2870 H   0  0  0  0  0  0  0  0  0  0  0  0
  -25.4130  -15.2620   20.2290 N   0  0  0  0  0  0  0  0  0  0  0  0
  -24.6370  -15.9020   20.3570 H   0  0  0  0  0  0  0  0  0  0  0  0
  -26.2180  -15.7030   19.8040 H   0  0  0  0  0  0  0  0  0  0  0  0
  -27.3440  -24.0320   21.7180 C   0  0  0  0  0  1  0  0  0  0  0  0
  -28.5800  -23.9680   20.8110 C   0  0  0  0  0  3  0  0  0  0  0  0
  -28.4940  -25.1230   19.7150 C   0  0  0  0  0  2  0  0  0  0  0  0
  -28.4280  -26.5390   20.1770 O   0  0  0  0  0  0  0  0  0  0  0  0
  -24.6220  -31.8720   23.2000 C   0  0  0  0  0  0  0  0  0  0  0  0
  -27.2670  -27.3330   20.1300 C   0  0  0  0  0  0  0  0  0  0  0  0
  -23.4290  -30.4720   21.5530 C   0  0  0  0  0  3  0  0  0  0  0  0
  -24.8870  -28.9310   20.1270 C   0  0  0  0  0  0  0  0  0  0  0  0
  -25.9640  -30.8040   21.3730 C   0  0  0  0  0  2  0  0  0  0  0  0
  -26.0510  -29.4250   20.7260 C   0  0  0  0  0  0  0  0  0  0  0  0
  -27.2410  -28.6380   20.7170 C   0  0  0  0  0  3  0  0  0  0  0  0
  -26.0710  -26.8860   19.5220 C   0  0  0  0  0  3  0  0  0  0  0  0
  -24.9000  -27.6680   19.5160 C   0  0  0  0  0  3  0  0  0  0  0  0
  -23.6470  -29.8000   20.1720 C   0  0  0  0  0  2  0  0  0  0  0  0
  -24.6910  -31.0670   22.1000 N   0  0  0  0  0  0  0  0  0  0  0  0
  -23.5360  -32.1430   23.7330 O   0  0  0  0  0  0  0  0  0  0  0  0
  -22.7710  -29.4490   22.5110 C   0  0  0  0  0  0  0  0  0  0  0  0
  -21.4430  -29.2760   22.3890 N   0  0  0  0  0  0  0  0  0  0  0  0
  -23.4510  -28.8150   23.3210 O   0  0  0  0  0  0  0  0  0  0  0  0
  -20.9510  -29.8410   21.7100 H   0  0  0  0  0  0  0  0  0  0  0  0
  -18.0640  -28.1030   22.9180 C   0  0  0  0  0  0  0  0  0  0  0  0
  -20.6270  -28.3340   23.1570 C   0  0  0  0  0  3  0  0  0  0  0  0
  -20.7070  -26.9110   22.5590 C   0  0  0  0  0  2  0  0  0  0  0  0
  -19.5870  -26.6140   21.5550 C   0  0  0  0  0  2  0  0  0  0  0  0
  -18.2160  -26.7620   22.2210 C   0  0  0  0  0  2  0  0  0  0  0  0
  -19.1950  -28.8480   23.3440 C   0  0  0  0  0  0  0  0  0  0  0  0
  -18.9950  -30.1040   23.9570 C   0  0  0  0  0  3  0  0  0  0  0  0
  -17.6960  -30.6160   24.1460 C   0  0  0  0  0  3  0  0  0  0  0  0
  -16.5800  -29.8670   23.7350 C   0  0  0  0  0  3  0  0  0  0  0  0
  -16.7640  -28.6110   23.1290 C   0  0  0  0  0  3  0  0  0  0  0  0
  -25.9000  -32.5110   23.8260 C   0  0  0  0  0  3  0  0  0  0  0  0
  -26.4220  -31.7340   25.0990 C   0  0  1  0  0  0  0  0  0  0  0  0
  -25.3280  -31.4830   26.1630 C   0  0  0  0  0  1  0  0  0  0  0  0
  -27.0150  -30.3640   24.6960 C   0  0  0  0  0  1  0  0  0  0  0  0
  -27.5640  -32.5330   25.7680 C   0  0  0  0  0  1  0  0  0  0  0  0
  -25.5810  -33.9050   24.1640 N   0  0  0  0  0  0  0  0  0  0  0  0
  -25.9070  -34.9660   23.4140 C   0  0  0  0  0  0  0  0  0  0  0  0
  -26.5770  -34.8730   22.3810 O   0  0  0  0  0  0  0  0  0  0  0  0
  -24.9900  -34.0520   24.9700 H   0  0  0  0  0  0  0  0  0  0  0  0
  -24.1700  -36.7510   23.0680 C   0  0  0  0  0  1  0  0  0  0  0  0
  -25.4110  -36.3470   23.8800 C   0  0  0  0  0  3  0  0  0  0  0  0
  -27.5340  -37.2400   24.7320 C   0  0  0  0  0  1  0  0  0  0  0  0
  -26.4390  -37.4060   23.7810 N   0  0  0  0  0  0  0  0  0  0  0  0
  -26.0270  -38.3230   23.9300 H   0  0  0  0  0  0  0  0  0  0  0  0
  1  3  2  0
  2  1  1  0
  2 50  1  0
  4  2  1  0
  5  7  2  0
  5  9  1  0
  6  8  1  0
  7 10  1  0
  9  1  1  0
  9  6  2  0
 10 19  1  0
 10  8  2  0
 11 19  1  0
 12 17  1  0
 13 14  1  0
 13 12  1  0
 15 14  1  0
 15 24  1  0
 15 16  1  0
 17 11  1  0
 17 16  1  0
 18 11  2  0
 19 20  1  0
 21 22  2  0
 22 41  1  0
 23 22  1  0
 23 26  1  0
 24 25  1  0
 24 21  1  0
 25 23  2  0
 26 27  1  0
 27 28  2  0
 29 32  1  0
 29 28  1  0
 30 29  2  0
 31 30  1  0
 31 26  2  0
 32 33  1  0
 33 34  1  0
 34 35  2  0
 36 35  1  0
 36 40  1  0
 37 36  2  0
 38 33  2  0
 38 37  1  0
 39 38  1  0
 41 42  1  0
 42 45  1  0
 42 44  1  0
 43 41  2  0
 46 47  1  0
 46 21  1  0
 48 46  1  0
 50 49  1  0
 51 52  1  0
 51 50  1  0
 53 64  2  0
 54 52  1  0
 54 59  1  0
 55 63  1  0
 55 65  1  0
 56 62  1  0
 56 58  1  0
 57 63  1  0
 58 57  1  0
 59 58  2  0
 60 54  2  0
 61 60  1  0
 61 56  2  0
 62 55  1  0
 63 53  1  0
 65 67  2  0
 66 65  1  0
 68 66  1  0
 69 78  2  0
 69 74  1  0
 70 66  1  0
 70 74  1  0
 71 70  1  0
 72 73  1  0
 72 71  1  0
 73 69  1  0
 74 75  2  0
 75 76  1  0
 77 76  2  0
 78 77  1  0
 79 53  1  0
 79 84  1  0
 79 80  1  0
 80 83  1  1
 80 81  1  0
 82 80  1  0
 84 87  1  0
 85 89  1  0
 85 84  1  0
 86 85  2  0
 89 88  1  0
 91 89  1  0
 91 92  1  0
 91 90  1  0
M  ISO  4  11 100  19 100  51 101  52 101
M  END
>  <TORSDO>  (96) 
F 19

>  <SCORE>  (96) 
-14.233

>  <name>  (96) 
95

>  <ligand_id>  (96) 
95

>  <original_smiles>  (96) 
[H]c1c([H])c([H])c2c(c1[H])C([H])([H])C([H])([H])C([H])([H])C2([H])N([H])C(=O)C1([H])N(C(=O)C([H])(N([H])C(=O)C([H])(N([H])C([H])([H])[H])C([H])([H])[H])C(C([H])([H])[H])(C([H])([H])[H])C([H])([H])[H])C([H])([H])c2c([H])c(OC([H])([H])C([H])(N([H])C(=O)c3c([H])c([H])c(N([H])C(=O)N4C([H])([H])C([H])([H])C([H])([H])C([H])(n5nc(-c6c([H])c([H])c(Oc7c([H])c([H])c(F)c([H])c7F)c([H])c6[H])c(C(=O)N([H])[H])c5N([H])[H])C4([H])[H])c([H])c3[H])C([H])([H])[H])c([H])c([H])c2C1([H])[H]

>  <smiles>  (96) 
[H]c1c([H])c([H])c2c(c1[H])C([H])([H])C([H])([H])C([H])([H])C2([H])N([H])C(=O)C1([H])N(C(=O)C([H])(N([H])C(=O)C([H])(N([H])C([H])([H])[H])C([H])([H])[H])C(C([H])([H])[H])(C([H])([H])[H])C([H])([H])[H])C([H])([H])c2c([H])c(OC([H])([H])C([H])(N([H])C(=O)c3c([H])c([H])c(N([H])C(=O)N4C([H])([H])C([H])([H])C([H])([H])C([H])(n5nc(-c6c([H])c([H])c(Oc7c([H])c([H])c(F)c([H])c7F)c([H])c6[H])c(C(=O)N([H])[H])c5N([H])[H])C4([H])[H])c([H])c3[H])C([H])([H])[H])c([H])c([H])c2C1([H])[H]

$$$$
96:0:0
     RDKit          3D

 96105  0  0  1  0  0  0  0  0999 V2000
  -29.6710  -21.9100   21.6250 C   0  0  0  0  0  0  0  0  0  0  0  0
  -28.9320  -22.5340   19.5600 C   0  0  0  0  0  2  0  0  0  0  0  0
  -29.1770  -23.9300   20.2800 C   0  0  0  0  0  3  0  0  0  0  0  0
  -29.3170  -23.4310   21.7460 C   0  0  1  0  0  0  0  0  0  0  0  0
  -28.0030  -23.5560   22.5430 C   0  0  0  0  0  1  0  0  0  0  0  0
  -30.4270  -24.2080   22.4880 C   0  0  0  0  0  1  0  0  0  0  0  0
  -29.4280  -21.3870   20.4020 N   0  0  0  0  0  0  0  0  0  0  0  0
  -30.1300  -21.2820   22.5840 O   0  0  0  0  0  0  0  0  0  0  0  0
  -29.4970  -19.7390   18.5440 C   0  0  0  0  0  3  0  0  0  0  0  0
  -29.8390  -18.7650   20.7450 C   0  0  0  0  0  3  0  0  0  0  0  0
  -29.6410  -18.4580   17.9750 C   0  0  0  0  0  0  0  0  0  0  0  0
  -29.5970  -19.9670   19.9390 C   0  0  0  0  0  0  0  0  0  0  0  0
  -29.9890  -17.4270   20.1820 C   0  0  0  0  0  0  0  0  0  0  0  0
  -29.8740  -17.3240   18.7760 C   0  0  0  0  0  0  0  0  0  0  0  0
  -29.5270  -18.2790   16.4710 C   0  0  0  0  0  1  0  0  0  0  0  0
  -29.9280  -16.1170   18.1670 F   0  0  0  0  0  0  0  0  0  0  0  0
  -30.8520  -15.0320   20.6220 C   0  0  0  0  0  0  0  0  0  0  0  0
  -30.7070  -12.7370   19.6580 C   0  0  0  0  0  2  0  0  0  0  0  0
  -29.8340  -12.7890   18.3820 C   0  0  0  0  0  2  0  0  0  0  0  0
  -28.3390  -12.6460   18.7320 C   0  0  0  0  0  2  0  0  0  0  0  0
  -27.9080  -13.5380   19.9270 C   0  0  0  0  0  3  0  0  0  0  0  0
  -28.9090  -13.4580   21.1020 C   0  0  0  0  0  2  0  0  0  0  0  0
  -30.2390  -13.8010   20.5790 N   0  0  0  0  0  0  0  0  0  0  0  0
  -32.0310  -15.1480   20.2770 O   0  0  0  0  0  0  0  0  0  0  0  0
  -30.1010  -16.1530   20.9390 N   0  0  0  0  0  0  0  0  0  0  0  0
  -29.2780  -15.9370   21.4810 H   0  0  0  0  0  0  0  0  0  0  0  0
  -25.4790  -14.1200   20.5220 C   0  0  0  0  0  0  0  0  0  0  0  0
  -24.4010  -13.3430   20.8490 C   0  0  0  0  0  0  0  0  0  0  0  0
  -24.8750  -11.9950   20.8670 C   0  0  0  0  0  0  0  0  0  0  0  0
  -26.5410  -13.2450   20.3530 N   0  0  0  0  0  0  0  0  0  0  0  0
  -26.1790  -11.9630   20.6240 N   0  0  0  0  0  0  0  0  0  0  0  0
  -24.1480  -10.7310   21.0450 C   0  0  0  0  0  0  0  0  0  0  0  0
  -24.5410   -9.7790   22.0130 C   0  0  0  0  0  3  0  0  0  0  0  0
  -23.8130   -8.5810   22.1750 C   0  0  0  0  0  3  0  0  0  0  0  0
  -22.6790   -8.3240   21.3690 C   0  0  0  0  0  0  0  0  0  0  0  0
  -22.3070   -9.2620   20.3900 C   0  0  0  0  0  3  0  0  0  0  0  0
  -23.0360  -10.4510   20.2260 C   0  0  0  0  0  3  0  0  0  0  0  0
  -21.9280   -7.1750   21.4420 O   0  0  0  0  0  0  0  0  0  0  0  0
  -21.8270   -6.4500   22.6030 C   0  0  0  0  0  0  0  0  0  0  0  0
  -21.2990   -7.0090   23.7880 C   0  0  0  0  0  3  0  0  0  0  0  0
  -21.1470   -6.2090   24.9370 C   0  0  0  0  0  3  0  0  0  0  0  0
  -21.5160   -4.8510   24.9040 C   0  0  0  0  0  0  0  0  0  0  0  0
  -22.0390   -4.2920   23.7240 C   0  0  0  0  0  3  0  0  0  0  0  0
  -22.1910   -5.0890   22.5760 C   0  0  0  0  0  0  0  0  0  0  0  0
  -22.6740   -4.5400   21.4350 F   0  0  0  0  0  0  0  0  0  0  0  0
  -21.3660   -4.0790   26.0060 F   0  0  0  0  0  0  0  0  0  0  0  0
  -22.9870  -13.8140   21.0450 C   0  0  0  0  0  0  0  0  0  0  0  0
  -22.2240  -13.1350   21.8940 N   0  0  0  0  0  0  0  0  0  0  0  0
  -22.5680  -14.8220   20.4800 O   0  0  0  0  0  0  0  0  0  0  0  0
  -22.5690  -12.3160   22.3730 H   0  0  0  0  0  0  0  0  0  0  0  0
  -21.2760  -13.4380   22.0680 H   0  0  0  0  0  0  0  0  0  0  0  0
  -25.6480  -15.4880   20.3320 N   0  0  0  0  0  0  0  0  0  0  0  0
  -24.8830  -16.1510   20.3880 H   0  0  0  0  0  0  0  0  0  0  0  0
  -26.5180  -15.9160   20.0380 H   0  0  0  0  0  0  0  0  0  0  0  0
  -28.1700  -25.1570   19.9080 C   0  0  0  0  0  2  0  0  0  0  0  0
  -28.3870  -26.6240   20.1750 O   0  0  0  0  0  0  0  0  0  0  0  0
  -24.5280  -31.9740   23.2350 C   0  0  0  0  0  0  0  0  0  0  0  0
  -27.2710  -27.5000   20.1100 C   0  0  0  0  0  0  0  0  0  0  0  0
  -23.3710  -30.5820   21.5560 C   0  0  0  0  0  3  0  0  0  0  0  0
  -24.8730  -29.0960   20.1070 C   0  0  0  0  0  0  0  0  0  0  0  0
  -25.9090  -30.9510   21.4070 C   0  0  0  0  0  2  0  0  0  0  0  0
  -26.0270  -29.5860   20.7310 C   0  0  0  0  0  0  0  0  0  0  0  0
  -27.2270  -28.8000   20.7230 C   0  0  0  0  0  3  0  0  0  0  0  0
  -26.0890  -27.0900   19.4480 C   0  0  0  0  0  3  0  0  0  0  0  0
  -24.9100  -27.8580   19.4530 C   0  0  0  0  0  3  0  0  0  0  0  0
  -23.6150  -29.9410   20.1640 C   0  0  0  0  0  2  0  0  0  0  0  0
  -24.6210  -31.1870   22.1220 N   0  0  0  0  0  0  0  0  0  0  0  0
  -23.4330  -32.2160   23.7650 O   0  0  0  0  0  0  0  0  0  0  0  0
  -22.7200  -29.5320   22.4900 C   0  0  0  0  0  0  0  0  0  0  0  0
  -21.3960  -29.3440   22.3650 N   0  0  0  0  0  0  0  0  0  0  0  0
  -23.4090  -28.8900   23.2870 O   0  0  0  0  0  0  0  0  0  0  0  0
  -20.8950  -29.9140   21.6980 H   0  0  0  0  0  0  0  0  0  0  0  0
  -18.0320  -28.1120   22.8710 C   0  0  0  0  0  0  0  0  0  0  0  0
  -20.5930  -28.3750   23.1140 C   0  0  0  0  0  3  0  0  0  0  0  0
  -20.6930  -26.9660   22.4850 C   0  0  0  0  0  2  0  0  0  0  0  0
  -19.5780  -26.6750   21.4750 C   0  0  0  0  0  2  0  0  0  0  0  0
  -18.2050  -26.7890   22.1430 C   0  0  0  0  0  2  0  0  0  0  0  0
  -19.1530  -28.8640   23.3140 C   0  0  0  0  0  0  0  0  0  0  0  0
  -18.9360  -30.1010   23.9560 C   0  0  0  0  0  3  0  0  0  0  0  0
  -17.6310  -30.5880   24.1590 C   0  0  0  0  0  3  0  0  0  0  0  0
  -16.5240  -29.8330   23.7330 C   0  0  0  0  0  3  0  0  0  0  0  0
  -16.7260  -28.5960   23.0950 C   0  0  0  0  0  3  0  0  0  0  0  0
  -25.7880  -32.6250   23.8800 C   0  0  0  0  0  3  0  0  0  0  0  0
  -25.4540  -34.0190   24.2050 N   0  0  0  0  0  0  0  0  0  0  0  0
  -25.8020  -35.0800   23.4650 C   0  0  0  0  0  0  0  0  0  0  0  0
  -26.5060  -34.9890   22.4560 O   0  0  0  0  0  0  0  0  0  0  0  0
  -24.8280  -34.1640   24.9860 H   0  0  0  0  0  0  0  0  0  0  0  0
  -24.0930  -36.8770   23.0390 C   0  0  0  0  0  1  0  0  0  0  0  0
  -25.2860  -36.4620   23.9130 C   0  0  0  0  0  3  0  0  0  0  0  0
  -27.3650  -37.3450   24.8790 C   0  0  0  0  0  1  0  0  0  0  0  0
  -26.3210  -37.5180   23.8720 N   0  0  0  0  0  0  0  0  0  0  0  0
  -25.9030  -38.4350   24.0060 H   0  0  0  0  0  0  0  0  0  0  0  0
  -26.2900  -31.8630   25.1680 C   0  0  1  0  0  0  0  0  0  0  0  0
  -25.1780  -31.6110   26.2140 C   0  0  0  0  0  1  0  0  0  0  0  0
  -26.9000  -30.4920   24.7930 C   0  0  0  0  0  1  0  0  0  0  0  0
  -27.4160  -32.6730   25.8540 C   0  0  0  0  0  1  0  0  0  0  0  0
  1  4  1  0
  1  8  2  0
  2  3  1  0
  2  7  1  0
  3 55  1  0
  3  4  1  0
  4  6  1  1
  4  5  1  0
  7  1  1  0
  9 12  1  0
 11  9  2  0
 11 14  1  0
 12  7  1  0
 12 10  2  0
 13 10  1  0
 13 25  1  0
 14 13  2  0
 15 11  1  0
 16 14  1  0
 17 25  1  0
 18 23  1  0
 19 20  1  0
 19 18  1  0
 21 20  1  0
 21 30  1  0
 21 22  1  0
 23 17  1  0
 23 22  1  0
 24 17  2  0
 25 26  1  0
 27 28  2  0
 28 29  1  0
 28 47  1  0
 29 32  1  0
 30 27  1  0
 30 31  1  0
 31 29  2  0
 32 33  1  0
 33 34  2  0
 35 38  1  0
 35 34  1  0
 36 35  2  0
 37 36  1  0
 37 32  2  0
 38 39  1  0
 39 40  1  0
 40 41  2  0
 42 41  1  0
 42 46  1  0
 43 42  2  0
 44 39  2  0
 44 43  1  0
 45 44  1  0
 47 48  1  0
 48 51  1  0
 48 50  1  0
 49 47  2  0
 52 53  1  0
 52 27  1  0
 54 52  1  0
 55 56  1  0
 57 68  2  0
 58 56  1  0
 58 63  1  0
 59 67  1  0
 59 69  1  0
 60 66  1  0
 60 62  1  0
 61 67  1  0
 62 61  1  0
 63 62  2  0
 64 65  1  0
 64 58  2  0
 65 60  2  0
 66 59  1  0
 67 57  1  0
 69 71  2  0
 70 69  1  0
 72 70  1  0
 73 82  2  0
 73 78  1  0
 74 70  1  0
 74 78  1  0
 75 74  1  0
 76 77  1  0
 76 75  1  0
 77 73  1  0
 78 79  2  0
 79 80  1  0
 81 80  2  0
 82 81  1  0
 83 57  1  0
 83 84  1  0
 83 93  1  0
 84 87  1  0
 85 89  1  0
 85 84  1  0
 86 85  2  0
 89 88  1  0
 91 89  1  0
 91 92  1  0
 91 90  1  0
 93 96  1  1
 93 94  1  0
 95 93  1  0
M  ISO  4  17 100  25 100  55 101  56 101
M  END
>  <TORSDO>  (97) 
F 18

>  <SCORE>  (97) 
-13.587

>  <name>  (97) 
96

>  <ligand_id>  (97) 
96

>  <original_smiles>  (97) 
[H]c1c([H])c([H])c2c(c1[H])C([H])([H])C([H])([H])C([H])([H])C2([H])N([H])C(=O)C1([H])N(C(=O)C([H])(N([H])C(=O)C([H])(N([H])C([H])([H])[H])C([H])([H])[H])C(C([H])([H])[H])(C([H])([H])[H])C([H])([H])[H])C([H])([H])c2c([H])c(OC([H])([H])C3([H])C([H])([H])N(c4c([H])c(N([H])C(=O)N5C([H])([H])C([H])([H])C([H])([H])C([H])(n6nc(-c7c([H])c([H])c(Oc8c([H])c([H])c(F)c([H])c8F)c([H])c7[H])c(C(=O)N([H])[H])c6N([H])[H])C5([H])[H])c(F)c(C([H])([H])[H])c4[H])C(=O)C3(C([H])([H])[H])C([H])([H])[H])c([H])c([H])c2C1([H])[H]

>  <smiles>  (97) 
[H]c1c([H])c([H])c2c(c1[H])C([H])([H])C([H])([H])C([H])([H])C2([H])N([H])C(=O)C1([H])N(C(=O)C([H])(N([H])C(=O)C([H])(N([H])C([H])([H])[H])C([H])([H])[H])C(C([H])([H])[H])(C([H])([H])[H])C([H])([H])[H])C([H])([H])c2c([H])c(OC([H])([H])C3([H])C([H])([H])N(c4c([H])c(N([H])C(=O)N5C([H])([H])C([H])([H])C([H])([H])C([H])(n6nc(-c7c([H])c([H])c(Oc8c([H])c([H])c(F)c([H])c8F)c([H])c7[H])c(C(=O)N([H])[H])c6N([H])[H])C5([H])[H])c(F)c(C([H])([H])[H])c4[H])C(=O)C3(C([H])([H])[H])C([H])([H])[H])c([H])c([H])c2C1([H])[H]

$$$$
97:0:0
     RDKit          3D

 97106  0  0  1  0  0  0  0  0999 V2000
  -30.0900  -20.0300   21.6560 C   0  0  0  0  0  3  0  0  0  0  0  0
  -30.5600  -17.6290   21.6310 C   0  0  0  0  0  3  0  0  0  0  0  0
  -29.5680  -18.7130   19.6870 C   0  0  0  0  0  3  0  0  0  0  0  0
  -30.5200  -18.8610   22.3190 C   0  0  0  0  0  0  0  0  0  0  0  0
  -29.6300  -20.0410   20.3100 C   0  0  0  0  0  0  0  0  0  0  0  0
  -30.0280  -17.4830   20.3320 C   0  0  0  0  0  0  0  0  0  0  0  0
  -30.6550  -14.9620   19.8110 C   0  0  0  0  0  0  0  0  0  0  0  0
  -30.4340  -12.6510   18.8480 C   0  0  0  0  0  2  0  0  0  0  0  0
  -29.3840  -12.6490   17.7170 C   0  0  0  0  0  2  0  0  0  0  0  0
  -27.9740  -12.4280   18.2980 C   0  0  0  0  0  2  0  0  0  0  0  0
  -27.6680  -13.3640   19.4920 C   0  0  0  0  0  3  0  0  0  0  0  0
  -28.8270  -13.3600   20.5120 C   0  0  0  0  0  2  0  0  0  0  0  0
  -30.0500  -13.7290   19.7860 N   0  0  0  0  0  0  0  0  0  0  0  0
  -31.8440  -15.0650   19.4930 O   0  0  0  0  0  0  0  0  0  0  0  0
  -29.8290  -16.0860   19.8510 N   0  0  0  0  0  0  0  0  0  0  0  0
  -28.8610  -15.8530   19.6980 H   0  0  0  0  0  0  0  0  0  0  0  0
  -25.3870  -13.9300   20.5160 C   0  0  0  0  0  0  0  0  0  0  0  0
  -24.3600  -13.1410   20.9500 C   0  0  0  0  0  0  0  0  0  0  0  0
  -24.7960  -11.7900   20.7860 C   0  0  0  0  0  0  0  0  0  0  0  0
  -26.3850  -13.0600   20.1140 N   0  0  0  0  0  0  0  0  0  0  0  0
  -26.0450  -11.7660   20.3420 N   0  0  0  0  0  0  0  0  0  0  0  0
  -24.0800  -10.5240   20.9760 C   0  0  0  0  0  0  0  0  0  0  0  0
  -24.5130   -9.5540   21.9020 C   0  0  0  0  0  3  0  0  0  0  0  0
  -23.7900   -8.3560   22.0790 C   0  0  0  0  0  3  0  0  0  0  0  0
  -22.6170   -8.1130   21.3240 C   0  0  0  0  0  0  0  0  0  0  0  0
  -22.2030   -9.0760   20.3860 C   0  0  0  0  0  3  0  0  0  0  0  0
  -22.9290  -10.2640   20.2100 C   0  0  0  0  0  3  0  0  0  0  0  0
  -21.8660   -6.9670   21.4050 O   0  0  0  0  0  0  0  0  0  0  0  0
  -21.7270   -6.2850   22.5870 C   0  0  0  0  0  0  0  0  0  0  0  0
  -21.1240   -6.8790   23.7190 C   0  0  0  0  0  3  0  0  0  0  0  0
  -20.9360   -6.1210   24.8940 C   0  0  0  0  0  3  0  0  0  0  0  0
  -21.3400   -4.7740   24.9330 C   0  0  0  0  0  0  0  0  0  0  0  0
  -21.9340   -4.1820   23.8060 C   0  0  0  0  0  3  0  0  0  0  0  0
  -22.1270   -4.9370   22.6370 C   0  0  0  0  0  0  0  0  0  0  0  0
  -22.6820   -4.3580   21.5450 F   0  0  0  0  0  0  0  0  0  0  0  0
  -21.1500   -4.0420   26.0580 F   0  0  0  0  0  0  0  0  0  0  0  0
  -23.0060  -13.6040   21.3920 C   0  0  0  0  0  0  0  0  0  0  0  0
  -22.3600  -12.8510   22.2740 N   0  0  0  0  0  0  0  0  0  0  0  0
  -22.5370  -14.6700   20.9990 O   0  0  0  0  0  0  0  0  0  0  0  0
  -22.7570  -11.9830   22.6080 H   0  0  0  0  0  0  0  0  0  0  0  0
  -21.4610  -13.1520   22.6200 H   0  0  0  0  0  0  0  0  0  0  0  0
  -25.5580  -15.3070   20.3980 N   0  0  0  0  0  0  0  0  0  0  0  0
  -24.8390  -15.9720   20.6580 H   0  0  0  0  0  0  0  0  0  0  0  0
  -26.3910  -15.7480   20.0300 H   0  0  0  0  0  0  0  0  0  0  0  0
  -29.1180  -22.6190   20.2630 C   0  0  0  0  0  0  0  0  0  0  0  0
  -28.3110  -22.9390   18.1010 C   0  0  0  0  0  2  0  0  0  0  0  0
  -29.0760  -21.5790   18.2530 C   0  0  0  0  0  2  0  0  0  0  0  0
  -28.8290  -23.8080   19.2750 C   0  0  0  0  0  3  0  0  0  0  0  0
  -29.2710  -21.3670   19.6870 N   0  0  0  0  0  0  0  0  0  0  0  0
  -29.1510  -22.8540   21.4720 O   0  0  0  0  0  0  0  0  0  0  0  0
  -27.9500  -25.0450   19.8660 C   0  0  0  0  0  2  0  0  0  0  0  0
  -28.1700  -26.5020   19.5620 O   0  0  0  0  0  0  0  0  0  0  0  0
  -24.4880  -31.7390   23.0870 C   0  0  0  0  0  0  0  0  0  0  0  0
  -27.0650  -27.3750   19.6690 C   0  0  0  0  0  0  0  0  0  0  0  0
  -23.2560  -30.4060   21.4160 C   0  0  0  0  0  3  0  0  0  0  0  0
  -24.6920  -28.9670   19.8590 C   0  0  0  0  0  0  0  0  0  0  0  0
  -25.7910  -30.7680   21.1800 C   0  0  0  0  0  2  0  0  0  0  0  0
  -25.8730  -29.4270   20.4510 C   0  0  0  0  0  0  0  0  0  0  0  0
  -27.0670  -28.6370   20.3520 C   0  0  0  0  0  3  0  0  0  0  0  0
  -25.8630  -27.0010   19.0400 C   0  0  0  0  0  3  0  0  0  0  0  0
  -24.6870  -27.7630   19.1410 C   0  0  0  0  0  3  0  0  0  0  0  0
  -23.4420  -29.8100   19.9980 C   0  0  0  0  0  2  0  0  0  0  0  0
  -24.5290  -30.9870   21.9490 N   0  0  0  0  0  0  0  0  0  0  0  0
  -23.4170  -31.9690   23.6660 O   0  0  0  0  0  0  0  0  0  0  0  0
  -22.6450  -29.3270   22.3400 C   0  0  0  0  0  0  0  0  0  0  0  0
  -21.3270  -29.1040   22.2260 N   0  0  0  0  0  0  0  0  0  0  0  0
  -23.3590  -28.6920   23.1230 O   0  0  0  0  0  0  0  0  0  0  0  0
  -20.8050  -29.6830   21.5880 H   0  0  0  0  0  0  0  0  0  0  0  0
  -18.0080  -27.7230   22.6840 C   0  0  0  0  0  0  0  0  0  0  0  0
  -20.5520  -28.0960   22.9510 C   0  0  0  0  0  3  0  0  0  0  0  0
  -20.7220  -26.6970   22.3090 C   0  0  0  0  0  2  0  0  0  0  0  0
  -19.6170  -26.3370   21.3080 C   0  0  0  0  0  2  0  0  0  0  0  0
  -18.2470  -26.3950   21.9870 C   0  0  0  0  0  2  0  0  0  0  0  0
  -19.0910  -28.5270   23.1290 C   0  0  0  0  0  0  0  0  0  0  0  0
  -18.8160  -29.7650   23.7470 C   0  0  0  0  0  3  0  0  0  0  0  0
  -17.4890  -30.1970   23.9390 C   0  0  0  0  0  3  0  0  0  0  0  0
  -16.4220  -29.3880   23.5120 C   0  0  0  0  0  3  0  0  0  0  0  0
  -16.6790  -28.1540   22.8920 C   0  0  0  0  0  3  0  0  0  0  0  0
  -25.7770  -32.3680   23.7030 C   0  0  0  0  0  3  0  0  0  0  0  0
  -26.3230  -31.5690   24.9490 C   0  0  1  0  0  0  0  0  0  0  0  0
  -25.2450  -31.2770   26.0160 C   0  0  0  0  0  1  0  0  0  0  0  0
  -26.9330  -30.2170   24.5120 C   0  0  0  0  0  1  0  0  0  0  0  0
  -27.4580  -32.3690   25.6260 C   0  0  0  0  0  1  0  0  0  0  0  0
  -25.4650  -33.7570   24.0700 N   0  0  0  0  0  0  0  0  0  0  0  0
  -25.7850  -34.8310   23.3380 C   0  0  0  0  0  0  0  0  0  0  0  0
  -26.4390  -34.7580   22.2950 O   0  0  0  0  0  0  0  0  0  0  0  0
  -24.8920  -33.8930   24.8890 H   0  0  0  0  0  0  0  0  0  0  0  0
  -24.0610  -36.6400   23.0470 C   0  0  0  0  0  1  0  0  0  0  0  0
  -25.3010  -36.2060   23.8440 C   0  0  0  0  0  3  0  0  0  0  0  0
  -27.4300  -37.0730   24.7090 C   0  0  0  0  0  1  0  0  0  0  0  0
  -26.3340  -37.2600   23.7620 N   0  0  0  0  0  0  0  0  0  0  0  0
  -25.9280  -38.1780   23.9250 H   0  0  0  0  0  0  0  0  0  0  0  0
  -30.9370  -18.9120   23.7710 C   0  0  0  0  0  0  0  0  0  0  0  0
  -30.6330  -20.0000   24.4750 N   0  0  0  0  0  0  0  0  0  0  0  0
  -31.4630  -17.9420   24.3130 O   0  0  0  0  0  0  0  0  0  0  0  0
  -30.1950  -20.8110   24.0540 H   0  0  0  0  0  0  0  0  0  0  0  0
  -30.8250  -20.0050   25.4660 H   0  0  0  0  0  0  0  0  0  0  0  0
  1  4  1  0
  2  4  2  0
  3  5  1  0
  3  6  2  0
  4 93  1  0
  5  1  2  0
  6  2  1  0
  7 15  1  0
  8 13  1  0
  9 10  1  0
  9  8  1  0
 11 10  1  0
 11 20  1  0
 11 12  1  0
 13  7  1  0
 13 12  1  0
 14  7  2  0
 15  6  1  0
 16 15  1  0
 17 18  2  0
 18 37  1  0
 19 18  1  0
 19 22  1  0
 20 21  1  0
 20 17  1  0
 21 19  2  0
 22 23  1  0
 23 24  2  0
 25 28  1  0
 25 24  1  0
 26 25  2  0
 27 26  1  0
 27 22  2  0
 28 29  1  0
 29 34  2  0
 29 30  1  0
 30 31  2  0
 31 32  1  0
 32 36  1  0
 33 32  2  0
 34 33  1  0
 35 34  1  0
 37 38  1  0
 38 40  1  0
 38 41  1  0
 39 37  2  0
 42 17  1  0
 42 43  1  0
 44 42  1  0
 45 50  2  0
 46 47  1  0
 46 48  1  0
 47 49  1  0
 48 51  1  0
 48 45  1  0
 49 45  1  0
 49  5  1  0
 52 54  1  0
 52 51  1  0
 53 64  2  0
 54 59  1  0
 55 63  1  0
 55 65  1  0
 56 62  1  0
 56 58  1  0
 57 63  1  0
 58 57  1  0
 59 58  2  0
 60 61  1  0
 60 54  2  0
 61 56  2  0
 62 55  1  0
 63 53  1  0
 65 67  2  0
 66 65  1  0
 68 66  1  0
 69 78  2  0
 69 74  1  0
 70 66  1  0
 70 74  1  0
 71 70  1  0
 72 73  1  0
 72 71  1  0
 73 69  1  0
 74 75  2  0
 75 76  1  0
 77 76  2  0
 78 77  1  0
 79 53  1  0
 79 84  1  0
 79 80  1  0
 80 83  1  1
 80 81  1  0
 82 80  1  0
 84 87  1  0
 85 89  1  0
 85 84  1  0
 86 85  2  0
 89 88  1  0
 91 89  1  0
 91 92  1  0
 91 90  1  0
 93 95  2  0
 93 94  1  0
 94 97  1  0
 96 94  1  0
M  ISO  4   7 100  15 100  51 101  52 101
M  END
>  <TORSDO>  (98) 
F 19

>  <SCORE>  (98) 
-12.359

>  <name>  (98) 
97

>  <ligand_id>  (98) 
97

>  <original_smiles>  (98) 
[H]c1c([H])c([H])c2c(c1[H])C([H])([H])C([H])([H])C([H])([H])C2([H])N([H])C(=O)C1([H])N(C(=O)C([H])(N([H])C(=O)C([H])(N([H])C([H])([H])[H])C([H])([H])[H])C(C([H])([H])[H])(C([H])([H])[H])C([H])([H])[H])C([H])([H])c2c([H])c(OC([H])([H])C3([H])C(=O)N(c4c([H])c(C(=O)N([H])[H])c([H])c(N([H])C(=O)N5C([H])([H])C([H])([H])C([H])([H])C([H])(n6nc(-c7c([H])c([H])c(Oc8c([H])c([H])c(F)c([H])c8F)c([H])c7[H])c(C(=O)N([H])[H])c6N([H])[H])C5([H])[H])c4[H])C([H])([H])C3([H])[H])c([H])c([H])c2C1([H])[H]

>  <smiles>  (98) 
[H]c1c([H])c([H])c2c(c1[H])C([H])([H])C([H])([H])C([H])([H])C2([H])N([H])C(=O)C1([H])N(C(=O)C([H])(N([H])C(=O)C([H])(N([H])C([H])([H])[H])C([H])([H])[H])C(C([H])([H])[H])(C([H])([H])[H])C([H])([H])[H])C([H])([H])c2c([H])c(OC([H])([H])C3([H])C(=O)N(c4c([H])c(C(=O)N([H])[H])c([H])c(N([H])C(=O)N5C([H])([H])C([H])([H])C([H])([H])C([H])(n6nc(-c7c([H])c([H])c(Oc8c([H])c([H])c(F)c([H])c8F)c([H])c7[H])c(C(=O)N([H])[H])c6N([H])[H])C5([H])[H])c4[H])C([H])([H])C3([H])[H])c([H])c([H])c2C1([H])[H]

$$$$
