0:0:0
     RDKit          3D

 97 94  0  0  1  0  0  0  0  0999 V2000
  -19.3280  -25.7670   22.9180 C   0  0  0  0  0  2  0  0  0  0  0  0
  -19.7930  -24.2720   21.7000 C   0  0  0  0  0 15  0  0  0  0  0  0
  -21.2400  -23.1320   19.4380 C   0  0  0  0  0  2  0  0  0  0  0  0
  -21.6540  -26.2210   20.1830 C   0  0  0  0  0 15  0  0  0  0  0  0
  -21.6360  -21.8930   20.3090 C   0  0  0  0  0  2  0  0  0  0  0  0
  -21.0560  -27.8030   21.7240 C   0  0  0  0  0 15  0  0  0  0  0  0
  -21.5330  -24.0920   20.5900 C   0  0  0  0  0  1  0  0  0  0  0  0
  -22.8080  -22.5870   20.8140 N   0  0  0  0  0  1  0  0  0  0  0  0
  -18.5600  -25.7490   23.8970 O   0  0  0  0  0  0  0  0  0  0  0  0
  -26.4900  -21.0360   19.0270 C   0  0  0  0  0  3  0  0  0  0  0  0
  -27.0850  -19.7630   19.4140 C   0  0  0  0  0  3  0  0  0  0  0  0
  -25.1500  -19.7960   20.7870 C   0  0  0  0  0  3  0  0  0  0  0  0
  -25.2790  -21.7400   19.4620 C   0  0  0  0  0  0  0  0  0  0  0  0
  -24.3110  -21.3340   20.4560 C   0  0  0  0  0  3  0  0  0  0  0  0
  -26.5760  -18.8230   20.3570 C   0  0  0  0  0  3  0  0  0  0  0  0
  -24.9990  -23.0540   18.7470 C   0  0  0  0  0  1  0  0  0  0  0  0
  -28.9820  -16.0730   20.3690 C   0  0  0  0  0  0  0  0  0  0  0  0
  -30.1370  -13.5740   19.6270 C   0  0  0  0  0  2  0  0  0  0  0  0
  -29.4860  -12.8020   18.4220 C   0  0  0  0  0  2  0  0  0  0  0  0
  -28.1080  -12.2450   18.8090 C   0  0  0  0  0  2  0  0  0  0  0  0
  -27.4360  -13.2300   19.7770 C   0  0  0  0  0  3  0  0  0  0  0  0
  -28.2810  -13.6000   20.9820 C   0  0  0  0  0  2  0  0  0  0  0  0
  -29.1420  -14.5660   20.3600 N   0  0  0  0  0  0  0  0  0  0  0  0
  -30.2330  -16.2970   20.1690 O   0  0  0  0  0  0  0  0  0  0  0  0
  -27.6050  -17.1450   20.5350 N   0  0  0  0  0  2  0  0  0  0  0  0
  -26.9210  -16.4730   20.8750 H   0  0  0  0  0  0  0  0  0  0  0  0
  -25.1610  -13.7960   20.5610 C   0  0  0  0  0  0  0  0  0  0  0  0
  -24.1140  -13.0220   20.9400 C   0  0  0  0  0  0  0  0  0  0  0  0
  -24.5800  -11.6720   20.8850 C   0  0  0  0  0  0  0  0  0  0  0  0
  -26.1550  -12.8950   20.2550 N   0  0  0  0  0  0  0  0  0  0  0  0
  -25.8540  -11.6190   20.5420 N   0  0  0  0  0  0  0  0  0  0  0  0
  -23.8670  -10.4150   21.0540 C   0  0  0  0  0  0  0  0  0  0  0  0
  -24.3400   -9.4130   21.9270 C   0  0  0  0  0  3  0  0  0  0  0  0
  -23.6180   -8.2120   22.0770 C   0  0  0  0  0  3  0  0  0  0  0  0
  -22.4170   -8.0150   21.3540 C   0  0  0  0  0  0  0  0  0  0  0  0
  -21.9720   -9.0080   20.4650 C   0  0  0  0  0  3  0  0  0  0  0  0
  -22.6930  -10.2000   20.3110 C   0  0  0  0  0  3  0  0  0  0  0  0
  -21.6560   -6.8760   21.4240 O   0  0  0  0  0  0  0  0  0  0  0  0
  -21.6820   -6.0670   22.5290 C   0  0  0  0  0  0  0  0  0  0  0  0
  -21.3990   -6.5610   23.8210 C   0  0  0  0  0  3  0  0  0  0  0  0
  -21.3640   -5.6780   24.9180 C   0  0  0  0  0  3  0  0  0  0  0  0
  -21.6040   -4.3040   24.7250 C   0  0  0  0  0  0  0  0  0  0  0  0
  -21.8820   -3.8110   23.4380 C   0  0  0  0  0  3  0  0  0  0  0  0
  -21.9180   -4.6910   22.3430 C   0  0  0  0  0  0  0  0  0  0  0  0
  -22.1660   -4.2110   21.1000 F   0  0  0  0  0  0  0  0  0  0  0  0
  -21.5620   -3.4520   25.7760 F   0  0  0  0  0  0  0  0  0  0  0  0
  -22.7280  -13.5090   21.2100 C   0  0  0  0  0  0  0  0  0  0  0  0
  -21.9960  -12.8120   22.0680 N   0  0  0  0  0  0  0  0  0  0  0  0
  -22.3100  -14.5460   20.6950 O   0  0  0  0  0  0  0  0  0  0  0  0
  -22.3550  -11.9760   22.5040 H   0  0  0  0  0  0  0  0  0  0  0  0
  -21.0610  -13.1230   22.2950 H   0  0  0  0  0  0  0  0  0  0  0  0
  -25.3460  -15.1710   20.4090 N   0  0  0  0  0  0  0  0  0  0  0  0
  -24.5010  -15.7340   20.4430 H   0  0  0  0  0  0  0  0  0  0  0  0
  -25.9610  -15.4780   19.6680 H   0  0  0  0  0  0  0  0  0  0  0  0
  -22.3690  -30.1910   24.3430 C   0  0  0  0  0  1  0  0  0  0  0  0
  -22.6350  -29.6370   22.8750 C   0  0  0  0  0  1  0  0  0  0  0  0
  -24.9860  -29.1050   22.7160 O   0  0  0  0  0  1  0  0  0  0  0  0
  -24.5480  -31.7670   22.6940 C   0  0  0  0  0  0  0  0  0  0  0  0
  -26.1130  -28.3730   21.7030 C   0  0  0  0  0  3  0  0  0  0  0  0
  -23.6650  -29.4050   20.8620 C   0  0  0  0  0  2  0  0  0  0  0  0
  -25.2650  -29.0200   19.4260 C   0  0  0  0  0  3  0  0  0  0  0  0
  -25.6650  -31.1660   20.6710 C   0  0  0  0  0  2  0  0  0  0  0  0
  -26.1610  -29.8430   20.1870 C   0  0  0  0  0  3  0  0  0  0  0  0
  -27.0150  -29.2180   21.0860 C   0  0  0  0  0  2  0  0  0  0  0  0
  -26.0300  -27.2780   20.6770 C   0  0  0  0  0  2  0  0  0  0  0  0
  -25.4260  -27.6390   19.4690 C   0  0  0  0  0  2  0  0  0  0  0  0
  -23.8570  -29.3870   19.4140 C   0  0  0  0  0  2  0  0  0  0  0  0
  -24.4510  -30.9410   21.4540 N   0  0  0  0  0  0  0  0  0  0  0  0
  -23.5290  -32.2680   23.1920 O   0  0  0  0  0  0  0  0  0  0  0  0
  -23.4600  -27.6310   21.9320 C   0  0  0  0  0  2  0  0  0  0  0  0
  -22.7480  -27.4610   23.3070 N   0  0  0  0  0  2  0  0  0  0  0  0
  -24.2250  -26.9310   22.5350 O   0  0  0  0  0  1  0  0  0  0  0  0
  -23.3450  -26.8740   23.8650 H   0  0  0  0  0  0  0  0  0  0  0  0
  -18.6290  -28.0900   22.2300 C   0  0  0  0  0  0  0  0  0  0  0  0
  -21.1920  -27.7680   24.0520 C   0  0  0  0  0  2  0  0  0  0  0  0
  -21.5480  -26.2860   23.9350 C   0  0  0  0  0  2  0  0  0  0  0  0
  -21.5100  -25.7240   22.3940 C   0  0  0  0  0  1  0  0  0  0  0  0
  -19.2810  -26.8060   20.9270 C   0  0  0  0  0  1  0  0  0  0  0  0
  -19.5470  -28.5080   23.4650 C   0  0  0  0  0  0  0  0  0  0  0  0
  -19.0860  -29.6980   24.1400 C   0  0  0  0  0  3  0  0  0  0  0  0
  -17.7990  -30.2730   24.0150 C   0  0  0  0  0  3  0  0  0  0  0  0
  -16.8390  -29.6180   23.2370 C   0  0  0  0  0  3  0  0  0  0  0  0
  -17.2500  -28.5590   22.3670 C   0  0  0  0  0  3  0  0  0  0  0  0
  -25.8380  -32.3520   23.5460 C   0  0  0  0  0  3  0  0  0  0  0  0
  -25.5120  -33.7450   23.9920 N   0  0  0  0  0  0  0  0  0  0  0  0
  -25.9180  -34.8890   23.4220 C   0  0  0  0  0  0  0  0  0  0  0  0
  -26.6450  -34.8930   22.4300 O   0  0  0  0  0  0  0  0  0  0  0  0
  -24.8450  -33.8140   24.7460 H   0  0  0  0  0  0  0  0  0  0  0  0
  -24.1480  -36.6850   23.2760 C   0  0  0  0  0  1  0  0  0  0  0  0
  -25.4230  -36.2370   24.0090 C   0  0  0  0  0  3  0  0  0  0  0  0
  -27.5530  -37.1470   24.8450 C   0  0  0  0  0  1  0  0  0  0  0  0
  -26.4220  -37.3320   23.9400 N   0  0  0  0  0  0  0  0  0  0  0  0
  -25.9880  -38.2250   24.1590 H   0  0  0  0  0  0  0  0  0  0  0  0
  -26.3940  -31.6320   24.8960 C   0  0  1  0  0  0  0  0  0  0  0  0
  -25.3430  -31.3770   26.0070 C   0  0  0  0  0  1  0  0  0  0  0  0
  -27.1040  -30.2960   24.6050 C   0  0  0  0  0  1  0  0  0  0  0  0
  -27.5060  -32.4970   25.5750 C   0  0  0  0  0  1  0  0  0  0  0  0
  1  9  2  0
  3  5  1  0
  3  7  1  0
  5  8  1  0
 10 11  2  0
 10 13  1  0
 11 15  1  0
 13 14  2  0
 14 12  1  0
 15 12  2  0
 16 13  1  0
 17 25  1  0
 18 23  1  0
 19 20  1  0
 19 18  1  0
 21 20  1  0
 21 30  1  0
 21 22  1  0
 23 17  1  0
 23 22  1  0
 24 17  2  0
 25 26  1  0
 27 28  2  0
 28 47  1  0
 29 28  1  0
 29 32  1  0
 30 31  1  0
 30 27  1  0
 31 29  2  0
 32 33  1  0
 33 34  2  0
 35 38  1  0
 35 34  1  0
 36 35  2  0
 37 36  1  0
 37 32  2  0
 38 39  1  0
 39 40  1  0
 40 41  2  0
 42 41  1  0
 42 46  1  0
 43 42  2  0
 44 39  2  0
 44 43  1  0
 45 44  1  0
 47 48  1  0
 48 51  1  0
 48 50  1  0
 49 47  2  0
 52 53  1  0
 52 27  1  0
 54 52  1  0
 56 55  1  0
 58 69  2  0
 59 57  1  0
 60 68  1  0
 61 67  1  0
 61 66  1  0
 61 63  1  0
 62 68  1  0
 63 62  1  0
 63 64  1  0
 64 59  1  0
 65 59  1  0
 66 65  1  0
 67 60  1  0
 68 58  1  0
 70 72  1  0
 70 71  1  0
 71 73  1  0
 74 83  2  0
 74 79  1  0
 76 75  1  0
 77 76  1  0
 78 74  1  0
 79 75  1  0
 79 80  2  0
 81 80  1  0
 82 81  2  0
 83 82  1  0
 84 58  1  0
 84 85  1  0
 84 94  1  0
 85 88  1  0
 86 85  1  0
 86 90  1  0
 87 86  2  0
 90 89  1  0
 92 90  1  0
 92 93  1  0
 92 91  1  0
 94 97  1  1
 94 95  1  0
 96 94  1  0
M  ISO  4  17 100  25 100  56 101  57 101
M  END
>  <TORSDO>  (1) 
F 18

>  <SCORE>  (1) 
6.372

>  <name>  (1) 
0

>  <ligand_id>  (1) 
0

>  <original_smiles>  (1) 
[H]c1c([H])c([H])c2c(c1[H])C([H])([H])C([H])([H])C([H])([H])C2([H])N([H])C(=O)C1([H])N(C(=O)C([H])(N([H])C(=O)C([H])(N([H])C([H])([H])[H])C([H])([H])[H])C(C([H])([H])[H])(C([H])([H])[H])C([H])([H])[H])C([H])([H])c2c([H])c(OC([H])(C([H])([H])[H])C3([H])C(=O)C([H])([H])C4(N(c5c([H])c(N([H])C(=O)N6C([H])([H])C([H])([H])C([H])([H])C([H])(n7nc(-c8c([H])c([H])c(Oc9c([H])c([H])c(F)c([H])c9F)c([H])c8[H])c(C(=O)N([H])[H])c7N([H])[H])C6([H])[H])c([H])c([H])c5C([H])([H])[H])C([H])([H])C4([H])[H])C3([H])[H])c([H])c([H])c2C1([H])[H]

>  <smiles>  (1) 
[H]c1c([H])c([H])c2c(c1[H])C([H])([H])C([H])([H])C([H])([H])C2([H])N([H])C(=O)C1([H])N(C(=O)C([H])(N([H])C(=O)C([H])(N([H])C([H])([H])[H])C([H])([H])[H])C(C([H])([H])[H])(C([H])([H])[H])C([H])([H])[H])C([H])([H])c2c([H])c(OC([H])(C([H])([H])[H])C3([H])C(=O)C([H])([H])C4(N(c5c([H])c(N([H])C(=O)N6C([H])([H])C([H])([H])C([H])([H])C([H])(n7nc(-c8c([H])c([H])c(Oc9c([H])c([H])c(F)c([H])c9F)c([H])c8[H])c(C(=O)N([H])[H])c7N([H])[H])C6([H])[H])c([H])c([H])c5C([H])([H])[H])C([H])([H])C4([H])[H])C3([H])[H])c([H])c([H])c2C1([H])[H]

$$$$
1:0:0
     RDKit          3D

 94103  0  0  1  0  0  0  0  0999 V2000
  -29.1220  -23.1380   20.7920 C   0  0  0  0  0  0  0  0  0  0  0  0
  -29.1240  -22.6990   22.1780 C   0  0  0  0  0  0  0  0  0  0  0  0
  -29.3420  -21.9290   19.9890 C   0  0  0  0  0  0  0  0  0  0  0  0
  -29.4510  -23.3990   23.2870 C   0  0  0  0  0  2  0  0  0  0  0  0
  -28.9210  -24.3600   20.2150 C   0  0  0  0  0  3  0  0  0  0  0  0
  -28.9430  -21.2010   22.1720 C   0  0  0  0  0  2  0  0  0  0  0  0
  -29.3520  -20.8370   20.8090 N   0  0  0  0  0  0  0  0  0  0  0  0
  -29.4820  -21.8810   18.7600 O   0  0  0  0  0  0  0  0  0  0  0  0
  -32.5500  -18.9340   20.5300 C   0  0  0  0  0  3  0  0  0  0  0  0
  -31.6150  -19.9740   20.6410 C   0  0  0  0  0  3  0  0  0  0  0  0
  -32.1220  -17.6010   20.3940 C   0  0  0  0  0  3  0  0  0  0  0  0
  -29.7980  -18.3460   20.4670 C   0  0  0  0  0  3  0  0  0  0  0  0
  -30.2290  -19.7050   20.6080 C   0  0  0  0  0  0  0  0  0  0  0  0
  -30.7430  -17.2690   20.3530 C   0  0  0  0  0  0  0  0  0  0  0  0
  -30.9930  -14.7740   19.9030 C   0  0  0  0  0  0  0  0  0  0  0  0
  -30.6510  -12.5110   18.9590 C   0  0  0  0  0  2  0  0  0  0  0  0
  -29.6630  -12.6360   17.7840 C   0  0  0  0  0  2  0  0  0  0  0  0
  -28.2180  -12.4730   18.2880 C   0  0  0  0  0  2  0  0  0  0  0  0
  -27.9160  -13.3930   19.5020 C   0  0  0  0  0  3  0  0  0  0  0  0
  -29.0300  -13.3190   20.5710 C   0  0  0  0  0  2  0  0  0  0  0  0
  -30.3120  -13.5890   19.9070 N   0  0  0  0  0  0  0  0  0  0  0  0
  -32.1180  -14.8590   19.4020 O   0  0  0  0  0  0  0  0  0  0  0  0
  -30.2990  -15.8870   20.2840 N   0  0  0  0  0  0  0  0  0  0  0  0
  -29.3270  -15.7290   20.5010 H   0  0  0  0  0  0  0  0  0  0  0  0
  -25.5940  -14.0240   20.4040 C   0  0  0  0  0  0  0  0  0  0  0  0
  -24.5340  -13.2650   20.8180 C   0  0  0  0  0  0  0  0  0  0  0  0
  -24.9570  -11.9040   20.7110 C   0  0  0  0  0  0  0  0  0  0  0  0
  -26.5970  -13.1270   20.0700 N   0  0  0  0  0  0  0  0  0  0  0  0
  -26.2200  -11.8440   20.3130 N   0  0  0  0  0  0  0  0  0  0  0  0
  -24.2060  -10.6550   20.9030 C   0  0  0  0  0  0  0  0  0  0  0  0
  -24.6100   -9.6950   21.8550 C   0  0  0  0  0  3  0  0  0  0  0  0
  -23.8660   -8.5090   22.0360 C   0  0  0  0  0  3  0  0  0  0  0  0
  -22.6990   -8.2790   21.2690 C   0  0  0  0  0  0  0  0  0  0  0  0
  -22.3120   -9.2280   20.3080 C   0  0  0  0  0  3  0  0  0  0  0  0
  -23.0570  -10.4060   20.1240 C   0  0  0  0  0  3  0  0  0  0  0  0
  -21.9260   -7.1470   21.3630 O   0  0  0  0  0  0  0  0  0  0  0  0
  -21.7820   -6.4690   22.5460 C   0  0  0  0  0  0  0  0  0  0  0  0
  -21.2270   -7.0800   23.6910 C   0  0  0  0  0  3  0  0  0  0  0  0
  -21.0310   -6.3260   24.8660 C   0  0  0  0  0  3  0  0  0  0  0  0
  -21.3700   -4.9600   24.8920 C   0  0  0  0  0  0  0  0  0  0  0  0
  -21.9160   -4.3490   23.7500 C   0  0  0  0  0  3  0  0  0  0  0  0
  -22.1140   -5.1000   22.5790 C   0  0  0  0  0  0  0  0  0  0  0  0
  -22.6210   -4.5000   21.4740 F   0  0  0  0  0  0  0  0  0  0  0  0
  -21.1740   -4.2340   26.0180 F   0  0  0  0  0  0  0  0  0  0  0  0
  -23.1740  -13.7640   21.2120 C   0  0  0  0  0  0  0  0  0  0  0  0
  -22.4890  -13.0570   22.1050 N   0  0  0  0  0  0  0  0  0  0  0  0
  -22.7290  -14.8200   20.7630 O   0  0  0  0  0  0  0  0  0  0  0  0
  -22.8670  -12.2090   22.5000 H   0  0  0  0  0  0  0  0  0  0  0  0
  -21.5760  -13.3730   22.3980 H   0  0  0  0  0  0  0  0  0  0  0  0
  -25.7810  -15.3970   20.2630 N   0  0  0  0  0  0  0  0  0  0  0  0
  -25.0280  -16.0570   20.4250 H   0  0  0  0  0  0  0  0  0  0  0  0
  -26.6250  -15.8380   19.9190 H   0  0  0  0  0  0  0  0  0  0  0  0
  -28.5710  -25.7050   20.8660 C   0  0  0  0  0  2  0  0  0  0  0  0
  -28.5270  -26.8220   19.9300 O   0  0  0  0  0  0  0  0  0  0  0  0
  -24.5790  -31.8200   23.1430 C   0  0  0  0  0  0  0  0  0  0  0  0
  -27.3540  -27.5600   19.9350 C   0  0  0  0  0  0  0  0  0  0  0  0
  -23.4090  -30.4120   21.4810 C   0  0  0  0  0  3  0  0  0  0  0  0
  -24.9070  -28.9870   19.9900 C   0  0  0  0  0  0  0  0  0  0  0  0
  -25.9080  -30.8970   21.2460 C   0  0  0  0  0  2  0  0  0  0  0  0
  -26.0510  -29.5470   20.5670 C   0  0  0  0  0  0  0  0  0  0  0  0
  -27.2840  -28.8490   20.5250 C   0  0  0  0  0  3  0  0  0  0  0  0
  -26.1920  -27.0230   19.3450 C   0  0  0  0  0  3  0  0  0  0  0  0
  -24.9710  -27.7260   19.3730 C   0  0  0  0  0  3  0  0  0  0  0  0
  -23.6240  -29.7840   20.0780 C   0  0  0  0  0  2  0  0  0  0  0  0
  -24.6520  -31.0570   22.0150 N   0  0  0  0  0  0  0  0  0  0  0  0
  -23.4970  -32.0230   23.7090 O   0  0  0  0  0  0  0  0  0  0  0  0
  -22.8170  -29.3380   22.4200 C   0  0  0  0  0  0  0  0  0  0  0  0
  -21.5040  -29.0880   22.2850 N   0  0  0  0  0  0  0  0  0  0  0  0
  -23.5320  -28.7330   23.2210 O   0  0  0  0  0  0  0  0  0  0  0  0
  -20.9950  -29.6190   21.5940 H   0  0  0  0  0  0  0  0  0  0  0  0
  -18.2030  -27.6720   22.7150 C   0  0  0  0  0  0  0  0  0  0  0  0
  -20.7350  -28.0910   23.0340 C   0  0  0  0  0  3  0  0  0  0  0  0
  -20.9440  -26.6760   22.4450 C   0  0  0  0  0  2  0  0  0  0  0  0
  -19.8840  -26.2960   21.4120 C   0  0  0  0  0  2  0  0  0  0  0  0
  -18.4820  -26.3440   22.0290 C   0  0  0  0  0  2  0  0  0  0  0  0
  -19.2620  -28.5000   23.1730 C   0  0  0  0  0  0  0  0  0  0  0  0
  -18.9470  -29.7400   23.7730 C   0  0  0  0  0  3  0  0  0  0  0  0
  -17.6080  -30.1530   23.9180 C   0  0  0  0  0  3  0  0  0  0  0  0
  -16.5660  -29.3230   23.4760 C   0  0  0  0  0  3  0  0  0  0  0  0
  -16.8620  -28.0850   22.8780 C   0  0  0  0  0  3  0  0  0  0  0  0
  -25.8450  -32.4830   23.7690 C   0  0  0  0  0  3  0  0  0  0  0  0
  -25.4860  -33.8620   24.1240 N   0  0  0  0  0  0  0  0  0  0  0  0
  -25.7780  -34.9390   23.3860 C   0  0  0  0  0  0  0  0  0  0  0  0
  -26.4490  -34.8790   22.3510 O   0  0  0  0  0  0  0  0  0  0  0  0
  -24.8750  -33.9740   24.9210 H   0  0  0  0  0  0  0  0  0  0  0  0
  -23.9880  -36.6800   23.0740 C   0  0  0  0  0  1  0  0  0  0  0  0
  -25.2470  -36.3020   23.8720 C   0  0  0  0  0  3  0  0  0  0  0  0
  -27.3490  -37.2440   24.7190 C   0  0  0  0  0  1  0  0  0  0  0  0
  -26.2410  -37.3930   23.7770 N   0  0  0  0  0  0  0  0  0  0  0  0
  -25.8070  -38.2960   23.9450 H   0  0  0  0  0  0  0  0  0  0  0  0
  -26.3980  -31.7060   25.0280 C   0  0  1  0  0  0  0  0  0  0  0  0
  -25.3170  -31.4100   26.0930 C   0  0  0  0  0  1  0  0  0  0  0  0
  -27.0250  -30.3590   24.6040 C   0  0  0  0  0  1  0  0  0  0  0  0
  -27.5240  -32.5250   25.7010 C   0  0  0  0  0  1  0  0  0  0  0  0
  1  2  1  0
  2  4  2  0
  3  1  1  0
  3  7  1  0
  5  1  2  0
  5 53  1  0
  6  2  1  0
  7  6  1  0
  8  3  2  0
  9 10  1  0
 11  9  2  0
 12 13  1  0
 13 10  2  0
 13  7  1  0
 14 11  1  0
 14 12  2  0
 15 21  1  0
 15 23  1  0
 16 21  1  0
 17 18  1  0
 17 16  1  0
 19 18  1  0
 19 28  1  0
 19 20  1  0
 21 20  1  0
 22 15  2  0
 23 14  1  0
 23 24  1  0
 25 26  2  0
 26 45  1  0
 27 26  1  0
 27 30  1  0
 28 29  1  0
 28 25  1  0
 29 27  2  0
 30 31  1  0
 31 32  2  0
 33 36  1  0
 33 32  1  0
 34 33  2  0
 35 34  1  0
 35 30  2  0
 36 37  1  0
 37 42  2  0
 37 38  1  0
 38 39  2  0
 39 40  1  0
 40 44  1  0
 41 40  2  0
 42 41  1  0
 43 42  1  0
 45 46  1  0
 46 49  1  0
 46 48  1  0
 47 45  2  0
 50 25  1  0
 50 51  1  0
 52 50  1  0
 54 56  1  0
 54 53  1  0
 55 66  2  0
 56 61  1  0
 57 65  1  0
 57 67  1  0
 58 64  1  0
 58 60  1  0
 59 65  1  0
 60 59  1  0
 61 60  2  0
 62 63  1  0
 62 56  2  0
 63 58  2  0
 64 57  1  0
 65 55  1  0
 67 69  2  0
 68 67  1  0
 70 68  1  0
 71 80  2  0
 71 76  1  0
 72 68  1  0
 72 76  1  0
 73 72  1  0
 74 75  1  0
 74 73  1  0
 75 71  1  0
 76 77  2  0
 77 78  1  0
 79 78  2  0
 80 79  1  0
 81 55  1  0
 81 82  1  0
 81 91  1  0
 82 85  1  0
 83 87  1  0
 83 82  1  0
 84 83  2  0
 87 86  1  0
 89 87  1  0
 89 90  1  0
 89 88  1  0
 91 94  1  1
 91 92  1  0
 93 91  1  0
M  ISO  4  15 100  23 100  53 101  54 101
M  END
>  <TORSDO>  (2) 
F 18

>  <SCORE>  (2) 
-14.069

>  <name>  (2) 
1

>  <ligand_id>  (2) 
1

>  <original_smiles>  (2) 
[H]C([H])=C1C(=C([H])C([H])([H])Oc2c([H])c([H])c3c(c2[H])C([H])([H])N(C(=O)C([H])(N([H])C(=O)C([H])(N([H])C([H])([H])[H])C([H])([H])[H])C(C([H])([H])[H])(C([H])([H])[H])C([H])([H])[H])C([H])(C(=O)N([H])C2([H])c4c([H])c([H])c([H])c([H])c4C([H])([H])C([H])([H])C2([H])[H])C3([H])[H])C(=O)N(c2c([H])c([H])c([H])c(N([H])C(=O)N3C([H])([H])C([H])([H])C([H])([H])C([H])(n4nc(-c5c([H])c([H])c(Oc6c([H])c([H])c(F)c([H])c6F)c([H])c5[H])c(C(=O)N([H])[H])c4N([H])[H])C3([H])[H])c2[H])C1([H])[H]

>  <smiles>  (2) 
[H]C([H])=C1C(=C([H])C([H])([H])Oc2c([H])c([H])c3c(c2[H])C([H])([H])N(C(=O)C([H])(N([H])C(=O)C([H])(N([H])C([H])([H])[H])C([H])([H])[H])C(C([H])([H])[H])(C([H])([H])[H])C([H])([H])[H])C([H])(C(=O)N([H])C2([H])c4c([H])c([H])c([H])c([H])c4C([H])([H])C([H])([H])C2([H])[H])C3([H])[H])C(=O)N(c2c([H])c([H])c([H])c(N([H])C(=O)N3C([H])([H])C([H])([H])C([H])([H])C([H])(n4nc(-c5c([H])c([H])c(Oc6c([H])c([H])c(F)c([H])c6F)c([H])c5[H])c(C(=O)N([H])[H])c4N([H])[H])C3([H])[H])c2[H])C1([H])[H]

$$$$
2:0:0
     RDKit          3D

 94103  0  0  1  0  0  0  0  0999 V2000
  -28.8680  -23.6790   20.5610 C   0  0  0  0  0  0  0  0  0  0  0  0
  -27.6180  -23.2670   17.9490 C   0  0  0  0  0  2  0  0  0  0  0  0
  -28.1390  -24.6490   18.3730 C   0  0  0  0  0  2  0  0  0  0  0  0
  -27.7850  -22.1340   19.0000 C   0  0  0  0  0  2  0  0  0  0  0  0
  -27.9980  -24.8550   19.8870 C   0  0  0  0  0  3  0  0  0  0  0  0
  -28.7790  -22.3500   20.0760 N   0  0  0  0  0  0  0  0  0  0  0  0
  -29.5830  -23.9960   21.5170 O   0  0  0  0  0  0  0  0  0  0  0  0
  -31.5620  -20.1210   21.5340 C   0  0  0  0  0  3  0  0  0  0  0  0
  -31.1540  -18.8020   21.2480 C   0  0  0  0  0  3  0  0  0  0  0  0
  -30.7750  -21.2420   21.1870 C   0  0  0  0  0  3  0  0  0  0  0  0
  -29.1300  -19.7170   20.2690 C   0  0  0  0  0  3  0  0  0  0  0  0
  -29.9210  -18.5330   20.6140 C   0  0  0  0  0  0  0  0  0  0  0  0
  -29.5270  -21.1110   20.5270 C   0  0  0  0  0  0  0  0  0  0  0  0
  -30.6250  -14.7940   20.4800 C   0  0  0  0  0  0  0  0  0  0  0  0
  -30.3480  -12.5120   19.4840 C   0  0  0  0  0  2  0  0  0  0  0  0
  -29.4500  -12.5630   18.2340 C   0  0  0  0  0  2  0  0  0  0  0  0
  -27.9730  -12.4030   18.6410 C   0  0  0  0  0  2  0  0  0  0  0  0
  -27.5770  -13.3070   19.8400 C   0  0  0  0  0  3  0  0  0  0  0  0
  -28.6160  -13.2800   20.9790 C   0  0  0  0  0  2  0  0  0  0  0  0
  -29.9210  -13.6070   20.3920 N   0  0  0  0  0  0  0  0  0  0  0  0
  -31.7980  -14.8090   20.1030 O   0  0  0  0  0  0  0  0  0  0  0  0
  -29.5800  -17.0520   20.2150 C   0  0  0  0  0  0  0  0  0  0  0  0
  -30.0700  -15.9780   20.9460 N   0  0  0  0  0  0  0  0  0  0  0  0
  -28.8400  -16.8730   19.2440 O   0  0  0  0  0  0  0  0  0  0  0  0
  -30.6630  -16.3640   21.6630 H   0  0  0  0  0  0  0  0  0  0  0  0
  -25.1840  -13.8880   20.5460 C   0  0  0  0  0  0  0  0  0  0  0  0
  -24.1120  -13.1150   20.9000 C   0  0  0  0  0  0  0  0  0  0  0  0
  -24.5760  -11.7630   20.8810 C   0  0  0  0  0  0  0  0  0  0  0  0
  -26.2300  -13.0110   20.3210 N   0  0  0  0  0  0  0  0  0  0  0  0
  -25.8720  -11.7260   20.5890 N   0  0  0  0  0  0  0  0  0  0  0  0
  -23.8440  -10.5000   21.0640 C   0  0  0  0  0  0  0  0  0  0  0  0
  -24.2620   -9.5290   22.0020 C   0  0  0  0  0  3  0  0  0  0  0  0
  -23.5260   -8.3360   22.1740 C   0  0  0  0  0  3  0  0  0  0  0  0
  -22.3580   -8.1050   21.4100 C   0  0  0  0  0  0  0  0  0  0  0  0
  -21.9580   -9.0650   20.4620 C   0  0  0  0  0  3  0  0  0  0  0  0
  -22.6960  -10.2470   20.2860 C   0  0  0  0  0  3  0  0  0  0  0  0
  -21.5970   -6.9640   21.4910 O   0  0  0  0  0  0  0  0  0  0  0  0
  -21.5380   -6.2190   22.6410 C   0  0  0  0  0  0  0  0  0  0  0  0
  -21.0950   -6.7710   23.8630 C   0  0  0  0  0  3  0  0  0  0  0  0
  -20.9770   -5.9510   25.0040 C   0  0  0  0  0  3  0  0  0  0  0  0
  -21.3000   -4.5830   24.9240 C   0  0  0  0  0  0  0  0  0  0  0  0
  -21.7410   -4.0330   23.7090 C   0  0  0  0  0  3  0  0  0  0  0  0
  -21.8550   -4.8480   22.5700 C   0  0  0  0  0  0  0  0  0  0  0  0
  -22.2570   -4.3060   21.3940 F   0  0  0  0  0  0  0  0  0  0  0  0
  -21.1820   -3.7950   26.0190 F   0  0  0  0  0  0  0  0  0  0  0  0
  -22.7100  -13.5930   21.1430 C   0  0  0  0  0  0  0  0  0  0  0  0
  -21.9680  -12.9020   22.0000 N   0  0  0  0  0  0  0  0  0  0  0  0
  -22.2810  -14.6140   20.6070 O   0  0  0  0  0  0  0  0  0  0  0  0
  -22.3300  -12.0760   22.4540 H   0  0  0  0  0  0  0  0  0  0  0  0
  -21.0270  -13.2050   22.2070 H   0  0  0  0  0  0  0  0  0  0  0  0
  -25.3500  -15.2600   20.3740 N   0  0  0  0  0  0  0  0  0  0  0  0
  -24.5890  -15.9160   20.4990 H   0  0  0  0  0  0  0  0  0  0  0  0
  -26.2030  -15.6980   20.0450 H   0  0  0  0  0  0  0  0  0  0  0  0
  -28.2490  -26.3160   20.2510 O   0  0  0  0  0  0  0  0  0  0  0  0
  -24.6270  -31.8810   23.2960 C   0  0  0  0  0  0  0  0  0  0  0  0
  -27.1750  -27.2530   20.1930 C   0  0  0  0  0  0  0  0  0  0  0  0
  -23.4110  -30.5030   21.6570 C   0  0  0  0  0  3  0  0  0  0  0  0
  -24.8400  -28.9550   20.2050 C   0  0  0  0  0  0  0  0  0  0  0  0
  -25.9610  -30.7840   21.4660 C   0  0  0  0  0  2  0  0  0  0  0  0
  -26.0240  -29.4040   20.8020 C   0  0  0  0  0  0  0  0  0  0  0  0
  -27.1940  -28.5680   20.7830 C   0  0  0  0  0  3  0  0  0  0  0  0
  -25.9580  -26.8880   19.5680 C   0  0  0  0  0  3  0  0  0  0  0  0
  -24.8140  -27.7050   19.5750 C   0  0  0  0  0  3  0  0  0  0  0  0
  -23.6150  -29.8450   20.2690 C   0  0  0  0  0  2  0  0  0  0  0  0
  -24.6890  -31.0750   22.1950 N   0  0  0  0  0  0  0  0  0  0  0  0
  -23.5450  -32.1580   23.8350 O   0  0  0  0  0  0  0  0  0  0  0  0
  -22.7450  -29.4800   22.6100 C   0  0  0  0  0  0  0  0  0  0  0  0
  -21.4210  -29.2920   22.4740 N   0  0  0  0  0  0  0  0  0  0  0  0
  -23.4210  -28.8590   23.4350 O   0  0  0  0  0  0  0  0  0  0  0  0
  -20.9340  -29.8490   21.7850 H   0  0  0  0  0  0  0  0  0  0  0  0
  -18.0530  -28.0440   22.9340 C   0  0  0  0  0  0  0  0  0  0  0  0
  -20.6020  -28.3470   23.2390 C   0  0  0  0  0  3  0  0  0  0  0  0
  -20.7330  -26.9100   22.6790 C   0  0  0  0  0  2  0  0  0  0  0  0
  -19.6510  -26.5620   21.6520 C   0  0  0  0  0  2  0  0  0  0  0  0
  -18.2580  -26.6920   22.2740 C   0  0  0  0  0  2  0  0  0  0  0  0
  -19.1520  -28.8280   23.3730 C   0  0  0  0  0  0  0  0  0  0  0  0
  -18.9030  -30.0920   23.9510 C   0  0  0  0  0  3  0  0  0  0  0  0
  -17.5870  -30.5720   24.0940 C   0  0  0  0  0  3  0  0  0  0  0  0
  -16.5020  -29.7850   23.6680 C   0  0  0  0  0  3  0  0  0  0  0  0
  -16.7360  -28.5230   23.0950 C   0  0  0  0  0  3  0  0  0  0  0  0
  -25.9110  -32.5100   23.9190 C   0  0  0  0  0  3  0  0  0  0  0  0
  -25.6100  -33.9140   24.2380 N   0  0  0  0  0  0  0  0  0  0  0  0
  -25.9400  -34.9580   23.4680 C   0  0  0  0  0  0  0  0  0  0  0  0
  -26.5980  -34.8400   22.4300 O   0  0  0  0  0  0  0  0  0  0  0  0
  -25.0260  -34.0770   25.0460 H   0  0  0  0  0  0  0  0  0  0  0  0
  -24.2190  -36.7620   23.1150 C   0  0  0  0  0  1  0  0  0  0  0  0
  -25.4680  -36.3560   23.9160 C   0  0  0  0  0  3  0  0  0  0  0  0
  -27.6180  -37.2360   24.7150 C   0  0  0  0  0  1  0  0  0  0  0  0
  -26.5080  -37.3990   23.7800 N   0  0  0  0  0  0  0  0  0  0  0  0
  -26.1110  -38.3260   23.9170 H   0  0  0  0  0  0  0  0  0  0  0  0
  -26.4110  -31.7460   25.2060 C   0  0  1  0  0  0  0  0  0  0  0  0
  -25.3100  -31.5260   26.2710 C   0  0  0  0  0  1  0  0  0  0  0  0
  -26.9820  -30.3590   24.8300 C   0  0  0  0  0  1  0  0  0  0  0  0
  -27.5680  -32.5330   25.8650 C   0  0  0  0  0  1  0  0  0  0  0  0
  1  7  2  0
  2  3  1  0
  2  4  1  0
  3  5  1  0
  4  6  1  0
  5 54  1  0
  5  1  1  0
  6 13  1  0
  6  1  1  0
  9  8  1  0
 10  8  2  0
 11 13  2  0
 11 12  1  0
 12  9  2  0
 13 10  1  0
 14 23  1  0
 15 20  1  0
 16 17  1  0
 16 15  1  0
 18 17  1  0
 18 29  1  0
 18 19  1  0
 20 14  1  0
 20 19  1  0
 21 14  2  0
 22 12  1  0
 22 23  1  0
 23 25  1  0
 24 22  2  0
 26 27  2  0
 27 46  1  0
 28 27  1  0
 28 31  1  0
 29 26  1  0
 29 30  1  0
 30 28  2  0
 31 32  1  0
 32 33  2  0
 34 37  1  0
 34 33  1  0
 35 34  2  0
 36 35  1  0
 36 31  2  0
 37 38  1  0
 38 39  1  0
 39 40  2  0
 41 40  1  0
 41 45  1  0
 42 41  2  0
 43 38  2  0
 43 42  1  0
 44 43  1  0
 46 47  1  0
 47 50  1  0
 47 49  1  0
 48 46  2  0
 51 52  1  0
 51 26  1  0
 53 51  1  0
 55 66  2  0
 56 54  1  0
 56 61  1  0
 57 65  1  0
 57 67  1  0
 58 64  1  0
 58 60  1  0
 59 65  1  0
 60 59  1  0
 61 60  2  0
 62 63  1  0
 62 56  2  0
 63 58  2  0
 64 57  1  0
 65 55  1  0
 67 69  2  0
 68 67  1  0
 70 68  1  0
 71 80  2  0
 71 76  1  0
 72 68  1  0
 72 76  1  0
 73 72  1  0
 74 75  1  0
 74 73  1  0
 75 71  1  0
 76 77  2  0
 77 78  1  0
 79 78  2  0
 80 79  1  0
 81 55  1  0
 81 82  1  0
 81 91  1  0
 82 85  1  0
 83 87  1  0
 83 82  1  0
 84 83  2  0
 87 86  1  0
 89 87  1  0
 89 90  1  0
 89 88  1  0
 91 94  1  1
 91 92  1  0
 93 91  1  0
M  ISO  4   5 101  14 100  23 100  54 101
M  END
>  <TORSDO>  (3) 
F 17

>  <SCORE>  (3) 
-15.454

>  <name>  (3) 
2

>  <ligand_id>  (3) 
2

>  <original_smiles>  (3) 
[H]c1c([H])c(C(=O)N([H])C(=O)N2C([H])([H])C([H])([H])C([H])([H])C([H])(n3nc(-c4c([H])c([H])c(Oc5c([H])c([H])c(F)c([H])c5F)c([H])c4[H])c(C(=O)N([H])[H])c3N([H])[H])C2([H])[H])c([H])c(N2C(=O)C([H])(Oc3c([H])c([H])c4c(c3[H])C([H])([H])N(C(=O)C([H])(N([H])C(=O)C([H])(N([H])C([H])([H])[H])C([H])([H])[H])C(C([H])([H])[H])(C([H])([H])[H])C([H])([H])[H])C([H])(C(=O)N([H])C3([H])c5c([H])c([H])c([H])c([H])c5C([H])([H])C([H])([H])C3([H])[H])C4([H])[H])C([H])([H])C([H])([H])C2([H])[H])c1[H]

>  <smiles>  (3) 
[H]c1c([H])c(C(=O)N([H])C(=O)N2C([H])([H])C([H])([H])C([H])([H])C([H])(n3nc(-c4c([H])c([H])c(Oc5c([H])c([H])c(F)c([H])c5F)c([H])c4[H])c(C(=O)N([H])[H])c3N([H])[H])C2([H])[H])c([H])c(N2C(=O)C([H])(Oc3c([H])c([H])c4c(c3[H])C([H])([H])N(C(=O)C([H])(N([H])C(=O)C([H])(N([H])C([H])([H])[H])C([H])([H])[H])C(C([H])([H])[H])(C([H])([H])[H])C([H])([H])[H])C([H])(C(=O)N([H])C3([H])c5c([H])c([H])c([H])c([H])c5C([H])([H])C([H])([H])C3([H])[H])C4([H])[H])C([H])([H])C([H])([H])C2([H])[H])c1[H]

$$$$
3:0:0
     RDKit          3D

 98107  0  0  1  0  0  0  0  0999 V2000
  -28.7220  -23.9820   20.3000 C   0  0  0  0  0  0  0  0  0  0  0  0
  -29.0010  -23.7970   21.7030 C   0  0  0  0  0  0  0  0  0  0  0  0
  -28.8660  -22.6050   19.7150 C   0  0  0  0  0  0  0  0  0  0  0  0
  -28.8880  -24.7260   22.6690 C   0  0  0  0  0  1  0  0  0  0  0  0
  -28.4230  -25.1680   19.6240 C   0  0  0  0  0  3  0  0  0  0  0  0
  -29.4220  -22.3650   21.9660 C   0  0  0  0  0  2  0  0  0  0  0  0
  -28.3080  -25.2330   18.1050 C   0  0  0  0  0  1  0  0  0  0  0  0
  -29.2520  -21.6840   20.6740 N   0  0  0  0  0  0  0  0  0  0  0  0
  -28.6810  -22.2900   18.5340 O   0  0  0  0  0  0  0  0  0  0  0  0
  -28.5410  -19.3560   19.8820 C   0  0  0  0  0  3  0  0  0  0  0  0
  -30.7070  -18.1000   21.1370 C   0  0  0  0  0  3  0  0  0  0  0  0
  -29.4640  -20.2140   20.5480 C   0  0  0  0  0  0  0  0  0  0  0  0
  -28.6750  -17.9290   19.8760 C   0  0  0  0  0  0  0  0  0  0  0  0
  -29.7540  -17.2530   20.5110 C   0  0  0  0  0  0  0  0  0  0  0  0
  -30.5620  -19.5290   21.1610 C   0  0  0  0  0  0  0  0  0  0  0  0
  -31.5110  -20.2470   21.8070 F   0  0  0  0  0  0  0  0  0  0  0  0
  -30.5520  -14.7400   20.3680 C   0  0  0  0  0  0  0  0  0  0  0  0
  -30.3810  -12.4790   19.3190 C   0  0  0  0  0  2  0  0  0  0  0  0
  -29.4160  -12.5770   18.1150 C   0  0  0  0  0  2  0  0  0  0  0  0
  -27.9490  -12.4020   18.5630 C   0  0  0  0  0  2  0  0  0  0  0  0
  -27.5970  -13.2690   19.8020 C   0  0  0  0  0  3  0  0  0  0  0  0
  -28.6730  -13.1330   20.9030 C   0  0  0  0  0  2  0  0  0  0  0  0
  -29.9650  -13.4990   20.3050 N   0  0  0  0  0  0  0  0  0  0  0  0
  -31.7250  -14.9080   20.0200 O   0  0  0  0  0  0  0  0  0  0  0  0
  -29.6920  -15.7830   20.6250 N   0  0  0  0  0  0  0  0  0  0  0  0
  -28.7430  -15.4590   20.7410 H   0  0  0  0  0  0  0  0  0  0  0  0
  -25.2170  -13.8670   20.5630 C   0  0  0  0  0  0  0  0  0  0  0  0
  -24.1540  -13.0910   20.9380 C   0  0  0  0  0  0  0  0  0  0  0  0
  -24.6140  -11.7390   20.8900 C   0  0  0  0  0  0  0  0  0  0  0  0
  -26.2560  -12.9850   20.3060 N   0  0  0  0  0  0  0  0  0  0  0  0
  -25.8990  -11.7010   20.5630 N   0  0  0  0  0  0  0  0  0  0  0  0
  -23.8880  -10.4760   21.0770 C   0  0  0  0  0  0  0  0  0  0  0  0
  -24.3360   -9.4960   21.9900 C   0  0  0  0  0  3  0  0  0  0  0  0
  -23.6110   -8.2980   22.1670 C   0  0  0  0  0  3  0  0  0  0  0  0
  -22.4220   -8.0720   21.4330 C   0  0  0  0  0  0  0  0  0  0  0  0
  -21.9930   -9.0410   20.5090 C   0  0  0  0  0  3  0  0  0  0  0  0
  -22.7200  -10.2300   20.3290 C   0  0  0  0  0  3  0  0  0  0  0  0
  -21.6670   -6.9280   21.5200 O   0  0  0  0  0  0  0  0  0  0  0  0
  -21.6410   -6.1680   22.6620 C   0  0  0  0  0  0  0  0  0  0  0  0
  -21.2340   -6.7030   23.9040 C   0  0  0  0  0  3  0  0  0  0  0  0
  -21.1560   -5.8690   25.0370 C   0  0  0  0  0  3  0  0  0  0  0  0
  -21.4740   -4.5020   24.9300 C   0  0  0  0  0  0  0  0  0  0  0  0
  -21.8730   -3.9670   23.6930 C   0  0  0  0  0  3  0  0  0  0  0  0
  -21.9530   -4.7980   22.5620 C   0  0  0  0  0  0  0  0  0  0  0  0
  -22.3190   -4.2720   21.3680 F   0  0  0  0  0  0  0  0  0  0  0  0
  -21.3910   -3.6990   26.0170 F   0  0  0  0  0  0  0  0  0  0  0  0
  -22.7610  -13.5670   21.2330 C   0  0  0  0  0  0  0  0  0  0  0  0
  -22.0430  -12.8640   22.1010 N   0  0  0  0  0  0  0  0  0  0  0  0
  -22.3180  -14.5990   20.7270 O   0  0  0  0  0  0  0  0  0  0  0  0
  -22.4140  -12.0310   22.5330 H   0  0  0  0  0  0  0  0  0  0  0  0
  -21.1080  -13.1660   22.3400 H   0  0  0  0  0  0  0  0  0  0  0  0
  -25.3750  -15.2400   20.4010 N   0  0  0  0  0  0  0  0  0  0  0  0
  -24.6020  -15.8790   20.5450 H   0  0  0  0  0  0  0  0  0  0  0  0
  -26.2120  -15.7220   20.0760 H   0  0  0  0  0  0  0  0  0  0  0  0
  -27.7060  -17.1580   19.2350 N   0  0  0  0  0  0  0  0  0  0  0  0
  -27.0650  -17.6770   18.6450 H   0  0  0  0  0  0  0  0  0  0  0  0
  -28.0840  -16.3710   18.7240 H   0  0  0  0  0  0  0  0  0  0  0  0
  -28.3620  -26.4720   20.1970 O   0  0  0  0  0  0  0  0  0  0  0  0
  -24.6250  -31.8760   23.2460 C   0  0  0  0  0  0  0  0  0  0  0  0
  -27.2280  -27.3170   20.1430 C   0  0  0  0  0  0  0  0  0  0  0  0
  -23.4120  -30.4820   21.6110 C   0  0  0  0  0  3  0  0  0  0  0  0
  -24.8530  -28.9360   20.1680 C   0  0  0  0  0  0  0  0  0  0  0  0
  -25.9510  -30.8020   21.4070 C   0  0  0  0  0  2  0  0  0  0  0  0
  -26.0290  -29.4250   20.7520 C   0  0  0  0  0  0  0  0  0  0  0  0
  -27.2150  -28.6270   20.7280 C   0  0  0  0  0  3  0  0  0  0  0  0
  -26.0140  -26.8770   19.5640 C   0  0  0  0  0  3  0  0  0  0  0  0
  -24.8500  -27.6690   19.5670 C   0  0  0  0  0  3  0  0  0  0  0  0
  -23.6160  -29.8100   20.2280 C   0  0  0  0  0  2  0  0  0  0  0  0
  -24.6820  -31.0700   22.1460 N   0  0  0  0  0  0  0  0  0  0  0  0
  -23.5440  -32.1510   23.7900 O   0  0  0  0  0  0  0  0  0  0  0  0
  -22.7560  -29.4620   22.5740 C   0  0  0  0  0  0  0  0  0  0  0  0
  -21.4300  -29.2790   22.4510 N   0  0  0  0  0  0  0  0  0  0  0  0
  -23.4400  -28.8400   23.3900 O   0  0  0  0  0  0  0  0  0  0  0  0
  -20.9360  -29.8330   21.7650 H   0  0  0  0  0  0  0  0  0  0  0  0
  -18.0610  -28.0590   22.9570 C   0  0  0  0  0  0  0  0  0  0  0  0
  -20.6180  -28.3370   23.2240 C   0  0  0  0  0  3  0  0  0  0  0  0
  -20.7300  -26.9050   22.6500 C   0  0  0  0  0  2  0  0  0  0  0  0
  -19.6290  -26.5750   21.6370 C   0  0  0  0  0  2  0  0  0  0  0  0
  -18.2470  -26.7110   22.2820 C   0  0  0  0  0  2  0  0  0  0  0  0
  -19.1750  -28.8300   23.3860 C   0  0  0  0  0  0  0  0  0  0  0  0
  -18.9480  -30.0910   23.9760 C   0  0  0  0  0  3  0  0  0  0  0  0
  -17.6400  -30.5830   24.1450 C   0  0  0  0  0  3  0  0  0  0  0  0
  -16.5400  -29.8100   23.7330 C   0  0  0  0  0  3  0  0  0  0  0  0
  -16.7520  -28.5510   23.1440 C   0  0  0  0  0  3  0  0  0  0  0  0
  -25.9100  -32.5090   23.8620 C   0  0  0  0  0  3  0  0  0  0  0  0
  -25.6010  -33.9070   24.2000 N   0  0  0  0  0  0  0  0  0  0  0  0
  -25.9150  -34.9630   23.4370 C   0  0  0  0  0  0  0  0  0  0  0  0
  -26.5640  -34.8640   22.3930 O   0  0  0  0  0  0  0  0  0  0  0  0
  -25.0210  -34.0570   25.0120 H   0  0  0  0  0  0  0  0  0  0  0  0
  -24.1690  -36.7480   23.1260 C   0  0  0  0  0  1  0  0  0  0  0  0
  -25.4300  -36.3490   23.9070 C   0  0  0  0  0  3  0  0  0  0  0  0
  -27.5810  -37.2440   24.6880 C   0  0  0  0  0  1  0  0  0  0  0  0
  -26.4540  -37.4090   23.7720 N   0  0  0  0  0  0  0  0  0  0  0  0
  -26.0460  -38.3250   23.9330 H   0  0  0  0  0  0  0  0  0  0  0  0
  -26.4360  -31.7350   25.1330 C   0  0  1  0  0  0  0  0  0  0  0  0
  -25.3500  -31.4970   26.2080 C   0  0  0  0  0  1  0  0  0  0  0  0
  -27.0150  -30.3580   24.7360 C   0  0  0  0  0  1  0  0  0  0  0  0
  -27.5910  -32.5280   25.7900 C   0  0  0  0  0  1  0  0  0  0  0  0
  1  2  2  0
  2  6  1  0
  2  4  1  0
  3  1  1  0
  3  8  1  0
  5  7  1  0
  5 58  1  0
  5  1  1  0
  8  6  1  0
  9  3  2  0
 10 12  1  0
 11 15  1  0
 12  8  1  0
 12 15  2  0
 13 10  2  0
 13 14  1  0
 14 25  1  0
 14 11  2  0
 15 16  1  0
 17 25  1  0
 18 23  1  0
 19 20  1  0
 19 18  1  0
 21 20  1  0
 21 30  1  0
 21 22  1  0
 23 17  1  0
 23 22  1  0
 24 17  2  0
 25 26  1  0
 27 28  2  0
 28 47  1  0
 29 28  1  0
 29 32  1  0
 30 27  1  0
 30 31  1  0
 31 29  2  0
 32 33  1  0
 33 34  2  0
 35 38  1  0
 35 34  1  0
 36 35  2  0
 37 36  1  0
 37 32  2  0
 38 39  1  0
 39 40  1  0
 40 41  2  0
 42 41  1  0
 42 46  1  0
 43 42  2  0
 44 39  2  0
 44 43  1  0
 45 44  1  0
 47 48  1  0
 48 51  1  0
 48 50  1  0
 49 47  2  0
 52 53  1  0
 52 27  1  0
 54 52  1  0
 55 13  1  0
 56 55  1  0
 57 55  1  0
 59 70  2  0
 60 58  1  0
 60 65  1  0
 61 69  1  0
 61 71  1  0
 62 68  1  0
 62 64  1  0
 63 69  1  0
 64 63  1  0
 65 64  2  0
 66 67  1  0
 66 60  2  0
 67 62  2  0
 68 61  1  0
 69 59  1  0
 71 73  2  0
 72 71  1  0
 74 72  1  0
 75 84  2  0
 75 80  1  0
 76 72  1  0
 76 80  1  0
 77 76  1  0
 78 79  1  0
 78 77  1  0
 79 75  1  0
 80 81  2  0
 81 82  1  0
 83 82  2  0
 84 83  1  0
 85 59  1  0
 85 86  1  0
 85 95  1  0
 86 89  1  0
 87 91  1  0
 87 86  1  0
 88 87  2  0
 91 90  1  0
 93 91  1  0
 93 94  1  0
 93 92  1  0
 95 98  1  1
 95 96  1  0
 97 95  1  0
M  ISO  4   5 101  17 100  25 100  58 101
M  END
>  <TORSDO>  (4) 
F 18

>  <SCORE>  (4) 
-15.559

>  <name>  (4) 
3

>  <ligand_id>  (4) 
3

>  <original_smiles>  (4) 
[H]C([H])=C1C(=C(Oc2c([H])c([H])c3c(c2[H])C([H])([H])N(C(=O)C([H])(N([H])C(=O)C([H])(N([H])C([H])([H])[H])C([H])([H])[H])C(C([H])([H])[H])(C([H])([H])[H])C([H])([H])[H])C([H])(C(=O)N([H])C2([H])c4c([H])c([H])c([H])c([H])c4C([H])([H])C([H])([H])C2([H])[H])C3([H])[H])C([H])([H])[H])C(=O)N(c2c([H])c(N([H])[H])c(N([H])C(=O)N3C([H])([H])C([H])([H])C([H])([H])C([H])(n4nc(-c5c([H])c([H])c(Oc6c([H])c([H])c(F)c([H])c6F)c([H])c5[H])c(C(=O)N([H])[H])c4N([H])[H])C3([H])[H])c([H])c2F)C1([H])[H]

>  <smiles>  (4) 
[H]C([H])=C1C(=C(Oc2c([H])c([H])c3c(c2[H])C([H])([H])N(C(=O)C([H])(N([H])C(=O)C([H])(N([H])C([H])([H])[H])C([H])([H])[H])C(C([H])([H])[H])(C([H])([H])[H])C([H])([H])[H])C([H])(C(=O)N([H])C2([H])c4c([H])c([H])c([H])c([H])c4C([H])([H])C([H])([H])C2([H])[H])C3([H])[H])C([H])([H])[H])C(=O)N(c2c([H])c(N([H])[H])c(N([H])C(=O)N3C([H])([H])C([H])([H])C([H])([H])C([H])(n4nc(-c5c([H])c([H])c(Oc6c([H])c([H])c(F)c([H])c6F)c([H])c5[H])c(C(=O)N([H])[H])c4N([H])[H])C3([H])[H])c([H])c2F)C1([H])[H]

$$$$
4:0:0
     RDKit          3D

 96104  0  0  1  0  0  0  0  0999 V2000
  -29.0070  -21.3770   20.1730 C   0  0  0  0  0  0  0  0  0  0  0  0
  -29.2650  -23.9510   20.7100 C   0  0  0  0  0  0  0  0  0  0  0  0
  -29.4910  -22.5710   20.6830 N   0  0  0  0  0  0  0  0  0  0  0  0
  -27.9080  -21.2880   19.6170 O   0  0  0  0  0  0  0  0  0  0  0  0
  -30.0650  -24.5730   21.4130 O   0  0  0  0  0  0  0  0  0  0  0  0
  -30.3650  -22.3550   21.1490 H   0  0  0  0  0  0  0  0  0  0  0  0
  -31.6620  -17.7990   20.7600 C   0  0  0  0  0  3  0  0  0  0  0  0
  -32.1610  -19.1070   20.7160 C   0  0  0  0  0  3  0  0  0  0  0  0
  -29.4410  -18.6920   20.3630 C   0  0  0  0  0  3  0  0  0  0  0  0
  -29.9190  -20.0880   20.3540 C   0  0  0  0  0  0  0  0  0  0  0  0
  -30.2980  -17.5050   20.5410 C   0  0  0  0  0  0  0  0  0  0  0  0
  -31.3410  -20.2240   20.4740 C   0  0  0  0  0  0  0  0  0  0  0  0
  -30.5950  -14.8670   20.3640 C   0  0  0  0  0  0  0  0  0  0  0  0
  -30.3580  -12.5920   19.3390 C   0  0  0  0  0  2  0  0  0  0  0  0
  -29.4060  -12.6560   18.1260 C   0  0  0  0  0  2  0  0  0  0  0  0
  -27.9470  -12.4640   18.5730 C   0  0  0  0  0  2  0  0  0  0  0  0
  -27.5810  -13.3450   19.7990 C   0  0  0  0  0  3  0  0  0  0  0  0
  -28.6570  -13.2870   20.9060 C   0  0  0  0  0  2  0  0  0  0  0  0
  -29.9360  -13.6560   20.2850 N   0  0  0  0  0  0  0  0  0  0  0  0
  -31.7900  -14.8890   20.0540 O   0  0  0  0  0  0  0  0  0  0  0  0
  -29.8680  -16.0600   20.5410 N   0  0  0  0  0  0  0  0  0  0  0  0
  -28.8760  -15.9100   20.6300 H   0  0  0  0  0  0  0  0  0  0  0  0
  -25.2080  -13.9060   20.5790 C   0  0  0  0  0  0  0  0  0  0  0  0
  -24.1510  -13.1200   20.9490 C   0  0  0  0  0  0  0  0  0  0  0  0
  -24.6220  -11.7720   20.8920 C   0  0  0  0  0  0  0  0  0  0  0  0
  -26.2510  -13.0360   20.3110 N   0  0  0  0  0  0  0  0  0  0  0  0
  -25.9080  -11.7460   20.5650 N   0  0  0  0  0  0  0  0  0  0  0  0
  -23.9040  -10.5020   21.0660 C   0  0  0  0  0  0  0  0  0  0  0  0
  -24.3390   -9.5310   21.9940 C   0  0  0  0  0  3  0  0  0  0  0  0
  -23.6210   -8.3270   22.1610 C   0  0  0  0  0  3  0  0  0  0  0  0
  -22.4540   -8.0850   21.3970 C   0  0  0  0  0  0  0  0  0  0  0  0
  -22.0390   -9.0440   20.4570 C   0  0  0  0  0  3  0  0  0  0  0  0
  -22.7580  -10.2400   20.2890 C   0  0  0  0  0  3  0  0  0  0  0  0
  -21.7090   -6.9350   21.4720 O   0  0  0  0  0  0  0  0  0  0  0  0
  -21.6370   -6.1970   22.6270 C   0  0  0  0  0  0  0  0  0  0  0  0
  -21.1380   -6.7430   23.8290 C   0  0  0  0  0  3  0  0  0  0  0  0
  -21.0160   -5.9320   24.9740 C   0  0  0  0  0  3  0  0  0  0  0  0
  -21.3820   -4.5730   24.9160 C   0  0  0  0  0  0  0  0  0  0  0  0
  -21.8710   -4.0250   23.7180 C   0  0  0  0  0  3  0  0  0  0  0  0
  -21.9950   -4.8350   22.5750 C   0  0  0  0  0  0  0  0  0  0  0  0
  -22.4480   -4.2980   21.4180 F   0  0  0  0  0  0  0  0  0  0  0  0
  -21.2570   -3.7910   26.0140 F   0  0  0  0  0  0  0  0  0  0  0  0
  -22.7540  -13.5840   21.2420 C   0  0  0  0  0  0  0  0  0  0  0  0
  -22.0370  -12.8660   22.1010 N   0  0  0  0  0  0  0  0  0  0  0  0
  -22.3070  -14.6190   20.7490 O   0  0  0  0  0  0  0  0  0  0  0  0
  -22.4150  -12.0300   22.5210 H   0  0  0  0  0  0  0  0  0  0  0  0
  -21.1010  -13.1560   22.3410 H   0  0  0  0  0  0  0  0  0  0  0  0
  -25.3630  -15.2810   20.4220 N   0  0  0  0  0  0  0  0  0  0  0  0
  -24.5900  -15.9280   20.5430 H   0  0  0  0  0  0  0  0  0  0  0  0
  -26.1960  -15.7270   20.0610 H   0  0  0  0  0  0  0  0  0  0  0  0
  -32.0330  -21.4340   20.3440 N   0  0  0  0  0  0  0  0  0  0  0  0
  -31.6840  -22.0850   19.6460 H   0  0  0  0  0  0  0  0  0  0  0  0
  -33.0360  -21.3370   20.2190 H   0  0  0  0  0  0  0  0  0  0  0  0
  -28.4520  -24.8130   18.4410 C   0  0  0  0  0  1  0  0  0  0  0  0
  -28.2020  -24.9020   19.9600 C   0  0  0  0  0  3  0  0  0  0  0  0
  -28.3130  -26.3880   20.3250 O   0  0  0  0  0  0  0  0  0  0  0  0
  -24.6070  -31.9450   23.2610 C   0  0  0  0  0  0  0  0  0  0  0  0
  -27.2130  -27.2910   20.2460 C   0  0  0  0  0  0  0  0  0  0  0  0
  -23.4100  -30.5360   21.6280 C   0  0  0  0  0  3  0  0  0  0  0  0
  -24.8640  -28.9660   20.2160 C   0  0  0  0  0  0  0  0  0  0  0  0
  -25.9590  -30.8340   21.4550 C   0  0  0  0  0  2  0  0  0  0  0  0
  -26.0390  -29.4440   20.8100 C   0  0  0  0  0  0  0  0  0  0  0  0
  -27.2150  -28.6210   20.8070 C   0  0  0  0  0  3  0  0  0  0  0  0
  -26.0110  -26.8900   19.6230 C   0  0  0  0  0  3  0  0  0  0  0  0
  -24.8590  -27.7010   19.6100 C   0  0  0  0  0  3  0  0  0  0  0  0
  -23.6280  -29.8450   20.2550 C   0  0  0  0  0  2  0  0  0  0  0  0
  -24.6790  -31.1240   22.1700 N   0  0  0  0  0  0  0  0  0  0  0  0
  -23.5200  -32.2280   23.7870 O   0  0  0  0  0  0  0  0  0  0  0  0
  -22.7380  -29.5320   22.5980 C   0  0  0  0  0  0  0  0  0  0  0  0
  -21.4110  -29.3550   22.4680 N   0  0  0  0  0  0  0  0  0  0  0  0
  -23.4110  -28.9140   23.4270 O   0  0  0  0  0  0  0  0  0  0  0  0
  -20.9260  -29.9070   21.7730 H   0  0  0  0  0  0  0  0  0  0  0  0
  -18.0290  -28.1650   22.9670 C   0  0  0  0  0  0  0  0  0  0  0  0
  -20.5880  -28.4220   23.2420 C   0  0  0  0  0  3  0  0  0  0  0  0
  -20.6890  -26.9870   22.6750 C   0  0  0  0  0  2  0  0  0  0  0  0
  -19.5890  -26.6580   21.6610 C   0  0  0  0  0  2  0  0  0  0  0  0
  -18.2050  -26.8100   22.3010 C   0  0  0  0  0  2  0  0  0  0  0  0
  -19.1480  -28.9260   23.3960 C   0  0  0  0  0  0  0  0  0  0  0  0
  -18.9280  -30.1930   23.9800 C   0  0  0  0  0  3  0  0  0  0  0  0
  -17.6240  -30.6950   24.1450 C   0  0  0  0  0  3  0  0  0  0  0  0
  -16.5180  -29.9280   23.7350 C   0  0  0  0  0  3  0  0  0  0  0  0
  -16.7230  -28.6660   23.1480 C   0  0  0  0  0  3  0  0  0  0  0  0
  -25.8840  -32.5850   23.8840 C   0  0  0  0  0  3  0  0  0  0  0  0
  -26.3930  -31.8270   25.1710 C   0  0  1  0  0  0  0  0  0  0  0  0
  -25.2910  -31.5970   26.2300 C   0  0  0  0  0  1  0  0  0  0  0  0
  -26.9800  -30.4460   24.8010 C   0  0  0  0  0  1  0  0  0  0  0  0
  -27.5380  -32.6290   25.8340 C   0  0  0  0  0  1  0  0  0  0  0  0
  -25.5720  -33.9870   24.2030 N   0  0  0  0  0  0  0  0  0  0  0  0
  -25.8910  -35.0330   23.4310 C   0  0  0  0  0  0  0  0  0  0  0  0
  -26.5500  -34.9220   22.3930 O   0  0  0  0  0  0  0  0  0  0  0  0
  -24.9860  -34.1480   25.0080 H   0  0  0  0  0  0  0  0  0  0  0  0
  -24.1590  -36.8240   23.0830 C   0  0  0  0  0  1  0  0  0  0  0  0
  -25.4080  -36.4250   23.8840 C   0  0  0  0  0  3  0  0  0  0  0  0
  -27.5430  -37.3300   24.6940 C   0  0  0  0  0  1  0  0  0  0  0  0
  -26.4370  -37.4790   23.7520 N   0  0  0  0  0  0  0  0  0  0  0  0
  -26.0270  -38.4010   23.8850 H   0  0  0  0  0  0  0  0  0  0  0  0
  1 10  1  0
  1  3  1  0
  2  5  2  0
  3  2  1  0
  3  6  1  0
  4  1  2  0
  8  7  1  0
  9 11  1  0
 10  9  2  0
 10 12  1  0
 11 21  1  0
 11  7  2  0
 12  8  2  0
 13 21  1  0
 14 19  1  0
 15 16  1  0
 15 14  1  0
 17 16  1  0
 17 26  1  0
 17 18  1  0
 19 13  1  0
 19 18  1  0
 20 13  2  0
 21 22  1  0
 23 24  2  0
 24 43  1  0
 25 24  1  0
 25 28  1  0
 26 27  1  0
 26 23  1  0
 27 25  2  0
 28 29  1  0
 29 30  2  0
 31 34  1  0
 31 30  1  0
 32 31  2  0
 33 32  1  0
 33 28  2  0
 34 35  1  0
 35 36  1  0
 36 37  2  0
 38 37  1  0
 38 42  1  0
 39 38  2  0
 40 35  2  0
 40 39  1  0
 41 40  1  0
 43 44  1  0
 44 47  1  0
 44 46  1  0
 45 43  2  0
 48 49  1  0
 48 23  1  0
 50 48  1  0
 51 12  1  0
 52 51  1  0
 53 51  1  0
 55 54  1  0
 55 56  1  0
 55  2  1  0
 57 68  2  0
 58 56  1  0
 58 63  1  0
 59 67  1  0
 59 69  1  0
 60 66  1  0
 60 62  1  0
 61 67  1  0
 62 61  1  0
 63 62  2  0
 64 58  2  0
 65 64  1  0
 65 60  2  0
 66 59  1  0
 67 57  1  0
 69 71  2  0
 70 69  1  0
 72 70  1  0
 73 82  2  0
 73 78  1  0
 74 70  1  0
 74 78  1  0
 75 74  1  0
 76 77  1  0
 76 75  1  0
 77 73  1  0
 78 79  2  0
 79 80  1  0
 81 80  2  0
 82 81  1  0
 83 57  1  0
 83 88  1  0
 83 84  1  0
 84 87  1  1
 84 85  1  0
 86 84  1  0
 88 91  1  0
 89 93  1  0
 89 88  1  0
 90 89  2  0
 93 92  1  0
 95 93  1  0
 95 96  1  0
 95 94  1  0
M  ISO  4  13 100  21 100  55 101  56 101
M  END
>  <TORSDO>  (5) 
F 19

>  <SCORE>  (5) 
-14.792

>  <name>  (5) 
4

>  <ligand_id>  (5) 
4

>  <original_smiles>  (5) 
[H]c1c([H])c([H])c2c(c1[H])C([H])([H])C([H])([H])C([H])([H])C2([H])N([H])C(=O)C1([H])N(C(=O)C([H])(N([H])C(=O)C([H])(N([H])C([H])([H])[H])C([H])([H])[H])C(C([H])([H])[H])(C([H])([H])[H])C([H])([H])[H])C([H])([H])c2c([H])c(OC([H])(C(=O)N([H])C(=O)c3c([H])c(N([H])C(=O)N4C([H])([H])C([H])([H])C([H])([H])C([H])(n5nc(-c6c([H])c([H])c(Oc7c([H])c([H])c(F)c([H])c7F)c([H])c6[H])c(C(=O)N([H])[H])c5N([H])[H])C4([H])[H])c([H])c([H])c3N([H])[H])C([H])([H])[H])c([H])c([H])c2C1([H])[H]

>  <smiles>  (5) 
[H]c1c([H])c([H])c2c(c1[H])C([H])([H])C([H])([H])C([H])([H])C2([H])N([H])C(=O)C1([H])N(C(=O)C([H])(N([H])C(=O)C([H])(N([H])C([H])([H])[H])C([H])([H])[H])C(C([H])([H])[H])(C([H])([H])[H])C([H])([H])[H])C([H])([H])c2c([H])c(OC([H])(C(=O)N([H])C(=O)c3c([H])c(N([H])C(=O)N4C([H])([H])C([H])([H])C([H])([H])C([H])(n5nc(-c6c([H])c([H])c(Oc7c([H])c([H])c(F)c([H])c7F)c([H])c6[H])c(C(=O)N([H])[H])c5N([H])[H])C4([H])[H])c([H])c([H])c3N([H])[H])C([H])([H])[H])c([H])c([H])c2C1([H])[H]

$$$$
5:0:0
     RDKit          3D

 94102  0  0  1  0  0  0  0  0999 V2000
  -29.0100  -20.4870   20.5870 C   0  0  0  0  0  0  0  0  0  0  0  0
  -29.4240  -21.7500   20.8320 N   0  0  0  0  0  0  0  0  0  0  0  0
  -27.8400  -20.2270   20.2990 O   0  0  0  0  0  0  0  0  0  0  0  0
  -30.4020  -21.8700   21.0520 H   0  0  0  0  0  0  0  0  0  0  0  0
  -32.3060  -18.5810   21.1430 C   0  0  0  0  0  3  0  0  0  0  0  0
  -31.3870  -19.6340   20.9740 C   0  0  0  0  0  3  0  0  0  0  0  0
  -31.8800  -17.2420   21.0660 C   0  0  0  0  0  3  0  0  0  0  0  0
  -29.6000  -18.0000   20.6780 C   0  0  0  0  0  3  0  0  0  0  0  0
  -30.0160  -19.3620   20.7510 C   0  0  0  0  0  0  0  0  0  0  0  0
  -30.5240  -16.9310   20.8060 C   0  0  0  0  0  0  0  0  0  0  0  0
  -30.7050  -14.5410   20.0920 C   0  0  0  0  0  0  0  0  0  0  0  0
  -30.3090  -12.4020   18.9230 C   0  0  0  0  0  2  0  0  0  0  0  0
  -29.3050  -12.6220   17.7730 C   0  0  0  0  0  2  0  0  0  0  0  0
  -27.8600  -12.4730   18.2850 C   0  0  0  0  0  2  0  0  0  0  0  0
  -27.5930  -13.3000   19.5720 C   0  0  0  0  0  3  0  0  0  0  0  0
  -28.7090  -13.0790   20.6200 C   0  0  0  0  0  2  0  0  0  0  0  0
  -30.0000  -13.3810   19.9790 N   0  0  0  0  0  0  0  0  0  0  0  0
  -31.8020  -14.6930   19.5470 O   0  0  0  0  0  0  0  0  0  0  0  0
  -30.0720  -15.5700   20.7010 N   0  0  0  0  0  0  0  0  0  0  0  0
  -29.1250  -15.3820   20.9880 H   0  0  0  0  0  0  0  0  0  0  0  0
  -25.2390  -13.8990   20.4210 C   0  0  0  0  0  0  0  0  0  0  0  0
  -24.1910  -13.1220   20.8370 C   0  0  0  0  0  0  0  0  0  0  0  0
  -24.6470  -11.7700   20.7630 C   0  0  0  0  0  0  0  0  0  0  0  0
  -26.2680  -13.0200   20.1210 N   0  0  0  0  0  0  0  0  0  0  0  0
  -25.9190  -11.7350   20.3830 N   0  0  0  0  0  0  0  0  0  0  0  0
  -23.9300  -10.5070   20.9730 C   0  0  0  0  0  0  0  0  0  0  0  0
  -24.3920   -9.5390   21.8930 C   0  0  0  0  0  3  0  0  0  0  0  0
  -23.6740   -8.3410   22.0920 C   0  0  0  0  0  3  0  0  0  0  0  0
  -22.4810   -8.0990   21.3710 C   0  0  0  0  0  0  0  0  0  0  0  0
  -22.0370   -9.0560   20.4400 C   0  0  0  0  0  3  0  0  0  0  0  0
  -22.7550  -10.2470   20.2390 C   0  0  0  0  0  3  0  0  0  0  0  0
  -21.7320   -6.9530   21.4790 O   0  0  0  0  0  0  0  0  0  0  0  0
  -21.7060   -6.2170   22.6370 C   0  0  0  0  0  0  0  0  0  0  0  0
  -21.2800   -6.7730   23.8650 C   0  0  0  0  0  3  0  0  0  0  0  0
  -21.2040   -5.9620   25.0150 C   0  0  0  0  0  3  0  0  0  0  0  0
  -21.5420   -4.5970   24.9400 C   0  0  0  0  0  0  0  0  0  0  0  0
  -21.9600   -4.0420   23.7180 C   0  0  0  0  0  3  0  0  0  0  0  0
  -22.0380   -4.8500   22.5690 C   0  0  0  0  0  0  0  0  0  0  0  0
  -22.4220   -4.3030   21.3900 F   0  0  0  0  0  0  0  0  0  0  0  0
  -21.4600   -3.8180   26.0430 F   0  0  0  0  0  0  0  0  0  0  0  0
  -22.8110  -13.5980   21.1920 C   0  0  0  0  0  0  0  0  0  0  0  0
  -22.1260  -12.8850   22.0790 N   0  0  0  0  0  0  0  0  0  0  0  0
  -22.3510  -14.6360   20.7180 O   0  0  0  0  0  0  0  0  0  0  0  0
  -22.5110  -12.0440   22.4840 H   0  0  0  0  0  0  0  0  0  0  0  0
  -21.2040  -13.1860   22.3580 H   0  0  0  0  0  0  0  0  0  0  0  0
  -25.3970  -15.2710   20.2520 N   0  0  0  0  0  0  0  0  0  0  0  0
  -24.6350  -15.9240   20.4060 H   0  0  0  0  0  0  0  0  0  0  0  0
  -26.2240  -15.7120   19.8690 H   0  0  0  0  0  0  0  0  0  0  0  0
  -28.1310  -22.9820   22.4990 C   0  0  0  0  0  1  0  0  0  0  0  0
  -28.5480  -22.9250   21.0150 C   0  0  0  0  0  3  0  0  0  0  0  0
  -30.5750  -24.5530   21.0140 C   0  0  0  0  0  1  0  0  0  0  0  0
  -29.1540  -24.2760   20.4850 C   0  0  0  0  0  3  0  0  0  0  0  0
  -28.2030  -25.4790   20.7650 C   0  0  0  0  0  2  0  0  0  0  0  0
  -28.4110  -26.6840   19.9910 O   0  0  0  0  0  0  0  0  0  0  0  0
  -24.6270  -31.8320   23.1480 C   0  0  0  0  0  0  0  0  0  0  0  0
  -27.2790  -27.4760   19.9530 C   0  0  0  0  0  0  0  0  0  0  0  0
  -23.4210  -30.4570   21.4840 C   0  0  0  0  0  3  0  0  0  0  0  0
  -24.8770  -28.9740   20.0030 C   0  0  0  0  0  0  0  0  0  0  0  0
  -25.9400  -30.8450   21.2710 C   0  0  0  0  0  2  0  0  0  0  0  0
  -26.0370  -29.4900   20.5970 C   0  0  0  0  0  0  0  0  0  0  0  0
  -27.2430  -28.7490   20.5700 C   0  0  0  0  0  3  0  0  0  0  0  0
  -26.1100  -26.9930   19.3260 C   0  0  0  0  0  3  0  0  0  0  0  0
  -24.9090  -27.7250   19.3600 C   0  0  0  0  0  3  0  0  0  0  0  0
  -23.6230  -29.8160   20.0860 C   0  0  0  0  0  2  0  0  0  0  0  0
  -24.6820  -31.0570   22.0280 N   0  0  0  0  0  0  0  0  0  0  0  0
  -23.5490  -32.0790   23.7060 O   0  0  0  0  0  0  0  0  0  0  0  0
  -22.7870  -29.4070   22.4240 C   0  0  0  0  0  0  0  0  0  0  0  0
  -21.4670  -29.1950   22.2850 N   0  0  0  0  0  0  0  0  0  0  0  0
  -23.4790  -28.7840   23.2340 O   0  0  0  0  0  0  0  0  0  0  0  0
  -20.9700  -29.7540   21.6060 H   0  0  0  0  0  0  0  0  0  0  0  0
  -18.1220  -27.8980   22.7190 C   0  0  0  0  0  0  0  0  0  0  0  0
  -20.6660  -28.2280   23.0350 C   0  0  0  0  0  3  0  0  0  0  0  0
  -20.8190  -26.8050   22.4490 C   0  0  0  0  0  2  0  0  0  0  0  0
  -19.7430  -26.4580   21.4160 C   0  0  0  0  0  2  0  0  0  0  0  0
  -18.3480  -26.5580   22.0380 C   0  0  0  0  0  2  0  0  0  0  0  0
  -19.2110  -28.6890   23.1730 C   0  0  0  0  0  0  0  0  0  0  0  0
  -18.9460  -29.9420   23.7680 C   0  0  0  0  0  3  0  0  0  0  0  0
  -17.6250  -30.4040   23.9150 C   0  0  0  0  0  3  0  0  0  0  0  0
  -16.5500  -29.6100   23.4800 C   0  0  0  0  0  3  0  0  0  0  0  0
  -16.8000  -28.3590   22.8870 C   0  0  0  0  0  3  0  0  0  0  0  0
  -25.9120  -32.4600   23.7710 C   0  0  0  0  0  3  0  0  0  0  0  0
  -26.4460  -31.6660   25.0250 C   0  0  1  0  0  0  0  0  0  0  0  0
  -25.3660  -31.3930   26.0970 C   0  0  0  0  0  1  0  0  0  0  0  0
  -27.0380  -30.3040   24.5940 C   0  0  0  0  0  1  0  0  0  0  0  0
  -27.5960  -32.4540   25.6960 C   0  0  0  0  0  1  0  0  0  0  0  0
  -25.5970  -33.8490   24.1310 N   0  0  0  0  0  0  0  0  0  0  0  0
  -25.9150  -34.9180   23.3870 C   0  0  0  0  0  0  0  0  0  0  0  0
  -26.5770  -34.8380   22.3480 O   0  0  0  0  0  0  0  0  0  0  0  0
  -25.0100  -33.9820   24.9400 H   0  0  0  0  0  0  0  0  0  0  0  0
  -24.1720  -36.7040   23.0760 C   0  0  0  0  0  1  0  0  0  0  0  0
  -25.4210  -36.2940   23.8740 C   0  0  0  0  0  3  0  0  0  0  0  0
  -27.5530  -37.1800   24.7090 C   0  0  0  0  0  1  0  0  0  0  0  0
  -26.4450  -37.3560   23.7740 N   0  0  0  0  0  0  0  0  0  0  0  0
  -26.0320  -38.2700   23.9400 H   0  0  0  0  0  0  0  0  0  0  0  0
  1  9  1  0
  1  2  1  0
  2 50  1  0
  2  4  1  0
  3  1  2  0
  6  5  2  0
  7  5  1  0
  8  9  2  0
  8 10  1  0
  9  6  1  0
 10  7  2  0
 11 19  1  0
 12 17  1  0
 13 14  1  0
 13 12  1  0
 15 14  1  0
 15 24  1  0
 15 16  1  0
 17 11  1  0
 17 16  1  0
 18 11  2  0
 19 10  1  0
 19 20  1  0
 21 22  2  0
 22 41  1  0
 23 22  1  0
 23 26  1  0
 24 25  1  0
 24 21  1  0
 25 23  2  0
 26 27  1  0
 27 28  2  0
 29 32  1  0
 29 28  1  0
 30 29  2  0
 31 30  1  0
 31 26  2  0
 32 33  1  0
 33 34  1  0
 34 35  2  0
 36 35  1  0
 36 40  1  0
 37 36  2  0
 38 33  2  0
 38 37  1  0
 39 38  1  0
 41 42  1  0
 42 45  1  0
 42 44  1  0
 43 41  2  0
 46 47  1  0
 46 21  1  0
 48 46  1  0
 50 49  1  0
 52 53  1  0
 52 51  1  0
 52 50  1  0
 54 53  1  0
 55 66  2  0
 56 54  1  0
 56 61  1  0
 57 65  1  0
 57 67  1  0
 58 64  1  0
 58 60  1  0
 59 65  1  0
 60 59  1  0
 61 60  2  0
 62 63  1  0
 62 56  2  0
 63 58  2  0
 64 57  1  0
 65 55  1  0
 67 69  2  0
 68 67  1  0
 70 68  1  0
 71 80  2  0
 71 76  1  0
 72 68  1  0
 72 76  1  0
 73 72  1  0
 74 75  1  0
 74 73  1  0
 75 71  1  0
 76 77  2  0
 77 78  1  0
 79 78  2  0
 80 79  1  0
 81 55  1  0
 81 86  1  0
 81 82  1  0
 82 85  1  1
 82 83  1  0
 84 82  1  0
 86 89  1  0
 87 91  1  0
 87 86  1  0
 88 87  2  0
 91 90  1  0
 93 91  1  0
 93 94  1  0
 93 92  1  0
M  ISO  4  11 100  19 100  53 101  54 101
M  END
>  <TORSDO>  (6) 
F 20

>  <SCORE>  (6) 
-13.516

>  <name>  (6) 
5

>  <ligand_id>  (6) 
5

>  <original_smiles>  (6) 
[H]c1c([H])c(C(=O)N([H])C([H])(C([H])([H])[H])C([H])(C([H])([H])[H])C([H])([H])Oc2c([H])c([H])c3c(c2[H])C([H])([H])N(C(=O)C([H])(N([H])C(=O)C([H])(N([H])C([H])([H])[H])C([H])([H])[H])C(C([H])([H])[H])(C([H])([H])[H])C([H])([H])[H])C([H])(C(=O)N([H])C2([H])c4c([H])c([H])c([H])c([H])c4C([H])([H])C([H])([H])C2([H])[H])C3([H])[H])c([H])c(N([H])C(=O)N2C([H])([H])C([H])([H])C([H])([H])C([H])(n3nc(-c4c([H])c([H])c(Oc5c([H])c([H])c(F)c([H])c5F)c([H])c4[H])c(C(=O)N([H])[H])c3N([H])[H])C2([H])[H])c1[H]

>  <smiles>  (6) 
[H]c1c([H])c(C(=O)N([H])C([H])(C([H])([H])[H])C([H])(C([H])([H])[H])C([H])([H])Oc2c([H])c([H])c3c(c2[H])C([H])([H])N(C(=O)C([H])(N([H])C(=O)C([H])(N([H])C([H])([H])[H])C([H])([H])[H])C(C([H])([H])[H])(C([H])([H])[H])C([H])([H])[H])C([H])(C(=O)N([H])C2([H])c4c([H])c([H])c([H])c([H])c4C([H])([H])C([H])([H])C2([H])[H])C3([H])[H])c([H])c(N([H])C(=O)N2C([H])([H])C([H])([H])C([H])([H])C([H])(n3nc(-c4c([H])c([H])c(Oc5c([H])c([H])c(F)c([H])c5F)c([H])c4[H])c(C(=O)N([H])[H])c3N([H])[H])C2([H])[H])c1[H]

$$$$
6:0:0
     RDKit          3D

 87 93  0  0  1  0  0  0  0  0999 V2000
  -28.0260  -23.8440   20.2600 C   0  0  0  0  0  3  0  0  0  0  0  0
  -28.8750  -22.5330   20.2520 C   0  0  0  0  0  0  0  0  0  0  0  0
  -28.6620  -20.6940   20.2650 C   0  0  0  0  0  2  0  0  0  0  0  0
  -27.4700  -20.3890   20.3520 O   0  0  0  0  0  1  0  0  0  0  0  0
  -30.6010  -19.2400   18.9040 C   0  0  0  0  0  1  0  0  0  0  0  0
  -29.7610  -19.0240   20.1700 C   0  0  0  0  0  2  0  0  0  0  0  0
  -30.2930  -15.8240   20.1450 C   0  0  0  0  0  0  0  0  0  0  0  0
  -30.4100  -13.2670   19.3000 C   0  0  0  0  0  2  0  0  0  0  0  0
  -29.5050  -12.8210   18.1130 C   0  0  0  0  0  2  0  0  0  0  0  0
  -28.1040  -12.4320   18.6010 C   0  0  0  0  0  2  0  0  0  0  0  0
  -27.5950  -13.4230   19.6710 C   0  0  0  0  0  3  0  0  0  0  0  0
  -28.6430  -13.7750   20.7560 C   0  0  0  0  0  2  0  0  0  0  0  0
  -29.7770  -14.4430   20.0670 N   0  0  0  0  0  0  0  0  0  0  0  0
  -31.5250  -15.7410   19.9660 O   0  0  0  0  0  0  0  0  0  0  0  0
  -29.5480  -17.2200   20.2170 N   0  0  0  0  0  0  0  0  0  0  0  0
  -28.5610  -17.0270   20.3200 H   0  0  0  0  0  0  0  0  0  0  0  0
  -25.2530  -13.9110   20.5090 C   0  0  0  0  0  0  0  0  0  0  0  0
  -24.2100  -13.1150   20.8860 C   0  0  0  0  0  0  0  0  0  0  0  0
  -24.6930  -11.7710   20.8160 C   0  0  0  0  0  0  0  0  0  0  0  0
  -26.2990  -13.0570   20.2210 N   0  0  0  0  0  0  0  0  0  0  0  0
  -25.9790  -11.7590   20.4720 N   0  0  0  0  0  0  0  0  0  0  0  0
  -23.9800  -10.4980   20.9960 C   0  0  0  0  0  0  0  0  0  0  0  0
  -24.4190   -9.5290   21.9230 C   0  0  0  0  0  3  0  0  0  0  0  0
  -23.7010   -8.3250   22.0950 C   0  0  0  0  0  3  0  0  0  0  0  0
  -22.5290   -8.0830   21.3390 C   0  0  0  0  0  0  0  0  0  0  0  0
  -22.1080   -9.0410   20.4010 C   0  0  0  0  0  3  0  0  0  0  0  0
  -22.8280  -10.2360   20.2280 C   0  0  0  0  0  3  0  0  0  0  0  0
  -21.7820   -6.9320   21.4210 O   0  0  0  0  0  0  0  0  0  0  0  0
  -21.7090   -6.2010   22.5800 C   0  0  0  0  0  0  0  0  0  0  0  0
  -21.2180   -6.7580   23.7810 C   0  0  0  0  0  3  0  0  0  0  0  0
  -21.0950   -5.9530   24.9310 C   0  0  0  0  0  3  0  0  0  0  0  0
  -21.4510   -4.5930   24.8810 C   0  0  0  0  0  0  0  0  0  0  0  0
  -21.9350   -4.0350   23.6840 C   0  0  0  0  0  3  0  0  0  0  0  0
  -22.0590   -4.8370   22.5360 C   0  0  0  0  0  0  0  0  0  0  0  0
  -22.5060   -4.2890   21.3800 F   0  0  0  0  0  0  0  0  0  0  0  0
  -21.3260   -3.8170   25.9830 F   0  0  0  0  0  0  0  0  0  0  0  0
  -22.8150  -13.5740   21.1900 C   0  0  0  0  0  0  0  0  0  0  0  0
  -22.1140  -12.8640   22.0660 N   0  0  0  0  0  0  0  0  0  0  0  0
  -22.3580  -14.5990   20.6870 O   0  0  0  0  0  0  0  0  0  0  0  0
  -22.5000  -12.0350   22.4950 H   0  0  0  0  0  0  0  0  0  0  0  0
  -21.1790  -13.1530   22.3130 H   0  0  0  0  0  0  0  0  0  0  0  0
  -25.3930  -15.2880   20.3530 N   0  0  0  0  0  0  0  0  0  0  0  0
  -24.6190  -15.9280   20.4910 H   0  0  0  0  0  0  0  0  0  0  0  0
  -26.2190  -15.7400   19.9830 H   0  0  0  0  0  0  0  0  0  0  0  0
  -30.1860  -22.8040   20.2340 O   0  0  0  0  0  0  0  0  0  0  0  0
  -30.2740  -23.7490   20.2290 H   0  0  0  0  0  0  0  0  0  0  0  0
  -28.1950  -25.4770   20.2700 O   0  0  0  0  0  0  0  0  0  0  0  0
  -24.7140  -31.8790   23.1990 C   0  0  0  0  0  0  0  0  0  0  0  0
  -27.2230  -26.7180   20.2480 C   0  0  0  0  0  0  0  0  0  0  0  0
  -23.5240  -30.4730   21.5720 C   0  0  0  0  0  3  0  0  0  0  0  0
  -24.9670  -28.7990   20.1750 C   0  0  0  0  0  0  0  0  0  0  0  0
  -26.1060  -30.5870   21.4590 C   0  0  0  0  0  2  0  0  0  0  0  0
  -26.1640  -29.1420   20.8140 C   0  0  0  0  0  0  0  0  0  0  0  0
  -27.2710  -28.1290   20.8190 C   0  0  0  0  0  3  0  0  0  0  0  0
  -25.9940  -26.6060   19.5440 C   0  0  0  0  0  3  0  0  0  0  0  0
  -24.9250  -27.5580   19.5150 C   0  0  0  0  0  3  0  0  0  0  0  0
  -23.7660  -29.7620   20.2080 C   0  0  0  0  0  2  0  0  0  0  0  0
  -24.8060  -31.0150   22.1280 N   0  0  0  0  0  0  0  0  0  0  0  0
  -23.6210  -32.1880   23.7040 O   0  0  0  0  0  0  0  0  0  0  0  0
  -22.8000  -29.5090   22.5510 C   0  0  0  0  0  0  0  0  0  0  0  0
  -21.4660  -29.3620   22.4280 N   0  0  0  0  0  0  0  0  0  0  0  0
  -23.4520  -28.8900   23.3950 O   0  0  0  0  0  0  0  0  0  0  0  0
  -20.9890  -29.9110   21.7260 H   0  0  0  0  0  0  0  0  0  0  0  0
  -18.0730  -28.1660   22.9570 C   0  0  0  0  0  0  0  0  0  0  0  0
  -20.6350  -28.4340   23.2080 C   0  0  0  0  0  3  0  0  0  0  0  0
  -20.7300  -26.9960   22.6440 C   0  0  0  0  0  2  0  0  0  0  0  0
  -19.6260  -26.6710   21.6330 C   0  0  0  0  0  2  0  0  0  0  0  0
  -18.2470  -26.8170   22.2810 C   0  0  0  0  0  2  0  0  0  0  0  0
  -19.1940  -28.9330   23.3770 C   0  0  0  0  0  0  0  0  0  0  0  0
  -18.9730  -30.1920   23.9760 C   0  0  0  0  0  3  0  0  0  0  0  0
  -17.6680  -30.6870   24.1540 C   0  0  0  0  0  3  0  0  0  0  0  0
  -16.5630  -29.9210   23.7450 C   0  0  0  0  0  3  0  0  0  0  0  0
  -16.7660  -28.6620   23.1540 C   0  0  0  0  0  3  0  0  0  0  0  0
  -25.9760  -32.5330   23.8380 C   0  0  0  0  0  3  0  0  0  0  0  0
  -26.4820  -31.7700   25.1260 C   0  0  1  0  0  0  0  0  0  0  0  0
  -25.3800  -31.5380   26.1870 C   0  0  0  0  0  1  0  0  0  0  0  0
  -27.0710  -30.3900   24.7600 C   0  0  0  0  0  1  0  0  0  0  0  0
  -27.6260  -32.5700   25.7930 C   0  0  0  0  0  1  0  0  0  0  0  0
  -25.6480  -33.9300   24.1860 N   0  0  0  0  0  0  0  0  0  0  0  0
  -25.9480  -35.0040   23.4410 C   0  0  0  0  0  0  0  0  0  0  0  0
  -26.5850  -34.9230   22.3900 O   0  0  0  0  0  0  0  0  0  0  0  0
  -25.0750  -34.0650   25.0050 H   0  0  0  0  0  0  0  0  0  0  0  0
  -24.1860  -36.7920   23.1980 C   0  0  0  0  0  1  0  0  0  0  0  0
  -25.4700  -36.3860   23.9410 C   0  0  0  0  0  3  0  0  0  0  0  0
  -27.6280  -37.2990   24.6810 C   0  0  0  0  0  1  0  0  0  0  0  0
  -26.4840  -37.4540   23.7870 N   0  0  0  0  0  0  0  0  0  0  0  0
  -26.0720  -38.3680   23.9550 H   0  0  0  0  0  0  0  0  0  0  0  0
  1 47  1  0
  2  1  2  0
  2  3  1  0
  3  4  1  0
  5  6  1  0
  6 15  1  0
  7 15  1  0
  8 13  1  0
  9 10  1  0
  9  8  1  0
 11 10  1  0
 11 20  1  0
 11 12  1  0
 13  7  1  0
 13 12  1  0
 14  7  2  0
 15 16  1  0
 17 18  2  0
 18 37  1  0
 19 18  1  0
 19 22  1  0
 20 21  1  0
 20 17  1  0
 21 19  2  0
 22 23  1  0
 23 24  2  0
 25 28  1  0
 25 24  1  0
 26 25  2  0
 27 26  1  0
 27 22  2  0
 28 29  1  0
 29 30  1  0
 30 31  2  0
 32 31  1  0
 32 36  1  0
 33 32  2  0
 34 29  2  0
 34 33  1  0
 35 34  1  0
 37 38  1  0
 38 41  1  0
 38 40  1  0
 39 37  2  0
 42 43  1  0
 42 17  1  0
 44 42  1  0
 45  2  1  0
 46 45  1  0
 48 59  2  0
 49 47  1  0
 49 54  1  0
 50 58  1  0
 50 60  1  0
 51 57  1  0
 51 53  1  0
 52 58  1  0
 53 54  2  0
 53 52  1  0
 55 49  2  0
 56 55  1  0
 56 51  2  0
 57 50  1  0
 58 48  1  0
 60 62  2  0
 61 60  1  0
 63 61  1  0
 64 73  2  0
 64 69  1  0
 65 61  1  0
 65 69  1  0
 66 65  1  0
 67 68  1  0
 67 66  1  0
 68 64  1  0
 69 70  2  0
 70 71  1  0
 72 71  2  0
 73 72  1  0
 74 48  1  0
 74 79  1  0
 74 75  1  0
 75 78  1  1
 75 76  1  0
 77 75  1  0
 79 82  1  0
 80 84  1  0
 80 79  1  0
 81 80  2  0
 84 83  1  0
 86 84  1  0
 86 87  1  0
 86 85  1  0
M  ISO  4   1 101   7 100  15 100  47 101
M  END
>  <TORSDO>  (7) 
F 19

>  <SCORE>  (7) 
-15.224

>  <name>  (7) 
6

>  <ligand_id>  (7) 
6

>  <original_smiles>  (7) 
[H]OC(C(=O)C([H])(N([H])C(=O)N1C([H])([H])C([H])([H])C([H])([H])C([H])(n2nc(-c3c([H])c([H])c(Oc4c([H])c([H])c(F)c([H])c4F)c([H])c3[H])c(C(=O)N([H])[H])c2N([H])[H])C1([H])[H])C([H])([H])[H])=C([H])Oc1c([H])c([H])c2c(c1[H])C([H])([H])N(C(=O)C([H])(N([H])C(=O)C([H])(N([H])C([H])([H])[H])C([H])([H])[H])C(C([H])([H])[H])(C([H])([H])[H])C([H])([H])[H])C([H])(C(=O)N([H])C1([H])c3c([H])c([H])c([H])c([H])c3C([H])([H])C([H])([H])C1([H])[H])C2([H])[H]

>  <smiles>  (7) 
[H]OC(C(=O)C([H])(N([H])C(=O)N1C([H])([H])C([H])([H])C([H])([H])C([H])(n2nc(-c3c([H])c([H])c(Oc4c([H])c([H])c(F)c([H])c4F)c([H])c3[H])c(C(=O)N([H])[H])c2N([H])[H])C1([H])[H])C([H])([H])[H])=C([H])Oc1c([H])c([H])c2c(c1[H])C([H])([H])N(C(=O)C([H])(N([H])C(=O)C([H])(N([H])C([H])([H])[H])C([H])([H])[H])C(C([H])([H])[H])(C([H])([H])[H])C([H])([H])[H])C([H])(C(=O)N([H])C1([H])c3c([H])c([H])c([H])c([H])c3C([H])([H])C([H])([H])C1([H])[H])C2([H])[H]

$$$$
7:0:0
     RDKit          3D

 93102  0  0  1  0  0  0  0  0999 V2000
  -28.6280  -22.3140   19.7600 C   0  0  0  0  0  3  0  0  0  0  0  0
  -28.6950  -23.5640   20.3250 C   0  0  0  0  0  0  0  0  0  0  0  0
  -29.4040  -23.3080   21.5620 C   0  0  0  0  0  0  0  0  0  0  0  0
  -29.7360  -24.2550   22.4530 C   0  0  0  0  0  1  0  0  0  0  0  0
  -29.7180  -21.8030   21.7060 C   0  0  0  0  0  3  0  0  0  0  0  0
  -29.1650  -21.2050   20.4850 N   0  0  0  0  0  0  0  0  0  0  0  0
  -29.8060  -19.7340   18.6560 C   0  0  0  0  0  3  0  0  0  0  0  0
  -30.1340  -18.4970   18.0730 C   0  0  0  0  0  3  0  0  0  0  0  0
  -29.5880  -18.6120   20.8000 C   0  0  0  0  0  3  0  0  0  0  0  0
  -29.5130  -19.8600   20.0310 C   0  0  0  0  0  0  0  0  0  0  0  0
  -29.9150  -17.3040   20.2150 C   0  0  0  0  0  0  0  0  0  0  0  0
  -30.1720  -17.3070   18.8210 C   0  0  0  0  0  0  0  0  0  0  0  0
  -30.3990  -16.1510   18.1540 F   0  0  0  0  0  0  0  0  0  0  0  0
  -30.6250  -14.8280   20.6570 C   0  0  0  0  0  0  0  0  0  0  0  0
  -30.4820  -12.5210   19.7140 C   0  0  0  0  0  2  0  0  0  0  0  0
  -29.6100  -12.5590   18.4390 C   0  0  0  0  0  2  0  0  0  0  0  0
  -28.1220  -12.3850   18.7970 C   0  0  0  0  0  2  0  0  0  0  0  0
  -27.6820  -13.3010   19.9700 C   0  0  0  0  0  3  0  0  0  0  0  0
  -28.6820  -13.2510   21.1490 C   0  0  0  0  0  2  0  0  0  0  0  0
  -30.0080  -13.5950   20.6190 N   0  0  0  0  0  0  0  0  0  0  0  0
  -31.8200  -14.9150   20.3570 O   0  0  0  0  0  0  0  0  0  0  0  0
  -29.8690  -15.9740   20.9000 N   0  0  0  0  0  0  0  0  0  0  0  0
  -29.0070  -15.7930   21.3920 H   0  0  0  0  0  0  0  0  0  0  0  0
  -25.2590  -13.8930   20.5620 C   0  0  0  0  0  0  0  0  0  0  0  0
  -24.1770  -13.1220   20.8900 C   0  0  0  0  0  0  0  0  0  0  0  0
  -24.6450  -11.7720   20.9090 C   0  0  0  0  0  0  0  0  0  0  0  0
  -26.3160  -13.0140   20.3970 N   0  0  0  0  0  0  0  0  0  0  0  0
  -25.9500  -11.7340   20.6690 N   0  0  0  0  0  0  0  0  0  0  0  0
  -23.9130  -10.5100   21.0850 C   0  0  0  0  0  0  0  0  0  0  0  0
  -24.3120   -9.5510   22.0420 C   0  0  0  0  0  3  0  0  0  0  0  0
  -23.5800   -8.3550   22.2060 C   0  0  0  0  0  3  0  0  0  0  0  0
  -22.4340   -8.1110   21.4130 C   0  0  0  0  0  0  0  0  0  0  0  0
  -22.0530   -9.0590   20.4460 C   0  0  0  0  0  3  0  0  0  0  0  0
  -22.7870  -10.2450   20.2810 C   0  0  0  0  0  3  0  0  0  0  0  0
  -21.6770   -6.9650   21.4840 O   0  0  0  0  0  0  0  0  0  0  0  0
  -21.5950   -6.2280   22.6370 C   0  0  0  0  0  0  0  0  0  0  0  0
  -21.1430   -6.7900   23.8520 C   0  0  0  0  0  3  0  0  0  0  0  0
  -21.0080   -5.9780   24.9960 C   0  0  0  0  0  3  0  0  0  0  0  0
  -21.3150   -4.6060   24.9270 C   0  0  0  0  0  0  0  0  0  0  0  0
  -21.7590   -4.0430   23.7170 C   0  0  0  0  0  3  0  0  0  0  0  0
  -21.8960   -4.8510   22.5760 C   0  0  0  0  0  0  0  0  0  0  0  0
  -22.3040   -4.3000   21.4070 F   0  0  0  0  0  0  0  0  0  0  0  0
  -21.1780   -3.8240   26.0230 F   0  0  0  0  0  0  0  0  0  0  0  0
  -22.7660  -13.5990   21.0810 C   0  0  0  0  0  0  0  0  0  0  0  0
  -21.9970  -12.9190   21.9230 N   0  0  0  0  0  0  0  0  0  0  0  0
  -22.3530  -14.6120   20.5180 O   0  0  0  0  0  0  0  0  0  0  0  0
  -22.3430  -12.1010   22.4020 H   0  0  0  0  0  0  0  0  0  0  0  0
  -21.0500  -13.2230   22.0960 H   0  0  0  0  0  0  0  0  0  0  0  0
  -25.4280  -15.2600   20.3670 N   0  0  0  0  0  0  0  0  0  0  0  0
  -24.6560  -15.9140   20.4220 H   0  0  0  0  0  0  0  0  0  0  0  0
  -26.2920  -15.6920   20.0650 H   0  0  0  0  0  0  0  0  0  0  0  0
  -27.9450  -24.8810   19.7950 C   0  0  0  0  0  2  0  0  0  0  0  0
  -28.2470  -26.3230   20.1630 O   0  0  0  0  0  0  0  0  0  0  0  0
  -24.5770  -31.8790   23.1630 C   0  0  0  0  0  0  0  0  0  0  0  0
  -27.1780  -27.2670   20.0830 C   0  0  0  0  0  0  0  0  0  0  0  0
  -23.3750  -30.4780   21.5300 C   0  0  0  0  0  3  0  0  0  0  0  0
  -24.8260  -28.9410   20.0860 C   0  0  0  0  0  0  0  0  0  0  0  0
  -25.9220  -30.7820   21.3480 C   0  0  0  0  0  2  0  0  0  0  0  0
  -26.0020  -29.4030   20.6900 C   0  0  0  0  0  0  0  0  0  0  0  0
  -27.1780  -28.5760   20.6850 C   0  0  0  0  0  3  0  0  0  0  0  0
  -25.9810  -26.9070   19.4170 C   0  0  0  0  0  3  0  0  0  0  0  0
  -24.8220  -27.7020   19.4370 C   0  0  0  0  0  3  0  0  0  0  0  0
  -23.5890  -29.8160   20.1440 C   0  0  0  0  0  2  0  0  0  0  0  0
  -24.6440  -31.0660   22.0680 N   0  0  0  0  0  0  0  0  0  0  0  0
  -23.4920  -32.1520   23.7000 O   0  0  0  0  0  0  0  0  0  0  0  0
  -22.7180  -29.4550   22.4880 C   0  0  0  0  0  0  0  0  0  0  0  0
  -21.3880  -29.2850   22.3810 N   0  0  0  0  0  0  0  0  0  0  0  0
  -23.4030  -28.8190   23.2930 O   0  0  0  0  0  0  0  0  0  0  0  0
  -20.8930  -29.8500   21.7050 H   0  0  0  0  0  0  0  0  0  0  0  0
  -18.0110  -28.1020   22.9320 C   0  0  0  0  0  0  0  0  0  0  0  0
  -20.5770  -28.3460   23.1580 C   0  0  0  0  0  3  0  0  0  0  0  0
  -20.6580  -26.9190   22.5680 C   0  0  0  0  0  2  0  0  0  0  0  0
  -19.5360  -26.6110   21.5710 C   0  0  0  0  0  2  0  0  0  0  0  0
  -18.1680  -26.7580   22.2410 C   0  0  0  0  0  2  0  0  0  0  0  0
  -19.1420  -28.8550   23.3490 C   0  0  0  0  0  0  0  0  0  0  0  0
  -18.9400  -30.1110   23.9580 C   0  0  0  0  0  3  0  0  0  0  0  0
  -17.6420  -30.6180   24.1530 C   0  0  0  0  0  3  0  0  0  0  0  0
  -16.5260  -29.8620   23.7520 C   0  0  0  0  0  3  0  0  0  0  0  0
  -16.7120  -28.6070   23.1470 C   0  0  0  0  0  3  0  0  0  0  0  0
  -25.8560  -32.5190   23.7810 C   0  0  0  0  0  3  0  0  0  0  0  0
  -25.5300  -33.9090   24.1350 N   0  0  0  0  0  0  0  0  0  0  0  0
  -25.8550  -34.9800   23.4000 C   0  0  0  0  0  0  0  0  0  0  0  0
  -26.5310  -34.9040   22.3700 O   0  0  0  0  0  0  0  0  0  0  0  0
  -24.9290  -34.0400   24.9350 H   0  0  0  0  0  0  0  0  0  0  0  0
  -24.1240  -36.7760   23.0640 C   0  0  0  0  0  1  0  0  0  0  0  0
  -25.3550  -36.3550   23.8840 C   0  0  0  0  0  3  0  0  0  0  0  0
  -27.4730  -37.2280   24.7680 C   0  0  0  0  0  1  0  0  0  0  0  0
  -26.3840  -37.4150   23.8130 N   0  0  0  0  0  0  0  0  0  0  0  0
  -25.9720  -38.3300   23.9780 H   0  0  0  0  0  0  0  0  0  0  0  0
  -26.3930  -31.7380   25.0430 C   0  0  1  0  0  0  0  0  0  0  0  0
  -25.3140  -31.4790   26.1200 C   0  0  0  0  0  1  0  0  0  0  0  0
  -26.9850  -30.3710   24.6320 C   0  0  0  0  0  1  0  0  0  0  0  0
  -27.5420  -32.5380   25.7000 C   0  0  0  0  0  1  0  0  0  0  0  0
  1  2  2  0
  1  6  1  0
  2  3  1  0
  3  5  2  0
  3  4  1  0
  6  5  1  0
  7 10  1  0
  8  7  2  0
  8 12  1  0
 10  6  1  0
 10  9  2  0
 11  9  1  0
 11 22  1  0
 12 11  2  0
 13 12  1  0
 14 22  1  0
 15 20  1  0
 16 17  1  0
 16 15  1  0
 18 17  1  0
 18 27  1  0
 18 19  1  0
 20 14  1  0
 20 19  1  0
 21 14  2  0
 22 23  1  0
 24 25  2  0
 25 26  1  0
 25 44  1  0
 26 29  1  0
 27 24  1  0
 27 28  1  0
 28 26  2  0
 29 30  1  0
 30 31  2  0
 32 35  1  0
 32 31  1  0
 33 32  2  0
 34 33  1  0
 34 29  2  0
 35 36  1  0
 36 37  1  0
 37 38  2  0
 39 38  1  0
 39 43  1  0
 40 39  2  0
 41 36  2  0
 41 40  1  0
 42 41  1  0
 44 45  1  0
 45 48  1  0
 45 47  1  0
 46 44  2  0
 49 50  1  0
 49 24  1  0
 51 49  1  0
 52 53  1  0
 52  2  1  0
 54 65  2  0
 55 53  1  0
 55 60  1  0
 56 64  1  0
 56 66  1  0
 57 63  1  0
 57 59  1  0
 58 64  1  0
 59 58  1  0
 60 59  2  0
 61 62  1  0
 61 55  2  0
 62 57  2  0
 63 56  1  0
 64 54  1  0
 66 68  2  0
 67 66  1  0
 69 67  1  0
 70 79  2  0
 70 75  1  0
 71 67  1  0
 71 75  1  0
 72 71  1  0
 73 74  1  0
 73 72  1  0
 74 70  1  0
 75 76  2  0
 76 77  1  0
 78 77  2  0
 79 78  1  0
 80 54  1  0
 80 81  1  0
 80 90  1  0
 81 84  1  0
 82 86  1  0
 82 81  1  0
 83 82  2  0
 86 85  1  0
 88 86  1  0
 88 89  1  0
 88 87  1  0
 90 93  1  1
 90 91  1  0
 92 90  1  0
M  ISO  4  14 100  22 100  52 101  53 101
M  END
>  <TORSDO>  (8) 
F 18

>  <SCORE>  (8) 
-14.623

>  <name>  (8) 
7

>  <ligand_id>  (8) 
7

>  <original_smiles>  (8) 
[H]C([H])=C1C(C([H])([H])Oc2c([H])c([H])c3c(c2[H])C([H])([H])N(C(=O)C([H])(N([H])C(=O)C([H])(N([H])C([H])([H])[H])C([H])([H])[H])C(C([H])([H])[H])(C([H])([H])[H])C([H])([H])[H])C([H])(C(=O)N([H])C2([H])c4c([H])c([H])c([H])c([H])c4C([H])([H])C([H])([H])C2([H])[H])C3([H])[H])=C([H])N(c2c([H])c([H])c(F)c(N([H])C(=O)N3C([H])([H])C([H])([H])C([H])([H])C([H])(n4nc(-c5c([H])c([H])c(Oc6c([H])c([H])c(F)c([H])c6F)c([H])c5[H])c(C(=O)N([H])[H])c4N([H])[H])C3([H])[H])c2[H])C1([H])[H]

>  <smiles>  (8) 
[H]C([H])=C1C(C([H])([H])Oc2c([H])c([H])c3c(c2[H])C([H])([H])N(C(=O)C([H])(N([H])C(=O)C([H])(N([H])C([H])([H])[H])C([H])([H])[H])C(C([H])([H])[H])(C([H])([H])[H])C([H])([H])[H])C([H])(C(=O)N([H])C2([H])c4c([H])c([H])c([H])c([H])c4C([H])([H])C([H])([H])C2([H])[H])C3([H])[H])=C([H])N(c2c([H])c([H])c(F)c(N([H])C(=O)N3C([H])([H])C([H])([H])C([H])([H])C([H])(n4nc(-c5c([H])c([H])c(Oc6c([H])c([H])c(F)c([H])c6F)c([H])c5[H])c(C(=O)N([H])[H])c4N([H])[H])C3([H])[H])c2[H])C1([H])[H]

$$$$
8:0:0
     RDKit          3D

 93102  0  0  1  0  0  0  0  0999 V2000
  -28.4400  -24.2450   20.7050 C   0  0  0  0  0  0  0  0  0  0  0  0
  -28.1530  -23.0770   21.5060 C   0  0  0  0  0  0  0  0  0  0  0  0
  -28.1920  -25.5550   20.9630 C   0  0  0  0  0  3  0  0  0  0  0  0
  -29.0660  -23.3840   19.6260 C   0  0  0  0  0  2  0  0  0  0  0  0
  -28.5930  -22.2560   20.4640 N   0  0  0  0  0  0  0  0  0  0  0  0
  -27.8090  -22.9520   22.6630 O   0  0  0  0  0  0  0  0  0  0  0  0
  -31.0580  -19.3770   20.0640 C   0  0  0  0  0  3  0  0  0  0  0  0
  -28.9450  -18.4530   20.7730 C   0  0  0  0  0  3  0  0  0  0  0  0
  -30.4960  -20.6730   20.0340 C   0  0  0  0  0  3  0  0  0  0  0  0
  -28.4010  -19.7690   20.7690 C   0  0  0  0  0  3  0  0  0  0  0  0
  -30.3010  -18.2390   20.4310 C   0  0  0  0  0  0  0  0  0  0  0  0
  -29.1520  -20.9280   20.4100 C   0  0  0  0  0  0  0  0  0  0  0  0
  -30.9900  -14.6140   19.8070 C   0  0  0  0  0  0  0  0  0  0  0  0
  -30.5540  -12.4320   18.7180 C   0  0  0  0  0  2  0  0  0  0  0  0
  -29.5200  -12.5900   17.5880 C   0  0  0  0  0  2  0  0  0  0  0  0
  -28.0900  -12.4520   18.1450 C   0  0  0  0  0  2  0  0  0  0  0  0
  -27.8520  -13.3150   19.4140 C   0  0  0  0  0  3  0  0  0  0  0  0
  -29.0030  -13.1650   20.4330 C   0  0  0  0  0  2  0  0  0  0  0  0
  -30.2580  -13.4650   19.7310 N   0  0  0  0  0  0  0  0  0  0  0  0
  -32.1010  -14.6720   19.2720 O   0  0  0  0  0  0  0  0  0  0  0  0
  -31.0230  -16.9050   20.5610 C   0  0  0  0  0  0  0  0  0  0  0  0
  -30.3850  -15.7300   20.3060 N   0  0  0  0  0  0  0  0  0  0  0  0
  -32.2270  -16.9640   20.8480 O   0  0  0  0  0  0  0  0  0  0  0  0
  -29.3820  -15.7180   20.3890 H   0  0  0  0  0  0  0  0  0  0  0  0
  -25.5620  -13.9170   20.4100 C   0  0  0  0  0  0  0  0  0  0  0  0
  -24.5220  -13.1450   20.8490 C   0  0  0  0  0  0  0  0  0  0  0  0
  -24.9450  -11.7870   20.7020 C   0  0  0  0  0  0  0  0  0  0  0  0
  -26.5550  -13.0320   20.0220 N   0  0  0  0  0  0  0  0  0  0  0  0
  -26.1950  -11.7430   20.2550 N   0  0  0  0  0  0  0  0  0  0  0  0
  -24.2130  -10.5300   20.9000 C   0  0  0  0  0  0  0  0  0  0  0  0
  -24.6470   -9.5570   21.8270 C   0  0  0  0  0  3  0  0  0  0  0  0
  -23.9120   -8.3680   22.0150 C   0  0  0  0  0  3  0  0  0  0  0  0
  -22.7280   -8.1410   21.2740 C   0  0  0  0  0  0  0  0  0  0  0  0
  -22.3120   -9.1010   20.3350 C   0  0  0  0  0  3  0  0  0  0  0  0
  -23.0480  -10.2820   20.1460 C   0  0  0  0  0  3  0  0  0  0  0  0
  -21.9660   -7.0020   21.3710 O   0  0  0  0  0  0  0  0  0  0  0  0
  -21.8310   -6.3230   22.5540 C   0  0  0  0  0  0  0  0  0  0  0  0
  -21.3210   -6.9420   23.7160 C   0  0  0  0  0  3  0  0  0  0  0  0
  -21.1340   -6.1880   24.8920 C   0  0  0  0  0  3  0  0  0  0  0  0
  -21.4490   -4.8170   24.9060 C   0  0  0  0  0  0  0  0  0  0  0  0
  -21.9540   -4.1970   23.7500 C   0  0  0  0  0  3  0  0  0  0  0  0
  -22.1400   -4.9480   22.5750 C   0  0  0  0  0  0  0  0  0  0  0  0
  -22.6060   -4.3410   21.4570 F   0  0  0  0  0  0  0  0  0  0  0  0
  -21.2630   -4.0900   26.0330 F   0  0  0  0  0  0  0  0  0  0  0  0
  -23.1720  -13.6310   21.2930 C   0  0  0  0  0  0  0  0  0  0  0  0
  -22.5230  -12.9040   22.1950 N   0  0  0  0  0  0  0  0  0  0  0  0
  -22.7050  -14.6880   20.8700 O   0  0  0  0  0  0  0  0  0  0  0  0
  -22.9140  -12.0500   22.5620 H   0  0  0  0  0  0  0  0  0  0  0  0
  -21.6190  -13.2090   22.5250 H   0  0  0  0  0  0  0  0  0  0  0  0
  -25.7390  -15.2920   20.2880 N   0  0  0  0  0  0  0  0  0  0  0  0
  -24.9960  -15.9510   20.5000 H   0  0  0  0  0  0  0  0  0  0  0  0
  -26.5460  -15.7390   19.8740 H   0  0  0  0  0  0  0  0  0  0  0  0
  -28.4350  -26.6520   20.1450 O   0  0  0  0  0  0  0  0  0  0  0  0
  -24.6580  -31.8800   23.1850 C   0  0  0  0  0  0  0  0  0  0  0  0
  -27.3500  -27.5010   20.0560 C   0  0  0  0  0  0  0  0  0  0  0  0
  -23.4800  -30.5030   21.5060 C   0  0  0  0  0  3  0  0  0  0  0  0
  -24.9620  -29.0160   20.0500 C   0  0  0  0  0  0  0  0  0  0  0  0
  -26.0060  -30.8860   21.3390 C   0  0  0  0  0  2  0  0  0  0  0  0
  -26.1140  -29.5300   20.6630 C   0  0  0  0  0  0  0  0  0  0  0  0
  -27.3170  -28.7820   20.6620 C   0  0  0  0  0  3  0  0  0  0  0  0
  -26.1900  -27.0170   19.4180 C   0  0  0  0  0  3  0  0  0  0  0  0
  -24.9990  -27.7630   19.4170 C   0  0  0  0  0  3  0  0  0  0  0  0
  -23.7070  -29.8590   20.1120 C   0  0  0  0  0  2  0  0  0  0  0  0
  -24.7320  -31.1030   22.0680 N   0  0  0  0  0  0  0  0  0  0  0  0
  -23.5690  -32.1320   23.7190 O   0  0  0  0  0  0  0  0  0  0  0  0
  -22.8300  -29.4530   22.4360 C   0  0  0  0  0  0  0  0  0  0  0  0
  -21.5080  -29.2570   22.2930 N   0  0  0  0  0  0  0  0  0  0  0  0
  -23.5140  -28.8180   23.2450 O   0  0  0  0  0  0  0  0  0  0  0  0
  -21.0180  -29.8230   21.6150 H   0  0  0  0  0  0  0  0  0  0  0  0
  -18.1490  -28.0010   22.7110 C   0  0  0  0  0  0  0  0  0  0  0  0
  -20.6950  -28.2960   23.0370 C   0  0  0  0  0  3  0  0  0  0  0  0
  -20.8320  -26.8750   22.4440 C   0  0  0  0  0  2  0  0  0  0  0  0
  -19.7550  -26.5470   21.4050 C   0  0  0  0  0  2  0  0  0  0  0  0
  -18.3590  -26.6630   22.0240 C   0  0  0  0  0  2  0  0  0  0  0  0
  -19.2460  -28.7750   23.1740 C   0  0  0  0  0  0  0  0  0  0  0  0
  -18.9940  -30.0280   23.7750 C   0  0  0  0  0  3  0  0  0  0  0  0
  -17.6780  -30.5050   23.9200 C   0  0  0  0  0  3  0  0  0  0  0  0
  -16.5950  -29.7270   23.4750 C   0  0  0  0  0  3  0  0  0  0  0  0
  -16.8310  -28.4760   22.8760 C   0  0  0  0  0  3  0  0  0  0  0  0
  -25.9330  -32.5100   23.8280 C   0  0  0  0  0  3  0  0  0  0  0  0
  -25.6110  -33.9010   24.1700 N   0  0  0  0  0  0  0  0  0  0  0  0
  -25.9380  -34.9630   23.4200 C   0  0  0  0  0  0  0  0  0  0  0  0
  -26.6100  -34.8740   22.3900 O   0  0  0  0  0  0  0  0  0  0  0  0
  -25.0130  -34.0440   24.9690 H   0  0  0  0  0  0  0  0  0  0  0  0
  -24.1920  -36.7400   23.0810 C   0  0  0  0  0  1  0  0  0  0  0  0
  -25.4380  -36.3420   23.8880 C   0  0  0  0  0  3  0  0  0  0  0  0
  -27.5650  -37.2440   24.7220 C   0  0  0  0  0  1  0  0  0  0  0  0
  -26.4600  -37.4060   23.7810 N   0  0  0  0  0  0  0  0  0  0  0  0
  -26.0450  -38.3210   23.9340 H   0  0  0  0  0  0  0  0  0  0  0  0
  -26.4370  -31.7250   25.1000 C   0  0  1  0  0  0  0  0  0  0  0  0
  -25.3320  -31.4720   26.1500 C   0  0  0  0  0  1  0  0  0  0  0  0
  -27.0310  -30.3530   24.6970 C   0  0  0  0  0  1  0  0  0  0  0  0
  -27.5750  -32.5160   25.7860 C   0  0  0  0  0  1  0  0  0  0  0  0
  1  3  2  0
  1  2  1  0
  2  6  2  0
  4  5  1  0
  4  1  1  0
  5  2  1  0
  7 11  1  0
  9  7  2  0
  9 12  1  0
 10  8  1  0
 11 21  1  0
 11  8  2  0
 12  5  1  0
 12 10  2  0
 13 22  1  0
 14 19  1  0
 15 16  1  0
 15 14  1  0
 17 16  1  0
 17 28  1  0
 17 18  1  0
 19 13  1  0
 19 18  1  0
 20 13  2  0
 21 23  2  0
 22 24  1  0
 22 21  1  0
 25 26  2  0
 26 45  1  0
 27 26  1  0
 27 30  1  0
 28 29  1  0
 28 25  1  0
 29 27  2  0
 30 31  1  0
 31 32  2  0
 33 36  1  0
 33 32  1  0
 34 33  2  0
 35 34  1  0
 35 30  2  0
 36 37  1  0
 37 42  2  0
 37 38  1  0
 38 39  2  0
 39 40  1  0
 40 44  1  0
 41 40  2  0
 42 41  1  0
 43 42  1  0
 45 46  1  0
 46 49  1  0
 46 48  1  0
 47 45  2  0
 50 25  1  0
 50 51  1  0
 52 50  1  0
 53  3  1  0
 54 65  2  0
 55 53  1  0
 55 60  1  0
 56 64  1  0
 56 66  1  0
 57 63  1  0
 57 59  1  0
 58 64  1  0
 59 58  1  0
 60 59  2  0
 61 55  2  0
 62 61  1  0
 62 57  2  0
 63 56  1  0
 64 54  1  0
 66 68  2  0
 67 66  1  0
 69 67  1  0
 70 79  2  0
 70 75  1  0
 71 67  1  0
 71 75  1  0
 72 71  1  0
 73 74  1  0
 73 72  1  0
 74 70  1  0
 75 76  2  0
 76 77  1  0
 78 77  2  0
 79 78  1  0
 80 54  1  0
 80 81  1  0
 80 90  1  0
 81 84  1  0
 82 86  1  0
 82 81  1  0
 83 82  2  0
 86 85  1  0
 88 86  1  0
 88 89  1  0
 88 87  1  0
 90 93  1  1
 90 91  1  0
 92 90  1  0
M  ISO  4   3 101  13 100  22 100  53 101
M  END
>  <TORSDO>  (9) 
F 17

>  <SCORE>  (9) 
-14.036

>  <name>  (9) 
8

>  <ligand_id>  (9) 
8

>  <original_smiles>  (9) 
[H]C(Oc1c([H])c([H])c2c(c1[H])C([H])([H])N(C(=O)C([H])(N([H])C(=O)C([H])(N([H])C([H])([H])[H])C([H])([H])[H])C(C([H])([H])[H])(C([H])([H])[H])C([H])([H])[H])C([H])(C(=O)N([H])C1([H])c3c([H])c([H])c([H])c([H])c3C([H])([H])C([H])([H])C1([H])[H])C2([H])[H])=C1C(=O)N(c2c([H])c([H])c(C(=O)N([H])C(=O)N3C([H])([H])C([H])([H])C([H])([H])C([H])(n4nc(-c5c([H])c([H])c(Oc6c([H])c([H])c(F)c([H])c6F)c([H])c5[H])c(C(=O)N([H])[H])c4N([H])[H])C3([H])[H])c([H])c2[H])C1([H])[H]

>  <smiles>  (9) 
[H]C(Oc1c([H])c([H])c2c(c1[H])C([H])([H])N(C(=O)C([H])(N([H])C(=O)C([H])(N([H])C([H])([H])[H])C([H])([H])[H])C(C([H])([H])[H])(C([H])([H])[H])C([H])([H])[H])C([H])(C(=O)N([H])C1([H])c3c([H])c([H])c([H])c([H])c3C([H])([H])C([H])([H])C1([H])[H])C2([H])[H])=C1C(=O)N(c2c([H])c([H])c(C(=O)N([H])C(=O)N3C([H])([H])C([H])([H])C([H])([H])C([H])(n4nc(-c5c([H])c([H])c(Oc6c([H])c([H])c(F)c([H])c6F)c([H])c5[H])c(C(=O)N([H])[H])c4N([H])[H])C3([H])[H])c([H])c2[H])C1([H])[H]

$$$$
9:0:0
     RDKit          3D

 94102  0  0  1  0  0  0  0  0999 V2000
  -30.4940  -21.1610   20.5260 C   0  0  0  0  0  3  0  0  0  0  0  0
  -31.4520  -18.8200   20.4890 C   0  0  0  0  0  3  0  0  0  0  0  0
  -29.0420  -18.9970   20.6770 C   0  0  0  0  0  3  0  0  0  0  0  0
  -31.3680  -17.4120   20.5620 C   0  0  0  0  0  3  0  0  0  0  0  0
  -28.9550  -17.5850   20.7490 C   0  0  0  0  0  3  0  0  0  0  0  0
  -30.2990  -19.6330   20.5470 C   0  0  0  0  0  0  0  0  0  0  0  0
  -30.1120  -16.7670   20.6810 C   0  0  0  0  0  0  0  0  0  0  0  0
  -30.6140  -14.3580   20.1100 C   0  0  0  0  0  0  0  0  0  0  0  0
  -30.2480  -12.2110   18.9400 C   0  0  0  0  0  2  0  0  0  0  0  0
  -29.2280  -12.4300   17.8030 C   0  0  0  0  0  2  0  0  0  0  0  0
  -27.7830  -12.2930   18.3240 C   0  0  0  0  0  2  0  0  0  0  0  0
  -27.5330  -13.1080   19.6190 C   0  0  0  0  0  3  0  0  0  0  0  0
  -28.6550  -12.8560   20.6510 C   0  0  0  0  0  2  0  0  0  0  0  0
  -29.9430  -13.1770   20.0100 N   0  0  0  0  0  0  0  0  0  0  0  0
  -31.7000  -14.5430   19.5530 O   0  0  0  0  0  0  0  0  0  0  0  0
  -29.9450  -15.3420   20.7550 N   0  0  0  0  0  0  0  0  0  0  0  0
  -29.0820  -15.0270   21.1720 H   0  0  0  0  0  0  0  0  0  0  0  0
  -25.1970  -13.7110   20.5140 C   0  0  0  0  0  0  0  0  0  0  0  0
  -24.1460  -12.9350   20.9250 C   0  0  0  0  0  0  0  0  0  0  0  0
  -24.5890  -11.5810   20.8100 C   0  0  0  0  0  0  0  0  0  0  0  0
  -26.2120  -12.8310   20.1780 N   0  0  0  0  0  0  0  0  0  0  0  0
  -25.8540  -11.5410   20.4110 N   0  0  0  0  0  0  0  0  0  0  0  0
  -23.8620  -10.3180   20.9970 C   0  0  0  0  0  0  0  0  0  0  0  0
  -24.2910   -9.3500   21.9320 C   0  0  0  0  0  3  0  0  0  0  0  0
  -23.5640   -8.1520   22.1060 C   0  0  0  0  0  3  0  0  0  0  0  0
  -22.3930   -7.9160   21.3460 C   0  0  0  0  0  0  0  0  0  0  0  0
  -21.9860   -8.8730   20.4000 C   0  0  0  0  0  3  0  0  0  0  0  0
  -22.7140  -10.0610   20.2230 C   0  0  0  0  0  3  0  0  0  0  0  0
  -21.6390   -6.7700   21.4310 O   0  0  0  0  0  0  0  0  0  0  0  0
  -21.5270   -6.0670   22.6040 C   0  0  0  0  0  0  0  0  0  0  0  0
  -20.9490   -6.6330   23.7600 C   0  0  0  0  0  3  0  0  0  0  0  0
  -20.7900   -5.8520   24.9230 C   0  0  0  0  0  3  0  0  0  0  0  0
  -21.2010   -4.5050   24.9290 C   0  0  0  0  0  0  0  0  0  0  0  0
  -21.7730   -3.9390   23.7760 C   0  0  0  0  0  3  0  0  0  0  0  0
  -21.9320   -4.7160   22.6170 C   0  0  0  0  0  0  0  0  0  0  0  0
  -22.4650   -4.1580   21.5010 F   0  0  0  0  0  0  0  0  0  0  0  0
  -21.0430   -3.7530   26.0420 F   0  0  0  0  0  0  0  0  0  0  0  0
  -22.7770  -13.4140   21.3120 C   0  0  0  0  0  0  0  0  0  0  0  0
  -22.1020  -12.6860   22.1960 N   0  0  0  0  0  0  0  0  0  0  0  0
  -22.3160  -14.4640   20.8680 O   0  0  0  0  0  0  0  0  0  0  0  0
  -22.4890  -11.8350   22.5750 H   0  0  0  0  0  0  0  0  0  0  0  0
  -21.1850  -12.9860   22.4980 H   0  0  0  0  0  0  0  0  0  0  0  0
  -25.3700  -15.0860   20.3770 N   0  0  0  0  0  0  0  0  0  0  0  0
  -24.6230  -15.7490   20.5530 H   0  0  0  0  0  0  0  0  0  0  0  0
  -26.1920  -15.5190   19.9740 H   0  0  0  0  0  0  0  0  0  0  0  0
  -29.0520  -22.9560   19.6150 C   0  0  0  0  0  0  0  0  0  0  0  0
  -29.2980  -22.0130   20.5400 N   0  0  0  0  0  0  0  0  0  0  0  0
  -29.2200  -22.7540   18.4100 O   0  0  0  0  0  0  0  0  0  0  0  0
  -28.9830  -22.2380   21.4740 H   0  0  0  0  0  0  0  0  0  0  0  0
  -28.7480  -24.2530   20.2150 C   0  0  0  0  0  3  0  0  0  0  0  0
  -28.4570  -25.3450   19.4720 C   0  0  0  0  0  3  0  0  0  0  0  0
  -28.3480  -26.6040   20.0280 O   0  0  0  0  0  0  0  0  0  0  0  0
  -24.5330  -31.7550   23.1070 C   0  0  0  0  0  0  0  0  0  0  0  0
  -27.1670  -27.3190   19.9850 C   0  0  0  0  0  0  0  0  0  0  0  0
  -23.3290  -30.3800   21.4420 C   0  0  0  0  0  3  0  0  0  0  0  0
  -24.7750  -28.8420   20.0100 C   0  0  0  0  0  0  0  0  0  0  0  0
  -25.8560  -30.7220   21.2600 C   0  0  0  0  0  2  0  0  0  0  0  0
  -25.9340  -29.3520   20.6080 C   0  0  0  0  0  0  0  0  0  0  0  0
  -27.1280  -28.5970   20.5900 C   0  0  0  0  0  3  0  0  0  0  0  0
  -25.9870  -26.8200   19.3870 C   0  0  0  0  0  3  0  0  0  0  0  0
  -24.7990  -27.5740   19.3990 C   0  0  0  0  0  3  0  0  0  0  0  0
  -23.5390  -29.7120   20.0570 C   0  0  0  0  0  2  0  0  0  0  0  0
  -24.5910  -30.9690   21.9930 N   0  0  0  0  0  0  0  0  0  0  0  0
  -23.4490  -32.0310   23.6410 O   0  0  0  0  0  0  0  0  0  0  0  0
  -22.6640  -29.3550   22.3890 C   0  0  0  0  0  0  0  0  0  0  0  0
  -21.3340  -29.2110   22.2730 N   0  0  0  0  0  0  0  0  0  0  0  0
  -23.3410  -28.6930   23.1800 O   0  0  0  0  0  0  0  0  0  0  0  0
  -20.8550  -29.7920   21.6000 H   0  0  0  0  0  0  0  0  0  0  0  0
  -17.9270  -28.1400   22.8330 C   0  0  0  0  0  0  0  0  0  0  0  0
  -20.5000  -28.2790   23.0310 C   0  0  0  0  0  3  0  0  0  0  0  0
  -20.5210  -26.8700   22.3960 C   0  0  0  0  0  2  0  0  0  0  0  0
  -19.3740  -26.6360   21.4050 C   0  0  0  0  0  2  0  0  0  0  0  0
  -18.0230  -26.8130   22.1010 C   0  0  0  0  0  2  0  0  0  0  0  0
  -19.0910  -28.8350   23.2570 C   0  0  0  0  0  0  0  0  0  0  0  0
  -18.9450  -30.0810   23.9050 C   0  0  0  0  0  3  0  0  0  0  0  0
  -17.6680  -30.6270   24.1350 C   0  0  0  0  0  3  0  0  0  0  0  0
  -16.5200  -29.9280   23.7240 C   0  0  0  0  0  3  0  0  0  0  0  0
  -16.6500  -28.6850   23.0790 C   0  0  0  0  0  3  0  0  0  0  0  0
  -25.8170  -32.3680   23.7420 C   0  0  0  0  0  3  0  0  0  0  0  0
  -26.3330  -31.5660   24.9980 C   0  0  1  0  0  0  0  0  0  0  0  0
  -25.2380  -31.2900   26.0570 C   0  0  0  0  0  1  0  0  0  0  0  0
  -26.9240  -30.2050   24.5660 C   0  0  0  0  0  1  0  0  0  0  0  0
  -27.4820  -32.3440   25.6810 C   0  0  0  0  0  1  0  0  0  0  0  0
  -25.5090  -33.7580   24.1060 N   0  0  0  0  0  0  0  0  0  0  0  0
  -25.8160  -34.8270   23.3570 C   0  0  0  0  0  0  0  0  0  0  0  0
  -26.4610  -34.7450   22.3080 O   0  0  0  0  0  0  0  0  0  0  0  0
  -24.9290  -33.8930   24.9210 H   0  0  0  0  0  0  0  0  0  0  0  0
  -24.0700  -36.6140   23.0690 C   0  0  0  0  0  1  0  0  0  0  0  0
  -25.3290  -36.2030   23.8500 C   0  0  0  0  0  3  0  0  0  0  0  0
  -27.4640  -37.0940   24.6740 C   0  0  0  0  0  1  0  0  0  0  0  0
  -26.3530  -37.2650   23.7400 N   0  0  0  0  0  0  0  0  0  0  0  0
  -25.9390  -38.1800   23.9000 H   0  0  0  0  0  0  0  0  0  0  0  0
  -32.2450  -22.5960   21.6530 C   0  0  0  0  0  2  0  0  0  0  0  0
  -31.3310  -21.6160   21.7060 C   0  0  0  0  0  3  0  0  0  0  0  0
  1 47  1  0
  1  6  1  0
  1 94  1  0
  2  6  2  0
  2  4  1  0
  3  5  2  0
  4  7  2  0
  6  3  1  0
  7  5  1  0
  7 16  1  0
  8 16  1  0
  9 14  1  0
 10 11  1  0
 10  9  1  0
 12 11  1  0
 12 21  1  0
 12 13  1  0
 14  8  1  0
 14 13  1  0
 15  8  2  0
 16 17  1  0
 18 19  2  0
 19 38  1  0
 20 19  1  0
 20 23  1  0
 21 22  1  0
 21 18  1  0
 22 20  2  0
 23 24  1  0
 24 25  2  0
 26 29  1  0
 26 25  1  0
 27 26  2  0
 28 27  1  0
 28 23  2  0
 29 30  1  0
 30 35  2  0
 30 31  1  0
 31 32  2  0
 32 33  1  0
 33 37  1  0
 34 33  2  0
 35 34  1  0
 36 35  1  0
 38 39  1  0
 39 42  1  0
 39 41  1  0
 40 38  2  0
 43 18  1  0
 43 44  1  0
 45 43  1  0
 46 50  1  0
 46 47  1  0
 47 49  1  0
 48 46  2  0
 51 52  1  0
 51 50  2  0
 53 64  2  0
 54 52  1  0
 54 59  1  0
 55 63  1  0
 55 65  1  0
 56 62  1  0
 56 58  1  0
 57 63  1  0
 58 57  1  0
 59 58  2  0
 60 61  1  0
 60 54  2  0
 61 56  2  0
 62 55  1  0
 63 53  1  0
 65 67  2  0
 66 65  1  0
 68 66  1  0
 69 78  2  0
 69 74  1  0
 70 66  1  0
 70 74  1  0
 71 70  1  0
 72 73  1  0
 72 71  1  0
 73 69  1  0
 74 75  2  0
 75 76  1  0
 77 76  2  0
 78 77  1  0
 79 53  1  0
 79 84  1  0
 79 80  1  0
 80 83  1  1
 80 81  1  0
 82 80  1  0
 84 87  1  0
 85 89  1  0
 85 84  1  0
 86 85  2  0
 89 88  1  0
 91 89  1  0
 91 92  1  0
 91 90  1  0
 93 94  2  0
M  ISO  4   8 100  16 100  51 101  52 101
M  END
>  <TORSDO>  (10) 
F 20

>  <SCORE>  (10) 
-12.940

>  <name>  (10) 
9

>  <ligand_id>  (10) 
9

>  <original_smiles>  (10) 
[H]C([H])=C([H])C([H])(c1c([H])c([H])c(N([H])C(=O)N2C([H])([H])C([H])([H])C([H])([H])C([H])(n3nc(-c4c([H])c([H])c(Oc5c([H])c([H])c(F)c([H])c5F)c([H])c4[H])c(C(=O)N([H])[H])c3N([H])[H])C2([H])[H])c([H])c1[H])N([H])C(=O)C([H])=C([H])Oc1c([H])c([H])c2c(c1[H])C([H])([H])N(C(=O)C([H])(N([H])C(=O)C([H])(N([H])C([H])([H])[H])C([H])([H])[H])C(C([H])([H])[H])(C([H])([H])[H])C([H])([H])[H])C([H])(C(=O)N([H])C1([H])c3c([H])c([H])c([H])c([H])c3C([H])([H])C([H])([H])C1([H])[H])C2([H])[H]

>  <smiles>  (10) 
[H]C([H])=C([H])C([H])(c1c([H])c([H])c(N([H])C(=O)N2C([H])([H])C([H])([H])C([H])([H])C([H])(n3nc(-c4c([H])c([H])c(Oc5c([H])c([H])c(F)c([H])c5F)c([H])c4[H])c(C(=O)N([H])[H])c3N([H])[H])C2([H])[H])c([H])c1[H])N([H])C(=O)C([H])=C([H])Oc1c([H])c([H])c2c(c1[H])C([H])([H])N(C(=O)C([H])(N([H])C(=O)C([H])(N([H])C([H])([H])[H])C([H])([H])[H])C(C([H])([H])[H])(C([H])([H])[H])C([H])([H])[H])C([H])(C(=O)N([H])C1([H])c3c([H])c([H])c([H])c([H])c3C([H])([H])C([H])([H])C1([H])[H])C2([H])[H]

$$$$
10:0:0
     RDKit          3D

 96105  0  0  1  0  0  0  0  0999 V2000
  -28.6040  -18.9310   20.3910 C   0  0  0  0  0  3  0  0  0  0  0  0
  -30.8550  -19.7440   20.1580 C   0  0  0  0  0  3  0  0  0  0  0  0
  -28.1560  -20.2840   20.5190 C   0  0  0  0  0  3  0  0  0  0  0  0
  -30.4060  -21.0940   20.2530 C   0  0  0  0  0  3  0  0  0  0  0  0
  -29.9760  -18.6190   20.2080 C   0  0  0  0  0  0  0  0  0  0  0  0
  -29.0390  -21.4040   20.4430 C   0  0  0  0  0  0  0  0  0  0  0  0
  -30.7360  -14.6860   20.2680 C   0  0  0  0  0  0  0  0  0  0  0  0
  -30.3920  -12.4240   19.3370 C   0  0  0  0  0  2  0  0  0  0  0  0
  -29.4670  -12.5160   18.1070 C   0  0  0  0  0  2  0  0  0  0  0  0
  -27.9970  -12.3890   18.5450 C   0  0  0  0  0  2  0  0  0  0  0  0
  -27.6450  -13.3150   19.7410 C   0  0  0  0  0  3  0  0  0  0  0  0
  -28.7070  -13.2600   20.8640 C   0  0  0  0  0  2  0  0  0  0  0  0
  -30.0150  -13.5200   20.2560 N   0  0  0  0  0  0  0  0  0  0  0  0
  -31.9160  -14.6820   19.9000 O   0  0  0  0  0  0  0  0  0  0  0  0
  -30.5330  -17.2230   19.9620 C   0  0  0  0  0  0  0  0  0  0  0  0
  -30.0670  -16.0020   20.4340 N   0  0  0  0  0  0  0  0  0  0  0  0
  -31.6060  -17.2350   19.1570 N   0  0  0  0  0  4  0  0  0  0  0  0
  -29.1490  -16.0720   20.8390 H   0  0  0  0  0  0  0  0  0  0  0  0
  -31.9220  -18.0910   18.7310 H   0  0  0  0  0  0  0  0  0  0  0  0
  -32.1360  -16.3760   19.0500 H   0  0  0  0  0  0  0  0  0  0  0  0
  -25.2780  -13.9460   20.5090 C   0  0  0  0  0  0  0  0  0  0  0  0
  -24.2040  -13.1890   20.8870 C   0  0  0  0  0  0  0  0  0  0  0  0
  -24.6390  -11.8290   20.8360 C   0  0  0  0  0  0  0  0  0  0  0  0
  -26.3020  -13.0500   20.2480 N   0  0  0  0  0  0  0  0  0  0  0  0
  -25.9240  -11.7690   20.5060 N   0  0  0  0  0  0  0  0  0  0  0  0
  -23.8890  -10.5800   21.0220 C   0  0  0  0  0  0  0  0  0  0  0  0
  -24.3200   -9.5870   21.9300 C   0  0  0  0  0  3  0  0  0  0  0  0
  -23.5720   -8.4030   22.1040 C   0  0  0  0  0  3  0  0  0  0  0  0
  -22.3780   -8.2030   21.3720 C   0  0  0  0  0  0  0  0  0  0  0  0
  -21.9650   -9.1830   20.4520 C   0  0  0  0  0  3  0  0  0  0  0  0
  -22.7130  -10.3580   20.2750 C   0  0  0  0  0  3  0  0  0  0  0  0
  -21.6000   -7.0720   21.4590 O   0  0  0  0  0  0  0  0  0  0  0  0
  -21.5700   -6.3050   22.5950 C   0  0  0  0  0  0  0  0  0  0  0  0
  -21.1850   -6.8380   23.8440 C   0  0  0  0  0  3  0  0  0  0  0  0
  -21.1000   -5.9970   24.9730 C   0  0  0  0  0  3  0  0  0  0  0  0
  -21.3900   -4.6250   24.8520 C   0  0  0  0  0  0  0  0  0  0  0  0
  -21.7680   -4.0920   23.6080 C   0  0  0  0  0  3  0  0  0  0  0  0
  -21.8540   -4.9290   22.4820 C   0  0  0  0  0  0  0  0  0  0  0  0
  -22.1980   -4.4070   21.2800 F   0  0  0  0  0  0  0  0  0  0  0  0
  -21.3020   -3.8160   25.9340 F   0  0  0  0  0  0  0  0  0  0  0  0
  -22.8200  -13.6910   21.1820 C   0  0  0  0  0  0  0  0  0  0  0  0
  -22.0920  -13.0080   22.0570 N   0  0  0  0  0  0  0  0  0  0  0  0
  -22.3950  -14.7260   20.6700 O   0  0  0  0  0  0  0  0  0  0  0  0
  -22.4490  -12.1700   22.4940 H   0  0  0  0  0  0  0  0  0  0  0  0
  -21.1640  -13.3260   22.2950 H   0  0  0  0  0  0  0  0  0  0  0  0
  -25.4660  -15.3140   20.3390 N   0  0  0  0  0  0  0  0  0  0  0  0
  -24.6990  -15.9700   20.4380 H   0  0  0  0  0  0  0  0  0  0  0  0
  -26.2860  -15.7290   19.9190 H   0  0  0  0  0  0  0  0  0  0  0  0
  -28.7060  -23.8860   19.9090 C   0  0  0  0  0  0  0  0  0  0  0  0
  -28.2920  -24.2080   22.7550 C   0  0  0  0  0  2  0  0  0  0  0  0
  -28.3850  -25.4750   21.8760 C   0  0  0  0  0  2  0  0  0  0  0  0
  -27.8390  -22.9480   21.9810 C   0  0  0  0  0  2  0  0  0  0  0  0
  -28.0020  -25.2150   20.4090 C   0  0  0  0  0  3  0  0  0  0  0  0
  -28.5710  -22.7670   20.7140 N   0  0  0  0  0  0  0  0  0  0  0  0
  -29.3210  -23.8770   18.8390 O   0  0  0  0  0  0  0  0  0  0  0  0
  -28.1990  -26.4630   19.6280 O   0  0  0  0  0  0  0  0  0  0  0  0
  -24.5100  -31.6560   23.0030 C   0  0  0  0  0  0  0  0  0  0  0  0
  -27.0970  -27.3260   19.6430 C   0  0  0  0  0  0  0  0  0  0  0  0
  -23.2760  -30.3140   21.3380 C   0  0  0  0  0  3  0  0  0  0  0  0
  -24.7070  -28.8730   19.7840 C   0  0  0  0  0  0  0  0  0  0  0  0
  -25.7990  -30.7000   21.0840 C   0  0  0  0  0  2  0  0  0  0  0  0
  -25.8840  -29.3590   20.3680 C   0  0  0  0  0  0  0  0  0  0  0  0
  -27.0870  -28.5970   20.2930 C   0  0  0  0  0  3  0  0  0  0  0  0
  -25.9070  -26.9030   19.0150 C   0  0  0  0  0  3  0  0  0  0  0  0
  -24.7180  -27.6500   19.0990 C   0  0  0  0  0  3  0  0  0  0  0  0
  -23.4540  -29.7120   19.9200 C   0  0  0  0  0  2  0  0  0  0  0  0
  -24.5490  -30.9040   21.8650 N   0  0  0  0  0  0  0  0  0  0  0  0
  -23.4410  -31.8840   23.5880 O   0  0  0  0  0  0  0  0  0  0  0  0
  -22.6700  -29.2350   22.2690 C   0  0  0  0  0  0  0  0  0  0  0  0
  -21.3460  -29.0280   22.1720 N   0  0  0  0  0  0  0  0  0  0  0  0
  -23.3900  -28.5910   23.0360 O   0  0  0  0  0  0  0  0  0  0  0  0
  -20.8230  -29.6030   21.5270 H   0  0  0  0  0  0  0  0  0  0  0  0
  -18.0200  -27.7090   22.6970 C   0  0  0  0  0  0  0  0  0  0  0  0
  -20.5750  -28.0370   22.9230 C   0  0  0  0  0  3  0  0  0  0  0  0
  -20.7060  -26.6310   22.2910 C   0  0  0  0  0  2  0  0  0  0  0  0
  -19.5920  -26.3140   21.2880 C   0  0  0  0  0  2  0  0  0  0  0  0
  -18.2210  -26.3930   21.9660 C   0  0  0  0  0  2  0  0  0  0  0  0
  -19.1240  -28.4890   23.1320 C   0  0  0  0  0  0  0  0  0  0  0  0
  -18.8810  -29.7220   23.7760 C   0  0  0  0  0  3  0  0  0  0  0  0
  -17.5650  -30.1760   23.9880 C   0  0  0  0  0  3  0  0  0  0  0  0
  -16.4760  -29.3940   23.5680 C   0  0  0  0  0  3  0  0  0  0  0  0
  -16.7040  -28.1620   22.9290 C   0  0  0  0  0  3  0  0  0  0  0  0
  -25.8010  -32.2830   23.6110 C   0  0  0  0  0  3  0  0  0  0  0  0
  -25.4700  -33.6500   24.0410 N   0  0  0  0  0  0  0  0  0  0  0  0
  -25.7490  -34.7560   23.3390 C   0  0  0  0  0  0  0  0  0  0  0  0
  -26.3780  -34.7370   22.2790 O   0  0  0  0  0  0  0  0  0  0  0  0
  -24.9030  -33.7370   24.8720 H   0  0  0  0  0  0  0  0  0  0  0  0
  -23.9620  -36.5200   23.1680 C   0  0  0  0  0  1  0  0  0  0  0  0
  -25.2460  -36.1000   23.9030 C   0  0  0  0  0  3  0  0  0  0  0  0
  -27.3890  -36.9920   24.7050 C   0  0  0  0  0  1  0  0  0  0  0  0
  -26.2470  -37.1860   23.8150 N   0  0  0  0  0  0  0  0  0  0  0  0
  -25.8230  -38.0840   24.0330 H   0  0  0  0  0  0  0  0  0  0  0  0
  -26.3930  -31.4490   24.8120 C   0  0  1  0  0  0  0  0  0  0  0  0
  -25.3550  -31.1230   25.9110 C   0  0  0  0  0  1  0  0  0  0  0  0
  -26.9840  -30.1110   24.3090 C   0  0  0  0  0  1  0  0  0  0  0  0
  -27.5560  -32.2280   25.4690 C   0  0  0  0  0  1  0  0  0  0  0  0
  1  3  1  0
  2  5  1  0
  2  4  2  0
  4  6  1  0
  5  1  2  0
  6  3  2  0
  6 54  1  0
  7 16  1  0
  8 13  1  0
  9 10  1  0
  9  8  1  0
 11 10  1  0
 11 24  1  0
 11 12  1  0
 13  7  1  0
 13 12  1  0
 14  7  2  0
 15  5  1  0
 15 16  1  0
 16 18  1  0
 17 15  2  0
 19 17  1  0
 20 17  1  0
 21 22  2  0
 22 41  1  0
 23 22  1  0
 23 26  1  0
 24 25  1  0
 24 21  1  0
 25 23  2  0
 26 27  1  0
 27 28  2  0
 29 32  1  0
 29 28  1  0
 30 29  2  0
 31 30  1  0
 31 26  2  0
 32 33  1  0
 33 34  1  0
 34 35  2  0
 36 35  1  0
 36 40  1  0
 37 36  2  0
 38 33  2  0
 38 37  1  0
 39 38  1  0
 41 42  1  0
 42 45  1  0
 42 44  1  0
 43 41  2  0
 46 47  1  0
 46 21  1  0
 48 46  1  0
 49 53  1  0
 49 54  1  0
 51 50  1  0
 52 50  1  0
 53 56  1  0
 53 51  1  0
 54 52  1  0
 55 49  2  0
 56 58  1  0
 57 68  2  0
 58 63  1  0
 59 67  1  0
 59 69  1  0
 60 66  1  0
 60 62  1  0
 61 67  1  0
 62 61  1  0
 63 62  2  0
 64 65  1  0
 64 58  2  0
 65 60  2  0
 66 59  1  0
 67 57  1  0
 69 71  2  0
 70 69  1  0
 72 70  1  0
 73 82  2  0
 73 78  1  0
 74 70  1  0
 74 78  1  0
 75 74  1  0
 76 77  1  0
 76 75  1  0
 77 73  1  0
 78 79  2  0
 79 80  1  0
 81 80  2  0
 82 81  1  0
 83 57  1  0
 83 84  1  0
 83 93  1  0
 84 87  1  0
 85 89  1  0
 85 84  1  0
 86 85  2  0
 89 88  1  0
 91 89  1  0
 91 92  1  0
 91 90  1  0
 93 96  1  1
 93 94  1  0
 95 93  1  0
M  ISO  4   7 100  16 100  53 101  56 101
M  END
>  <TORSDO>  (11) 
F 17

>  <SCORE>  (11) 
-14.389

>  <name>  (11) 
10

>  <ligand_id>  (11) 
10

>  <original_smiles>  (11) 
[H]c1c([H])c([H])c2c(c1[H])C([H])([H])C([H])([H])C([H])([H])C2([H])N([H])C(=O)C1([H])N(C(=O)C([H])(N([H])C(=O)C([H])(N([H])C([H])([H])[H])C([H])([H])[H])C(C([H])([H])[H])(C([H])([H])[H])C([H])([H])[H])C([H])([H])c2c([H])c(OC3([H])C(=O)N(c4c([H])c([H])c(C(N([H])C(=O)N5C([H])([H])C([H])([H])C([H])([H])C([H])(n6nc(-c7c([H])c([H])c(Oc8c([H])c([H])c(F)c([H])c8F)c([H])c7[H])c(C(=O)N([H])[H])c6N([H])[H])C5([H])[H])=[N+]([H])[H])c([H])c4[H])C([H])([H])C([H])([H])C3([H])[H])c([H])c([H])c2C1([H])[H]

>  <smiles>  (11) 
[H]c1c([H])c([H])c2c(c1[H])C([H])([H])C([H])([H])C([H])([H])C2([H])N([H])C(=O)C1([H])N(C(=O)C([H])(N([H])C(=O)C([H])(N([H])C([H])([H])[H])C([H])([H])[H])C(C([H])([H])[H])(C([H])([H])[H])C([H])([H])[H])C([H])([H])c2c([H])c(OC3([H])C(=O)N(c4c([H])c([H])c(C(N([H])C(=O)N5C([H])([H])C([H])([H])C([H])([H])C([H])(n6nc(-c7c([H])c([H])c(Oc8c([H])c([H])c(F)c([H])c8F)c([H])c7[H])c(C(=O)N([H])[H])c6N([H])[H])C5([H])[H])=[N+]([H])[H])c([H])c4[H])C([H])([H])C([H])([H])C3([H])[H])c([H])c([H])c2C1([H])[H]

$$$$
11:0:0
     RDKit          3D

 94103  0  0  1  0  0  0  0  0999 V2000
  -28.8610  -22.5070   20.4270 C   0  0  0  0  0  3  0  0  0  0  0  0
  -29.0530  -23.8140   20.0710 C   0  0  0  0  0  0  0  0  0  0  0  0
  -30.2080  -23.7780   19.2020 C   0  0  0  0  0  0  0  0  0  0  0  0
  -30.7740  -24.8330   18.5950 C   0  0  0  0  0  1  0  0  0  0  0  0
  -30.7040  -22.3430   19.0670 C   0  0  0  0  0  3  0  0  0  0  0  0
  -29.7740  -21.5640   19.8910 N   0  0  0  0  0  0  0  0  0  0  0  0
  -28.9220  -19.3380   20.6940 C   0  0  0  0  0  3  0  0  0  0  0  0
  -31.0830  -17.9330   19.6240 C   0  0  0  0  0  3  0  0  0  0  0  0
  -29.0060  -17.9140   20.8270 C   0  0  0  0  0  0  0  0  0  0  0  0
  -29.9000  -20.1200   20.0220 C   0  0  0  0  0  0  0  0  0  0  0  0
  -30.0880  -17.1600   20.2800 C   0  0  0  0  0  0  0  0  0  0  0  0
  -30.9970  -19.3550   19.4980 C   0  0  0  0  0  0  0  0  0  0  0  0
  -27.8980  -17.1970   21.5780 C   0  0  0  0  0  1  0  0  0  0  0  0
  -32.0100  -19.9720   18.8400 F   0  0  0  0  0  0  0  0  0  0  0  0
  -30.8130  -14.6820   19.8030 C   0  0  0  0  0  0  0  0  0  0  0  0
  -30.5200  -12.4870   18.6590 C   0  0  0  0  0  2  0  0  0  0  0  0
  -29.4540  -12.6570   17.5530 C   0  0  0  0  0  2  0  0  0  0  0  0
  -28.0340  -12.4600   18.1220 C   0  0  0  0  0  2  0  0  0  0  0  0
  -27.8000  -13.2590   19.4320 C   0  0  0  0  0  3  0  0  0  0  0  0
  -28.9670  -13.0600   20.4250 C   0  0  0  0  0  2  0  0  0  0  0  0
  -30.2100  -13.4500   19.7370 N   0  0  0  0  0  0  0  0  0  0  0  0
  -31.9100  -14.8810   19.2700 O   0  0  0  0  0  0  0  0  0  0  0  0
  -30.0750  -15.6880   20.3780 N   0  0  0  0  0  0  0  0  0  0  0  0
  -29.2790  -15.3240   20.8770 H   0  0  0  0  0  0  0  0  0  0  0  0
  -25.4830  -13.8000   20.4030 C   0  0  0  0  0  0  0  0  0  0  0  0
  -24.4660  -13.0010   20.8530 C   0  0  0  0  0  0  0  0  0  0  0  0
  -24.9330  -11.6580   20.7200 C   0  0  0  0  0  0  0  0  0  0  0  0
  -26.5070  -12.9420   20.0340 N   0  0  0  0  0  0  0  0  0  0  0  0
  -26.1850  -11.6470   20.2810 N   0  0  0  0  0  0  0  0  0  0  0  0
  -24.2370  -10.3820   20.9300 C   0  0  0  0  0  0  0  0  0  0  0  0
  -24.7110   -9.4250   21.8550 C   0  0  0  0  0  3  0  0  0  0  0  0
  -24.0150   -8.2140   22.0510 C   0  0  0  0  0  3  0  0  0  0  0  0
  -22.8300   -7.9500   21.3250 C   0  0  0  0  0  0  0  0  0  0  0  0
  -22.3750   -8.8960   20.3890 C   0  0  0  0  0  3  0  0  0  0  0  0
  -23.0720  -10.0980   20.1890 C   0  0  0  0  0  3  0  0  0  0  0  0
  -22.1010   -6.7900   21.4330 O   0  0  0  0  0  0  0  0  0  0  0  0
  -22.0260   -6.0950   22.6130 C   0  0  0  0  0  0  0  0  0  0  0  0
  -21.5330   -6.6870   23.7970 C   0  0  0  0  0  3  0  0  0  0  0  0
  -21.4080   -5.9160   24.9700 C   0  0  0  0  0  3  0  0  0  0  0  0
  -21.7650   -4.5540   24.9590 C   0  0  0  0  0  0  0  0  0  0  0  0
  -22.2520   -3.9620   23.7800 C   0  0  0  0  0  3  0  0  0  0  0  0
  -22.3790   -4.7310   22.6100 C   0  0  0  0  0  0  0  0  0  0  0  0
  -22.8260   -4.1490   21.4710 F   0  0  0  0  0  0  0  0  0  0  0  0
  -21.6380   -3.8110   26.0830 F   0  0  0  0  0  0  0  0  0  0  0  0
  -23.1010  -13.4530   21.2840 C   0  0  0  0  0  0  0  0  0  0  0  0
  -22.4800  -12.7320   22.2110 N   0  0  0  0  0  0  0  0  0  0  0  0
  -22.5960  -14.4800   20.8340 O   0  0  0  0  0  0  0  0  0  0  0  0
  -22.9040  -11.9000   22.5960 H   0  0  0  0  0  0  0  0  0  0  0  0
  -21.5700  -13.0160   22.5420 H   0  0  0  0  0  0  0  0  0  0  0  0
  -25.6110  -15.1760   20.2520 N   0  0  0  0  0  0  0  0  0  0  0  0
  -24.8330  -15.8030   20.4280 H   0  0  0  0  0  0  0  0  0  0  0  0
  -26.3840  -15.6270   19.7800 H   0  0  0  0  0  0  0  0  0  0  0  0
  -28.1880  -25.0520   20.5350 C   0  0  0  0  0  2  0  0  0  0  0  0
  -28.4640  -26.4330   20.0520 O   0  0  0  0  0  0  0  0  0  0  0  0
  -24.7580  -31.8070   23.1630 C   0  0  0  0  0  0  0  0  0  0  0  0
  -27.3680  -27.3090   20.0280 C   0  0  0  0  0  0  0  0  0  0  0  0
  -23.5580  -30.4530   21.4820 C   0  0  0  0  0  3  0  0  0  0  0  0
  -25.0120  -28.9290   20.0300 C   0  0  0  0  0  0  0  0  0  0  0  0
  -26.0990  -30.7650   21.3220 C   0  0  0  0  0  2  0  0  0  0  0  0
  -26.1790  -29.4010   20.6460 C   0  0  0  0  0  0  0  0  0  0  0  0
  -27.3630  -28.6030   20.6340 C   0  0  0  0  0  3  0  0  0  0  0  0
  -26.1850  -26.8980   19.3760 C   0  0  0  0  0  3  0  0  0  0  0  0
  -25.0170  -27.6830   19.3840 C   0  0  0  0  0  3  0  0  0  0  0  0
  -23.7780  -29.8080   20.0880 C   0  0  0  0  0  2  0  0  0  0  0  0
  -24.8230  -31.0240   22.0460 N   0  0  0  0  0  0  0  0  0  0  0  0
  -23.6730  -32.0770   23.6970 O   0  0  0  0  0  0  0  0  0  0  0  0
  -22.8840  -29.4180   22.4140 C   0  0  0  0  0  0  0  0  0  0  0  0
  -21.5540  -29.2660   22.2890 N   0  0  0  0  0  0  0  0  0  0  0  0
  -23.5560  -28.7560   23.2090 O   0  0  0  0  0  0  0  0  0  0  0  0
  -21.0720  -29.8530   21.6220 H   0  0  0  0  0  0  0  0  0  0  0  0
  -18.1570  -28.1220   22.7770 C   0  0  0  0  0  0  0  0  0  0  0  0
  -20.7230  -28.3200   23.0350 C   0  0  0  0  0  3  0  0  0  0  0  0
  -20.7910  -26.9080   22.4110 C   0  0  0  0  0  2  0  0  0  0  0  0
  -19.6750  -26.6410   21.3960 C   0  0  0  0  0  2  0  0  0  0  0  0
  -18.3020  -26.7920   22.0560 C   0  0  0  0  0  2  0  0  0  0  0  0
  -19.2950  -28.8460   23.2230 C   0  0  0  0  0  0  0  0  0  0  0  0
  -19.1060  -30.0930   23.8590 C   0  0  0  0  0  3  0  0  0  0  0  0
  -17.8130  -30.6140   24.0530 C   0  0  0  0  0  3  0  0  0  0  0  0
  -16.6900  -29.8850   23.6230 C   0  0  0  0  0  3  0  0  0  0  0  0
  -16.8630  -28.6410   22.9910 C   0  0  0  0  0  3  0  0  0  0  0  0
  -26.0400  -32.4170   23.8090 C   0  0  0  0  0  3  0  0  0  0  0  0
  -25.7190  -33.7910   24.2200 N   0  0  0  0  0  0  0  0  0  0  0  0
  -26.0350  -34.8900   23.5210 C   0  0  0  0  0  0  0  0  0  0  0  0
  -26.6980  -34.8530   22.4810 O   0  0  0  0  0  0  0  0  0  0  0  0
  -25.1300  -33.8920   25.0330 H   0  0  0  0  0  0  0  0  0  0  0  0
  -24.2910  -36.6860   23.2780 C   0  0  0  0  0  1  0  0  0  0  0  0
  -25.5380  -36.2450   24.0620 C   0  0  0  0  0  3  0  0  0  0  0  0
  -27.6670  -37.0980   24.9380 C   0  0  0  0  0  1  0  0  0  0  0  0
  -26.5610  -37.3110   24.0070 N   0  0  0  0  0  0  0  0  0  0  0  0
  -26.1480  -38.2180   24.2080 H   0  0  0  0  0  0  0  0  0  0  0  0
  -26.5760  -31.5810   25.0340 C   0  0  1  0  0  0  0  0  0  0  0  0
  -25.4940  -31.2640   26.0930 C   0  0  0  0  0  1  0  0  0  0  0  0
  -27.1780  -30.2370   24.5600 C   0  0  0  0  0  1  0  0  0  0  0  0
  -27.7190  -32.3530   25.7340 C   0  0  0  0  0  1  0  0  0  0  0  0
  2  1  2  0
  2 53  1  0
  3  2  1  0
  4  3  1  0
  5  3  2  0
  5  6  1  0
  6 10  1  0
  6  1  1  0
  7  9  1  0
  8 11  1  0
  9 13  1  0
 10  7  2  0
 11 23  1  0
 11  9  2  0
 12  8  2  0
 12 10  1  0
 14 12  1  0
 15 23  1  0
 16 21  1  0
 17 18  1  0
 17 16  1  0
 19 18  1  0
 19 28  1  0
 19 20  1  0
 21 15  1  0
 21 20  1  0
 22 15  2  0
 23 24  1  0
 25 26  2  0
 26 45  1  0
 27 26  1  0
 27 30  1  0
 28 29  1  0
 28 25  1  0
 29 27  2  0
 30 31  1  0
 31 32  2  0
 33 36  1  0
 33 32  1  0
 34 33  2  0
 35 34  1  0
 35 30  2  0
 36 37  1  0
 37 38  1  0
 38 39  2  0
 40 39  1  0
 40 44  1  0
 41 40  2  0
 42 37  2  0
 42 41  1  0
 43 42  1  0
 45 46  1  0
 46 49  1  0
 46 48  1  0
 47 45  2  0
 50 25  1  0
 50 51  1  0
 52 50  1  0
 54 53  1  0
 55 66  2  0
 56 54  1  0
 56 61  1  0
 57 65  1  0
 57 67  1  0
 58 64  1  0
 58 60  1  0
 59 65  1  0
 60 59  1  0
 61 60  2  0
 62 63  1  0
 62 56  2  0
 63 58  2  0
 64 57  1  0
 65 55  1  0
 67 69  2  0
 68 67  1  0
 70 68  1  0
 71 80  2  0
 71 76  1  0
 72 68  1  0
 72 76  1  0
 73 72  1  0
 74 75  1  0
 74 73  1  0
 75 71  1  0
 76 77  2  0
 77 78  1  0
 79 78  2  0
 80 79  1  0
 81 55  1  0
 81 82  1  0
 81 91  1  0
 82 85  1  0
 83 87  1  0
 83 82  1  0
 84 83  2  0
 87 86  1  0
 89 87  1  0
 89 90  1  0
 89 88  1  0
 91 94  1  1
 91 92  1  0
 93 91  1  0
M  ISO  4  15 100  23 100  53 101  54 101
M  END
>  <TORSDO>  (12) 
F 18

>  <SCORE>  (12) 
-11.593

>  <name>  (12) 
11

>  <ligand_id>  (12) 
11

>  <original_smiles>  (12) 
[H]C([H])=C1C(C([H])([H])Oc2c([H])c([H])c3c(c2[H])C([H])([H])N(C(=O)C([H])(N([H])C(=O)C([H])(N([H])C([H])([H])[H])C([H])([H])[H])C(C([H])([H])[H])(C([H])([H])[H])C([H])([H])[H])C([H])(C(=O)N([H])C2([H])c4c([H])c([H])c([H])c([H])c4C([H])([H])C([H])([H])C2([H])[H])C3([H])[H])=C([H])N(c2c([H])c(C([H])([H])[H])c(N([H])C(=O)N3C([H])([H])C([H])([H])C([H])([H])C([H])(n4nc(-c5c([H])c([H])c(Oc6c([H])c([H])c(F)c([H])c6F)c([H])c5[H])c(C(=O)N([H])[H])c4N([H])[H])C3([H])[H])c([H])c2F)C1([H])[H]

>  <smiles>  (12) 
[H]C([H])=C1C(C([H])([H])Oc2c([H])c([H])c3c(c2[H])C([H])([H])N(C(=O)C([H])(N([H])C(=O)C([H])(N([H])C([H])([H])[H])C([H])([H])[H])C(C([H])([H])[H])(C([H])([H])[H])C([H])([H])[H])C([H])(C(=O)N([H])C2([H])c4c([H])c([H])c([H])c([H])c4C([H])([H])C([H])([H])C2([H])[H])C3([H])[H])=C([H])N(c2c([H])c(C([H])([H])[H])c(N([H])C(=O)N3C([H])([H])C([H])([H])C([H])([H])C([H])(n4nc(-c5c([H])c([H])c(Oc6c([H])c([H])c(F)c([H])c6F)c([H])c5[H])c(C(=O)N([H])[H])c4N([H])[H])C3([H])[H])c([H])c2F)C1([H])[H]

$$$$
12:0:0
     RDKit          3D

 98106  0  0  1  0  0  0  0  0999 V2000
  -30.2820  -20.8660   22.2140 C   0  0  0  0  0  0  0  0  0  0  0  0
  -30.2010  -23.2750   21.5120 C   0  0  0  0  0  0  0  0  0  0  0  0
  -30.4430  -21.8630   21.3100 N   0  0  0  0  0  0  0  0  0  0  0  0
  -29.9120  -21.1130   23.4770 N   0  0  0  0  0  4  0  0  0  0  0  0
  -29.7720  -23.7210   22.5870 O   0  0  0  0  0  0  0  0  0  0  0  0
  -30.7490  -21.5060   20.4180 H   0  0  0  0  0  0  0  0  0  0  0  0
  -29.8610  -20.3640   24.1480 H   0  0  0  0  0  0  0  0  0  0  0  0
  -29.7090  -22.0660   23.7560 H   0  0  0  0  0  0  0  0  0  0  0  0
  -31.6560  -18.9770   21.2230 C   0  0  0  0  0  3  0  0  0  0  0  0
  -29.4620  -18.5230   22.1770 C   0  0  0  0  0  3  0  0  0  0  0  0
  -31.8230  -17.5950   20.9540 C   0  0  0  0  0  3  0  0  0  0  0  0
  -29.6310  -17.1510   21.9170 C   0  0  0  0  0  3  0  0  0  0  0  0
  -30.4750  -19.4500   21.8480 C   0  0  0  0  0  0  0  0  0  0  0  0
  -30.8100  -16.6710   21.3090 C   0  0  0  0  0  0  0  0  0  0  0  0
  -31.3120  -14.5640   20.0710 C   0  0  0  0  0  0  0  0  0  0  0  0
  -30.8890  -12.4980   18.7740 C   0  0  0  0  0  2  0  0  0  0  0  0
  -29.8580  -12.7530   17.6560 C   0  0  0  0  0  2  0  0  0  0  0  0
  -28.4150  -12.6230   18.1840 C   0  0  0  0  0  2  0  0  0  0  0  0
  -28.1870  -13.4160   19.4980 C   0  0  0  0  0  3  0  0  0  0  0  0
  -29.3050  -13.1040   20.5140 C   0  0  0  0  0  2  0  0  0  0  0  0
  -30.6090  -13.4140   19.8880 N   0  0  0  0  0  0  0  0  0  0  0  0
  -32.2750  -14.8920   19.3720 O   0  0  0  0  0  0  0  0  0  0  0  0
  -30.9030  -15.2650   21.1390 N   0  0  0  0  0  0  0  0  0  0  0  0
  -30.2480  -14.7400   21.6950 H   0  0  0  0  0  0  0  0  0  0  0  0
  -25.8640  -14.0480   20.4220 C   0  0  0  0  0  0  0  0  0  0  0  0
  -24.8050  -13.2840   20.8330 C   0  0  0  0  0  0  0  0  0  0  0  0
  -25.2190  -11.9250   20.6870 C   0  0  0  0  0  0  0  0  0  0  0  0
  -26.8610  -13.1550   20.0590 N   0  0  0  0  0  0  0  0  0  0  0  0
  -26.4780  -11.8700   20.2710 N   0  0  0  0  0  0  0  0  0  0  0  0
  -24.4710  -10.6750   20.8670 C   0  0  0  0  0  0  0  0  0  0  0  0
  -24.8850   -9.6950   21.7960 C   0  0  0  0  0  3  0  0  0  0  0  0
  -24.1430   -8.5050   21.9610 C   0  0  0  0  0  3  0  0  0  0  0  0
  -22.9730   -8.2860   21.1960 C   0  0  0  0  0  0  0  0  0  0  0  0
  -22.5750   -9.2560   20.2580 C   0  0  0  0  0  3  0  0  0  0  0  0
  -23.3180  -10.4370   20.0910 C   0  0  0  0  0  3  0  0  0  0  0  0
  -22.2040   -7.1500   21.2710 O   0  0  0  0  0  0  0  0  0  0  0  0
  -22.0310   -6.4730   22.4520 C   0  0  0  0  0  0  0  0  0  0  0  0
  -21.4980   -7.1010   23.5990 C   0  0  0  0  0  3  0  0  0  0  0  0
  -21.2720   -6.3510   24.7700 C   0  0  0  0  0  3  0  0  0  0  0  0
  -21.5680   -4.9740   24.7940 C   0  0  0  0  0  0  0  0  0  0  0  0
  -22.0940   -4.3460   23.6500 C   0  0  0  0  0  3  0  0  0  0  0  0
  -22.3200   -5.0930   22.4810 C   0  0  0  0  0  0  0  0  0  0  0  0
  -22.8070   -4.4800   21.3750 F   0  0  0  0  0  0  0  0  0  0  0  0
  -21.3450   -4.2510   25.9140 F   0  0  0  0  0  0  0  0  0  0  0  0
  -23.4500  -13.7820   21.2460 C   0  0  0  0  0  0  0  0  0  0  0  0
  -22.7870  -13.0790   22.1590 N   0  0  0  0  0  0  0  0  0  0  0  0
  -22.9870  -14.8280   20.7940 O   0  0  0  0  0  0  0  0  0  0  0  0
  -23.1760  -12.2340   22.5510 H   0  0  0  0  0  0  0  0  0  0  0  0
  -21.8820  -13.3960   22.4750 H   0  0  0  0  0  0  0  0  0  0  0  0
  -26.0580  -15.4220   20.3110 N   0  0  0  0  0  0  0  0  0  0  0  0
  -25.3220  -16.0880   20.5170 H   0  0  0  0  0  0  0  0  0  0  0  0
  -26.8870  -15.8510   19.9190 H   0  0  0  0  0  0  0  0  0  0  0  0
  -30.4710  -24.1810   20.2940 C   0  0  0  0  0  2  0  0  0  0  0  0
  -30.8580  -25.6080   20.6980 C   0  0  0  0  0  0  0  0  0  0  0  0
  -32.0690  -25.9610   20.8580 N   0  0  0  0  0  0  0  0  0  0  0  0
  -32.7200  -25.1980   20.7050 H   0  0  0  0  0  0  0  0  0  0  0  0
  -29.7150  -26.6120   20.8590 C   0  0  0  0  0  2  0  0  0  0  0  0
  -29.0230  -26.8230   19.6280 O   0  0  0  0  0  0  0  0  0  0  0  0
  -24.8220  -31.5340   23.0020 C   0  0  0  0  0  0  0  0  0  0  0  0
  -27.8260  -27.4940   19.7180 C   0  0  0  0  0  0  0  0  0  0  0  0
  -23.7390  -30.1480   21.2600 C   0  0  0  0  0  3  0  0  0  0  0  0
  -25.3210  -28.8010   19.7800 C   0  0  0  0  0  0  0  0  0  0  0  0
  -26.2340  -30.6960   21.1310 C   0  0  0  0  0  2  0  0  0  0  0  0
  -26.4270  -29.3740   20.4220 C   0  0  0  0  0  0  0  0  0  0  0  0
  -27.6820  -28.7260   20.3980 C   0  0  0  0  0  3  0  0  0  0  0  0
  -26.7090  -26.9340   19.0690 C   0  0  0  0  0  3  0  0  0  0  0  0
  -25.4550  -27.5750   19.1050 C   0  0  0  0  0  3  0  0  0  0  0  0
  -24.0160  -29.5640   19.8470 C   0  0  0  0  0  2  0  0  0  0  0  0
  -24.9460  -30.8060   21.8550 N   0  0  0  0  0  0  0  0  0  0  0  0
  -23.7170  -31.6990   23.5370 O   0  0  0  0  0  0  0  0  0  0  0  0
  -23.1520  -29.0300   22.1500 C   0  0  0  0  0  0  0  0  0  0  0  0
  -21.8470  -28.7610   21.9880 N   0  0  0  0  0  0  0  0  0  0  0  0
  -23.8690  -28.4100   22.9410 O   0  0  0  0  0  0  0  0  0  0  0  0
  -21.3280  -29.3220   21.3280 H   0  0  0  0  0  0  0  0  0  0  0  0
  -18.5560  -27.3180   22.3680 C   0  0  0  0  0  0  0  0  0  0  0  0
  -21.0880  -27.7260   22.6910 C   0  0  0  0  0  3  0  0  0  0  0  0
  -21.2900  -26.3420   22.0330 C   0  0  0  0  0  2  0  0  0  0  0  0
  -20.2220  -26.0090   20.9850 C   0  0  0  0  0  2  0  0  0  0  0  0
  -18.8270  -26.0280   21.6150 C   0  0  0  0  0  2  0  0  0  0  0  0
  -19.6180  -28.1240   22.8590 C   0  0  0  0  0  0  0  0  0  0  0  0
  -19.3110  -29.3320   23.5210 C   0  0  0  0  0  3  0  0  0  0  0  0
  -17.9750  -29.7390   23.6950 C   0  0  0  0  0  3  0  0  0  0  0  0
  -16.9260  -28.9290   23.2200 C   0  0  0  0  0  3  0  0  0  0  0  0
  -17.2190  -27.7210   22.5640 C   0  0  0  0  0  3  0  0  0  0  0  0
  -26.0540  -32.2140   23.6760 C   0  0  0  0  0  3  0  0  0  0  0  0
  -26.5960  -31.4240   24.9300 C   0  0  1  0  0  0  0  0  0  0  0  0
  -25.4980  -31.0560   25.9550 C   0  0  0  0  0  1  0  0  0  0  0  0
  -27.2930  -30.1130   24.4930 C   0  0  0  0  0  1  0  0  0  0  0  0
  -27.6680  -32.2690   25.6590 C   0  0  0  0  0  1  0  0  0  0  0  0
  -25.6510  -33.5740   24.0550 N   0  0  0  0  0  0  0  0  0  0  0  0
  -25.9390  -34.6760   23.3510 C   0  0  0  0  0  0  0  0  0  0  0  0
  -26.6430  -34.6610   22.3380 O   0  0  0  0  0  0  0  0  0  0  0  0
  -25.0170  -33.6550   24.8360 H   0  0  0  0  0  0  0  0  0  0  0  0
  -24.1070  -36.3700   23.0290 C   0  0  0  0  0  1  0  0  0  0  0  0
  -25.3550  -36.0110   23.8500 C   0  0  0  0  0  3  0  0  0  0  0  0
  -27.4100  -36.9950   24.7660 C   0  0  0  0  0  1  0  0  0  0  0  0
  -26.3210  -37.1310   23.8020 N   0  0  0  0  0  0  0  0  0  0  0  0
  -25.8560  -38.0170   23.9760 H   0  0  0  0  0  0  0  0  0  0  0  0
  1  4  2  0
  2  5  2  0
  3  2  1  0
  3  1  1  0
  4  8  1  0
  4  7  1  0
  6  3  1  0
  9 13  1  0
 11  9  2  0
 11 14  1  0
 12 10  1  0
 13 10  2  0
 13  1  1  0
 14 12  2  0
 15 23  1  0
 16 21  1  0
 17 18  1  0
 17 16  1  0
 19 18  1  0
 19 28  1  0
 19 20  1  0
 21 15  1  0
 21 20  1  0
 22 15  2  0
 23 14  1  0
 23 24  1  0
 25 26  2  0
 26 45  1  0
 27 26  1  0
 27 30  1  0
 28 29  1  0
 28 25  1  0
 29 27  2  0
 30 31  1  0
 31 32  2  0
 33 36  1  0
 33 32  1  0
 34 33  2  0
 35 34  1  0
 35 30  2  0
 36 37  1  0
 37 42  2  0
 37 38  1  0
 38 39  2  0
 39 40  1  0
 40 44  1  0
 41 40  2  0
 42 41  1  0
 43 42  1  0
 45 46  1  0
 46 49  1  0
 46 48  1  0
 47 45  2  0
 50 25  1  0
 50 51  1  0
 52 50  1  0
 53 54  1  0
 53  2  1  0
 54 55  2  0
 54 57  1  0
 56 55  1  0
 58 60  1  0
 58 57  1  0
 59 70  2  0
 60 65  1  0
 61 69  1  0
 61 71  1  0
 62 68  1  0
 62 64  1  0
 63 69  1  0
 64 63  1  0
 65 64  2  0
 66 67  1  0
 66 60  2  0
 67 62  2  0
 68 61  1  0
 69 59  1  0
 71 73  2  0
 72 71  1  0
 74 72  1  0
 75 84  2  0
 75 80  1  0
 76 72  1  0
 76 80  1  0
 77 76  1  0
 78 79  1  0
 78 77  1  0
 79 75  1  0
 80 81  2  0
 81 82  1  0
 83 82  2  0
 84 83  1  0
 85 59  1  0
 85 90  1  0
 85 86  1  0
 86 89  1  1
 86 87  1  0
 88 86  1  0
 90 93  1  0
 91 95  1  0
 91 90  1  0
 92 91  2  0
 95 94  1  0
 97 95  1  0
 97 98  1  0
 97 96  1  0
M  ISO  4  15 100  23 100  57 101  58 101
M  END
>  <TORSDO>  (13) 
F 20

>  <SCORE>  (13) 
-10.852

>  <name>  (13) 
12

>  <ligand_id>  (13) 
12

>  <original_smiles>  (13) 
[H]N=C(C([H])([H])Oc1c([H])c([H])c2c(c1[H])C([H])([H])N(C(=O)C([H])(N([H])C(=O)C([H])(N([H])C([H])([H])[H])C([H])([H])[H])C(C([H])([H])[H])(C([H])([H])[H])C([H])([H])[H])C([H])(C(=O)N([H])C1([H])c3c([H])c([H])c([H])c([H])c3C([H])([H])C([H])([H])C1([H])[H])C2([H])[H])C([H])([H])C(=O)N([H])C(c1c([H])c([H])c(N([H])C(=O)N2C([H])([H])C([H])([H])C([H])([H])C([H])(n3nc(-c4c([H])c([H])c(Oc5c([H])c([H])c(F)c([H])c5F)c([H])c4[H])c(C(=O)N([H])[H])c3N([H])[H])C2([H])[H])c([H])c1[H])=[N+]([H])[H]

>  <smiles>  (13) 
[H]N=C(C([H])([H])Oc1c([H])c([H])c2c(c1[H])C([H])([H])N(C(=O)C([H])(N([H])C(=O)C([H])(N([H])C([H])([H])[H])C([H])([H])[H])C(C([H])([H])[H])(C([H])([H])[H])C([H])([H])[H])C([H])(C(=O)N([H])C1([H])c3c([H])c([H])c([H])c([H])c3C([H])([H])C([H])([H])C1([H])[H])C2([H])[H])C([H])([H])C(=O)N([H])C(c1c([H])c([H])c(N([H])C(=O)N2C([H])([H])C([H])([H])C([H])([H])C([H])(n3nc(-c4c([H])c([H])c(Oc5c([H])c([H])c(F)c([H])c5F)c([H])c4[H])c(C(=O)N([H])[H])c3N([H])[H])C2([H])[H])c([H])c1[H])=[N+]([H])[H]

$$$$
13:0:0
     RDKit          3D

 95103  0  0  1  0  0  0  0  0999 V2000
  -30.0900  -21.4040   21.3180 C   0  0  0  0  0  0  0  0  0  0  0  0
  -29.6840  -22.2910   20.3770 N   0  0  0  0  0  0  0  0  0  0  0  0
  -30.5040  -21.7730   22.4190 O   0  0  0  0  0  0  0  0  0  0  0  0
  -29.3450  -21.8950   19.5110 H   0  0  0  0  0  0  0  0  0  0  0  0
  -31.1450  -19.0890   21.4790 C   0  0  0  0  0  3  0  0  0  0  0  0
  -31.1120  -17.6760   21.3630 C   0  0  0  0  0  3  0  0  0  0  0  0
  -28.9460  -17.8460   20.2950 C   0  0  0  0  0  3  0  0  0  0  0  0
  -30.0850  -19.9110   21.0100 C   0  0  0  0  0  0  0  0  0  0  0  0
  -29.9920  -17.0270   20.7920 C   0  0  0  0  0  0  0  0  0  0  0  0
  -28.9910  -19.2610   20.3870 C   0  0  0  0  0  0  0  0  0  0  0  0
  -27.9450  -19.9820   19.9100 F   0  0  0  0  0  0  0  0  0  0  0  0
  -30.6400  -14.5890   20.4330 C   0  0  0  0  0  0  0  0  0  0  0  0
  -30.4080  -12.4040   19.2930 C   0  0  0  0  0  2  0  0  0  0  0  0
  -29.4550  -12.5880   18.0920 C   0  0  0  0  0  2  0  0  0  0  0  0
  -27.9820  -12.4310   18.5230 C   0  0  0  0  0  2  0  0  0  0  0  0
  -27.6370  -13.2630   19.7880 C   0  0  0  0  0  3  0  0  0  0  0  0
  -28.6980  -13.0460   20.8910 C   0  0  0  0  0  2  0  0  0  0  0  0
  -30.0160  -13.3810   20.3220 N   0  0  0  0  0  0  0  0  0  0  0  0
  -31.7920  -14.7840   20.0380 O   0  0  0  0  0  0  0  0  0  0  0  0
  -29.8160  -15.5980   20.8110 N   0  0  0  0  0  0  0  0  0  0  0  0
  -28.8740  -15.2840   20.9820 H   0  0  0  0  0  0  0  0  0  0  0  0
  -25.2400  -13.8640   20.5070 C   0  0  0  0  0  0  0  0  0  0  0  0
  -24.1740  -13.0880   20.8730 C   0  0  0  0  0  0  0  0  0  0  0  0
  -24.6370  -11.7370   20.8320 C   0  0  0  0  0  0  0  0  0  0  0  0
  -26.2860  -12.9840   20.2680 N   0  0  0  0  0  0  0  0  0  0  0  0
  -25.9260  -11.7010   20.5220 N   0  0  0  0  0  0  0  0  0  0  0  0
  -23.9120  -10.4730   21.0150 C   0  0  0  0  0  0  0  0  0  0  0  0
  -24.3490   -9.5000   21.9410 C   0  0  0  0  0  3  0  0  0  0  0  0
  -23.6260   -8.3000   22.1120 C   0  0  0  0  0  3  0  0  0  0  0  0
  -22.4530   -8.0650   21.3570 C   0  0  0  0  0  0  0  0  0  0  0  0
  -22.0350   -9.0270   20.4200 C   0  0  0  0  0  3  0  0  0  0  0  0
  -22.7580  -10.2190   20.2480 C   0  0  0  0  0  3  0  0  0  0  0  0
  -21.7020   -6.9170   21.4380 O   0  0  0  0  0  0  0  0  0  0  0  0
  -21.6550   -6.1650   22.5840 C   0  0  0  0  0  0  0  0  0  0  0  0
  -21.2210   -6.7070   23.8130 C   0  0  0  0  0  3  0  0  0  0  0  0
  -21.1240   -5.8810   24.9510 C   0  0  0  0  0  3  0  0  0  0  0  0
  -21.4500   -4.5150   24.8600 C   0  0  0  0  0  0  0  0  0  0  0  0
  -21.8770   -3.9720   23.6350 C   0  0  0  0  0  3  0  0  0  0  0  0
  -21.9780   -4.7960   22.5000 C   0  0  0  0  0  0  0  0  0  0  0  0
  -22.3690   -4.2630   21.3170 F   0  0  0  0  0  0  0  0  0  0  0  0
  -21.3490   -3.7200   25.9510 F   0  0  0  0  0  0  0  0  0  0  0  0
  -22.7760  -13.5620   21.1490 C   0  0  0  0  0  0  0  0  0  0  0  0
  -22.0480  -12.8560   22.0080 N   0  0  0  0  0  0  0  0  0  0  0  0
  -22.3370  -14.5920   20.6400 O   0  0  0  0  0  0  0  0  0  0  0  0
  -22.4170  -12.0220   22.4420 H   0  0  0  0  0  0  0  0  0  0  0  0
  -21.1110  -13.1530   22.2350 H   0  0  0  0  0  0  0  0  0  0  0  0
  -25.4030  -15.2350   20.3350 N   0  0  0  0  0  0  0  0  0  0  0  0
  -24.6310  -15.8840   20.4400 H   0  0  0  0  0  0  0  0  0  0  0  0
  -26.2370  -15.6720   19.9680 H   0  0  0  0  0  0  0  0  0  0  0  0
  -31.0600  -24.3530   20.7440 C   0  0  0  0  0  1  0  0  0  0  0  0
  -29.6520  -23.7820   20.4800 C   0  0  0  0  0  3  0  0  0  0  0  0
  -28.5560  -25.7200   19.1420 C   0  0  0  0  0  3  0  0  0  0  0  0
  -29.0910  -24.4690   19.2170 C   0  0  0  0  0  0  0  0  0  0  0  0
  -29.1670  -23.6340   17.9480 C   0  0  0  0  0  1  0  0  0  0  0  0
  -28.3800  -26.6440   20.1580 O   0  0  0  0  0  0  0  0  0  0  0  0
  -24.5820  -31.9010   23.2260 C   0  0  0  0  0  0  0  0  0  0  0  0
  -27.2270  -27.4240   20.1420 C   0  0  0  0  0  0  0  0  0  0  0  0
  -23.3760  -30.4930   21.5910 C   0  0  0  0  0  3  0  0  0  0  0  0
  -24.8300  -28.9560   20.1670 C   0  0  0  0  0  0  0  0  0  0  0  0
  -25.9070  -30.8460   21.3910 C   0  0  0  0  0  2  0  0  0  0  0  0
  -25.9950  -29.4720   20.7490 C   0  0  0  0  0  0  0  0  0  0  0  0
  -27.1950  -28.7140   20.7350 C   0  0  0  0  0  3  0  0  0  0  0  0
  -26.0290  -26.9260   19.5760 C   0  0  0  0  0  3  0  0  0  0  0  0
  -24.8440  -27.6820   19.5780 C   0  0  0  0  0  3  0  0  0  0  0  0
  -23.5860  -29.8140   20.2130 C   0  0  0  0  0  2  0  0  0  0  0  0
  -24.6400  -31.0950   22.1270 N   0  0  0  0  0  0  0  0  0  0  0  0
  -23.5000  -32.1720   23.7660 O   0  0  0  0  0  0  0  0  0  0  0  0
  -22.7270  -29.4720   22.5540 C   0  0  0  0  0  0  0  0  0  0  0  0
  -21.4020  -29.2900   22.4340 N   0  0  0  0  0  0  0  0  0  0  0  0
  -23.4130  -28.8480   23.3670 O   0  0  0  0  0  0  0  0  0  0  0  0
  -20.9090  -29.8470   21.7490 H   0  0  0  0  0  0  0  0  0  0  0  0
  -18.0280  -28.1010   22.9540 C   0  0  0  0  0  0  0  0  0  0  0  0
  -20.5880  -28.3530   23.2090 C   0  0  0  0  0  3  0  0  0  0  0  0
  -20.6830  -26.9230   22.6280 C   0  0  0  0  0  2  0  0  0  0  0  0
  -19.5730  -26.6040   21.6220 C   0  0  0  0  0  2  0  0  0  0  0  0
  -18.1960  -26.7520   22.2760 C   0  0  0  0  0  2  0  0  0  0  0  0
  -19.1510  -28.8590   23.3780 C   0  0  0  0  0  0  0  0  0  0  0  0
  -18.9390  -30.1230   23.9720 C   0  0  0  0  0  3  0  0  0  0  0  0
  -17.6370  -30.6270   24.1470 C   0  0  0  0  0  3  0  0  0  0  0  0
  -16.5290  -29.8660   23.7400 C   0  0  0  0  0  3  0  0  0  0  0  0
  -16.7240  -28.6040   23.1490 C   0  0  0  0  0  3  0  0  0  0  0  0
  -25.8660  -32.5380   23.8410 C   0  0  0  0  0  3  0  0  0  0  0  0
  -26.3890  -31.7710   25.1170 C   0  0  1  0  0  0  0  0  0  0  0  0
  -25.3010  -31.5310   26.1890 C   0  0  0  0  0  1  0  0  0  0  0  0
  -26.9770  -30.3940   24.7250 C   0  0  0  0  0  1  0  0  0  0  0  0
  -27.5390  -32.5710   25.7730 C   0  0  0  0  0  1  0  0  0  0  0  0
  -25.5540  -33.9360   24.1670 N   0  0  0  0  0  0  0  0  0  0  0  0
  -25.8820  -34.9870   23.4040 C   0  0  0  0  0  0  0  0  0  0  0  0
  -26.5520  -34.8810   22.3720 O   0  0  0  0  0  0  0  0  0  0  0  0
  -24.9610  -34.0920   24.9690 H   0  0  0  0  0  0  0  0  0  0  0  0
  -24.1550  -36.7770   23.0400 C   0  0  0  0  0  1  0  0  0  0  0  0
  -25.3920  -36.3740   23.8570 C   0  0  0  0  0  3  0  0  0  0  0  0
  -27.5200  -37.2630   24.7000 C   0  0  0  0  0  1  0  0  0  0  0  0
  -26.4240  -37.4280   23.7490 N   0  0  0  0  0  0  0  0  0  0  0  0
  -26.0160  -38.3490   23.8910 H   0  0  0  0  0  0  0  0  0  0  0  0
  1  3  2  0
  2 51  1  0
  2  1  1  0
  4  2  1  0
  6  5  1  0
  7 10  2  0
  7  9  1  0
  8  1  1  0
  8  5  2  0
  9 20  1  0
  9  6  2  0
 10  8  1  0
 11 10  1  0
 12 20  1  0
 13 18  1  0
 14 15  1  0
 14 13  1  0
 16 15  1  0
 16 25  1  0
 16 17  1  0
 18 12  1  0
 18 17  1  0
 19 12  2  0
 20 21  1  0
 22 23  2  0
 23 42  1  0
 24 23  1  0
 24 27  1  0
 25 22  1  0
 25 26  1  0
 26 24  2  0
 27 28  1  0
 28 29  2  0
 30 33  1  0
 30 29  1  0
 31 30  2  0
 32 31  1  0
 32 27  2  0
 33 34  1  0
 34 35  1  0
 35 36  2  0
 37 36  1  0
 37 41  1  0
 38 37  2  0
 39 34  2  0
 39 38  1  0
 40 39  1  0
 42 43  1  0
 43 46  1  0
 43 45  1  0
 44 42  2  0
 47 48  1  0
 47 22  1  0
 49 47  1  0
 51 50  1  0
 52 53  2  0
 52 55  1  0
 53 51  1  0
 54 53  1  0
 56 67  2  0
 57 55  1  0
 57 62  1  0
 58 66  1  0
 58 68  1  0
 59 65  1  0
 59 61  1  0
 60 66  1  0
 61 60  1  0
 62 61  2  0
 63 64  1  0
 63 57  2  0
 64 59  2  0
 65 58  1  0
 66 56  1  0
 68 70  2  0
 69 68  1  0
 71 69  1  0
 72 81  2  0
 72 77  1  0
 73 69  1  0
 73 77  1  0
 74 73  1  0
 75 76  1  0
 75 74  1  0
 76 72  1  0
 77 78  2  0
 78 79  1  0
 80 79  2  0
 81 80  1  0
 82 56  1  0
 82 87  1  0
 82 83  1  0
 83 86  1  1
 83 84  1  0
 85 83  1  0
 87 90  1  0
 88 92  1  0
 88 87  1  0
 89 88  2  0
 92 91  1  0
 94 92  1  0
 94 95  1  0
 94 93  1  0
M  ISO  4  12 100  20 100  52 101  55 101
M  END
>  <TORSDO>  (14) 
F 19

>  <SCORE>  (14) 
-14.836

>  <name>  (14) 
13

>  <ligand_id>  (14) 
13

>  <original_smiles>  (14) 
[H]C(Oc1c([H])c([H])c2c(c1[H])C([H])([H])N(C(=O)C([H])(N([H])C(=O)C([H])(N([H])C([H])([H])[H])C([H])([H])[H])C(C([H])([H])[H])(C([H])([H])[H])C([H])([H])[H])C([H])(C(=O)N([H])C1([H])c3c([H])c([H])c([H])c([H])c3C([H])([H])C([H])([H])C1([H])[H])C2([H])[H])=C(C([H])([H])[H])C([H])(N([H])C(=O)c1c([H])c([H])c(N([H])C(=O)N2C([H])([H])C([H])([H])C([H])([H])C([H])(n3nc(-c4c([H])c([H])c(Oc5c([H])c([H])c(F)c([H])c5F)c([H])c4[H])c(C(=O)N([H])[H])c3N([H])[H])C2([H])[H])c([H])c1F)C([H])([H])[H]

>  <smiles>  (14) 
[H]C(Oc1c([H])c([H])c2c(c1[H])C([H])([H])N(C(=O)C([H])(N([H])C(=O)C([H])(N([H])C([H])([H])[H])C([H])([H])[H])C(C([H])([H])[H])(C([H])([H])[H])C([H])([H])[H])C([H])(C(=O)N([H])C1([H])c3c([H])c([H])c([H])c([H])c3C([H])([H])C([H])([H])C1([H])[H])C2([H])[H])=C(C([H])([H])[H])C([H])(N([H])C(=O)c1c([H])c([H])c(N([H])C(=O)N2C([H])([H])C([H])([H])C([H])([H])C([H])(n3nc(-c4c([H])c([H])c(Oc5c([H])c([H])c(F)c([H])c5F)c([H])c4[H])c(C(=O)N([H])[H])c3N([H])[H])C2([H])[H])c([H])c1F)C([H])([H])[H]

$$$$
14:0:0
     RDKit          3D

101109  0  0  1  0  0  0  0  0999 V2000
  -29.0480  -20.4760   20.0140 C   0  0  0  0  0  0  0  0  0  0  0  0
  -29.2420  -21.7800   20.3180 N   0  0  0  0  0  0  0  0  0  0  0  0
  -28.1960  -20.1400   19.1860 O   0  0  0  0  0  0  0  0  0  0  0  0
  -29.9600  -21.9740   21.0110 H   0  0  0  0  0  0  0  0  0  0  0  0
  -31.2140  -17.2790   22.1270 C   0  0  0  0  0  3  0  0  0  0  0  0
  -31.2900  -18.5950   22.5960 C   0  0  0  0  0  3  0  0  0  0  0  0
  -29.7990  -18.0510   20.2990 C   0  0  0  0  0  3  0  0  0  0  0  0
  -29.8490  -19.4000   20.7570 C   0  0  0  0  0  0  0  0  0  0  0  0
  -30.4660  -16.9970   20.9710 C   0  0  0  0  0  0  0  0  0  0  0  0
  -30.5740  -19.6370   21.9670 C   0  0  0  0  0  0  0  0  0  0  0  0
  -31.0450  -14.6660   20.2520 C   0  0  0  0  0  0  0  0  0  0  0  0
  -30.8090  -12.4320   19.2030 C   0  0  0  0  0  2  0  0  0  0  0  0
  -29.8520  -12.5960   17.9990 C   0  0  0  0  0  2  0  0  0  0  0  0
  -28.3810  -12.4650   18.4530 C   0  0  0  0  0  2  0  0  0  0  0  0
  -28.0610  -13.3670   19.6760 C   0  0  0  0  0  3  0  0  0  0  0  0
  -29.1170  -13.1660   20.7830 C   0  0  0  0  0  2  0  0  0  0  0  0
  -30.4350  -13.4530   20.1930 N   0  0  0  0  0  0  0  0  0  0  0  0
  -32.1790  -14.8790   19.8060 O   0  0  0  0  0  0  0  0  0  0  0  0
  -30.2030  -15.6490   20.6320 N   0  0  0  0  0  0  0  0  0  0  0  0
  -29.2540  -15.3420   20.8040 H   0  0  0  0  0  0  0  0  0  0  0  0
  -25.7070  -14.0620   20.4430 C   0  0  0  0  0  0  0  0  0  0  0  0
  -24.6170  -13.3230   20.8290 C   0  0  0  0  0  0  0  0  0  0  0  0
  -25.0260  -11.9570   20.7630 C   0  0  0  0  0  0  0  0  0  0  0  0
  -26.7080  -13.1430   20.1750 N   0  0  0  0  0  0  0  0  0  0  0  0
  -26.3050  -11.8700   20.4220 N   0  0  0  0  0  0  0  0  0  0  0  0
  -24.2590  -10.7190   20.9490 C   0  0  0  0  0  0  0  0  0  0  0  0
  -24.6490   -9.7400   21.8900 C   0  0  0  0  0  3  0  0  0  0  0  0
  -23.8800   -8.5680   22.0620 C   0  0  0  0  0  3  0  0  0  0  0  0
  -22.7070   -8.3690   21.2960 C   0  0  0  0  0  0  0  0  0  0  0  0
  -22.3420   -9.3340   20.3400 C   0  0  0  0  0  3  0  0  0  0  0  0
  -23.1110  -10.4950   20.1650 C   0  0  0  0  0  3  0  0  0  0  0  0
  -21.9200   -7.2440   21.3750 O   0  0  0  0  0  0  0  0  0  0  0  0
  -21.7980   -6.5310   22.5410 C   0  0  0  0  0  0  0  0  0  0  0  0
  -21.3130   -7.1220   23.7280 C   0  0  0  0  0  3  0  0  0  0  0  0
  -21.1370   -6.3380   24.8850 C   0  0  0  0  0  3  0  0  0  0  0  0
  -21.4400   -4.9620   24.8580 C   0  0  0  0  0  0  0  0  0  0  0  0
  -21.9190   -4.3710   23.6770 C   0  0  0  0  0  3  0  0  0  0  0  0
  -22.0960   -5.1530   22.5210 C   0  0  0  0  0  0  0  0  0  0  0  0
  -22.5400   -4.5730   21.3790 F   0  0  0  0  0  0  0  0  0  0  0  0
  -21.2610   -4.2070   25.9680 F   0  0  0  0  0  0  0  0  0  0  0  0
  -23.2470  -13.8480   21.1460 C   0  0  0  0  0  0  0  0  0  0  0  0
  -22.5260  -13.1660   22.0330 N   0  0  0  0  0  0  0  0  0  0  0  0
  -22.8270  -14.8890   20.6450 O   0  0  0  0  0  0  0  0  0  0  0  0
  -22.8820  -12.3200   22.4550 H   0  0  0  0  0  0  0  0  0  0  0  0
  -21.6130  -13.4940   22.3060 H   0  0  0  0  0  0  0  0  0  0  0  0
  -25.9190  -15.4230   20.2770 N   0  0  0  0  0  0  0  0  0  0  0  0
  -25.1690  -16.0980   20.3890 H   0  0  0  0  0  0  0  0  0  0  0  0
  -26.7520  -15.8250   19.8640 H   0  0  0  0  0  0  0  0  0  0  0  0
  -30.5530  -20.8510   22.6500 N   0  0  0  0  0  0  0  0  0  0  0  0
  -30.9530  -20.8100   23.5810 H   0  0  0  0  0  0  0  0  0  0  0  0
  -29.6300  -21.2800   22.7060 H   0  0  0  0  0  0  0  0  0  0  0  0
  -28.2560  -22.8530   20.0640 C   0  0  0  0  0  3  0  0  0  0  0  0
  -27.2300  -22.7510   21.2170 C   0  0  0  0  0  0  0  0  0  0  0  0
  -25.9710  -23.0550   20.9350 N   0  0  0  0  0  0  0  0  0  0  0  0
  -27.5570  -22.3790   22.3450 O   0  0  0  0  0  0  0  0  0  0  0  0
  -25.7060  -23.3170   19.9960 H   0  0  0  0  0  0  0  0  0  0  0  0
  -25.2620  -23.0110   21.6510 H   0  0  0  0  0  0  0  0  0  0  0  0
  -28.1510  -25.3960   20.0830 C   0  0  0  0  0  3  0  0  0  0  0  0
  -28.8430  -24.2660   19.7860 C   0  0  0  0  0  0  0  0  0  0  0  0
  -30.1910  -24.3100   19.0860 C   0  0  0  0  0  1  0  0  0  0  0  0
  -28.4430  -26.7110   19.7370 O   0  0  0  0  0  0  0  0  0  0  0  0
  -24.6280  -31.7660   23.0860 C   0  0  0  0  0  0  0  0  0  0  0  0
  -27.3250  -27.5400   19.7200 C   0  0  0  0  0  0  0  0  0  0  0  0
  -23.4380  -30.4260   21.3890 C   0  0  0  0  0  3  0  0  0  0  0  0
  -24.9080  -29.0170   19.8560 C   0  0  0  0  0  0  0  0  0  0  0  0
  -25.9620  -30.8430   21.1880 C   0  0  0  0  0  2  0  0  0  0  0  0
  -26.0690  -29.5160   20.4660 C   0  0  0  0  0  0  0  0  0  0  0  0
  -27.2830  -28.7820   20.4060 C   0  0  0  0  0  3  0  0  0  0  0  0
  -26.1570  -27.1030   19.0500 C   0  0  0  0  0  3  0  0  0  0  0  0
  -24.9490  -27.8100   19.1440 C   0  0  0  0  0  3  0  0  0  0  0  0
  -23.6400  -29.8300   19.9760 C   0  0  0  0  0  2  0  0  0  0  0  0
  -24.6970  -31.0270   21.9420 N   0  0  0  0  0  0  0  0  0  0  0  0
  -23.5480  -31.9780   23.6510 O   0  0  0  0  0  0  0  0  0  0  0  0
  -22.8270  -29.3370   22.3020 C   0  0  0  0  0  0  0  0  0  0  0  0
  -21.5040  -29.1290   22.1850 N   0  0  0  0  0  0  0  0  0  0  0  0
  -23.5420  -28.6870   23.0690 O   0  0  0  0  0  0  0  0  0  0  0  0
  -20.9870  -29.7130   21.5420 H   0  0  0  0  0  0  0  0  0  0  0  0
  -18.1690  -27.8210   22.6700 C   0  0  0  0  0  0  0  0  0  0  0  0
  -20.7240  -28.1290   22.9150 C   0  0  0  0  0  3  0  0  0  0  0  0
  -20.8480  -26.7310   22.2660 C   0  0  0  0  0  2  0  0  0  0  0  0
  -19.7420  -26.4380   21.2480 C   0  0  0  0  0  2  0  0  0  0  0  0
  -18.3650  -26.5170   21.9160 C   0  0  0  0  0  2  0  0  0  0  0  0
  -19.2760  -28.5860   23.1230 C   0  0  0  0  0  0  0  0  0  0  0  0
  -19.0360  -29.8110   23.7850 C   0  0  0  0  0  3  0  0  0  0  0  0
  -17.7220  -30.2730   23.9930 C   0  0  0  0  0  3  0  0  0  0  0  0
  -16.6300  -29.5020   23.5570 C   0  0  0  0  0  3  0  0  0  0  0  0
  -16.8550  -28.2780   22.8990 C   0  0  0  0  0  3  0  0  0  0  0  0
  -25.9030  -32.4000   23.7260 C   0  0  0  0  0  3  0  0  0  0  0  0
  -25.5600  -33.7750   24.1140 N   0  0  0  0  0  0  0  0  0  0  0  0
  -25.8600  -34.8660   23.3970 C   0  0  0  0  0  0  0  0  0  0  0  0
  -26.5240  -34.8200   22.3560 O   0  0  0  0  0  0  0  0  0  0  0  0
  -24.9610  -33.8800   24.9200 H   0  0  0  0  0  0  0  0  0  0  0  0
  -24.0830  -36.6290   23.1350 C   0  0  0  0  0  1  0  0  0  0  0  0
  -25.3450  -36.2230   23.9130 C   0  0  0  0  0  3  0  0  0  0  0  0
  -27.4660  -37.1280   24.7590 C   0  0  0  0  0  1  0  0  0  0  0  0
  -26.3530  -37.3040   23.8290 N   0  0  0  0  0  0  0  0  0  0  0  0
  -25.9280  -38.2100   24.0100 H   0  0  0  0  0  0  0  0  0  0  0  0
  -26.4460  -31.5850   24.9630 C   0  0  1  0  0  0  0  0  0  0  0  0
  -25.3670  -31.2800   26.0300 C   0  0  0  0  0  1  0  0  0  0  0  0
  -27.0600  -30.2400   24.5040 C   0  0  0  0  0  1  0  0  0  0  0  0
  -27.5840  -32.3800   25.6480 C   0  0  0  0  0  1  0  0  0  0  0  0
  1  2  1  0
  1  8  1  0
  2  4  1  0
  3  1  2  0
  5  6  1  0
  7  8  2  0
  7  9  1  0
  8 10  1  0
  9  5  2  0
 10  6  2  0
 10 49  1  0
 11 19  1  0
 12 17  1  0
 13 14  1  0
 13 12  1  0
 15 14  1  0
 15 24  1  0
 15 16  1  0
 17 11  1  0
 17 16  1  0
 18 11  2  0
 19 20  1  0
 19  9  1  0
 21 22  2  0
 22 41  1  0
 23 22  1  0
 23 26  1  0
 24 25  1  0
 24 21  1  0
 25 23  2  0
 26 27  1  0
 27 28  2  0
 29 32  1  0
 29 28  1  0
 30 29  2  0
 31 30  1  0
 31 26  2  0
 32 33  1  0
 33 34  1  0
 34 35  2  0
 36 35  1  0
 36 40  1  0
 37 36  2  0
 38 33  2  0
 38 37  1  0
 39 38  1  0
 41 42  1  0
 42 45  1  0
 42 44  1  0
 43 41  2  0
 46 47  1  0
 46 21  1  0
 48 46  1  0
 49 51  1  0
 49 50  1  0
 52 59  1  0
 52  2  1  0
 52 53  1  0
 53 55  2  0
 54 53  1  0
 54 57  1  0
 56 54  1  0
 59 58  2  0
 60 59  1  0
 61 58  1  0
 62 73  2  0
 63 61  1  0
 63 68  1  0
 64 72  1  0
 64 74  1  0
 65 71  1  0
 65 67  1  0
 66 72  1  0
 67 66  1  0
 68 67  2  0
 69 70  1  0
 69 63  2  0
 70 65  2  0
 71 64  1  0
 72 62  1  0
 74 76  2  0
 75 74  1  0
 77 75  1  0
 78 87  2  0
 78 83  1  0
 79 75  1  0
 79 83  1  0
 80 79  1  0
 81 82  1  0
 81 80  1  0
 82 78  1  0
 83 84  2  0
 84 85  1  0
 86 85  2  0
 87 86  1  0
 88 62  1  0
 88 89  1  0
 88 98  1  0
 89 92  1  0
 90 94  1  0
 90 89  1  0
 91 90  2  0
 94 93  1  0
 96 94  1  0
 96 97  1  0
 96 95  1  0
 98101  1  1
 98 99  1  0
100 98  1  0
M  ISO  4  11 100  19 100  58 101  61 101
M  END
>  <TORSDO>  (15) 
F 21

>  <SCORE>  (15) 
-13.144

>  <name>  (15) 
14

>  <ligand_id>  (15) 
14

>  <original_smiles>  (15) 
[H]C(Oc1c([H])c([H])c2c(c1[H])C([H])([H])N(C(=O)C([H])(N([H])C(=O)C([H])(N([H])C([H])([H])[H])C([H])([H])[H])C(C([H])([H])[H])(C([H])([H])[H])C([H])([H])[H])C([H])(C(=O)N([H])C1([H])c3c([H])c([H])c([H])c([H])c3C([H])([H])C([H])([H])C1([H])[H])C2([H])[H])=C(C([H])([H])[H])C([H])(C(=O)N([H])[H])N([H])C(=O)c1c([H])c(N([H])C(=O)N2C([H])([H])C([H])([H])C([H])([H])C([H])(n3nc(-c4c([H])c([H])c(Oc5c([H])c([H])c(F)c([H])c5F)c([H])c4[H])c(C(=O)N([H])[H])c3N([H])[H])C2([H])[H])c([H])c([H])c1N([H])[H]

>  <smiles>  (15) 
[H]C(Oc1c([H])c([H])c2c(c1[H])C([H])([H])N(C(=O)C([H])(N([H])C(=O)C([H])(N([H])C([H])([H])[H])C([H])([H])[H])C(C([H])([H])[H])(C([H])([H])[H])C([H])([H])[H])C([H])(C(=O)N([H])C1([H])c3c([H])c([H])c([H])c([H])c3C([H])([H])C([H])([H])C1([H])[H])C2([H])[H])=C(C([H])([H])[H])C([H])(C(=O)N([H])[H])N([H])C(=O)c1c([H])c(N([H])C(=O)N2C([H])([H])C([H])([H])C([H])([H])C([H])(n3nc(-c4c([H])c([H])c(Oc5c([H])c([H])c(F)c([H])c5F)c([H])c4[H])c(C(=O)N([H])[H])c3N([H])[H])C2([H])[H])c([H])c([H])c1N([H])[H]

$$$$
15:0:0
     RDKit          3D

 96105  0  0  1  0  0  0  0  0999 V2000
  -26.3070  -20.0340   17.3010 C   0  0  0  0  0  3  0  0  0  0  0  0
  -26.8430  -18.8560   17.8470 C   0  0  0  0  0  3  0  0  0  0  0  0
  -26.7800  -21.2900   17.7290 C   0  0  0  0  0  3  0  0  0  0  0  0
  -28.3000  -20.2010   19.2480 C   0  0  0  0  0  3  0  0  0  0  0  0
  -27.8630  -18.9300   18.8200 C   0  0  0  0  0  0  0  0  0  0  0  0
  -27.7740  -21.4060   18.7300 C   0  0  0  0  0  0  0  0  0  0  0  0
  -28.3530  -24.4410   20.0350 C   0  0  0  0  0  0  0  0  0  0  0  0
  -28.5810  -23.1080   20.5090 C   0  0  0  0  0  0  0  0  0  0  0  0
  -28.5740  -25.6280   20.6220 C   0  0  0  0  0  3  0  0  0  0  0  0
  -27.8220  -23.9360   18.7120 C   0  0  0  0  0  2  0  0  0  0  0  0
  -28.2550  -22.6360   19.2410 N   0  0  0  0  0  0  0  0  0  0  0  0
  -28.8390  -22.6600   21.6060 O   0  0  0  0  0  0  0  0  0  0  0  0
  -28.4270  -26.8200   19.9770 O   0  0  0  0  0  0  0  0  0  0  0  0
  -24.6130  -31.8720   23.2170 C   0  0  0  0  0  0  0  0  0  0  0  0
  -27.2350  -27.4810   20.0870 C   0  0  0  0  0  0  0  0  0  0  0  0
  -23.3940  -30.4970   21.5600 C   0  0  0  0  0  3  0  0  0  0  0  0
  -24.8390  -28.9680   20.1280 C   0  0  0  0  0  0  0  0  0  0  0  0
  -25.9170  -30.8550   21.3580 C   0  0  0  0  0  2  0  0  0  0  0  0
  -25.9970  -29.4880   20.7160 C   0  0  0  0  0  0  0  0  0  0  0  0
  -27.1990  -28.7510   20.6940 C   0  0  0  0  0  3  0  0  0  0  0  0
  -26.0560  -26.9560   19.5130 C   0  0  0  0  0  3  0  0  0  0  0  0
  -24.8600  -27.6970   19.5290 C   0  0  0  0  0  3  0  0  0  0  0  0
  -23.5990  -29.8330   20.1740 C   0  0  0  0  0  2  0  0  0  0  0  0
  -24.6620  -31.0850   22.1060 N   0  0  0  0  0  0  0  0  0  0  0  0
  -23.5320  -32.1430   23.7590 O   0  0  0  0  0  0  0  0  0  0  0  0
  -22.7390  -29.4670   22.5050 C   0  0  0  0  0  0  0  0  0  0  0  0
  -21.4110  -29.3030   22.3790 N   0  0  0  0  0  0  0  0  0  0  0  0
  -23.4190  -28.8180   23.3040 O   0  0  0  0  0  0  0  0  0  0  0  0
  -20.9240  -29.8810   21.7090 H   0  0  0  0  0  0  0  0  0  0  0  0
  -18.0240  -28.1390   22.8500 C   0  0  0  0  0  0  0  0  0  0  0  0
  -20.5840  -28.3650   23.1360 C   0  0  0  0  0  3  0  0  0  0  0  0
  -20.6730  -26.9400   22.5440 C   0  0  0  0  0  2  0  0  0  0  0  0
  -19.5700  -26.6390   21.5220 C   0  0  0  0  0  2  0  0  0  0  0  0
  -18.1880  -26.7930   22.1620 C   0  0  0  0  0  2  0  0  0  0  0  0
  -19.1500  -28.8840   23.2910 C   0  0  0  0  0  0  0  0  0  0  0  0
  -18.9420  -30.1440   23.8950 C   0  0  0  0  0  3  0  0  0  0  0  0
  -17.6430  -30.6600   24.0580 C   0  0  0  0  0  3  0  0  0  0  0  0
  -16.5330  -29.9110   23.6330 C   0  0  0  0  0  3  0  0  0  0  0  0
  -16.7230  -28.6520   23.0360 C   0  0  0  0  0  3  0  0  0  0  0  0
  -25.9030  -32.4860   23.8460 C   0  0  0  0  0  3  0  0  0  0  0  0
  -26.4480  -31.6640   25.0780 C   0  0  1  0  0  0  0  0  0  0  0  0
  -25.3770  -31.3770   26.1560 C   0  0  0  0  0  1  0  0  0  0  0  0
  -27.0260  -30.3080   24.6110 C   0  0  0  0  0  1  0  0  0  0  0  0
  -27.6080  -32.4350   25.7550 C   0  0  0  0  0  1  0  0  0  0  0  0
  -25.5880  -33.8650   24.2400 N   0  0  0  0  0  0  0  0  0  0  0  0
  -25.9000  -34.9490   23.5170 C   0  0  0  0  0  0  0  0  0  0  0  0
  -26.5550  -34.8910   22.4720 O   0  0  0  0  0  0  0  0  0  0  0  0
  -25.0150  -33.9860   25.0610 H   0  0  0  0  0  0  0  0  0  0  0  0
  -24.1460  -36.7320   23.2630 C   0  0  0  0  0  1  0  0  0  0  0  0
  -25.4080  -36.3130   24.0350 C   0  0  0  0  0  3  0  0  0  0  0  0
  -27.5570  -37.1810   24.8460 C   0  0  0  0  0  1  0  0  0  0  0  0
  -26.4270  -37.3820   23.9440 N   0  0  0  0  0  0  0  0  0  0  0  0
  -26.0160  -38.2890   24.1510 H   0  0  0  0  0  0  0  0  0  0  0  0
  -28.4260  -17.6730   19.4030 C   0  0  0  0  0  0  0  0  0  0  0  0
  -27.6660  -16.7160   19.5600 O   0  0  0  0  0  0  0  0  0  0  0  0
  -30.8250  -18.3360   19.1050 C   0  0  0  0  0  3  0  0  0  0  0  0
  -29.8910  -17.6000   19.7500 C   0  0  0  0  0  0  0  0  0  0  0  0
  -32.3240  -18.3510   19.3700 C   0  0  0  0  0  1  0  0  0  0  0  0
  -30.3550  -16.7280   20.7690 N   0  0  0  0  0  2  0  0  0  0  0  0
  -29.8340  -15.6070   20.9590 N   0  0  0  0  0  2  0  0  0  0  0  0
  -30.6880  -14.4350   20.5340 C   0  0  0  0  0  0  0  0  0  0  0  0
  -30.4210  -12.2680   19.4220 C   0  0  0  0  0  2  0  0  0  0  0  0
  -29.4970  -12.4960   18.2070 C   0  0  0  0  0  2  0  0  0  0  0  0
  -28.0160  -12.3600   18.6170 C   0  0  0  0  0  2  0  0  0  0  0  0
  -27.6630  -13.1960   19.8760 C   0  0  0  0  0  3  0  0  0  0  0  0
  -28.7060  -12.9710   20.9940 C   0  0  0  0  0  2  0  0  0  0  0  0
  -30.0420  -13.2470   20.4460 N   0  0  0  0  0  0  0  0  0  0  0  0
  -31.8300  -14.6280   20.1050 O   0  0  0  0  0  0  0  0  0  0  0  0
  -25.2580  -13.8100   20.5710 C   0  0  0  0  0  0  0  0  0  0  0  0
  -24.1830  -13.0390   20.9170 C   0  0  0  0  0  0  0  0  0  0  0  0
  -24.6400  -11.6870   20.8720 C   0  0  0  0  0  0  0  0  0  0  0  0
  -26.3040  -12.9280   20.3390 N   0  0  0  0  0  0  0  0  0  0  0  0
  -25.9320  -11.6440   20.5770 N   0  0  0  0  0  0  0  0  0  0  0  0
  -23.9050  -10.4260   21.0400 C   0  0  0  0  0  0  0  0  0  0  0  0
  -24.3610   -9.4180   21.9180 C   0  0  0  0  0  3  0  0  0  0  0  0
  -23.6280   -8.2230   22.0750 C   0  0  0  0  0  3  0  0  0  0  0  0
  -22.4260   -8.0270   21.3550 C   0  0  0  0  0  0  0  0  0  0  0  0
  -21.9890   -9.0240   20.4640 C   0  0  0  0  0  3  0  0  0  0  0  0
  -22.7220  -10.2110   20.3050 C   0  0  0  0  0  3  0  0  0  0  0  0
  -21.6630   -6.8860   21.4230 O   0  0  0  0  0  0  0  0  0  0  0  0
  -21.6850   -6.0730   22.5270 C   0  0  0  0  0  0  0  0  0  0  0  0
  -21.4020   -6.5640   23.8200 C   0  0  0  0  0  3  0  0  0  0  0  0
  -21.3650   -5.6790   24.9160 C   0  0  0  0  0  3  0  0  0  0  0  0
  -21.6050   -4.3050   24.7220 C   0  0  0  0  0  0  0  0  0  0  0  0
  -21.8820   -3.8140   23.4340 C   0  0  0  0  0  3  0  0  0  0  0  0
  -21.9200   -4.6960   22.3400 C   0  0  0  0  0  0  0  0  0  0  0  0
  -22.1660   -4.2150   21.0970 F   0  0  0  0  0  0  0  0  0  0  0  0
  -21.5620   -3.4530   25.7730 F   0  0  0  0  0  0  0  0  0  0  0  0
  -22.7860  -13.5190   21.1830 C   0  0  0  0  0  0  0  0  0  0  0  0
  -22.0520  -12.8190   22.0420 N   0  0  0  0  0  0  0  0  0  0  0  0
  -22.3530  -14.5500   20.6690 O   0  0  0  0  0  0  0  0  0  0  0  0
  -22.4160  -11.9850   22.4790 H   0  0  0  0  0  0  0  0  0  0  0  0
  -21.1150  -13.1220   22.2670 H   0  0  0  0  0  0  0  0  0  0  0  0
  -25.4210  -15.1810   20.4190 N   0  0  0  0  0  0  0  0  0  0  0  0
  -24.6560  -15.8350   20.5320 H   0  0  0  0  0  0  0  0  0  0  0  0
  -26.2880  -15.6350   20.1260 H   0  0  0  0  0  0  0  0  0  0  0  0
  1  3  2  0
  1  2  1  0
  2  5  2  0
  3  6  1  0
  5  4  1  0
  5 54  1  0
  6 11  1  0
  6  4  2  0
  7  8  1  0
  7  9  2  0
  8 12  2  0
 10 11  1  0
 10  7  1  0
 11  8  1  0
 13 15  1  0
 13  9  1  0
 14 25  2  0
 15 20  1  0
 16 24  1  0
 16 26  1  0
 17 23  1  0
 17 19  1  0
 18 24  1  0
 19 18  1  0
 20 19  2  0
 21 22  1  0
 21 15  2  0
 22 17  2  0
 23 16  1  0
 24 14  1  0
 26 28  2  0
 27 26  1  0
 29 27  1  0
 30 39  2  0
 30 35  1  0
 31 27  1  0
 31 35  1  0
 32 31  1  0
 33 34  1  0
 33 32  1  0
 34 30  1  0
 35 36  2  0
 36 37  1  0
 38 37  2  0
 39 38  1  0
 40 14  1  0
 40 45  1  0
 40 41  1  0
 41 44  1  1
 41 42  1  0
 43 41  1  0
 45 48  1  0
 46 50  1  0
 46 45  1  0
 47 46  2  0
 50 49  1  0
 52 50  1  0
 52 53  1  0
 52 51  1  0
 54 55  2  0
 54 57  1  0
 56 58  1  0
 56 57  2  0
 57 59  1  0
 59 60  1  0
 61 60  1  0
 62 67  1  0
 63 64  1  0
 63 62  1  0
 65 64  1  0
 65 72  1  0
 65 66  1  0
 67 61  1  0
 67 66  1  0
 68 61  2  0
 69 70  2  0
 70 89  1  0
 71 70  1  0
 71 74  1  0
 72 69  1  0
 72 73  1  0
 73 71  2  0
 74 75  1  0
 75 76  2  0
 77 80  1  0
 77 76  1  0
 78 77  2  0
 79 78  1  0
 79 74  2  0
 80 81  1  0
 81 82  1  0
 82 83  2  0
 84 83  1  0
 84 88  1  0
 85 84  2  0
 86 81  2  0
 86 85  1  0
 87 86  1  0
 89 90  1  0
 90 93  1  0
 90 92  1  0
 91 89  2  0
 94 95  1  0
 94 69  1  0
 96 94  1  0
M  ISO  4   9 101  13 101  60 100  61 100
M  END
>  <TORSDO>  (16) 
F 20

>  <SCORE>  (16) 
-13.677

>  <name>  (16) 
15

>  <ligand_id>  (16) 
15

>  <original_smiles>  (16) 
[H]C(Oc1c([H])c([H])c2c(c1[H])C([H])([H])N(C(=O)C([H])(N([H])C(=O)C([H])(N([H])C([H])([H])[H])C([H])([H])[H])C(C([H])([H])[H])(C([H])([H])[H])C([H])([H])[H])C([H])(C(=O)N([H])C1([H])c3c([H])c([H])c([H])c([H])c3C([H])([H])C([H])([H])C1([H])[H])C2([H])[H])=C1C(=O)N(c2c([H])c([H])c([H])c(C(=O)C(N=NC(=O)N3C([H])([H])C([H])([H])C([H])([H])C([H])(n4nc(-c5c([H])c([H])c(Oc6c([H])c([H])c(F)c([H])c6F)c([H])c5[H])c(C(=O)N([H])[H])c4N([H])[H])C3([H])[H])=C([H])C([H])([H])[H])c2[H])C1([H])[H]

>  <smiles>  (16) 
[H]C(Oc1c([H])c([H])c2c(c1[H])C([H])([H])N(C(=O)C([H])(N([H])C(=O)C([H])(N([H])C([H])([H])[H])C([H])([H])[H])C(C([H])([H])[H])(C([H])([H])[H])C([H])([H])[H])C([H])(C(=O)N([H])C1([H])c3c([H])c([H])c([H])c([H])c3C([H])([H])C([H])([H])C1([H])[H])C2([H])[H])=C1C(=O)N(c2c([H])c([H])c([H])c(C(=O)C(N=NC(=O)N3C([H])([H])C([H])([H])C([H])([H])C([H])(n4nc(-c5c([H])c([H])c(Oc6c([H])c([H])c(F)c([H])c6F)c([H])c5[H])c(C(=O)N([H])[H])c4N([H])[H])C3([H])[H])=C([H])C([H])([H])[H])c2[H])C1([H])[H]

$$$$
16:0:0
     RDKit          3D

 93102  0  0  1  0  0  0  0  0999 V2000
  -30.2930  -23.7850   20.5760 C   0  0  0  0  0  3  0  0  0  0  0  0
  -29.0590  -23.8060   20.0630 C   0  0  0  0  0  0  0  0  0  0  0  0
  -30.7420  -22.4040   20.6940 C   0  0  0  0  0  0  0  0  0  0  0  0
  -28.6990  -22.3870   19.8550 C   0  0  0  0  0  0  0  0  0  0  0  0
  -29.7520  -21.6030   20.2360 N   0  0  0  0  0  0  0  0  0  0  0  0
  -31.8310  -22.0190   21.1380 O   0  0  0  0  0  0  0  0  0  0  0  0
  -27.6290  -21.9570   19.4070 O   0  0  0  0  0  0  0  0  0  0  0  0
  -29.2220  -19.3170   21.2080 C   0  0  0  0  0  3  0  0  0  0  0  0
  -30.5920  -19.3950   19.2450 C   0  0  0  0  0  3  0  0  0  0  0  0
  -29.4000  -17.8990   21.2580 C   0  0  0  0  0  3  0  0  0  0  0  0
  -30.7610  -17.9700   19.2940 C   0  0  0  0  0  3  0  0  0  0  0  0
  -29.8350  -20.1220   20.2130 C   0  0  0  0  0  0  0  0  0  0  0  0
  -30.2020  -17.1650   20.3300 C   0  0  0  0  0  0  0  0  0  0  0  0
  -30.8500  -14.7470   19.6160 C   0  0  0  0  0  0  0  0  0  0  0  0
  -30.4070  -12.5740   18.4450 C   0  0  0  0  0  2  0  0  0  0  0  0
  -29.2930  -12.7230   17.3840 C   0  0  0  0  0  2  0  0  0  0  0  0
  -27.9030  -12.5330   18.0190 C   0  0  0  0  0  2  0  0  0  0  0  0
  -27.7330  -13.3530   19.3230 C   0  0  0  0  0  3  0  0  0  0  0  0
  -28.9400  -13.1730   20.2650 C   0  0  0  0  0  2  0  0  0  0  0  0
  -30.1580  -13.5540   19.5280 N   0  0  0  0  0  0  0  0  0  0  0  0
  -31.8400  -14.9400   18.9010 O   0  0  0  0  0  0  0  0  0  0  0  0
  -30.7190  -15.3190   21.9290 C   0  0  0  0  0  1  0  0  0  0  0  0
  -30.4440  -15.7050   20.5340 N   0  0  0  0  0  0  0  0  0  0  0  0
  -25.5120  -13.9210   20.4790 C   0  0  0  0  0  0  0  0  0  0  0  0
  -24.4900  -13.1370   20.9420 C   0  0  0  0  0  0  0  0  0  0  0  0
  -24.8920  -11.7860   20.7070 C   0  0  0  0  0  0  0  0  0  0  0  0
  -26.4710  -13.0480   19.9920 N   0  0  0  0  0  0  0  0  0  0  0  0
  -26.1140  -11.7530   20.1890 N   0  0  0  0  0  0  0  0  0  0  0  0
  -24.1590  -10.5270   20.8930 C   0  0  0  0  0  0  0  0  0  0  0  0
  -24.6290   -9.5200   21.7650 C   0  0  0  0  0  3  0  0  0  0  0  0
  -23.8950   -8.3270   21.9410 C   0  0  0  0  0  3  0  0  0  0  0  0
  -22.6780   -8.1320   21.2450 C   0  0  0  0  0  0  0  0  0  0  0  0
  -22.2270   -9.1280   20.3600 C   0  0  0  0  0  3  0  0  0  0  0  0
  -22.9610  -10.3130   20.1820 C   0  0  0  0  0  3  0  0  0  0  0  0
  -21.9120   -6.9950   21.3330 O   0  0  0  0  0  0  0  0  0  0  0  0
  -21.8150   -6.2830   22.5010 C   0  0  0  0  0  0  0  0  0  0  0  0
  -21.3470   -6.8710   23.6970 C   0  0  0  0  0  3  0  0  0  0  0  0
  -21.1950   -6.0840   24.8550 C   0  0  0  0  0  3  0  0  0  0  0  0
  -21.5020   -4.7110   24.8200 C   0  0  0  0  0  0  0  0  0  0  0  0
  -21.9630   -4.1220   23.6290 C   0  0  0  0  0  3  0  0  0  0  0  0
  -22.1150   -4.9060   22.4720 C   0  0  0  0  0  0  0  0  0  0  0  0
  -22.5390   -4.3300   21.3220 F   0  0  0  0  0  0  0  0  0  0  0  0
  -21.3500   -3.9520   25.9310 F   0  0  0  0  0  0  0  0  0  0  0  0
  -23.1740  -13.6150   21.4830 C   0  0  0  0  0  0  0  0  0  0  0  0
  -22.5900  -12.8730   22.4170 N   0  0  0  0  0  0  0  0  0  0  0  0
  -22.6780  -14.6780   21.1110 O   0  0  0  0  0  0  0  0  0  0  0  0
  -23.0080  -12.0090   22.7330 H   0  0  0  0  0  0  0  0  0  0  0  0
  -21.7130  -13.1710   22.8210 H   0  0  0  0  0  0  0  0  0  0  0  0
  -25.6960  -15.2980   20.4100 N   0  0  0  0  0  0  0  0  0  0  0  0
  -24.9880  -15.9540   20.7220 H   0  0  0  0  0  0  0  0  0  0  0  0
  -26.5070  -15.7520   20.0100 H   0  0  0  0  0  0  0  0  0  0  0  0
  -28.1240  -25.0120   19.6760 C   0  0  0  0  0  2  0  0  0  0  0  0
  -28.3900  -26.4370   20.0480 O   0  0  0  0  0  0  0  0  0  0  0  0
  -24.5670  -31.7470   23.1620 C   0  0  0  0  0  0  0  0  0  0  0  0
  -27.2760  -27.3100   19.9920 C   0  0  0  0  0  0  0  0  0  0  0  0
  -23.3920  -30.3600   21.4960 C   0  0  0  0  0  3  0  0  0  0  0  0
  -24.8750  -28.8860   20.0240 C   0  0  0  0  0  0  0  0  0  0  0  0
  -25.9230  -30.7420   21.3100 C   0  0  0  0  0  2  0  0  0  0  0  0
  -26.0350  -29.3780   20.6350 C   0  0  0  0  0  0  0  0  0  0  0  0
  -27.2370  -28.6010   20.6160 C   0  0  0  0  0  3  0  0  0  0  0  0
  -26.0890  -26.8990   19.3350 C   0  0  0  0  0  3  0  0  0  0  0  0
  -24.9050  -27.6520   19.3620 C   0  0  0  0  0  3  0  0  0  0  0  0
  -23.6170  -29.7260   20.0980 C   0  0  0  0  0  2  0  0  0  0  0  0
  -24.6460  -30.9650   22.0460 N   0  0  0  0  0  0  0  0  0  0  0  0
  -23.4800  -31.9850   23.7090 O   0  0  0  0  0  0  0  0  0  0  0  0
  -22.7580  -29.3030   22.4330 C   0  0  0  0  0  0  0  0  0  0  0  0
  -21.4360  -29.1010   22.3120 N   0  0  0  0  0  0  0  0  0  0  0  0
  -23.4570  -28.6720   23.2320 O   0  0  0  0  0  0  0  0  0  0  0  0
  -20.9300  -29.6680   21.6460 H   0  0  0  0  0  0  0  0  0  0  0  0
  -18.0840  -27.8370   22.8270 C   0  0  0  0  0  0  0  0  0  0  0  0
  -20.6430  -28.1250   23.0650 C   0  0  0  0  0  3  0  0  0  0  0  0
  -20.7550  -26.7150   22.4440 C   0  0  0  0  0  2  0  0  0  0  0  0
  -19.6430  -26.4070   21.4380 C   0  0  0  0  0  2  0  0  0  0  0  0
  -18.2690  -26.5110   22.1070 C   0  0  0  0  0  2  0  0  0  0  0  0
  -19.1990  -28.6020   23.2630 C   0  0  0  0  0  0  0  0  0  0  0  0
  -18.9710  -29.8420   23.8960 C   0  0  0  0  0  3  0  0  0  0  0  0
  -17.6610  -30.3180   24.0990 C   0  0  0  0  0  3  0  0  0  0  0  0
  -16.5620  -29.5500   23.6780 C   0  0  0  0  0  3  0  0  0  0  0  0
  -16.7750  -28.3110   23.0490 C   0  0  0  0  0  3  0  0  0  0  0  0
  -25.8360  -32.3990   23.7930 C   0  0  0  0  0  3  0  0  0  0  0  0
  -25.5050  -33.7920   24.1240 N   0  0  0  0  0  0  0  0  0  0  0  0
  -25.8030  -34.8490   23.3560 C   0  0  0  0  0  0  0  0  0  0  0  0
  -26.4560  -34.7540   22.3130 O   0  0  0  0  0  0  0  0  0  0  0  0
  -24.9280  -33.9380   24.9380 H   0  0  0  0  0  0  0  0  0  0  0  0
  -24.0280  -36.6010   23.0340 C   0  0  0  0  0  1  0  0  0  0  0  0
  -25.2970  -36.2290   23.8180 C   0  0  0  0  0  3  0  0  0  0  0  0
  -27.4290  -37.1680   24.5930 C   0  0  0  0  0  1  0  0  0  0  0  0
  -26.3010  -37.3040   23.6730 N   0  0  0  0  0  0  0  0  0  0  0  0
  -25.8780  -38.2160   23.8240 H   0  0  0  0  0  0  0  0  0  0  0  0
  -26.3540  -31.6330   25.0720 C   0  0  1  0  0  0  0  0  0  0  0  0
  -25.2590  -31.3800   26.1320 C   0  0  0  0  0  1  0  0  0  0  0  0
  -26.9610  -30.2650   24.6800 C   0  0  0  0  0  1  0  0  0  0  0  0
  -27.4890  -32.4430   25.7440 C   0  0  0  0  0  1  0  0  0  0  0  0
  1  3  1  0
  2  1  2  0
  3  6  2  0
  4  2  1  0
  4  5  1  0
  5  3  1  0
  7  4  2  0
  8 10  1  0
  9 11  2  0
  9 12  1  0
 11 13  1  0
 12  5  1  0
 12  8  2  0
 13 23  1  0
 13 10  2  0
 14 23  1  0
 15 20  1  0
 16 17  1  0
 16 15  1  0
 18 17  1  0
 18 27  1  0
 18 19  1  0
 20 14  1  0
 20 19  1  0
 21 14  2  0
 23 22  1  0
 24 25  2  0
 25 44  1  0
 26 29  1  0
 26 25  1  0
 27 28  1  0
 27 24  1  0
 28 26  2  0
 29 30  1  0
 30 31  2  0
 32 35  1  0
 32 31  1  0
 33 32  2  0
 34 33  1  0
 34 29  2  0
 35 36  1  0
 36 37  1  0
 37 38  2  0
 39 38  1  0
 39 43  1  0
 40 39  2  0
 41 36  2  0
 41 40  1  0
 42 41  1  0
 44 45  1  0
 45 47  1  0
 45 48  1  0
 46 44  2  0
 49 24  1  0
 49 50  1  0
 51 49  1  0
 52 53  1  0
 52  2  1  0
 54 65  2  0
 55 53  1  0
 55 60  1  0
 56 64  1  0
 56 66  1  0
 57 63  1  0
 57 59  1  0
 58 64  1  0
 59 58  1  0
 60 59  2  0
 61 62  1  0
 61 55  2  0
 62 57  2  0
 63 56  1  0
 64 54  1  0
 66 68  2  0
 67 66  1  0
 69 67  1  0
 70 79  2  0
 70 75  1  0
 71 67  1  0
 71 75  1  0
 72 71  1  0
 73 74  1  0
 73 72  1  0
 74 70  1  0
 75 76  2  0
 76 77  1  0
 78 77  2  0
 79 78  1  0
 80 54  1  0
 80 81  1  0
 80 90  1  0
 81 84  1  0
 82 86  1  0
 82 81  1  0
 83 82  2  0
 86 85  1  0
 88 86  1  0
 88 89  1  0
 88 87  1  0
 90 93  1  1
 90 91  1  0
 92 90  1  0
M  ISO  4  14 100  23 100  52 101  53 101
M  END
>  <TORSDO>  (17) 
F 18

>  <SCORE>  (17) 
-12.883

>  <name>  (17) 
16

>  <ligand_id>  (17) 
16

>  <original_smiles>  (17) 
[H]C1=C(C([H])([H])Oc2c([H])c([H])c3c(c2[H])C([H])([H])N(C(=O)C([H])(N([H])C(=O)C([H])(N([H])C([H])([H])[H])C([H])([H])[H])C(C([H])([H])[H])(C([H])([H])[H])C([H])([H])[H])C([H])(C(=O)N([H])C2([H])c4c([H])c([H])c([H])c([H])c4C([H])([H])C([H])([H])C2([H])[H])C3([H])[H])C(=O)N(c2c([H])c([H])c(N(C(=O)N3C([H])([H])C([H])([H])C([H])([H])C([H])(n4nc(-c5c([H])c([H])c(Oc6c([H])c([H])c(F)c([H])c6F)c([H])c5[H])c(C(=O)N([H])[H])c4N([H])[H])C3([H])[H])C([H])([H])[H])c([H])c2[H])C1=O

>  <smiles>  (17) 
[H]C1=C(C([H])([H])Oc2c([H])c([H])c3c(c2[H])C([H])([H])N(C(=O)C([H])(N([H])C(=O)C([H])(N([H])C([H])([H])[H])C([H])([H])[H])C(C([H])([H])[H])(C([H])([H])[H])C([H])([H])[H])C([H])(C(=O)N([H])C2([H])c4c([H])c([H])c([H])c([H])c4C([H])([H])C([H])([H])C2([H])[H])C3([H])[H])C(=O)N(c2c([H])c([H])c(N(C(=O)N3C([H])([H])C([H])([H])C([H])([H])C([H])(n4nc(-c5c([H])c([H])c(Oc6c([H])c([H])c(F)c([H])c6F)c([H])c5[H])c(C(=O)N([H])[H])c4N([H])[H])C3([H])[H])C([H])([H])[H])c([H])c2[H])C1=O

$$$$
17:0:0
     RDKit          3D

 93102  0  0  1  0  0  0  0  0999 V2000
  -29.1890  -23.0700   18.2520 C   0  0  0  0  0  0  0  0  0  0  0  0
  -28.7880  -23.7970   19.4470 C   0  0  0  0  0  0  0  0  0  0  0  0
  -28.9330  -23.4310   16.9810 C   0  0  0  0  0  2  0  0  0  0  0  0
  -28.4600  -25.1740   19.3760 C   0  0  0  0  0  3  0  0  0  0  0  0
  -29.8850  -21.7530   18.5800 C   0  0  0  0  0  2  0  0  0  0  0  0
  -28.9410  -22.6770   20.5550 C   0  0  0  0  0  2  0  0  0  0  0  0
  -29.6370  -21.4240   19.9930 N   0  0  0  0  0  0  0  0  0  0  0  0
  -27.4940  -18.3450   19.6410 C   0  0  0  0  0  3  0  0  0  0  0  0
  -28.3410  -17.2690   19.9800 C   0  0  0  0  0  3  0  0  0  0  0  0
  -27.9230  -19.6860   19.7240 C   0  0  0  0  0  3  0  0  0  0  0  0
  -30.0790  -18.8660   20.4890 C   0  0  0  0  0  3  0  0  0  0  0  0
  -29.6580  -17.4540   20.4430 C   0  0  0  0  0  0  0  0  0  0  0  0
  -29.2350  -20.0170   20.1220 C   0  0  0  0  0  0  0  0  0  0  0  0
  -30.3500  -16.1730   21.0680 C   0  0  0  0  0  0  0  0  0  0  0  0
  -30.5670  -16.2100   22.3150 N   0  0  0  0  0  0  0  0  0  0  0  0
  -30.2400  -17.0840   22.7110 H   0  0  0  0  0  0  0  0  0  0  0  0
  -30.8610  -14.8540   20.2740 C   0  0  0  0  0  0  0  0  0  0  0  0
  -30.5710  -12.5580   19.2870 C   0  0  0  0  0  2  0  0  0  0  0  0
  -29.6470  -12.6360   18.0510 C   0  0  0  0  0  2  0  0  0  0  0  0
  -28.1800  -12.4580   18.4750 C   0  0  0  0  0  2  0  0  0  0  0  0
  -27.8090  -13.3490   19.6880 C   0  0  0  0  0  3  0  0  0  0  0  0
  -28.8700  -13.3020   20.8140 C   0  0  0  0  0  2  0  0  0  0  0  0
  -30.1750  -13.6430   20.2290 N   0  0  0  0  0  0  0  0  0  0  0  0
  -31.9760  -14.9120   19.7460 O   0  0  0  0  0  0  0  0  0  0  0  0
  -25.4250  -13.9430   20.4260 C   0  0  0  0  0  0  0  0  0  0  0  0
  -24.3620  -13.1730   20.8090 C   0  0  0  0  0  0  0  0  0  0  0  0
  -24.8240  -11.8210   20.7780 C   0  0  0  0  0  0  0  0  0  0  0  0
  -26.4680  -13.0630   20.1870 N   0  0  0  0  0  0  0  0  0  0  0  0
  -26.1130  -11.7810   20.4620 N   0  0  0  0  0  0  0  0  0  0  0  0
  -24.0900  -10.5640   20.9710 C   0  0  0  0  0  0  0  0  0  0  0  0
  -24.5080   -9.6020   21.9180 C   0  0  0  0  0  3  0  0  0  0  0  0
  -23.7720   -8.4130   22.1000 C   0  0  0  0  0  3  0  0  0  0  0  0
  -22.6040   -8.1770   21.3380 C   0  0  0  0  0  0  0  0  0  0  0  0
  -22.2080   -9.1240   20.3780 C   0  0  0  0  0  3  0  0  0  0  0  0
  -22.9450  -10.3050   20.1930 C   0  0  0  0  0  3  0  0  0  0  0  0
  -21.8400   -7.0380   21.4300 O   0  0  0  0  0  0  0  0  0  0  0  0
  -21.7530   -6.3210   22.5950 C   0  0  0  0  0  0  0  0  0  0  0  0
  -21.2880   -6.9010   23.7940 C   0  0  0  0  0  3  0  0  0  0  0  0
  -21.1490   -6.1110   24.9520 C   0  0  0  0  0  3  0  0  0  0  0  0
  -21.4680   -4.7410   24.9130 C   0  0  0  0  0  0  0  0  0  0  0  0
  -21.9270   -4.1580   23.7170 C   0  0  0  0  0  3  0  0  0  0  0  0
  -22.0670   -4.9470   22.5610 C   0  0  0  0  0  0  0  0  0  0  0  0
  -22.4890   -4.3760   21.4080 F   0  0  0  0  0  0  0  0  0  0  0  0
  -21.3270   -3.9790   26.0220 F   0  0  0  0  0  0  0  0  0  0  0  0
  -22.9690  -13.6570   21.0830 C   0  0  0  0  0  0  0  0  0  0  0  0
  -22.2440  -12.9710   21.9580 N   0  0  0  0  0  0  0  0  0  0  0  0
  -22.5340  -14.6840   20.5610 O   0  0  0  0  0  0  0  0  0  0  0  0
  -22.6090  -12.1420   22.4040 H   0  0  0  0  0  0  0  0  0  0  0  0
  -21.3090  -13.2760   22.1880 H   0  0  0  0  0  0  0  0  0  0  0  0
  -25.5670  -15.3140   20.2350 N   0  0  0  0  0  0  0  0  0  0  0  0
  -24.7760  -15.9400   20.3510 H   0  0  0  0  0  0  0  0  0  0  0  0
  -26.3600  -15.7670   19.8030 H   0  0  0  0  0  0  0  0  0  0  0  0
  -28.2380  -26.2510   20.2940 O   0  0  0  0  0  0  0  0  0  0  0  0
  -24.6060  -31.8640   23.2050 C   0  0  0  0  0  0  0  0  0  0  0  0
  -27.1920  -27.2110   20.1510 C   0  0  0  0  0  0  0  0  0  0  0  0
  -23.3980  -30.4610   21.5760 C   0  0  0  0  0  3  0  0  0  0  0  0
  -24.8420  -28.8950   20.1410 C   0  0  0  0  0  0  0  0  0  0  0  0
  -25.9450  -30.7470   21.3930 C   0  0  0  0  0  2  0  0  0  0  0  0
  -26.0190  -29.3630   20.7390 C   0  0  0  0  0  0  0  0  0  0  0  0
  -27.1920  -28.5300   20.7370 C   0  0  0  0  0  3  0  0  0  0  0  0
  -25.9880  -26.8230   19.5220 C   0  0  0  0  0  3  0  0  0  0  0  0
  -24.8350  -27.6350   19.5190 C   0  0  0  0  0  3  0  0  0  0  0  0
  -23.6080  -29.7780   20.1990 C   0  0  0  0  0  2  0  0  0  0  0  0
  -24.6690  -31.0460   22.1140 N   0  0  0  0  0  0  0  0  0  0  0  0
  -23.5260  -32.1500   23.7400 O   0  0  0  0  0  0  0  0  0  0  0  0
  -22.7270  -29.4560   22.5460 C   0  0  0  0  0  0  0  0  0  0  0  0
  -21.3990  -29.2880   22.4260 N   0  0  0  0  0  0  0  0  0  0  0  0
  -23.4020  -28.8290   23.3660 O   0  0  0  0  0  0  0  0  0  0  0  0
  -20.9130  -29.8370   21.7310 H   0  0  0  0  0  0  0  0  0  0  0  0
  -18.0130  -28.1190   22.9550 C   0  0  0  0  0  0  0  0  0  0  0  0
  -20.5760  -28.3570   23.2050 C   0  0  0  0  0  3  0  0  0  0  0  0
  -20.6610  -26.9260   22.6260 C   0  0  0  0  0  2  0  0  0  0  0  0
  -19.5490  -26.6160   21.6210 C   0  0  0  0  0  2  0  0  0  0  0  0
  -18.1740  -26.7720   22.2760 C   0  0  0  0  0  2  0  0  0  0  0  0
  -19.1410  -28.8720   23.3760 C   0  0  0  0  0  0  0  0  0  0  0  0
  -18.9370  -30.1360   23.9700 C   0  0  0  0  0  3  0  0  0  0  0  0
  -17.6350  -30.6450   24.1520 C   0  0  0  0  0  3  0  0  0  0  0  0
  -16.5230  -29.8890   23.7450 C   0  0  0  0  0  3  0  0  0  0  0  0
  -16.7120  -28.6280   23.1530 C   0  0  0  0  0  3  0  0  0  0  0  0
  -25.8920  -32.4980   23.8220 C   0  0  0  0  0  3  0  0  0  0  0  0
  -25.5810  -33.8960   24.1590 N   0  0  0  0  0  0  0  0  0  0  0  0
  -25.9110  -34.9540   23.4080 C   0  0  0  0  0  0  0  0  0  0  0  0
  -26.5800  -34.8560   22.3750 O   0  0  0  0  0  0  0  0  0  0  0  0
  -24.9790  -34.0430   24.9550 H   0  0  0  0  0  0  0  0  0  0  0  0
  -24.1840  -36.7500   23.0640 C   0  0  0  0  0  1  0  0  0  0  0  0
  -25.4240  -36.3400   23.8760 C   0  0  0  0  0  3  0  0  0  0  0  0
  -27.5550  -37.2150   24.7240 C   0  0  0  0  0  1  0  0  0  0  0  0
  -26.4580  -37.3930   23.7770 N   0  0  0  0  0  0  0  0  0  0  0  0
  -26.0520  -38.3120   23.9330 H   0  0  0  0  0  0  0  0  0  0  0  0
  -26.4080  -31.7270   25.0980 C   0  0  1  0  0  0  0  0  0  0  0  0
  -25.3150  -31.4990   26.1660 C   0  0  0  0  0  1  0  0  0  0  0  0
  -26.9880  -30.3470   24.7110 C   0  0  0  0  0  1  0  0  0  0  0  0
  -27.5640  -32.5180   25.7570 C   0  0  0  0  0  1  0  0  0  0  0  0
  1  5  1  0
  1  2  1  0
  2  6  1  0
  3  1  2  0
  4  2  2  0
  4 53  1  0
  5  7  1  0
  7 13  1  0
  7  6  1  0
  8 10  2  0
  8  9  1  0
  9 12  2  0
 10 13  1  0
 12 11  1  0
 12 14  1  0
 13 11  2  0
 14 15  2  0
 15 16  1  0
 17 14  1  0
 18 23  1  0
 19 20  1  0
 19 18  1  0
 21 20  1  0
 21 28  1  0
 21 22  1  0
 23 17  1  0
 23 22  1  0
 24 17  2  0
 25 26  2  0
 26 45  1  0
 27 26  1  0
 27 30  1  0
 28 25  1  0
 28 29  1  0
 29 27  2  0
 30 31  1  0
 31 32  2  0
 33 36  1  0
 33 32  1  0
 34 33  2  0
 35 34  1  0
 35 30  2  0
 36 37  1  0
 37 38  1  0
 38 39  2  0
 40 39  1  0
 40 44  1  0
 41 40  2  0
 42 37  2  0
 42 41  1  0
 43 42  1  0
 45 46  1  0
 46 49  1  0
 46 48  1  0
 47 45  2  0
 50 51  1  0
 50 25  1  0
 52 50  1  0
 54 65  2  0
 55 53  1  0
 55 60  1  0
 56 64  1  0
 56 66  1  0
 57 63  1  0
 57 59  1  0
 58 64  1  0
 59 58  1  0
 60 59  2  0
 61 55  2  0
 62 61  1  0
 62 57  2  0
 63 56  1  0
 64 54  1  0
 66 68  2  0
 67 66  1  0
 69 67  1  0
 70 79  2  0
 70 75  1  0
 71 67  1  0
 71 75  1  0
 72 71  1  0
 73 74  1  0
 73 72  1  0
 74 70  1  0
 75 76  2  0
 76 77  1  0
 78 77  2  0
 79 78  1  0
 80 54  1  0
 80 81  1  0
 80 90  1  0
 81 84  1  0
 82 86  1  0
 82 81  1  0
 83 82  2  0
 86 85  1  0
 88 86  1  0
 88 89  1  0
 88 87  1  0
 90 93  1  1
 90 91  1  0
 92 90  1  0
M  ISO  4   4 101  14 100  17 100  53 101
M  END
>  <TORSDO>  (18) 
F 18

>  <SCORE>  (18) 
-15.147

>  <name>  (18) 
17

>  <ligand_id>  (18) 
17

>  <original_smiles>  (18) 
[H]N=C(C(=O)N1C([H])([H])C([H])([H])C([H])([H])C([H])(n2nc(-c3c([H])c([H])c(Oc4c([H])c([H])c(F)c([H])c4F)c([H])c3[H])c(C(=O)N([H])[H])c2N([H])[H])C1([H])[H])c1c([H])c([H])c([H])c(N2C([H])([H])C(=C([H])[H])C(=C([H])Oc3c([H])c([H])c4c(c3[H])C([H])([H])N(C(=O)C([H])(N([H])C(=O)C([H])(N([H])C([H])([H])[H])C([H])([H])[H])C(C([H])([H])[H])(C([H])([H])[H])C([H])([H])[H])C([H])(C(=O)N([H])C3([H])c5c([H])c([H])c([H])c([H])c5C([H])([H])C([H])([H])C3([H])[H])C4([H])[H])C2([H])[H])c1[H]

>  <smiles>  (18) 
[H]N=C(C(=O)N1C([H])([H])C([H])([H])C([H])([H])C([H])(n2nc(-c3c([H])c([H])c(Oc4c([H])c([H])c(F)c([H])c4F)c([H])c3[H])c(C(=O)N([H])[H])c2N([H])[H])C1([H])[H])c1c([H])c([H])c([H])c(N2C([H])([H])C(=C([H])[H])C(=C([H])Oc3c([H])c([H])c4c(c3[H])C([H])([H])N(C(=O)C([H])(N([H])C(=O)C([H])(N([H])C([H])([H])[H])C([H])([H])[H])C(C([H])([H])[H])(C([H])([H])[H])C([H])([H])[H])C([H])(C(=O)N([H])C3([H])c5c([H])c([H])c([H])c([H])c5C([H])([H])C([H])([H])C3([H])[H])C4([H])[H])C2([H])[H])c1[H]

$$$$
18:0:0
     RDKit          3D

 95104  0  0  1  0  0  0  0  0999 V2000
  -28.7120  -23.9660   20.2700 C   0  0  0  0  0  0  0  0  0  0  0  0
  -29.0820  -23.7780   21.6510 C   0  0  0  0  0  0  0  0  0  0  0  0
  -28.8030  -22.5850   19.6800 C   0  0  0  0  0  0  0  0  0  0  0  0
  -28.9930  -24.6950   22.6310 C   0  0  0  0  0  1  0  0  0  0  0  0
  -28.3900  -25.1530   19.6090 C   0  0  0  0  0  3  0  0  0  0  0  0
  -29.5530  -22.3560   21.8760 C   0  0  0  0  0  2  0  0  0  0  0  0
  -28.2100  -25.2160   18.0950 C   0  0  0  0  0  1  0  0  0  0  0  0
  -29.2590  -21.6680   20.6130 N   0  0  0  0  0  0  0  0  0  0  0  0
  -28.5200  -22.2650   18.5220 O   0  0  0  0  0  0  0  0  0  0  0  0
  -30.5470  -19.5200   21.1230 C   0  0  0  0  0  3  0  0  0  0  0  0
  -30.6980  -18.0910   21.1200 C   0  0  0  0  0  3  0  0  0  0  0  0
  -28.5260  -19.3300   19.8500 C   0  0  0  0  0  3  0  0  0  0  0  0
  -29.4540  -20.1960   20.4960 C   0  0  0  0  0  0  0  0  0  0  0  0
  -29.7350  -17.2360   20.5170 C   0  0  0  0  0  0  0  0  0  0  0  0
  -28.6490  -17.9030   19.8840 C   0  0  0  0  0  0  0  0  0  0  0  0
  -27.6750  -17.1470   19.3210 F   0  0  0  0  0  0  0  0  0  0  0  0
  -30.5500  -14.7330   20.4070 C   0  0  0  0  0  0  0  0  0  0  0  0
  -30.3960  -12.4690   19.3650 C   0  0  0  0  0  2  0  0  0  0  0  0
  -29.4470  -12.5640   18.1490 C   0  0  0  0  0  2  0  0  0  0  0  0
  -27.9750  -12.3910   18.5770 C   0  0  0  0  0  2  0  0  0  0  0  0
  -27.6050  -13.2610   19.8060 C   0  0  0  0  0  3  0  0  0  0  0  0
  -28.6650  -13.1260   20.9230 C   0  0  0  0  0  2  0  0  0  0  0  0
  -29.9660  -13.4900   20.3420 N   0  0  0  0  0  0  0  0  0  0  0  0
  -31.7270  -14.9030   20.0740 O   0  0  0  0  0  0  0  0  0  0  0  0
  -29.6810  -15.7710   20.6550 N   0  0  0  0  0  0  0  0  0  0  0  0
  -28.7390  -15.4300   20.7650 H   0  0  0  0  0  0  0  0  0  0  0  0
  -25.2120  -13.8610   20.5190 C   0  0  0  0  0  0  0  0  0  0  0  0
  -24.1450  -13.0890   20.8930 C   0  0  0  0  0  0  0  0  0  0  0  0
  -24.6100  -11.7380   20.8680 C   0  0  0  0  0  0  0  0  0  0  0  0
  -26.2580  -12.9800   20.2910 N   0  0  0  0  0  0  0  0  0  0  0  0
  -25.9000  -11.6990   20.5610 N   0  0  0  0  0  0  0  0  0  0  0  0
  -23.8840  -10.4760   21.0610 C   0  0  0  0  0  0  0  0  0  0  0  0
  -24.3260   -9.5040   21.9860 C   0  0  0  0  0  3  0  0  0  0  0  0
  -23.6010   -8.3050   22.1670 C   0  0  0  0  0  3  0  0  0  0  0  0
  -22.4210   -8.0710   21.4230 C   0  0  0  0  0  0  0  0  0  0  0  0
  -21.9990   -9.0310   20.4870 C   0  0  0  0  0  3  0  0  0  0  0  0
  -22.7230  -10.2210   20.3040 C   0  0  0  0  0  3  0  0  0  0  0  0
  -21.6670   -6.9250   21.5140 O   0  0  0  0  0  0  0  0  0  0  0  0
  -21.6380   -6.1720   22.6600 C   0  0  0  0  0  0  0  0  0  0  0  0
  -21.2380   -6.7170   23.9000 C   0  0  0  0  0  3  0  0  0  0  0  0
  -21.1560   -5.8900   25.0380 C   0  0  0  0  0  3  0  0  0  0  0  0
  -21.4630   -4.5190   24.9370 C   0  0  0  0  0  0  0  0  0  0  0  0
  -21.8570   -3.9740   23.7020 C   0  0  0  0  0  3  0  0  0  0  0  0
  -21.9410   -4.7980   22.5660 C   0  0  0  0  0  0  0  0  0  0  0  0
  -22.2990   -4.2640   21.3740 F   0  0  0  0  0  0  0  0  0  0  0  0
  -21.3780   -3.7230   26.0280 F   0  0  0  0  0  0  0  0  0  0  0  0
  -22.7470  -13.5650   21.1580 C   0  0  0  0  0  0  0  0  0  0  0  0
  -22.0170  -12.8720   22.0260 N   0  0  0  0  0  0  0  0  0  0  0  0
  -22.3080  -14.5870   20.6320 O   0  0  0  0  0  0  0  0  0  0  0  0
  -22.3840  -12.0450   22.4740 H   0  0  0  0  0  0  0  0  0  0  0  0
  -21.0800  -13.1740   22.2470 H   0  0  0  0  0  0  0  0  0  0  0  0
  -25.3720  -15.2320   20.3340 N   0  0  0  0  0  0  0  0  0  0  0  0
  -24.5930  -15.8720   20.4290 H   0  0  0  0  0  0  0  0  0  0  0  0
  -26.1960  -15.6770   19.9440 H   0  0  0  0  0  0  0  0  0  0  0  0
  -28.3550  -26.4580   20.1850 O   0  0  0  0  0  0  0  0  0  0  0  0
  -24.6470  -31.8870   23.2480 C   0  0  0  0  0  0  0  0  0  0  0  0
  -27.2250  -27.3120   20.1440 C   0  0  0  0  0  0  0  0  0  0  0  0
  -23.4250  -30.4940   21.6190 C   0  0  0  0  0  3  0  0  0  0  0  0
  -24.8570  -28.9420   20.1760 C   0  0  0  0  0  0  0  0  0  0  0  0
  -25.9650  -30.8060   21.4070 C   0  0  0  0  0  2  0  0  0  0  0  0
  -26.0370  -29.4260   20.7550 C   0  0  0  0  0  0  0  0  0  0  0  0
  -27.2210  -28.6230   20.7260 C   0  0  0  0  0  3  0  0  0  0  0  0
  -26.0030  -26.8760   19.5800 C   0  0  0  0  0  3  0  0  0  0  0  0
  -24.8430  -27.6730   19.5810 C   0  0  0  0  0  3  0  0  0  0  0  0
  -23.6250  -29.8220   20.2360 C   0  0  0  0  0  2  0  0  0  0  0  0
  -24.6990  -31.0800   22.1480 N   0  0  0  0  0  0  0  0  0  0  0  0
  -23.5690  -32.1660   23.7930 O   0  0  0  0  0  0  0  0  0  0  0  0
  -22.7700  -29.4770   22.5840 C   0  0  0  0  0  0  0  0  0  0  0  0
  -21.4440  -29.2930   22.4620 N   0  0  0  0  0  0  0  0  0  0  0  0
  -23.4540  -28.8570   23.4020 O   0  0  0  0  0  0  0  0  0  0  0  0
  -20.9510  -29.8440   21.7740 H   0  0  0  0  0  0  0  0  0  0  0  0
  -18.0770  -28.0640   22.9620 C   0  0  0  0  0  0  0  0  0  0  0  0
  -20.6310  -28.3530   23.2380 C   0  0  0  0  0  3  0  0  0  0  0  0
  -20.7500  -26.9180   22.6730 C   0  0  0  0  0  2  0  0  0  0  0  0
  -19.6540  -26.5770   21.6580 C   0  0  0  0  0  2  0  0  0  0  0  0
  -18.2690  -26.7130   22.2970 C   0  0  0  0  0  2  0  0  0  0  0  0
  -19.1860  -28.8420   23.3890 C   0  0  0  0  0  0  0  0  0  0  0  0
  -18.9520  -30.1070   23.9710 C   0  0  0  0  0  3  0  0  0  0  0  0
  -17.6420  -30.5960   24.1300 C   0  0  0  0  0  3  0  0  0  0  0  0
  -16.5470  -29.8160   23.7190 C   0  0  0  0  0  3  0  0  0  0  0  0
  -16.7640  -28.5530   23.1410 C   0  0  0  0  0  3  0  0  0  0  0  0
  -25.9350  -32.5170   23.8600 C   0  0  0  0  0  3  0  0  0  0  0  0
  -25.6290  -33.9140   24.2020 N   0  0  0  0  0  0  0  0  0  0  0  0
  -25.9410  -34.9710   23.4400 C   0  0  0  0  0  0  0  0  0  0  0  0
  -26.5890  -34.8730   22.3930 O   0  0  0  0  0  0  0  0  0  0  0  0
  -25.0510  -34.0650   25.0160 H   0  0  0  0  0  0  0  0  0  0  0  0
  -24.1980  -36.7590   23.1340 C   0  0  0  0  0  1  0  0  0  0  0  0
  -25.4610  -36.3570   23.9110 C   0  0  0  0  0  3  0  0  0  0  0  0
  -27.6150  -37.2490   24.6850 C   0  0  0  0  0  1  0  0  0  0  0  0
  -26.4870  -37.4140   23.7730 N   0  0  0  0  0  0  0  0  0  0  0  0
  -26.0810  -38.3330   23.9310 H   0  0  0  0  0  0  0  0  0  0  0  0
  -26.4630  -31.7400   25.1280 C   0  0  1  0  0  0  0  0  0  0  0  0
  -25.3800  -31.5010   26.2080 C   0  0  0  0  0  1  0  0  0  0  0  0
  -27.0360  -30.3610   24.7250 C   0  0  0  0  0  1  0  0  0  0  0  0
  -27.6240  -32.5270   25.7800 C   0  0  0  0  0  1  0  0  0  0  0  0
  1  2  2  0
  2  6  1  0
  2  4  1  0
  3  1  1  0
  3  8  1  0
  5  7  1  0
  5 55  1  0
  5  1  1  0
  8  6  1  0
  9  3  2  0
 11 10  1  0
 12 15  2  0
 12 13  1  0
 13  8  1  0
 13 10  2  0
 14 25  1  0
 14 11  2  0
 15 14  1  0
 16 15  1  0
 17 25  1  0
 18 23  1  0
 19 20  1  0
 19 18  1  0
 21 20  1  0
 21 30  1  0
 21 22  1  0
 23 17  1  0
 23 22  1  0
 24 17  2  0
 25 26  1  0
 27 28  2  0
 28 47  1  0
 29 28  1  0
 29 32  1  0
 30 27  1  0
 30 31  1  0
 31 29  2  0
 32 33  1  0
 33 34  2  0
 35 38  1  0
 35 34  1  0
 36 35  2  0
 37 36  1  0
 37 32  2  0
 38 39  1  0
 39 40  1  0
 40 41  2  0
 42 41  1  0
 42 46  1  0
 43 42  2  0
 44 39  2  0
 44 43  1  0
 45 44  1  0
 47 48  1  0
 48 51  1  0
 48 50  1  0
 49 47  2  0
 52 53  1  0
 52 27  1  0
 54 52  1  0
 56 67  2  0
 57 55  1  0
 57 62  1  0
 58 66  1  0
 58 68  1  0
 59 65  1  0
 59 61  1  0
 60 66  1  0
 61 60  1  0
 62 61  2  0
 63 64  1  0
 63 57  2  0
 64 59  2  0
 65 58  1  0
 66 56  1  0
 68 70  2  0
 69 68  1  0
 71 69  1  0
 72 81  2  0
 72 77  1  0
 73 69  1  0
 73 77  1  0
 74 73  1  0
 75 76  1  0
 75 74  1  0
 76 72  1  0
 77 78  2  0
 78 79  1  0
 80 79  2  0
 81 80  1  0
 82 56  1  0
 82 83  1  0
 82 92  1  0
 83 86  1  0
 84 88  1  0
 84 83  1  0
 85 84  2  0
 88 87  1  0
 90 88  1  0
 90 91  1  0
 90 89  1  0
 92 95  1  1
 92 93  1  0
 94 92  1  0
M  ISO  4   5 101  17 100  25 100  55 101
M  END
>  <TORSDO>  (19) 
F 17

>  <SCORE>  (19) 
-15.706

>  <name>  (19) 
18

>  <ligand_id>  (19) 
18

>  <original_smiles>  (19) 
[H]C([H])=C1C(=C(Oc2c([H])c([H])c3c(c2[H])C([H])([H])N(C(=O)C([H])(N([H])C(=O)C([H])(N([H])C([H])([H])[H])C([H])([H])[H])C(C([H])([H])[H])(C([H])([H])[H])C([H])([H])[H])C([H])(C(=O)N([H])C2([H])c4c([H])c([H])c([H])c([H])c4C([H])([H])C([H])([H])C2([H])[H])C3([H])[H])C([H])([H])[H])C(=O)N(c2c([H])c([H])c(N([H])C(=O)N3C([H])([H])C([H])([H])C([H])([H])C([H])(n4nc(-c5c([H])c([H])c(Oc6c([H])c([H])c(F)c([H])c6F)c([H])c5[H])c(C(=O)N([H])[H])c4N([H])[H])C3([H])[H])c(F)c2[H])C1([H])[H]

>  <smiles>  (19) 
[H]C([H])=C1C(=C(Oc2c([H])c([H])c3c(c2[H])C([H])([H])N(C(=O)C([H])(N([H])C(=O)C([H])(N([H])C([H])([H])[H])C([H])([H])[H])C(C([H])([H])[H])(C([H])([H])[H])C([H])([H])[H])C([H])(C(=O)N([H])C2([H])c4c([H])c([H])c([H])c([H])c4C([H])([H])C([H])([H])C2([H])[H])C3([H])[H])C([H])([H])[H])C(=O)N(c2c([H])c([H])c(N([H])C(=O)N3C([H])([H])C([H])([H])C([H])([H])C([H])(n4nc(-c5c([H])c([H])c(Oc6c([H])c([H])c(F)c([H])c6F)c([H])c5[H])c(C(=O)N([H])[H])c4N([H])[H])C3([H])[H])c(F)c2[H])C1([H])[H]

$$$$
19:0:0
     RDKit          3D

103112  0  0  1  0  0  0  0  0999 V2000
  -29.8080  -18.8210   20.7850 C   0  0  0  0  0  3  0  0  0  0  0  0
  -29.9840  -17.7850   18.6070 C   0  0  0  0  0  3  0  0  0  0  0  0
  -29.4960  -20.0550   20.1770 C   0  0  0  0  0  3  0  0  0  0  0  0
  -29.6850  -19.0200   17.9960 C   0  0  0  0  0  3  0  0  0  0  0  0
  -30.0960  -17.6670   20.0120 C   0  0  0  0  0  0  0  0  0  0  0  0
  -29.4620  -20.1830   18.7700 C   0  0  0  0  0  0  0  0  0  0  0  0
  -28.7530  -23.6210   17.6320 C   0  0  0  0  0  0  0  0  0  0  0  0
  -29.8400  -23.2520   16.7680 C   0  0  0  0  0  0  0  0  0  0  0  0
  -28.4450  -22.4600   18.4660 C   0  0  0  0  0  0  0  0  0  0  0  0
  -30.4800  -24.0510   15.8940 C   0  0  0  0  0  2  0  0  0  0  0  0
  -28.1130  -24.8180   17.6270 C   0  0  0  0  0  3  0  0  0  0  0  0
  -30.1800  -21.8160   17.0020 C   0  0  0  0  0  2  0  0  0  0  0  0
  -29.3080  -21.4580   18.1260 N   0  0  0  0  0  0  0  0  0  0  0  0
  -27.5490  -22.3680   19.3120 O   0  0  0  0  0  0  0  0  0  0  0  0
  -26.9230  -25.2930   18.4440 C   0  0  0  0  0  2  0  0  0  0  0  0
  -27.1840  -26.5860   18.9980 O   0  0  0  0  0  0  0  0  0  0  0  0
  -24.7800  -31.6000   23.4410 C   0  0  0  0  0  0  0  0  0  0  0  0
  -26.1160  -27.3930   19.3440 C   0  0  0  0  0  0  0  0  0  0  0  0
  -23.0920  -30.6100   21.9300 C   0  0  0  0  0  3  0  0  0  0  0  0
  -24.0060  -29.1420   20.0600 C   0  0  0  0  0  0  0  0  0  0  0  0
  -25.5580  -30.6960   21.2520 C   0  0  0  0  0  2  0  0  0  0  0  0
  -25.3190  -29.4350   20.4470 C   0  0  0  0  0  0  0  0  0  0  0  0
  -26.3740  -28.5680   20.0880 C   0  0  0  0  0  3  0  0  0  0  0  0
  -24.7780  -27.1050   18.9800 C   0  0  0  0  0  3  0  0  0  0  0  0
  -23.7300  -27.9760   19.3280 C   0  0  0  0  0  3  0  0  0  0  0  0
  -22.9320  -30.1240   20.4660 C   0  0  0  0  0  2  0  0  0  0  0  0
  -24.5080  -30.9730   22.2620 N   0  0  0  0  0  0  0  0  0  0  0  0
  -23.8730  -31.9140   24.2240 O   0  0  0  0  0  0  0  0  0  0  0  0
  -22.4960  -29.5390   22.8730 C   0  0  0  0  0  0  0  0  0  0  0  0
  -21.1950  -29.2510   22.7040 N   0  0  0  0  0  0  0  0  0  0  0  0
  -23.2020  -28.9700   23.7090 O   0  0  0  0  0  0  0  0  0  0  0  0
  -20.6850  -29.7670   22.0020 H   0  0  0  0  0  0  0  0  0  0  0  0
  -18.0250  -27.5270   22.8500 C   0  0  0  0  0  0  0  0  0  0  0  0
  -20.4320  -28.2520   23.4510 C   0  0  0  0  0  3  0  0  0  0  0  0
  -20.8540  -26.8190   23.0530 C   0  0  0  0  0  2  0  0  0  0  0  0
  -19.9920  -26.2230   21.9360 C   0  0  0  0  0  2  0  0  0  0  0  0
  -18.5210  -26.1770   22.3590 C   0  0  0  0  0  2  0  0  0  0  0  0
  -18.9240  -28.5060   23.3480 C   0  0  0  0  0  0  0  0  0  0  0  0
  -18.4150  -29.7570   23.7590 C   0  0  0  0  0  3  0  0  0  0  0  0
  -17.0360  -30.0340   23.6830 C   0  0  0  0  0  3  0  0  0  0  0  0
  -16.1490  -29.0550   23.2050 C   0  0  0  0  0  3  0  0  0  0  0  0
  -16.6430  -27.8040   22.7940 C   0  0  0  0  0  3  0  0  0  0  0  0
  -26.2390  -31.9760   23.8500 C   0  0  0  0  0  3  0  0  0  0  0  0
  -26.2280  -33.3770   24.2880 N   0  0  0  0  0  0  0  0  0  0  0  0
  -26.6430  -34.4100   23.5430 C   0  0  0  0  0  0  0  0  0  0  0  0
  -27.1490  -34.2700   22.4260 O   0  0  0  0  0  0  0  0  0  0  0  0
  -25.7770  -33.5720   25.1700 H   0  0  0  0  0  0  0  0  0  0  0  0
  -25.2360  -36.4940   23.5000 C   0  0  0  0  0  1  0  0  0  0  0  0
  -26.4670  -35.8240   24.1300 C   0  0  0  0  0  3  0  0  0  0  0  0
  -28.8120  -36.2490   24.7220 C   0  0  0  0  0  1  0  0  0  0  0  0
  -27.6540  -36.6890   23.9490 N   0  0  0  0  0  0  0  0  0  0  0  0
  -27.4420  -37.6480   24.2110 H   0  0  0  0  0  0  0  0  0  0  0  0
  -26.8290  -31.0420   24.9770 C   0  0  1  0  0  0  0  0  0  0  0  0
  -25.8800  -30.8460   26.1810 C   0  0  0  0  0  1  0  0  0  0  0  0
  -27.1640  -29.6450   24.4070 C   0  0  0  0  0  1  0  0  0  0  0  0
  -28.1570  -31.6350   25.5060 C   0  0  0  0  0  1  0  0  0  0  0  0
  -30.2400  -16.2560   22.1430 C   0  0  0  0  0  1  0  0  0  0  0  0
  -30.6330  -16.3540   20.6460 C   0  0  1  0  0  0  0  0  0  0  0  0
  -30.2910  -14.3650   19.0210 C   0  0  0  0  0  0  0  0  0  0  0  0
  -29.7750  -12.2000   17.9380 C   0  0  0  0  0  2  0  0  0  0  0  0
  -28.5610  -12.3130   16.9970 C   0  0  0  0  0  2  0  0  0  0  0  0
  -27.2430  -12.1190   17.7730 C   0  0  0  0  0  2  0  0  0  0  0  0
  -27.1740  -12.9940   19.0520 C   0  0  0  0  0  3  0  0  0  0  0  0
  -28.4660  -12.8420   19.8810 C   0  0  0  0  0  2  0  0  0  0  0  0
  -29.6110  -13.1870   19.0160 N   0  0  0  0  0  0  0  0  0  0  0  0
  -31.1380  -14.6520   18.1720 O   0  0  0  0  0  0  0  0  0  0  0  0
  -29.9960  -15.1570   20.0670 N   0  0  0  0  0  0  0  0  0  0  0  0
  -29.2470  -14.7860   20.6290 H   0  0  0  0  0  0  0  0  0  0  0  0
  -25.0650  -13.5500   20.4240 C   0  0  0  0  0  0  0  0  0  0  0  0
  -24.1080  -12.7530   20.9930 C   0  0  0  0  0  0  0  0  0  0  0  0
  -24.5030  -11.4080   20.7190 C   0  0  0  0  0  0  0  0  0  0  0  0
  -25.9850  -12.6880   19.8460 N   0  0  0  0  0  0  0  0  0  0  0  0
  -25.6630  -11.3890   20.0760 N   0  0  0  0  0  0  0  0  0  0  0  0
  -23.8140  -10.1370   20.9830 C   0  0  0  0  0  0  0  0  0  0  0  0
  -24.3630   -9.1660   21.8490 C   0  0  0  0  0  3  0  0  0  0  0  0
  -23.6730   -7.9600   22.1000 C   0  0  0  0  0  3  0  0  0  0  0  0
  -22.4210   -7.7170   21.4860 C   0  0  0  0  0  0  0  0  0  0  0  0
  -21.8920   -8.6770   20.6060 C   0  0  0  0  0  3  0  0  0  0  0  0
  -22.5810   -9.8750   20.3530 C   0  0  0  0  0  3  0  0  0  0  0  0
  -21.6930   -6.5630   21.6510 O   0  0  0  0  0  0  0  0  0  0  0  0
  -21.6810   -5.8840   22.8420 C   0  0  0  0  0  0  0  0  0  0  0  0
  -21.2300   -6.4840   24.0380 C   0  0  0  0  0  3  0  0  0  0  0  0
  -21.1680   -5.7280   25.2250 C   0  0  0  0  0  3  0  0  0  0  0  0
  -21.5460   -4.3720   25.2190 C   0  0  0  0  0  0  0  0  0  0  0  0
  -21.9910   -3.7710   24.0280 C   0  0  0  0  0  3  0  0  0  0  0  0
  -22.0550   -4.5250   22.8420 C   0  0  0  0  0  0  0  0  0  0  0  0
  -22.4640   -3.9350   21.6930 F   0  0  0  0  0  0  0  0  0  0  0  0
  -21.4790   -3.6430   26.3570 F   0  0  0  0  0  0  0  0  0  0  0  0
  -22.8490  -13.2110   21.6710 C   0  0  0  0  0  0  0  0  0  0  0  0
  -22.3720  -12.4550   22.6530 N   0  0  0  0  0  0  0  0  0  0  0  0
  -22.3060  -14.2710   21.3620 O   0  0  0  0  0  0  0  0  0  0  0  0
  -22.8280  -11.5950   22.9190 H   0  0  0  0  0  0  0  0  0  0  0  0
  -21.5380  -12.7400   23.1460 H   0  0  0  0  0  0  0  0  0  0  0  0
  -25.2210  -14.9300   20.3340 N   0  0  0  0  0  0  0  0  0  0  0  0
  -24.5340  -15.5780   20.7000 H   0  0  0  0  0  0  0  0  0  0  0  0
  -25.9810  -15.3910   19.8470 H   0  0  0  0  0  0  0  0  0  0  0  0
  -32.8880  -15.4690   21.6460 C   0  0  0  0  0  1  0  0  0  0  0  0
  -32.2080  -16.3010   20.5300 C   0  0  0  0  0  3  0  0  0  0  0  0
  -32.8740  -17.7050   20.4130 C   0  0  0  0  0  2  0  0  0  0  0  0
  -33.9990  -17.7330   19.4590 N   0  0  0  0  0  4  0  0  0  0  0  0
  -34.7460  -17.1320   19.7590 H   0  0  0  0  0  0  0  0  0  0  0  0
  -34.3640  -18.6670   19.3930 H   0  0  0  0  0  0  0  0  0  0  0  0
  -33.7030  -17.4510   18.5410 H   0  0  0  0  0  0  0  0  0  0  0  0
  2  5  1  0
  3  1  1  0
  4  2  2  0
  4  6  1  0
  5 58  1  0
  5  1  2  0
  6  3  2  0
  7  9  1  0
  8 12  1  0
  8  7  1  0
  9 14  2  0
 10  8  2  0
 11  7  2  0
 11 15  1  0
 12 13  1  0
 13  9  1  0
 13  6  1  0
 15 16  1  0
 16 18  1  0
 17 28  2  0
 18 23  1  0
 19 27  1  0
 19 29  1  0
 20 22  1  0
 20 26  1  0
 21 27  1  0
 22 21  1  0
 23 22  2  0
 24 25  1  0
 24 18  2  0
 25 20  2  0
 26 19  1  0
 27 17  1  0
 29 31  2  0
 30 29  1  0
 32 30  1  0
 33 38  1  0
 34 30  1  0
 35 34  1  0
 36 37  1  0
 36 35  1  0
 37 33  1  0
 38 34  1  0
 38 39  2  0
 40 39  1  0
 41 40  2  0
 42 33  2  0
 42 41  1  0
 43 17  1  0
 43 44  1  0
 43 53  1  0
 44 47  1  0
 45 49  1  0
 45 44  1  0
 46 45  2  0
 49 48  1  0
 51 49  1  0
 51 52  1  0
 51 50  1  0
 53 56  1  1
 53 54  1  0
 55 53  1  0
 58 57  1  1
 59 67  1  0
 60 65  1  0
 61 62  1  0
 61 60  1  0
 63 62  1  0
 63 72  1  0
 63 64  1  0
 65 59  1  0
 65 64  1  0
 66 59  2  0
 67 68  1  0
 67 58  1  0
 69 70  2  0
 70 89  1  0
 71 74  1  0
 71 70  1  0
 72 73  1  0
 72 69  1  0
 73 71  2  0
 74 75  1  0
 75 76  2  0
 77 80  1  0
 77 76  1  0
 78 77  2  0
 79 78  1  0
 79 74  2  0
 80 81  1  0
 81 86  2  0
 81 82  1  0
 82 83  2  0
 84 83  1  0
 84 88  1  0
 85 84  2  0
 86 85  1  0
 87 86  1  0
 89 90  1  0
 90 92  1  0
 90 93  1  0
 91 89  2  0
 94 69  1  0
 94 95  1  0
 96 94  1  0
 98 58  1  0
 98 97  1  0
 99 98  1  0
100101  1  0
100 99  1  0
102100  1  0
103100  1  0
M  ISO  4  15 101  16 101  59 100  67 100
M  END
>  <TORSDO>  (20) 
F 22

>  <SCORE>  (20) 
-6.992

>  <name>  (20) 
19

>  <ligand_id>  (20) 
19

>  <original_smiles>  (20) 
[H]C([H])=C1C(=C([H])C([H])([H])Oc2c([H])c([H])c3c(c2[H])C([H])([H])N(C(=O)C([H])(N([H])C(=O)C([H])(N([H])C([H])([H])[H])C([H])([H])[H])C(C([H])([H])[H])(C([H])([H])[H])C([H])([H])[H])C([H])(C(=O)N([H])C2([H])c4c([H])c([H])c([H])c([H])c4C([H])([H])C([H])([H])C2([H])[H])C3([H])[H])C(=O)N(c2c([H])c([H])c(C(N([H])C(=O)N3C([H])([H])C([H])([H])C([H])([H])C([H])(n4nc(-c5c([H])c([H])c(Oc6c([H])c([H])c(F)c([H])c6F)c([H])c5[H])c(C(=O)N([H])[H])c4N([H])[H])C3([H])[H])(C([H])([H])[H])C([H])(C([H])([H])[H])C([H])([H])[N+]([H])([H])[H])c([H])c2[H])C1([H])[H]

>  <smiles>  (20) 
[H]C([H])=C1C(=C([H])C([H])([H])Oc2c([H])c([H])c3c(c2[H])C([H])([H])N(C(=O)C([H])(N([H])C(=O)C([H])(N([H])C([H])([H])[H])C([H])([H])[H])C(C([H])([H])[H])(C([H])([H])[H])C([H])([H])[H])C([H])(C(=O)N([H])C2([H])c4c([H])c([H])c([H])c([H])c4C([H])([H])C([H])([H])C2([H])[H])C3([H])[H])C(=O)N(c2c([H])c([H])c(C(N([H])C(=O)N3C([H])([H])C([H])([H])C([H])([H])C([H])(n4nc(-c5c([H])c([H])c(Oc6c([H])c([H])c(F)c([H])c6F)c([H])c5[H])c(C(=O)N([H])[H])c4N([H])[H])C3([H])[H])(C([H])([H])[H])C([H])(C([H])([H])[H])C([H])([H])[N+]([H])([H])[H])c([H])c2[H])C1([H])[H]

$$$$
20:0:0
     RDKit          3D

 91 99  0  0  1  0  0  0  0  0999 V2000
  -29.9310  -22.2420   20.5510 C   0  0  0  0  0  3  0  0  0  0  0  0
  -29.6100  -23.3850   21.0350 N   0  0  0  0  0  0  0  0  0  0  0  0
  -28.9390  -24.3030   20.2310 C   0  0  0  0  0  0  0  0  0  0  0  0
  -28.6570  -24.1970   19.0340 O   0  0  0  0  0  0  0  0  0  0  0  0
  -28.5250  -25.5750   21.0030 C   0  0  0  0  0  2  0  0  0  0  0  0
  -28.5340  -26.7430   20.1660 O   0  0  0  0  0  0  0  0  0  0  0  0
  -24.6370  -31.8560   23.2580 C   0  0  0  0  0  0  0  0  0  0  0  0
  -27.3640  -27.4660   20.1820 C   0  0  0  0  0  0  0  0  0  0  0  0
  -23.4620  -30.4470   21.5980 C   0  0  0  0  0  3  0  0  0  0  0  0
  -24.9470  -28.9310   20.1810 C   0  0  0  0  0  0  0  0  0  0  0  0
  -25.9840  -30.8390   21.4240 C   0  0  0  0  0  2  0  0  0  0  0  0
  -26.0930  -29.4710   20.7800 C   0  0  0  0  0  0  0  0  0  0  0  0
  -27.3070  -28.7470   20.7760 C   0  0  0  0  0  3  0  0  0  0  0  0
  -26.2040  -26.9330   19.5830 C   0  0  0  0  0  3  0  0  0  0  0  0
  -24.9960  -27.6600   19.5800 C   0  0  0  0  0  3  0  0  0  0  0  0
  -23.6920  -29.7730   20.2180 C   0  0  0  0  0  2  0  0  0  0  0  0
  -24.7120  -31.0620   22.1520 N   0  0  0  0  0  0  0  0  0  0  0  0
  -23.5480  -32.1140   23.7890 O   0  0  0  0  0  0  0  0  0  0  0  0
  -22.8140  -29.4150   22.5500 C   0  0  0  0  0  0  0  0  0  0  0  0
  -21.4940  -29.2120   22.4010 N   0  0  0  0  0  0  0  0  0  0  0  0
  -23.4960  -28.8000   23.3730 O   0  0  0  0  0  0  0  0  0  0  0  0
  -21.0060  -29.7620   21.7090 H   0  0  0  0  0  0  0  0  0  0  0  0
  -18.1350  -27.9540   22.8330 C   0  0  0  0  0  0  0  0  0  0  0  0
  -20.6810  -28.2600   23.1570 C   0  0  0  0  0  3  0  0  0  0  0  0
  -20.8220  -26.8310   22.5860 C   0  0  0  0  0  2  0  0  0  0  0  0
  -19.7470  -26.4850   21.5500 C   0  0  0  0  0  2  0  0  0  0  0  0
  -18.3500  -26.6060   22.1650 C   0  0  0  0  0  2  0  0  0  0  0  0
  -19.2300  -28.7380   23.2840 C   0  0  0  0  0  0  0  0  0  0  0  0
  -18.9750  -29.9990   23.8650 C   0  0  0  0  0  3  0  0  0  0  0  0
  -17.6570  -30.4760   24.0020 C   0  0  0  0  0  3  0  0  0  0  0  0
  -16.5770  -29.6880   23.5680 C   0  0  0  0  0  3  0  0  0  0  0  0
  -16.8160  -28.4300   22.9890 C   0  0  0  0  0  3  0  0  0  0  0  0
  -25.9110  -32.4980   23.8930 C   0  0  0  0  0  3  0  0  0  0  0  0
  -26.4140  -31.7370   25.1810 C   0  0  1  0  0  0  0  0  0  0  0  0
  -25.3070  -31.4970   26.2350 C   0  0  0  0  0  1  0  0  0  0  0  0
  -27.0120  -30.3610   24.8040 C   0  0  0  0  0  1  0  0  0  0  0  0
  -27.5490  -32.5430   25.8570 C   0  0  0  0  0  1  0  0  0  0  0  0
  -25.5930  -33.8960   24.2070 N   0  0  0  0  0  0  0  0  0  0  0  0
  -25.9280  -34.9420   23.4410 C   0  0  0  0  0  0  0  0  0  0  0  0
  -26.6090  -34.8310   22.4170 O   0  0  0  0  0  0  0  0  0  0  0  0
  -24.9900  -34.0560   25.0010 H   0  0  0  0  0  0  0  0  0  0  0  0
  -24.1960  -36.7220   23.0430 C   0  0  0  0  0  1  0  0  0  0  0  0
  -25.4270  -36.3320   23.8770 C   0  0  0  0  0  3  0  0  0  0  0  0
  -27.5420  -37.2370   24.7330 C   0  0  0  0  0  1  0  0  0  0  0  0
  -26.4560  -37.3890   23.7690 N   0  0  0  0  0  0  0  0  0  0  0  0
  -26.0420  -38.3080   23.9010 H   0  0  0  0  0  0  0  0  0  0  0  0
  -30.7710  -21.2480   21.3550 C   0  0  0  0  0  2  0  0  0  0  0  0
  -29.3300  -19.1300   21.1220 C   0  0  0  0  0  3  0  0  0  0  0  0
  -31.7370  -18.9340   20.8800 C   0  0  0  0  0  3  0  0  0  0  0  0
  -29.2110  -17.7270   21.0030 C   0  0  0  0  0  3  0  0  0  0  0  0
  -31.6180  -17.5320   20.7620 C   0  0  0  0  0  3  0  0  0  0  0  0
  -30.5990  -19.7490   21.0740 C   0  0  0  0  0  0  0  0  0  0  0  0
  -30.3490  -16.9050   20.8300 C   0  0  0  0  0  0  0  0  0  0  0  0
  -30.8370  -14.5250   20.1230 C   0  0  0  0  0  0  0  0  0  0  0  0
  -30.4770  -12.4090   18.9050 C   0  0  0  0  0  2  0  0  0  0  0  0
  -29.4610  -12.6640   17.7710 C   0  0  0  0  0  2  0  0  0  0  0  0
  -28.0150  -12.5130   18.2860 C   0  0  0  0  0  2  0  0  0  0  0  0
  -27.7620  -13.2950   19.6030 C   0  0  0  0  0  3  0  0  0  0  0  0
  -28.8810  -13.0160   20.6310 C   0  0  0  0  0  2  0  0  0  0  0  0
  -30.1700  -13.3470   19.9970 N   0  0  0  0  0  0  0  0  0  0  0  0
  -31.9270  -14.7290   19.5780 O   0  0  0  0  0  0  0  0  0  0  0  0
  -30.1490  -15.4870   20.7740 N   0  0  0  0  0  0  0  0  0  0  0  0
  -29.2700  -15.1610   21.1450 H   0  0  0  0  0  0  0  0  0  0  0  0
  -25.4130  -13.8880   20.4730 C   0  0  0  0  0  0  0  0  0  0  0  0
  -24.3640  -13.1060   20.8800 C   0  0  0  0  0  0  0  0  0  0  0  0
  -24.8170  -11.7560   20.7770 C   0  0  0  0  0  0  0  0  0  0  0  0
  -26.4370  -13.0110   20.1510 N   0  0  0  0  0  0  0  0  0  0  0  0
  -26.0850  -11.7220   20.3890 N   0  0  0  0  0  0  0  0  0  0  0  0
  -24.0980  -10.4900   20.9710 C   0  0  0  0  0  0  0  0  0  0  0  0
  -24.5400   -9.5260   21.9050 C   0  0  0  0  0  3  0  0  0  0  0  0
  -23.8230   -8.3230   22.0850 C   0  0  0  0  0  3  0  0  0  0  0  0
  -22.6510   -8.0760   21.3320 C   0  0  0  0  0  0  0  0  0  0  0  0
  -22.2270   -9.0290   20.3880 C   0  0  0  0  0  3  0  0  0  0  0  0
  -22.9460  -10.2230   20.2060 C   0  0  0  0  0  3  0  0  0  0  0  0
  -21.9050   -6.9250   21.4220 O   0  0  0  0  0  0  0  0  0  0  0  0
  -21.8020   -6.2240   22.5960 C   0  0  0  0  0  0  0  0  0  0  0  0
  -21.2630   -6.8050   23.7660 C   0  0  0  0  0  3  0  0  0  0  0  0
  -21.1100   -6.0280   24.9310 C   0  0  0  0  0  3  0  0  0  0  0  0
  -21.4850   -4.6720   24.9290 C   0  0  0  0  0  0  0  0  0  0  0  0
  -22.0160   -4.0890   23.7650 C   0  0  0  0  0  3  0  0  0  0  0  0
  -22.1710   -4.8640   22.6010 C   0  0  0  0  0  0  0  0  0  0  0  0
  -22.6640   -4.2910   21.4750 F   0  0  0  0  0  0  0  0  0  0  0  0
  -21.3300   -3.9240   26.0470 F   0  0  0  0  0  0  0  0  0  0  0  0
  -22.9880  -13.5790   21.2520 C   0  0  0  0  0  0  0  0  0  0  0  0
  -22.3070  -12.8530   22.1320 N   0  0  0  0  0  0  0  0  0  0  0  0
  -22.5270  -14.6240   20.7980 O   0  0  0  0  0  0  0  0  0  0  0  0
  -22.6940  -12.0060   22.5220 H   0  0  0  0  0  0  0  0  0  0  0  0
  -21.3870  -13.1500   22.4200 H   0  0  0  0  0  0  0  0  0  0  0  0
  -25.5760  -15.2630   20.3350 N   0  0  0  0  0  0  0  0  0  0  0  0
  -24.8250  -15.9200   20.5250 H   0  0  0  0  0  0  0  0  0  0  0  0
  -26.4050  -15.7090   19.9630 H   0  0  0  0  0  0  0  0  0  0  0  0
  1  2  2  0
  1 47  1  0
  3  5  1  0
  3  2  1  0
  4  3  2  0
  6  8  1  0
  6  5  1  0
  7 18  2  0
  8 13  1  0
  9 17  1  0
  9 19  1  0
 10 16  1  0
 10 12  1  0
 11 17  1  0
 12 11  1  0
 13 12  2  0
 14  8  2  0
 15 14  1  0
 15 10  2  0
 16  9  1  0
 17  7  1  0
 19 21  2  0
 20 19  1  0
 22 20  1  0
 23 32  2  0
 23 28  1  0
 24 20  1  0
 24 28  1  0
 25 24  1  0
 26 27  1  0
 26 25  1  0
 27 23  1  0
 28 29  2  0
 29 30  1  0
 31 30  2  0
 32 31  1  0
 33  7  1  0
 33 38  1  0
 33 34  1  0
 34 37  1  1
 34 35  1  0
 36 34  1  0
 38 41  1  0
 39 43  1  0
 39 38  1  0
 40 39  2  0
 43 42  1  0
 45 43  1  0
 45 46  1  0
 45 44  1  0
 49 52  2  0
 50 48  2  0
 51 53  2  0
 51 49  1  0
 52 48  1  0
 52 47  1  0
 53 50  1  0
 54 62  1  0
 55 60  1  0
 56 57  1  0
 56 55  1  0
 58 57  1  0
 58 67  1  0
 58 59  1  0
 60 54  1  0
 60 59  1  0
 61 54  2  0
 62 53  1  0
 62 63  1  0
 64 65  2  0
 65 84  1  0
 66 65  1  0
 66 69  1  0
 67 68  1  0
 67 64  1  0
 68 66  2  0
 69 70  1  0
 70 71  2  0
 72 75  1  0
 72 71  1  0
 73 72  2  0
 74 73  1  0
 74 69  2  0
 75 76  1  0
 76 81  2  0
 76 77  1  0
 77 78  2  0
 79 78  1  0
 79 83  1  0
 80 79  2  0
 81 80  1  0
 82 81  1  0
 84 85  1  0
 85 88  1  0
 85 87  1  0
 86 84  2  0
 89 64  1  0
 89 90  1  0
 91 89  1  0
M  ISO  4   5 101   6 101  54 100  62 100
M  END
>  <TORSDO>  (21) 
F 20

>  <SCORE>  (21) 
-13.512

>  <name>  (21) 
20

>  <ligand_id>  (21) 
20

>  <original_smiles>  (21) 
[H]C(=NC(=O)C([H])([H])Oc1c([H])c([H])c2c(c1[H])C([H])([H])N(C(=O)C([H])(N([H])C(=O)C([H])(N([H])C([H])([H])[H])C([H])([H])[H])C(C([H])([H])[H])(C([H])([H])[H])C([H])([H])[H])C([H])(C(=O)N([H])C1([H])c3c([H])c([H])c([H])c([H])c3C([H])([H])C([H])([H])C1([H])[H])C2([H])[H])C([H])([H])c1c([H])c([H])c(N([H])C(=O)N2C([H])([H])C([H])([H])C([H])([H])C([H])(n3nc(-c4c([H])c([H])c(Oc5c([H])c([H])c(F)c([H])c5F)c([H])c4[H])c(C(=O)N([H])[H])c3N([H])[H])C2([H])[H])c([H])c1[H]

>  <smiles>  (21) 
[H]C(=NC(=O)C([H])([H])Oc1c([H])c([H])c2c(c1[H])C([H])([H])N(C(=O)C([H])(N([H])C(=O)C([H])(N([H])C([H])([H])[H])C([H])([H])[H])C(C([H])([H])[H])(C([H])([H])[H])C([H])([H])[H])C([H])(C(=O)N([H])C1([H])c3c([H])c([H])c([H])c([H])c3C([H])([H])C([H])([H])C1([H])[H])C2([H])[H])C([H])([H])c1c([H])c([H])c(N([H])C(=O)N2C([H])([H])C([H])([H])C([H])([H])C([H])(n3nc(-c4c([H])c([H])c(Oc5c([H])c([H])c(F)c([H])c5F)c([H])c4[H])c(C(=O)N([H])[H])c3N([H])[H])C2([H])[H])c([H])c1[H]

$$$$
21:0:0
     RDKit          3D

 94103  0  0  1  0  0  0  0  0999 V2000
  -27.1900  -24.0200   20.4440 C   0  0  0  0  0  3  0  0  0  0  0  0
  -28.3160  -24.2930   19.7910 C   0  0  0  0  0  0  0  0  0  0  0  0
  -27.1220  -22.6000   20.6880 C   0  0  0  0  0  0  0  0  0  0  0  0
  -29.0180  -23.0210   19.6180 C   0  0  0  0  0  0  0  0  0  0  0  0
  -28.2420  -22.0320   20.1630 N   0  0  0  0  0  0  0  0  0  0  0  0
  -26.1870  -22.0260   21.2550 O   0  0  0  0  0  0  0  0  0  0  0  0
  -30.1240  -22.8740   19.0870 O   0  0  0  0  0  0  0  0  0  0  0  0
  -28.3450  -18.3080   20.6420 C   0  0  0  0  0  3  0  0  0  0  0  0
  -27.7800  -19.6260   20.7360 C   0  0  0  0  0  3  0  0  0  0  0  0
  -29.5520  -18.2700   20.0030 C   0  0  0  0  0  0  0  0  0  0  0  0
  -28.5330  -20.6650   20.2020 C   0  0  0  0  0  0  0  0  0  0  0  0
  -30.0070  -19.9150   19.5540 S   0  0  0  0  0  0  0  0  0  0  0  0
  -30.8850  -14.7510   19.5750 C   0  0  0  0  0  0  0  0  0  0  0  0
  -30.5310  -12.5030   18.6220 C   0  0  0  0  0  2  0  0  0  0  0  0
  -29.4690  -12.5970   17.5080 C   0  0  0  0  0  2  0  0  0  0  0  0
  -28.0460  -12.4770   18.0940 C   0  0  0  0  0  2  0  0  0  0  0  0
  -27.8200  -13.3510   19.3590 C   0  0  0  0  0  3  0  0  0  0  0  0
  -29.0000  -13.2390   20.3500 C   0  0  0  0  0  2  0  0  0  0  0  0
  -30.2300  -13.5530   19.6130 N   0  0  0  0  0  0  0  0  0  0  0  0
  -32.0180  -14.8160   19.0870 O   0  0  0  0  0  0  0  0  0  0  0  0
  -30.5400  -17.1710   19.7220 C   0  0  0  0  0  0  0  0  0  0  0  0
  -30.1650  -15.8670   19.8950 N   0  0  0  0  0  0  0  0  0  0  0  0
  -31.6560  -17.5150   19.3150 O   0  0  0  0  0  0  0  0  0  0  0  0
  -29.2250  -15.7170   20.2180 H   0  0  0  0  0  0  0  0  0  0  0  0
  -25.5670  -13.9310   20.4470 C   0  0  0  0  0  0  0  0  0  0  0  0
  -24.5240  -13.1530   20.8720 C   0  0  0  0  0  0  0  0  0  0  0  0
  -24.9200  -11.8010   20.6380 C   0  0  0  0  0  0  0  0  0  0  0  0
  -26.5360  -13.0530   19.9890 N   0  0  0  0  0  0  0  0  0  0  0  0
  -26.1570  -11.7600   20.1580 N   0  0  0  0  0  0  0  0  0  0  0  0
  -24.1710  -10.5460   20.7910 C   0  0  0  0  0  0  0  0  0  0  0  0
  -24.6140   -9.5210   21.6560 C   0  0  0  0  0  3  0  0  0  0  0  0
  -23.8650   -8.3330   21.8020 C   0  0  0  0  0  3  0  0  0  0  0  0
  -22.6550   -8.1610   21.0860 C   0  0  0  0  0  0  0  0  0  0  0  0
  -22.2320   -9.1760   20.2100 C   0  0  0  0  0  3  0  0  0  0  0  0
  -22.9810  -10.3550   20.0610 C   0  0  0  0  0  3  0  0  0  0  0  0
  -21.8770   -7.0300   21.1460 O   0  0  0  0  0  0  0  0  0  0  0  0
  -21.7740   -6.2890   22.2960 C   0  0  0  0  0  0  0  0  0  0  0  0
  -21.2990   -6.8460   23.5030 C   0  0  0  0  0  3  0  0  0  0  0  0
  -21.1410   -6.0300   24.6410 C   0  0  0  0  0  3  0  0  0  0  0  0
  -21.4510   -4.6570   24.5730 C   0  0  0  0  0  0  0  0  0  0  0  0
  -21.9200   -4.1000   23.3700 C   0  0  0  0  0  3  0  0  0  0  0  0
  -22.0780   -4.9140   22.2340 C   0  0  0  0  0  0  0  0  0  0  0  0
  -22.5090   -4.3670   21.0720 F   0  0  0  0  0  0  0  0  0  0  0  0
  -21.2930   -3.8730   25.6640 F   0  0  0  0  0  0  0  0  0  0  0  0
  -23.1960  -13.6400   21.3730 C   0  0  0  0  0  0  0  0  0  0  0  0
  -22.5670  -12.8870   22.2680 N   0  0  0  0  0  0  0  0  0  0  0  0
  -22.7330  -14.7190   21.0080 O   0  0  0  0  0  0  0  0  0  0  0  0
  -22.9580  -12.0140   22.5880 H   0  0  0  0  0  0  0  0  0  0  0  0
  -21.6800  -13.1950   22.6420 H   0  0  0  0  0  0  0  0  0  0  0  0
  -25.7660  -15.3090   20.3930 N   0  0  0  0  0  0  0  0  0  0  0  0
  -25.0440  -15.9650   20.6720 H   0  0  0  0  0  0  0  0  0  0  0  0
  -26.5550  -15.7570   19.9460 H   0  0  0  0  0  0  0  0  0  0  0  0
  -28.7540  -25.6460   19.1770 C   0  0  0  0  0  2  0  0  0  0  0  0
  -28.5790  -26.8500   19.9830 O   0  0  0  0  0  0  0  0  0  0  0  0
  -24.7310  -31.9230   23.2500 C   0  0  0  0  0  0  0  0  0  0  0  0
  -27.3950  -27.5800   19.9780 C   0  0  0  0  0  0  0  0  0  0  0  0
  -23.5190  -30.5380   21.6010 C   0  0  0  0  0  3  0  0  0  0  0  0
  -24.9720  -29.0690   20.1000 C   0  0  0  0  0  0  0  0  0  0  0  0
  -26.0390  -30.9440   21.3580 C   0  0  0  0  0  2  0  0  0  0  0  0
  -26.1360  -29.5880   20.6760 C   0  0  0  0  0  0  0  0  0  0  0  0
  -27.3470  -28.8490   20.6150 C   0  0  0  0  0  3  0  0  0  0  0  0
  -26.2060  -27.0930   19.3880 C   0  0  0  0  0  3  0  0  0  0  0  0
  -25.0040  -27.8190   19.4600 C   0  0  0  0  0  3  0  0  0  0  0  0
  -23.7160  -29.9070   20.1980 C   0  0  0  0  0  2  0  0  0  0  0  0
  -24.7830  -31.1520   22.1260 N   0  0  0  0  0  0  0  0  0  0  0  0
  -23.6560  -32.1510   23.8240 O   0  0  0  0  0  0  0  0  0  0  0  0
  -22.9140  -29.4740   22.5460 C   0  0  0  0  0  0  0  0  0  0  0  0
  -21.5950  -29.2440   22.4290 N   0  0  0  0  0  0  0  0  0  0  0  0
  -23.6290  -28.8590   23.3410 O   0  0  0  0  0  0  0  0  0  0  0  0
  -21.0730  -29.8010   21.7680 H   0  0  0  0  0  0  0  0  0  0  0  0
  -18.2850  -27.8750   22.8930 C   0  0  0  0  0  0  0  0  0  0  0  0
  -20.8240  -28.2580   23.1820 C   0  0  0  0  0  3  0  0  0  0  0  0
  -21.0030  -26.8380   22.5950 C   0  0  0  0  0  2  0  0  0  0  0  0
  -19.9220  -26.4600   21.5770 C   0  0  0  0  0  2  0  0  0  0  0  0
  -18.5310  -26.5350   22.2190 C   0  0  0  0  0  2  0  0  0  0  0  0
  -19.3620  -28.6890   23.3350 C   0  0  0  0  0  0  0  0  0  0  0  0
  -19.0800  -29.9380   23.9280 C   0  0  0  0  0  3  0  0  0  0  0  0
  -17.7520  -30.3740   24.0910 C   0  0  0  0  0  3  0  0  0  0  0  0
  -16.6880  -29.5580   23.6700 C   0  0  0  0  0  3  0  0  0  0  0  0
  -16.9530  -28.3110   23.0770 C   0  0  0  0  0  3  0  0  0  0  0  0
  -26.0160  -32.5720   23.8520 C   0  0  0  0  0  3  0  0  0  0  0  0
  -25.6960  -33.9660   24.1810 N   0  0  0  0  0  0  0  0  0  0  0  0
  -26.0080  -35.0200   23.4140 C   0  0  0  0  0  0  0  0  0  0  0  0
  -26.6650  -34.9230   22.3760 O   0  0  0  0  0  0  0  0  0  0  0  0
  -25.1150  -34.1180   24.9920 H   0  0  0  0  0  0  0  0  0  0  0  0
  -24.2580  -36.7960   23.0750 C   0  0  0  0  0  1  0  0  0  0  0  0
  -25.5090  -36.4030   23.8760 C   0  0  0  0  0  3  0  0  0  0  0  0
  -27.6370  -37.3150   24.6960 C   0  0  0  0  0  1  0  0  0  0  0  0
  -26.5300  -37.4680   23.7560 N   0  0  0  0  0  0  0  0  0  0  0  0
  -26.1120  -38.3820   23.9060 H   0  0  0  0  0  0  0  0  0  0  0  0
  -26.5590  -31.8080   25.1220 C   0  0  1  0  0  0  0  0  0  0  0  0
  -25.4830  -31.5530   26.2030 C   0  0  0  0  0  1  0  0  0  0  0  0
  -27.1600  -30.4400   24.7240 C   0  0  0  0  0  1  0  0  0  0  0  0
  -27.7030  -32.6210   25.7740 C   0  0  0  0  0  1  0  0  0  0  0  0
  1  3  1  0
  2  1  2  0
  3  6  2  0
  4  2  1  0
  4  5  1  0
  5 11  1  0
  5  3  1  0
  7  4  2  0
  8  9  1  0
 10  8  2  0
 11  9  2  0
 12 10  1  0
 12 11  1  0
 13 19  1  0
 13 22  1  0
 14 19  1  0
 15 16  1  0
 15 14  1  0
 17 16  1  0
 17 28  1  0
 17 18  1  0
 19 18  1  0
 20 13  2  0
 21 22  1  0
 21 10  1  0
 22 24  1  0
 23 21  2  0
 25 26  2  0
 26 45  1  0
 27 30  1  0
 27 26  1  0
 28 29  1  0
 28 25  1  0
 29 27  2  0
 30 31  1  0
 31 32  2  0
 33 36  1  0
 33 32  1  0
 34 33  2  0
 35 34  1  0
 35 30  2  0
 36 37  1  0
 37 38  1  0
 38 39  2  0
 40 39  1  0
 40 44  1  0
 41 40  2  0
 42 37  2  0
 42 41  1  0
 43 42  1  0
 45 46  1  0
 46 48  1  0
 46 49  1  0
 47 45  2  0
 50 25  1  0
 50 51  1  0
 52 50  1  0
 53  2  1  0
 53 54  1  0
 55 66  2  0
 56 54  1  0
 56 61  1  0
 57 65  1  0
 57 67  1  0
 58 64  1  0
 58 60  1  0
 59 65  1  0
 60 59  1  0
 61 60  2  0
 62 63  1  0
 62 56  2  0
 63 58  2  0
 64 57  1  0
 65 55  1  0
 67 69  2  0
 68 67  1  0
 70 68  1  0
 71 80  2  0
 71 76  1  0
 72 68  1  0
 72 76  1  0
 73 72  1  0
 74 75  1  0
 74 73  1  0
 75 71  1  0
 76 77  2  0
 77 78  1  0
 79 78  2  0
 80 79  1  0
 81 55  1  0
 81 82  1  0
 81 91  1  0
 82 85  1  0
 83 87  1  0
 83 82  1  0
 84 83  2  0
 87 86  1  0
 89 87  1  0
 89 90  1  0
 89 88  1  0
 91 94  1  1
 91 92  1  0
 93 91  1  0
M  ISO  4  13 100  22 100  53 101  54 101
M  END
>  <TORSDO>  (22) 
F 18

>  <SCORE>  (22) 
-12.346

>  <name>  (22) 
21

>  <ligand_id>  (22) 
21

>  <original_smiles>  (22) 
[H]C1=C(C([H])([H])Oc2c([H])c([H])c3c(c2[H])C([H])([H])N(C(=O)C([H])(N([H])C(=O)C([H])(N([H])C([H])([H])[H])C([H])([H])[H])C(C([H])([H])[H])(C([H])([H])[H])C([H])([H])[H])C([H])(C(=O)N([H])C2([H])c4c([H])c([H])c([H])c([H])c4C([H])([H])C([H])([H])C2([H])[H])C3([H])[H])C(=O)N(c2sc(C(=O)N([H])C(=O)N3C([H])([H])C([H])([H])C([H])([H])C([H])(n4nc(-c5c([H])c([H])c(Oc6c([H])c([H])c(F)c([H])c6F)c([H])c5[H])c(C(=O)N([H])[H])c4N([H])[H])C3([H])[H])c([H])c2[H])C1=O

>  <smiles>  (22) 
[H]C1=C(C([H])([H])Oc2c([H])c([H])c3c(c2[H])C([H])([H])N(C(=O)C([H])(N([H])C(=O)C([H])(N([H])C([H])([H])[H])C([H])([H])[H])C(C([H])([H])[H])(C([H])([H])[H])C([H])([H])[H])C([H])(C(=O)N([H])C2([H])c4c([H])c([H])c([H])c([H])c4C([H])([H])C([H])([H])C2([H])[H])C3([H])[H])C(=O)N(c2sc(C(=O)N([H])C(=O)N3C([H])([H])C([H])([H])C([H])([H])C([H])(n4nc(-c5c([H])c([H])c(Oc6c([H])c([H])c(F)c([H])c6F)c([H])c5[H])c(C(=O)N([H])[H])c4N([H])[H])C3([H])[H])c([H])c2[H])C1=O

$$$$
22:0:0
     RDKit          3D

 96105  0  0  1  0  0  0  0  0999 V2000
  -30.2840  -24.3000   19.4550 C   0  0  0  0  0  0  0  0  0  0  0  0
  -29.0320  -24.0370   20.1560 C   0  0  0  0  0  0  0  0  0  0  0  0
  -30.7460  -23.2360   18.5940 C   0  0  0  0  0  0  0  0  0  0  0  0
  -28.7810  -22.6070   20.6110 C   0  0  0  0  0  0  0  0  0  0  0  0
  -31.2610  -23.4700   17.3730 C   0  0  0  0  0  2  0  0  0  0  0  0
  -31.0460  -25.3760   19.7620 C   0  0  0  0  0  3  0  0  0  0  0  0
  -28.1680  -25.0760   20.4690 C   0  0  0  0  0  3  0  0  0  0  0  0
  -30.6660  -21.8320   19.1350 C   0  0  0  0  0  2  0  0  0  0  0  0
  -32.4550  -25.7000   19.2880 C   0  0  0  0  0  1  0  0  0  0  0  0
  -29.6440  -21.5910   20.1770 N   0  0  0  0  0  0  0  0  0  0  0  0
  -27.8470  -22.3300   21.3710 O   0  0  0  0  0  0  0  0  0  0  0  0
  -30.8210  -19.4720   20.9330 C   0  0  0  0  0  3  0  0  0  0  0  0
  -28.4900  -19.3150   20.3940 C   0  0  0  0  0  3  0  0  0  0  0  0
  -30.9310  -18.0480   20.9810 C   0  0  0  0  0  3  0  0  0  0  0  0
  -28.5980  -17.8900   20.4370 C   0  0  0  0  0  3  0  0  0  0  0  0
  -29.6190  -20.1590   20.5710 C   0  0  0  0  0  0  0  0  0  0  0  0
  -29.8320  -17.2090   20.6680 C   0  0  0  0  0  0  0  0  0  0  0  0
  -30.7100  -14.7620   20.8030 C   0  0  0  0  0  0  0  0  0  0  0  0
  -30.6030  -12.4250   19.9560 C   0  0  0  0  0  2  0  0  0  0  0  0
  -29.7640  -12.3730   18.6580 C   0  0  0  0  0  2  0  0  0  0  0  0
  -28.2590  -12.2700   18.9730 C   0  0  0  0  0  2  0  0  0  0  0  0
  -27.7840  -13.2320   20.1000 C   0  0  0  0  0  3  0  0  0  0  0  0
  -28.7530  -13.2320   21.2990 C   0  0  0  0  0  2  0  0  0  0  0  0
  -30.0880  -13.5370   20.7780 N   0  0  0  0  0  0  0  0  0  0  0  0
  -31.9430  -14.8290   20.7770 O   0  0  0  0  0  0  0  0  0  0  0  0
  -29.9830  -15.7680   18.7630 C   0  0  0  0  0  1  0  0  0  0  0  0
  -29.9820  -15.8070   20.2390 N   0  0  0  0  0  0  0  0  0  0  0  0
  -25.3530  -13.8560   20.6240 C   0  0  0  0  0  0  0  0  0  0  0  0
  -24.2570  -13.0950   20.9260 C   0  0  0  0  0  0  0  0  0  0  0  0
  -24.7170  -11.7430   20.9740 C   0  0  0  0  0  0  0  0  0  0  0  0
  -26.4070  -12.9660   20.4990 N   0  0  0  0  0  0  0  0  0  0  0  0
  -26.0280  -11.6940   20.7780 N   0  0  0  0  0  0  0  0  0  0  0  0
  -23.9790  -10.4860   21.1390 C   0  0  0  0  0  0  0  0  0  0  0  0
  -24.3600   -9.5280   22.1040 C   0  0  0  0  0  3  0  0  0  0  0  0
  -23.6220   -8.3340   22.2560 C   0  0  0  0  0  3  0  0  0  0  0  0
  -22.4910   -8.0900   21.4420 C   0  0  0  0  0  0  0  0  0  0  0  0
  -22.1310   -9.0380   20.4670 C   0  0  0  0  0  3  0  0  0  0  0  0
  -22.8690  -10.2220   20.3130 C   0  0  0  0  0  3  0  0  0  0  0  0
  -21.7290   -6.9490   21.5030 O   0  0  0  0  0  0  0  0  0  0  0  0
  -21.6390   -6.2050   22.6510 C   0  0  0  0  0  0  0  0  0  0  0  0
  -21.1970   -6.7650   23.8690 C   0  0  0  0  0  3  0  0  0  0  0  0
  -21.0530   -5.9490   25.0090 C   0  0  0  0  0  3  0  0  0  0  0  0
  -21.3400   -4.5730   24.9310 C   0  0  0  0  0  0  0  0  0  0  0  0
  -21.7750   -4.0120   23.7170 C   0  0  0  0  0  3  0  0  0  0  0  0
  -21.9210   -4.8260   22.5800 C   0  0  0  0  0  0  0  0  0  0  0  0
  -22.3200   -4.2770   21.4070 F   0  0  0  0  0  0  0  0  0  0  0  0
  -21.1950   -3.7850   26.0220 F   0  0  0  0  0  0  0  0  0  0  0  0
  -22.8430  -13.5800   21.0670 C   0  0  0  0  0  0  0  0  0  0  0  0
  -22.0470  -12.9150   21.8940 N   0  0  0  0  0  0  0  0  0  0  0  0
  -22.4500  -14.5840   20.4730 O   0  0  0  0  0  0  0  0  0  0  0  0
  -22.3750  -12.1040   22.3990 H   0  0  0  0  0  0  0  0  0  0  0  0
  -21.0950  -13.2230   22.0300 H   0  0  0  0  0  0  0  0  0  0  0  0
  -25.5370  -15.2210   20.4210 N   0  0  0  0  0  0  0  0  0  0  0  0
  -24.7740  -15.8860   20.4640 H   0  0  0  0  0  0  0  0  0  0  0  0
  -26.4220  -15.6400   20.1710 H   0  0  0  0  0  0  0  0  0  0  0  0
  -28.3150  -26.4500   20.1370 O   0  0  0  0  0  0  0  0  0  0  0  0
  -24.6300  -31.8950   23.1710 C   0  0  0  0  0  0  0  0  0  0  0  0
  -27.1980  -27.3030   20.1320 C   0  0  0  0  0  0  0  0  0  0  0  0
  -23.4030  -30.4810   21.5610 C   0  0  0  0  0  3  0  0  0  0  0  0
  -24.8350  -28.9150   20.1300 C   0  0  0  0  0  0  0  0  0  0  0  0
  -25.9400  -30.7990   21.3370 C   0  0  0  0  0  2  0  0  0  0  0  0
  -26.0120  -29.4120   20.7070 C   0  0  0  0  0  0  0  0  0  0  0  0
  -27.1970  -28.6170   20.6990 C   0  0  0  0  0  3  0  0  0  0  0  0
  -26.0050  -26.8610   19.5260 C   0  0  0  0  0  3  0  0  0  0  0  0
  -24.8340  -27.6450   19.5290 C   0  0  0  0  0  3  0  0  0  0  0  0
  -23.5980  -29.7900   20.1840 C   0  0  0  0  0  2  0  0  0  0  0  0
  -24.6770  -31.0760   22.0790 N   0  0  0  0  0  0  0  0  0  0  0  0
  -23.5530  -32.1770   23.7190 O   0  0  0  0  0  0  0  0  0  0  0  0
  -22.7550  -29.4730   22.5400 C   0  0  0  0  0  0  0  0  0  0  0  0
  -21.4270  -29.2930   22.4320 N   0  0  0  0  0  0  0  0  0  0  0  0
  -23.4450  -28.8550   23.3550 O   0  0  0  0  0  0  0  0  0  0  0  0
  -20.9300  -29.8390   21.7430 H   0  0  0  0  0  0  0  0  0  0  0  0
  -18.0590  -28.0960   22.9820 C   0  0  0  0  0  0  0  0  0  0  0  0
  -20.6190  -28.3640   23.2240 C   0  0  0  0  0  3  0  0  0  0  0  0
  -20.7200  -26.9270   22.6640 C   0  0  0  0  0  2  0  0  0  0  0  0
  -19.6080  -26.5890   21.6660 C   0  0  0  0  0  2  0  0  0  0  0  0
  -18.2320  -26.7380   22.3210 C   0  0  0  0  0  2  0  0  0  0  0  0
  -19.1800  -28.8660   23.3910 C   0  0  0  0  0  0  0  0  0  0  0  0
  -18.9620  -30.1350   23.9690 C   0  0  0  0  0  3  0  0  0  0  0  0
  -17.6580  -30.6330   24.1420 C   0  0  0  0  0  3  0  0  0  0  0  0
  -16.5520  -29.8610   23.7500 C   0  0  0  0  0  3  0  0  0  0  0  0
  -16.7540  -28.5930   23.1730 C   0  0  0  0  0  3  0  0  0  0  0  0
  -25.9220  -32.5320   23.7690 C   0  0  0  0  0  3  0  0  0  0  0  0
  -25.6010  -33.9200   24.1330 N   0  0  0  0  0  0  0  0  0  0  0  0
  -25.9010  -34.9920   23.3870 C   0  0  0  0  0  0  0  0  0  0  0  0
  -26.5460  -34.9150   22.3370 O   0  0  0  0  0  0  0  0  0  0  0  0
  -25.0240  -34.0510   24.9510 H   0  0  0  0  0  0  0  0  0  0  0  0
  -24.1420  -36.7670   23.1140 C   0  0  0  0  0  1  0  0  0  0  0  0
  -25.4100  -36.3660   23.8830 C   0  0  0  0  0  3  0  0  0  0  0  0
  -27.5590  -37.2600   24.6630 C   0  0  0  0  0  1  0  0  0  0  0  0
  -26.4260  -37.4340   23.7590 N   0  0  0  0  0  0  0  0  0  0  0  0
  -26.0150  -38.3450   23.9390 H   0  0  0  0  0  0  0  0  0  0  0  0
  -26.4790  -31.7450   25.0160 C   0  0  1  0  0  0  0  0  0  0  0  0
  -25.4190  -31.4790   26.1100 C   0  0  0  0  0  1  0  0  0  0  0  0
  -27.0670  -30.3800   24.5890 C   0  0  0  0  0  1  0  0  0  0  0  0
  -27.6390  -32.5410   25.6600 C   0  0  0  0  0  1  0  0  0  0  0  0
  1  6  2  0
  1  2  1  0
  2  7  2  0
  2  4  1  0
  3  8  1  0
  3  1  1  0
  4 11  2  0
  5  3  2  0
  8 10  1  0
  9  6  1  0
 10 16  1  0
 10  4  1  0
 12 14  1  0
 13 15  2  0
 13 16  1  0
 15 17  1  0
 16 12  2  0
 17 14  2  0
 19 24  1  0
 20 21  1  0
 20 19  1  0
 22 21  1  0
 22 31  1  0
 22 23  1  0
 24 18  1  0
 24 23  1  0
 25 18  2  0
 26 27  1  0
 27 17  1  0
 27 18  1  0
 28 29  2  0
 29 30  1  0
 29 48  1  0
 30 33  1  0
 31 28  1  0
 31 32  1  0
 32 30  2  0
 33 34  1  0
 34 35  2  0
 36 39  1  0
 36 35  1  0
 37 36  2  0
 38 37  1  0
 38 33  2  0
 39 40  1  0
 40 41  1  0
 41 42  2  0
 43 42  1  0
 43 47  1  0
 44 43  2  0
 45 40  2  0
 45 44  1  0
 46 45  1  0
 48 49  1  0
 49 52  1  0
 49 51  1  0
 50 48  2  0
 53 54  1  0
 53 28  1  0
 55 53  1  0
 56  7  1  0
 57 68  2  0
 58 56  1  0
 58 63  1  0
 59 67  1  0
 59 69  1  0
 60 66  1  0
 60 62  1  0
 61 67  1  0
 62 61  1  0
 63 62  2  0
 64 65  1  0
 64 58  2  0
 65 60  2  0
 66 59  1  0
 67 57  1  0
 69 71  2  0
 70 69  1  0
 72 70  1  0
 73 82  2  0
 73 78  1  0
 74 70  1  0
 74 78  1  0
 75 74  1  0
 76 77  1  0
 76 75  1  0
 77 73  1  0
 78 79  2  0
 79 80  1  0
 81 80  2  0
 82 81  1  0
 83 57  1  0
 83 84  1  0
 83 93  1  0
 84 87  1  0
 85 89  1  0
 85 84  1  0
 86 85  2  0
 89 88  1  0
 91 89  1  0
 91 92  1  0
 91 90  1  0
 93 96  1  1
 93 94  1  0
 95 93  1  0
M  ISO  4   7 101  18 100  27 100  56 101
M  END
>  <TORSDO>  (23) 
F 17

>  <SCORE>  (23) 
-15.166

>  <name>  (23) 
22

>  <ligand_id>  (23) 
22

>  <original_smiles>  (23) 
[H]C([H])=C1C(=C([H])C([H])([H])[H])C(=C([H])Oc2c([H])c([H])c3c(c2[H])C([H])([H])N(C(=O)C([H])(N([H])C(=O)C([H])(N([H])C([H])([H])[H])C([H])([H])[H])C(C([H])([H])[H])(C([H])([H])[H])C([H])([H])[H])C([H])(C(=O)N([H])C2([H])c4c([H])c([H])c([H])c([H])c4C([H])([H])C([H])([H])C2([H])[H])C3([H])[H])C(=O)N(c2c([H])c([H])c(N(C(=O)N3C([H])([H])C([H])([H])C([H])([H])C([H])(n4nc(-c5c([H])c([H])c(Oc6c([H])c([H])c(F)c([H])c6F)c([H])c5[H])c(C(=O)N([H])[H])c4N([H])[H])C3([H])[H])C([H])([H])[H])c([H])c2[H])C1([H])[H]

>  <smiles>  (23) 
[H]C([H])=C1C(=C([H])C([H])([H])[H])C(=C([H])Oc2c([H])c([H])c3c(c2[H])C([H])([H])N(C(=O)C([H])(N([H])C(=O)C([H])(N([H])C([H])([H])[H])C([H])([H])[H])C(C([H])([H])[H])(C([H])([H])[H])C([H])([H])[H])C([H])(C(=O)N([H])C2([H])c4c([H])c([H])c([H])c([H])c4C([H])([H])C([H])([H])C2([H])[H])C3([H])[H])C(=O)N(c2c([H])c([H])c(N(C(=O)N3C([H])([H])C([H])([H])C([H])([H])C([H])(n4nc(-c5c([H])c([H])c(Oc6c([H])c([H])c(F)c([H])c6F)c([H])c5[H])c(C(=O)N([H])[H])c4N([H])[H])C3([H])[H])C([H])([H])[H])c([H])c2[H])C1([H])[H]

$$$$
23:0:0
     RDKit          3D

 92100  0  0  1  0  0  0  0  0999 V2000
  -28.9000  -23.3040   20.4130 C   0  0  0  0  0  0  0  0  0  0  0  0
  -28.0480  -24.3520   19.9730 N   0  0  0  0  0  0  0  0  0  0  0  0
  -28.2000  -20.5060   20.8010 C   0  0  0  0  0  3  0  0  0  0  0  0
  -28.4190  -19.0280   20.7740 C   0  0  0  0  0  3  0  0  0  0  0  0
  -30.3120  -19.3060   19.5420 C   0  0  0  0  0  3  0  0  0  0  0  0
  -29.0050  -21.5670   20.1990 C   0  0  0  0  0  0  0  0  0  0  0  0
  -29.5030  -18.2540   20.1590 C   0  0  0  0  0  0  0  0  0  0  0  0
  -30.0850  -20.7930   19.5510 C   0  0  0  0  0  0  0  0  0  0  0  0
  -31.0240  -21.5220   18.9030 F   0  0  0  0  0  0  0  0  0  0  0  0
  -30.4070  -15.4150   19.8620 C   0  0  0  0  0  0  0  0  0  0  0  0
  -30.3800  -12.9770   18.9340 C   0  0  0  0  0  2  0  0  0  0  0  0
  -29.3700  -12.7800   17.7710 C   0  0  0  0  0  2  0  0  0  0  0  0
  -27.9660  -12.4680   18.3170 C   0  0  0  0  0  2  0  0  0  0  0  0
  -27.5870  -13.4050   19.4900 C   0  0  0  0  0  3  0  0  0  0  0  0
  -28.7140  -13.5380   20.5380 C   0  0  0  0  0  2  0  0  0  0  0  0
  -29.8900  -14.0820   19.8390 N   0  0  0  0  0  0  0  0  0  0  0  0
  -31.5860  -15.4730   19.4770 O   0  0  0  0  0  0  0  0  0  0  0  0
  -29.5870  -16.6190   20.1730 N   0  0  0  0  0  0  0  0  0  0  0  0
  -28.7230  -16.2530   20.5450 H   0  0  0  0  0  0  0  0  0  0  0  0
  -25.2850  -13.9250   20.4520 C   0  0  0  0  0  0  0  0  0  0  0  0
  -24.2560  -13.1310   20.8730 C   0  0  0  0  0  0  0  0  0  0  0  0
  -24.7180  -11.7840   20.7480 C   0  0  0  0  0  0  0  0  0  0  0  0
  -26.3050  -13.0650   20.0900 N   0  0  0  0  0  0  0  0  0  0  0  0
  -25.9800  -11.7670   20.3320 N   0  0  0  0  0  0  0  0  0  0  0  0
  -24.0080  -10.5130   20.9420 C   0  0  0  0  0  0  0  0  0  0  0  0
  -24.4520   -9.5510   21.8750 C   0  0  0  0  0  3  0  0  0  0  0  0
  -23.7380   -8.3490   22.0580 C   0  0  0  0  0  3  0  0  0  0  0  0
  -22.5650   -8.0970   21.3070 C   0  0  0  0  0  0  0  0  0  0  0  0
  -22.1410   -9.0480   20.3620 C   0  0  0  0  0  3  0  0  0  0  0  0
  -22.8550  -10.2440   20.1770 C   0  0  0  0  0  3  0  0  0  0  0  0
  -21.8210   -6.9460   21.4000 O   0  0  0  0  0  0  0  0  0  0  0  0
  -21.7010   -6.2600   22.5820 C   0  0  0  0  0  0  0  0  0  0  0  0
  -21.1550   -6.8590   23.7380 C   0  0  0  0  0  3  0  0  0  0  0  0
  -20.9860   -6.0980   24.9110 C   0  0  0  0  0  3  0  0  0  0  0  0
  -21.3510   -4.7390   24.9290 C   0  0  0  0  0  0  0  0  0  0  0  0
  -21.8870   -4.1390   23.7760 C   0  0  0  0  0  3  0  0  0  0  0  0
  -22.0590   -4.8970   22.6050 C   0  0  0  0  0  0  0  0  0  0  0  0
  -22.5580   -4.3090   21.4920 F   0  0  0  0  0  0  0  0  0  0  0  0
  -21.1800   -4.0050   26.0530 F   0  0  0  0  0  0  0  0  0  0  0  0
  -22.8860  -13.5940   21.2730 C   0  0  0  0  0  0  0  0  0  0  0  0
  -22.2320  -12.8640   22.1690 N   0  0  0  0  0  0  0  0  0  0  0  0
  -22.4100  -14.6380   20.8280 O   0  0  0  0  0  0  0  0  0  0  0  0
  -22.6340  -12.0180   22.5470 H   0  0  0  0  0  0  0  0  0  0  0  0
  -21.3180  -13.1570   22.4840 H   0  0  0  0  0  0  0  0  0  0  0  0
  -25.4310  -15.3040   20.3180 N   0  0  0  0  0  0  0  0  0  0  0  0
  -24.6600  -15.9400   20.4870 H   0  0  0  0  0  0  0  0  0  0  0  0
  -26.2260  -15.7570   19.8890 H   0  0  0  0  0  0  0  0  0  0  0  0
  -30.7640  -22.6180   22.1390 C   0  0  0  0  0  1  0  0  0  0  0  0
  -29.3760  -24.5790   22.6090 C   0  0  0  0  0  1  0  0  0  0  0  0
  -31.0830  -24.6290   20.7310 C   0  0  0  0  0  1  0  0  0  0  0  0
  -30.0030  -23.7750   21.4370 C   0  0  2  0  0  0  0  0  0  0  0  0
  -28.2600  -25.9670   20.1850 O   0  0  0  0  0  0  0  0  0  0  0  0
  -24.6570  -31.8600   23.2230 C   0  0  0  0  0  0  0  0  0  0  0  0
  -27.2050  -27.0230   20.1360 C   0  0  0  0  0  0  0  0  0  0  0  0
  -23.4560  -30.4880   21.5670 C   0  0  0  0  0  3  0  0  0  0  0  0
  -24.8990  -28.9010   20.1160 C   0  0  0  0  0  0  0  0  0  0  0  0
  -26.0210  -30.7020   21.4150 C   0  0  0  0  0  2  0  0  0  0  0  0
  -26.0850  -29.3000   20.7440 C   0  0  0  0  0  0  0  0  0  0  0  0
  -27.2240  -28.3790   20.7350 C   0  0  0  0  0  3  0  0  0  0  0  0
  -25.9930  -26.7780   19.4520 C   0  0  0  0  0  3  0  0  0  0  0  0
  -24.8770  -27.6610   19.4530 C   0  0  0  0  0  3  0  0  0  0  0  0
  -23.6800  -29.8240   20.1800 C   0  0  0  0  0  2  0  0  0  0  0  0
  -24.7330  -31.0430   22.1220 N   0  0  0  0  0  0  0  0  0  0  0  0
  -23.5700  -32.1410   23.7540 O   0  0  0  0  0  0  0  0  0  0  0  0
  -22.7650  -29.4810   22.5230 C   0  0  0  0  0  0  0  0  0  0  0  0
  -21.4350  -29.3130   22.4000 N   0  0  0  0  0  0  0  0  0  0  0  0
  -23.4340  -28.8480   23.3440 O   0  0  0  0  0  0  0  0  0  0  0  0
  -20.9470  -29.8740   21.7160 H   0  0  0  0  0  0  0  0  0  0  0  0
  -18.0590  -28.0890   22.9030 C   0  0  0  0  0  0  0  0  0  0  0  0
  -20.6190  -28.3630   23.1630 C   0  0  0  0  0  3  0  0  0  0  0  0
  -20.7270  -26.9400   22.5680 C   0  0  0  0  0  2  0  0  0  0  0  0
  -19.6230  -26.6260   21.5550 C   0  0  0  0  0  2  0  0  0  0  0  0
  -18.2410  -26.7520   22.2030 C   0  0  0  0  0  2  0  0  0  0  0  0
  -19.1760  -28.8510   23.3400 C   0  0  0  0  0  0  0  0  0  0  0  0
  -18.9500  -30.1000   23.9590 C   0  0  0  0  0  3  0  0  0  0  0  0
  -17.6430  -30.5880   24.1430 C   0  0  0  0  0  3  0  0  0  0  0  0
  -16.5410  -29.8230   23.7230 C   0  0  0  0  0  3  0  0  0  0  0  0
  -16.7500  -28.5760   23.1080 C   0  0  0  0  0  3  0  0  0  0  0  0
  -25.9310  -32.4940   23.8600 C   0  0  0  0  0  3  0  0  0  0  0  0
  -26.4330  -31.7210   25.1430 C   0  0  1  0  0  0  0  0  0  0  0  0
  -25.3280  -31.4920   26.2000 C   0  0  0  0  0  1  0  0  0  0  0  0
  -27.0150  -30.3400   24.7630 C   0  0  0  0  0  1  0  0  0  0  0  0
  -27.5820  -32.5100   25.8130 C   0  0  0  0  0  1  0  0  0  0  0  0
  -25.6210  -33.8940   24.2020 N   0  0  0  0  0  0  0  0  0  0  0  0
  -25.9330  -34.9570   23.4480 C   0  0  0  0  0  0  0  0  0  0  0  0
  -26.5740  -34.8620   22.3980 O   0  0  0  0  0  0  0  0  0  0  0  0
  -25.0520  -34.0400   25.0210 H   0  0  0  0  0  0  0  0  0  0  0  0
  -24.1810  -36.7480   23.1890 C   0  0  0  0  0  1  0  0  0  0  0  0
  -25.4620  -36.3420   23.9360 C   0  0  0  0  0  3  0  0  0  0  0  0
  -27.6220  -37.2480   24.6740 C   0  0  0  0  0  1  0  0  0  0  0  0
  -26.4820  -37.4030   23.7760 N   0  0  0  0  0  0  0  0  0  0  0  0
  -26.0740  -38.3200   23.9350 H   0  0  0  0  0  0  0  0  0  0  0  0
  1 51  1  0
  2 52  1  0
  2  1  2  0
  4  3  1  0
  5  8  2  0
  5  7  1  0
  6  1  1  0
  6  3  2  0
  7 18  1  0
  7  4  2  0
  8  6  1  0
  9  8  1  0
 10 18  1  0
 11 16  1  0
 12 13  1  0
 12 11  1  0
 14 13  1  0
 14 23  1  0
 14 15  1  0
 16 10  1  0
 16 15  1  0
 17 10  2  0
 18 19  1  0
 20 21  2  0
 21 40  1  0
 22 21  1  0
 22 25  1  0
 23 24  1  0
 23 20  1  0
 24 22  2  0
 25 26  1  0
 26 27  2  0
 28 31  1  0
 28 27  1  0
 29 28  2  0
 30 29  1  0
 30 25  2  0
 31 32  1  0
 32 37  2  0
 32 33  1  0
 33 34  2  0
 34 35  1  0
 35 39  1  0
 36 35  2  0
 37 36  1  0
 38 37  1  0
 40 41  1  0
 41 44  1  0
 41 43  1  0
 42 40  2  0
 45 20  1  0
 45 46  1  0
 47 45  1  0
 51 50  1  6
 51 48  1  0
 51 49  1  0
 53 64  2  0
 54 52  1  0
 54 59  1  0
 55 63  1  0
 55 65  1  0
 56 62  1  0
 56 58  1  0
 57 63  1  0
 58 57  1  0
 59 58  2  0
 60 61  1  0
 60 54  2  0
 61 56  2  0
 62 55  1  0
 63 53  1  0
 65 67  2  0
 66 65  1  0
 68 66  1  0
 69 78  2  0
 69 74  1  0
 70 66  1  0
 70 74  1  0
 71 70  1  0
 72 73  1  0
 72 71  1  0
 73 69  1  0
 74 75  2  0
 75 76  1  0
 77 76  2  0
 78 77  1  0
 79 53  1  0
 79 84  1  0
 79 80  1  0
 80 83  1  1
 80 81  1  0
 82 80  1  0
 84 87  1  0
 85 89  1  0
 85 84  1  0
 86 85  2  0
 89 88  1  0
 91 92  1  0
 91 89  1  0
 91 90  1  0
M  ISO  4   2 101  10 100  18 100  52 101
M  END
>  <TORSDO>  (24) 
F 18

>  <SCORE>  (24) 
-15.502

>  <name>  (24) 
23

>  <ligand_id>  (24) 
23

>  <original_smiles>  (24) 
[H]c1c([H])c([H])c2c(c1[H])C([H])([H])C([H])([H])C([H])([H])C2([H])N([H])C(=O)C1([H])N(C(=O)C([H])(N([H])C(=O)C([H])(N([H])C([H])([H])[H])C([H])([H])[H])C(C([H])([H])[H])(C([H])([H])[H])C([H])([H])[H])C([H])([H])c2c([H])c(ON=C(c3c([H])c([H])c(N([H])C(=O)N4C([H])([H])C([H])([H])C([H])([H])C([H])(n5nc(-c6c([H])c([H])c(Oc7c([H])c([H])c(F)c([H])c7F)c([H])c6[H])c(C(=O)N([H])[H])c5N([H])[H])C4([H])[H])c([H])c3F)C(C([H])([H])[H])(C([H])([H])[H])C([H])([H])[H])c([H])c([H])c2C1([H])[H]

>  <smiles>  (24) 
[H]c1c([H])c([H])c2c(c1[H])C([H])([H])C([H])([H])C([H])([H])C2([H])N([H])C(=O)C1([H])N(C(=O)C([H])(N([H])C(=O)C([H])(N([H])C([H])([H])[H])C([H])([H])[H])C(C([H])([H])[H])(C([H])([H])[H])C([H])([H])[H])C([H])([H])c2c([H])c(ON=C(c3c([H])c([H])c(N([H])C(=O)N4C([H])([H])C([H])([H])C([H])([H])C([H])(n5nc(-c6c([H])c([H])c(Oc7c([H])c([H])c(F)c([H])c7F)c([H])c6[H])c(C(=O)N([H])[H])c5N([H])[H])C4([H])[H])c([H])c3F)C(C([H])([H])[H])(C([H])([H])[H])C([H])([H])[H])c([H])c([H])c2C1([H])[H]

$$$$
24:0:0
     RDKit          3D

 98106  0  0  1  0  0  0  0  0999 V2000
  -28.7510  -21.1560   20.9720 C   0  0  0  0  0  0  0  0  0  0  0  0
  -28.3850  -23.4420   19.9130 C   0  0  0  0  0  0  0  0  0  0  0  0
  -28.7790  -22.0310   19.9320 N   0  0  0  0  0  0  0  0  0  0  0  0
  -28.3640  -21.5740   22.1850 N   0  0  0  0  0  4  0  0  0  0  0  0
  -27.7180  -23.9460   20.8220 O   0  0  0  0  0  0  0  0  0  0  0  0
  -29.2130  -21.6230   19.1180 H   0  0  0  0  0  0  0  0  0  0  0  0
  -28.2970  -20.9370   22.9640 H   0  0  0  0  0  0  0  0  0  0  0  0
  -28.0790  -22.5390   22.3020 H   0  0  0  0  0  0  0  0  0  0  0  0
  -30.0870  -19.1780   21.7780 C   0  0  0  0  0  3  0  0  0  0  0  0
  -30.4320  -17.8020   21.7590 C   0  0  0  0  0  3  0  0  0  0  0  0
  -28.6690  -18.8590   19.8410 C   0  0  0  0  0  3  0  0  0  0  0  0
  -29.1810  -19.7300   20.8400 C   0  0  0  0  0  0  0  0  0  0  0  0
  -29.9180  -16.9320   20.7710 C   0  0  0  0  0  0  0  0  0  0  0  0
  -29.0320  -17.4810   19.8100 C   0  0  0  0  0  0  0  0  0  0  0  0
  -28.4570  -16.6670   18.8920 F   0  0  0  0  0  0  0  0  0  0  0  0
  -30.7980  -14.6560   20.0900 C   0  0  0  0  0  0  0  0  0  0  0  0
  -30.5900  -12.4800   18.9180 C   0  0  0  0  0  2  0  0  0  0  0  0
  -29.5700  -12.6300   17.7660 C   0  0  0  0  0  2  0  0  0  0  0  0
  -28.1180  -12.4600   18.2690 C   0  0  0  0  0  2  0  0  0  0  0  0
  -27.8310  -13.2880   19.5530 C   0  0  0  0  0  3  0  0  0  0  0  0
  -28.9370  -13.0430   20.6010 C   0  0  0  0  0  2  0  0  0  0  0  0
  -30.2240  -13.4250   19.9880 N   0  0  0  0  0  0  0  0  0  0  0  0
  -31.8440  -14.9530   19.4980 O   0  0  0  0  0  0  0  0  0  0  0  0
  -30.1310  -15.5160   20.8980 N   0  0  0  0  0  0  0  0  0  0  0  0
  -29.4240  -15.0530   21.4450 H   0  0  0  0  0  0  0  0  0  0  0  0
  -25.4890  -13.8900   20.4370 C   0  0  0  0  0  0  0  0  0  0  0  0
  -24.4390  -13.1190   20.8510 C   0  0  0  0  0  0  0  0  0  0  0  0
  -24.8780  -11.7650   20.7340 C   0  0  0  0  0  0  0  0  0  0  0  0
  -26.5070  -13.0100   20.0990 N   0  0  0  0  0  0  0  0  0  0  0  0
  -26.1430  -11.7240   20.3300 N   0  0  0  0  0  0  0  0  0  0  0  0
  -24.1530  -10.5030   20.9260 C   0  0  0  0  0  0  0  0  0  0  0  0
  -24.5660   -9.5520   21.8850 C   0  0  0  0  0  3  0  0  0  0  0  0
  -23.8410   -8.3550   22.0630 C   0  0  0  0  0  3  0  0  0  0  0  0
  -22.6900   -8.0990   21.2810 C   0  0  0  0  0  0  0  0  0  0  0  0
  -22.2960   -9.0400   20.3140 C   0  0  0  0  0  3  0  0  0  0  0  0
  -23.0200  -10.2280   20.1340 C   0  0  0  0  0  3  0  0  0  0  0  0
  -21.9450   -6.9490   21.3600 O   0  0  0  0  0  0  0  0  0  0  0  0
  -21.7610   -6.2880   22.5480 C   0  0  0  0  0  0  0  0  0  0  0  0
  -21.1650   -6.9140   23.6620 C   0  0  0  0  0  3  0  0  0  0  0  0
  -20.9360   -6.1780   24.8410 C   0  0  0  0  0  3  0  0  0  0  0  0
  -21.2960   -4.8200   24.9060 C   0  0  0  0  0  0  0  0  0  0  0  0
  -21.8900   -4.1950   23.7960 C   0  0  0  0  0  3  0  0  0  0  0  0
  -22.1210   -4.9280   22.6180 C   0  0  0  0  0  0  0  0  0  0  0  0
  -22.6710   -4.3180   21.5420 F   0  0  0  0  0  0  0  0  0  0  0  0
  -21.0720   -4.1100   26.0370 F   0  0  0  0  0  0  0  0  0  0  0  0
  -23.0670  -13.6030   21.2330 C   0  0  0  0  0  0  0  0  0  0  0  0
  -22.3930  -12.8870   22.1230 N   0  0  0  0  0  0  0  0  0  0  0  0
  -22.6070  -14.6500   20.7800 O   0  0  0  0  0  0  0  0  0  0  0  0
  -22.7820  -12.0470   22.5250 H   0  0  0  0  0  0  0  0  0  0  0  0
  -21.4730  -13.1880   22.4090 H   0  0  0  0  0  0  0  0  0  0  0  0
  -25.6610  -15.2640   20.3030 N   0  0  0  0  0  0  0  0  0  0  0  0
  -24.9070  -15.9170   20.4780 H   0  0  0  0  0  0  0  0  0  0  0  0
  -26.4800  -15.7030   19.8990 H   0  0  0  0  0  0  0  0  0  0  0  0
  -28.4320  -23.5470   17.4050 C   0  0  0  0  0  1  0  0  0  0  0  0
  -30.4650  -24.1720   18.7190 C   0  0  0  0  0  1  0  0  0  0  0  0
  -28.9230  -24.2590   18.6960 C   0  0  2  0  0  0  0  0  0  0  0  0
  -28.5010  -25.7890   18.5780 C   0  0  0  0  0  2  0  0  0  0  0  0
  -28.4250  -26.7090   19.7120 O   0  0  0  0  0  0  0  0  0  0  0  0
  -24.6470  -31.8010   23.1580 C   0  0  0  0  0  0  0  0  0  0  0  0
  -27.2540  -27.4570   19.8420 C   0  0  0  0  0  0  0  0  0  0  0  0
  -23.4170  -30.4380   21.5090 C   0  0  0  0  0  3  0  0  0  0  0  0
  -24.8480  -28.9660   20.0090 C   0  0  0  0  0  0  0  0  0  0  0  0
  -25.9430  -30.8250   21.2580 C   0  0  0  0  0  2  0  0  0  0  0  0
  -26.0280  -29.4770   20.5620 C   0  0  0  0  0  0  0  0  0  0  0  0
  -27.2360  -28.7320   20.4770 C   0  0  0  0  0  3  0  0  0  0  0  0
  -26.0230  -26.9490   19.3650 C   0  0  0  0  0  3  0  0  0  0  0  0
  -24.8400  -27.6940   19.4220 C   0  0  0  0  0  3  0  0  0  0  0  0
  -23.6030  -29.8160   20.1040 C   0  0  0  0  0  2  0  0  0  0  0  0
  -24.6880  -31.0390   22.0300 N   0  0  0  0  0  0  0  0  0  0  0  0
  -23.5770  -32.0330   23.7390 O   0  0  0  0  0  0  0  0  0  0  0  0
  -22.8140  -29.3680   22.4490 C   0  0  0  0  0  0  0  0  0  0  0  0
  -21.5020  -29.1160   22.3100 N   0  0  0  0  0  0  0  0  0  0  0  0
  -23.5240  -28.7690   23.2620 O   0  0  0  0  0  0  0  0  0  0  0  0
  -20.9870  -29.6600   21.6300 H   0  0  0  0  0  0  0  0  0  0  0  0
  -18.2080  -27.6870   22.7090 C   0  0  0  0  0  0  0  0  0  0  0  0
  -20.7310  -28.1250   23.0590 C   0  0  0  0  0  3  0  0  0  0  0  0
  -20.9520  -26.7020   22.4950 C   0  0  0  0  0  2  0  0  0  0  0  0
  -19.9070  -26.2990   21.4490 C   0  0  0  0  0  2  0  0  0  0  0  0
  -18.5000  -26.3500   22.0490 C   0  0  0  0  0  2  0  0  0  0  0  0
  -19.2570  -28.5280   23.1670 C   0  0  0  0  0  0  0  0  0  0  0  0
  -18.9350  -29.7760   23.7400 C   0  0  0  0  0  3  0  0  0  0  0  0
  -17.5940  -30.1860   23.8650 C   0  0  0  0  0  3  0  0  0  0  0  0
  -16.5580  -29.3440   23.4230 C   0  0  0  0  0  3  0  0  0  0  0  0
  -16.8660  -28.0970   22.8510 C   0  0  0  0  0  3  0  0  0  0  0  0
  -25.9380  -32.4390   23.7570 C   0  0  0  0  0  3  0  0  0  0  0  0
  -26.5070  -31.6400   24.9930 C   0  0  1  0  0  0  0  0  0  0  0  0
  -25.4500  -31.3330   26.0770 C   0  0  0  0  0  1  0  0  0  0  0  0
  -27.1230  -30.2990   24.5380 C   0  0  0  0  0  1  0  0  0  0  0  0
  -27.6390  -32.4510   25.6640 C   0  0  0  0  0  1  0  0  0  0  0  0
  -25.6030  -33.8160   24.1480 N   0  0  0  0  0  0  0  0  0  0  0  0
  -25.8860  -34.9070   23.4220 C   0  0  0  0  0  0  0  0  0  0  0  0
  -26.5300  -34.8610   22.3710 O   0  0  0  0  0  0  0  0  0  0  0  0
  -25.0260  -33.9150   24.9690 H   0  0  0  0  0  0  0  0  0  0  0  0
  -24.1100  -36.6700   23.1780 C   0  0  0  0  0  1  0  0  0  0  0  0
  -25.3770  -36.2630   23.9480 C   0  0  0  0  0  3  0  0  0  0  0  0
  -27.5020  -37.1670   24.7810 C   0  0  0  0  0  1  0  0  0  0  0  0
  -26.3800  -37.3460   23.8600 N   0  0  0  0  0  0  0  0  0  0  0  0
  -25.9550  -38.2490   24.0510 H   0  0  0  0  0  0  0  0  0  0  0  0
  1  4  2  0
  2  3  1  0
  2  5  2  0
  3  1  1  0
  4  8  1  0
  4  7  1  0
  6  3  1  0
 10  9  1  0
 11 12  1  0
 12  1  1  0
 12  9  2  0
 13 24  1  0
 13 10  2  0
 14 11  2  0
 14 13  1  0
 15 14  1  0
 16 24  1  0
 17 22  1  0
 18 19  1  0
 18 17  1  0
 20 19  1  0
 20 29  1  0
 20 21  1  0
 22 16  1  0
 22 21  1  0
 23 16  2  0
 24 25  1  0
 26 27  2  0
 27 46  1  0
 28 27  1  0
 28 31  1  0
 29 30  1  0
 29 26  1  0
 30 28  2  0
 31 32  1  0
 32 33  2  0
 34 37  1  0
 34 33  1  0
 35 34  2  0
 36 35  1  0
 36 31  2  0
 37 38  1  0
 38 43  2  0
 38 39  1  0
 39 40  2  0
 40 41  1  0
 41 45  1  0
 42 41  2  0
 43 42  1  0
 44 43  1  0
 46 47  1  0
 47 50  1  0
 47 49  1  0
 48 46  2  0
 51 26  1  0
 51 52  1  0
 53 51  1  0
 56 54  1  6
 56 55  1  0
 56  2  1  0
 57 56  1  0
 57 58  1  0
 58 60  1  0
 59 70  2  0
 60 65  1  0
 61 69  1  0
 61 71  1  0
 62 68  1  0
 62 64  1  0
 63 69  1  0
 64 63  1  0
 65 64  2  0
 66 67  1  0
 66 60  2  0
 67 62  2  0
 68 61  1  0
 69 59  1  0
 71 73  2  0
 72 71  1  0
 74 72  1  0
 75 84  2  0
 75 80  1  0
 76 72  1  0
 76 80  1  0
 77 76  1  0
 78 79  1  0
 78 77  1  0
 79 75  1  0
 80 81  2  0
 81 82  1  0
 83 82  2  0
 84 83  1  0
 85 59  1  0
 85 90  1  0
 85 86  1  0
 86 89  1  1
 86 87  1  0
 88 86  1  0
 90 93  1  0
 91 95  1  0
 91 90  1  0
 92 91  2  0
 95 94  1  0
 97 95  1  0
 97 98  1  0
 97 96  1  0
M  ISO  4  16 100  24 100  57 101  58 101
M  END
>  <TORSDO>  (25) 
F 19

>  <SCORE>  (25) 
-13.755

>  <name>  (25) 
24

>  <ligand_id>  (25) 
24

>  <original_smiles>  (25) 
[H]c1c([H])c([H])c2c(c1[H])C([H])([H])C([H])([H])C([H])([H])C2([H])N([H])C(=O)C1([H])N(C(=O)C([H])(N([H])C(=O)C([H])(N([H])C([H])([H])[H])C([H])([H])[H])C(C([H])([H])[H])(C([H])([H])[H])C([H])([H])[H])C([H])([H])c2c([H])c(OC([H])([H])C(C(=O)N([H])C(c3c([H])c([H])c(N([H])C(=O)N4C([H])([H])C([H])([H])C([H])([H])C([H])(n5nc(-c6c([H])c([H])c(Oc7c([H])c([H])c(F)c([H])c7F)c([H])c6[H])c(C(=O)N([H])[H])c5N([H])[H])C4([H])[H])c(F)c3[H])=[N+]([H])[H])(C([H])([H])[H])C([H])([H])[H])c([H])c([H])c2C1([H])[H]

>  <smiles>  (25) 
[H]c1c([H])c([H])c2c(c1[H])C([H])([H])C([H])([H])C([H])([H])C2([H])N([H])C(=O)C1([H])N(C(=O)C([H])(N([H])C(=O)C([H])(N([H])C([H])([H])[H])C([H])([H])[H])C(C([H])([H])[H])(C([H])([H])[H])C([H])([H])[H])C([H])([H])c2c([H])c(OC([H])([H])C(C(=O)N([H])C(c3c([H])c([H])c(N([H])C(=O)N4C([H])([H])C([H])([H])C([H])([H])C([H])(n5nc(-c6c([H])c([H])c(Oc7c([H])c([H])c(F)c([H])c7F)c([H])c6[H])c(C(=O)N([H])[H])c5N([H])[H])C4([H])[H])c(F)c3[H])=[N+]([H])[H])(C([H])([H])[H])C([H])([H])[H])c([H])c([H])c2C1([H])[H]

$$$$
25:0:0
     RDKit          3D

 97106  0  0  1  0  0  0  0  0999 V2000
  -30.3550  -19.5750   21.1630 C   0  0  0  0  0  3  0  0  0  0  0  0
  -30.5440  -18.1580   21.2870 C   0  0  0  0  0  3  0  0  0  0  0  0
  -28.7810  -17.8340   19.7330 C   0  0  0  0  0  3  0  0  0  0  0  0
  -28.6080  -19.2530   19.5910 C   0  0  0  0  0  0  0  0  0  0  0  0
  -29.3850  -20.2270   20.3310 C   0  0  0  0  0  0  0  0  0  0  0  0
  -29.7490  -17.2300   20.5700 C   0  0  0  0  0  0  0  0  0  0  0  0
  -30.5620  -14.7380   20.4560 C   0  0  0  0  0  0  0  0  0  0  0  0
  -30.4060  -12.4840   19.3940 C   0  0  0  0  0  2  0  0  0  0  0  0
  -29.4760  -12.5960   18.1640 C   0  0  0  0  0  2  0  0  0  0  0  0
  -27.9980  -12.4240   18.5700 C   0  0  0  0  0  2  0  0  0  0  0  0
  -27.6160  -13.2860   19.8010 C   0  0  0  0  0  3  0  0  0  0  0  0
  -28.6580  -13.1380   20.9340 C   0  0  0  0  0  2  0  0  0  0  0  0
  -29.9710  -13.5000   20.3760 N   0  0  0  0  0  0  0  0  0  0  0  0
  -31.7300  -14.9100   20.0940 O   0  0  0  0  0  0  0  0  0  0  0  0
  -29.7250  -15.7760   20.8050 N   0  0  0  0  0  0  0  0  0  0  0  0
  -28.8100  -15.4250   21.0420 H   0  0  0  0  0  0  0  0  0  0  0  0
  -25.2100  -13.8850   20.4720 C   0  0  0  0  0  0  0  0  0  0  0  0
  -24.1380  -13.1140   20.8300 C   0  0  0  0  0  0  0  0  0  0  0  0
  -24.6040  -11.7640   20.8200 C   0  0  0  0  0  0  0  0  0  0  0  0
  -26.2590  -13.0050   20.2650 N   0  0  0  0  0  0  0  0  0  0  0  0
  -25.8990  -11.7250   20.5350 N   0  0  0  0  0  0  0  0  0  0  0  0
  -23.8770  -10.5010   21.0090 C   0  0  0  0  0  0  0  0  0  0  0  0
  -24.2930   -9.5450   21.9600 C   0  0  0  0  0  3  0  0  0  0  0  0
  -23.5660   -8.3470   22.1360 C   0  0  0  0  0  3  0  0  0  0  0  0
  -22.4110   -8.0980   21.3600 C   0  0  0  0  0  0  0  0  0  0  0  0
  -22.0140   -9.0420   20.3970 C   0  0  0  0  0  3  0  0  0  0  0  0
  -22.7410  -10.2320   20.2190 C   0  0  0  0  0  3  0  0  0  0  0  0
  -21.6590   -6.9510   21.4430 O   0  0  0  0  0  0  0  0  0  0  0  0
  -21.5820   -6.2230   22.6030 C   0  0  0  0  0  0  0  0  0  0  0  0
  -21.1130   -6.7890   23.8090 C   0  0  0  0  0  3  0  0  0  0  0  0
  -20.9860   -5.9880   24.9600 C   0  0  0  0  0  3  0  0  0  0  0  0
  -21.3160   -4.6200   24.9080 C   0  0  0  0  0  0  0  0  0  0  0  0
  -21.7780   -4.0530   23.7070 C   0  0  0  0  0  3  0  0  0  0  0  0
  -21.9070   -4.8520   22.5570 C   0  0  0  0  0  0  0  0  0  0  0  0
  -22.3330   -4.2960   21.3970 F   0  0  0  0  0  0  0  0  0  0  0  0
  -21.1860   -3.8480   26.0110 F   0  0  0  0  0  0  0  0  0  0  0  0
  -22.7350  -13.5900   21.0710 C   0  0  0  0  0  0  0  0  0  0  0  0
  -21.9900  -12.8960   21.9250 N   0  0  0  0  0  0  0  0  0  0  0  0
  -22.3070  -14.6140   20.5390 O   0  0  0  0  0  0  0  0  0  0  0  0
  -22.3480  -12.0690   22.3780 H   0  0  0  0  0  0  0  0  0  0  0  0
  -21.0470  -13.1990   22.1270 H   0  0  0  0  0  0  0  0  0  0  0  0
  -25.3750  -15.2550   20.2840 N   0  0  0  0  0  0  0  0  0  0  0  0
  -24.6000  -15.9050   20.3620 H   0  0  0  0  0  0  0  0  0  0  0  0
  -26.2180  -15.6840   19.9270 H   0  0  0  0  0  0  0  0  0  0  0  0
  -29.6410  -22.7960   21.1690 C   0  0  0  0  0  0  0  0  0  0  0  0
  -28.3290  -22.5510   19.5930 C   0  0  0  0  0  2  0  0  0  0  0  0
  -29.0430  -23.8490   20.1310 C   0  0  2  0  0  0  0  0  0  0  0  0
  -30.1790  -24.4290   19.2810 C   0  0  0  0  0  1  0  0  0  0  0  0
  -29.3040  -21.7230   20.3220 N   0  0  0  0  0  0  0  0  0  0  0  0
  -30.1490  -22.8190   22.2700 O   0  0  0  0  0  0  0  0  0  0  0  0
  -28.1950  -25.0710   20.7490 C   0  0  0  0  0  2  0  0  0  0  0  0
  -28.3910  -26.4850   20.2940 O   0  0  0  0  0  0  0  0  0  0  0  0
  -24.6150  -31.9220   23.2450 C   0  0  0  0  0  0  0  0  0  0  0  0
  -27.2720  -27.3400   20.2580 C   0  0  0  0  0  0  0  0  0  0  0  0
  -23.4290  -30.4980   21.6140 C   0  0  0  0  0  3  0  0  0  0  0  0
  -24.8980  -28.9410   20.2110 C   0  0  0  0  0  0  0  0  0  0  0  0
  -25.9670  -30.8310   21.4390 C   0  0  0  0  0  2  0  0  0  0  0  0
  -26.0610  -29.4440   20.8080 C   0  0  0  0  0  0  0  0  0  0  0  0
  -27.2530  -28.6570   20.8190 C   0  0  0  0  0  3  0  0  0  0  0  0
  -26.0910  -26.8970   19.6250 C   0  0  0  0  0  3  0  0  0  0  0  0
  -24.9160  -27.6730   19.6090 C   0  0  0  0  0  3  0  0  0  0  0  0
  -23.6550  -29.8080   20.2430 C   0  0  0  0  0  2  0  0  0  0  0  0
  -24.6900  -31.1020   22.1560 N   0  0  0  0  0  0  0  0  0  0  0  0
  -23.5280  -32.1970   23.7730 O   0  0  0  0  0  0  0  0  0  0  0  0
  -22.7690  -29.4870   22.5830 C   0  0  0  0  0  0  0  0  0  0  0  0
  -21.4440  -29.3020   22.4540 N   0  0  0  0  0  0  0  0  0  0  0  0
  -23.4480  -28.8720   23.4090 O   0  0  0  0  0  0  0  0  0  0  0  0
  -20.9550  -29.8500   21.7600 H   0  0  0  0  0  0  0  0  0  0  0  0
  -18.0680  -28.1090   22.9700 C   0  0  0  0  0  0  0  0  0  0  0  0
  -20.6270  -28.3690   23.2310 C   0  0  0  0  0  3  0  0  0  0  0  0
  -20.7270  -26.9340   22.6610 C   0  0  0  0  0  2  0  0  0  0  0  0
  -19.6220  -26.6080   21.6510 C   0  0  0  0  0  2  0  0  0  0  0  0
  -18.2410  -26.7560   22.2990 C   0  0  0  0  0  2  0  0  0  0  0  0
  -19.1880  -28.8720   23.3930 C   0  0  0  0  0  0  0  0  0  0  0  0
  -18.9710  -30.1370   23.9810 C   0  0  0  0  0  3  0  0  0  0  0  0
  -17.6670  -30.6390   24.1500 C   0  0  0  0  0  3  0  0  0  0  0  0
  -16.5620  -29.8730   23.7430 C   0  0  0  0  0  3  0  0  0  0  0  0
  -16.7620  -28.6100   23.1590 C   0  0  0  0  0  3  0  0  0  0  0  0
  -25.8910  -32.5700   23.8670 C   0  0  0  0  0  3  0  0  0  0  0  0
  -26.4070  -31.8140   25.1530 C   0  0  1  0  0  0  0  0  0  0  0  0
  -25.3110  -31.5770   26.2180 C   0  0  0  0  0  1  0  0  0  0  0  0
  -27.0040  -30.4370   24.7770 C   0  0  0  0  0  1  0  0  0  0  0  0
  -27.5480  -32.6240   25.8140 C   0  0  0  0  0  1  0  0  0  0  0  0
  -25.5700  -33.9690   24.1840 N   0  0  0  0  0  0  0  0  0  0  0  0
  -25.9010  -35.0180   23.4200 C   0  0  0  0  0  0  0  0  0  0  0  0
  -26.5780  -34.9110   22.3950 O   0  0  0  0  0  0  0  0  0  0  0  0
  -24.9700  -34.1250   24.9800 H   0  0  0  0  0  0  0  0  0  0  0  0
  -24.1700  -36.8040   23.0350 C   0  0  0  0  0  1  0  0  0  0  0  0
  -25.4020  -36.4070   23.8640 C   0  0  0  0  0  3  0  0  0  0  0  0
  -27.5230  -37.3060   24.7160 C   0  0  0  0  0  1  0  0  0  0  0  0
  -26.4320  -37.4640   23.7590 N   0  0  0  0  0  0  0  0  0  0  0  0
  -26.0200  -38.3840   23.8950 H   0  0  0  0  0  0  0  0  0  0  0  0
  -27.5550  -19.6550   18.6010 C   0  0  0  0  0  0  0  0  0  0  0  0
  -26.3090  -19.3450   18.9340 N   0  0  0  0  0  0  0  0  0  0  0  0
  -27.8330  -20.1900   17.5300 O   0  0  0  0  0  0  0  0  0  0  0  0
  -26.1170  -18.9000   19.8200 H   0  0  0  0  0  0  0  0  0  0  0  0
  -25.5450  -19.5580   18.3080 H   0  0  0  0  0  0  0  0  0  0  0  0
  1  2  1  0
  3  6  1  0
  4  3  2  0
  4  5  1  0
  5  1  2  0
  6 15  1  0
  6  2  2  0
  7 15  1  0
  8 13  1  0
  9 10  1  0
  9  8  1  0
 11 10  1  0
 11 20  1  0
 11 12  1  0
 13  7  1  0
 13 12  1  0
 14  7  2  0
 15 16  1  0
 17 18  2  0
 18 37  1  0
 19 18  1  0
 19 22  1  0
 20 17  1  0
 20 21  1  0
 21 19  2  0
 22 23  1  0
 23 24  2  0
 25 28  1  0
 25 24  1  0
 26 25  2  0
 27 26  1  0
 27 22  2  0
 28 29  1  0
 29 30  1  0
 30 31  2  0
 32 31  1  0
 32 36  1  0
 33 32  2  0
 34 29  2  0
 34 33  1  0
 35 34  1  0
 37 38  1  0
 38 41  1  0
 38 40  1  0
 39 37  2  0
 42 43  1  0
 42 17  1  0
 44 42  1  0
 45 50  2  0
 46 47  1  0
 46 49  1  0
 47 48  1  6
 47 51  1  0
 47 45  1  0
 49  5  1  0
 49 45  1  0
 52 51  1  0
 53 64  2  0
 54 52  1  0
 54 59  1  0
 55 63  1  0
 55 65  1  0
 56 62  1  0
 56 58  1  0
 57 63  1  0
 58 59  2  0
 58 57  1  0
 60 54  2  0
 61 60  1  0
 61 56  2  0
 62 55  1  0
 63 53  1  0
 65 67  2  0
 66 65  1  0
 68 66  1  0
 69 78  2  0
 69 74  1  0
 70 66  1  0
 70 74  1  0
 71 70  1  0
 72 73  1  0
 72 71  1  0
 73 69  1  0
 74 75  2  0
 75 76  1  0
 77 76  2  0
 78 77  1  0
 79 53  1  0
 79 84  1  0
 79 80  1  0
 80 83  1  1
 80 81  1  0
 82 80  1  0
 84 87  1  0
 85 89  1  0
 85 84  1  0
 86 85  2  0
 89 88  1  0
 91 89  1  0
 91 92  1  0
 91 90  1  0
 93 94  1  0
 93  4  1  0
 94 96  1  0
 95 93  2  0
 97 94  1  0
M  ISO  4   7 100  15 100  51 101  52 101
M  END
>  <TORSDO>  (26) 
F 19

>  <SCORE>  (26) 
-14.787

>  <name>  (26) 
25

>  <ligand_id>  (26) 
25

>  <original_smiles>  (26) 
[H]c1c([H])c([H])c2c(c1[H])C([H])([H])C([H])([H])C([H])([H])C2([H])N([H])C(=O)C1([H])N(C(=O)C([H])(N([H])C(=O)C([H])(N([H])C([H])([H])[H])C([H])([H])[H])C(C([H])([H])[H])(C([H])([H])[H])C([H])([H])[H])C([H])([H])c2c([H])c(OC([H])([H])C3(C([H])([H])[H])C(=O)N(c4c([H])c([H])c(N([H])C(=O)N5C([H])([H])C([H])([H])C([H])([H])C([H])(n6nc(-c7c([H])c([H])c(Oc8c([H])c([H])c(F)c([H])c8F)c([H])c7[H])c(C(=O)N([H])[H])c6N([H])[H])C5([H])[H])c([H])c4C(=O)N([H])[H])C3([H])[H])c([H])c([H])c2C1([H])[H]

>  <smiles>  (26) 
[H]c1c([H])c([H])c2c(c1[H])C([H])([H])C([H])([H])C([H])([H])C2([H])N([H])C(=O)C1([H])N(C(=O)C([H])(N([H])C(=O)C([H])(N([H])C([H])([H])[H])C([H])([H])[H])C(C([H])([H])[H])(C([H])([H])[H])C([H])([H])[H])C([H])([H])c2c([H])c(OC([H])([H])C3(C([H])([H])[H])C(=O)N(c4c([H])c([H])c(N([H])C(=O)N5C([H])([H])C([H])([H])C([H])([H])C([H])(n6nc(-c7c([H])c([H])c(Oc8c([H])c([H])c(F)c([H])c8F)c([H])c7[H])c(C(=O)N([H])[H])c6N([H])[H])C5([H])[H])c([H])c4C(=O)N([H])[H])C3([H])[H])c([H])c([H])c2C1([H])[H]

$$$$
26:0:0
     RDKit          3D

101109  0  0  1  0  0  0  0  0999 V2000
  -29.7040  -20.6910   20.5160 C   0  0  0  0  0  0  0  0  0  0  0  0
  -29.2920  -23.1080   20.0920 C   0  0  0  0  0  3  0  0  0  0  0  0
  -31.7840  -23.2380   19.8270 C   0  0  0  0  0  0  0  0  0  0  0  0
  -32.9720  -24.1350   20.1530 C   0  0  0  0  0  1  0  0  0  0  0  0
  -30.5070  -23.7080   20.2850 N   0  0  0  0  0  0  0  0  0  0  0  0
  -30.4430  -20.8800   21.6190 N   0  0  0  0  0  4  0  0  0  0  0  0
  -29.0500  -21.7510   19.9580 N   0  0  0  0  0  0  0  0  0  0  0  0
  -31.8960  -22.2090   19.1530 O   0  0  0  0  0  0  0  0  0  0  0  0
  -30.4420  -24.6310   20.6900 H   0  0  0  0  0  0  0  0  0  0  0  0
  -31.0110  -20.1240   21.9640 H   0  0  0  0  0  0  0  0  0  0  0  0
  -30.3150  -21.6920   22.1990 H   0  0  0  0  0  0  0  0  0  0  0  0
  -28.2320  -21.4820   19.4340 H   0  0  0  0  0  0  0  0  0  0  0  0
  -29.6540  -17.9240   17.9070 C   0  0  0  0  0  3  0  0  0  0  0  0
  -29.6280  -19.1970   18.5090 C   0  0  0  0  0  3  0  0  0  0  0  0
  -29.7410  -16.7640   18.6980 C   0  0  0  0  0  3  0  0  0  0  0  0
  -29.7010  -18.1400   20.7130 C   0  0  0  0  0  3  0  0  0  0  0  0
  -29.6510  -19.3280   19.9180 C   0  0  0  0  0  0  0  0  0  0  0  0
  -29.7800  -16.8520   20.1090 C   0  0  0  0  0  0  0  0  0  0  0  0
  -30.6310  -14.5920   20.5940 C   0  0  0  0  0  0  0  0  0  0  0  0
  -30.4310  -12.3730   19.5580 C   0  0  0  0  0  2  0  0  0  0  0  0
  -29.5290  -12.5260   18.3150 C   0  0  0  0  0  2  0  0  0  0  0  0
  -28.0410  -12.3840   18.6980 C   0  0  0  0  0  2  0  0  0  0  0  0
  -27.6490  -13.2480   19.9280 C   0  0  0  0  0  3  0  0  0  0  0  0
  -28.6740  -13.0800   21.0750 C   0  0  0  0  0  2  0  0  0  0  0  0
  -30.0090  -13.3840   20.5390 N   0  0  0  0  0  0  0  0  0  0  0  0
  -31.7930  -14.7630   20.2110 O   0  0  0  0  0  0  0  0  0  0  0  0
  -29.8400  -15.6490   20.8910 N   0  0  0  0  0  0  0  0  0  0  0  0
  -29.0010  -15.4230   21.4030 H   0  0  0  0  0  0  0  0  0  0  0  0
  -25.2320  -13.8410   20.5850 C   0  0  0  0  0  0  0  0  0  0  0  0
  -24.1590  -13.0640   20.9320 C   0  0  0  0  0  0  0  0  0  0  0  0
  -24.6300  -11.7150   20.9190 C   0  0  0  0  0  0  0  0  0  0  0  0
  -26.2870  -12.9660   20.3770 N   0  0  0  0  0  0  0  0  0  0  0  0
  -25.9280  -11.6840   20.6390 N   0  0  0  0  0  0  0  0  0  0  0  0
  -23.9100  -10.4480   21.0980 C   0  0  0  0  0  0  0  0  0  0  0  0
  -24.3290   -9.4870   22.0430 C   0  0  0  0  0  3  0  0  0  0  0  0
  -23.6120   -8.2820   22.2070 C   0  0  0  0  0  3  0  0  0  0  0  0
  -22.4580   -8.0310   21.4250 C   0  0  0  0  0  0  0  0  0  0  0  0
  -22.0580   -8.9820   20.4700 C   0  0  0  0  0  3  0  0  0  0  0  0
  -22.7780  -10.1780   20.3040 C   0  0  0  0  0  3  0  0  0  0  0  0
  -21.7120   -6.8800   21.4980 O   0  0  0  0  0  0  0  0  0  0  0  0
  -21.6420   -6.1400   22.6510 C   0  0  0  0  0  0  0  0  0  0  0  0
  -21.1590   -6.6860   23.8610 C   0  0  0  0  0  3  0  0  0  0  0  0
  -21.0390   -5.8690   25.0030 C   0  0  0  0  0  3  0  0  0  0  0  0
  -21.3940   -4.5090   24.9370 C   0  0  0  0  0  0  0  0  0  0  0  0
  -21.8680   -3.9620   23.7330 C   0  0  0  0  0  3  0  0  0  0  0  0
  -21.9910   -4.7750   22.5920 C   0  0  0  0  0  0  0  0  0  0  0  0
  -22.4300   -4.2390   21.4290 F   0  0  0  0  0  0  0  0  0  0  0  0
  -21.2730   -3.7220   26.0330 F   0  0  0  0  0  0  0  0  0  0  0  0
  -22.7510  -13.5330   21.1670 C   0  0  0  0  0  0  0  0  0  0  0  0
  -22.0010  -12.8320   22.0100 N   0  0  0  0  0  0  0  0  0  0  0  0
  -22.3220  -14.5570   20.6360 O   0  0  0  0  0  0  0  0  0  0  0  0
  -22.3600  -12.0080   22.4690 H   0  0  0  0  0  0  0  0  0  0  0  0
  -21.0550  -13.1280   22.2030 H   0  0  0  0  0  0  0  0  0  0  0  0
  -25.3980  -15.2100   20.4040 N   0  0  0  0  0  0  0  0  0  0  0  0
  -24.6280  -15.8660   20.4790 H   0  0  0  0  0  0  0  0  0  0  0  0
  -26.2520  -15.6410   20.0760 H   0  0  0  0  0  0  0  0  0  0  0  0
  -26.7790  -23.3480   19.9120 C   0  0  0  0  0  1  0  0  0  0  0  0
  -28.3600  -24.5330   18.3350 C   0  0  0  0  0  1  0  0  0  0  0  0
  -28.1370  -24.0910   19.7980 C   0  0  2  0  0  0  0  0  0  0  0  0
  -28.1350  -25.3420   20.7720 C   0  0  0  0  0  2  0  0  0  0  0  0
  -28.2810  -26.6640   20.1890 O   0  0  0  0  0  0  0  0  0  0  0  0
  -24.5460  -31.9220   23.2760 C   0  0  0  0  0  0  0  0  0  0  0  0
  -27.1410  -27.4470   20.1840 C   0  0  0  0  0  0  0  0  0  0  0  0
  -23.3260  -30.5260   21.6450 C   0  0  0  0  0  3  0  0  0  0  0  0
  -24.7640  -28.9850   20.2090 C   0  0  0  0  0  0  0  0  0  0  0  0
  -25.8540  -30.8690   21.4300 C   0  0  0  0  0  2  0  0  0  0  0  0
  -25.9300  -29.4950   20.7920 C   0  0  0  0  0  0  0  0  0  0  0  0
  -27.1260  -28.7340   20.7750 C   0  0  0  0  0  3  0  0  0  0  0  0
  -25.9620  -26.9700   19.5760 C   0  0  0  0  0  3  0  0  0  0  0  0
  -24.7750  -27.7210   19.5980 C   0  0  0  0  0  3  0  0  0  0  0  0
  -23.5260  -29.8540   20.2600 C   0  0  0  0  0  2  0  0  0  0  0  0
  -24.5950  -31.1200   22.1770 N   0  0  0  0  0  0  0  0  0  0  0  0
  -23.4670  -32.1990   23.8210 O   0  0  0  0  0  0  0  0  0  0  0  0
  -22.6740  -29.5030   22.6040 C   0  0  0  0  0  0  0  0  0  0  0  0
  -21.3520  -29.3150   22.4720 N   0  0  0  0  0  0  0  0  0  0  0  0
  -23.3580  -28.8870   23.4260 O   0  0  0  0  0  0  0  0  0  0  0  0
  -20.8630  -29.8680   21.7820 H   0  0  0  0  0  0  0  0  0  0  0  0
  -17.9790  -28.1000   22.9510 C   0  0  0  0  0  0  0  0  0  0  0  0
  -20.5340  -28.3760   23.2400 C   0  0  0  0  0  3  0  0  0  0  0  0
  -20.6490  -26.9410   22.6730 C   0  0  0  0  0  2  0  0  0  0  0  0
  -19.5560  -26.6050   21.6540 C   0  0  0  0  0  2  0  0  0  0  0  0
  -18.1690  -26.7470   22.2880 C   0  0  0  0  0  2  0  0  0  0  0  0
  -19.0910  -28.8720   23.3840 C   0  0  0  0  0  0  0  0  0  0  0  0
  -18.8620  -30.1380   23.9640 C   0  0  0  0  0  3  0  0  0  0  0  0
  -17.5530  -30.6330   24.1190 C   0  0  0  0  0  3  0  0  0  0  0  0
  -16.4570  -29.8580   23.7040 C   0  0  0  0  0  3  0  0  0  0  0  0
  -16.6700  -28.5950   23.1240 C   0  0  0  0  0  3  0  0  0  0  0  0
  -25.8350  -32.5490   23.8890 C   0  0  0  0  0  3  0  0  0  0  0  0
  -26.3450  -31.7880   25.1740 C   0  0  1  0  0  0  0  0  0  0  0  0
  -25.2520  -31.5690   26.2460 C   0  0  0  0  0  1  0  0  0  0  0  0
  -26.9170  -30.4020   24.7920 C   0  0  0  0  0  1  0  0  0  0  0  0
  -27.4990  -32.5840   25.8270 C   0  0  0  0  0  1  0  0  0  0  0  0
  -25.5370  -33.9530   24.2000 N   0  0  0  0  0  0  0  0  0  0  0  0
  -25.8840  -34.9930   23.4310 C   0  0  0  0  0  0  0  0  0  0  0  0
  -26.5630  -34.8720   22.4060 O   0  0  0  0  0  0  0  0  0  0  0  0
  -24.9380  -34.1240   24.9950 H   0  0  0  0  0  0  0  0  0  0  0  0
  -24.1900  -36.8080   23.0230 C   0  0  0  0  0  1  0  0  0  0  0  0
  -25.4050  -36.3920   23.8660 C   0  0  0  0  0  3  0  0  0  0  0  0
  -27.5280  -37.2530   24.7440 C   0  0  0  0  0  1  0  0  0  0  0  0
  -26.4540  -37.4310   23.7710 N   0  0  0  0  0  0  0  0  0  0  0  0
  -26.0560  -38.3570   23.9050 H   0  0  0  0  0  0  0  0  0  0  0  0
  1  6  2  0
  2 59  1  0
  2  5  1  0
  3  4  1  0
  3  5  1  0
  5  9  1  0
  6 10  1  0
  6 11  1  0
  7  2  1  0
  7  1  1  0
  8  3  2  0
 12  7  1  0
 13 14  2  0
 13 15  1  0
 14 17  1  0
 15 18  2  0
 17  1  1  0
 17 16  2  0
 18 16  1  0
 18 27  1  0
 19 27  1  0
 20 25  1  0
 21 22  1  0
 21 20  1  0
 23 22  1  0
 23 32  1  0
 23 24  1  0
 25 19  1  0
 25 24  1  0
 26 19  2  0
 27 28  1  0
 29 30  2  0
 30 49  1  0
 31 30  1  0
 31 34  1  0
 32 29  1  0
 32 33  1  0
 33 31  2  0
 34 35  1  0
 35 36  2  0
 37 40  1  0
 37 36  1  0
 38 37  2  0
 39 38  1  0
 39 34  2  0
 40 41  1  0
 41 42  1  0
 42 43  2  0
 44 43  1  0
 44 48  1  0
 45 44  2  0
 46 41  2  0
 46 45  1  0
 47 46  1  0
 49 50  1  0
 50 53  1  0
 50 52  1  0
 51 49  2  0
 54 55  1  0
 54 29  1  0
 56 54  1  0
 59 58  1  6
 59 57  1  0
 59 60  1  0
 61 60  1  0
 62 73  2  0
 63 61  1  0
 63 68  1  0
 64 72  1  0
 64 74  1  0
 65 71  1  0
 65 67  1  0
 66 72  1  0
 67 66  1  0
 68 67  2  0
 69 70  1  0
 69 63  2  0
 70 65  2  0
 71 64  1  0
 72 62  1  0
 74 76  2  0
 75 74  1  0
 77 75  1  0
 78 87  2  0
 78 83  1  0
 79 75  1  0
 79 83  1  0
 80 79  1  0
 81 82  1  0
 81 80  1  0
 82 78  1  0
 83 84  2  0
 84 85  1  0
 86 85  2  0
 87 86  1  0
 88 62  1  0
 88 93  1  0
 88 89  1  0
 89 92  1  1
 89 90  1  0
 91 89  1  0
 93 96  1  0
 94 98  1  0
 94 93  1  0
 95 94  2  0
 98 97  1  0
100 98  1  0
100101  1  0
100 99  1  0
M  ISO  4  19 100  27 100  60 101  61 101
M  END
>  <TORSDO>  (27) 
F 19

>  <SCORE>  (27) 
-14.149

>  <name>  (27) 
26

>  <ligand_id>  (27) 
26

>  <original_smiles>  (27) 
[H]c1c([H])c(C(N([H])C(=[N+]([H])C(=O)C([H])([H])[H])C(C([H])([H])[H])(C([H])([H])[H])C([H])([H])Oc2c([H])c([H])c3c(c2[H])C([H])([H])N(C(=O)C([H])(N([H])C(=O)C([H])(N([H])C([H])([H])[H])C([H])([H])[H])C(C([H])([H])[H])(C([H])([H])[H])C([H])([H])[H])C([H])(C(=O)N([H])C2([H])c4c([H])c([H])c([H])c([H])c4C([H])([H])C([H])([H])C2([H])[H])C3([H])[H])=[N+]([H])[H])c([H])c(N([H])C(=O)N2C([H])([H])C([H])([H])C([H])([H])C([H])(n3nc(-c4c([H])c([H])c(Oc5c([H])c([H])c(F)c([H])c5F)c([H])c4[H])c(C(=O)N([H])[H])c3N([H])[H])C2([H])[H])c1[H]

>  <smiles>  (27) 
[H]c1c([H])c(C(N([H])C(=[N+]([H])C(=O)C([H])([H])[H])C(C([H])([H])[H])(C([H])([H])[H])C([H])([H])Oc2c([H])c([H])c3c(c2[H])C([H])([H])N(C(=O)C([H])(N([H])C(=O)C([H])(N([H])C([H])([H])[H])C([H])([H])[H])C(C([H])([H])[H])(C([H])([H])[H])C([H])([H])[H])C([H])(C(=O)N([H])C2([H])c4c([H])c([H])c([H])c([H])c4C([H])([H])C([H])([H])C2([H])[H])C3([H])[H])=[N+]([H])[H])c([H])c(N([H])C(=O)N2C([H])([H])C([H])([H])C([H])([H])C([H])(n3nc(-c4c([H])c([H])c(Oc5c([H])c([H])c(F)c([H])c5F)c([H])c4[H])c(C(=O)N([H])[H])c3N([H])[H])C2([H])[H])c1[H]

$$$$
27:0:0
     RDKit          3D

 93102  0  0  1  0  0  0  0  0999 V2000
  -28.7780  -23.6880   21.4130 C   0  0  0  0  0  3  0  0  0  0  0  0
  -28.8390  -23.9470   20.1090 C   0  0  0  0  0  0  0  0  0  0  0  0
  -29.0230  -22.2730   21.6760 C   0  0  0  0  0  0  0  0  0  0  0  0
  -29.1630  -22.6070   19.4000 C   0  0  0  0  0  2  0  0  0  0  0  0
  -29.2040  -21.5940   20.5010 N   0  0  0  0  0  0  0  0  0  0  0  0
  -29.0780  -21.7790   22.8070 O   0  0  0  0  0  0  0  0  0  0  0  0
  -28.9060  -19.2110   21.3320 C   0  0  0  0  0  3  0  0  0  0  0  0
  -30.2310  -19.4900   19.3690 C   0  0  0  0  0  3  0  0  0  0  0  0
  -29.1870  -17.8160   21.3270 C   0  0  0  0  0  3  0  0  0  0  0  0
  -30.5170  -18.0720   19.3630 C   0  0  0  0  0  3  0  0  0  0  0  0
  -29.4460  -20.1230   20.3830 C   0  0  0  0  0  0  0  0  0  0  0  0
  -30.0340  -17.1820   20.3730 C   0  0  0  0  0  0  0  0  0  0  0  0
  -30.8050  -14.8010   19.6230 C   0  0  0  0  0  0  0  0  0  0  0  0
  -30.4010  -12.6260   18.4380 C   0  0  0  0  0  2  0  0  0  0  0  0
  -29.2970  -12.7830   17.3690 C   0  0  0  0  0  2  0  0  0  0  0  0
  -27.9000  -12.5870   17.9900 C   0  0  0  0  0  2  0  0  0  0  0  0
  -27.7170  -13.3980   19.2970 C   0  0  0  0  0  3  0  0  0  0  0  0
  -28.9140  -13.1990   20.2470 C   0  0  0  0  0  2  0  0  0  0  0  0
  -30.1380  -13.5960   19.5280 N   0  0  0  0  0  0  0  0  0  0  0  0
  -31.7950  -15.0160   18.9150 O   0  0  0  0  0  0  0  0  0  0  0  0
  -30.6450  -15.3390   21.9450 C   0  0  0  0  0  1  0  0  0  0  0  0
  -30.3720  -15.7380   20.5500 N   0  0  0  0  0  0  0  0  0  0  0  0
  -25.4870  -13.9640   20.4380 C   0  0  0  0  0  0  0  0  0  0  0  0
  -24.4620  -13.1790   20.8910 C   0  0  0  0  0  0  0  0  0  0  0  0
  -24.8650  -11.8290   20.6530 C   0  0  0  0  0  0  0  0  0  0  0  0
  -26.4500  -13.0930   19.9540 N   0  0  0  0  0  0  0  0  0  0  0  0
  -26.0900  -11.7960   20.1430 N   0  0  0  0  0  0  0  0  0  0  0  0
  -24.1310  -10.5700   20.8300 C   0  0  0  0  0  0  0  0  0  0  0  0
  -24.6390   -9.5230   21.6310 C   0  0  0  0  0  3  0  0  0  0  0  0
  -23.9050   -8.3290   21.7980 C   0  0  0  0  0  3  0  0  0  0  0  0
  -22.6490   -8.1720   21.1650 C   0  0  0  0  0  0  0  0  0  0  0  0
  -22.1580   -9.2070   20.3510 C   0  0  0  0  0  3  0  0  0  0  0  0
  -22.8920  -10.3930   20.1800 C   0  0  0  0  0  3  0  0  0  0  0  0
  -21.8780   -7.0380   21.2510 O   0  0  0  0  0  0  0  0  0  0  0  0
  -21.8980   -6.2360   22.3640 C   0  0  0  0  0  0  0  0  0  0  0  0
  -21.5980   -6.7370   23.6500 C   0  0  0  0  0  3  0  0  0  0  0  0
  -21.5630   -5.8640   24.7550 C   0  0  0  0  0  3  0  0  0  0  0  0
  -21.8160   -4.4910   24.5770 C   0  0  0  0  0  0  0  0  0  0  0  0
  -22.1100   -3.9890   23.2970 C   0  0  0  0  0  3  0  0  0  0  0  0
  -22.1470   -4.8600   22.1920 C   0  0  0  0  0  0  0  0  0  0  0  0
  -22.4090   -4.3670   20.9580 F   0  0  0  0  0  0  0  0  0  0  0  0
  -21.7750   -3.6500   25.6370 F   0  0  0  0  0  0  0  0  0  0  0  0
  -23.1410  -13.6540   21.4240 C   0  0  0  0  0  0  0  0  0  0  0  0
  -22.5400  -12.8980   22.3360 N   0  0  0  0  0  0  0  0  0  0  0  0
  -22.6570  -14.7270   21.0680 O   0  0  0  0  0  0  0  0  0  0  0  0
  -22.9480  -12.0270   22.6440 H   0  0  0  0  0  0  0  0  0  0  0  0
  -21.6600  -13.1940   22.7340 H   0  0  0  0  0  0  0  0  0  0  0  0
  -25.6730  -15.3430   20.3770 N   0  0  0  0  0  0  0  0  0  0  0  0
  -24.9640  -16.0010   20.6820 H   0  0  0  0  0  0  0  0  0  0  0  0
  -26.4950  -15.7950   19.9940 H   0  0  0  0  0  0  0  0  0  0  0  0
  -29.8550  -25.6800   18.5420 C   0  0  0  0  0  1  0  0  0  0  0  0
  -28.6250  -25.3380   19.3870 C   0  0  0  0  0  3  0  0  0  0  0  0
  -28.4030  -26.5620   20.2140 O   0  0  0  0  0  0  0  0  0  0  0  0
  -24.5860  -31.9280   23.1980 C   0  0  0  0  0  0  0  0  0  0  0  0
  -27.2640  -27.3930   20.1210 C   0  0  0  0  0  0  0  0  0  0  0  0
  -23.4120  -30.5410   21.5270 C   0  0  0  0  0  3  0  0  0  0  0  0
  -24.8890  -29.0110   20.1040 C   0  0  0  0  0  0  0  0  0  0  0  0
  -25.9550  -30.8650   21.3860 C   0  0  0  0  0  2  0  0  0  0  0  0
  -26.0480  -29.4920   20.7230 C   0  0  0  0  0  0  0  0  0  0  0  0
  -27.2320  -28.6940   20.7240 C   0  0  0  0  0  3  0  0  0  0  0  0
  -26.0710  -26.9650   19.4930 C   0  0  0  0  0  3  0  0  0  0  0  0
  -24.9040  -27.7530   19.4830 C   0  0  0  0  0  3  0  0  0  0  0  0
  -23.6490  -29.8810   20.1430 C   0  0  0  0  0  2  0  0  0  0  0  0
  -24.6690  -31.1290   22.0930 N   0  0  0  0  0  0  0  0  0  0  0  0
  -23.4930  -32.1960   23.7190 O   0  0  0  0  0  0  0  0  0  0  0  0
  -22.7400  -29.5120   22.4670 C   0  0  0  0  0  0  0  0  0  0  0  0
  -21.4190  -29.3200   22.3090 N   0  0  0  0  0  0  0  0  0  0  0  0
  -23.4060  -28.8910   23.3000 O   0  0  0  0  0  0  0  0  0  0  0  0
  -20.9400  -29.8740   21.6130 H   0  0  0  0  0  0  0  0  0  0  0  0
  -18.0500  -28.0620   22.7050 C   0  0  0  0  0  0  0  0  0  0  0  0
  -20.5920  -28.3720   23.0580 C   0  0  0  0  0  3  0  0  0  0  0  0
  -20.7410  -26.9400   22.4930 C   0  0  0  0  0  2  0  0  0  0  0  0
  -19.6790  -26.5920   21.4440 C   0  0  0  0  0  2  0  0  0  0  0  0
  -18.2740  -26.7140   22.0420 C   0  0  0  0  0  2  0  0  0  0  0  0
  -19.1390  -28.8470   23.1680 C   0  0  0  0  0  0  0  0  0  0  0  0
  -18.8770  -30.1080   23.7470 C   0  0  0  0  0  3  0  0  0  0  0  0
  -17.5570  -30.5840   23.8680 C   0  0  0  0  0  3  0  0  0  0  0  0
  -16.4820  -29.7960   23.4210 C   0  0  0  0  0  3  0  0  0  0  0  0
  -16.7290  -28.5370   22.8460 C   0  0  0  0  0  3  0  0  0  0  0  0
  -25.8560  -32.5600   23.8450 C   0  0  0  0  0  3  0  0  0  0  0  0
  -25.5350  -33.9540   24.1840 N   0  0  0  0  0  0  0  0  0  0  0  0
  -25.8730  -35.0160   23.4400 C   0  0  0  0  0  0  0  0  0  0  0  0
  -26.5570  -34.9260   22.4170 O   0  0  0  0  0  0  0  0  0  0  0  0
  -24.9290  -34.0980   24.9780 H   0  0  0  0  0  0  0  0  0  0  0  0
  -24.1460  -36.8090   23.0780 C   0  0  0  0  0  1  0  0  0  0  0  0
  -25.3750  -36.3980   23.9060 C   0  0  0  0  0  3  0  0  0  0  0  0
  -27.4950  -37.2780   24.7780 C   0  0  0  0  0  1  0  0  0  0  0  0
  -26.4060  -37.4550   23.8210 N   0  0  0  0  0  0  0  0  0  0  0  0
  -25.9950  -38.3720   23.9750 H   0  0  0  0  0  0  0  0  0  0  0  0
  -26.3540  -31.7810   25.1240 C   0  0  1  0  0  0  0  0  0  0  0  0
  -25.2410  -31.5180   26.1650 C   0  0  0  0  0  1  0  0  0  0  0  0
  -26.9630  -30.4140   24.7310 C   0  0  0  0  0  1  0  0  0  0  0  0
  -27.4810  -32.5810   25.8190 C   0  0  0  0  0  1  0  0  0  0  0  0
  1  3  1  0
  2  1  2  0
  3  6  2  0
  4  2  1  0
  4  5  1  0
  5  3  1  0
  8 11  1  0
  9  7  1  0
 10  8  2  0
 10 12  1  0
 11  5  1  0
 11  7  2  0
 12 22  1  0
 12  9  2  0
 13 22  1  0
 14 19  1  0
 15 16  1  0
 15 14  1  0
 17 16  1  0
 17 26  1  0
 17 18  1  0
 19 13  1  0
 19 18  1  0
 20 13  2  0
 22 21  1  0
 23 24  2  0
 24 43  1  0
 25 28  1  0
 25 24  1  0
 26 27  1  0
 26 23  1  0
 27 25  2  0
 28 29  1  0
 29 30  2  0
 31 34  1  0
 31 30  1  0
 32 31  2  0
 33 32  1  0
 33 28  2  0
 34 35  1  0
 35 36  1  0
 36 37  2  0
 38 37  1  0
 38 42  1  0
 39 38  2  0
 40 35  2  0
 40 39  1  0
 41 40  1  0
 43 44  1  0
 44 46  1  0
 44 47  1  0
 45 43  2  0
 48 23  1  0
 48 49  1  0
 50 48  1  0
 52 51  1  0
 52  2  1  0
 52 53  1  0
 54 65  2  0
 55 53  1  0
 55 60  1  0
 56 64  1  0
 56 66  1  0
 57 63  1  0
 57 59  1  0
 58 64  1  0
 59 60  2  0
 59 58  1  0
 61 55  2  0
 62 61  1  0
 62 57  2  0
 63 56  1  0
 64 54  1  0
 66 68  2  0
 67 66  1  0
 69 67  1  0
 70 79  2  0
 70 75  1  0
 71 67  1  0
 71 75  1  0
 72 71  1  0
 73 74  1  0
 73 72  1  0
 74 70  1  0
 75 76  2  0
 76 77  1  0
 78 77  2  0
 79 78  1  0
 80 54  1  0
 80 81  1  0
 80 90  1  0
 81 84  1  0
 82 86  1  0
 82 81  1  0
 83 82  2  0
 86 85  1  0
 88 86  1  0
 88 89  1  0
 88 87  1  0
 90 93  1  1
 90 91  1  0
 92 90  1  0
M  ISO  4  13 100  22 100  52 101  53 101
M  END
>  <TORSDO>  (28) 
F 18

>  <SCORE>  (28) 
-12.359

>  <name>  (28) 
27

>  <ligand_id>  (28) 
27

>  <original_smiles>  (28) 
[H]C1=C(C([H])(Oc2c([H])c([H])c3c(c2[H])C([H])([H])N(C(=O)C([H])(N([H])C(=O)C([H])(N([H])C([H])([H])[H])C([H])([H])[H])C(C([H])([H])[H])(C([H])([H])[H])C([H])([H])[H])C([H])(C(=O)N([H])C2([H])c4c([H])c([H])c([H])c([H])c4C([H])([H])C([H])([H])C2([H])[H])C3([H])[H])C([H])([H])[H])C([H])([H])N(c2c([H])c([H])c(N(C(=O)N3C([H])([H])C([H])([H])C([H])([H])C([H])(n4nc(-c5c([H])c([H])c(Oc6c([H])c([H])c(F)c([H])c6F)c([H])c5[H])c(C(=O)N([H])[H])c4N([H])[H])C3([H])[H])C([H])([H])[H])c([H])c2[H])C1=O

>  <smiles>  (28) 
[H]C1=C(C([H])(Oc2c([H])c([H])c3c(c2[H])C([H])([H])N(C(=O)C([H])(N([H])C(=O)C([H])(N([H])C([H])([H])[H])C([H])([H])[H])C(C([H])([H])[H])(C([H])([H])[H])C([H])([H])[H])C([H])(C(=O)N([H])C2([H])c4c([H])c([H])c([H])c([H])c4C([H])([H])C([H])([H])C2([H])[H])C3([H])[H])C([H])([H])[H])C([H])([H])N(c2c([H])c([H])c(N(C(=O)N3C([H])([H])C([H])([H])C([H])([H])C([H])(n4nc(-c5c([H])c([H])c(Oc6c([H])c([H])c(F)c([H])c6F)c([H])c5[H])c(C(=O)N([H])[H])c4N([H])[H])C3([H])[H])C([H])([H])[H])c([H])c2[H])C1=O

$$$$
28:0:0
     RDKit          3D

 96105  0  0  1  0  0  0  0  0999 V2000
  -28.8150  -19.0220   19.4650 C   0  0  0  0  0  3  0  0  0  0  0  0
  -28.3700  -20.3490   19.6630 C   0  0  0  0  0  3  0  0  0  0  0  0
  -29.8290  -20.5570   21.5380 C   0  0  0  0  0  3  0  0  0  0  0  0
  -29.8350  -18.4490   20.2650 C   0  0  0  0  0  0  0  0  0  0  0  0
  -28.8920  -21.1830   20.6770 C   0  0  0  0  0  0  0  0  0  0  0  0
  -30.3070  -19.2270   21.3580 C   0  0  0  0  0  0  0  0  0  0  0  0
  -28.5150  -24.5520   20.7020 C   0  0  0  0  0  0  0  0  0  0  0  0
  -28.7870  -23.5860   21.7340 C   0  0  0  0  0  0  0  0  0  0  0  0
  -28.4740  -25.9040   20.7540 C   0  0  0  0  0  3  0  0  0  0  0  0
  -28.3460  -23.4490   19.6720 C   0  0  0  0  0  2  0  0  0  0  0  0
  -28.4920  -22.5550   20.8380 N   0  0  0  0  0  0  0  0  0  0  0  0
  -29.2340  -23.7020   22.8580 O   0  0  0  0  0  0  0  0  0  0  0  0
  -28.2560  -26.7430   19.6820 O   0  0  0  0  0  0  0  0  0  0  0  0
  -24.4330  -31.7520   23.0410 C   0  0  0  0  0  0  0  0  0  0  0  0
  -27.1070  -27.4950   19.7430 C   0  0  0  0  0  0  0  0  0  0  0  0
  -23.2220  -30.3770   21.3790 C   0  0  0  0  0  3  0  0  0  0  0  0
  -24.6810  -28.9360   19.8580 C   0  0  0  0  0  0  0  0  0  0  0  0
  -25.7300  -30.8190   21.1270 C   0  0  0  0  0  2  0  0  0  0  0  0
  -25.8400  -29.4720   20.4380 C   0  0  0  0  0  0  0  0  0  0  0  0
  -27.0590  -28.7580   20.3800 C   0  0  0  0  0  3  0  0  0  0  0  0
  -25.9370  -26.9770   19.1550 C   0  0  0  0  0  3  0  0  0  0  0  0
  -24.7240  -27.6880   19.2130 C   0  0  0  0  0  3  0  0  0  0  0  0
  -23.4130  -29.7540   19.9700 C   0  0  0  0  0  2  0  0  0  0  0  0
  -24.4810  -30.9960   21.9070 N   0  0  0  0  0  0  0  0  0  0  0  0
  -23.3620  -31.9720   23.6200 O   0  0  0  0  0  0  0  0  0  0  0  0
  -22.6260  -29.3020   22.3180 C   0  0  0  0  0  0  0  0  0  0  0  0
  -21.3070  -29.0770   22.2110 N   0  0  0  0  0  0  0  0  0  0  0  0
  -23.3480  -28.6730   23.0990 O   0  0  0  0  0  0  0  0  0  0  0  0
  -20.7810  -29.6410   21.5570 H   0  0  0  0  0  0  0  0  0  0  0  0
  -17.9930  -27.7300   22.7070 C   0  0  0  0  0  0  0  0  0  0  0  0
  -20.5390  -28.0860   22.9640 C   0  0  0  0  0  3  0  0  0  0  0  0
  -20.6950  -26.6760   22.3490 C   0  0  0  0  0  2  0  0  0  0  0  0
  -19.5980  -26.3350   21.3360 C   0  0  0  0  0  2  0  0  0  0  0  0
  -18.2180  -26.4060   21.9950 C   0  0  0  0  0  2  0  0  0  0  0  0
  -19.0820  -28.5270   23.1480 C   0  0  0  0  0  0  0  0  0  0  0  0
  -18.8180  -29.7650   23.7700 C   0  0  0  0  0  3  0  0  0  0  0  0
  -17.4940  -30.2070   23.9590 C   0  0  0  0  0  3  0  0  0  0  0  0
  -16.4200  -29.4070   23.5350 C   0  0  0  0  0  3  0  0  0  0  0  0
  -16.6690  -28.1710   22.9160 C   0  0  0  0  0  3  0  0  0  0  0  0
  -25.7190  -32.3970   23.6460 C   0  0  0  0  0  3  0  0  0  0  0  0
  -26.3060  -31.5830   24.8650 C   0  0  1  0  0  0  0  0  0  0  0  0
  -25.2630  -31.2670   25.9620 C   0  0  0  0  0  1  0  0  0  0  0  0
  -26.9080  -30.2420   24.3840 C   0  0  0  0  0  1  0  0  0  0  0  0
  -27.4590  -32.3780   25.5200 C   0  0  0  0  0  1  0  0  0  0  0  0
  -25.3780  -33.7660   24.0520 N   0  0  0  0  0  0  0  0  0  0  0  0
  -25.6680  -34.8630   23.3400 C   0  0  0  0  0  0  0  0  0  0  0  0
  -26.3210  -34.8300   22.2940 O   0  0  0  0  0  0  0  0  0  0  0  0
  -24.7980  -33.8630   24.8720 H   0  0  0  0  0  0  0  0  0  0  0  0
  -23.8910  -36.6250   23.0890 C   0  0  0  0  0  1  0  0  0  0  0  0
  -25.1470  -36.2120   23.8720 C   0  0  0  0  0  3  0  0  0  0  0  0
  -27.2660  -37.1090   24.7330 C   0  0  0  0  0  1  0  0  0  0  0  0
  -26.1510  -37.2980   23.8090 N   0  0  0  0  0  0  0  0  0  0  0  0
  -25.7220  -38.1960   24.0110 H   0  0  0  0  0  0  0  0  0  0  0  0
  -31.7630  -19.4360   23.3810 C   0  0  0  0  0  1  0  0  0  0  0  0
  -31.2700  -18.6870   22.2310 N   0  0  0  0  0  0  0  0  0  0  0  0
  -31.4850  -17.6950   22.1780 H   0  0  0  0  0  0  0  0  0  0  0  0
  -30.6660  -17.0550   18.2730 C   0  0  0  0  0  1  0  0  0  0  0  0
  -30.5390  -17.1290   19.8170 C   0  0  0  0  0  3  0  0  0  0  0  0
  -30.7790  -14.6910   20.3270 C   0  0  0  0  0  0  0  0  0  0  0  0
  -30.4770  -12.4690   19.3270 C   0  0  0  0  0  2  0  0  0  0  0  0
  -29.5620  -12.6230   18.0960 C   0  0  0  0  0  2  0  0  0  0  0  0
  -28.0810  -12.5130   18.5070 C   0  0  0  0  0  2  0  0  0  0  0  0
  -27.7200  -13.3910   19.7390 C   0  0  0  0  0  3  0  0  0  0  0  0
  -28.7690  -13.2570   20.8650 C   0  0  0  0  0  2  0  0  0  0  0  0
  -30.0900  -13.5190   20.2840 N   0  0  0  0  0  0  0  0  0  0  0  0
  -31.9780  -14.7500   20.0500 O   0  0  0  0  0  0  0  0  0  0  0  0
  -30.0440  -15.8320   20.3570 N   0  0  0  0  0  0  0  0  0  0  0  0
  -29.0580  -15.7490   20.5450 H   0  0  0  0  0  0  0  0  0  0  0  0
  -25.3260  -14.0070   20.4420 C   0  0  0  0  0  0  0  0  0  0  0  0
  -24.2510  -13.2420   20.8080 C   0  0  0  0  0  0  0  0  0  0  0  0
  -24.7070  -11.8880   20.7880 C   0  0  0  0  0  0  0  0  0  0  0  0
  -26.3670  -13.1200   20.2190 N   0  0  0  0  0  0  0  0  0  0  0  0
  -26.0000  -11.8410   20.4880 N   0  0  0  0  0  0  0  0  0  0  0  0
  -23.9720  -10.6310   20.9800 C   0  0  0  0  0  0  0  0  0  0  0  0
  -24.3950   -9.6640   21.9190 C   0  0  0  0  0  3  0  0  0  0  0  0
  -23.6600   -8.4720   22.0980 C   0  0  0  0  0  3  0  0  0  0  0  0
  -22.4880   -8.2390   21.3390 C   0  0  0  0  0  0  0  0  0  0  0  0
  -22.0850   -9.1940   20.3890 C   0  0  0  0  0  3  0  0  0  0  0  0
  -22.8200  -10.3780   20.2090 C   0  0  0  0  0  3  0  0  0  0  0  0
  -21.7260   -7.1010   21.4280 O   0  0  0  0  0  0  0  0  0  0  0  0
  -21.6700   -6.3590   22.5810 C   0  0  0  0  0  0  0  0  0  0  0  0
  -21.2450   -6.9170   23.8070 C   0  0  0  0  0  3  0  0  0  0  0  0
  -21.1350   -6.1020   24.9510 C   0  0  0  0  0  3  0  0  0  0  0  0
  -21.4430   -4.7320   24.8710 C   0  0  0  0  0  0  0  0  0  0  0  0
  -21.8610   -4.1730   23.6510 C   0  0  0  0  0  3  0  0  0  0  0  0
  -21.9720   -4.9830   22.5090 C   0  0  0  0  0  0  0  0  0  0  0  0
  -22.3560   -4.4360   21.3300 F   0  0  0  0  0  0  0  0  0  0  0  0
  -21.3310   -3.9470   25.9680 F   0  0  0  0  0  0  0  0  0  0  0  0
  -22.8540  -13.7290   21.0650 C   0  0  0  0  0  0  0  0  0  0  0  0
  -22.1160  -13.0470   21.9320 N   0  0  0  0  0  0  0  0  0  0  0  0
  -22.4240  -14.7500   20.5290 O   0  0  0  0  0  0  0  0  0  0  0  0
  -22.4750  -12.2250   22.3960 H   0  0  0  0  0  0  0  0  0  0  0  0
  -21.1750  -13.3530   22.1380 H   0  0  0  0  0  0  0  0  0  0  0  0
  -25.4940  -15.3760   20.2570 N   0  0  0  0  0  0  0  0  0  0  0  0
  -24.7250  -16.0300   20.3660 H   0  0  0  0  0  0  0  0  0  0  0  0
  -26.3360  -15.8170   19.9120 H   0  0  0  0  0  0  0  0  0  0  0  0
  1  2  2  0
  1  4  1  0
  2  5  1  0
  4  6  2  0
  5 11  1  0
  5  3  2  0
  6  3  1  0
  6 55  1  0
  7  9  2  0
  7  8  1  0
  8 12  2  0
 10  7  1  0
 10 11  1  0
 11  8  1  0
 13 15  1  0
 13  9  1  0
 14 25  2  0
 15 20  1  0
 16 24  1  0
 16 26  1  0
 17 23  1  0
 17 19  1  0
 18 24  1  0
 19 18  1  0
 20 19  2  0
 21 22  1  0
 21 15  2  0
 22 17  2  0
 23 16  1  0
 24 14  1  0
 26 28  2  0
 27 26  1  0
 29 27  1  0
 30 39  2  0
 30 35  1  0
 31 27  1  0
 31 35  1  0
 32 31  1  0
 33 34  1  0
 33 32  1  0
 34 30  1  0
 35 36  2  0
 36 37  1  0
 38 37  2  0
 39 38  1  0
 40 14  1  0
 40 45  1  0
 40 41  1  0
 41 44  1  1
 41 42  1  0
 43 41  1  0
 45 48  1  0
 46 50  1  0
 46 45  1  0
 47 46  2  0
 50 49  1  0
 52 50  1  0
 52 53  1  0
 52 51  1  0
 55 54  1  0
 56 55  1  0
 58 57  1  0
 58  4  1  0
 58 67  1  0
 59 67  1  0
 60 65  1  0
 61 62  1  0
 61 60  1  0
 63 62  1  0
 63 72  1  0
 63 64  1  0
 65 59  1  0
 65 64  1  0
 66 59  2  0
 67 68  1  0
 69 70  2  0
 70 89  1  0
 71 70  1  0
 71 74  1  0
 72 69  1  0
 72 73  1  0
 73 71  2  0
 74 75  1  0
 75 76  2  0
 77 80  1  0
 77 76  1  0
 78 77  2  0
 79 78  1  0
 79 74  2  0
 80 81  1  0
 81 82  1  0
 82 83  2  0
 84 83  1  0
 84 88  1  0
 85 84  2  0
 86 81  2  0
 86 85  1  0
 87 86  1  0
 89 90  1  0
 90 93  1  0
 90 92  1  0
 91 89  2  0
 94 95  1  0
 94 69  1  0
 96 94  1  0
M  ISO  4   9 101  13 101  59 100  67 100
M  END
>  <TORSDO>  (29) 
F 19

>  <SCORE>  (29) 
-14.033

>  <name>  (29) 
28

>  <ligand_id>  (29) 
28

>  <original_smiles>  (29) 
[H]C(Oc1c([H])c([H])c2c(c1[H])C([H])([H])N(C(=O)C([H])(N([H])C(=O)C([H])(N([H])C([H])([H])[H])C([H])([H])[H])C(C([H])([H])[H])(C([H])([H])[H])C([H])([H])[H])C([H])(C(=O)N([H])C1([H])c3c([H])c([H])c([H])c([H])c3C([H])([H])C([H])([H])C1([H])[H])C2([H])[H])=C1C(=O)N(c2c([H])c([H])c(C([H])(N([H])C(=O)N3C([H])([H])C([H])([H])C([H])([H])C([H])(n4nc(-c5c([H])c([H])c(Oc6c([H])c([H])c(F)c([H])c6F)c([H])c5[H])c(C(=O)N([H])[H])c4N([H])[H])C3([H])[H])C([H])([H])[H])c(N([H])C([H])([H])[H])c2[H])C1([H])[H]

>  <smiles>  (29) 
[H]C(Oc1c([H])c([H])c2c(c1[H])C([H])([H])N(C(=O)C([H])(N([H])C(=O)C([H])(N([H])C([H])([H])[H])C([H])([H])[H])C(C([H])([H])[H])(C([H])([H])[H])C([H])([H])[H])C([H])(C(=O)N([H])C1([H])c3c([H])c([H])c([H])c([H])c3C([H])([H])C([H])([H])C1([H])[H])C2([H])[H])=C1C(=O)N(c2c([H])c([H])c(C([H])(N([H])C(=O)N3C([H])([H])C([H])([H])C([H])([H])C([H])(n4nc(-c5c([H])c([H])c(Oc6c([H])c([H])c(F)c([H])c6F)c([H])c5[H])c(C(=O)N([H])[H])c4N([H])[H])C3([H])[H])C([H])([H])[H])c(N([H])C([H])([H])[H])c2[H])C1([H])[H]

$$$$
29:0:0
     RDKit          3D

 98107  0  0  1  0  0  0  0  0999 V2000
  -31.7230  -20.2630   20.8440 C   0  0  0  0  0  3  0  0  0  0  0  0
  -32.0080  -17.8470   20.9430 C   0  0  0  0  0  3  0  0  0  0  0  0
  -29.8300  -18.8050   20.4060 C   0  0  0  0  0  3  0  0  0  0  0  0
  -32.5420  -19.1390   21.0710 C   0  0  0  0  0  0  0  0  0  0  0  0
  -30.3430  -20.1640   20.5210 C   0  0  0  0  0  0  0  0  0  0  0  0
  -30.6590  -17.6260   20.5880 C   0  0  0  0  0  0  0  0  0  0  0  0
  -30.9350  -15.0860   20.2640 C   0  0  0  0  0  0  0  0  0  0  0  0
  -30.7520  -12.7670   19.3770 C   0  0  0  0  0  2  0  0  0  0  0  0
  -29.8320  -12.7500   18.1380 C   0  0  0  0  0  2  0  0  0  0  0  0
  -28.3660  -12.5650   18.5670 C   0  0  0  0  0  2  0  0  0  0  0  0
  -27.9520  -13.5250   19.7150 C   0  0  0  0  0  3  0  0  0  0  0  0
  -28.9980  -13.5480   20.8520 C   0  0  0  0  0  2  0  0  0  0  0  0
  -30.2970  -13.8710   20.2510 N   0  0  0  0  0  0  0  0  0  0  0  0
  -32.1070  -15.1620   19.8870 O   0  0  0  0  0  0  0  0  0  0  0  0
  -30.1910  -16.2310   20.4800 N   0  0  0  0  0  0  0  0  0  0  0  0
  -29.1980  -16.0860   20.5730 H   0  0  0  0  0  0  0  0  0  0  0  0
  -25.5640  -14.0960   20.4600 C   0  0  0  0  0  0  0  0  0  0  0  0
  -24.5050  -13.3120   20.8270 C   0  0  0  0  0  0  0  0  0  0  0  0
  -24.9770  -11.9630   20.7800 C   0  0  0  0  0  0  0  0  0  0  0  0
  -26.6120  -13.2250   20.2100 N   0  0  0  0  0  0  0  0  0  0  0  0
  -26.2660  -11.9380   20.4650 N   0  0  0  0  0  0  0  0  0  0  0  0
  -24.2590  -10.6940   20.9580 C   0  0  0  0  0  0  0  0  0  0  0  0
  -24.6530   -9.7540   21.9350 C   0  0  0  0  0  3  0  0  0  0  0  0
  -23.9340   -8.5500   22.1010 C   0  0  0  0  0  3  0  0  0  0  0  0
  -22.8080   -8.2780   21.2880 C   0  0  0  0  0  0  0  0  0  0  0  0
  -22.4350   -9.2070   20.3000 C   0  0  0  0  0  3  0  0  0  0  0  0
  -23.1540  -10.4020   20.1330 C   0  0  0  0  0  3  0  0  0  0  0  0
  -22.0650   -7.1250   21.3600 O   0  0  0  0  0  0  0  0  0  0  0  0
  -21.8850   -6.4570   22.5450 C   0  0  0  0  0  0  0  0  0  0  0  0
  -21.2720   -7.0690   23.6600 C   0  0  0  0  0  3  0  0  0  0  0  0
  -21.0450   -6.3250   24.8350 C   0  0  0  0  0  3  0  0  0  0  0  0
  -21.4210   -4.9690   24.8940 C   0  0  0  0  0  0  0  0  0  0  0  0
  -22.0280   -4.3580   23.7830 C   0  0  0  0  0  3  0  0  0  0  0  0
  -22.2560   -5.0980   22.6110 C   0  0  0  0  0  0  0  0  0  0  0  0
  -22.8210   -4.4980   21.5360 F   0  0  0  0  0  0  0  0  0  0  0  0
  -21.1970   -4.2520   26.0210 F   0  0  0  0  0  0  0  0  0  0  0  0
  -23.1060  -13.7770   21.1100 C   0  0  0  0  0  0  0  0  0  0  0  0
  -22.3930  -13.0770   21.9840 N   0  0  0  0  0  0  0  0  0  0  0  0
  -22.6540  -14.7970   20.5900 O   0  0  0  0  0  0  0  0  0  0  0  0
  -22.7700  -12.2520   22.4260 H   0  0  0  0  0  0  0  0  0  0  0  0
  -21.4550  -13.3710   22.2170 H   0  0  0  0  0  0  0  0  0  0  0  0
  -25.7180  -15.4690   20.2940 N   0  0  0  0  0  0  0  0  0  0  0  0
  -24.9450  -16.1160   20.4080 H   0  0  0  0  0  0  0  0  0  0  0  0
  -26.5560  -15.9150   19.9410 H   0  0  0  0  0  0  0  0  0  0  0  0
  -27.7550  -23.0100   20.8150 C   0  0  0  0  0  3  0  0  0  0  0  0
  -28.3670  -24.1560   20.4140 C   0  0  0  0  0  0  0  0  0  0  0  0
  -28.2720  -21.6250   20.6500 C   0  0  0  0  0  0  0  0  0  0  0  0
  -29.6820  -24.0100   19.6890 C   0  0  0  0  0  2  0  0  0  0  0  0
  -30.4140  -22.6880   20.0860 C   0  0  0  0  0  2  0  0  0  0  0  0
  -29.6020  -21.4550   20.3490 N   0  0  0  0  0  0  0  0  0  0  0  0
  -27.5200  -20.6600   20.8130 O   0  0  0  0  0  0  0  0  0  0  0  0
  -27.8330  -25.5820   20.8290 C   0  0  0  0  0  2  0  0  0  0  0  0
  -28.0380  -26.7810   19.9930 O   0  0  0  0  0  0  0  0  0  0  0  0
  -24.5770  -32.0990   23.4440 C   0  0  0  0  0  0  0  0  0  0  0  0
  -26.9760  -27.6890   20.0410 C   0  0  0  0  0  0  0  0  0  0  0  0
  -23.2830  -30.8170   21.7750 C   0  0  0  0  0  3  0  0  0  0  0  0
  -24.6480  -29.3280   20.2060 C   0  0  0  0  0  0  0  0  0  0  0  0
  -25.8170  -31.1060   21.5090 C   0  0  0  0  0  2  0  0  0  0  0  0
  -25.8470  -29.7660   20.7840 C   0  0  0  0  0  0  0  0  0  0  0  0
  -27.0190  -28.9580   20.6940 C   0  0  0  0  0  3  0  0  0  0  0  0
  -25.7620  -27.3020   19.4380 C   0  0  0  0  0  3  0  0  0  0  0  0
  -24.6060  -28.1010   19.5230 C   0  0  0  0  0  3  0  0  0  0  0  0
  -23.4290  -30.2160   20.3520 C   0  0  0  0  0  2  0  0  0  0  0  0
  -24.5810  -31.3540   22.3000 N   0  0  0  0  0  0  0  0  0  0  0  0
  -23.5210  -32.3650   24.0360 O   0  0  0  0  0  0  0  0  0  0  0  0
  -22.6380  -29.7600   22.7030 C   0  0  0  0  0  0  0  0  0  0  0  0
  -21.3160  -29.5610   22.5640 N   0  0  0  0  0  0  0  0  0  0  0  0
  -23.3250  -29.1240   23.5060 O   0  0  0  0  0  0  0  0  0  0  0  0
  -20.8200  -30.1280   21.8910 H   0  0  0  0  0  0  0  0  0  0  0  0
  -17.9750  -28.2250   22.9450 C   0  0  0  0  0  0  0  0  0  0  0  0
  -20.5100  -28.5870   23.3030 C   0  0  0  0  0  3  0  0  0  0  0  0
  -20.6900  -27.1650   22.7250 C   0  0  0  0  0  2  0  0  0  0  0  0
  -19.6370  -26.8020   21.6740 C   0  0  0  0  0  2  0  0  0  0  0  0
  -18.2290  -26.8870   22.2700 C   0  0  0  0  0  2  0  0  0  0  0  0
  -19.0480  -29.0300   23.4160 C   0  0  0  0  0  0  0  0  0  0  0  0
  -18.7570  -30.2800   24.0060 C   0  0  0  0  0  3  0  0  0  0  0  0
  -17.4280  -30.7260   24.1290 C   0  0  0  0  0  3  0  0  0  0  0  0
  -16.3700  -29.9190   23.6770 C   0  0  0  0  0  3  0  0  0  0  0  0
  -16.6450  -28.6710   23.0900 C   0  0  0  0  0  3  0  0  0  0  0  0
  -25.8960  -32.6710   24.0500 C   0  0  0  0  0  3  0  0  0  0  0  0
  -26.4120  -31.8520   25.2960 C   0  0  1  0  0  0  0  0  0  0  0  0
  -25.3230  -31.5890   26.3620 C   0  0  0  0  0  1  0  0  0  0  0  0
  -26.9790  -30.4820   24.8540 C   0  0  0  0  0  1  0  0  0  0  0  0
  -27.5760  -32.6120   25.9760 C   0  0  0  0  0  1  0  0  0  0  0  0
  -25.6440  -34.0710   24.4190 N   0  0  0  0  0  0  0  0  0  0  0  0
  -26.0040  -35.1290   23.6800 C   0  0  0  0  0  0  0  0  0  0  0  0
  -26.6510  -35.0260   22.6340 O   0  0  0  0  0  0  0  0  0  0  0  0
  -25.0720  -34.2280   25.2350 H   0  0  0  0  0  0  0  0  0  0  0  0
  -24.3370  -36.9920   23.4030 C   0  0  0  0  0  1  0  0  0  0  0  0
  -25.5770  -36.5230   24.1800 C   0  0  0  0  0  3  0  0  0  0  0  0
  -27.7560  -37.3120   24.9930 C   0  0  0  0  0  1  0  0  0  0  0  0
  -26.6460  -37.5400   24.0710 N   0  0  0  0  0  0  0  0  0  0  0  0
  -26.2760  -38.4710   24.2450 H   0  0  0  0  0  0  0  0  0  0  0  0
  -33.9980  -19.3040   21.4050 C   0  0  0  0  0  0  0  0  0  0  0  0
  -34.3000  -20.2440   22.2900 N   0  0  0  0  0  0  0  0  0  0  0  0
  -34.8580  -18.5670   20.9250 O   0  0  0  0  0  0  0  0  0  0  0  0
  -33.5700  -20.8010   22.7080 H   0  0  0  0  0  0  0  0  0  0  0  0
  -35.2590  -20.3920   22.5680 H   0  0  0  0  0  0  0  0  0  0  0  0
  1  4  1  0
  2  4  2  0
  3  5  1  0
  3  6  2  0
  4 94  1  0
  5  1  2  0
  6  2  1  0
  7 15  1  0
  8 13  1  0
  9 10  1  0
  9  8  1  0
 11 10  1  0
 11 20  1  0
 11 12  1  0
 13  7  1  0
 13 12  1  0
 14  7  2  0
 15 16  1  0
 15  6  1  0
 17 18  2  0
 18 37  1  0
 19 18  1  0
 19 22  1  0
 20 17  1  0
 20 21  1  0
 21 19  2  0
 22 23  1  0
 23 24  2  0
 25 28  1  0
 25 24  1  0
 26 25  2  0
 27 26  1  0
 27 22  2  0
 28 29  1  0
 29 34  2  0
 29 30  1  0
 30 31  2  0
 31 32  1  0
 32 36  1  0
 33 32  2  0
 34 33  1  0
 35 34  1  0
 37 38  1  0
 38 41  1  0
 38 40  1  0
 39 37  2  0
 42 43  1  0
 42 17  1  0
 44 42  1  0
 46 45  2  0
 46 52  1  0
 47 51  2  0
 47 45  1  0
 48 49  1  0
 48 46  1  0
 49 50  1  0
 50  5  1  0
 50 47  1  0
 53 55  1  0
 53 52  1  0
 54 65  2  0
 55 60  1  0
 56 64  1  0
 56 66  1  0
 57 63  1  0
 57 59  1  0
 58 64  1  0
 59 58  1  0
 60 59  2  0
 61 62  1  0
 61 55  2  0
 62 57  2  0
 63 56  1  0
 64 54  1  0
 66 68  2  0
 67 66  1  0
 69 67  1  0
 70 79  2  0
 70 75  1  0
 71 67  1  0
 71 75  1  0
 72 71  1  0
 73 74  1  0
 73 72  1  0
 74 70  1  0
 75 76  2  0
 76 77  1  0
 78 77  2  0
 79 78  1  0
 80 54  1  0
 80 85  1  0
 80 81  1  0
 81 84  1  1
 81 82  1  0
 83 81  1  0
 85 88  1  0
 86 90  1  0
 86 85  1  0
 87 86  2  0
 90 89  1  0
 92 90  1  0
 92 93  1  0
 92 91  1  0
 94 95  1  0
 95 98  1  0
 95 97  1  0
 96 94  2  0
M  ISO  4   7 100  15 100  52 101  53 101
M  END
>  <TORSDO>  (30) 
F 19

>  <SCORE>  (30) 
-13.945

>  <name>  (30) 
29

>  <ligand_id>  (30) 
29

>  <original_smiles>  (30) 
[H]C1=C(C([H])([H])Oc2c([H])c([H])c3c(c2[H])C([H])([H])N(C(=O)C([H])(N([H])C(=O)C([H])(N([H])C([H])([H])[H])C([H])([H])[H])C(C([H])([H])[H])(C([H])([H])[H])C([H])([H])[H])C([H])(C(=O)N([H])C2([H])c4c([H])c([H])c([H])c([H])c4C([H])([H])C([H])([H])C2([H])[H])C3([H])[H])C([H])([H])C([H])([H])N(c2c([H])c(C(=O)N([H])[H])c([H])c(N([H])C(=O)N3C([H])([H])C([H])([H])C([H])([H])C([H])(n4nc(-c5c([H])c([H])c(Oc6c([H])c([H])c(F)c([H])c6F)c([H])c5[H])c(C(=O)N([H])[H])c4N([H])[H])C3([H])[H])c2[H])C1=O

>  <smiles>  (30) 
[H]C1=C(C([H])([H])Oc2c([H])c([H])c3c(c2[H])C([H])([H])N(C(=O)C([H])(N([H])C(=O)C([H])(N([H])C([H])([H])[H])C([H])([H])[H])C(C([H])([H])[H])(C([H])([H])[H])C([H])([H])[H])C([H])(C(=O)N([H])C2([H])c4c([H])c([H])c([H])c([H])c4C([H])([H])C([H])([H])C2([H])[H])C3([H])[H])C([H])([H])C([H])([H])N(c2c([H])c(C(=O)N([H])[H])c([H])c(N([H])C(=O)N3C([H])([H])C([H])([H])C([H])([H])C([H])(n4nc(-c5c([H])c([H])c(Oc6c([H])c([H])c(F)c([H])c6F)c([H])c5[H])c(C(=O)N([H])[H])c4N([H])[H])C3([H])[H])c2[H])C1=O

$$$$
30:0:0
     RDKit          3D

 91 99  0  0  1  0  0  0  0  0999 V2000
  -28.6560  -22.6100   20.4750 C   0  0  0  0  0  0  0  0  0  0  0  0
  -29.5790  -21.6590   20.0950 N   0  0  0  0  0  0  0  0  0  0  0  0
  -27.6110  -22.2920   21.0470 O   0  0  0  0  0  0  0  0  0  0  0  0
  -30.3880  -22.0560   19.6380 H   0  0  0  0  0  0  0  0  0  0  0  0
  -30.7480  -19.4520   19.7520 C   0  0  0  0  0  3  0  0  0  0  0  0
  -28.5890  -19.3730   20.7840 C   0  0  0  0  0  3  0  0  0  0  0  0
  -30.8560  -18.0230   19.8300 C   0  0  0  0  0  3  0  0  0  0  0  0
  -28.6950  -17.9490   20.8630 C   0  0  0  0  0  3  0  0  0  0  0  0
  -29.6140  -20.1830   20.2210 C   0  0  0  0  0  0  0  0  0  0  0  0
  -29.8230  -17.2210   20.3890 C   0  0  0  0  0  0  0  0  0  0  0  0
  -30.6020  -14.7280   20.0250 C   0  0  0  0  0  0  0  0  0  0  0  0
  -30.3570  -12.5040   18.9200 C   0  0  0  0  0  2  0  0  0  0  0  0
  -29.3370  -12.6510   17.7690 C   0  0  0  0  0  2  0  0  0  0  0  0
  -27.8930  -12.4710   18.2820 C   0  0  0  0  0  2  0  0  0  0  0  0
  -27.6090  -13.3000   19.5620 C   0  0  0  0  0  3  0  0  0  0  0  0
  -28.7350  -13.1170   20.6060 C   0  0  0  0  0  2  0  0  0  0  0  0
  -30.0040  -13.4920   19.9620 N   0  0  0  0  0  0  0  0  0  0  0  0
  -31.7310  -14.9100   19.5580 O   0  0  0  0  0  0  0  0  0  0  0  0
  -29.8100  -15.7500   20.4980 N   0  0  0  0  0  0  0  0  0  0  0  0
  -28.9630  -15.3860   20.9080 H   0  0  0  0  0  0  0  0  0  0  0  0
  -25.2660  -13.8810   20.4430 C   0  0  0  0  0  0  0  0  0  0  0  0
  -24.2220  -13.0990   20.8560 C   0  0  0  0  0  0  0  0  0  0  0  0
  -24.6780  -11.7480   20.7580 C   0  0  0  0  0  0  0  0  0  0  0  0
  -26.2920  -13.0060   20.1200 N   0  0  0  0  0  0  0  0  0  0  0  0
  -25.9470  -11.7160   20.3700 N   0  0  0  0  0  0  0  0  0  0  0  0
  -23.9620  -10.4820   20.9570 C   0  0  0  0  0  0  0  0  0  0  0  0
  -24.4080   -9.5190   21.8880 C   0  0  0  0  0  3  0  0  0  0  0  0
  -23.6910   -8.3160   22.0740 C   0  0  0  0  0  3  0  0  0  0  0  0
  -22.5130   -8.0700   21.3290 C   0  0  0  0  0  0  0  0  0  0  0  0
  -22.0860   -9.0210   20.3870 C   0  0  0  0  0  3  0  0  0  0  0  0
  -22.8040  -10.2150   20.1990 C   0  0  0  0  0  3  0  0  0  0  0  0
  -21.7670   -6.9200   21.4240 O   0  0  0  0  0  0  0  0  0  0  0  0
  -21.6740   -6.2180   22.5990 C   0  0  0  0  0  0  0  0  0  0  0  0
  -21.1770   -6.8080   23.7820 C   0  0  0  0  0  3  0  0  0  0  0  0
  -21.0340   -6.0310   24.9500 C   0  0  0  0  0  3  0  0  0  0  0  0
  -21.3760   -4.6660   24.9340 C   0  0  0  0  0  0  0  0  0  0  0  0
  -21.8650   -4.0750   23.7550 C   0  0  0  0  0  3  0  0  0  0  0  0
  -22.0100   -4.8490   22.5900 C   0  0  0  0  0  0  0  0  0  0  0  0
  -22.4620   -4.2710   21.4510 F   0  0  0  0  0  0  0  0  0  0  0  0
  -21.2300   -3.9170   26.0520 F   0  0  0  0  0  0  0  0  0  0  0  0
  -22.8450  -13.5690   21.2270 C   0  0  0  0  0  0  0  0  0  0  0  0
  -22.1700  -12.8510   22.1170 N   0  0  0  0  0  0  0  0  0  0  0  0
  -22.3790  -14.6090   20.7620 O   0  0  0  0  0  0  0  0  0  0  0  0
  -22.5610  -12.0090   22.5130 H   0  0  0  0  0  0  0  0  0  0  0  0
  -21.2490  -13.1470   22.4060 H   0  0  0  0  0  0  0  0  0  0  0  0
  -25.4230  -15.2560   20.2920 N   0  0  0  0  0  0  0  0  0  0  0  0
  -24.6600  -15.9030   20.4560 H   0  0  0  0  0  0  0  0  0  0  0  0
  -26.2350  -15.7000   19.8840 H   0  0  0  0  0  0  0  0  0  0  0  0
  -28.9890  -24.0380   20.1540 C   0  0  0  0  0  3  0  0  0  0  0  0
  -28.1510  -25.0990   20.4380 C   0  0  0  0  0  3  0  0  0  0  0  0
  -28.3620  -26.4780   20.1830 O   0  0  0  0  0  0  0  0  0  0  0  0
  -24.6320  -31.8870   23.2400 C   0  0  0  0  0  0  0  0  0  0  0  0
  -27.2540  -27.3450   20.1650 C   0  0  0  0  0  0  0  0  0  0  0  0
  -23.4310  -30.4940   21.5930 C   0  0  0  0  0  3  0  0  0  0  0  0
  -24.8860  -28.9530   20.1590 C   0  0  0  0  0  0  0  0  0  0  0  0
  -25.9690  -30.8180   21.4130 C   0  0  0  0  0  2  0  0  0  0  0  0
  -26.0530  -29.4400   20.7610 C   0  0  0  0  0  0  0  0  0  0  0  0
  -27.2410  -28.6470   20.7580 C   0  0  0  0  0  3  0  0  0  0  0  0
  -26.0680  -26.9160   19.5320 C   0  0  0  0  0  3  0  0  0  0  0  0
  -24.8950  -27.6950   19.5340 C   0  0  0  0  0  3  0  0  0  0  0  0
  -23.6470  -29.8250   20.2090 C   0  0  0  0  0  2  0  0  0  0  0  0
  -24.6970  -31.0840   22.1380 N   0  0  0  0  0  0  0  0  0  0  0  0
  -23.5480  -32.1600   23.7770 O   0  0  0  0  0  0  0  0  0  0  0  0
  -22.7690  -29.4730   22.5480 C   0  0  0  0  0  0  0  0  0  0  0  0
  -21.4430  -29.2930   22.4200 N   0  0  0  0  0  0  0  0  0  0  0  0
  -23.4490  -28.8450   23.3650 O   0  0  0  0  0  0  0  0  0  0  0  0
  -20.9540  -29.8520   21.7340 H   0  0  0  0  0  0  0  0  0  0  0  0
  -18.0670  -28.0970   22.9210 C   0  0  0  0  0  0  0  0  0  0  0  0
  -20.6260  -28.3510   23.1860 C   0  0  0  0  0  3  0  0  0  0  0  0
  -20.7250  -26.9230   22.6010 C   0  0  0  0  0  2  0  0  0  0  0  0
  -19.6200  -26.6100   21.5870 C   0  0  0  0  0  2  0  0  0  0  0  0
  -18.2400  -26.7510   22.2340 C   0  0  0  0  0  2  0  0  0  0  0  0
  -19.1870  -28.8550   23.3530 C   0  0  0  0  0  0  0  0  0  0  0  0
  -18.9700  -30.1130   23.9550 C   0  0  0  0  0  3  0  0  0  0  0  0
  -17.6660  -30.6140   24.1270 C   0  0  0  0  0  3  0  0  0  0  0  0
  -16.5600  -29.8530   23.7100 C   0  0  0  0  0  3  0  0  0  0  0  0
  -16.7610  -28.5950   23.1120 C   0  0  0  0  0  3  0  0  0  0  0  0
  -25.9140  -32.5180   23.8660 C   0  0  0  0  0  3  0  0  0  0  0  0
  -26.4310  -31.7430   25.1390 C   0  0  1  0  0  0  0  0  0  0  0  0
  -25.3370  -31.4960   26.2050 C   0  0  0  0  0  1  0  0  0  0  0  0
  -27.0180  -30.3680   24.7420 C   0  0  0  0  0  1  0  0  0  0  0  0
  -27.5780  -32.5360   25.8070 C   0  0  0  0  0  1  0  0  0  0  0  0
  -25.6030  -33.9150   24.2030 N   0  0  0  0  0  0  0  0  0  0  0  0
  -25.9260  -34.9720   23.4460 C   0  0  0  0  0  0  0  0  0  0  0  0
  -26.5880  -34.8740   22.4090 O   0  0  0  0  0  0  0  0  0  0  0  0
  -25.0130  -34.0650   25.0090 H   0  0  0  0  0  0  0  0  0  0  0  0
  -24.1870  -36.7600   23.1170 C   0  0  0  0  0  1  0  0  0  0  0  0
  -25.4390  -36.3570   23.9130 C   0  0  0  0  0  3  0  0  0  0  0  0
  -27.5780  -37.2490   24.7240 C   0  0  0  0  0  1  0  0  0  0  0  0
  -26.4660  -37.4150   23.7910 N   0  0  0  0  0  0  0  0  0  0  0  0
  -26.0580  -38.3330   23.9460 H   0  0  0  0  0  0  0  0  0  0  0  0
  1  3  2  0
  2  9  1  0
  2  1  1  0
  4  2  1  0
  5  7  2  0
  5  9  1  0
  6  8  1  0
  7 10  1  0
  9  6  2  0
 10 19  1  0
 10  8  2  0
 11 19  1  0
 12 17  1  0
 13 14  1  0
 13 12  1  0
 15 14  1  0
 15 24  1  0
 15 16  1  0
 17 11  1  0
 17 16  1  0
 18 11  2  0
 19 20  1  0
 21 22  2  0
 22 41  1  0
 23 22  1  0
 23 26  1  0
 24 25  1  0
 24 21  1  0
 25 23  2  0
 26 27  1  0
 27 28  2  0
 29 32  1  0
 29 28  1  0
 30 29  2  0
 31 30  1  0
 31 26  2  0
 32 33  1  0
 33 34  1  0
 34 35  2  0
 36 35  1  0
 36 40  1  0
 37 36  2  0
 38 33  2  0
 38 37  1  0
 39 38  1  0
 41 42  1  0
 42 45  1  0
 42 44  1  0
 43 41  2  0
 46 21  1  0
 46 47  1  0
 48 46  1  0
 49 50  2  0
 49  1  1  0
 51 50  1  0
 52 63  2  0
 53 51  1  0
 53 58  1  0
 54 62  1  0
 54 64  1  0
 55 61  1  0
 55 57  1  0
 56 62  1  0
 57 56  1  0
 58 57  2  0
 59 60  1  0
 59 53  2  0
 60 55  2  0
 61 54  1  0
 62 52  1  0
 64 66  2  0
 65 64  1  0
 67 65  1  0
 68 77  2  0
 68 73  1  0
 69 65  1  0
 69 73  1  0
 70 69  1  0
 71 72  1  0
 71 70  1  0
 72 68  1  0
 73 74  2  0
 74 75  1  0
 76 75  2  0
 77 76  1  0
 78 52  1  0
 78 83  1  0
 78 79  1  0
 79 82  1  1
 79 80  1  0
 81 79  1  0
 83 86  1  0
 84 88  1  0
 84 83  1  0
 85 84  2  0
 88 87  1  0
 90 88  1  0
 90 91  1  0
 90 89  1  0
M  ISO  4  11 100  19 100  50 101  51 101
M  END
>  <TORSDO>  (31) 
F 18

>  <SCORE>  (31) 
-14.295

>  <name>  (31) 
30

>  <ligand_id>  (31) 
30

>  <original_smiles>  (31) 
[H]C(Oc1c([H])c([H])c2c(c1[H])C([H])([H])N(C(=O)C([H])(N([H])C(=O)C([H])(N([H])C([H])([H])[H])C([H])([H])[H])C(C([H])([H])[H])(C([H])([H])[H])C([H])([H])[H])C([H])(C(=O)N([H])C1([H])c3c([H])c([H])c([H])c([H])c3C([H])([H])C([H])([H])C1([H])[H])C2([H])[H])=C([H])C(=O)N([H])c1c([H])c([H])c(N([H])C(=O)N2C([H])([H])C([H])([H])C([H])([H])C([H])(n3nc(-c4c([H])c([H])c(Oc5c([H])c([H])c(F)c([H])c5F)c([H])c4[H])c(C(=O)N([H])[H])c3N([H])[H])C2([H])[H])c([H])c1[H]

>  <smiles>  (31) 
[H]C(Oc1c([H])c([H])c2c(c1[H])C([H])([H])N(C(=O)C([H])(N([H])C(=O)C([H])(N([H])C([H])([H])[H])C([H])([H])[H])C(C([H])([H])[H])(C([H])([H])[H])C([H])([H])[H])C([H])(C(=O)N([H])C1([H])c3c([H])c([H])c([H])c([H])c3C([H])([H])C([H])([H])C1([H])[H])C2([H])[H])=C([H])C(=O)N([H])c1c([H])c([H])c(N([H])C(=O)N2C([H])([H])C([H])([H])C([H])([H])C([H])(n3nc(-c4c([H])c([H])c(Oc5c([H])c([H])c(F)c([H])c5F)c([H])c4[H])c(C(=O)N([H])[H])c3N([H])[H])C2([H])[H])c([H])c1[H]

$$$$
31:0:0
     RDKit          3D

 95103  0  0  1  0  0  0  0  0999 V2000
  -28.7890  -20.5860   20.7940 C   0  0  0  0  0  0  0  0  0  0  0  0
  -28.3260  -22.9870   20.8420 C   0  0  0  0  0  0  0  0  0  0  0  0
  -29.0850  -21.8950   20.5550 N   0  0  0  0  0  0  0  0  0  0  0  0
  -27.6710  -20.1840   21.1370 O   0  0  0  0  0  0  0  0  0  0  0  0
  -27.2540  -22.9180   21.4570 O   0  0  0  0  0  0  0  0  0  0  0  0
  -29.9760  -22.1030   20.1320 H   0  0  0  0  0  0  0  0  0  0  0  0
  -32.2510  -18.9320   20.5580 C   0  0  0  0  0  3  0  0  0  0  0  0
  -31.2420  -19.9140   20.6040 C   0  0  0  0  0  3  0  0  0  0  0  0
  -31.9230  -17.5630   20.5250 C   0  0  0  0  0  3  0  0  0  0  0  0
  -29.5650  -18.1430   20.5730 C   0  0  0  0  0  3  0  0  0  0  0  0
  -29.8800  -19.5390   20.6150 C   0  0  0  0  0  0  0  0  0  0  0  0
  -30.5730  -17.1350   20.5170 C   0  0  0  0  0  0  0  0  0  0  0  0
  -30.8970  -14.6690   20.0150 C   0  0  0  0  0  0  0  0  0  0  0  0
  -30.5630  -12.4670   18.9380 C   0  0  0  0  0  2  0  0  0  0  0  0
  -29.5620  -12.6230   17.7750 C   0  0  0  0  0  2  0  0  0  0  0  0
  -28.1160  -12.4660   18.2810 C   0  0  0  0  0  2  0  0  0  0  0  0
  -27.8250  -13.3270   19.5400 C   0  0  0  0  0  3  0  0  0  0  0  0
  -28.9410  -13.1720   20.6000 C   0  0  0  0  0  2  0  0  0  0  0  0
  -30.2240  -13.4830   19.9530 N   0  0  0  0  0  0  0  0  0  0  0  0
  -32.0110  -14.7990   19.5030 O   0  0  0  0  0  0  0  0  0  0  0  0
  -30.2050  -15.7330   20.5040 N   0  0  0  0  0  0  0  0  0  0  0  0
  -29.2670  -15.5170   20.8010 H   0  0  0  0  0  0  0  0  0  0  0  0
  -25.4790  -13.9140   20.4140 C   0  0  0  0  0  0  0  0  0  0  0  0
  -24.4320  -13.1330   20.8230 C   0  0  0  0  0  0  0  0  0  0  0  0
  -24.8840  -11.7810   20.7210 C   0  0  0  0  0  0  0  0  0  0  0  0
  -26.5040  -13.0370   20.0940 N   0  0  0  0  0  0  0  0  0  0  0  0
  -26.1530  -11.7480   20.3360 N   0  0  0  0  0  0  0  0  0  0  0  0
  -24.1640  -10.5160   20.9120 C   0  0  0  0  0  0  0  0  0  0  0  0
  -24.5780   -9.5690   21.8750 C   0  0  0  0  0  3  0  0  0  0  0  0
  -23.8580   -8.3670   22.0550 C   0  0  0  0  0  3  0  0  0  0  0  0
  -22.7100   -8.1050   21.2700 C   0  0  0  0  0  0  0  0  0  0  0  0
  -22.3150   -9.0410   20.2980 C   0  0  0  0  0  3  0  0  0  0  0  0
  -23.0350  -10.2330   20.1180 C   0  0  0  0  0  3  0  0  0  0  0  0
  -21.9640   -6.9540   21.3570 O   0  0  0  0  0  0  0  0  0  0  0  0
  -21.7970   -6.2920   22.5470 C   0  0  0  0  0  0  0  0  0  0  0  0
  -21.1640   -6.8980   23.6540 C   0  0  0  0  0  3  0  0  0  0  0  0
  -20.9510   -6.1570   24.8340 C   0  0  0  0  0  3  0  0  0  0  0  0
  -21.3620   -4.8130   24.9070 C   0  0  0  0  0  0  0  0  0  0  0  0
  -21.9890   -4.2070   23.8040 C   0  0  0  0  0  3  0  0  0  0  0  0
  -22.2030   -4.9450   22.6250 C   0  0  0  0  0  0  0  0  0  0  0  0
  -22.7880   -4.3500   21.5580 F   0  0  0  0  0  0  0  0  0  0  0  0
  -21.1520   -4.0990   26.0370 F   0  0  0  0  0  0  0  0  0  0  0  0
  -23.0560  -13.6050   21.1930 C   0  0  0  0  0  0  0  0  0  0  0  0
  -22.3760  -12.8820   22.0770 N   0  0  0  0  0  0  0  0  0  0  0  0
  -22.5930  -14.6490   20.7330 O   0  0  0  0  0  0  0  0  0  0  0  0
  -22.7650  -12.0380   22.4680 H   0  0  0  0  0  0  0  0  0  0  0  0
  -21.4560  -13.1790   22.3670 H   0  0  0  0  0  0  0  0  0  0  0  0
  -25.6400  -15.2880   20.2680 N   0  0  0  0  0  0  0  0  0  0  0  0
  -24.8810  -15.9400   20.4370 H   0  0  0  0  0  0  0  0  0  0  0  0
  -26.4610  -15.7340   19.8790 H   0  0  0  0  0  0  0  0  0  0  0  0
  -28.1890  -25.4190   20.6290 C   0  0  0  0  0  3  0  0  0  0  0  0
  -28.8780  -24.2750   20.3640 C   0  0  0  0  0  0  0  0  0  0  0  0
  -30.0240  -24.3040   19.6690 O   0  0  0  0  0  0  0  0  0  0  0  0
  -30.1880  -25.2150   19.4570 H   0  0  0  0  0  0  0  0  0  0  0  0
  -28.4870  -26.7150   20.2120 O   0  0  0  0  0  0  0  0  0  0  0  0
  -24.6290  -31.9280   23.2430 C   0  0  0  0  0  0  0  0  0  0  0  0
  -27.3830  -27.5520   20.1330 C   0  0  0  0  0  0  0  0  0  0  0  0
  -23.4820  -30.5560   21.5370 C   0  0  0  0  0  3  0  0  0  0  0  0
  -24.9890  -29.0740   20.1060 C   0  0  0  0  0  0  0  0  0  0  0  0
  -26.0140  -30.9330   21.4190 C   0  0  0  0  0  2  0  0  0  0  0  0
  -26.1300  -29.5790   20.7440 C   0  0  0  0  0  0  0  0  0  0  0  0
  -27.3340  -28.8240   20.7570 C   0  0  0  0  0  3  0  0  0  0  0  0
  -26.2300  -27.0880   19.4610 C   0  0  0  0  0  3  0  0  0  0  0  0
  -25.0370  -27.8300   19.4570 C   0  0  0  0  0  3  0  0  0  0  0  0
  -23.7350  -29.9190   20.1460 C   0  0  0  0  0  2  0  0  0  0  0  0
  -24.7250  -31.1530   22.1250 N   0  0  0  0  0  0  0  0  0  0  0  0
  -23.5320  -32.1760   23.7610 O   0  0  0  0  0  0  0  0  0  0  0  0
  -22.8160  -29.5040   22.4540 C   0  0  0  0  0  0  0  0  0  0  0  0
  -21.4950  -29.3160   22.2940 N   0  0  0  0  0  0  0  0  0  0  0  0
  -23.4840  -28.8620   23.2690 O   0  0  0  0  0  0  0  0  0  0  0  0
  -21.0160  -29.8880   21.6130 H   0  0  0  0  0  0  0  0  0  0  0  0
  -18.1060  -28.1430   22.7470 C   0  0  0  0  0  0  0  0  0  0  0  0
  -20.6680  -28.3530   23.0210 C   0  0  0  0  0  3  0  0  0  0  0  0
  -20.7490  -26.9520   22.3750 C   0  0  0  0  0  2  0  0  0  0  0  0
  -19.6400  -26.6940   21.3510 C   0  0  0  0  0  2  0  0  0  0  0  0
  -18.2620  -26.8250   22.0070 C   0  0  0  0  0  2  0  0  0  0  0  0
  -19.2360  -28.8680   23.2090 C   0  0  0  0  0  0  0  0  0  0  0  0
  -19.0360  -30.1050   23.8620 C   0  0  0  0  0  3  0  0  0  0  0  0
  -17.7390  -30.6140   24.0560 C   0  0  0  0  0  3  0  0  0  0  0  0
  -16.6230  -29.8860   23.6100 C   0  0  0  0  0  3  0  0  0  0  0  0
  -16.8070  -28.6520   22.9610 C   0  0  0  0  0  3  0  0  0  0  0  0
  -25.8910  -32.5570   23.9100 C   0  0  0  0  0  3  0  0  0  0  0  0
  -26.3560  -31.7890   25.2090 C   0  0  1  0  0  0  0  0  0  0  0  0
  -25.2170  -31.5430   26.2260 C   0  0  0  0  0  1  0  0  0  0  0  0
  -26.9660  -30.4170   24.8410 C   0  0  0  0  0  1  0  0  0  0  0  0
  -27.4700  -32.5910   25.9210 C   0  0  0  0  0  1  0  0  0  0  0  0
  -25.5760  -33.9590   24.2210 N   0  0  0  0  0  0  0  0  0  0  0  0
  -25.9220  -35.0030   23.4560 C   0  0  0  0  0  0  0  0  0  0  0  0
  -26.6090  -34.8880   22.4380 O   0  0  0  0  0  0  0  0  0  0  0  0
  -24.9670  -34.1210   25.0090 H   0  0  0  0  0  0  0  0  0  0  0  0
  -24.1980  -36.7880   23.0510 C   0  0  0  0  0  1  0  0  0  0  0  0
  -25.4250  -36.3950   23.8890 C   0  0  0  0  0  3  0  0  0  0  0  0
  -27.5370  -37.3000   24.7570 C   0  0  0  0  0  1  0  0  0  0  0  0
  -26.4590  -37.4480   23.7810 N   0  0  0  0  0  0  0  0  0  0  0  0
  -26.0480  -38.3700   23.8990 H   0  0  0  0  0  0  0  0  0  0  0  0
  1  4  2  0
  2  5  2  0
  3  1  1  0
  3  2  1  0
  6  3  1  0
  7  8  1  0
  8 11  2  0
  9  7  2  0
 10 11  1  0
 11  1  1  0
 12  9  1  0
 12 10  2  0
 13 21  1  0
 14 19  1  0
 15 16  1  0
 15 14  1  0
 17 16  1  0
 17 26  1  0
 17 18  1  0
 19 13  1  0
 19 18  1  0
 20 13  2  0
 21 12  1  0
 21 22  1  0
 23 24  2  0
 24 43  1  0
 25 24  1  0
 25 28  1  0
 26 27  1  0
 26 23  1  0
 27 25  2  0
 28 29  1  0
 29 30  2  0
 31 34  1  0
 31 30  1  0
 32 31  2  0
 33 32  1  0
 33 28  2  0
 34 35  1  0
 35 40  2  0
 35 36  1  0
 36 37  2  0
 37 38  1  0
 38 42  1  0
 39 38  2  0
 40 39  1  0
 41 40  1  0
 43 44  1  0
 44 47  1  0
 44 46  1  0
 45 43  2  0
 48 23  1  0
 48 49  1  0
 50 48  1  0
 52 51  2  0
 52  2  1  0
 53 52  1  0
 54 53  1  0
 55 51  1  0
 56 67  2  0
 57 55  1  0
 57 62  1  0
 58 66  1  0
 58 68  1  0
 59 65  1  0
 59 61  1  0
 60 66  1  0
 61 62  2  0
 61 60  1  0
 63 57  2  0
 64 63  1  0
 64 59  2  0
 65 58  1  0
 66 56  1  0
 68 70  2  0
 69 68  1  0
 71 69  1  0
 72 81  2  0
 72 77  1  0
 73 69  1  0
 73 77  1  0
 74 73  1  0
 75 76  1  0
 75 74  1  0
 76 72  1  0
 77 78  2  0
 78 79  1  0
 80 79  2  0
 81 80  1  0
 82 56  1  0
 82 87  1  0
 82 83  1  0
 83 86  1  1
 83 84  1  0
 85 83  1  0
 87 90  1  0
 88 92  1  0
 88 87  1  0
 89 88  2  0
 92 91  1  0
 94 92  1  0
 94 95  1  0
 94 93  1  0
M  ISO  4  13 100  21 100  51 101  55 101
M  END
>  <TORSDO>  (32) 
F 19

>  <SCORE>  (32) 
-14.055

>  <name>  (32) 
31

>  <ligand_id>  (32) 
31

>  <original_smiles>  (32) 
[H]OC(C(=O)N([H])C(=O)c1c([H])c([H])c([H])c(N([H])C(=O)N2C([H])([H])C([H])([H])C([H])([H])C([H])(n3nc(-c4c([H])c([H])c(Oc5c([H])c([H])c(F)c([H])c5F)c([H])c4[H])c(C(=O)N([H])[H])c3N([H])[H])C2([H])[H])c1[H])=C([H])Oc1c([H])c([H])c2c(c1[H])C([H])([H])N(C(=O)C([H])(N([H])C(=O)C([H])(N([H])C([H])([H])[H])C([H])([H])[H])C(C([H])([H])[H])(C([H])([H])[H])C([H])([H])[H])C([H])(C(=O)N([H])C1([H])c3c([H])c([H])c([H])c([H])c3C([H])([H])C([H])([H])C1([H])[H])C2([H])[H]

>  <smiles>  (32) 
[H]OC(C(=O)N([H])C(=O)c1c([H])c([H])c([H])c(N([H])C(=O)N2C([H])([H])C([H])([H])C([H])([H])C([H])(n3nc(-c4c([H])c([H])c(Oc5c([H])c([H])c(F)c([H])c5F)c([H])c4[H])c(C(=O)N([H])[H])c3N([H])[H])C2([H])[H])c1[H])=C([H])Oc1c([H])c([H])c2c(c1[H])C([H])([H])N(C(=O)C([H])(N([H])C(=O)C([H])(N([H])C([H])([H])[H])C([H])([H])[H])C(C([H])([H])[H])(C([H])([H])[H])C([H])([H])[H])C([H])(C(=O)N([H])C1([H])c3c([H])c([H])c([H])c([H])c3C([H])([H])C([H])([H])C1([H])[H])C2([H])[H]

$$$$
32:0:0
     RDKit          3D

 96105  0  0  1  0  0  0  0  0999 V2000
  -28.4800  -24.8380   21.7430 C   0  0  0  0  0  3  0  0  0  0  0  0
  -29.5270  -22.3850   22.9770 C   0  0  0  0  0  0  0  0  0  0  0  0
  -28.5360  -26.1320   21.2870 C   0  0  0  0  0  3  0  0  0  0  0  0
  -28.3690  -24.5820   23.2390 C   0  0  0  0  0  2  0  0  0  0  0  0
  -28.4800  -23.4890   20.9630 C   0  0  0  0  0  2  0  0  0  0  0  0
  -29.5070  -23.7100   23.7240 C   0  0  0  0  0  2  0  0  0  0  0  0
  -28.8900  -27.2870   22.2220 C   0  0  0  0  0  1  0  0  0  0  0  0
  -29.2170  -22.3540   21.6480 N   0  0  0  0  0  0  0  0  0  0  0  0
  -29.8410  -21.3860   23.6350 O   0  0  0  0  0  0  0  0  0  0  0  0
  -31.2480  -19.3460   20.6280 C   0  0  0  0  0  3  0  0  0  0  0  0
  -28.9230  -18.8720   20.1490 C   0  0  0  0  0  3  0  0  0  0  0  0
  -30.9000  -20.6650   20.9980 C   0  0  0  0  0  3  0  0  0  0  0  0
  -28.5720  -20.2070   20.5050 C   0  0  0  0  0  3  0  0  0  0  0  0
  -30.2650  -18.4140   20.2210 C   0  0  0  0  0  0  0  0  0  0  0  0
  -29.5540  -21.1120   20.9780 C   0  0  0  0  0  0  0  0  0  0  0  0
  -30.2590  -16.7380   18.3040 C   0  0  0  0  0  1  0  0  0  0  0  0
  -30.7060  -16.9980   19.7590 C   0  0  0  0  0  3  0  0  0  0  0  0
  -31.1010  -14.7200   20.7650 C   0  0  0  0  0  0  0  0  0  0  0  0
  -30.8500  -12.4660   19.8320 C   0  0  0  0  0  2  0  0  0  0  0  0
  -30.0140  -12.6170   18.5420 C   0  0  0  0  0  2  0  0  0  0  0  0
  -28.5080  -12.5320   18.8620 C   0  0  0  0  0  2  0  0  0  0  0  0
  -28.0890  -13.4440   20.0460 C   0  0  0  0  0  3  0  0  0  0  0  0
  -29.0590  -13.3110   21.2430 C   0  0  0  0  0  2  0  0  0  0  0  0
  -30.4230  -13.5380   20.7460 N   0  0  0  0  0  0  0  0  0  0  0  0
  -32.3190  -14.7760   20.5830 O   0  0  0  0  0  0  0  0  0  0  0  0
  -30.3340  -15.8330   20.6120 N   0  0  0  0  0  0  0  0  0  0  0  0
  -29.3510  -15.7180   20.7970 H   0  0  0  0  0  0  0  0  0  0  0  0
  -25.6660  -14.1220   20.5590 C   0  0  0  0  0  0  0  0  0  0  0  0
  -24.5540  -13.3860   20.8640 C   0  0  0  0  0  0  0  0  0  0  0  0
  -24.9810  -12.0230   20.9050 C   0  0  0  0  0  0  0  0  0  0  0  0
  -26.7010  -13.2110   20.4360 N   0  0  0  0  0  0  0  0  0  0  0  0
  -26.2900  -11.9450   20.7040 N   0  0  0  0  0  0  0  0  0  0  0  0
  -24.2100  -10.7840   21.0680 C   0  0  0  0  0  0  0  0  0  0  0  0
  -24.5690   -9.8100   22.0250 C   0  0  0  0  0  3  0  0  0  0  0  0
  -23.8000   -8.6360   22.1760 C   0  0  0  0  0  3  0  0  0  0  0  0
  -22.6560   -8.4280   21.3690 C   0  0  0  0  0  0  0  0  0  0  0  0
  -22.3150   -9.3890   20.4030 C   0  0  0  0  0  3  0  0  0  0  0  0
  -23.0850  -10.5550   20.2490 C   0  0  0  0  0  3  0  0  0  0  0  0
  -21.8650   -7.3050   21.4280 O   0  0  0  0  0  0  0  0  0  0  0  0
  -21.7400   -6.5730   22.5810 C   0  0  0  0  0  0  0  0  0  0  0  0
  -21.2720   -7.1480   23.7820 C   0  0  0  0  0  3  0  0  0  0  0  0
  -21.0910   -6.3440   24.9250 C   0  0  0  0  0  3  0  0  0  0  0  0
  -21.3710   -4.9660   24.8680 C   0  0  0  0  0  0  0  0  0  0  0  0
  -21.8330   -4.3890   23.6720 C   0  0  0  0  0  3  0  0  0  0  0  0
  -22.0150   -5.1910   22.5320 C   0  0  0  0  0  0  0  0  0  0  0  0
  -22.4400   -4.6280   21.3750 F   0  0  0  0  0  0  0  0  0  0  0  0
  -21.1910   -4.1910   25.9640 F   0  0  0  0  0  0  0  0  0  0  0  0
  -23.1520  -13.9030   21.0090 C   0  0  0  0  0  0  0  0  0  0  0  0
  -22.3480  -13.2650   21.8520 N   0  0  0  0  0  0  0  0  0  0  0  0
  -22.7760  -14.9100   20.4090 O   0  0  0  0  0  0  0  0  0  0  0  0
  -22.6640  -12.4510   22.3570 H   0  0  0  0  0  0  0  0  0  0  0  0
  -21.4050  -13.5950   21.9950 H   0  0  0  0  0  0  0  0  0  0  0  0
  -25.8780  -15.4830   20.3540 N   0  0  0  0  0  0  0  0  0  0  0  0
  -25.1150  -16.1510   20.3750 H   0  0  0  0  0  0  0  0  0  0  0  0
  -26.7500  -15.8910   20.0490 H   0  0  0  0  0  0  0  0  0  0  0  0
  -28.2700  -26.5840   19.9970 O   0  0  0  0  0  0  0  0  0  0  0  0
  -24.6690  -31.8740   23.1300 C   0  0  0  0  0  0  0  0  0  0  0  0
  -27.1750  -27.4400   19.9200 C   0  0  0  0  0  0  0  0  0  0  0  0
  -23.3920  -30.4920   21.5240 C   0  0  0  0  0  3  0  0  0  0  0  0
  -24.7830  -28.9670   20.0180 C   0  0  0  0  0  0  0  0  0  0  0  0
  -25.9030  -30.8630   21.2060 C   0  0  0  0  0  2  0  0  0  0  0  0
  -25.9650  -29.4990   20.5420 C   0  0  0  0  0  0  0  0  0  0  0  0
  -27.1680  -28.7580   20.4600 C   0  0  0  0  0  3  0  0  0  0  0  0
  -25.9780  -26.9390   19.3730 C   0  0  0  0  0  3  0  0  0  0  0  0
  -24.7860  -27.6950   19.4180 C   0  0  0  0  0  3  0  0  0  0  0  0
  -23.5410  -29.8240   20.1310 C   0  0  0  0  0  2  0  0  0  0  0  0
  -24.6770  -31.0900   22.0130 N   0  0  0  0  0  0  0  0  0  0  0  0
  -23.6160  -32.1360   23.7250 O   0  0  0  0  0  0  0  0  0  0  0  0
  -22.7810  -29.4650   22.5050 C   0  0  0  0  0  0  0  0  0  0  0  0
  -21.4540  -29.2730   22.4270 N   0  0  0  0  0  0  0  0  0  0  0  0
  -23.4960  -28.8440   23.2960 O   0  0  0  0  0  0  0  0  0  0  0  0
  -20.9330  -29.8300   21.7640 H   0  0  0  0  0  0  0  0  0  0  0  0
  -18.1210  -28.0030   22.9890 C   0  0  0  0  0  0  0  0  0  0  0  0
  -20.6760  -28.3220   23.2190 C   0  0  0  0  0  3  0  0  0  0  0  0
  -20.8030  -26.8880   22.6550 C   0  0  0  0  0  2  0  0  0  0  0  0
  -19.6950  -26.5320   21.6600 C   0  0  0  0  0  2  0  0  0  0  0  0
  -18.3200  -26.6530   22.3240 C   0  0  0  0  0  2  0  0  0  0  0  0
  -19.2290  -28.7950   23.3970 C   0  0  0  0  0  0  0  0  0  0  0  0
  -18.9910  -30.0590   23.9790 C   0  0  0  0  0  3  0  0  0  0  0  0
  -17.6780  -30.5340   24.1590 C   0  0  0  0  0  3  0  0  0  0  0  0
  -16.5850  -29.7400   23.7690 C   0  0  0  0  0  3  0  0  0  0  0  0
  -16.8080  -28.4790   23.1880 C   0  0  0  0  0  3  0  0  0  0  0  0
  -25.9800  -32.4990   23.7020 C   0  0  0  0  0  3  0  0  0  0  0  0
  -25.6850  -33.8840   24.0900 N   0  0  0  0  0  0  0  0  0  0  0  0
  -25.9910  -34.9620   23.3540 C   0  0  0  0  0  0  0  0  0  0  0  0
  -26.6220  -34.8940   22.2950 O   0  0  0  0  0  0  0  0  0  0  0  0
  -25.1240  -34.0130   24.9190 H   0  0  0  0  0  0  0  0  0  0  0  0
  -24.2520  -36.7580   23.1180 C   0  0  0  0  0  1  0  0  0  0  0  0
  -25.5180  -36.3310   23.8770 C   0  0  0  0  0  3  0  0  0  0  0  0
  -27.6770  -37.1920   24.6730 C   0  0  0  0  0  1  0  0  0  0  0  0
  -26.5460  -37.3900   23.7690 N   0  0  0  0  0  0  0  0  0  0  0  0
  -26.1420  -38.3020   23.9610 H   0  0  0  0  0  0  0  0  0  0  0  0
  -26.5750  -31.6910   24.9200 C   0  0  1  0  0  0  0  0  0  0  0  0
  -25.5500  -31.4150   26.0440 C   0  0  0  0  0  1  0  0  0  0  0  0
  -27.1350  -30.3300   24.4440 C   0  0  0  0  0  1  0  0  0  0  0  0
  -27.7560  -32.4690   25.5440 C   0  0  0  0  0  1  0  0  0  0  0  0
  1  3  1  0
  1  4  1  0
  2  9  2  0
  2  6  1  0
  3  7  1  0
  4  6  1  0
  5  8  1  0
  5  1  1  0
  8  2  1  0
 10 12  1  0
 11 14  1  0
 11 13  2  0
 13 15  1  0
 14 10  2  0
 15 12  2  0
 15  8  1  0
 17 16  1  0
 17 14  1  0
 17 26  1  0
 19 24  1  0
 20 21  1  0
 20 19  1  0
 22 21  1  0
 22 31  1  0
 22 23  1  0
 24 18  1  0
 24 23  1  0
 25 18  2  0
 26 18  1  0
 26 27  1  0
 28 29  2  0
 29 30  1  0
 29 48  1  0
 30 33  1  0
 31 28  1  0
 31 32  1  0
 32 30  2  0
 33 34  1  0
 34 35  2  0
 36 39  1  0
 36 35  1  0
 37 36  2  0
 38 37  1  0
 38 33  2  0
 39 40  1  0
 40 41  1  0
 41 42  2  0
 43 42  1  0
 43 47  1  0
 44 43  2  0
 45 40  2  0
 45 44  1  0
 46 45  1  0
 48 49  1  0
 49 52  1  0
 49 51  1  0
 50 48  2  0
 53 54  1  0
 53 28  1  0
 55 53  1  0
 56  3  1  0
 57 68  2  0
 58 56  1  0
 58 63  1  0
 59 67  1  0
 59 69  1  0
 60 66  1  0
 60 62  1  0
 61 67  1  0
 62 61  1  0
 63 62  2  0
 64 65  1  0
 64 58  2  0
 65 60  2  0
 66 59  1  0
 67 57  1  0
 69 71  2  0
 70 69  1  0
 72 70  1  0
 73 82  2  0
 73 78  1  0
 74 70  1  0
 74 78  1  0
 75 74  1  0
 76 77  1  0
 76 75  1  0
 77 73  1  0
 78 79  2  0
 79 80  1  0
 81 80  2  0
 82 81  1  0
 83 57  1  0
 83 84  1  0
 83 93  1  0
 84 87  1  0
 85 89  1  0
 85 84  1  0
 86 85  2  0
 89 88  1  0
 91 89  1  0
 91 92  1  0
 91 90  1  0
 93 96  1  1
 93 94  1  0
 95 93  1  0
M  ISO  4   3 101  18 100  26 100  56 101
M  END
>  <TORSDO>  (33) 
F 18

>  <SCORE>  (33) 
-13.768

>  <name>  (33) 
32

>  <ligand_id>  (33) 
32

>  <original_smiles>  (33) 
[H]c1c([H])c([H])c2c(c1[H])C([H])([H])C([H])([H])C([H])([H])C2([H])N([H])C(=O)C1([H])N(C(=O)C([H])(N([H])C(=O)C([H])(N([H])C([H])([H])[H])C([H])([H])[H])C(C([H])([H])[H])(C([H])([H])[H])C([H])([H])[H])C([H])([H])c2c([H])c(OC(=C3C([H])([H])N(c4c([H])c([H])c(C([H])(N([H])C(=O)N5C([H])([H])C([H])([H])C([H])([H])C([H])(n6nc(-c7c([H])c([H])c(Oc8c([H])c([H])c(F)c([H])c8F)c([H])c7[H])c(C(=O)N([H])[H])c6N([H])[H])C5([H])[H])C([H])([H])[H])c([H])c4[H])C(=O)C([H])([H])C3([H])[H])C([H])([H])[H])c([H])c([H])c2C1([H])[H]

>  <smiles>  (33) 
[H]c1c([H])c([H])c2c(c1[H])C([H])([H])C([H])([H])C([H])([H])C2([H])N([H])C(=O)C1([H])N(C(=O)C([H])(N([H])C(=O)C([H])(N([H])C([H])([H])[H])C([H])([H])[H])C(C([H])([H])[H])(C([H])([H])[H])C([H])([H])[H])C([H])([H])c2c([H])c(OC(=C3C([H])([H])N(c4c([H])c([H])c(C([H])(N([H])C(=O)N5C([H])([H])C([H])([H])C([H])([H])C([H])(n6nc(-c7c([H])c([H])c(Oc8c([H])c([H])c(F)c([H])c8F)c([H])c7[H])c(C(=O)N([H])[H])c6N([H])[H])C5([H])[H])C([H])([H])[H])c([H])c4[H])C(=O)C([H])([H])C3([H])[H])C([H])([H])[H])c([H])c([H])c2C1([H])[H]

$$$$
33:0:0
     RDKit          3D

 93102  0  0  1  0  0  0  0  0999 V2000
  -28.7220  -23.8910   19.5620 C   0  0  0  0  0  0  0  0  0  0  0  0
  -28.9470  -23.0120   20.7170 C   0  0  0  0  0  0  0  0  0  0  0  0
  -28.4330  -25.2420   19.2990 C   0  0  0  0  0  0  0  0  0  0  0  0
  -28.9620  -22.6590   18.6390 C   0  0  0  0  0  2  0  0  0  0  0  0
  -28.4060  -25.6820   17.8420 C   0  0  0  0  0  1  0  0  0  0  0  0
  -29.1640  -21.8710   19.8730 N   0  0  0  0  0  0  0  0  0  0  0  0
  -28.9430  -23.2390   21.9110 O   0  0  0  0  0  0  0  0  0  0  0  0
  -30.0780  -19.7720   21.0610 C   0  0  0  0  0  3  0  0  0  0  0  0
  -29.3570  -19.4340   18.8650 C   0  0  0  0  0  3  0  0  0  0  0  0
  -30.4070  -18.3760   21.1640 C   0  0  0  0  0  3  0  0  0  0  0  0
  -29.6640  -18.0180   18.9590 C   0  0  0  0  0  3  0  0  0  0  0  0
  -29.5160  -20.4080   19.9160 C   0  0  0  0  0  0  0  0  0  0  0  0
  -30.1850  -17.3990   20.1370 C   0  0  0  0  0  0  0  0  0  0  0  0
  -30.8430  -14.9150   19.4710 C   0  0  0  0  0  0  0  0  0  0  0  0
  -30.4620  -12.6940   18.3290 C   0  0  0  0  0  2  0  0  0  0  0  0
  -29.3180  -12.7920   17.2940 C   0  0  0  0  0  2  0  0  0  0  0  0
  -27.9510  -12.5560   17.9620 C   0  0  0  0  0  2  0  0  0  0  0  0
  -27.7900  -13.3730   19.2670 C   0  0  0  0  0  3  0  0  0  0  0  0
  -29.0240  -13.2310   20.1770 C   0  0  0  0  0  2  0  0  0  0  0  0
  -30.2050  -13.6790   19.4150 N   0  0  0  0  0  0  0  0  0  0  0  0
  -31.8200  -15.1090   18.7380 O   0  0  0  0  0  0  0  0  0  0  0  0
  -30.4160  -15.9110   20.3650 N   0  0  0  0  0  0  0  0  0  0  0  0
  -25.6350  -13.8940   20.5570 C   0  0  0  0  0  0  0  0  0  0  0  0
  -24.6230  -13.0960   21.0180 C   0  0  0  0  0  0  0  0  0  0  0  0
  -24.9940  -11.7570   20.6840 C   0  0  0  0  0  0  0  0  0  0  0  0
  -26.5570  -13.0400   19.9740 N   0  0  0  0  0  0  0  0  0  0  0  0
  -26.1910  -11.7400   20.1090 N   0  0  0  0  0  0  0  0  0  0  0  0
  -24.2500  -10.4980   20.8280 C   0  0  0  0  0  0  0  0  0  0  0  0
  -24.7680   -9.4150   21.5740 C   0  0  0  0  0  3  0  0  0  0  0  0
  -24.0250   -8.2240   21.7130 C   0  0  0  0  0  3  0  0  0  0  0  0
  -22.7520   -8.1050   21.1090 C   0  0  0  0  0  0  0  0  0  0  0  0
  -22.2510   -9.1770   20.3500 C   0  0  0  0  0  3  0  0  0  0  0  0
  -22.9930  -10.3610   20.2070 C   0  0  0  0  0  3  0  0  0  0  0  0
  -21.9720   -6.9740   21.1680 O   0  0  0  0  0  0  0  0  0  0  0  0
  -21.9980   -6.1380   22.2540 C   0  0  0  0  0  0  0  0  0  0  0  0
  -21.7120   -6.6010   23.5580 C   0  0  0  0  0  3  0  0  0  0  0  0
  -21.6800   -5.6950   24.6360 C   0  0  0  0  0  3  0  0  0  0  0  0
  -21.9250   -4.3260   24.4150 C   0  0  0  0  0  0  0  0  0  0  0  0
  -22.2030   -3.8610   23.1170 C   0  0  0  0  0  3  0  0  0  0  0  0
  -22.2360   -4.7650   22.0400 C   0  0  0  0  0  0  0  0  0  0  0  0
  -22.4850   -4.3090   20.7880 F   0  0  0  0  0  0  0  0  0  0  0  0
  -21.8860   -3.4540   25.4480 F   0  0  0  0  0  0  0  0  0  0  0  0
  -23.3410  -13.5560   21.6460 C   0  0  0  0  0  0  0  0  0  0  0  0
  -22.7830  -12.7620   22.5540 N   0  0  0  0  0  0  0  0  0  0  0  0
  -22.8500  -14.6500   21.3690 O   0  0  0  0  0  0  0  0  0  0  0  0
  -23.1980  -11.8740   22.7950 H   0  0  0  0  0  0  0  0  0  0  0  0
  -21.9310  -13.0480   23.0160 H   0  0  0  0  0  0  0  0  0  0  0  0
  -25.8380  -15.2710   20.5660 N   0  0  0  0  0  0  0  0  0  0  0  0
  -25.1540  -15.9180   20.9440 H   0  0  0  0  0  0  0  0  0  0  0  0
  -26.6530  -15.7350   20.1830 H   0  0  0  0  0  0  0  0  0  0  0  0
  -29.8550  -15.9840   22.7590 C   0  0  0  0  0  2  0  0  0  0  0  0
  -30.5570  -15.5090   21.7120 C   0  0  0  0  0  3  0  0  0  0  0  0
  -28.2760  -26.3710   20.1760 O   0  0  0  0  0  0  0  0  0  0  0  0
  -24.6290  -31.8980   23.2340 C   0  0  0  0  0  0  0  0  0  0  0  0
  -27.1930  -27.2960   20.1020 C   0  0  0  0  0  0  0  0  0  0  0  0
  -23.4090  -30.5200   21.5920 C   0  0  0  0  0  3  0  0  0  0  0  0
  -24.8420  -28.9740   20.1340 C   0  0  0  0  0  0  0  0  0  0  0  0
  -25.9550  -30.8110   21.3960 C   0  0  0  0  0  2  0  0  0  0  0  0
  -26.0230  -29.4340   20.7280 C   0  0  0  0  0  0  0  0  0  0  0  0
  -27.1980  -28.6080   20.7030 C   0  0  0  0  0  3  0  0  0  0  0  0
  -25.9750  -26.9050   19.5000 C   0  0  0  0  0  3  0  0  0  0  0  0
  -24.8250  -27.7180   19.5070 C   0  0  0  0  0  3  0  0  0  0  0  0
  -23.6110  -29.8590   20.2030 C   0  0  0  0  0  2  0  0  0  0  0  0
  -24.6850  -31.0950   22.1300 N   0  0  0  0  0  0  0  0  0  0  0  0
  -23.5500  -32.1750   23.7780 O   0  0  0  0  0  0  0  0  0  0  0  0
  -22.7450  -29.5000   22.5490 C   0  0  0  0  0  0  0  0  0  0  0  0
  -21.4250  -29.2900   22.3980 N   0  0  0  0  0  0  0  0  0  0  0  0
  -23.4200  -28.8980   23.3890 O   0  0  0  0  0  0  0  0  0  0  0  0
  -20.9390  -29.8280   21.6950 H   0  0  0  0  0  0  0  0  0  0  0  0
  -18.0810  -27.9660   22.7970 C   0  0  0  0  0  0  0  0  0  0  0  0
  -20.6130  -28.3420   23.1620 C   0  0  0  0  0  3  0  0  0  0  0  0
  -20.7980  -26.9000   22.6350 C   0  0  0  0  0  2  0  0  0  0  0  0
  -19.7540  -26.5030   21.5870 C   0  0  0  0  0  2  0  0  0  0  0  0
  -18.3420  -26.6070   22.1690 C   0  0  0  0  0  2  0  0  0  0  0  0
  -19.1480  -28.7860   23.2490 C   0  0  0  0  0  0  0  0  0  0  0  0
  -18.8510  -30.0540   23.7950 C   0  0  0  0  0  3  0  0  0  0  0  0
  -17.5210  -30.5030   23.8940 C   0  0  0  0  0  3  0  0  0  0  0  0
  -16.4680  -29.6810   23.4570 C   0  0  0  0  0  3  0  0  0  0  0  0
  -16.7480  -28.4130   22.9140 C   0  0  0  0  0  3  0  0  0  0  0  0
  -25.9170  -32.5240   23.8520 C   0  0  0  0  0  3  0  0  0  0  0  0
  -25.6170  -33.9250   24.1820 N   0  0  0  0  0  0  0  0  0  0  0  0
  -25.9300  -34.9750   23.4090 C   0  0  0  0  0  0  0  0  0  0  0  0
  -26.5700  -34.8640   22.3600 O   0  0  0  0  0  0  0  0  0  0  0  0
  -25.0450  -34.0850   24.9980 H   0  0  0  0  0  0  0  0  0  0  0  0
  -24.1930  -36.7690   23.1030 C   0  0  0  0  0  1  0  0  0  0  0  0
  -25.4600  -36.3680   23.8740 C   0  0  0  0  0  3  0  0  0  0  0  0
  -27.6240  -37.2570   24.6240 C   0  0  0  0  0  1  0  0  0  0  0  0
  -26.4910  -37.4190   23.7180 N   0  0  0  0  0  0  0  0  0  0  0  0
  -26.0910  -38.3420   23.8710 H   0  0  0  0  0  0  0  0  0  0  0  0
  -26.4270  -31.7540   25.1310 C   0  0  1  0  0  0  0  0  0  0  0  0
  -25.3330  -31.5260   26.2000 C   0  0  0  0  0  1  0  0  0  0  0  0
  -27.0050  -30.3730   24.7460 C   0  0  0  0  0  1  0  0  0  0  0  0
  -27.5830  -32.5450   25.7900 C   0  0  0  0  0  1  0  0  0  0  0  0
  1  2  1  0
  2  7  2  0
  3  1  2  0
  3 53  1  0
  4  1  1  0
  4  6  1  0
  5  3  1  0
  6 12  1  0
  6  2  1  0
  8 10  1  0
  9 11  2  0
  9 12  1  0
 11 13  1  0
 12  8  2  0
 13 22  1  0
 13 10  2  0
 14 22  1  0
 15 20  1  0
 16 17  1  0
 16 15  1  0
 18 17  1  0
 18 26  1  0
 18 19  1  0
 20 14  1  0
 20 19  1  0
 21 14  2  0
 22 52  1  0
 23 48  1  0
 23 24  2  0
 24 43  1  0
 25 28  1  0
 25 24  1  0
 26 27  1  0
 26 23  1  0
 27 25  2  0
 28 29  1  0
 29 30  2  0
 31 34  1  0
 31 30  1  0
 32 31  2  0
 33 32  1  0
 33 28  2  0
 34 35  1  0
 35 36  1  0
 36 37  2  0
 38 37  1  0
 38 42  1  0
 39 38  2  0
 40 35  2  0
 40 39  1  0
 41 40  1  0
 43 44  1  0
 44 46  1  0
 44 47  1  0
 45 43  2  0
 48 49  1  0
 50 48  1  0
 52 51  2  0
 54 65  2  0
 55 53  1  0
 55 60  1  0
 56 64  1  0
 56 66  1  0
 57 63  1  0
 57 59  1  0
 58 64  1  0
 59 58  1  0
 60 59  2  0
 61 62  1  0
 61 55  2  0
 62 57  2  0
 63 56  1  0
 64 54  1  0
 66 68  2  0
 67 66  1  0
 69 67  1  0
 70 79  2  0
 70 75  1  0
 71 67  1  0
 71 75  1  0
 72 71  1  0
 73 74  1  0
 73 72  1  0
 74 70  1  0
 75 76  2  0
 76 77  1  0
 78 77  2  0
 79 78  1  0
 80 54  1  0
 80 81  1  0
 80 90  1  0
 81 84  1  0
 82 86  1  0
 82 81  1  0
 83 82  2  0
 86 85  1  0
 88 89  1  0
 88 86  1  0
 88 87  1  0
 90 93  1  1
 90 91  1  0
 92 90  1  0
M  ISO  4   3 101  14 100  22 100  53 101
M  END
>  <TORSDO>  (34) 
F 18

>  <SCORE>  (34) 
-10.823

>  <name>  (34) 
33

>  <ligand_id>  (34) 
33

>  <original_smiles>  (34) 
[H]C([H])=C([H])N(C(=O)N1C([H])([H])C([H])([H])C([H])([H])C([H])(n2nc(-c3c([H])c([H])c(Oc4c([H])c([H])c(F)c([H])c4F)c([H])c3[H])c(C(=O)N([H])[H])c2N([H])[H])C1([H])[H])c1c([H])c([H])c(N2C(=O)C(=C(Oc3c([H])c([H])c4c(c3[H])C([H])([H])N(C(=O)C([H])(N([H])C(=O)C([H])(N([H])C([H])([H])[H])C([H])([H])[H])C(C([H])([H])[H])(C([H])([H])[H])C([H])([H])[H])C([H])(C(=O)N([H])C3([H])c5c([H])c([H])c([H])c([H])c5C([H])([H])C([H])([H])C3([H])[H])C4([H])[H])C([H])([H])[H])C2([H])[H])c([H])c1[H]

>  <smiles>  (34) 
[H]C([H])=C([H])N(C(=O)N1C([H])([H])C([H])([H])C([H])([H])C([H])(n2nc(-c3c([H])c([H])c(Oc4c([H])c([H])c(F)c([H])c4F)c([H])c3[H])c(C(=O)N([H])[H])c2N([H])[H])C1([H])[H])c1c([H])c([H])c(N2C(=O)C(=C(Oc3c([H])c([H])c4c(c3[H])C([H])([H])N(C(=O)C([H])(N([H])C(=O)C([H])(N([H])C([H])([H])[H])C([H])([H])[H])C(C([H])([H])[H])(C([H])([H])[H])C([H])([H])[H])C([H])(C(=O)N([H])C3([H])c5c([H])c([H])c([H])c([H])c5C([H])([H])C([H])([H])C3([H])[H])C4([H])[H])C([H])([H])[H])C2([H])[H])c([H])c1[H]

$$$$
34:0:0
     RDKit          3D

 91 99  0  0  1  0  0  0  0  0999 V2000
  -28.8580  -22.7080   20.3050 C   0  0  0  0  0  0  0  0  0  0  0  0
  -29.4650  -21.6050   19.7250 N   0  0  0  0  0  0  0  0  0  0  0  0
  -28.1240  -22.6040   21.2930 O   0  0  0  0  0  0  0  0  0  0  0  0
  -30.0650  -21.8200   18.9410 H   0  0  0  0  0  0  0  0  0  0  0  0
  -28.4260  -18.5390   21.6210 C   0  0  0  0  0  3  0  0  0  0  0  0
  -30.2260  -19.2990   19.4000 C   0  0  0  0  0  3  0  0  0  0  0  0
  -29.0260  -17.3400   21.4830 C   0  0  0  0  0  2  0  0  0  0  0  0
  -30.4750  -17.9400   19.4430 C   0  0  0  0  0  3  0  0  0  0  0  0
  -28.5510  -19.7320   21.0060 C   0  0  0  0  0  3  0  0  0  0  0  0
  -29.4070  -20.1820   20.0620 C   0  0  0  0  0  0  0  0  0  0  0  0
  -29.9520  -16.8930   20.4080 C   0  0  0  0  0  0  0  0  0  0  0  0
  -30.1760  -15.6020   20.4570 N   0  0  0  0  0  2  0  0  0  0  0  0
  -30.9250  -14.7470   19.6100 C   0  0  0  0  0  0  0  0  0  0  0  0
  -30.7200  -12.5230   18.4490 C   0  0  0  0  0  2  0  0  0  0  0  0
  -29.5860  -12.6140   17.3980 C   0  0  0  0  0  2  0  0  0  0  0  0
  -28.1950  -12.3940   18.0310 C   0  0  0  0  0  2  0  0  0  0  0  0
  -28.0060  -13.2030   19.3420 C   0  0  0  0  0  3  0  0  0  0  0  0
  -29.2170  -13.0070   20.2730 C   0  0  0  0  0  2  0  0  0  0  0  0
  -30.4090  -13.4730   19.5380 N   0  0  0  0  0  0  0  0  0  0  0  0
  -31.9050  -15.0550   18.9280 O   0  0  0  0  0  0  0  0  0  0  0  0
  -25.7820  -13.7360   20.5080 C   0  0  0  0  0  0  0  0  0  0  0  0
  -24.7810  -12.9350   20.9880 C   0  0  0  0  0  0  0  0  0  0  0  0
  -25.2020  -11.5950   20.7330 C   0  0  0  0  0  0  0  0  0  0  0  0
  -26.7510  -12.8800   20.0100 N   0  0  0  0  0  0  0  0  0  0  0  0
  -26.4150  -11.5790   20.1970 N   0  0  0  0  0  0  0  0  0  0  0  0
  -24.4940  -10.3240   20.9110 C   0  0  0  0  0  0  0  0  0  0  0  0
  -24.9590   -9.3420   21.8120 C   0  0  0  0  0  3  0  0  0  0  0  0
  -24.2530   -8.1330   21.9780 C   0  0  0  0  0  3  0  0  0  0  0  0
  -23.0640   -7.9010   21.2430 C   0  0  0  0  0  0  0  0  0  0  0  0
  -22.6190   -8.8750   20.3300 C   0  0  0  0  0  3  0  0  0  0  0  0
  -23.3270  -10.0750   20.1630 C   0  0  0  0  0  3  0  0  0  0  0  0
  -22.3240   -6.7460   21.3200 O   0  0  0  0  0  0  0  0  0  0  0  0
  -22.1570   -6.0780   22.5050 C   0  0  0  0  0  0  0  0  0  0  0  0
  -21.5700   -6.6940   23.6320 C   0  0  0  0  0  3  0  0  0  0  0  0
  -21.3530   -5.9470   24.8070 C   0  0  0  0  0  3  0  0  0  0  0  0
  -21.7110   -4.5850   24.8560 C   0  0  0  0  0  0  0  0  0  0  0  0
  -22.2900   -3.9710   23.7320 C   0  0  0  0  0  3  0  0  0  0  0  0
  -22.5080   -4.7140   22.5600 C   0  0  0  0  0  0  0  0  0  0  0  0
  -23.0470   -4.1100   21.4720 F   0  0  0  0  0  0  0  0  0  0  0  0
  -21.4960   -3.8660   25.9820 F   0  0  0  0  0  0  0  0  0  0  0  0
  -23.4670  -13.3900   21.5550 C   0  0  0  0  0  0  0  0  0  0  0  0
  -22.8980  -12.6130   22.4700 N   0  0  0  0  0  0  0  0  0  0  0  0
  -22.9620  -14.4620   21.2250 O   0  0  0  0  0  0  0  0  0  0  0  0
  -23.3300  -11.7470   22.7530 H   0  0  0  0  0  0  0  0  0  0  0  0
  -22.0280  -12.8900   22.9010 H   0  0  0  0  0  0  0  0  0  0  0  0
  -25.9410  -15.1130   20.4240 N   0  0  0  0  0  0  0  0  0  0  0  0
  -25.1470  -15.7250   20.5790 H   0  0  0  0  0  0  0  0  0  0  0  0
  -26.6300  -15.5060   19.7960 H   0  0  0  0  0  0  0  0  0  0  0  0
  -29.1510  -24.0580   19.7340 C   0  0  0  0  0  3  0  0  0  0  0  0
  -28.4400  -25.1760   20.1210 C   0  0  0  0  0  3  0  0  0  0  0  0
  -28.6170  -26.5270   19.7350 O   0  0  0  0  0  0  0  0  0  0  0  0
  -24.7740  -31.7320   23.0250 C   0  0  0  0  0  0  0  0  0  0  0  0
  -27.4990  -27.3720   19.7710 C   0  0  0  0  0  0  0  0  0  0  0  0
  -23.6060  -30.3780   21.3200 C   0  0  0  0  0  3  0  0  0  0  0  0
  -25.0980  -28.9260   19.8310 C   0  0  0  0  0  0  0  0  0  0  0  0
  -26.1400  -30.7560   21.1660 C   0  0  0  0  0  2  0  0  0  0  0  0
  -26.2510  -29.4090   20.4610 C   0  0  0  0  0  0  0  0  0  0  0  0
  -27.4550  -28.6390   20.4320 C   0  0  0  0  0  3  0  0  0  0  0  0
  -26.3240  -26.9420   19.1170 C   0  0  0  0  0  3  0  0  0  0  0  0
  -25.1350  -27.6960   19.1510 C   0  0  0  0  0  3  0  0  0  0  0  0
  -23.8440  -29.7710   19.9110 C   0  0  0  0  0  2  0  0  0  0  0  0
  -24.8570  -30.9720   21.8940 N   0  0  0  0  0  0  0  0  0  0  0  0
  -23.6840  -31.9650   23.5690 O   0  0  0  0  0  0  0  0  0  0  0  0
  -22.9690  -29.3040   22.2340 C   0  0  0  0  0  0  0  0  0  0  0  0
  -21.6420  -29.1310   22.1240 N   0  0  0  0  0  0  0  0  0  0  0  0
  -23.6630  -28.6350   23.0030 O   0  0  0  0  0  0  0  0  0  0  0  0
  -21.1430  -29.7250   21.4790 H   0  0  0  0  0  0  0  0  0  0  0  0
  -18.2700  -27.9150   22.6330 C   0  0  0  0  0  0  0  0  0  0  0  0
  -20.8360  -28.1470   22.8510 C   0  0  0  0  0  3  0  0  0  0  0  0
  -20.9160  -26.7590   22.1780 C   0  0  0  0  0  2  0  0  0  0  0  0
  -19.7820  -26.5060   21.1770 C   0  0  0  0  0  2  0  0  0  0  0  0
  -18.4190  -26.6120   21.8680 C   0  0  0  0  0  2  0  0  0  0  0  0
  -19.4030  -28.6450   23.0800 C   0  0  0  0  0  0  0  0  0  0  0  0
  -19.2060  -29.8670   23.7600 C   0  0  0  0  0  3  0  0  0  0  0  0
  -17.9070  -30.3560   23.9970 C   0  0  0  0  0  3  0  0  0  0  0  0
  -16.7900  -29.6220   23.5640 C   0  0  0  0  0  3  0  0  0  0  0  0
  -16.9720  -28.4040   22.8850 C   0  0  0  0  0  3  0  0  0  0  0  0
  -26.0420  -32.3610   23.6810 C   0  0  0  0  0  3  0  0  0  0  0  0
  -26.6090  -31.5070   24.8830 C   0  0  1  0  0  0  0  0  0  0  0  0
  -25.5400  -31.1380   25.9410 C   0  0  0  0  0  1  0  0  0  0  0  0
  -27.2430  -30.1910   24.3740 C   0  0  0  0  0  1  0  0  0  0  0  0
  -27.7380  -32.2920   25.5940 C   0  0  0  0  0  1  0  0  0  0  0  0
  -25.6860  -33.7130   24.1330 N   0  0  0  0  0  0  0  0  0  0  0  0
  -25.9800  -34.8380   23.4690 C   0  0  0  0  0  0  0  0  0  0  0  0
  -26.6490  -34.8500   22.4320 O   0  0  0  0  0  0  0  0  0  0  0  0
  -25.0870  -33.7760   24.9430 H   0  0  0  0  0  0  0  0  0  0  0  0
  -24.1830  -36.5880   23.2780 C   0  0  0  0  0  1  0  0  0  0  0  0
  -25.4440  -36.1620   24.0460 C   0  0  0  0  0  3  0  0  0  0  0  0
  -27.5520  -37.0500   24.9420 C   0  0  0  0  0  1  0  0  0  0  0  0
  -26.4340  -37.2610   24.0260 N   0  0  0  0  0  0  0  0  0  0  0  0
  -25.9920  -38.1460   24.2660 H   0  0  0  0  0  0  0  0  0  0  0  0
  1  3  2  0
  2 10  1  0
  2  1  1  0
  4  2  1  0
  6  8  1  0
  6 10  2  0
  7  5  1  0
  8 11  2  0
  9  5  2  0
 10  9  1  0
 11 12  1  0
 11  7  1  0
 13 12  1  0
 14 19  1  0
 15 16  1  0
 15 14  1  0
 17 16  1  0
 17 24  1  0
 17 18  1  0
 19 13  1  0
 19 18  1  0
 20 13  2  0
 21 22  2  0
 22 41  1  0
 23 26  1  0
 23 22  1  0
 24 25  1  0
 24 21  1  0
 25 23  2  0
 26 27  1  0
 27 28  2  0
 29 32  1  0
 29 28  1  0
 30 29  2  0
 31 30  1  0
 31 26  2  0
 32 33  1  0
 33 38  2  0
 33 34  1  0
 34 35  2  0
 35 36  1  0
 36 40  1  0
 37 36  2  0
 38 37  1  0
 39 38  1  0
 41 42  1  0
 42 44  1  0
 42 45  1  0
 43 41  2  0
 46 21  1  0
 46 47  1  0
 48 46  1  0
 49 50  2  0
 49  1  1  0
 51 53  1  0
 51 50  1  0
 52 63  2  0
 53 58  1  0
 54 62  1  0
 54 64  1  0
 55 61  1  0
 55 57  1  0
 56 62  1  0
 57 56  1  0
 58 57  2  0
 59 60  1  0
 59 53  2  0
 60 55  2  0
 61 54  1  0
 62 52  1  0
 64 66  2  0
 65 64  1  0
 67 65  1  0
 68 77  2  0
 68 73  1  0
 69 65  1  0
 69 73  1  0
 70 69  1  0
 71 72  1  0
 71 70  1  0
 72 68  1  0
 73 74  2  0
 74 75  1  0
 76 75  2  0
 77 76  1  0
 78 52  1  0
 78 83  1  0
 78 79  1  0
 79 82  1  1
 79 80  1  0
 81 79  1  0
 83 86  1  0
 84 88  1  0
 84 83  1  0
 85 84  2  0
 88 87  1  0
 90 88  1  0
 90 91  1  0
 90 89  1  0
M  ISO  4  12 100  13 100  50 101  51 101
M  END
>  <TORSDO>  (35) 
F 18

>  <SCORE>  (35) 
-9.926

>  <name>  (35) 
34

>  <ligand_id>  (35) 
34

>  <original_smiles>  (35) 
[H]C(Oc1c([H])c([H])c2c(c1[H])C([H])([H])N(C(=O)C([H])(N([H])C(=O)C([H])(N([H])C([H])([H])[H])C([H])([H])[H])C(C([H])([H])[H])(C([H])([H])[H])C([H])([H])[H])C([H])(C(=O)N([H])C1([H])c3c([H])c([H])c([H])c([H])c3C([H])([H])C([H])([H])C1([H])[H])C2([H])[H])=C([H])C(=O)N([H])c1c([H])c([H])c([H])c(=NC(=O)N2C([H])([H])C([H])([H])C([H])([H])C([H])(n3nc(-c4c([H])c([H])c(Oc5c([H])c([H])c(F)c([H])c5F)c([H])c4[H])c(C(=O)N([H])[H])c3N([H])[H])C2([H])[H])c([H])c1[H]

>  <smiles>  (35) 
[H]C(Oc1c([H])c([H])c2c(c1[H])C([H])([H])N(C(=O)C([H])(N([H])C(=O)C([H])(N([H])C([H])([H])[H])C([H])([H])[H])C(C([H])([H])[H])(C([H])([H])[H])C([H])([H])[H])C([H])(C(=O)N([H])C1([H])c3c([H])c([H])c([H])c([H])c3C([H])([H])C([H])([H])C1([H])[H])C2([H])[H])=C([H])C(=O)N([H])c1c([H])c([H])c([H])c(=NC(=O)N2C([H])([H])C([H])([H])C([H])([H])C([H])(n3nc(-c4c([H])c([H])c(Oc5c([H])c([H])c(F)c([H])c5F)c([H])c4[H])c(C(=O)N([H])[H])c3N([H])[H])C2([H])[H])c([H])c1[H]

$$$$
35:0:0
     RDKit          3D

 91 99  0  0  1  0  0  0  0  0999 V2000
  -28.8600  -22.5150   20.9250 C   0  0  0  0  0  0  0  0  0  0  0  0
  -29.0800  -21.3190   20.2280 N   0  0  0  0  0  0  0  0  0  0  0  0
  -28.7500  -22.4660   22.1510 O   0  0  0  0  0  0  0  0  0  0  0  0
  -28.9010  -21.3740   19.2350 H   0  0  0  0  0  0  0  0  0  0  0  0
  -31.6940  -19.0470   21.7930 C   0  0  0  0  0  3  0  0  0  0  0  0
  -30.9240  -20.1660   21.4190 C   0  0  0  0  0  3  0  0  0  0  0  0
  -31.3090  -17.7310   21.4660 C   0  0  0  0  0  3  0  0  0  0  0  0
  -29.3430  -18.6490   20.3650 C   0  0  0  0  0  3  0  0  0  0  0  0
  -29.7220  -20.0350   20.6880 C   0  0  0  0  0  0  0  0  0  0  0  0
  -30.1270  -17.4580   20.7410 C   0  0  0  0  0  0  0  0  0  0  0  0
  -30.5530  -14.8610   20.3460 C   0  0  0  0  0  0  0  0  0  0  0  0
  -30.3770  -12.5680   19.3210 C   0  0  0  0  0  2  0  0  0  0  0  0
  -29.4260  -12.5990   18.1040 C   0  0  0  0  0  2  0  0  0  0  0  0
  -27.9660  -12.3950   18.5520 C   0  0  0  0  0  2  0  0  0  0  0  0
  -27.5860  -13.2890   19.7630 C   0  0  0  0  0  3  0  0  0  0  0  0
  -28.6550  -13.2440   20.8750 C   0  0  0  0  0  2  0  0  0  0  0  0
  -29.9310  -13.6290   20.2600 N   0  0  0  0  0  0  0  0  0  0  0  0
  -31.7510  -14.9370   20.0520 O   0  0  0  0  0  0  0  0  0  0  0  0
  -29.7690  -16.0160   20.5000 N   0  0  0  0  0  0  0  0  0  0  0  0
  -28.7780  -15.8280   20.4810 H   0  0  0  0  0  0  0  0  0  0  0  0
  -25.2070  -13.8610   20.5240 C   0  0  0  0  0  0  0  0  0  0  0  0
  -24.1500  -13.0800   20.9030 C   0  0  0  0  0  0  0  0  0  0  0  0
  -24.6210  -11.7320   20.8610 C   0  0  0  0  0  0  0  0  0  0  0  0
  -26.2520  -12.9880   20.2690 N   0  0  0  0  0  0  0  0  0  0  0  0
  -25.9070  -11.7030   20.5370 N   0  0  0  0  0  0  0  0  0  0  0  0
  -23.9030  -10.4650   21.0500 C   0  0  0  0  0  0  0  0  0  0  0  0
  -24.3400   -9.4980   21.9810 C   0  0  0  0  0  3  0  0  0  0  0  0
  -23.6210   -8.2970   22.1590 C   0  0  0  0  0  3  0  0  0  0  0  0
  -22.4500   -8.0530   21.4040 C   0  0  0  0  0  0  0  0  0  0  0  0
  -22.0300   -9.0080   20.4620 C   0  0  0  0  0  3  0  0  0  0  0  0
  -22.7490  -10.2010   20.2810 C   0  0  0  0  0  3  0  0  0  0  0  0
  -21.7020   -6.9040   21.4910 O   0  0  0  0  0  0  0  0  0  0  0  0
  -21.6520   -6.1620   22.6440 C   0  0  0  0  0  0  0  0  0  0  0  0
  -21.2060   -6.7120   23.8650 C   0  0  0  0  0  3  0  0  0  0  0  0
  -21.1050   -5.8960   25.0100 C   0  0  0  0  0  3  0  0  0  0  0  0
  -21.4420   -4.5320   24.9340 C   0  0  0  0  0  0  0  0  0  0  0  0
  -21.8830   -3.9820   23.7180 C   0  0  0  0  0  3  0  0  0  0  0  0
  -21.9850   -4.7950   22.5750 C   0  0  0  0  0  0  0  0  0  0  0  0
  -22.3900   -4.2550   21.4000 F   0  0  0  0  0  0  0  0  0  0  0  0
  -21.3400   -3.7450   26.0300 F   0  0  0  0  0  0  0  0  0  0  0  0
  -22.7530  -13.5490   21.1880 C   0  0  0  0  0  0  0  0  0  0  0  0
  -22.0350  -12.8420   22.0550 N   0  0  0  0  0  0  0  0  0  0  0  0
  -22.3070  -14.5770   20.6790 O   0  0  0  0  0  0  0  0  0  0  0  0
  -22.4090  -12.0110   22.4880 H   0  0  0  0  0  0  0  0  0  0  0  0
  -21.0980  -13.1390   22.2880 H   0  0  0  0  0  0  0  0  0  0  0  0
  -25.3590  -15.2340   20.3490 N   0  0  0  0  0  0  0  0  0  0  0  0
  -24.5770  -15.8720   20.4490 H   0  0  0  0  0  0  0  0  0  0  0  0
  -26.1830  -15.6790   19.9690 H   0  0  0  0  0  0  0  0  0  0  0  0
  -28.7780  -23.8460   20.1870 C   0  0  0  0  0  3  0  0  0  0  0  0
  -28.2330  -25.0330   20.6990 C   0  0  0  0  0  3  0  0  0  0  0  0
  -28.3060  -26.3720   20.1780 O   0  0  0  0  0  0  0  0  0  0  0  0
  -24.6050  -31.9080   23.2360 C   0  0  0  0  0  0  0  0  0  0  0  0
  -27.2070  -27.2680   20.2210 C   0  0  0  0  0  0  0  0  0  0  0  0
  -23.4040  -30.5020   21.6020 C   0  0  0  0  0  3  0  0  0  0  0  0
  -24.8540  -28.9300   20.1890 C   0  0  0  0  0  0  0  0  0  0  0  0
  -25.9490  -30.7990   21.4230 C   0  0  0  0  0  2  0  0  0  0  0  0
  -26.0270  -29.4080   20.7880 C   0  0  0  0  0  0  0  0  0  0  0  0
  -27.2080  -28.5910   20.7900 C   0  0  0  0  0  3  0  0  0  0  0  0
  -26.0100  -26.8570   19.6020 C   0  0  0  0  0  3  0  0  0  0  0  0
  -24.8510  -27.6620   19.5850 C   0  0  0  0  0  3  0  0  0  0  0  0
  -23.6240  -29.8180   20.2260 C   0  0  0  0  0  2  0  0  0  0  0  0
  -24.6730  -31.0890   22.1440 N   0  0  0  0  0  0  0  0  0  0  0  0
  -23.5200  -32.1890   23.7670 O   0  0  0  0  0  0  0  0  0  0  0  0
  -22.7330  -29.4930   22.5670 C   0  0  0  0  0  0  0  0  0  0  0  0
  -21.4060  -29.3170   22.4390 N   0  0  0  0  0  0  0  0  0  0  0  0
  -23.4080  -28.8710   23.3920 O   0  0  0  0  0  0  0  0  0  0  0  0
  -20.9180  -29.8730   21.7510 H   0  0  0  0  0  0  0  0  0  0  0  0
  -18.0270  -28.1190   22.9380 C   0  0  0  0  0  0  0  0  0  0  0  0
  -20.5860  -28.3820   23.2120 C   0  0  0  0  0  3  0  0  0  0  0  0
  -20.6900  -26.9480   22.6430 C   0  0  0  0  0  2  0  0  0  0  0  0
  -19.5910  -26.6200   21.6290 C   0  0  0  0  0  2  0  0  0  0  0  0
  -18.2070  -26.7650   22.2700 C   0  0  0  0  0  2  0  0  0  0  0  0
  -19.1450  -28.8840   23.3670 C   0  0  0  0  0  0  0  0  0  0  0  0
  -18.9210  -30.1490   23.9520 C   0  0  0  0  0  3  0  0  0  0  0  0
  -17.6150  -30.6490   24.1140 C   0  0  0  0  0  3  0  0  0  0  0  0
  -16.5140  -29.8790   23.7020 C   0  0  0  0  0  3  0  0  0  0  0  0
  -16.7200  -28.6160   23.1190 C   0  0  0  0  0  3  0  0  0  0  0  0
  -25.8850  -32.5450   23.8590 C   0  0  0  0  0  3  0  0  0  0  0  0
  -26.3950  -31.7820   25.1430 C   0  0  1  0  0  0  0  0  0  0  0  0
  -25.2970  -31.5570   26.2090 C   0  0  0  0  0  1  0  0  0  0  0  0
  -26.9760  -30.4010   24.7640 C   0  0  0  0  0  1  0  0  0  0  0  0
  -27.5450  -32.5780   25.8020 C   0  0  0  0  0  1  0  0  0  0  0  0
  -25.5750  -33.9450   24.1810 N   0  0  0  0  0  0  0  0  0  0  0  0
  -25.9110  -34.9960   23.4210 C   0  0  0  0  0  0  0  0  0  0  0  0
  -26.5830  -34.8890   22.3920 O   0  0  0  0  0  0  0  0  0  0  0  0
  -24.9800  -34.1020   24.9810 H   0  0  0  0  0  0  0  0  0  0  0  0
  -24.1920  -36.7960   23.0520 C   0  0  0  0  0  1  0  0  0  0  0  0
  -25.4260  -36.3880   23.8730 C   0  0  0  0  0  3  0  0  0  0  0  0
  -27.5550  -37.2680   24.7230 C   0  0  0  0  0  1  0  0  0  0  0  0
  -26.4640  -37.4360   23.7660 N   0  0  0  0  0  0  0  0  0  0  0  0
  -26.0590  -38.3580   23.9060 H   0  0  0  0  0  0  0  0  0  0  0  0
  1  3  2  0
  2  9  1  0
  2  1  1  0
  4  2  1  0
  6  5  2  0
  7  5  1  0
  8  9  2  0
  8 10  1  0
  9  6  1  0
 10  7  2  0
 11 19  1  0
 12 17  1  0
 13 14  1  0
 13 12  1  0
 15 14  1  0
 15 24  1  0
 15 16  1  0
 17 11  1  0
 17 16  1  0
 18 11  2  0
 19 10  1  0
 20 19  1  0
 21 22  2  0
 22 41  1  0
 23 22  1  0
 23 26  1  0
 24 21  1  0
 24 25  1  0
 25 23  2  0
 26 27  1  0
 27 28  2  0
 29 32  1  0
 29 28  1  0
 30 29  2  0
 31 30  1  0
 31 26  2  0
 32 33  1  0
 33 34  1  0
 34 35  2  0
 36 35  1  0
 36 40  1  0
 37 36  2  0
 38 33  2  0
 38 37  1  0
 39 38  1  0
 41 42  1  0
 42 45  1  0
 42 44  1  0
 43 41  2  0
 46 47  1  0
 46 21  1  0
 48 46  1  0
 49 50  2  0
 49  1  1  0
 51 53  1  0
 51 50  1  0
 52 63  2  0
 53 58  1  0
 54 62  1  0
 54 64  1  0
 55 61  1  0
 55 57  1  0
 56 62  1  0
 57 58  2  0
 57 56  1  0
 59 53  2  0
 60 59  1  0
 60 55  2  0
 61 54  1  0
 62 52  1  0
 64 66  2  0
 65 64  1  0
 67 65  1  0
 68 77  2  0
 68 73  1  0
 69 65  1  0
 69 73  1  0
 70 69  1  0
 71 72  1  0
 71 70  1  0
 72 68  1  0
 73 74  2  0
 74 75  1  0
 76 75  2  0
 77 76  1  0
 78 52  1  0
 78 83  1  0
 78 79  1  0
 79 82  1  1
 79 80  1  0
 81 79  1  0
 83 86  1  0
 84 88  1  0
 84 83  1  0
 85 84  2  0
 88 87  1  0
 90 88  1  0
 90 91  1  0
 90 89  1  0
M  ISO  4  11 100  19 100  50 101  51 101
M  END
>  <TORSDO>  (36) 
F 18

>  <SCORE>  (36) 
-14.949

>  <name>  (36) 
35

>  <ligand_id>  (36) 
35

>  <original_smiles>  (36) 
[H]C(Oc1c([H])c([H])c2c(c1[H])C([H])([H])N(C(=O)C([H])(N([H])C(=O)C([H])(N([H])C([H])([H])[H])C([H])([H])[H])C(C([H])([H])[H])(C([H])([H])[H])C([H])([H])[H])C([H])(C(=O)N([H])C1([H])c3c([H])c([H])c([H])c([H])c3C([H])([H])C([H])([H])C1([H])[H])C2([H])[H])=C([H])C(=O)N([H])c1c([H])c([H])c([H])c(N([H])C(=O)N2C([H])([H])C([H])([H])C([H])([H])C([H])(n3nc(-c4c([H])c([H])c(Oc5c([H])c([H])c(F)c([H])c5F)c([H])c4[H])c(C(=O)N([H])[H])c3N([H])[H])C2([H])[H])c1[H]

>  <smiles>  (36) 
[H]C(Oc1c([H])c([H])c2c(c1[H])C([H])([H])N(C(=O)C([H])(N([H])C(=O)C([H])(N([H])C([H])([H])[H])C([H])([H])[H])C(C([H])([H])[H])(C([H])([H])[H])C([H])([H])[H])C([H])(C(=O)N([H])C1([H])c3c([H])c([H])c([H])c([H])c3C([H])([H])C([H])([H])C1([H])[H])C2([H])[H])=C([H])C(=O)N([H])c1c([H])c([H])c([H])c(N([H])C(=O)N2C([H])([H])C([H])([H])C([H])([H])C([H])(n3nc(-c4c([H])c([H])c(Oc5c([H])c([H])c(F)c([H])c5F)c([H])c4[H])c(C(=O)N([H])[H])c3N([H])[H])C2([H])[H])c1[H]

$$$$
36:0:0
     RDKit          3D

 96105  0  0  1  0  0  0  0  0999 V2000
  -28.7820  -22.3690   20.0820 C   0  0  0  0  0  3  0  0  0  0  0  0
  -28.8320  -23.6610   20.5990 C   0  0  0  0  0  0  0  0  0  0  0  0
  -29.6030  -23.7840   21.8430 C   0  0  0  0  0  0  0  0  0  0  0  0
  -29.6280  -24.9150   22.5730 C   0  0  0  0  0  2  0  0  0  0  0  0
  -30.4270  -22.5910   22.3320 C   0  0  0  0  0  2  0  0  0  0  0  0
  -29.7870  -21.2190   22.0310 C   0  0  0  0  0  2  0  0  0  0  0  0
  -29.3020  -21.1430   20.6530 N   0  0  0  0  0  0  0  0  0  0  0  0
  -29.6900  -19.7950   18.6330 C   0  0  0  0  0  3  0  0  0  0  0  0
  -29.5890  -18.5350   20.7070 C   0  0  0  0  0  3  0  0  0  0  0  0
  -30.0440  -17.3560   18.6310 C   0  0  0  0  0  3  0  0  0  0  0  0
  -29.5060  -19.8340   20.0330 C   0  0  0  0  0  0  0  0  0  0  0  0
  -29.9470  -18.5880   17.9420 C   0  0  0  0  0  0  0  0  0  0  0  0
  -29.8700  -17.2710   20.0330 C   0  0  0  0  0  0  0  0  0  0  0  0
  -30.6170  -14.7870   20.3780 C   0  0  0  0  0  0  0  0  0  0  0  0
  -30.4370  -12.4950   19.4130 C   0  0  0  0  0  2  0  0  0  0  0  0
  -29.5180  -12.5690   18.1730 C   0  0  0  0  0  2  0  0  0  0  0  0
  -28.0410  -12.4030   18.5810 C   0  0  0  0  0  2  0  0  0  0  0  0
  -27.6570  -13.2870   19.7990 C   0  0  0  0  0  3  0  0  0  0  0  0
  -28.7000  -13.2040   20.9330 C   0  0  0  0  0  2  0  0  0  0  0  0
  -30.0060  -13.5530   20.3560 N   0  0  0  0  0  0  0  0  0  0  0  0
  -31.7940  -14.8890   20.0180 O   0  0  0  0  0  0  0  0  0  0  0  0
  -29.8610  -15.9180   20.6710 N   0  0  0  0  0  0  0  0  0  0  0  0
  -29.0300  -15.7220   21.2080 H   0  0  0  0  0  0  0  0  0  0  0  0
  -25.2560  -13.8690   20.4820 C   0  0  0  0  0  0  0  0  0  0  0  0
  -24.1880  -13.0920   20.8380 C   0  0  0  0  0  0  0  0  0  0  0  0
  -24.6600  -11.7410   20.8320 C   0  0  0  0  0  0  0  0  0  0  0  0
  -26.3080  -12.9950   20.2700 N   0  0  0  0  0  0  0  0  0  0  0  0
  -25.9560  -11.7100   20.5460 N   0  0  0  0  0  0  0  0  0  0  0  0
  -23.9360  -10.4770   21.0230 C   0  0  0  0  0  0  0  0  0  0  0  0
  -24.3620   -9.5190   21.9690 C   0  0  0  0  0  3  0  0  0  0  0  0
  -23.6390   -8.3210   22.1500 C   0  0  0  0  0  3  0  0  0  0  0  0
  -22.4750   -8.0730   21.3830 C   0  0  0  0  0  0  0  0  0  0  0  0
  -22.0690   -9.0190   20.4260 C   0  0  0  0  0  3  0  0  0  0  0  0
  -22.7940  -10.2090   20.2440 C   0  0  0  0  0  3  0  0  0  0  0  0
  -21.7280   -6.9240   21.4690 O   0  0  0  0  0  0  0  0  0  0  0  0
  -21.6710   -6.1870   22.6240 C   0  0  0  0  0  0  0  0  0  0  0  0
  -21.2310   -6.7480   23.8440 C   0  0  0  0  0  3  0  0  0  0  0  0
  -21.1200   -5.9380   24.9920 C   0  0  0  0  0  3  0  0  0  0  0  0
  -21.4400   -4.5700   24.9230 C   0  0  0  0  0  0  0  0  0  0  0  0
  -21.8720   -4.0080   23.7080 C   0  0  0  0  0  3  0  0  0  0  0  0
  -21.9830   -4.8150   22.5620 C   0  0  0  0  0  0  0  0  0  0  0  0
  -22.3790   -4.2640   21.3890 F   0  0  0  0  0  0  0  0  0  0  0  0
  -21.3250   -3.7890   26.0230 F   0  0  0  0  0  0  0  0  0  0  0  0
  -22.7840  -13.5650   21.0790 C   0  0  0  0  0  0  0  0  0  0  0  0
  -22.0420  -12.8700   21.9350 N   0  0  0  0  0  0  0  0  0  0  0  0
  -22.3500  -14.5830   20.5460 O   0  0  0  0  0  0  0  0  0  0  0  0
  -22.4040  -12.0440   22.3880 H   0  0  0  0  0  0  0  0  0  0  0  0
  -21.0980  -13.1690   22.1380 H   0  0  0  0  0  0  0  0  0  0  0  0
  -25.4110  -15.2400   20.2910 N   0  0  0  0  0  0  0  0  0  0  0  0
  -24.6340  -15.8870   20.3850 H   0  0  0  0  0  0  0  0  0  0  0  0
  -26.2550  -15.6830   19.9520 H   0  0  0  0  0  0  0  0  0  0  0  0
  -30.1030  -18.6150   16.5540 N   0  0  0  0  0  0  0  0  0  0  0  0
  -29.8210  -19.4450   16.0380 H   0  0  0  0  0  0  0  0  0  0  0  0
  -29.9660  -17.7600   16.0220 H   0  0  0  0  0  0  0  0  0  0  0  0
  -28.0310  -24.8810   19.9250 C   0  0  0  0  0  2  0  0  0  0  0  0
  -28.2660  -26.3500   20.2220 O   0  0  0  0  0  0  0  0  0  0  0  0
  -24.6010  -31.8730   23.2340 C   0  0  0  0  0  0  0  0  0  0  0  0
  -27.1770  -27.2630   20.1510 C   0  0  0  0  0  0  0  0  0  0  0  0
  -23.3860  -30.4830   21.6010 C   0  0  0  0  0  3  0  0  0  0  0  0
  -24.8260  -28.9330   20.1560 C   0  0  0  0  0  0  0  0  0  0  0  0
  -25.9310  -30.7790   21.4080 C   0  0  0  0  0  2  0  0  0  0  0  0
  -26.0050  -29.3990   20.7540 C   0  0  0  0  0  0  0  0  0  0  0  0
  -27.1800  -28.5760   20.7450 C   0  0  0  0  0  3  0  0  0  0  0  0
  -25.9760  -26.8850   19.5040 C   0  0  0  0  0  3  0  0  0  0  0  0
  -24.8170  -27.6840   19.5230 C   0  0  0  0  0  3  0  0  0  0  0  0
  -23.5930  -29.8150   20.2180 C   0  0  0  0  0  2  0  0  0  0  0  0
  -24.6600  -31.0620   22.1360 N   0  0  0  0  0  0  0  0  0  0  0  0
  -23.5190  -32.1540   23.7710 O   0  0  0  0  0  0  0  0  0  0  0  0
  -22.7250  -29.4640   22.5620 C   0  0  0  0  0  0  0  0  0  0  0  0
  -21.3980  -29.2830   22.4380 N   0  0  0  0  0  0  0  0  0  0  0  0
  -23.4020  -28.8410   23.3820 O   0  0  0  0  0  0  0  0  0  0  0  0
  -20.9090  -29.8390   21.7510 H   0  0  0  0  0  0  0  0  0  0  0  0
  -18.0270  -28.0690   22.9420 C   0  0  0  0  0  0  0  0  0  0  0  0
  -20.5830  -28.3450   23.2120 C   0  0  0  0  0  3  0  0  0  0  0  0
  -20.6940  -26.9120   22.6420 C   0  0  0  0  0  2  0  0  0  0  0  0
  -19.5950  -26.5800   21.6290 C   0  0  0  0  0  2  0  0  0  0  0  0
  -18.2120  -26.7180   22.2700 C   0  0  0  0  0  2  0  0  0  0  0  0
  -19.1400  -28.8400   23.3690 C   0  0  0  0  0  0  0  0  0  0  0  0
  -18.9130  -30.1040   23.9570 C   0  0  0  0  0  3  0  0  0  0  0  0
  -17.6050  -30.5960   24.1230 C   0  0  0  0  0  3  0  0  0  0  0  0
  -16.5050  -29.8230   23.7100 C   0  0  0  0  0  3  0  0  0  0  0  0
  -16.7180  -28.5600   23.1260 C   0  0  0  0  0  3  0  0  0  0  0  0
  -25.8840  -32.5060   23.8500 C   0  0  0  0  0  3  0  0  0  0  0  0
  -26.4030  -31.7370   25.1270 C   0  0  1  0  0  0  0  0  0  0  0  0
  -25.3120  -31.5000   26.1970 C   0  0  0  0  0  1  0  0  0  0  0  0
  -26.9840  -30.3580   24.7390 C   0  0  0  0  0  1  0  0  0  0  0  0
  -27.5600  -32.5290   25.7810 C   0  0  0  0  0  1  0  0  0  0  0  0
  -25.5770  -33.9070   24.1800 N   0  0  0  0  0  0  0  0  0  0  0  0
  -25.9110  -34.9590   23.4230 C   0  0  0  0  0  0  0  0  0  0  0  0
  -26.5780  -34.8540   22.3900 O   0  0  0  0  0  0  0  0  0  0  0  0
  -24.9820  -34.0630   24.9800 H   0  0  0  0  0  0  0  0  0  0  0  0
  -24.1910  -36.7610   23.0740 C   0  0  0  0  0  1  0  0  0  0  0  0
  -25.4300  -36.3500   23.8830 C   0  0  0  0  0  3  0  0  0  0  0  0
  -27.5680  -37.2230   24.7170 C   0  0  0  0  0  1  0  0  0  0  0  0
  -26.4670  -37.3990   23.7730 N   0  0  0  0  0  0  0  0  0  0  0  0
  -26.0650  -38.3200   23.9260 H   0  0  0  0  0  0  0  0  0  0  0  0
  1  2  2  0
  1  7  1  0
  2  3  1  0
  3  5  1  0
  3  4  2  0
  6  5  1  0
  7  6  1  0
  8 11  1  0
 10 13  2  0
 11  7  1  0
 11  9  2  0
 12 10  1  0
 12  8  2  0
 13 22  1  0
 13  9  1  0
 14 22  1  0
 15 20  1  0
 16 17  1  0
 16 15  1  0
 18 17  1  0
 18 27  1  0
 18 19  1  0
 20 14  1  0
 20 19  1  0
 21 14  2  0
 22 23  1  0
 24 25  2  0
 25 44  1  0
 26 25  1  0
 26 29  1  0
 27 24  1  0
 27 28  1  0
 28 26  2  0
 29 30  1  0
 30 31  2  0
 32 35  1  0
 32 31  1  0
 33 32  2  0
 34 33  1  0
 34 29  2  0
 35 36  1  0
 36 37  1  0
 37 38  2  0
 39 38  1  0
 39 43  1  0
 40 39  2  0
 41 36  2  0
 41 40  1  0
 42 41  1  0
 44 45  1  0
 45 48  1  0
 45 47  1  0
 46 44  2  0
 49 50  1  0
 49 24  1  0
 51 49  1  0
 52 12  1  0
 53 52  1  0
 54 52  1  0
 55 56  1  0
 55  2  1  0
 57 68  2  0
 58 56  1  0
 58 63  1  0
 59 67  1  0
 59 69  1  0
 60 66  1  0
 60 62  1  0
 61 67  1  0
 62 61  1  0
 63 62  2  0
 64 65  1  0
 64 58  2  0
 65 60  2  0
 66 59  1  0
 67 57  1  0
 69 71  2  0
 70 69  1  0
 72 70  1  0
 73 82  2  0
 73 78  1  0
 74 70  1  0
 74 78  1  0
 75 74  1  0
 76 77  1  0
 76 75  1  0
 77 73  1  0
 78 79  2  0
 79 80  1  0
 81 80  2  0
 82 81  1  0
 83 57  1  0
 83 88  1  0
 83 84  1  0
 84 87  1  1
 84 85  1  0
 86 84  1  0
 88 91  1  0
 89 93  1  0
 89 88  1  0
 90 89  2  0
 93 92  1  0
 95 93  1  0
 95 96  1  0
 95 94  1  0
M  ISO  4  14 100  22 100  55 101  56 101
M  END
>  <TORSDO>  (37) 
F 19

>  <SCORE>  (37) 
-14.808

>  <name>  (37) 
36

>  <ligand_id>  (37) 
36

>  <original_smiles>  (37) 
[H]C([H])=C1C(C([H])([H])Oc2c([H])c([H])c3c(c2[H])C([H])([H])N(C(=O)C([H])(N([H])C(=O)C([H])(N([H])C([H])([H])[H])C([H])([H])[H])C(C([H])([H])[H])(C([H])([H])[H])C([H])([H])[H])C([H])(C(=O)N([H])C2([H])c4c([H])c([H])c([H])c([H])c4C([H])([H])C([H])([H])C2([H])[H])C3([H])[H])=C([H])N(c2c([H])c(N([H])[H])c([H])c(N([H])C(=O)N3C([H])([H])C([H])([H])C([H])([H])C([H])(n4nc(-c5c([H])c([H])c(Oc6c([H])c([H])c(F)c([H])c6F)c([H])c5[H])c(C(=O)N([H])[H])c4N([H])[H])C3([H])[H])c2[H])C([H])([H])C1([H])[H]

>  <smiles>  (37) 
[H]C([H])=C1C(C([H])([H])Oc2c([H])c([H])c3c(c2[H])C([H])([H])N(C(=O)C([H])(N([H])C(=O)C([H])(N([H])C([H])([H])[H])C([H])([H])[H])C(C([H])([H])[H])(C([H])([H])[H])C([H])([H])[H])C([H])(C(=O)N([H])C2([H])c4c([H])c([H])c([H])c([H])c4C([H])([H])C([H])([H])C2([H])[H])C3([H])[H])=C([H])N(c2c([H])c(N([H])[H])c([H])c(N([H])C(=O)N3C([H])([H])C([H])([H])C([H])([H])C([H])(n4nc(-c5c([H])c([H])c(Oc6c([H])c([H])c(F)c([H])c6F)c([H])c5[H])c(C(=O)N([H])[H])c4N([H])[H])C3([H])[H])c2[H])C([H])([H])C1([H])[H]

$$$$
37:0:0
     RDKit          3D

 94103  0  0  1  0  0  0  0  0999 V2000
  -28.7360  -24.0210   20.1710 C   0  0  0  0  0  0  0  0  0  0  0  0
  -28.9390  -23.8100   21.5820 C   0  0  0  0  0  0  0  0  0  0  0  0
  -28.9270  -22.6490   19.5630 C   0  0  0  0  0  0  0  0  0  0  0  0
  -28.8380  -24.7320   22.5570 C   0  0  0  0  0  1  0  0  0  0  0  0
  -28.4470  -25.2250   19.5220 C   0  0  0  0  0  3  0  0  0  0  0  0
  -29.2700  -22.3620   21.8430 C   0  0  0  0  0  2  0  0  0  0  0  0
  -28.3430  -25.3350   18.0070 C   0  0  0  0  0  1  0  0  0  0  0  0
  -29.2460  -21.6990   20.5280 N   0  0  0  0  0  0  0  0  0  0  0  0
  -28.8210  -22.3700   18.3650 O   0  0  0  0  0  0  0  0  0  0  0  0
  -29.5630  -19.3920   19.2730 C   0  0  0  0  0  3  0  0  0  0  0  0
  -29.8260  -19.4960   21.6310 C   0  0  0  0  0  3  0  0  0  0  0  0
  -29.8580  -17.9710   19.3060 C   0  0  0  0  0  3  0  0  0  0  0  0
  -30.1060  -18.1000   21.6640 C   0  0  0  0  0  3  0  0  0  0  0  0
  -29.5320  -20.2240   20.4430 C   0  0  0  0  0  0  0  0  0  0  0  0
  -30.1430  -17.2530   20.5130 C   0  0  0  0  0  0  0  0  0  0  0  0
  -30.8080  -14.8350   19.7220 C   0  0  0  0  0  0  0  0  0  0  0  0
  -30.4280  -12.6250   18.5820 C   0  0  0  0  0  2  0  0  0  0  0  0
  -29.3100  -12.7330   17.5220 C   0  0  0  0  0  2  0  0  0  0  0  0
  -27.9280  -12.5080   18.1620 C   0  0  0  0  0  2  0  0  0  0  0  0
  -27.7390  -13.3420   19.4540 C   0  0  0  0  0  3  0  0  0  0  0  0
  -28.9500  -13.2080   20.3960 C   0  0  0  0  0  2  0  0  0  0  0  0
  -30.1560  -13.6150   19.6540 N   0  0  0  0  0  0  0  0  0  0  0  0
  -31.7790  -15.0500   18.9890 O   0  0  0  0  0  0  0  0  0  0  0  0
  -30.7250  -15.3280   22.0390 C   0  0  0  0  0  1  0  0  0  0  0  0
  -30.4090  -15.7770   20.6670 N   0  0  0  0  0  0  0  0  0  0  0  0
  -25.5300  -13.8800   20.6460 C   0  0  0  0  0  0  0  0  0  0  0  0
  -24.5190  -13.0820   21.1100 C   0  0  0  0  0  0  0  0  0  0  0  0
  -24.9280  -11.7380   20.8520 C   0  0  0  0  0  0  0  0  0  0  0  0
  -26.4880  -13.0200   20.1340 N   0  0  0  0  0  0  0  0  0  0  0  0
  -26.1430  -11.7190   20.3180 N   0  0  0  0  0  0  0  0  0  0  0  0
  -24.2050  -10.4700   21.0290 C   0  0  0  0  0  0  0  0  0  0  0  0
  -24.6940   -9.4530   21.8780 C   0  0  0  0  0  3  0  0  0  0  0  0
  -23.9720   -8.2520   22.0450 C   0  0  0  0  0  3  0  0  0  0  0  0
  -22.7460   -8.0600   21.3650 C   0  0  0  0  0  0  0  0  0  0  0  0
  -22.2750   -9.0670   20.5030 C   0  0  0  0  0  3  0  0  0  0  0  0
  -22.9970  -10.2600   20.3330 C   0  0  0  0  0  3  0  0  0  0  0  0
  -21.9880   -6.9170   21.4460 O   0  0  0  0  0  0  0  0  0  0  0  0
  -21.9120   -6.1850   22.6040 C   0  0  0  0  0  0  0  0  0  0  0  0
  -21.4520   -6.7500   23.8140 C   0  0  0  0  0  3  0  0  0  0  0  0
  -21.3230   -5.9440   24.9620 C   0  0  0  0  0  3  0  0  0  0  0  0
  -21.6460   -4.5750   24.9030 C   0  0  0  0  0  0  0  0  0  0  0  0
  -22.1000   -4.0100   23.6980 C   0  0  0  0  0  3  0  0  0  0  0  0
  -22.2300   -4.8130   22.5510 C   0  0  0  0  0  0  0  0  0  0  0  0
  -22.6480   -4.2600   21.3870 F   0  0  0  0  0  0  0  0  0  0  0  0
  -21.5160   -3.7980   26.0040 F   0  0  0  0  0  0  0  0  0  0  0  0
  -23.2060  -13.5440   21.6720 C   0  0  0  0  0  0  0  0  0  0  0  0
  -22.6380  -12.7830   22.6020 N   0  0  0  0  0  0  0  0  0  0  0  0
  -22.7000  -14.6080   21.3250 O   0  0  0  0  0  0  0  0  0  0  0  0
  -23.0630  -11.9190   22.9020 H   0  0  0  0  0  0  0  0  0  0  0  0
  -21.7640  -13.0700   23.0210 H   0  0  0  0  0  0  0  0  0  0  0  0
  -25.7080  -15.2590   20.5950 N   0  0  0  0  0  0  0  0  0  0  0  0
  -25.0010  -15.9110   20.9200 H   0  0  0  0  0  0  0  0  0  0  0  0
  -26.5210  -15.7190   20.2040 H   0  0  0  0  0  0  0  0  0  0  0  0
  -28.3880  -26.5180   20.1270 O   0  0  0  0  0  0  0  0  0  0  0  0
  -24.7500  -31.9310   23.2820 C   0  0  0  0  0  0  0  0  0  0  0  0
  -27.2640  -27.3770   20.0900 C   0  0  0  0  0  0  0  0  0  0  0  0
  -23.4980  -30.5580   21.6580 C   0  0  0  0  0  3  0  0  0  0  0  0
  -24.9030  -29.0180   20.1720 C   0  0  0  0  0  0  0  0  0  0  0  0
  -26.0360  -30.8630   21.4100 C   0  0  0  0  0  2  0  0  0  0  0  0
  -26.0910  -29.4910   20.7410 C   0  0  0  0  0  0  0  0  0  0  0  0
  -27.2700  -28.6820   20.6900 C   0  0  0  0  0  3  0  0  0  0  0  0
  -26.0420  -26.9570   19.5180 C   0  0  0  0  0  3  0  0  0  0  0  0
  -24.8810  -27.7580   19.5510 C   0  0  0  0  0  3  0  0  0  0  0  0
  -23.6730  -29.8990   20.2650 C   0  0  0  0  0  2  0  0  0  0  0  0
  -24.7830  -31.1350   22.1730 N   0  0  0  0  0  0  0  0  0  0  0  0
  -23.6830  -32.2060   23.8490 O   0  0  0  0  0  0  0  0  0  0  0  0
  -22.8560  -29.5340   22.6230 C   0  0  0  0  0  0  0  0  0  0  0  0
  -21.5350  -29.3240   22.4950 N   0  0  0  0  0  0  0  0  0  0  0  0
  -23.5470  -28.9300   23.4490 O   0  0  0  0  0  0  0  0  0  0  0  0
  -21.0350  -29.8640   21.8020 H   0  0  0  0  0  0  0  0  0  0  0  0
  -18.1950  -28.0130   22.9590 C   0  0  0  0  0  0  0  0  0  0  0  0
  -20.7360  -28.3720   23.2690 C   0  0  0  0  0  3  0  0  0  0  0  0
  -20.9020  -26.9350   22.7240 C   0  0  0  0  0  2  0  0  0  0  0  0
  -19.8310  -26.5520   21.6960 C   0  0  0  0  0  2  0  0  0  0  0  0
  -18.4330  -26.6580   22.3130 C   0  0  0  0  0  2  0  0  0  0  0  0
  -19.2760  -28.8240   23.3940 C   0  0  0  0  0  0  0  0  0  0  0  0
  -19.0010  -30.0890   23.9570 C   0  0  0  0  0  3  0  0  0  0  0  0
  -17.6740  -30.5440   24.0900 C   0  0  0  0  0  3  0  0  0  0  0  0
  -16.6080  -29.7310   23.6710 C   0  0  0  0  0  3  0  0  0  0  0  0
  -16.8680  -28.4680   23.1110 C   0  0  0  0  0  3  0  0  0  0  0  0
  -26.0510  -32.5520   23.8790 C   0  0  0  0  0  3  0  0  0  0  0  0
  -25.7590  -33.9510   24.2240 N   0  0  0  0  0  0  0  0  0  0  0  0
  -26.0570  -35.0060   23.4530 C   0  0  0  0  0  0  0  0  0  0  0  0
  -26.6770  -34.9030   22.3910 O   0  0  0  0  0  0  0  0  0  0  0  0
  -25.2030  -34.1050   25.0530 H   0  0  0  0  0  0  0  0  0  0  0  0
  -24.3130  -36.8000   23.1900 C   0  0  0  0  0  1  0  0  0  0  0  0
  -25.5950  -36.3950   23.9360 C   0  0  0  0  0  3  0  0  0  0  0  0
  -27.7690  -37.2820   24.6560 C   0  0  0  0  0  1  0  0  0  0  0  0
  -26.6200  -37.4480   23.7690 N   0  0  0  0  0  0  0  0  0  0  0  0
  -26.2210  -38.3680   23.9350 H   0  0  0  0  0  0  0  0  0  0  0  0
  -26.5900  -31.7710   25.1400 C   0  0  1  0  0  0  0  0  0  0  0  0
  -25.5180  -31.5330   26.2290 C   0  0  0  0  0  1  0  0  0  0  0  0
  -27.1570  -30.3920   24.7310 C   0  0  0  0  0  1  0  0  0  0  0  0
  -27.7580  -32.5560   25.7830 C   0  0  0  0  0  1  0  0  0  0  0  0
  1  2  2  0
  2  6  1  0
  2  4  1  0
  3  1  1  0
  3  8  1  0
  5  7  1  0
  5 54  1  0
  5  1  1  0
  8  6  1  0
  9  3  2  0
 10 12  2  0
 10 14  1  0
 11 13  1  0
 12 15  1  0
 14  8  1  0
 14 11  2  0
 15 25  1  0
 15 13  2  0
 16 25  1  0
 17 22  1  0
 18 19  1  0
 18 17  1  0
 20 19  1  0
 20 29  1  0
 20 21  1  0
 22 16  1  0
 22 21  1  0
 23 16  2  0
 25 24  1  0
 26 27  2  0
 27 46  1  0
 28 31  1  0
 28 27  1  0
 29 30  1  0
 29 26  1  0
 30 28  2  0
 31 32  1  0
 32 33  2  0
 34 37  1  0
 34 33  1  0
 35 34  2  0
 36 35  1  0
 36 31  2  0
 37 38  1  0
 38 39  1  0
 39 40  2  0
 41 40  1  0
 41 45  1  0
 42 41  2  0
 43 38  2  0
 43 42  1  0
 44 43  1  0
 46 47  1  0
 47 49  1  0
 47 50  1  0
 48 46  2  0
 51 26  1  0
 51 52  1  0
 53 51  1  0
 55 66  2  0
 56 54  1  0
 56 61  1  0
 57 65  1  0
 57 67  1  0
 58 64  1  0
 58 60  1  0
 59 65  1  0
 60 59  1  0
 61 60  2  0
 62 63  1  0
 62 56  2  0
 63 58  2  0
 64 57  1  0
 65 55  1  0
 67 69  2  0
 68 67  1  0
 70 68  1  0
 71 80  2  0
 71 76  1  0
 72 68  1  0
 72 76  1  0
 73 72  1  0
 74 75  1  0
 74 73  1  0
 75 71  1  0
 76 77  2  0
 77 78  1  0
 79 78  2  0
 80 79  1  0
 81 55  1  0
 81 82  1  0
 81 91  1  0
 82 85  1  0
 83 87  1  0
 83 82  1  0
 84 83  2  0
 87 86  1  0
 89 90  1  0
 89 87  1  0
 89 88  1  0
 91 94  1  1
 91 92  1  0
 93 91  1  0
M  ISO  4   5 101  16 100  25 100  54 101
M  END
>  <TORSDO>  (38) 
F 17

>  <SCORE>  (38) 
-13.197

>  <name>  (38) 
37

>  <ligand_id>  (38) 
37

>  <original_smiles>  (38) 
[H]C([H])=C1C(=C(Oc2c([H])c([H])c3c(c2[H])C([H])([H])N(C(=O)C([H])(N([H])C(=O)C([H])(N([H])C([H])([H])[H])C([H])([H])[H])C(C([H])([H])[H])(C([H])([H])[H])C([H])([H])[H])C([H])(C(=O)N([H])C2([H])c4c([H])c([H])c([H])c([H])c4C([H])([H])C([H])([H])C2([H])[H])C3([H])[H])C([H])([H])[H])C(=O)N(c2c([H])c([H])c(N(C(=O)N3C([H])([H])C([H])([H])C([H])([H])C([H])(n4nc(-c5c([H])c([H])c(Oc6c([H])c([H])c(F)c([H])c6F)c([H])c5[H])c(C(=O)N([H])[H])c4N([H])[H])C3([H])[H])C([H])([H])[H])c([H])c2[H])C1([H])[H]

>  <smiles>  (38) 
[H]C([H])=C1C(=C(Oc2c([H])c([H])c3c(c2[H])C([H])([H])N(C(=O)C([H])(N([H])C(=O)C([H])(N([H])C([H])([H])[H])C([H])([H])[H])C(C([H])([H])[H])(C([H])([H])[H])C([H])([H])[H])C([H])(C(=O)N([H])C2([H])c4c([H])c([H])c([H])c([H])c4C([H])([H])C([H])([H])C2([H])[H])C3([H])[H])C([H])([H])[H])C(=O)N(c2c([H])c([H])c(N(C(=O)N3C([H])([H])C([H])([H])C([H])([H])C([H])(n4nc(-c5c([H])c([H])c(Oc6c([H])c([H])c(F)c([H])c6F)c([H])c5[H])c(C(=O)N([H])[H])c4N([H])[H])C3([H])[H])C([H])([H])[H])c([H])c2[H])C1([H])[H]

$$$$
38:0:0
     RDKit          3D

 97106  0  0  1  0  0  0  0  0999 V2000
  -30.8990  -19.2230   19.2600 C   0  0  0  0  0  3  0  0  0  0  0  0
  -30.3470  -20.5220   19.2310 C   0  0  0  0  0  3  0  0  0  0  0  0
  -28.3490  -19.6730   20.2290 C   0  0  0  0  0  3  0  0  0  0  0  0
  -30.2010  -18.1120   19.7910 C   0  0  0  0  0  0  0  0  0  0  0  0
  -29.0670  -20.8090   19.7560 C   0  0  0  0  0  0  0  0  0  0  0  0
  -28.8780  -18.3500   20.2570 C   0  0  0  0  0  0  0  0  0  0  0  0
  -31.0010  -14.4240   19.6660 C   0  0  0  0  0  0  0  0  0  0  0  0
  -30.5390  -12.1800   18.7490 C   0  0  0  0  0  2  0  0  0  0  0  0
  -29.5180  -12.2870   17.6030 C   0  0  0  0  0  2  0  0  0  0  0  0
  -28.0870  -12.1900   18.1600 C   0  0  0  0  0  2  0  0  0  0  0  0
  -27.8460  -13.1330   19.3710 C   0  0  0  0  0  3  0  0  0  0  0  0
  -28.9930  -13.0550   20.4040 C   0  0  0  0  0  2  0  0  0  0  0  0
  -30.2540  -13.2820   19.6870 N   0  0  0  0  0  0  0  0  0  0  0  0
  -32.1370  -14.4000   19.1880 O   0  0  0  0  0  0  0  0  0  0  0  0
  -30.9970  -16.8220   19.9660 C   0  0  0  0  0  0  0  0  0  0  0  0
  -30.3840  -15.6040   19.9600 N   0  0  0  0  0  0  0  0  0  0  0  0
  -32.2240  -16.9650   20.0650 O   0  0  0  0  0  0  0  0  0  0  0  0
  -29.3840  -15.5970   20.0760 H   0  0  0  0  0  0  0  0  0  0  0  0
  -25.5670  -13.8020   20.3490 C   0  0  0  0  0  0  0  0  0  0  0  0
  -24.5090  -13.0610   20.7980 C   0  0  0  0  0  0  0  0  0  0  0  0
  -24.9050  -11.6920   20.6780 C   0  0  0  0  0  0  0  0  0  0  0  0
  -26.5430  -12.8890   19.9850 N   0  0  0  0  0  0  0  0  0  0  0  0
  -26.1560  -11.6130   20.2430 N   0  0  0  0  0  0  0  0  0  0  0  0
  -24.1450  -10.4560   20.8990 C   0  0  0  0  0  0  0  0  0  0  0  0
  -24.5870   -9.4680   21.8070 C   0  0  0  0  0  3  0  0  0  0  0  0
  -23.8270   -8.2970   22.0160 C   0  0  0  0  0  3  0  0  0  0  0  0
  -22.6110   -8.1040   21.3190 C   0  0  0  0  0  0  0  0  0  0  0  0
  -22.1870   -9.0800   20.3990 C   0  0  0  0  0  3  0  0  0  0  0  0
  -22.9470  -10.2420   20.1870 C   0  0  0  0  0  3  0  0  0  0  0  0
  -21.8210   -6.9870   21.4390 O   0  0  0  0  0  0  0  0  0  0  0  0
  -21.7670   -6.2660   22.6050 C   0  0  0  0  0  0  0  0  0  0  0  0
  -21.3190   -6.8390   23.8150 C   0  0  0  0  0  3  0  0  0  0  0  0
  -21.2130   -6.0430   24.9730 C   0  0  0  0  0  3  0  0  0  0  0  0
  -21.5440   -4.6770   24.9220 C   0  0  0  0  0  0  0  0  0  0  0  0
  -21.9850   -4.1030   23.7170 C   0  0  0  0  0  3  0  0  0  0  0  0
  -22.0930   -4.8950   22.5610 C   0  0  0  0  0  0  0  0  0  0  0  0
  -22.4980   -4.3330   21.3960 F   0  0  0  0  0  0  0  0  0  0  0  0
  -21.4350   -3.9100   26.0330 F   0  0  0  0  0  0  0  0  0  0  0  0
  -23.1680  -13.5850   21.2220 C   0  0  0  0  0  0  0  0  0  0  0  0
  -22.5050  -12.8990   22.1460 N   0  0  0  0  0  0  0  0  0  0  0  0
  -22.7210  -14.6390   20.7710 O   0  0  0  0  0  0  0  0  0  0  0  0
  -22.8810  -12.0450   22.5330 H   0  0  0  0  0  0  0  0  0  0  0  0
  -21.6100  -13.2310   22.4730 H   0  0  0  0  0  0  0  0  0  0  0  0
  -25.7740  -15.1700   20.2000 N   0  0  0  0  0  0  0  0  0  0  0  0
  -25.0620  -15.8530   20.4360 H   0  0  0  0  0  0  0  0  0  0  0  0
  -26.6270  -15.5960   19.8620 H   0  0  0  0  0  0  0  0  0  0  0  0
  -28.3790  -24.0500   20.4490 C   0  0  0  0  0  0  0  0  0  0  0  0
  -28.8390  -23.4010   19.2440 C   0  0  0  0  0  0  0  0  0  0  0  0
  -28.1710  -25.3390   20.8340 C   0  0  0  0  0  0  0  0  0  0  0  0
  -28.2480  -22.7060   21.1440 C   0  0  0  0  0  2  0  0  0  0  0  0
  -27.7270  -25.6860   22.2490 C   0  0  0  0  0  1  0  0  0  0  0  0
  -28.5420  -22.1480   19.8170 N   0  0  0  0  0  0  0  0  0  0  0  0
  -29.3950  -23.8240   18.2510 O   0  0  0  0  0  0  0  0  0  0  0  0
  -28.3240  -26.4540   20.0200 O   0  0  0  0  0  0  0  0  0  0  0  0
  -24.6130  -31.7340   23.0720 C   0  0  0  0  0  0  0  0  0  0  0  0
  -27.2290  -27.2950   19.9560 C   0  0  0  0  0  0  0  0  0  0  0  0
  -23.4130  -30.3780   21.3870 C   0  0  0  0  0  3  0  0  0  0  0  0
  -24.8660  -28.8510   19.9490 C   0  0  0  0  0  0  0  0  0  0  0  0
  -25.9460  -30.7070   21.2300 C   0  0  0  0  0  2  0  0  0  0  0  0
  -26.0260  -29.3470   20.5610 C   0  0  0  0  0  0  0  0  0  0  0  0
  -27.2160  -28.5800   20.5560 C   0  0  0  0  0  3  0  0  0  0  0  0
  -26.0600  -26.8230   19.3300 C   0  0  0  0  0  3  0  0  0  0  0  0
  -24.8810  -27.5910   19.3250 C   0  0  0  0  0  3  0  0  0  0  0  0
  -23.6310  -29.7240   19.9980 C   0  0  0  0  0  2  0  0  0  0  0  0
  -24.6750  -30.9530   21.9560 N   0  0  0  0  0  0  0  0  0  0  0  0
  -23.5280  -32.0100   23.6010 O   0  0  0  0  0  0  0  0  0  0  0  0
  -22.7340  -29.3490   22.3200 C   0  0  0  0  0  0  0  0  0  0  0  0
  -21.4010  -29.2210   22.2050 N   0  0  0  0  0  0  0  0  0  0  0  0
  -23.4020  -28.6710   23.1050 O   0  0  0  0  0  0  0  0  0  0  0  0
  -20.9250  -29.8200   21.5440 H   0  0  0  0  0  0  0  0  0  0  0  0
  -17.9810  -28.2070   22.7800 C   0  0  0  0  0  0  0  0  0  0  0  0
  -20.5590  -28.2880   22.9510 C   0  0  0  0  0  3  0  0  0  0  0  0
  -20.5450  -26.8930   22.2840 C   0  0  0  0  0  2  0  0  0  0  0  0
  -19.3830  -26.7060   21.3020 C   0  0  0  0  0  2  0  0  0  0  0  0
  -18.0410  -26.8950   22.0160 C   0  0  0  0  0  2  0  0  0  0  0  0
  -19.1630  -28.8690   23.2060 C   0  0  0  0  0  0  0  0  0  0  0  0
  -19.0510  -30.1030   23.8820 C   0  0  0  0  0  3  0  0  0  0  0  0
  -17.7890  -30.6720   24.1360 C   0  0  0  0  0  3  0  0  0  0  0  0
  -16.6220  -30.0050   23.7260 C   0  0  0  0  0  3  0  0  0  0  0  0
  -16.7190  -28.7740   23.0540 C   0  0  0  0  0  3  0  0  0  0  0  0
  -25.8970  -32.3370   23.7210 C   0  0  0  0  0  3  0  0  0  0  0  0
  -25.5960  -33.7260   24.0930 N   0  0  0  0  0  0  0  0  0  0  0  0
  -25.9330  -34.7980   23.3640 C   0  0  0  0  0  0  0  0  0  0  0  0
  -26.6010  -34.7210   22.3290 O   0  0  0  0  0  0  0  0  0  0  0  0
  -25.0040  -33.8590   24.8990 H   0  0  0  0  0  0  0  0  0  0  0  0
  -24.2100  -36.6060   23.0650 C   0  0  0  0  0  1  0  0  0  0  0  0
  -25.4520  -36.1750   23.8620 C   0  0  0  0  0  3  0  0  0  0  0  0
  -27.5810  -37.0390   24.7260 C   0  0  0  0  0  1  0  0  0  0  0  0
  -26.4880  -37.2270   23.7750 N   0  0  0  0  0  0  0  0  0  0  0  0
  -26.0840  -38.1450   23.9340 H   0  0  0  0  0  0  0  0  0  0  0  0
  -26.4020  -31.5210   24.9730 C   0  0  1  0  0  0  0  0  0  0  0  0
  -25.2980  -31.2380   26.0190 C   0  0  0  0  0  1  0  0  0  0  0  0
  -26.9960  -30.1610   24.5350 C   0  0  0  0  0  1  0  0  0  0  0  0
  -27.5420  -32.2940   25.6790 C   0  0  0  0  0  1  0  0  0  0  0  0
  -28.0680  -17.3400   20.7910 N   0  0  0  0  0  0  0  0  0  0  0  0
  -27.2060  -17.6120   21.2530 H   0  0  0  0  0  0  0  0  0  0  0  0
  -28.4930  -16.5340   21.2360 H   0  0  0  0  0  0  0  0  0  0  0  0
  1  4  1  0
  2  1  2  0
  2  5  1  0
  3  6  1  0
  4 15  1  0
  4  6  2  0
  5 52  1  0
  5  3  2  0
  6 95  1  0
  7 13  1  0
  7 16  1  0
  8 13  1  0
  9 10  1  0
  9  8  1  0
 11 10  1  0
 11 22  1  0
 11 12  1  0
 13 12  1  0
 14  7  2  0
 15 17  2  0
 16 15  1  0
 16 18  1  0
 19 20  2  0
 20 39  1  0
 21 20  1  0
 21 24  1  0
 22 23  1  0
 22 19  1  0
 23 21  2  0
 24 25  1  0
 25 26  2  0
 27 30  1  0
 27 26  1  0
 28 27  2  0
 29 28  1  0
 29 24  2  0
 30 31  1  0
 31 32  1  0
 32 33  2  0
 34 33  1  0
 34 38  1  0
 35 34  2  0
 36 31  2  0
 36 35  1  0
 37 36  1  0
 39 40  1  0
 40 43  1  0
 40 42  1  0
 41 39  2  0
 44 19  1  0
 44 45  1  0
 46 44  1  0
 47 49  2  0
 47 50  1  0
 48 52  1  0
 48 47  1  0
 49 51  1  0
 52 50  1  0
 53 48  2  0
 54 49  1  0
 55 66  2  0
 56 54  1  0
 56 61  1  0
 57 65  1  0
 57 67  1  0
 58 64  1  0
 58 60  1  0
 59 65  1  0
 60 59  1  0
 61 60  2  0
 62 56  2  0
 63 62  1  0
 63 58  2  0
 64 57  1  0
 65 55  1  0
 67 69  2  0
 68 67  1  0
 70 68  1  0
 71 80  2  0
 71 76  1  0
 72 68  1  0
 72 76  1  0
 73 72  1  0
 74 75  1  0
 74 73  1  0
 75 71  1  0
 76 77  2  0
 77 78  1  0
 79 78  2  0
 80 79  1  0
 81 55  1  0
 81 82  1  0
 81 91  1  0
 82 85  1  0
 83 87  1  0
 83 82  1  0
 84 83  2  0
 87 86  1  0
 89 87  1  0
 89 90  1  0
 89 88  1  0
 91 94  1  1
 91 92  1  0
 93 91  1  0
 95 97  1  0
 95 96  1  0
M  ISO  4   7 100  16 100  49 101  54 101
M  END
>  <TORSDO>  (39) 
F 18

>  <SCORE>  (39) 
-14.656

>  <name>  (39) 
38

>  <ligand_id>  (39) 
38

>  <original_smiles>  (39) 
[H]c1c([H])c([H])c2c(c1[H])C([H])([H])C([H])([H])C([H])([H])C2([H])N([H])C(=O)C1([H])N(C(=O)C([H])(N([H])C(=O)C([H])(N([H])C([H])([H])[H])C([H])([H])[H])C(C([H])([H])[H])(C([H])([H])[H])C([H])([H])[H])C([H])([H])c2c([H])c(OC(=C3C(=O)N(c4c([H])c([H])c(C(=O)N([H])C(=O)N5C([H])([H])C([H])([H])C([H])([H])C([H])(n6nc(-c7c([H])c([H])c(Oc8c([H])c([H])c(F)c([H])c8F)c([H])c7[H])c(C(=O)N([H])[H])c6N([H])[H])C5([H])[H])c(N([H])[H])c4[H])C3([H])[H])C([H])([H])[H])c([H])c([H])c2C1([H])[H]

>  <smiles>  (39) 
[H]c1c([H])c([H])c2c(c1[H])C([H])([H])C([H])([H])C([H])([H])C2([H])N([H])C(=O)C1([H])N(C(=O)C([H])(N([H])C(=O)C([H])(N([H])C([H])([H])[H])C([H])([H])[H])C(C([H])([H])[H])(C([H])([H])[H])C([H])([H])[H])C([H])([H])c2c([H])c(OC(=C3C(=O)N(c4c([H])c([H])c(C(=O)N([H])C(=O)N5C([H])([H])C([H])([H])C([H])([H])C([H])(n6nc(-c7c([H])c([H])c(Oc8c([H])c([H])c(F)c([H])c8F)c([H])c7[H])c(C(=O)N([H])[H])c6N([H])[H])C5([H])[H])c(N([H])[H])c4[H])C3([H])[H])C([H])([H])[H])c([H])c([H])c2C1([H])[H]

$$$$
39:0:0
     RDKit          3D

 97106  0  0  1  0  0  0  0  0999 V2000
  -29.2230  -22.8950   20.5630 C   0  0  0  0  0  0  0  0  0  0  0  0
  -32.8020  -22.5630   21.1640 C   0  0  0  0  0  2  0  0  0  0  0  0
  -32.3910  -21.1840   21.6090 C   0  0  0  0  0  2  0  0  0  0  0  0
  -31.7020  -22.9330   20.1870 C   0  0  0  0  0  2  0  0  0  0  0  0
  -30.8440  -21.1650   21.6060 C   0  0  1  0  0  0  0  0  0  0  0  0
  -30.3660  -21.5530   23.0350 C   0  0  0  0  0  1  0  0  0  0  0  0
  -30.4600  -22.2880   20.6610 N   0  0  0  0  0  0  0  0  0  0  0  0
  -28.2130  -22.3700   21.0390 O   0  0  0  0  0  0  0  0  0  0  0  0
  -30.8520  -18.6760   22.2290 C   0  0  0  0  0  3  0  0  0  0  0  0
  -29.9410  -19.2170   20.0580 C   0  0  0  0  0  3  0  0  0  0  0  0
  -30.6870  -17.2960   21.9780 C   0  0  0  0  0  3  0  0  0  0  0  0
  -29.7780  -17.8230   19.8000 C   0  0  0  0  0  3  0  0  0  0  0  0
  -30.4830  -19.6750   21.2880 C   0  0  0  0  0  0  0  0  0  0  0  0
  -30.1630  -16.8430   20.7540 C   0  0  0  0  0  0  0  0  0  0  0  0
  -30.6240  -14.4430   20.0700 C   0  0  0  0  0  0  0  0  0  0  0  0
  -30.3070  -12.2550   18.9490 C   0  0  0  0  0  2  0  0  0  0  0  0
  -29.2990  -12.4390   17.7940 C   0  0  0  0  0  2  0  0  0  0  0  0
  -27.8460  -12.3120   18.2980 C   0  0  0  0  0  2  0  0  0  0  0  0
  -27.5780  -13.1600   19.5710 C   0  0  0  0  0  3  0  0  0  0  0  0
  -28.6860  -12.9260   20.6230 C   0  0  0  0  0  2  0  0  0  0  0  0
  -29.9780  -13.2430   19.9900 N   0  0  0  0  0  0  0  0  0  0  0  0
  -31.7370  -14.6330   19.5720 O   0  0  0  0  0  0  0  0  0  0  0  0
  -29.8770  -15.4450   20.5970 N   0  0  0  0  0  0  0  0  0  0  0  0
  -28.9920  -15.1390   20.9740 H   0  0  0  0  0  0  0  0  0  0  0  0
  -25.2380  -13.8120   20.4190 C   0  0  0  0  0  0  0  0  0  0  0  0
  -24.1720  -13.0590   20.8320 C   0  0  0  0  0  0  0  0  0  0  0  0
  -24.5980  -11.6980   20.7540 C   0  0  0  0  0  0  0  0  0  0  0  0
  -26.2470  -12.9100   20.1170 N   0  0  0  0  0  0  0  0  0  0  0  0
  -25.8680  -11.6320   20.3760 N   0  0  0  0  0  0  0  0  0  0  0  0
  -23.8510  -10.4500   20.9620 C   0  0  0  0  0  0  0  0  0  0  0  0
  -24.2820   -9.4790   21.8930 C   0  0  0  0  0  3  0  0  0  0  0  0
  -23.5380   -8.2950   22.0870 C   0  0  0  0  0  3  0  0  0  0  0  0
  -22.3510   -8.0740   21.3500 C   0  0  0  0  0  0  0  0  0  0  0  0
  -21.9400   -9.0330   20.4080 C   0  0  0  0  0  3  0  0  0  0  0  0
  -22.6840  -10.2080   20.2120 C   0  0  0  0  0  3  0  0  0  0  0  0
  -21.5780   -6.9430   21.4540 O   0  0  0  0  0  0  0  0  0  0  0  0
  -21.5170   -6.2180   22.6170 C   0  0  0  0  0  0  0  0  0  0  0  0
  -21.0720   -6.7880   23.8290 C   0  0  0  0  0  3  0  0  0  0  0  0
  -20.9590   -5.9880   24.9840 C   0  0  0  0  0  3  0  0  0  0  0  0
  -21.2810   -4.6200   24.9270 C   0  0  0  0  0  0  0  0  0  0  0  0
  -21.7200   -4.0480   23.7200 C   0  0  0  0  0  3  0  0  0  0  0  0
  -21.8340   -4.8440   22.5670 C   0  0  0  0  0  0  0  0  0  0  0  0
  -22.2370   -4.2850   21.4020 F   0  0  0  0  0  0  0  0  0  0  0  0
  -21.1650   -3.8490   26.0350 F   0  0  0  0  0  0  0  0  0  0  0  0
  -22.8040  -13.5650   21.1880 C   0  0  0  0  0  0  0  0  0  0  0  0
  -22.1040  -12.8660   22.0760 N   0  0  0  0  0  0  0  0  0  0  0  0
  -22.3660  -14.6130   20.7150 O   0  0  0  0  0  0  0  0  0  0  0  0
  -22.4710  -12.0180   22.4800 H   0  0  0  0  0  0  0  0  0  0  0  0
  -21.1870  -13.1850   22.3550 H   0  0  0  0  0  0  0  0  0  0  0  0
  -25.4280  -15.1820   20.2550 N   0  0  0  0  0  0  0  0  0  0  0  0
  -24.6830  -15.8510   20.4160 H   0  0  0  0  0  0  0  0  0  0  0  0
  -26.2660  -15.6050   19.8790 H   0  0  0  0  0  0  0  0  0  0  0  0
  -28.5520  -25.2840   20.5110 C   0  0  0  0  0  3  0  0  0  0  0  0
  -29.1590  -24.2280   19.9060 C   0  0  0  0  0  0  0  0  0  0  0  0
  -29.6900  -24.4090   18.6860 O   0  0  0  0  0  0  0  0  0  0  0  0
  -29.5340  -25.3150   18.4530 H   0  0  0  0  0  0  0  0  0  0  0  0
  -28.5360  -26.5700   19.9860 O   0  0  0  0  0  0  0  0  0  0  0  0
  -24.6970  -31.7190   23.1910 C   0  0  0  0  0  0  0  0  0  0  0  0
  -27.3670  -27.3080   20.0560 C   0  0  0  0  0  0  0  0  0  0  0  0
  -23.4920  -30.3060   21.5580 C   0  0  0  0  0  3  0  0  0  0  0  0
  -24.9510  -28.7960   20.1060 C   0  0  0  0  0  0  0  0  0  0  0  0
  -26.0100  -30.7020   21.3270 C   0  0  0  0  0  2  0  0  0  0  0  0
  -26.1110  -29.3310   20.6800 C   0  0  0  0  0  0  0  0  0  0  0  0
  -27.3250  -28.5970   20.6490 C   0  0  0  0  0  3  0  0  0  0  0  0
  -26.1890  -26.7940   19.4780 C   0  0  0  0  0  3  0  0  0  0  0  0
  -24.9860  -27.5270   19.5010 C   0  0  0  0  0  3  0  0  0  0  0  0
  -23.6940  -29.6370   20.1730 C   0  0  0  0  0  2  0  0  0  0  0  0
  -24.7520  -30.9250   22.0830 N   0  0  0  0  0  0  0  0  0  0  0  0
  -23.6190  -31.9690   23.7480 O   0  0  0  0  0  0  0  0  0  0  0  0
  -22.8700  -29.2700   22.5230 C   0  0  0  0  0  0  0  0  0  0  0  0
  -21.5580  -29.0240   22.3770 N   0  0  0  0  0  0  0  0  0  0  0  0
  -23.5670  -28.6890   23.3590 O   0  0  0  0  0  0  0  0  0  0  0  0
  -21.0530  -29.5470   21.6740 H   0  0  0  0  0  0  0  0  0  0  0  0
  -18.2580  -27.6000   22.7630 C   0  0  0  0  0  0  0  0  0  0  0  0
  -20.7730  -28.0580   23.1460 C   0  0  0  0  0  3  0  0  0  0  0  0
  -21.0090  -26.6180   22.6360 C   0  0  0  0  0  2  0  0  0  0  0  0
  -19.9860  -26.1760   21.5840 C   0  0  0  0  0  2  0  0  0  0  0  0
  -18.5670  -26.2420   22.1540 C   0  0  0  0  0  2  0  0  0  0  0  0
  -19.2950  -28.4580   23.2150 C   0  0  0  0  0  0  0  0  0  0  0  0
  -18.9550  -29.7240   23.7400 C   0  0  0  0  0  3  0  0  0  0  0  0
  -17.6100  -30.1340   23.8210 C   0  0  0  0  0  3  0  0  0  0  0  0
  -16.5880  -29.2730   23.3880 C   0  0  0  0  0  3  0  0  0  0  0  0
  -16.9120  -28.0080   22.8640 C   0  0  0  0  0  3  0  0  0  0  0  0
  -25.9800  -32.3690   23.7960 C   0  0  0  0  0  3  0  0  0  0  0  0
  -26.5350  -31.5960   25.0540 C   0  0  1  0  0  0  0  0  0  0  0  0
  -25.4650  -31.3200   26.1360 C   0  0  0  0  0  1  0  0  0  0  0  0
  -27.1450  -30.2380   24.6350 C   0  0  0  0  0  1  0  0  0  0  0  0
  -27.6770  -32.4100   25.7080 C   0  0  0  0  0  1  0  0  0  0  0  0
  -25.6510  -33.7580   24.1440 N   0  0  0  0  0  0  0  0  0  0  0  0
  -25.9640  -34.8250   23.3960 C   0  0  0  0  0  0  0  0  0  0  0  0
  -26.6320  -34.7430   22.3600 O   0  0  0  0  0  0  0  0  0  0  0  0
  -25.0580  -33.8950   24.9490 H   0  0  0  0  0  0  0  0  0  0  0  0
  -24.2050  -36.5930   23.0710 C   0  0  0  0  0  1  0  0  0  0  0  0
  -25.4570  -36.2000   23.8710 C   0  0  0  0  0  3  0  0  0  0  0  0
  -27.5770  -37.1130   24.7050 C   0  0  0  0  0  1  0  0  0  0  0  0
  -26.4710  -37.2710   23.7640 N   0  0  0  0  0  0  0  0  0  0  0  0
  -26.0500  -38.1820   23.9200 H   0  0  0  0  0  0  0  0  0  0  0  0
  1  7  1  0
  1  8  2  0
  2  3  1  0
  4  7  1  0
  4  2  1  0
  5  3  1  0
  5  6  1  1
  7  5  1  0
 10 13  1  0
 11  9  1  0
 12 10  2  0
 12 14  1  0
 13  5  1  0
 13  9  2  0
 14 11  2  0
 15 23  1  0
 16 21  1  0
 17 18  1  0
 17 16  1  0
 19 18  1  0
 19 28  1  0
 19 20  1  0
 21 15  1  0
 21 20  1  0
 22 15  2  0
 23 14  1  0
 23 24  1  0
 25 26  2  0
 26 45  1  0
 27 26  1  0
 27 30  1  0
 28 29  1  0
 28 25  1  0
 29 27  2  0
 30 31  1  0
 31 32  2  0
 33 36  1  0
 33 32  1  0
 34 33  2  0
 35 34  1  0
 35 30  2  0
 36 37  1  0
 37 38  1  0
 38 39  2  0
 40 39  1  0
 40 44  1  0
 41 40  2  0
 42 37  2  0
 42 41  1  0
 43 42  1  0
 45 46  1  0
 46 49  1  0
 46 48  1  0
 47 45  2  0
 50 51  1  0
 50 25  1  0
 52 50  1  0
 54 53  2  0
 54  1  1  0
 55 54  1  0
 56 55  1  0
 57 59  1  0
 57 53  1  0
 58 69  2  0
 59 64  1  0
 60 68  1  0
 60 70  1  0
 61 67  1  0
 61 63  1  0
 62 68  1  0
 63 62  1  0
 64 63  2  0
 65 66  1  0
 65 59  2  0
 66 61  2  0
 67 60  1  0
 68 58  1  0
 70 72  2  0
 71 70  1  0
 73 71  1  0
 74 83  2  0
 74 79  1  0
 75 71  1  0
 75 79  1  0
 76 75  1  0
 77 78  1  0
 77 76  1  0
 78 74  1  0
 79 80  2  0
 80 81  1  0
 82 81  2  0
 83 82  1  0
 84 58  1  0
 84 89  1  0
 84 85  1  0
 85 88  1  1
 85 86  1  0
 87 85  1  0
 89 92  1  0
 90 94  1  0
 90 89  1  0
 91 90  2  0
 94 93  1  0
 96 94  1  0
 96 97  1  0
 96 95  1  0
M  ISO  4  15 100  23 100  53 101  57 101
M  END
>  <TORSDO>  (40) 
F 19

>  <SCORE>  (40) 
-13.779

>  <name>  (40) 
39

>  <ligand_id>  (40) 
39

>  <original_smiles>  (40) 
[H]OC(C(=O)N1C([H])([H])C([H])([H])C([H])([H])C1(c1c([H])c([H])c(N([H])C(=O)N2C([H])([H])C([H])([H])C([H])([H])C([H])(n3nc(-c4c([H])c([H])c(Oc5c([H])c([H])c(F)c([H])c5F)c([H])c4[H])c(C(=O)N([H])[H])c3N([H])[H])C2([H])[H])c([H])c1[H])C([H])([H])[H])=C([H])Oc1c([H])c([H])c2c(c1[H])C([H])([H])N(C(=O)C([H])(N([H])C(=O)C([H])(N([H])C([H])([H])[H])C([H])([H])[H])C(C([H])([H])[H])(C([H])([H])[H])C([H])([H])[H])C([H])(C(=O)N([H])C1([H])c3c([H])c([H])c([H])c([H])c3C([H])([H])C([H])([H])C1([H])[H])C2([H])[H]

>  <smiles>  (40) 
[H]OC(C(=O)N1C([H])([H])C([H])([H])C([H])([H])C1(c1c([H])c([H])c(N([H])C(=O)N2C([H])([H])C([H])([H])C([H])([H])C([H])(n3nc(-c4c([H])c([H])c(Oc5c([H])c([H])c(F)c([H])c5F)c([H])c4[H])c(C(=O)N([H])[H])c3N([H])[H])C2([H])[H])c([H])c1[H])C([H])([H])[H])=C([H])Oc1c([H])c([H])c2c(c1[H])C([H])([H])N(C(=O)C([H])(N([H])C(=O)C([H])(N([H])C([H])([H])[H])C([H])([H])[H])C(C([H])([H])[H])(C([H])([H])[H])C([H])([H])[H])C([H])(C(=O)N([H])C1([H])c3c([H])c([H])c([H])c([H])c3C([H])([H])C([H])([H])C1([H])[H])C2([H])[H]

$$$$
40:0:0
     RDKit          3D

 94103  0  0  1  0  0  0  0  0999 V2000
  -27.6230  -19.3770   21.2720 C   0  0  0  0  0  3  0  0  0  0  0  0
  -28.5280  -18.4090   20.7620 C   0  0  0  0  0  3  0  0  0  0  0  0
  -27.4950  -20.6650   20.6920 C   0  0  0  0  0  3  0  0  0  0  0  0
  -29.1520  -20.0500   19.0920 C   0  0  0  0  0  3  0  0  0  0  0  0
  -29.2920  -18.6760   19.6180 C   0  0  0  0  0  0  0  0  0  0  0  0
  -28.2970  -21.1340   19.5980 C   0  0  0  0  0  0  0  0  0  0  0  0
  -27.6870  -23.8170   19.7090 C   0  0  0  0  0  0  0  0  0  0  0  0
  -28.1610  -23.1020   17.7910 C   0  0  0  0  0  2  0  0  0  0  0  0
  -27.3510  -24.4410   18.2230 C   0  0  1  0  0  0  0  0  0  0  0  0
  -25.7680  -24.3830   18.2520 C   0  0  0  0  0  1  0  0  0  0  0  0
  -28.1310  -22.5870   19.1540 N   0  0  0  0  0  0  0  0  0  0  0  0
  -27.3980  -24.0220   20.8540 O   0  0  0  0  0  0  0  0  0  0  0  0
  -27.9100  -25.8730   17.7790 O   0  0  0  0  0  0  0  0  0  0  0  0
  -24.8740  -30.7270   22.2190 C   0  0  0  0  0  0  0  0  0  0  0  0
  -27.1090  -27.0520   17.8460 C   0  0  0  0  0  0  0  0  0  0  0  0
  -23.5800  -29.7720   20.3510 C   0  0  0  0  0  3  0  0  0  0  0  0
  -24.9190  -28.7800   18.3940 C   0  0  0  0  0  0  0  0  0  0  0  0
  -26.0910  -30.1220   20.1000 C   0  0  0  0  0  2  0  0  0  0  0  0
  -26.1160  -28.9830   19.0960 C   0  0  0  0  0  0  0  0  0  0  0  0
  -27.2300  -28.1020   18.8460 C   0  0  0  0  0  3  0  0  0  0  0  0
  -25.9960  -27.1310   16.9790 C   0  0  0  0  0  3  0  0  0  0  0  0
  -24.8950  -27.9280   17.2890 C   0  0  0  0  0  3  0  0  0  0  0  0
  -23.6840  -29.5650   18.8060 C   0  0  0  0  0  2  0  0  0  0  0  0
  -24.8720  -30.2280   20.9460 N   0  0  0  0  0  0  0  0  0  0  0  0
  -23.8400  -30.8140   22.8920 O   0  0  0  0  0  0  0  0  0  0  0  0
  -23.0190  -28.5070   21.0530 C   0  0  0  0  0  0  0  0  0  0  0  0
  -21.6760  -28.3220   21.0040 N   0  0  0  0  0  0  0  0  0  0  0  0
  -23.7750  -27.7060   21.6060 O   0  0  0  0  0  0  0  0  0  0  0  0
  -21.1190  -28.9870   20.4810 H   0  0  0  0  0  0  0  0  0  0  0  0
  -18.3430  -26.9390   21.4530 C   0  0  0  0  0  0  0  0  0  0  0  0
  -20.9000  -27.1740   21.5040 C   0  0  0  0  0  3  0  0  0  0  0  0
  -20.9270  -26.0260   20.4790 C   0  0  0  0  0  2  0  0  0  0  0  0
  -19.7270  -26.0010   19.5470 C   0  0  0  0  0  2  0  0  0  0  0  0
  -18.4500  -25.8750   20.3800 C   0  0  0  0  0  2  0  0  0  0  0  0
  -19.5080  -27.5790   21.9670 C   0  0  0  0  0  0  0  0  0  0  0  0
  -19.3830  -28.6130   22.9130 C   0  0  0  0  0  3  0  0  0  0  0  0
  -18.1070  -29.0140   23.3480 C   0  0  0  0  0  3  0  0  0  0  0  0
  -16.9660  -28.3670   22.8480 C   0  0  0  0  0  3  0  0  0  0  0  0
  -17.0740  -27.3170   21.9230 C   0  0  0  0  0  3  0  0  0  0  0  0
  -26.1830  -31.2090   22.9150 C   0  0  0  0  0  3  0  0  0  0  0  0
  -25.8640  -32.4000   23.7120 N   0  0  0  0  0  0  0  0  0  0  0  0
  -26.1350  -33.6720   23.3590 C   0  0  0  0  0  0  0  0  0  0  0  0
  -26.7420  -33.9770   22.3250 O   0  0  0  0  0  0  0  0  0  0  0  0
  -25.3150  -32.2390   24.5450 H   0  0  0  0  0  0  0  0  0  0  0  0
  -24.3420  -35.4180   23.7450 C   0  0  0  0  0  1  0  0  0  0  0  0
  -25.6440  -34.8020   24.2960 C   0  0  0  0  0  3  0  0  0  0  0  0
  -27.8020  -35.4270   25.2920 C   0  0  0  0  0  1  0  0  0  0  0  0
  -26.6490  -35.8740   24.5110 N   0  0  0  0  0  0  0  0  0  0  0  0
  -26.2340  -36.6670   24.9980 H   0  0  0  0  0  0  0  0  0  0  0  0
  -26.8730  -30.1200   23.8200 C   0  0  1  0  0  0  0  0  0  0  0  0
  -25.9240  -29.4740   24.8520 C   0  0  0  0  0  1  0  0  0  0  0  0
  -27.4550  -28.9890   22.9470 C   0  0  0  0  0  1  0  0  0  0  0  0
  -28.0750  -30.7380   24.5870 C   0  0  0  0  0  1  0  0  0  0  0  0
  -31.3970  -18.0770   18.2980 C   0  0  0  0  0  1  0  0  0  0  0  0
  -29.1240  -17.1240   17.7620 C   0  0  0  0  0  1  0  0  0  0  0  0
  -30.1030  -17.4740   18.8960 C   0  0  2  0  0  0  0  0  0  0  0  0
  -31.3180  -15.0180   19.2130 C   0  0  0  0  0  0  0  0  0  0  0  0
  -31.2320  -12.6170   18.4550 C   0  0  0  0  0  2  0  0  0  0  0  0
  -30.1360  -12.4120   17.3940 C   0  0  0  0  0  2  0  0  0  0  0  0
  -28.7570  -12.2510   18.0530 C   0  0  0  0  0  2  0  0  0  0  0  0
  -28.4790  -13.3380   19.1140 C   0  0  0  0  0  3  0  0  0  0  0  0
  -29.6410  -13.3780   20.1160 C   0  0  0  0  0  2  0  0  0  0  0  0
  -30.8230  -13.7390   19.3320 N   0  0  0  0  0  0  0  0  0  0  0  0
  -32.4030  -15.1640   18.6240 O   0  0  0  0  0  0  0  0  0  0  0  0
  -30.4460  -16.0800   19.5390 N   0  0  0  0  0  0  0  0  0  0  0  0
  -29.6880  -15.7280   20.1120 H   0  0  0  0  0  0  0  0  0  0  0  0
  -26.3170  -14.0950   20.2700 C   0  0  0  0  0  0  0  0  0  0  0  0
  -25.2560  -13.3820   20.7630 C   0  0  0  0  0  0  0  0  0  0  0  0
  -25.5670  -12.0100   20.5330 C   0  0  0  0  0  0  0  0  0  0  0  0
  -27.2050  -13.1500   19.7870 N   0  0  0  0  0  0  0  0  0  0  0  0
  -26.7670  -11.8860   19.9950 N   0  0  0  0  0  0  0  0  0  0  0  0
  -24.7570  -10.8060   20.7220 C   0  0  0  0  0  0  0  0  0  0  0  0
  -25.1410   -9.7970   21.6300 C   0  0  0  0  0  3  0  0  0  0  0  0
  -24.3330   -8.6540   21.8060 C   0  0  0  0  0  3  0  0  0  0  0  0
  -23.1290   -8.5190   21.0780 C   0  0  0  0  0  0  0  0  0  0  0  0
  -22.7650   -9.5170   20.1570 C   0  0  0  0  0  3  0  0  0  0  0  0
  -23.5720  -10.6530   19.9780 C   0  0  0  0  0  3  0  0  0  0  0  0
  -22.2920   -7.4320   21.1710 O   0  0  0  0  0  0  0  0  0  0  0  0
  -22.0790   -6.7910   22.3640 C   0  0  0  0  0  0  0  0  0  0  0  0
  -21.5240   -7.4570   23.4780 C   0  0  0  0  0  3  0  0  0  0  0  0
  -21.2580   -6.7440   24.6620 C   0  0  0  0  0  3  0  0  0  0  0  0
  -21.5330   -5.3640   24.7320 C   0  0  0  0  0  0  0  0  0  0  0  0
  -22.0860   -4.7010   23.6230 C   0  0  0  0  0  3  0  0  0  0  0  0
  -22.3540   -5.4110   22.4410 C   0  0  0  0  0  0  0  0  0  0  0  0
  -22.8650   -4.7610   21.3660 F   0  0  0  0  0  0  0  0  0  0  0  0
  -21.2700   -4.6770   25.8670 F   0  0  0  0  0  0  0  0  0  0  0  0
  -23.9880  -13.9620   21.3170 C   0  0  0  0  0  0  0  0  0  0  0  0
  -23.3430  -13.2470   22.2370 N   0  0  0  0  0  0  0  0  0  0  0  0
  -23.5740  -15.0660   20.9710 O   0  0  0  0  0  0  0  0  0  0  0  0
  -23.6940  -12.3520   22.5440 H   0  0  0  0  0  0  0  0  0  0  0  0
  -22.4980  -13.6080   22.6560 H   0  0  0  0  0  0  0  0  0  0  0  0
  -26.5920  -15.4480   20.1890 N   0  0  0  0  0  0  0  0  0  0  0  0
  -25.8620  -16.1250   20.3820 H   0  0  0  0  0  0  0  0  0  0  0  0
  -27.3210  -15.8160   19.5880 H   0  0  0  0  0  0  0  0  0  0  0  0
  2  1  1  0
  3  1  2  0
  4  6  2  0
  4  5  1  0
  5  2  2  0
  6  3  1  0
  7 12  2  0
  8  9  1  0
  8 11  1  0
  9 10  1  6
  9  7  1  0
 11  6  1  0
 11  7  1  0
 13 15  1  0
 13  9  1  0
 14 25  2  0
 15 20  1  0
 16 24  1  0
 16 26  1  0
 17 23  1  0
 17 19  1  0
 18 24  1  0
 19 18  1  0
 20 19  2  0
 21 22  1  0
 21 15  2  0
 22 17  2  0
 23 16  1  0
 24 14  1  0
 26 28  2  0
 27 26  1  0
 29 27  1  0
 30 39  2  0
 30 35  1  0
 31 27  1  0
 31 35  1  0
 32 31  1  0
 33 34  1  0
 33 32  1  0
 34 30  1  0
 35 36  2  0
 36 37  1  0
 38 37  2  0
 39 38  1  0
 40 14  1  0
 40 41  1  0
 40 50  1  0
 41 44  1  0
 42 41  1  0
 42 46  1  0
 43 42  2  0
 46 45  1  0
 46 48  1  0
 48 49  1  0
 48 47  1  0
 50 53  1  1
 50 51  1  0
 52 50  1  0
 56 54  1  6
 55 56  1  0
 56 65  1  0
 56  5  1  0
 57 63  1  0
 57 65  1  0
 58 63  1  0
 59 60  1  0
 59 58  1  0
 61 60  1  0
 61 70  1  0
 61 62  1  0
 63 62  1  0
 64 57  2  0
 65 66  1  0
 67 68  2  0
 68 87  1  0
 69 72  1  0
 69 68  1  0
 70 71  1  0
 70 67  1  0
 71 69  2  0
 72 73  1  0
 73 74  2  0
 75 78  1  0
 75 74  1  0
 76 75  2  0
 77 76  1  0
 77 72  2  0
 78 79  1  0
 79 84  2  0
 79 80  1  0
 80 81  2  0
 81 82  1  0
 82 86  1  0
 83 82  2  0
 84 83  1  0
 85 84  1  0
 87 88  1  0
 88 90  1  0
 88 91  1  0
 89 87  2  0
 92 67  1  0
 92 93  1  0
 94 92  1  0
M  ISO  4   9 101  13 101  57 100  65 100
M  END
>  <TORSDO>  (41) 
F 18

>  <SCORE>  (41) 
-6.542

>  <name>  (41) 
40

>  <ligand_id>  (41) 
40

>  <original_smiles>  (41) 
[H]c1c([H])c([H])c2c(c1[H])C([H])([H])C([H])([H])C([H])([H])C2([H])N([H])C(=O)C1([H])N(C(=O)C([H])(N([H])C(=O)C([H])(N([H])C([H])([H])[H])C([H])([H])[H])C(C([H])([H])[H])(C([H])([H])[H])C([H])([H])[H])C([H])([H])c2c([H])c(OC3(C([H])([H])[H])C(=O)N(c4c([H])c([H])c([H])c(C(N([H])C(=O)N5C([H])([H])C([H])([H])C([H])([H])C([H])(n6nc(-c7c([H])c([H])c(Oc8c([H])c([H])c(F)c([H])c8F)c([H])c7[H])c(C(=O)N([H])[H])c6N([H])[H])C5([H])[H])(C([H])([H])[H])C([H])([H])[H])c4[H])C3([H])[H])c([H])c([H])c2C1([H])[H]

>  <smiles>  (41) 
[H]c1c([H])c([H])c2c(c1[H])C([H])([H])C([H])([H])C([H])([H])C2([H])N([H])C(=O)C1([H])N(C(=O)C([H])(N([H])C(=O)C([H])(N([H])C([H])([H])[H])C([H])([H])[H])C(C([H])([H])[H])(C([H])([H])[H])C([H])([H])[H])C([H])([H])c2c([H])c(OC3(C([H])([H])[H])C(=O)N(c4c([H])c([H])c([H])c(C(N([H])C(=O)N5C([H])([H])C([H])([H])C([H])([H])C([H])(n6nc(-c7c([H])c([H])c(Oc8c([H])c([H])c(F)c([H])c8F)c([H])c7[H])c(C(=O)N([H])[H])c6N([H])[H])C5([H])[H])(C([H])([H])[H])C([H])([H])[H])c4[H])C3([H])[H])c([H])c([H])c2C1([H])[H]

$$$$
41:0:0
     RDKit          3D

101109  0  0  1  0  0  0  0  0999 V2000
  -26.3960  -21.4120   20.7600 C   0  0  0  0  0  3  0  0  0  0  0  0
  -26.9810  -20.1350   20.8230 C   0  0  0  0  0  3  0  0  0  0  0  0
  -27.0290  -22.4420   20.0400 C   0  0  0  0  0  3  0  0  0  0  0  0
  -28.8140  -20.9010   19.4150 C   0  0  0  0  0  3  0  0  0  0  0  0
  -28.1970  -19.8650   20.1590 C   0  0  0  0  0  0  0  0  0  0  0  0
  -28.2520  -22.1960   19.3740 C   0  0  0  0  0  0  0  0  0  0  0  0
  -28.7940  -18.4850   20.2420 C   0  0  0  0  0  0  0  0  0  0  0  0
  -30.0770  -18.4190   20.6080 N   0  0  0  0  0  0  0  0  0  0  0  0
  -28.0950  -17.4850   20.0690 O   0  0  0  0  0  0  0  0  0  0  0  0
  -30.5640  -19.2940   20.7220 H   0  0  0  0  0  0  0  0  0  0  0  0
  -30.8110  -17.2140   20.9780 C   0  0  0  0  0  2  0  0  0  0  0  0
  -32.9710  -16.6700   19.8180 C   0  0  0  0  0  1  0  0  0  0  0  0
  -30.9130  -16.9680   18.3960 C   0  0  0  0  0  1  0  0  0  0  0  0
  -31.4430  -16.4700   19.7640 C   0  0  2  0  0  0  0  0  0  0  0  0
  -31.7970  -13.9320   19.6780 C   0  0  0  0  0  0  0  0  0  0  0  0
  -31.7200  -11.4700   19.8540 C   0  0  0  0  0  2  0  0  0  0  0  0
  -30.8170  -10.8580   18.7680 C   0  0  0  0  0  2  0  0  0  0  0  0
  -29.3460  -10.8370   19.2260 C   0  0  0  0  0  2  0  0  0  0  0  0
  -28.8740  -12.2050   19.7820 C   0  0  0  0  0  3  0  0  0  0  0  0
  -29.8860  -12.7400   20.8170 C   0  0  0  0  0  2  0  0  0  0  0  0
  -31.2120  -12.8110   20.1690 N   0  0  0  0  0  0  0  0  0  0  0  0
  -32.8410  -13.9240   19.0140 O   0  0  0  0  0  0  0  0  0  0  0  0
  -31.1390  -15.0530   19.9880 N   0  0  0  0  0  0  0  0  0  0  0  0
  -30.2850  -14.8890   20.4990 H   0  0  0  0  0  0  0  0  0  0  0  0
  -26.6760  -13.1360   20.7510 C   0  0  0  0  0  0  0  0  0  0  0  0
  -25.5160  -12.5210   21.1400 C   0  0  0  0  0  0  0  0  0  0  0  0
  -25.7280  -11.1210   20.9440 C   0  0  0  0  0  0  0  0  0  0  0  0
  -27.5280  -12.1200   20.3460 N   0  0  0  0  0  0  0  0  0  0  0  0
  -26.9630  -10.8970   20.5190 N   0  0  0  0  0  0  0  0  0  0  0  0
  -24.8060   -9.9870   21.0780 C   0  0  0  0  0  0  0  0  0  0  0  0
  -24.9560   -9.0300   22.1060 C   0  0  0  0  0  3  0  0  0  0  0  0
  -24.0450   -7.9580   22.2230 C   0  0  0  0  0  3  0  0  0  0  0  0
  -22.9710   -7.8350   21.3100 C   0  0  0  0  0  0  0  0  0  0  0  0
  -22.8410   -8.7780   20.2740 C   0  0  0  0  0  3  0  0  0  0  0  0
  -23.7510   -9.8410   20.1560 C   0  0  0  0  0  3  0  0  0  0  0  0
  -22.0550   -6.8120   21.3320 O   0  0  0  0  0  0  0  0  0  0  0  0
  -21.5620   -6.3130   22.5100 C   0  0  0  0  0  0  0  0  0  0  0  0
  -20.8470   -7.1200   23.4230 C   0  0  0  0  0  3  0  0  0  0  0  0
  -20.2990   -6.5500   24.5880 C   0  0  0  0  0  3  0  0  0  0  0  0
  -20.4520   -5.1740   24.8390 C   0  0  0  0  0  0  0  0  0  0  0  0
  -21.1560   -4.3660   23.9280 C   0  0  0  0  0  3  0  0  0  0  0  0
  -21.7070   -4.9340   22.7660 C   0  0  0  0  0  0  0  0  0  0  0  0
  -22.3670   -4.1480   21.8830 F   0  0  0  0  0  0  0  0  0  0  0  0
  -19.9180   -4.6220   25.9540 F   0  0  0  0  0  0  0  0  0  0  0  0
  -24.2490  -13.1940   21.5790 C   0  0  0  0  0  0  0  0  0  0  0  0
  -23.4810  -12.5480   22.4500 N   0  0  0  0  0  0  0  0  0  0  0  0
  -23.9540  -14.3230   21.1880 O   0  0  0  0  0  0  0  0  0  0  0  0
  -23.7330  -11.6310   22.7860 H   0  0  0  0  0  0  0  0  0  0  0  0
  -22.6300  -12.9770   22.7840 H   0  0  0  0  0  0  0  0  0  0  0  0
  -27.0690  -14.4680   20.6870 N   0  0  0  0  0  0  0  0  0  0  0  0
  -26.4750  -15.2260   21.0060 H   0  0  0  0  0  0  0  0  0  0  0  0
  -27.9890  -14.7790   20.3970 H   0  0  0  0  0  0  0  0  0  0  0  0
  -28.8400  -24.5300   18.7380 C   0  0  0  0  0  0  0  0  0  0  0  0
  -28.9090  -23.1920   18.5990 N   0  0  0  0  0  0  0  0  0  0  0  0
  -28.3990  -25.0630   19.7590 O   0  0  0  0  0  0  0  0  0  0  0  0
  -29.5300  -22.8540   17.8780 H   0  0  0  0  0  0  0  0  0  0  0  0
  -29.4650  -26.5940   17.5180 C   0  0  0  0  0  3  0  0  0  0  0  0
  -29.3560  -25.2470   17.5640 C   0  0  0  0  0  0  0  0  0  0  0  0
  -29.6980  -24.5490   16.4650 O   0  0  0  0  0  0  0  0  0  0  0  0
  -29.2990  -23.6900   16.5360 H   0  0  0  0  0  0  0  0  0  0  0  0
  -29.1800  -27.4570   18.5440 O   0  0  0  0  0  0  0  0  0  0  0  0
  -24.7580  -30.7540   22.9980 C   0  0  0  0  0  0  0  0  0  0  0  0
  -27.8890  -27.9000   18.7300 C   0  0  0  0  0  0  0  0  0  0  0  0
  -23.6850  -29.5780   21.1040 C   0  0  0  0  0  3  0  0  0  0  0  0
  -25.2560  -28.7840   19.2600 C   0  0  0  0  0  0  0  0  0  0  0  0
  -26.0590  -30.5040   20.8880 C   0  0  0  0  0  2  0  0  0  0  0  0
  -26.3420  -29.3840   19.9100 C   0  0  0  0  0  0  0  0  0  0  0  0
  -27.6580  -28.9440   19.6510 C   0  0  0  0  0  3  0  0  0  0  0  0
  -26.7830  -27.3040   18.0790 C   0  0  0  0  0  3  0  0  0  0  0  0
  -25.4700  -27.7370   18.3450 C   0  0  0  0  0  3  0  0  0  0  0  0
  -23.8800  -29.3130   19.5870 C   0  0  0  0  0  2  0  0  0  0  0  0
  -24.8550  -30.2830   21.7220 N   0  0  0  0  0  0  0  0  0  0  0  0
  -23.7060  -30.6480   23.6430 O   0  0  0  0  0  0  0  0  0  0  0  0
  -23.3430  -28.2410   21.7980 C   0  0  0  0  0  0  0  0  0  0  0  0
  -22.2620  -27.5900   21.3400 N   0  0  0  0  0  0  0  0  0  0  0  0
  -24.0580  -27.7970   22.7020 O   0  0  0  0  0  0  0  0  0  0  0  0
  -21.7140  -28.0250   20.6110 H   0  0  0  0  0  0  0  0  0  0  0  0
  -20.0250  -24.8640   20.5580 C   0  0  0  0  0  0  0  0  0  0  0  0
  -21.7840  -26.2870   21.8030 C   0  0  0  0  0  3  0  0  0  0  0  0
  -22.7920  -25.1670   21.4520 C   0  0  0  0  0  2  0  0  0  0  0  0
  -22.4830  -24.4560   20.1330 C   0  0  0  0  0  2  0  0  0  0  0  0
  -21.0790  -23.8490   20.1510 C   0  0  0  0  0  2  0  0  0  0  0  0
  -20.3570  -26.0140   21.3200 C   0  0  0  0  0  0  0  0  0  0  0  0
  -19.3420  -26.9430   21.6370 C   0  0  0  0  0  3  0  0  0  0  0  0
  -18.0180  -26.7390   21.2070 C   0  0  0  0  0  3  0  0  0  0  0  0
  -17.6930  -25.5900   20.4660 C   0  0  0  0  0  3  0  0  0  0  0  0
  -18.6920  -24.6540   20.1500 C   0  0  0  0  0  3  0  0  0  0  0  0
  -25.9560  -31.4710   23.6970 C   0  0  0  0  0  3  0  0  0  0  0  0
  -25.4800  -32.7850   24.1470 N   0  0  0  0  0  0  0  0  0  0  0  0
  -25.7060  -33.9350   23.4980 C   0  0  0  0  0  0  0  0  0  0  0  0
  -26.4050  -34.0070   22.4850 O   0  0  0  0  0  0  0  0  0  0  0  0
  -24.8500  -32.7930   24.9340 H   0  0  0  0  0  0  0  0  0  0  0  0
  -23.7850  -35.5390   23.2610 C   0  0  0  0  0  1  0  0  0  0  0  0
  -25.0510  -35.2080   24.0670 C   0  0  0  0  0  3  0  0  0  0  0  0
  -27.0470  -36.2530   25.0420 C   0  0  0  0  0  1  0  0  0  0  0  0
  -25.9540  -36.3790   24.0810 N   0  0  0  0  0  0  0  0  0  0  0  0
  -25.4390  -37.2270   24.2960 H   0  0  0  0  0  0  0  0  0  0  0  0
  -26.5550  -30.6480   24.9030 C   0  0  1  0  0  0  0  0  0  0  0  0
  -25.4930  -30.1850   25.9260 C   0  0  0  0  0  1  0  0  0  0  0  0
  -27.2960  -29.3890   24.3920 C   0  0  0  0  0  1  0  0  0  0  0  0
  -27.6030  -31.5040   25.6520 C   0  0  0  0  0  1  0  0  0  0  0  0
  1  2  1  0
  3  1  2  0
  4  5  1  0
  5  7  1  0
  5  2  2  0
  6  4  2  0
  6  3  1  0
  7  8  1  0
  8 10  1  0
  8 11  1  0
  9  7  2  0
 14 13  1  6
 14 12  1  0
 14 23  1  0
 14 11  1  0
 15 23  1  0
 15 21  1  0
 16 21  1  0
 17 18  1  0
 17 16  1  0
 19 18  1  0
 19 28  1  0
 19 20  1  0
 21 20  1  0
 22 15  2  0
 23 24  1  0
 25 26  2  0
 26 45  1  0
 27 30  1  0
 27 26  1  0
 28 29  1  0
 28 25  1  0
 29 27  2  0
 30 31  1  0
 31 32  2  0
 33 36  1  0
 33 32  1  0
 34 33  2  0
 35 34  1  0
 35 30  2  0
 36 37  1  0
 37 42  2  0
 37 38  1  0
 38 39  2  0
 39 40  1  0
 40 44  1  0
 41 40  2  0
 42 41  1  0
 43 42  1  0
 45 46  1  0
 46 49  1  0
 46 48  1  0
 47 45  2  0
 50 25  1  0
 50 51  1  0
 52 50  1  0
 53 55  2  0
 54 53  1  0
 54  6  1  0
 56 54  1  0
 57 58  2  0
 57 61  1  0
 58 53  1  0
 59 60  1  0
 59 58  1  0
 61 63  1  0
 62 73  2  0
 63 68  1  0
 64 72  1  0
 64 74  1  0
 65 71  1  0
 65 67  1  0
 66 72  1  0
 67 66  1  0
 68 67  2  0
 69 70  1  0
 69 63  2  0
 70 65  2  0
 71 64  1  0
 72 62  1  0
 74 76  2  0
 75 74  1  0
 77 75  1  0
 78 83  1  0
 79 75  1  0
 80 79  1  0
 81 82  1  0
 81 80  1  0
 82 78  1  0
 83 84  2  0
 83 79  1  0
 85 84  1  0
 86 85  2  0
 87 86  1  0
 87 78  2  0
 88 62  1  0
 88 89  1  0
 88 98  1  0
 89 92  1  0
 90 94  1  0
 90 89  1  0
 91 90  2  0
 94 93  1  0
 94 96  1  0
 96 97  1  0
 96 95  1  0
 98101  1  1
 98 99  1  0
100 98  1  0
M  ISO  4  15 100  23 100  57 101  61 101
M  END
>  <TORSDO>  (42) 
F 22

>  <SCORE>  (42) 
-4.233

>  <name>  (42) 
41

>  <ligand_id>  (42) 
41

>  <original_smiles>  (42) 
[H]OC(C(=O)N([H])c1c([H])c([H])c([H])c(C(=O)N([H])C([H])([H])C(N([H])C(=O)N2C([H])([H])C([H])([H])C([H])([H])C([H])(n3nc(-c4c([H])c([H])c(Oc5c([H])c([H])c(F)c([H])c5F)c([H])c4[H])c(C(=O)N([H])[H])c3N([H])[H])C2([H])[H])(C([H])([H])[H])C([H])([H])[H])c1[H])=C([H])Oc1c([H])c([H])c2c(c1[H])C([H])([H])N(C(=O)C([H])(N([H])C(=O)C([H])(N([H])C([H])([H])[H])C([H])([H])[H])C(C([H])([H])[H])(C([H])([H])[H])C([H])([H])[H])C([H])(C(=O)N([H])C1([H])c3c([H])c([H])c([H])c([H])c3C([H])([H])C([H])([H])C1([H])[H])C2([H])[H]

>  <smiles>  (42) 
[H]OC(C(=O)N([H])c1c([H])c([H])c([H])c(C(=O)N([H])C([H])([H])C(N([H])C(=O)N2C([H])([H])C([H])([H])C([H])([H])C([H])(n3nc(-c4c([H])c([H])c(Oc5c([H])c([H])c(F)c([H])c5F)c([H])c4[H])c(C(=O)N([H])[H])c3N([H])[H])C2([H])[H])(C([H])([H])[H])C([H])([H])[H])c1[H])=C([H])Oc1c([H])c([H])c2c(c1[H])C([H])([H])N(C(=O)C([H])(N([H])C(=O)C([H])(N([H])C([H])([H])[H])C([H])([H])[H])C(C([H])([H])[H])(C([H])([H])[H])C([H])([H])[H])C([H])(C(=O)N([H])C1([H])c3c([H])c([H])c([H])c([H])c3C([H])([H])C([H])([H])C1([H])[H])C2([H])[H]

$$$$
42:0:0
     RDKit          3D

 94103  0  0  1  0  0  0  0  0999 V2000
  -28.2920  -22.3080   20.8070 C   0  0  0  0  0  0  0  0  0  0  0  0
  -29.6670  -22.5980   19.3930 C   0  0  0  0  0  0  0  0  0  0  0  0
  -28.2420  -23.2560   19.5560 C   0  0  1  0  0  0  0  0  0  0  0  0
  -27.2760  -22.6020   18.5140 C   0  0  0  0  0  1  0  0  0  0  0  0
  -29.2240  -21.4570   20.1400 N   0  0  0  0  0  0  0  0  0  0  0  0
  -27.7480  -22.2230   21.8900 O   0  0  0  0  0  0  0  0  0  0  0  0
  -30.7190  -22.8450   18.8350 O   0  0  0  0  0  0  0  0  0  0  0  0
  -31.1300  -18.8320   22.1430 C   0  0  0  0  0  3  0  0  0  0  0  0
  -30.9070  -17.6070   21.4930 C   0  0  0  0  0  3  0  0  0  0  0  0
  -30.5910  -20.0380   21.6460 C   0  0  0  0  0  3  0  0  0  0  0  0
  -29.5830  -18.8160   19.8520 C   0  0  0  0  0  3  0  0  0  0  0  0
  -30.1250  -17.5370   20.3220 C   0  0  0  0  0  0  0  0  0  0  0  0
  -29.7820  -20.1190   20.4860 C   0  0  0  0  0  0  0  0  0  0  0  0
  -29.8010  -16.1380   19.7150 C   0  0  0  0  0  0  0  0  0  0  0  0
  -28.8480  -16.0740   18.8750 N   0  0  0  0  0  0  0  0  0  0  0  0
  -28.3920  -16.9650   18.7260 H   0  0  0  0  0  0  0  0  0  0  0  0
  -30.6690  -14.8080   19.9900 C   0  0  0  0  0  0  0  0  0  0  0  0
  -30.4190  -12.5520   18.9630 C   0  0  0  0  0  2  0  0  0  0  0  0
  -29.3890  -12.6140   17.8120 C   0  0  0  0  0  2  0  0  0  0  0  0
  -27.9560  -12.4000   18.3400 C   0  0  0  0  0  2  0  0  0  0  0  0
  -27.6460  -13.2760   19.5780 C   0  0  0  0  0  3  0  0  0  0  0  0
  -28.7810  -13.2080   20.6190 C   0  0  0  0  0  2  0  0  0  0  0  0
  -30.0300  -13.5860   19.9450 N   0  0  0  0  0  0  0  0  0  0  0  0
  -31.8860  -14.8750   19.7910 O   0  0  0  0  0  0  0  0  0  0  0  0
  -25.3240  -13.8660   20.4790 C   0  0  0  0  0  0  0  0  0  0  0  0
  -24.2760  -13.0830   20.8840 C   0  0  0  0  0  0  0  0  0  0  0  0
  -24.7310  -11.7320   20.7850 C   0  0  0  0  0  0  0  0  0  0  0  0
  -26.3420  -12.9850   20.1520 N   0  0  0  0  0  0  0  0  0  0  0  0
  -26.0020  -11.6980   20.3990 N   0  0  0  0  0  0  0  0  0  0  0  0
  -24.0150  -10.4650   20.9670 C   0  0  0  0  0  0  0  0  0  0  0  0
  -24.4550   -9.5050   21.9050 C   0  0  0  0  0  3  0  0  0  0  0  0
  -23.7400   -8.2990   22.0810 C   0  0  0  0  0  3  0  0  0  0  0  0
  -22.5760   -8.0490   21.3150 C   0  0  0  0  0  0  0  0  0  0  0  0
  -22.1590   -8.9980   20.3650 C   0  0  0  0  0  3  0  0  0  0  0  0
  -22.8730  -10.1940   20.1890 C   0  0  0  0  0  3  0  0  0  0  0  0
  -21.8360   -6.8930   21.3970 O   0  0  0  0  0  0  0  0  0  0  0  0
  -21.7180   -6.2000   22.5730 C   0  0  0  0  0  0  0  0  0  0  0  0
  -21.1590   -6.7850   23.7320 C   0  0  0  0  0  3  0  0  0  0  0  0
  -20.9930   -6.0110   24.9000 C   0  0  0  0  0  3  0  0  0  0  0  0
  -21.3780   -4.6560   24.9060 C   0  0  0  0  0  0  0  0  0  0  0  0
  -21.9310   -4.0730   23.7530 C   0  0  0  0  0  3  0  0  0  0  0  0
  -22.0970   -4.8430   22.5890 C   0  0  0  0  0  0  0  0  0  0  0  0
  -22.6100   -4.2730   21.4710 F   0  0  0  0  0  0  0  0  0  0  0  0
  -21.2100   -3.9110   26.0230 F   0  0  0  0  0  0  0  0  0  0  0  0
  -22.8970  -13.5520   21.2420 C   0  0  0  0  0  0  0  0  0  0  0  0
  -22.2170  -12.8400   22.1350 N   0  0  0  0  0  0  0  0  0  0  0  0
  -22.4290  -14.5860   20.7680 O   0  0  0  0  0  0  0  0  0  0  0  0
  -22.6090  -12.0020   22.5400 H   0  0  0  0  0  0  0  0  0  0  0  0
  -21.2940  -13.1390   22.4110 H   0  0  0  0  0  0  0  0  0  0  0  0
  -25.4920  -15.2390   20.3310 N   0  0  0  0  0  0  0  0  0  0  0  0
  -24.7500  -15.9100   20.4950 H   0  0  0  0  0  0  0  0  0  0  0  0
  -26.3320  -15.6530   19.9460 H   0  0  0  0  0  0  0  0  0  0  0  0
  -27.7600  -24.8460   19.6290 C   0  0  0  0  0  2  0  0  0  0  0  0
  -28.1320  -26.2430   20.1150 O   0  0  0  0  0  0  0  0  0  0  0  0
  -24.6510  -31.9380   23.1180 C   0  0  0  0  0  0  0  0  0  0  0  0
  -27.1050  -27.2460   20.0250 C   0  0  0  0  0  0  0  0  0  0  0  0
  -23.3860  -30.5370   21.5320 C   0  0  0  0  0  3  0  0  0  0  0  0
  -24.7840  -28.9760   20.0560 C   0  0  0  0  0  0  0  0  0  0  0  0
  -25.9380  -30.7930   21.2940 C   0  0  0  0  0  2  0  0  0  0  0  0
  -25.9780  -29.4090   20.6430 C   0  0  0  0  0  0  0  0  0  0  0  0
  -27.1360  -28.5550   20.6340 C   0  0  0  0  0  3  0  0  0  0  0  0
  -25.8970  -26.9430   19.3440 C   0  0  0  0  0  3  0  0  0  0  0  0
  -24.7540  -27.7520   19.3860 C   0  0  0  0  0  3  0  0  0  0  0  0
  -23.5570  -29.8670   20.1470 C   0  0  0  0  0  2  0  0  0  0  0  0
  -24.6790  -31.1110   22.0320 N   0  0  0  0  0  0  0  0  0  0  0  0
  -23.5850  -32.2320   23.6810 O   0  0  0  0  0  0  0  0  0  0  0  0
  -22.7480  -29.5280   22.5190 C   0  0  0  0  0  0  0  0  0  0  0  0
  -21.4280  -29.2990   22.3900 N   0  0  0  0  0  0  0  0  0  0  0  0
  -23.4380  -28.9540   23.3650 O   0  0  0  0  0  0  0  0  0  0  0  0
  -20.9250  -29.8160   21.6800 H   0  0  0  0  0  0  0  0  0  0  0  0
  -18.1050  -27.9460   22.8750 C   0  0  0  0  0  0  0  0  0  0  0  0
  -20.6360  -28.3620   23.1930 C   0  0  0  0  0  3  0  0  0  0  0  0
  -20.8300  -26.9080   22.7060 C   0  0  0  0  0  2  0  0  0  0  0  0
  -19.7760  -26.4670   21.6850 C   0  0  0  0  0  2  0  0  0  0  0  0
  -18.3700  -26.5720   22.2830 C   0  0  0  0  0  2  0  0  0  0  0  0
  -19.1670  -28.7920   23.2890 C   0  0  0  0  0  0  0  0  0  0  0  0
  -18.8650  -30.0720   23.8030 C   0  0  0  0  0  3  0  0  0  0  0  0
  -17.5300  -30.5090   23.9070 C   0  0  0  0  0  3  0  0  0  0  0  0
  -16.4800  -29.6620   23.5100 C   0  0  0  0  0  3  0  0  0  0  0  0
  -16.7680  -28.3830   23.0020 C   0  0  0  0  0  3  0  0  0  0  0  0
  -25.9550  -32.5730   23.6860 C   0  0  0  0  0  3  0  0  0  0  0  0
  -26.5490  -31.7740   24.9100 C   0  0  1  0  0  0  0  0  0  0  0  0
  -25.5170  -31.4780   26.0240 C   0  0  0  0  0  1  0  0  0  0  0  0
  -27.1480  -30.4210   24.4590 C   0  0  0  0  0  1  0  0  0  0  0  0
  -27.7140  -32.5750   25.5390 C   0  0  0  0  0  1  0  0  0  0  0  0
  -25.6430  -33.9560   24.0760 N   0  0  0  0  0  0  0  0  0  0  0  0
  -25.9350  -35.0390   23.3450 C   0  0  0  0  0  0  0  0  0  0  0  0
  -26.5690  -34.9800   22.2880 O   0  0  0  0  0  0  0  0  0  0  0  0
  -25.0810  -34.0750   24.9060 H   0  0  0  0  0  0  0  0  0  0  0  0
  -24.2010  -36.8440   23.0960 C   0  0  0  0  0  1  0  0  0  0  0  0
  -25.4540  -36.4070   23.8700 C   0  0  0  0  0  3  0  0  0  0  0  0
  -27.5940  -37.2650   24.7150 C   0  0  0  0  0  1  0  0  0  0  0  0
  -26.4860  -37.4650   23.7850 N   0  0  0  0  0  0  0  0  0  0  0  0
  -26.0820  -38.3800   23.9620 H   0  0  0  0  0  0  0  0  0  0  0  0
  1  6  2  0
  2  3  1  0
  2  5  1  0
  3  4  1  6
  3 53  1  0
  3  1  1  0
  5 13  1  0
  5  1  1  0
  7  2  2  0
  9  8  2  0
 10  8  1  0
 11 12  2  0
 11 13  1  0
 12  9  1  0
 13 10  2  0
 14 17  1  0
 14 12  1  0
 15 14  2  0
 16 15  1  0
 18 23  1  0
 19 20  1  0
 19 18  1  0
 21 20  1  0
 21 28  1  0
 21 22  1  0
 23 17  1  0
 23 22  1  0
 24 17  2  0
 25 26  2  0
 26 45  1  0
 27 26  1  0
 27 30  1  0
 28 29  1  0
 28 25  1  0
 29 27  2  0
 30 31  1  0
 31 32  2  0
 33 36  1  0
 33 32  1  0
 34 33  2  0
 35 34  1  0
 35 30  2  0
 36 37  1  0
 37 42  2  0
 37 38  1  0
 38 39  2  0
 39 40  1  0
 40 44  1  0
 41 40  2  0
 42 41  1  0
 43 42  1  0
 45 46  1  0
 46 49  1  0
 46 48  1  0
 47 45  2  0
 50 25  1  0
 50 51  1  0
 52 50  1  0
 53 54  1  0
 55 66  2  0
 56 54  1  0
 56 61  1  0
 57 65  1  0
 57 67  1  0
 58 64  1  0
 58 60  1  0
 59 65  1  0
 60 59  1  0
 61 60  2  0
 62 63  1  0
 62 56  2  0
 63 58  2  0
 64 57  1  0
 65 55  1  0
 67 69  2  0
 68 67  1  0
 70 68  1  0
 71 80  2  0
 71 76  1  0
 72 68  1  0
 72 76  1  0
 73 72  1  0
 74 75  1  0
 74 73  1  0
 75 71  1  0
 76 77  2  0
 77 78  1  0
 79 78  2  0
 80 79  1  0
 81 55  1  0
 81 86  1  0
 81 82  1  0
 82 85  1  1
 82 83  1  0
 84 82  1  0
 86 89  1  0
 87 91  1  0
 87 86  1  0
 88 87  2  0
 91 90  1  0
 93 91  1  0
 93 94  1  0
 93 92  1  0
M  ISO  4  14 100  17 100  53 101  54 101
M  END
>  <TORSDO>  (43) 
F 19

>  <SCORE>  (43) 
-14.532

>  <name>  (43) 
42

>  <ligand_id>  (43) 
42

>  <original_smiles>  (43) 
[H]N=C(C(=O)N1C([H])([H])C([H])([H])C([H])([H])C([H])(n2nc(-c3c([H])c([H])c(Oc4c([H])c([H])c(F)c([H])c4F)c([H])c3[H])c(C(=O)N([H])[H])c2N([H])[H])C1([H])[H])c1c([H])c([H])c([H])c(N2C(=O)C(C([H])([H])[H])(C([H])([H])Oc3c([H])c([H])c4c(c3[H])C([H])([H])N(C(=O)C([H])(N([H])C(=O)C([H])(N([H])C([H])([H])[H])C([H])([H])[H])C(C([H])([H])[H])(C([H])([H])[H])C([H])([H])[H])C([H])(C(=O)N([H])C3([H])c5c([H])c([H])c([H])c([H])c5C([H])([H])C([H])([H])C3([H])[H])C4([H])[H])C2=O)c1[H]

>  <smiles>  (43) 
[H]N=C(C(=O)N1C([H])([H])C([H])([H])C([H])([H])C([H])(n2nc(-c3c([H])c([H])c(Oc4c([H])c([H])c(F)c([H])c4F)c([H])c3[H])c(C(=O)N([H])[H])c2N([H])[H])C1([H])[H])c1c([H])c([H])c([H])c(N2C(=O)C(C([H])([H])[H])(C([H])([H])Oc3c([H])c([H])c4c(c3[H])C([H])([H])N(C(=O)C([H])(N([H])C(=O)C([H])(N([H])C([H])([H])[H])C([H])([H])[H])C(C([H])([H])[H])(C([H])([H])[H])C([H])([H])[H])C([H])(C(=O)N([H])C3([H])c5c([H])c([H])c([H])c([H])c5C([H])([H])C([H])([H])C3([H])[H])C4([H])[H])C2=O)c1[H]

$$$$
43:0:0
     RDKit          3D

 99108  0  0  1  0  0  0  0  0999 V2000
  -30.4040  -23.5580   19.3180 C   0  0  0  0  0  0  0  0  0  0  0  0
  -31.5350  -23.4430   18.4260 C   0  0  0  0  0  0  0  0  0  0  0  0
  -30.3320  -22.2480   20.0280 C   0  0  0  0  0  0  0  0  0  0  0  0
  -31.9090  -24.3080   17.4640 C   0  0  0  0  0  2  0  0  0  0  0  0
  -29.6480  -24.7190   19.4040 C   0  0  0  0  0  3  0  0  0  0  0  0
  -32.2500  -22.1580   18.6740 C   0  0  0  0  0  2  0  0  0  0  0  0
  -31.3730  -21.4310   19.6020 N   0  0  0  0  0  0  0  0  0  0  0  0
  -29.4820  -21.9150   20.8620 O   0  0  0  0  0  0  0  0  0  0  0  0
  -33.2330  -20.0200   20.3350 C   0  0  0  0  0  3  0  0  0  0  0  0
  -33.2120  -17.5850   20.3010 C   0  0  0  0  0  3  0  0  0  0  0  0
  -31.1470  -18.8360   19.8900 C   0  0  0  0  0  3  0  0  0  0  0  0
  -33.9230  -18.7980   20.4330 C   0  0  0  0  0  0  0  0  0  0  0  0
  -31.8500  -20.0930   20.0140 C   0  0  0  0  0  0  0  0  0  0  0  0
  -31.8330  -17.5590   20.0000 C   0  0  0  0  0  0  0  0  0  0  0  0
  -31.8750  -15.0300   19.6670 C   0  0  0  0  0  0  0  0  0  0  0  0
  -31.5540  -12.6300   19.0580 C   0  0  0  0  0  2  0  0  0  0  0  0
  -30.6120  -12.5110   17.8440 C   0  0  0  0  0  2  0  0  0  0  0  0
  -29.1410  -12.4580   18.2990 C   0  0  0  0  0  2  0  0  0  0  0  0
  -28.7950  -13.5630   19.3410 C   0  0  0  0  0  3  0  0  0  0  0  0
  -29.8660  -13.6620   20.4500 C   0  0  0  0  0  2  0  0  0  0  0  0
  -31.1660  -13.8580   19.7940 N   0  0  0  0  0  0  0  0  0  0  0  0
  -33.0310  -15.0190   19.2370 O   0  0  0  0  0  0  0  0  0  0  0  0
  -31.2210  -16.2320   19.8210 N   0  0  0  0  0  0  0  0  0  0  0  0
  -30.2140  -16.1920   19.8690 H   0  0  0  0  0  0  0  0  0  0  0  0
  -26.4970  -14.3460   20.1890 C   0  0  0  0  0  0  0  0  0  0  0  0
  -25.3910  -13.6570   20.6070 C   0  0  0  0  0  0  0  0  0  0  0  0
  -25.7410  -12.2700   20.5460 C   0  0  0  0  0  0  0  0  0  0  0  0
  -27.4520  -13.3830   19.8920 N   0  0  0  0  0  0  0  0  0  0  0  0
  -27.0030  -12.1290   20.1620 N   0  0  0  0  0  0  0  0  0  0  0  0
  -24.9210  -11.0720   20.7560 C   0  0  0  0  0  0  0  0  0  0  0  0
  -25.2030  -10.1490   21.7900 C   0  0  0  0  0  3  0  0  0  0  0  0
  -24.3800   -9.0200   21.9870 C   0  0  0  0  0  3  0  0  0  0  0  0
  -23.2640   -8.7980   21.1450 C   0  0  0  0  0  0  0  0  0  0  0  0
  -23.0010   -9.7040   20.1030 C   0  0  0  0  0  3  0  0  0  0  0  0
  -23.8230  -10.8250   19.9040 C   0  0  0  0  0  3  0  0  0  0  0  0
  -22.4290   -7.7090   21.2440 O   0  0  0  0  0  0  0  0  0  0  0  0
  -22.0860   -7.1720   22.4600 C   0  0  0  0  0  0  0  0  0  0  0  0
  -21.4060   -7.9250   23.4420 C   0  0  0  0  0  3  0  0  0  0  0  0
  -21.0110   -7.3110   24.6500 C   0  0  0  0  0  3  0  0  0  0  0  0
  -21.2910   -5.9500   24.8730 C   0  0  0  0  0  0  0  0  0  0  0  0
  -21.9600   -5.1990   23.8930 C   0  0  0  0  0  3  0  0  0  0  0  0
  -22.3560   -5.8080   22.6880 C   0  0  0  0  0  0  0  0  0  0  0  0
  -22.9830   -5.0730   21.7360 F   0  0  0  0  0  0  0  0  0  0  0  0
  -20.9070   -5.3600   26.0300 F   0  0  0  0  0  0  0  0  0  0  0  0
  -24.0530  -14.2450   20.9500 C   0  0  0  0  0  0  0  0  0  0  0  0
  -23.3420  -13.6420   21.8960 N   0  0  0  0  0  0  0  0  0  0  0  0
  -23.6500  -15.2790   20.4180 O   0  0  0  0  0  0  0  0  0  0  0  0
  -23.6740  -12.8040   22.3520 H   0  0  0  0  0  0  0  0  0  0  0  0
  -22.4460  -14.0170   22.1680 H   0  0  0  0  0  0  0  0  0  0  0  0
  -26.7680  -15.6990   20.0160 N   0  0  0  0  0  0  0  0  0  0  0  0
  -26.0760  -16.4170   20.1890 H   0  0  0  0  0  0  0  0  0  0  0  0
  -27.6380  -16.0680   19.6530 H   0  0  0  0  0  0  0  0  0  0  0  0
  -35.4450  -18.8250   20.6020 C   0  0  0  0  0  3  0  0  0  0  0  0
  -35.8970  -19.9270   20.0130 F   0  0  0  0  0  0  0  0  0  0  0  0
  -36.1580  -17.7180   19.9930 N   0  0  0  0  0  0  0  0  0  0  0  0
  -36.9860  -18.0800   19.5340 H   0  0  0  0  0  0  0  0  0  0  0  0
  -35.5910  -17.3730   19.2280 H   0  0  0  0  0  0  0  0  0  0  0  0
  -28.4110  -25.2090   20.2050 C   0  0  0  0  0  2  0  0  0  0  0  0
  -28.4230  -26.6770   20.4340 O   0  0  0  0  0  0  0  0  0  0  0  0
  -24.5400  -31.9730   23.3890 C   0  0  0  0  0  0  0  0  0  0  0  0
  -27.2490  -27.4440   20.3870 C   0  0  0  0  0  0  0  0  0  0  0  0
  -23.3660  -30.5510   21.7440 C   0  0  0  0  0  3  0  0  0  0  0  0
  -24.8460  -29.0050   20.3420 C   0  0  0  0  0  0  0  0  0  0  0  0
  -25.8970  -30.9160   21.5630 C   0  0  0  0  0  2  0  0  0  0  0  0
  -26.0020  -29.5290   20.9350 C   0  0  0  0  0  0  0  0  0  0  0  0
  -27.2040  -28.7620   20.9380 C   0  0  0  0  0  3  0  0  0  0  0  0
  -26.0660  -26.9630   19.7770 C   0  0  0  0  0  3  0  0  0  0  0  0
  -24.8790  -27.7250   19.7590 C   0  0  0  0  0  3  0  0  0  0  0  0
  -23.5980  -29.8650   20.3690 C   0  0  0  0  0  2  0  0  0  0  0  0
  -24.6210  -31.1640   22.2890 N   0  0  0  0  0  0  0  0  0  0  0  0
  -23.4500  -32.2360   23.9160 O   0  0  0  0  0  0  0  0  0  0  0  0
  -22.7120  -29.5320   22.7090 C   0  0  0  0  0  0  0  0  0  0  0  0
  -21.4070  -29.2760   22.5210 N   0  0  0  0  0  0  0  0  0  0  0  0
  -23.3820  -28.9700   23.5810 O   0  0  0  0  0  0  0  0  0  0  0  0
  -20.9290  -29.7840   21.7900 H   0  0  0  0  0  0  0  0  0  0  0  0
  -18.1030  -27.8200   22.8120 C   0  0  0  0  0  0  0  0  0  0  0  0
  -20.5970  -28.3190   23.2800 C   0  0  0  0  0  3  0  0  0  0  0  0
  -20.8670  -26.8700   22.8140 C   0  0  0  0  0  2  0  0  0  0  0  0
  -19.8910  -26.3910   21.7340 C   0  0  0  0  0  2  0  0  0  0  0  0
  -18.4490  -26.4540   22.2470 C   0  0  0  0  0  2  0  0  0  0  0  0
  -19.1140  -28.7020   23.2810 C   0  0  0  0  0  0  0  0  0  0  0  0
  -18.7400  -29.9720   23.7700 C   0  0  0  0  0  3  0  0  0  0  0  0
  -17.3900  -30.3680   23.7880 C   0  0  0  0  0  3  0  0  0  0  0  0
  -16.3920  -29.4880   23.3330 C   0  0  0  0  0  3  0  0  0  0  0  0
  -16.7500  -28.2150   22.8540 C   0  0  0  0  0  3  0  0  0  0  0  0
  -25.8080  -32.6270   24.0180 C   0  0  0  0  0  3  0  0  0  0  0  0
  -26.2930  -31.8980   25.3320 C   0  0  1  0  0  0  0  0  0  0  0  0
  -25.1530  -31.6240   26.3440 C   0  0  0  0  0  1  0  0  0  0  0  0
  -26.9600  -30.5480   24.9890 C   0  0  0  0  0  1  0  0  0  0  0  0
  -27.3720  -32.7540   26.0380 C   0  0  0  0  0  1  0  0  0  0  0  0
  -25.4990  -34.0370   24.2900 N   0  0  0  0  0  0  0  0  0  0  0  0
  -25.9590  -35.0680   23.5660 C   0  0  0  0  0  0  0  0  0  0  0  0
  -26.7500  -34.9270   22.6300 O   0  0  0  0  0  0  0  0  0  0  0  0
  -24.8110  -34.2180   25.0080 H   0  0  0  0  0  0  0  0  0  0  0  0
  -24.3340  -36.8940   22.9800 C   0  0  0  0  0  1  0  0  0  0  0  0
  -25.4610  -36.4780   23.9380 C   0  0  0  0  0  3  0  0  0  0  0  0
  -27.5200  -37.3090   24.9880 C   0  0  0  0  0  1  0  0  0  0  0  0
  -26.5300  -37.5020   23.9310 N   0  0  0  0  0  0  0  0  0  0  0  0
  -26.1360  -38.4330   24.0310 H   0  0  0  0  0  0  0  0  0  0  0  0
  1  5  2  0
  1  3  1  0
  2  6  1  0
  2  1  1  0
  3  8  2  0
  4  2  2  0
  5 58  1  0
  6  7  1  0
  7 13  1  0
  7  3  1  0
  9 12  1  0
 10 12  2  0
 11 14  2  0
 11 13  1  0
 12 53  1  0
 13  9  2  0
 14 10  1  0
 15 21  1  0
 15 23  1  0
 16 21  1  0
 17 18  1  0
 17 16  1  0
 19 18  1  0
 19 28  1  0
 19 20  1  0
 21 20  1  0
 22 15  2  0
 23 24  1  0
 23 14  1  0
 25 26  2  0
 26 45  1  0
 27 26  1  0
 27 30  1  0
 28 29  1  0
 28 25  1  0
 29 27  2  0
 30 31  1  0
 31 32  2  0
 33 36  1  0
 33 32  1  0
 34 33  2  0
 35 34  1  0
 35 30  2  0
 36 37  1  0
 37 42  2  0
 37 38  1  0
 38 39  2  0
 39 40  1  0
 40 44  1  0
 41 40  2  0
 42 41  1  0
 43 42  1  0
 45 46  1  0
 46 49  1  0
 46 48  1  0
 47 45  2  0
 50 25  1  0
 50 51  1  0
 52 50  1  0
 53 54  1  0
 55 53  1  0
 56 55  1  0
 57 55  1  0
 58 59  1  0
 60 71  2  0
 61 59  1  0
 61 66  1  0
 62 70  1  0
 62 72  1  0
 63 69  1  0
 63 65  1  0
 64 70  1  0
 65 66  2  0
 65 64  1  0
 67 61  2  0
 68 67  1  0
 68 63  2  0
 69 62  1  0
 70 60  1  0
 72 74  2  0
 73 72  1  0
 75 73  1  0
 76 85  2  0
 76 81  1  0
 77 73  1  0
 77 81  1  0
 78 77  1  0
 79 80  1  0
 79 78  1  0
 80 76  1  0
 81 82  2  0
 82 83  1  0
 84 83  2  0
 85 84  1  0
 86 60  1  0
 86 91  1  0
 86 87  1  0
 87 90  1  1
 87 88  1  0
 89 87  1  0
 91 94  1  0
 92 96  1  0
 92 91  1  0
 93 92  2  0
 96 95  1  0
 98 96  1  0
 98 99  1  0
 98 97  1  0
M  ISO  4  15 100  23 100  58 101  59 101
M  END
>  <TORSDO>  (44) 
F 20

>  <SCORE>  (44) 
-11.936

>  <name>  (44) 
43

>  <ligand_id>  (44) 
43

>  <original_smiles>  (44) 
[H]C([H])=C1C(=C([H])C([H])([H])Oc2c([H])c([H])c3c(c2[H])C([H])([H])N(C(=O)C([H])(N([H])C(=O)C([H])(N([H])C([H])([H])[H])C([H])([H])[H])C(C([H])([H])[H])(C([H])([H])[H])C([H])([H])[H])C([H])(C(=O)N([H])C2([H])c4c([H])c([H])c([H])c([H])c4C([H])([H])C([H])([H])C2([H])[H])C3([H])[H])C(=O)N(c2c([H])c(N([H])C(=O)N3C([H])([H])C([H])([H])C([H])([H])C([H])(n4nc(-c5c([H])c([H])c(Oc6c([H])c([H])c(F)c([H])c6F)c([H])c5[H])c(C(=O)N([H])[H])c4N([H])[H])C3([H])[H])c([H])c(C([H])(F)N([H])[H])c2[H])C1([H])[H]

>  <smiles>  (44) 
[H]C([H])=C1C(=C([H])C([H])([H])Oc2c([H])c([H])c3c(c2[H])C([H])([H])N(C(=O)C([H])(N([H])C(=O)C([H])(N([H])C([H])([H])[H])C([H])([H])[H])C(C([H])([H])[H])(C([H])([H])[H])C([H])([H])[H])C([H])(C(=O)N([H])C2([H])c4c([H])c([H])c([H])c([H])c4C([H])([H])C([H])([H])C2([H])[H])C3([H])[H])C(=O)N(c2c([H])c(N([H])C(=O)N3C([H])([H])C([H])([H])C([H])([H])C([H])(n4nc(-c5c([H])c([H])c(Oc6c([H])c([H])c(F)c([H])c6F)c([H])c5[H])c(C(=O)N([H])[H])c4N([H])[H])C3([H])[H])c([H])c(C([H])(F)N([H])[H])c2[H])C1([H])[H]

$$$$
44:0:0
     RDKit          3D

 93102  0  0  1  0  0  0  0  0999 V2000
  -28.6690  -22.3660   20.0640 C   0  0  0  0  0  3  0  0  0  0  0  0
  -28.6850  -23.7290   20.2920 C   0  0  0  0  0  0  0  0  0  0  0  0
  -30.2180  -23.2440   22.2310 C   0  0  0  0  0  0  0  0  0  0  0  0
  -30.3750  -23.4330   23.5500 C   0  0  0  0  0  2  0  0  0  0  0  0
  -29.6290  -24.3200   21.3270 C   0  0  0  0  0  2  0  0  0  0  0  0
  -30.5830  -21.9270   21.5550 C   0  0  0  0  0  2  0  0  0  0  0  0
  -29.5270  -21.4030   20.6750 N   0  0  0  0  0  0  0  0  0  0  0  0
  -28.3580  -19.1730   20.4240 C   0  0  0  0  0  3  0  0  0  0  0  0
  -30.7410  -19.1800   20.6280 C   0  0  0  0  0  3  0  0  0  0  0  0
  -28.3830  -17.7410   20.4150 C   0  0  0  0  0  3  0  0  0  0  0  0
  -30.7710  -17.7530   20.6110 C   0  0  0  0  0  3  0  0  0  0  0  0
  -29.5380  -19.9540   20.5590 C   0  0  0  0  0  0  0  0  0  0  0  0
  -29.5850  -16.9820   20.5190 C   0  0  0  0  0  0  0  0  0  0  0  0
  -30.3430  -14.5070   20.1150 C   0  0  0  0  0  0  0  0  0  0  0  0
  -30.1420  -12.3110   18.9560 C   0  0  0  0  0  2  0  0  0  0  0  0
  -29.1050  -12.4560   17.8200 C   0  0  0  0  0  2  0  0  0  0  0  0
  -27.6760  -12.2190   18.3440 C   0  0  0  0  0  2  0  0  0  0  0  0
  -27.3770  -13.0120   19.6440 C   0  0  0  0  0  3  0  0  0  0  0  0
  -28.5190  -12.8430   20.6720 C   0  0  0  0  0  2  0  0  0  0  0  0
  -29.7710  -13.2640   20.0230 N   0  0  0  0  0  0  0  0  0  0  0  0
  -31.4750  -14.7190   19.6680 O   0  0  0  0  0  0  0  0  0  0  0  0
  -29.5140  -15.5140   20.5500 N   0  0  0  0  0  0  0  0  0  0  0  0
  -28.6250  -15.1520   20.8600 H   0  0  0  0  0  0  0  0  0  0  0  0
  -25.0540  -13.5030   20.6250 C   0  0  0  0  0  0  0  0  0  0  0  0
  -24.0250  -12.6830   21.0010 C   0  0  0  0  0  0  0  0  0  0  0  0
  -24.4870  -11.3470   20.7830 C   0  0  0  0  0  0  0  0  0  0  0  0
  -26.0770  -12.6650   20.2080 N   0  0  0  0  0  0  0  0  0  0  0  0
  -25.7460  -11.3570   20.3640 N   0  0  0  0  0  0  0  0  0  0  0  0
  -23.7830  -10.0630   20.8970 C   0  0  0  0  0  0  0  0  0  0  0  0
  -24.2310   -9.0520   21.7750 C   0  0  0  0  0  3  0  0  0  0  0  0
  -23.5260   -7.8330   21.8790 C   0  0  0  0  0  3  0  0  0  0  0  0
  -22.3630   -7.6170   21.1040 C   0  0  0  0  0  0  0  0  0  0  0  0
  -21.9350   -8.6180   20.2130 C   0  0  0  0  0  3  0  0  0  0  0  0
  -22.6390   -9.8290   20.1080 C   0  0  0  0  0  3  0  0  0  0  0  0
  -21.6300   -6.4540   21.1200 O   0  0  0  0  0  0  0  0  0  0  0  0
  -21.5590   -5.6650   22.2400 C   0  0  0  0  0  0  0  0  0  0  0  0
  -20.9620   -6.1200   23.4370 C   0  0  0  0  0  3  0  0  0  0  0  0
  -20.8460   -5.2520   24.5410 C   0  0  0  0  0  3  0  0  0  0  0  0
  -21.3180   -3.9300   24.4500 C   0  0  0  0  0  0  0  0  0  0  0  0
  -21.9080   -3.4730   23.2580 C   0  0  0  0  0  3  0  0  0  0  0  0
  -22.0260   -4.3380   22.1560 C   0  0  0  0  0  0  0  0  0  0  0  0
  -22.5760   -3.8860   21.0030 F   0  0  0  0  0  0  0  0  0  0  0  0
  -21.2000   -3.0940   25.5070 F   0  0  0  0  0  0  0  0  0  0  0  0
  -22.6550  -13.1110   21.4380 C   0  0  0  0  0  0  0  0  0  0  0  0
  -22.0100  -12.3250   22.2940 N   0  0  0  0  0  0  0  0  0  0  0  0
  -22.1670  -14.1740   21.0610 O   0  0  0  0  0  0  0  0  0  0  0  0
  -22.4200  -11.4630   22.6220 H   0  0  0  0  0  0  0  0  0  0  0  0
  -21.0940  -12.5910   22.6270 H   0  0  0  0  0  0  0  0  0  0  0  0
  -25.1980  -14.8880   20.5820 N   0  0  0  0  0  0  0  0  0  0  0  0
  -24.4360  -15.5130   20.8200 H   0  0  0  0  0  0  0  0  0  0  0  0
  -25.9840  -15.3680   20.1630 H   0  0  0  0  0  0  0  0  0  0  0  0
  -27.7800  -24.7750   19.5510 C   0  0  0  0  0  2  0  0  0  0  0  0
  -28.0520  -26.2300   19.7000 O   0  0  0  0  0  0  0  0  0  0  0  0
  -24.5380  -31.6620   22.9130 C   0  0  0  0  0  0  0  0  0  0  0  0
  -26.9480  -27.1050   19.6920 C   0  0  0  0  0  0  0  0  0  0  0  0
  -23.2430  -30.3000   21.3130 C   0  0  0  0  0  3  0  0  0  0  0  0
  -24.6070  -28.7510   19.8050 C   0  0  0  0  0  0  0  0  0  0  0  0
  -25.7770  -30.5870   21.0210 C   0  0  0  0  0  2  0  0  0  0  0  0
  -25.8080  -29.2160   20.3540 C   0  0  0  0  0  0  0  0  0  0  0  0
  -26.9820  -28.4040   20.2880 C   0  0  0  0  0  3  0  0  0  0  0  0
  -25.7210  -26.7020   19.1120 C   0  0  0  0  0  3  0  0  0  0  0  0
  -24.5640  -27.5000   19.1760 C   0  0  0  0  0  3  0  0  0  0  0  0
  -23.3860  -29.6410   19.9180 C   0  0  0  0  0  2  0  0  0  0  0  0
  -24.5410  -30.8660   21.8050 N   0  0  0  0  0  0  0  0  0  0  0  0
  -23.4840  -31.9480   23.4990 O   0  0  0  0  0  0  0  0  0  0  0  0
  -22.6100  -29.2800   22.2900 C   0  0  0  0  0  0  0  0  0  0  0  0
  -21.2750  -29.1380   22.2350 N   0  0  0  0  0  0  0  0  0  0  0  0
  -23.3180  -28.6220   23.0580 O   0  0  0  0  0  0  0  0  0  0  0  0
  -20.7630  -29.7200   21.5880 H   0  0  0  0  0  0  0  0  0  0  0  0
  -17.9000  -28.0340   22.9200 C   0  0  0  0  0  0  0  0  0  0  0  0
  -20.4770  -28.2070   23.0350 C   0  0  0  0  0  3  0  0  0  0  0  0
  -20.4970  -26.7860   22.4240 C   0  0  0  0  0  2  0  0  0  0  0  0
  -19.3250  -26.5230   21.4730 C   0  0  0  0  0  2  0  0  0  0  0  0
  -17.9910  -26.6960   22.2040 C   0  0  0  0  0  2  0  0  0  0  0  0
  -19.0670  -28.7500   23.2970 C   0  0  0  0  0  0  0  0  0  0  0  0
  -18.9260  -30.0030   23.9300 C   0  0  0  0  0  3  0  0  0  0  0  0
  -17.6510  -30.5400   24.1900 C   0  0  0  0  0  3  0  0  0  0  0  0
  -16.4990  -29.8200   23.8280 C   0  0  0  0  0  3  0  0  0  0  0  0
  -16.6260  -28.5680   23.2000 C   0  0  0  0  0  3  0  0  0  0  0  0
  -25.8570  -32.2700   23.4830 C   0  0  0  0  0  3  0  0  0  0  0  0
  -25.5440  -33.6140   23.9870 N   0  0  0  0  0  0  0  0  0  0  0  0
  -25.8300  -34.7550   23.3460 C   0  0  0  0  0  0  0  0  0  0  0  0
  -26.4570  -34.7860   22.2830 O   0  0  0  0  0  0  0  0  0  0  0  0
  -24.9790  -33.6630   24.8220 H   0  0  0  0  0  0  0  0  0  0  0  0
  -24.0690  -36.5510   23.2750 C   0  0  0  0  0  1  0  0  0  0  0  0
  -25.3450  -36.0710   23.9840 C   0  0  0  0  0  3  0  0  0  0  0  0
  -27.4880  -36.8980   24.8520 C   0  0  0  0  0  1  0  0  0  0  0  0
  -26.3600  -37.1470   23.9600 N   0  0  0  0  0  0  0  0  0  0  0  0
  -25.9450  -38.0390   24.2150 H   0  0  0  0  0  0  0  0  0  0  0  0
  -26.5060  -31.3890   24.6200 C   0  0  1  0  0  0  0  0  0  0  0  0
  -25.5160  -30.9940   25.7400 C   0  0  0  0  0  1  0  0  0  0  0  0
  -27.1000  -30.0870   24.0340 C   0  0  0  0  0  1  0  0  0  0  0  0
  -27.6810  -32.1570   25.2710 C   0  0  0  0  0  1  0  0  0  0  0  0
  1  2  2  0
  1  7  1  0
  2  5  1  0
  3  4  2  0
  5  3  1  0
  6  3  1  0
  7  6  1  0
  8 12  1  0
 10  8  2  0
 10 13  1  0
 11  9  1  0
 12  9  2  0
 12  7  1  0
 13 22  1  0
 13 11  2  0
 14 22  1  0
 15 20  1  0
 16 17  1  0
 16 15  1  0
 18 17  1  0
 18 27  1  0
 18 19  1  0
 20 14  1  0
 20 19  1  0
 21 14  2  0
 22 23  1  0
 24 25  2  0
 25 44  1  0
 26 29  1  0
 26 25  1  0
 27 28  1  0
 27 24  1  0
 28 26  2  0
 29 30  1  0
 30 31  2  0
 32 35  1  0
 32 31  1  0
 33 32  2  0
 34 33  1  0
 34 29  2  0
 35 36  1  0
 36 37  1  0
 37 38  2  0
 39 38  1  0
 39 43  1  0
 40 39  2  0
 41 36  2  0
 41 40  1  0
 42 41  1  0
 44 45  1  0
 45 47  1  0
 45 48  1  0
 46 44  2  0
 49 24  1  0
 49 50  1  0
 51 49  1  0
 52 53  1  0
 52  2  1  0
 54 65  2  0
 55 53  1  0
 55 60  1  0
 56 64  1  0
 56 66  1  0
 57 63  1  0
 57 59  1  0
 58 64  1  0
 59 58  1  0
 60 59  2  0
 61 62  1  0
 61 55  2  0
 62 57  2  0
 63 56  1  0
 64 54  1  0
 66 68  2  0
 67 66  1  0
 69 67  1  0
 70 79  2  0
 70 75  1  0
 71 67  1  0
 71 75  1  0
 72 71  1  0
 73 74  1  0
 73 72  1  0
 74 70  1  0
 75 76  2  0
 76 77  1  0
 78 77  2  0
 79 78  1  0
 80 54  1  0
 80 81  1  0
 80 90  1  0
 81 84  1  0
 82 86  1  0
 82 81  1  0
 83 82  2  0
 86 85  1  0
 88 86  1  0
 88 89  1  0
 88 87  1  0
 90 93  1  1
 90 91  1  0
 92 90  1  0
M  ISO  4  14 100  22 100  52 101  53 101
M  END
>  <TORSDO>  (45) 
F 18

>  <SCORE>  (45) 
-13.018

>  <name>  (45) 
44

>  <ligand_id>  (45) 
44

>  <original_smiles>  (45) 
[H]C([H])=C1C([H])([H])C(C([H])([H])Oc2c([H])c([H])c3c(c2[H])C([H])([H])N(C(=O)C([H])(N([H])C(=O)C([H])(N([H])C([H])([H])[H])C([H])([H])[H])C(C([H])([H])[H])(C([H])([H])[H])C([H])([H])[H])C([H])(C(=O)N([H])C2([H])c4c([H])c([H])c([H])c([H])c4C([H])([H])C([H])([H])C2([H])[H])C3([H])[H])=C([H])N(c2c([H])c([H])c(N([H])C(=O)N3C([H])([H])C([H])([H])C([H])([H])C([H])(n4nc(-c5c([H])c([H])c(Oc6c([H])c([H])c(F)c([H])c6F)c([H])c5[H])c(C(=O)N([H])[H])c4N([H])[H])C3([H])[H])c([H])c2[H])C1([H])[H]

>  <smiles>  (45) 
[H]C([H])=C1C([H])([H])C(C([H])([H])Oc2c([H])c([H])c3c(c2[H])C([H])([H])N(C(=O)C([H])(N([H])C(=O)C([H])(N([H])C([H])([H])[H])C([H])([H])[H])C(C([H])([H])[H])(C([H])([H])[H])C([H])([H])[H])C([H])(C(=O)N([H])C2([H])c4c([H])c([H])c([H])c([H])c4C([H])([H])C([H])([H])C2([H])[H])C3([H])[H])=C([H])N(c2c([H])c([H])c(N([H])C(=O)N3C([H])([H])C([H])([H])C([H])([H])C([H])(n4nc(-c5c([H])c([H])c(Oc6c([H])c([H])c(F)c([H])c6F)c([H])c5[H])c(C(=O)N([H])[H])c4N([H])[H])C3([H])[H])c([H])c2[H])C1([H])[H]

$$$$
45:0:0
     RDKit          3D

101110  0  0  1  0  0  0  0  0999 V2000
  -29.1580  -18.5640   20.1550 C   0  0  0  0  0  3  0  0  0  0  0  0
  -31.4820  -17.9260   20.2900 C   0  0  0  0  0  3  0  0  0  0  0  0
  -29.4760  -19.9810   19.9400 C   0  0  0  0  0  0  0  0  0  0  0  0
  -30.8720  -20.3010   19.8930 C   0  0  0  0  0  0  0  0  0  0  0  0
  -30.1400  -17.4950   20.3160 C   0  0  0  0  0  0  0  0  0  0  0  0
  -31.8360  -19.2730   20.0910 C   0  0  0  0  0  0  0  0  0  0  0  0
  -33.1590  -19.5710   20.1340 F   0  0  0  0  0  0  0  0  0  0  0  0
  -30.6780  -14.9450   20.7340 C   0  0  0  0  0  0  0  0  0  0  0  0
  -30.7470  -12.4790   20.2950 C   0  0  0  0  0  2  0  0  0  0  0  0
  -29.9910  -12.1660   18.9850 C   0  0  0  0  0  2  0  0  0  0  0  0
  -28.4900  -11.9580   19.2640 C   0  0  0  0  0  2  0  0  0  0  0  0
  -27.8920  -13.0680   20.1710 C   0  0  0  0  0  3  0  0  0  0  0  0
  -28.7870  -13.3670   21.3920 C   0  0  0  0  0  2  0  0  0  0  0  0
  -30.1260  -13.6890   20.8840 N   0  0  0  0  0  0  0  0  0  0  0  0
  -31.8940  -15.0340   20.5450 O   0  0  0  0  0  0  0  0  0  0  0  0
  -29.8370  -16.0470   20.5630 N   0  0  0  0  0  0  0  0  0  0  0  0
  -28.8570  -15.8130   20.5970 H   0  0  0  0  0  0  0  0  0  0  0  0
  -25.4500  -13.6430   20.6940 C   0  0  0  0  0  0  0  0  0  0  0  0
  -24.3640  -12.8640   20.9850 C   0  0  0  0  0  0  0  0  0  0  0  0
  -24.8390  -11.5170   21.0150 C   0  0  0  0  0  0  0  0  0  0  0  0
  -26.5170  -12.7700   20.5570 N   0  0  0  0  0  0  0  0  0  0  0  0
  -26.1530  -11.4870   20.8150 N   0  0  0  0  0  0  0  0  0  0  0  0
  -24.1100  -10.2500   21.1630 C   0  0  0  0  0  0  0  0  0  0  0  0
  -24.5100   -9.2730   22.1010 C   0  0  0  0  0  3  0  0  0  0  0  0
  -23.7780   -8.0730   22.2390 C   0  0  0  0  0  3  0  0  0  0  0  0
  -22.6350   -7.8420   21.4380 C   0  0  0  0  0  0  0  0  0  0  0  0
  -22.2540   -8.8090   20.4910 C   0  0  0  0  0  3  0  0  0  0  0  0
  -22.9860  -10.0000   20.3520 C   0  0  0  0  0  3  0  0  0  0  0  0
  -21.8780   -6.6960   21.4850 O   0  0  0  0  0  0  0  0  0  0  0  0
  -21.8080   -5.9250   22.6190 C   0  0  0  0  0  0  0  0  0  0  0  0
  -21.3270   -6.4400   23.8420 C   0  0  0  0  0  3  0  0  0  0  0  0
  -21.2080   -5.5960   24.9630 C   0  0  0  0  0  3  0  0  0  0  0  0
  -21.5590   -4.2360   24.8620 C   0  0  0  0  0  0  0  0  0  0  0  0
  -22.0320   -3.7190   23.6420 C   0  0  0  0  0  3  0  0  0  0  0  0
  -22.1530   -4.5620   22.5230 C   0  0  0  0  0  0  0  0  0  0  0  0
  -22.5900   -4.0550   21.3450 F   0  0  0  0  0  0  0  0  0  0  0  0
  -21.4360   -3.4220   25.9360 F   0  0  0  0  0  0  0  0  0  0  0  0
  -22.9450  -13.3320   21.1300 C   0  0  0  0  0  0  0  0  0  0  0  0
  -22.1560  -12.6500   21.9520 N   0  0  0  0  0  0  0  0  0  0  0  0
  -22.5430  -14.3410   20.5510 O   0  0  0  0  0  0  0  0  0  0  0  0
  -22.4940  -11.8340   22.4420 H   0  0  0  0  0  0  0  0  0  0  0  0
  -21.2000  -12.9450   22.0920 H   0  0  0  0  0  0  0  0  0  0  0  0
  -25.6150  -15.0110   20.5050 N   0  0  0  0  0  0  0  0  0  0  0  0
  -24.8300  -15.6540   20.5350 H   0  0  0  0  0  0  0  0  0  0  0  0
  -26.4740  -15.4530   20.2050 H   0  0  0  0  0  0  0  0  0  0  0  0
  -32.6010  -24.2040   19.6630 C   0  0  0  0  0  0  0  0  0  0  0  0
  -31.5960  -23.9000   20.6750 C   0  0  0  0  0  0  0  0  0  0  0  0
  -33.4450  -25.2460   19.7880 C   0  0  0  0  0  2  0  0  0  0  0  0
  -30.9710  -24.8730   21.3620 C   0  0  0  0  0  2  0  0  0  0  0  0
  -32.7050  -23.2730   18.4670 C   0  0  0  0  0  2  0  0  0  0  0  0
  -31.2310  -22.4430   20.9190 C   0  0  0  0  0  2  0  0  0  0  0  0
  -32.5330  -21.8050   18.8880 C   0  0  0  0  0  2  0  0  0  0  0  0
  -31.3290  -21.6270   19.7080 N   0  0  0  0  0  0  0  0  0  0  0  0
  -28.3600  -21.0900   19.8730 C   0  0  0  0  0  0  0  0  0  0  0  0
  -28.6260  -22.4320   19.6340 N   0  0  0  0  0  0  0  0  0  0  0  0
  -27.1940  -20.7400   20.0630 O   0  0  0  0  0  0  0  0  0  0  0  0
  -29.6210  -22.6050   19.5120 H   0  0  0  0  0  0  0  0  0  0  0  0
  -27.7630  -23.6800   19.8830 C   0  0  0  0  0  2  0  0  0  0  0  0
  -29.2980  -25.0350   18.3080 C   0  0  0  0  0  1  0  0  0  0  0  0
  -27.9230  -25.0260   18.9820 C   0  0  0  0  0  3  0  0  0  0  0  0
  -27.8810  -26.3990   19.5880 O   0  0  0  0  0  0  0  0  0  0  0  0
  -24.5950  -31.7400   23.1640 C   0  0  0  0  0  0  0  0  0  0  0  0
  -26.7780  -27.2790   19.6250 C   0  0  0  0  0  0  0  0  0  0  0  0
  -23.2170  -30.5190   21.5140 C   0  0  0  0  0  3  0  0  0  0  0  0
  -24.4950  -29.0060   19.8830 C   0  0  0  0  0  0  0  0  0  0  0  0
  -25.7510  -30.7320   21.1800 C   0  0  0  0  0  2  0  0  0  0  0  0
  -25.7200  -29.4000   20.4320 C   0  0  0  0  0  0  0  0  0  0  0  0
  -26.8580  -28.5470   20.2940 C   0  0  0  0  0  3  0  0  0  0  0  0
  -25.5280  -26.9430   19.0590 C   0  0  0  0  0  3  0  0  0  0  0  0
  -24.4020  -27.7860   19.1900 C   0  0  0  0  0  3  0  0  0  0  0  0
  -23.3070  -29.9300   20.0800 C   0  0  0  0  0  2  0  0  0  0  0  0
  -24.5450  -31.0120   22.0080 N   0  0  0  0  0  0  0  0  0  0  0  0
  -23.5650  -32.0230   23.7930 O   0  0  0  0  0  0  0  0  0  0  0  0
  -22.5700  -29.4700   22.4510 C   0  0  0  0  0  0  0  0  0  0  0  0
  -21.2360  -29.3230   22.3690 N   0  0  0  0  0  0  0  0  0  0  0  0
  -23.2680  -28.7910   23.2100 O   0  0  0  0  0  0  0  0  0  0  0  0
  -20.7320  -29.9240   21.7330 H   0  0  0  0  0  0  0  0  0  0  0  0
  -17.8730  -28.0850   22.8660 C   0  0  0  0  0  0  0  0  0  0  0  0
  -20.4310  -28.3590   23.1210 C   0  0  0  0  0  3  0  0  0  0  0  0
  -20.5390  -26.9430   22.5110 C   0  0  0  0  0  2  0  0  0  0  0  0
  -19.4320  -26.6380   21.4950 C   0  0  0  0  0  2  0  0  0  0  0  0
  -18.0530  -26.7580   22.1510 C   0  0  0  0  0  2  0  0  0  0  0  0
  -18.9890  -28.8450   23.3060 C   0  0  0  0  0  0  0  0  0  0  0  0
  -18.7660  -30.0910   23.9340 C   0  0  0  0  0  3  0  0  0  0  0  0
  -17.4590  -30.5760   24.1250 C   0  0  0  0  0  3  0  0  0  0  0  0
  -16.3570  -29.8150   23.6990 C   0  0  0  0  0  3  0  0  0  0  0  0
  -16.5650  -28.5710   23.0770 C   0  0  0  0  0  3  0  0  0  0  0  0
  -25.9460  -32.2710   23.7380 C   0  0  0  0  0  3  0  0  0  0  0  0
  -26.5120  -31.3840   24.9160 C   0  0  1  0  0  0  0  0  0  0  0  0
  -25.4910  -31.1270   26.0510 C   0  0  0  0  0  1  0  0  0  0  0  0
  -26.9870  -30.0100   24.3920 C   0  0  0  0  0  1  0  0  0  0  0  0
  -27.7520  -32.0700   25.5360 C   0  0  0  0  0  1  0  0  0  0  0  0
  -25.7270  -33.6510   24.1950 N   0  0  0  0  0  0  0  0  0  0  0  0
  -26.0730  -34.7470   23.5060 C   0  0  0  0  0  0  0  0  0  0  0  0
  -26.6830  -34.6970   22.4350 O   0  0  0  0  0  0  0  0  0  0  0  0
  -25.1880  -33.7650   25.0410 H   0  0  0  0  0  0  0  0  0  0  0  0
  -24.4230  -36.6430   23.3950 C   0  0  0  0  0  1  0  0  0  0  0  0
  -25.6820  -36.1150   24.1000 C   0  0  0  0  0  3  0  0  0  0  0  0
  -27.8990  -36.8280   24.8770 C   0  0  0  0  0  1  0  0  0  0  0  0
  -26.7590  -37.1270   24.0140 N   0  0  0  0  0  0  0  0  0  0  0  0
  -26.4090  -38.0480   24.2620 H   0  0  0  0  0  0  0  0  0  0  0  0
  1  5  1  0
  2  5  2  0
  3  1  2  0
  4  3  1  0
  4  6  2  0
  5 16  1  0
  6  7  1  0
  6  2  1  0
  8 14  1  0
  9 14  1  0
 10 11  1  0
 10  9  1  0
 12 11  1  0
 12 21  1  0
 12 13  1  0
 14 13  1  0
 15  8  2  0
 16 17  1  0
 16  8  1  0
 18 19  2  0
 19 20  1  0
 19 38  1  0
 20 23  1  0
 21 18  1  0
 21 22  1  0
 22 20  2  0
 23 24  1  0
 24 25  2  0
 26 29  1  0
 26 25  1  0
 27 26  2  0
 28 27  1  0
 28 23  2  0
 29 30  1  0
 30 31  1  0
 31 32  2  0
 33 32  1  0
 33 37  1  0
 34 33  2  0
 35 30  2  0
 35 34  1  0
 36 35  1  0
 38 39  1  0
 39 42  1  0
 39 41  1  0
 40 38  2  0
 43 44  1  0
 43 18  1  0
 45 43  1  0
 46 48  2  0
 46 47  1  0
 47 51  1  0
 47 49  2  0
 50 52  1  0
 50 46  1  0
 52 53  1  0
 53  4  1  0
 53 51  1  0
 54  3  1  0
 54 56  2  0
 55 54  1  0
 55 58  1  0
 57 55  1  0
 60 59  1  0
 60 61  1  0
 60 58  1  0
 61 63  1  0
 62 73  2  0
 63 68  1  0
 64 72  1  0
 64 74  1  0
 65 71  1  0
 65 67  1  0
 66 72  1  0
 67 66  1  0
 68 67  2  0
 69 70  1  0
 69 63  2  0
 70 65  2  0
 71 64  1  0
 72 62  1  0
 74 76  2  0
 75 74  1  0
 77 75  1  0
 78 87  2  0
 78 83  1  0
 79 75  1  0
 79 83  1  0
 80 79  1  0
 81 82  1  0
 81 80  1  0
 82 78  1  0
 83 84  2  0
 84 85  1  0
 86 85  2  0
 87 86  1  0
 88 62  1  0
 88 93  1  0
 88 89  1  0
 89 92  1  1
 89 90  1  0
 91 89  1  0
 93 96  1  0
 94 98  1  0
 94 93  1  0
 95 94  2  0
 98 97  1  0
100 98  1  0
100101  1  0
100 99  1  0
M  ISO  4   8 100  16 100  60 101  61 101
M  END
>  <TORSDO>  (46) 
F 20

>  <SCORE>  (46) 
-12.918

>  <name>  (46) 
45

>  <ligand_id>  (46) 
45

>  <original_smiles>  (46) 
[H]C([H])=C1C(=C([H])[H])C([H])([H])C([H])([H])N(c2c(F)c([H])c(N([H])C(=O)N3C([H])([H])C([H])([H])C([H])([H])C([H])(n4nc(-c5c([H])c([H])c(Oc6c([H])c([H])c(F)c([H])c6F)c([H])c5[H])c(C(=O)N([H])[H])c4N([H])[H])C3([H])[H])c([H])c2C(=O)N([H])C([H])([H])C([H])(Oc2c([H])c([H])c3c(c2[H])C([H])([H])N(C(=O)C([H])(N([H])C(=O)C([H])(N([H])C([H])([H])[H])C([H])([H])[H])C(C([H])([H])[H])(C([H])([H])[H])C([H])([H])[H])C([H])(C(=O)N([H])C2([H])c4c([H])c([H])c([H])c([H])c4C([H])([H])C([H])([H])C2([H])[H])C3([H])[H])C([H])([H])[H])C1([H])[H]

>  <smiles>  (46) 
[H]C([H])=C1C(=C([H])[H])C([H])([H])C([H])([H])N(c2c(F)c([H])c(N([H])C(=O)N3C([H])([H])C([H])([H])C([H])([H])C([H])(n4nc(-c5c([H])c([H])c(Oc6c([H])c([H])c(F)c([H])c6F)c([H])c5[H])c(C(=O)N([H])[H])c4N([H])[H])C3([H])[H])c([H])c2C(=O)N([H])C([H])([H])C([H])(Oc2c([H])c([H])c3c(c2[H])C([H])([H])N(C(=O)C([H])(N([H])C(=O)C([H])(N([H])C([H])([H])[H])C([H])([H])[H])C(C([H])([H])[H])(C([H])([H])[H])C([H])([H])[H])C([H])(C(=O)N([H])C2([H])c4c([H])c([H])c([H])c([H])c4C([H])([H])C([H])([H])C2([H])[H])C3([H])[H])C([H])([H])[H])C1([H])[H]

$$$$
46:0:0
     RDKit          3D

 97103  0  0  1  0  0  0  0  0999 V2000
  -22.2320  -26.8140   18.7130 C   0  0  0  0  0  0  0  0  0  0  0  0
  -22.7250  -27.4000   19.8930 C   0  0  0  0  0  3  0  0  0  0  0  0
  -22.7840  -25.3820   18.1490 C   0  0  0  0  0  0  0  0  0  0  0  0
  -23.7910  -25.9080   19.8200 C   0  0  0  0  0  2  0  0  0  0  0  0
  -21.0870  -27.4690   17.9590 C   0  0  0  0  0  1  0  0  0  0  0  0
  -23.8810  -24.6520   18.7560 N   0  0  0  0  0  0  0  0  0  0  0  0
  -22.2760  -24.8760   17.1480 O   0  0  0  0  0  0  0  0  0  0  0  0
  -23.9680  -20.4930   18.5040 C   0  0  0  0  0  3  0  0  0  0  0  0
  -25.2290  -19.8020   18.4190 C   0  0  0  0  0  3  0  0  0  0  0  0
  -23.7000  -21.9090   18.5760 C   0  0  0  0  0  3  0  0  0  0  0  0
  -26.0690  -22.0540   18.4740 C   0  0  0  0  0  3  0  0  0  0  0  0
  -26.4990  -20.4180   18.3730 C   0  0  0  0  0  0  0  0  0  0  0  0
  -24.6540  -22.9680   18.6050 C   0  0  0  0  0  0  0  0  0  0  0  0
  -29.9830  -16.5160   19.0680 C   0  0  0  0  0  0  0  0  0  0  0  0
  -30.8870  -13.9270   18.9050 C   0  0  0  0  0  2  0  0  0  0  0  0
  -30.1420  -13.0390   17.8660 C   0  0  0  0  0  2  0  0  0  0  0  0
  -28.7780  -12.5800   18.4140 C   0  0  0  0  0  2  0  0  0  0  0  0
  -28.1170  -13.7090   19.2350 C   0  0  0  0  0  3  0  0  0  0  0  0
  -29.0460  -14.3410   20.2590 C   0  0  0  0  0  2  0  0  0  0  0  0
  -29.9770  -15.0770   19.4090 N   0  0  0  0  0  0  0  0  0  0  0  0
  -31.2150  -16.7260   18.8110 O   0  0  0  0  0  0  0  0  0  0  0  0
  -27.9660  -19.1790   18.3140 C   0  0  0  0  0  0  0  0  0  0  0  0
  -28.5770  -17.7520   18.8730 N   0  0  0  0  0  0  0  0  0  0  0  0
  -28.8420  -19.6780   17.4550 N   0  0  0  0  0  4  0  0  0  0  0  0
  -27.7010  -17.3900   19.1870 H   0  0  0  0  0  0  0  0  0  0  0  0
  -28.6400  -20.5890   17.0720 H   0  0  0  0  0  0  0  0  0  0  0  0
  -29.5150  -19.0620   17.0200 H   0  0  0  0  0  0  0  0  0  0  0  0
  -25.8970  -14.2830   20.2330 C   0  0  0  0  0  0  0  0  0  0  0  0
  -24.8560  -13.5190   20.6620 C   0  0  0  0  0  0  0  0  0  0  0  0
  -25.2930  -12.1640   20.5480 C   0  0  0  0  0  0  0  0  0  0  0  0
  -26.8680  -13.3850   19.8430 N   0  0  0  0  0  0  0  0  0  0  0  0
  -26.5460  -12.1020   20.1120 N   0  0  0  0  0  0  0  0  0  0  0  0
  -24.5730  -10.9110   20.7520 C   0  0  0  0  0  0  0  0  0  0  0  0
  -24.9340  -10.0180   21.7820 C   0  0  0  0  0  3  0  0  0  0  0  0
  -24.2070   -8.8260   21.9700 C   0  0  0  0  0  3  0  0  0  0  0  0
  -23.1100   -8.5280   21.1250 C   0  0  0  0  0  0  0  0  0  0  0  0
  -22.7760   -9.4130   20.0850 C   0  0  0  0  0  3  0  0  0  0  0  0
  -23.5050  -10.5960   19.8940 C   0  0  0  0  0  3  0  0  0  0  0  0
  -22.3570   -7.3830   21.2190 O   0  0  0  0  0  0  0  0  0  0  0  0
  -21.9960   -6.8610   22.4340 C   0  0  0  0  0  0  0  0  0  0  0  0
  -21.2600   -7.6090   23.3800 C   0  0  0  0  0  3  0  0  0  0  0  0
  -20.8470   -7.0070   24.5850 C   0  0  0  0  0  3  0  0  0  0  0  0
  -21.1620   -5.6580   24.8430 C   0  0  0  0  0  0  0  0  0  0  0  0
  -21.8910   -4.9130   23.9000 C   0  0  0  0  0  3  0  0  0  0  0  0
  -22.3040   -5.5110   22.6990 C   0  0  0  0  0  0  0  0  0  0  0  0
  -22.9860   -4.7810   21.7850 F   0  0  0  0  0  0  0  0  0  0  0  0
  -20.7580   -5.0810   25.9980 F   0  0  0  0  0  0  0  0  0  0  0  0
  -23.4970  -14.0220   21.0430 C   0  0  0  0  0  0  0  0  0  0  0  0
  -22.8370  -13.3430   21.9700 N   0  0  0  0  0  0  0  0  0  0  0  0
  -23.0470  -15.0540   20.5480 O   0  0  0  0  0  0  0  0  0  0  0  0
  -23.2280  -12.5130   22.3830 H   0  0  0  0  0  0  0  0  0  0  0  0
  -21.9320  -13.6660   22.2690 H   0  0  0  0  0  0  0  0  0  0  0  0
  -26.1020  -15.6540   20.1140 N   0  0  0  0  0  0  0  0  0  0  0  0
  -25.4350  -16.3610   20.4030 H   0  0  0  0  0  0  0  0  0  0  0  0
  -26.9310  -16.0090   19.6740 H   0  0  0  0  0  0  0  0  0  0  0  0
  -22.5220  -29.0070   21.5470 C   0  0  0  0  0 15  0  0  0  0  0  0
  -25.1390  -28.2940   22.3280 O   0  0  0  0  0  1  0  0  0  0  0  0
  -24.6180  -30.8850   23.1270 C   0  0  0  0  0  0  0  0  0  0  0  0
  -26.3270  -27.6230   21.5520 C   0  0  0  0  0  3  0  0  0  0  0  0
  -24.4090  -29.0900   20.6220 C   0  0  0  0  0  2  0  0  0  0  0  0
  -25.9900  -28.9830   19.4230 C   0  0  0  0  0  3  0  0  0  0  0  0
  -26.1870  -30.7650   21.2380 C   0  0  0  0  0  2  0  0  0  0  0  0
  -26.7470  -29.5450   20.5190 C   0  0  0  0  0  3  0  0  0  0  0  0
  -27.3150  -28.5880   21.3610 C   0  0  0  0  0  2  0  0  0  0  0  0
  -26.3330  -26.8990   20.3090 C   0  0  0  0  0  2  0  0  0  0  0  0
  -26.0850  -27.6290   19.1470 C   0  0  0  0  0  2  0  0  0  0  0  0
  -24.6460  -29.4050   19.1980 C   0  0  0  0  0  2  0  0  0  0  0  0
  -24.8380  -30.4700   21.6990 N   0  0  0  0  0  0  0  0  0  0  0  0
  -23.4870  -30.9570   23.6430 O   0  0  0  0  0  0  0  0  0  0  0  0
  -23.3200  -27.1160   22.3880 C   0  0  0  0  0  2  0  0  0  0  0  0
  -21.8360  -26.9660   22.3890 N   0  0  0  0  0  0  0  0  0  0  0  0
  -23.4960  -27.2780   23.5940 O   0  0  0  0  0  1  0  0  0  0  0  0
  -21.5920  -26.7910   21.4250 H   0  0  0  0  0  0  0  0  0  0  0  0
  -18.0410  -28.0930   22.1740 C   0  0  0  0  0  0  0  0  0  0  0  0
  -20.4830  -27.3180   23.0640 C   0  0  0  0  0  3  0  0  0  0  0  0
  -19.8930  -26.0840   22.4140 C   0  0  0  0  0  2  0  0  0  0  0  0
  -19.3290  -26.2970   21.0030 C   0  0  0  0  0  2  0  0  0  0  0  0
  -18.0360  -27.0780   21.0680 C   0  0  0  0  0  2  0  0  0  0  0  0
  -19.2540  -28.4130   22.8980 C   0  0  0  0  0  0  0  0  0  0  0  0
  -19.0900  -29.5280   23.7780 C   0  0  0  0  0  3  0  0  0  0  0  0
  -17.8420  -30.2020   23.9660 C   0  0  0  0  0  3  0  0  0  0  0  0
  -16.6770  -29.7700   23.3140 C   0  0  0  0  0  3  0  0  0  0  0  0
  -16.7890  -28.7160   22.4090 C   0  0  0  0  0  3  0  0  0  0  0  0
  -25.7350  -31.4080   24.2490 C   0  0  0  0  0  3  0  0  0  0  0  0
  -25.5810  -32.8540   24.6110 N   0  0  0  0  0  0  0  0  0  0  0  0
  -26.3610  -33.8750   24.1920 C   0  0  0  0  0  0  0  0  0  0  0  0
  -27.2550  -33.7050   23.3690 O   0  0  0  0  0  0  0  0  0  0  0  0
  -24.8290  -33.0670   25.2470 H   0  0  0  0  0  0  0  0  0  0  0  0
  -25.1560  -36.0470   23.7480 C   0  0  0  0  0  1  0  0  0  0  0  0
  -26.0930  -35.3080   24.7200 C   0  0  0  0  0  3  0  0  0  0  0  0
  -28.1470  -35.7150   26.0230 C   0  0  0  0  0  1  0  0  0  0  0  0
  -27.3080  -36.1380   24.9070 N   0  0  0  0  0  0  0  0  0  0  0  0
  -27.0610  -37.1130   25.0550 H   0  0  0  0  0  0  0  0  0  0  0  0
  -25.8380  -30.6320   25.6680 C   0  0  1  0  0  0  0  0  0  0  0  0
  -24.5290  -30.6340   26.4950 C   0  0  0  0  0  1  0  0  0  0  0  0
  -26.2690  -29.1690   25.4840 C   0  0  0  0  0  1  0  0  0  0  0  0
  -26.9360  -31.2460   26.5970 C   0  0  0  0  0  1  0  0  0  0  0  0
  1  2  2  0
  3  1  1  0
  3  6  1  0
  4  2  1  0
  5  1  1  0
  6  4  1  0
  7  3  2  0
  8 10  1  0
  9  8  2  0
 10 13  2  0
 11 13  1  0
 12  9  1  0
 12 11  2  0
 13  6  1  0
 14 20  1  0
 15 20  1  0
 16 17  1  0
 16 15  1  0
 18 17  1  0
 18 31  1  0
 18 19  1  0
 20 19  1  0
 21 14  2  0
 22 12  1  0
 22 23  1  0
 23 14  1  0
 23 25  1  0
 24 22  2  0
 26 24  1  0
 27 24  1  0
 28 29  2  0
 29 48  1  0
 30 29  1  0
 30 33  1  0
 31 32  1  0
 31 28  1  0
 32 30  2  0
 33 34  1  0
 34 35  2  0
 36 39  1  0
 36 35  1  0
 37 36  2  0
 38 37  1  0
 38 33  2  0
 39 40  1  0
 40 45  2  0
 40 41  1  0
 41 42  2  0
 42 43  1  0
 43 47  1  0
 44 43  2  0
 45 44  1  0
 46 45  1  0
 48 49  1  0
 49 52  1  0
 49 51  1  0
 50 48  2  0
 53 28  1  0
 53 54  1  0
 55 53  1  0
 58 69  2  0
 59 57  1  0
 60 68  1  0
 61 66  1  0
 61 63  1  0
 62 68  1  0
 63 62  1  0
 63 64  1  0
 64 59  1  0
 65 59  1  0
 66 65  1  0
 67 61  1  0
 67 60  1  0
 68 58  1  0
 70 71  1  0
 70 72  1  0
 73 71  1  0
 74 83  2  0
 74 79  1  0
 75 71  1  0
 76 75  1  0
 77 78  1  0
 77 76  1  0
 78 74  1  0
 79 75  1  0
 79 80  2  0
 80 81  1  0
 82 81  2  0
 83 82  1  0
 84 58  1  0
 84 85  1  0
 84 94  1  0
 85 88  1  0
 86 85  1  0
 86 90  1  0
 87 86  2  0
 90 89  1  0
 90 92  1  0
 92 93  1  0
 92 91  1  0
 94 95  1  1
 94 97  1  0
 96 94  1  0
M  ISO  4  14 100  23 100  56 101  57 101
M  END
>  <TORSDO>  (47) 
F 18

>  <SCORE>  (47) 
-11.351

>  <name>  (47) 
46

>  <ligand_id>  (47) 
46

>  <original_smiles>  (47) 
[H]c1c([H])c(C(N([H])C(=O)N2C([H])([H])C([H])([H])C([H])([H])C([H])(n3nc(-c4c([H])c([H])c(Oc5c([H])c([H])c(F)c([H])c5F)c([H])c4[H])c(C(=O)N([H])[H])c3N([H])[H])C2([H])[H])=[N+]([H])[H])c([H])c(N2C(=O)C(C([H])([H])[H])=C(C([H])([H])Oc3c([H])c([H])c4c(c3[H])C([H])([H])N(C(=O)C([H])(N([H])C(=O)C([H])(N([H])C([H])([H])[H])C([H])([H])[H])C(C([H])([H])[H])(C([H])([H])[H])C([H])([H])[H])C([H])(C(=O)N([H])C3([H])c5c([H])c([H])c([H])c([H])c5C([H])([H])C([H])([H])C3([H])[H])C4([H])[H])C2([H])[H])c1[H]

>  <smiles>  (47) 
[H]c1c([H])c(C(N([H])C(=O)N2C([H])([H])C([H])([H])C([H])([H])C([H])(n3nc(-c4c([H])c([H])c(Oc5c([H])c([H])c(F)c([H])c5F)c([H])c4[H])c(C(=O)N([H])[H])c3N([H])[H])C2([H])[H])=[N+]([H])[H])c([H])c(N2C(=O)C(C([H])([H])[H])=C(C([H])([H])Oc3c([H])c([H])c4c(c3[H])C([H])([H])N(C(=O)C([H])(N([H])C(=O)C([H])(N([H])C([H])([H])[H])C([H])([H])[H])C(C([H])([H])[H])(C([H])([H])[H])C([H])([H])[H])C([H])(C(=O)N([H])C3([H])c5c([H])c([H])c([H])c([H])c5C([H])([H])C([H])([H])C3([H])[H])C4([H])[H])C2([H])[H])c1[H]

$$$$
47:0:0
     RDKit          3D

 94103  0  0  1  0  0  0  0  0999 V2000
  -27.9570  -22.2830   21.0920 C   0  0  0  0  0  0  0  0  0  0  0  0
  -29.0450  -22.6340   19.2270 C   0  0  0  0  0  0  0  0  0  0  0  0
  -27.6030  -23.7350   20.7340 C   0  0  0  0  0  2  0  0  0  0  0  0
  -28.1380  -23.9300   19.3140 C   0  0  2  0  0  0  0  0  0  0  0  0
  -27.0630  -23.6100   18.2320 C   0  0  0  0  0  1  0  0  0  0  0  0
  -28.7320  -21.6720   20.1560 N   0  0  0  0  0  0  0  0  0  0  0  0
  -27.5540  -21.8120   22.1610 O   0  0  0  0  0  0  0  0  0  0  0  0
  -29.9010  -22.5280   18.3430 O   0  0  0  0  0  0  0  0  0  0  0  0
  -30.1410  -19.6120   19.3900 C   0  0  0  0  0  3  0  0  0  0  0  0
  -28.3410  -19.2340   20.9040 C   0  0  0  0  0  3  0  0  0  0  0  0
  -30.4760  -18.2070   19.4430 C   0  0  0  0  0  3  0  0  0  0  0  0
  -28.6520  -17.8470   20.9390 C   0  0  0  0  0  3  0  0  0  0  0  0
  -29.0820  -20.2040   20.1560 C   0  0  0  0  0  0  0  0  0  0  0  0
  -29.7440  -17.2770   20.2360 C   0  0  0  0  0  0  0  0  0  0  0  0
  -30.7870  -14.8550   19.8680 C   0  0  0  0  0  0  0  0  0  0  0  0
  -30.6330  -12.5790   18.8440 C   0  0  0  0  0  2  0  0  0  0  0  0
  -29.5930  -12.6720   17.7030 C   0  0  0  0  0  2  0  0  0  0  0  0
  -28.1510  -12.5000   18.2270 C   0  0  0  0  0  2  0  0  0  0  0  0
  -27.8720  -13.3660   19.4860 C   0  0  0  0  0  3  0  0  0  0  0  0
  -29.0060  -13.1840   20.5200 C   0  0  0  0  0  2  0  0  0  0  0  0
  -30.2650  -13.5810   19.8640 N   0  0  0  0  0  0  0  0  0  0  0  0
  -31.9020  -15.0880   19.3800 O   0  0  0  0  0  0  0  0  0  0  0  0
  -29.9320  -15.8180   20.3490 N   0  0  0  0  0  0  0  0  0  0  0  0
  -29.1740  -15.3760   20.8440 H   0  0  0  0  0  0  0  0  0  0  0  0
  -25.5680  -13.9860   20.4500 C   0  0  0  0  0  0  0  0  0  0  0  0
  -24.5140  -13.2180   20.8700 C   0  0  0  0  0  0  0  0  0  0  0  0
  -24.9350  -11.8600   20.7240 C   0  0  0  0  0  0  0  0  0  0  0  0
  -26.5590  -13.0940   20.0670 N   0  0  0  0  0  0  0  0  0  0  0  0
  -26.1900  -11.8060   20.2950 N   0  0  0  0  0  0  0  0  0  0  0  0
  -24.1950  -10.6040   20.9120 C   0  0  0  0  0  0  0  0  0  0  0  0
  -24.6100   -9.6340   21.8500 C   0  0  0  0  0  3  0  0  0  0  0  0
  -23.8760   -8.4430   22.0220 C   0  0  0  0  0  3  0  0  0  0  0  0
  -22.7080   -8.2130   21.2580 C   0  0  0  0  0  0  0  0  0  0  0  0
  -22.3120   -9.1710   20.3060 C   0  0  0  0  0  3  0  0  0  0  0  0
  -23.0500  -10.3540   20.1330 C   0  0  0  0  0  3  0  0  0  0  0  0
  -21.9450   -7.0720   21.3400 O   0  0  0  0  0  0  0  0  0  0  0  0
  -21.7740   -6.4020   22.5260 C   0  0  0  0  0  0  0  0  0  0  0  0
  -21.2110   -7.0250   23.6620 C   0  0  0  0  0  3  0  0  0  0  0  0
  -20.9950   -6.2790   24.8380 C   0  0  0  0  0  3  0  0  0  0  0  0
  -21.3280   -4.9130   24.8790 C   0  0  0  0  0  0  0  0  0  0  0  0
  -21.8840   -4.2910   23.7470 C   0  0  0  0  0  3  0  0  0  0  0  0
  -22.1010   -5.0330   22.5730 C   0  0  0  0  0  0  0  0  0  0  0  0
  -22.6180   -4.4240   21.4790 F   0  0  0  0  0  0  0  0  0  0  0  0
  -21.1080   -4.1910   26.0040 F   0  0  0  0  0  0  0  0  0  0  0  0
  -23.1560  -13.7100   21.2880 C   0  0  0  0  0  0  0  0  0  0  0  0
  -22.4920  -12.9950   22.1890 N   0  0  0  0  0  0  0  0  0  0  0  0
  -22.6940  -14.7590   20.8430 O   0  0  0  0  0  0  0  0  0  0  0  0
  -22.8770  -12.1480   22.5810 H   0  0  0  0  0  0  0  0  0  0  0  0
  -21.5800  -13.3020   22.4940 H   0  0  0  0  0  0  0  0  0  0  0  0
  -25.7610  -15.3600   20.3330 N   0  0  0  0  0  0  0  0  0  0  0  0
  -25.0320  -16.0270   20.5580 H   0  0  0  0  0  0  0  0  0  0  0  0
  -26.5790  -15.7930   19.9250 H   0  0  0  0  0  0  0  0  0  0  0  0
  -28.8060  -25.3830   19.0490 C   0  0  0  0  0  2  0  0  0  0  0  0
  -28.5620  -26.6510   19.7920 O   0  0  0  0  0  0  0  0  0  0  0  0
  -24.6230  -31.6680   23.0810 C   0  0  0  0  0  0  0  0  0  0  0  0
  -27.3950  -27.4270   19.7480 C   0  0  0  0  0  0  0  0  0  0  0  0
  -23.4510  -30.2930   21.3970 C   0  0  0  0  0  3  0  0  0  0  0  0
  -24.9430  -28.9020   19.8580 C   0  0  0  0  0  0  0  0  0  0  0  0
  -25.9560  -30.7660   21.1700 C   0  0  0  0  0  2  0  0  0  0  0  0
  -26.0940  -29.4230   20.4610 C   0  0  0  0  0  0  0  0  0  0  0  0
  -27.3140  -28.6870   20.4170 C   0  0  0  0  0  3  0  0  0  0  0  0
  -26.2310  -26.9780   19.0970 C   0  0  0  0  0  3  0  0  0  0  0  0
  -25.0110  -27.6790   19.1710 C   0  0  0  0  0  3  0  0  0  0  0  0
  -23.6670  -29.7100   19.9750 C   0  0  0  0  0  2  0  0  0  0  0  0
  -24.6940  -30.9250   21.9410 N   0  0  0  0  0  0  0  0  0  0  0  0
  -23.5430  -31.8540   23.6590 O   0  0  0  0  0  0  0  0  0  0  0  0
  -22.8710  -29.1890   22.3150 C   0  0  0  0  0  0  0  0  0  0  0  0
  -21.5630  -28.9080   22.1720 N   0  0  0  0  0  0  0  0  0  0  0  0
  -23.5950  -28.5940   23.1180 O   0  0  0  0  0  0  0  0  0  0  0  0
  -21.0330  -29.4480   21.5030 H   0  0  0  0  0  0  0  0  0  0  0  0
  -18.2990  -27.4080   22.5900 C   0  0  0  0  0  0  0  0  0  0  0  0
  -20.8200  -27.8830   22.9100 C   0  0  0  0  0  3  0  0  0  0  0  0
  -21.0560  -26.4790   22.3090 C   0  0  0  0  0  2  0  0  0  0  0  0
  -20.0030  -26.0810   21.2690 C   0  0  0  0  0  2  0  0  0  0  0  0
  -18.6030  -26.0930   21.8910 C   0  0  0  0  0  2  0  0  0  0  0  0
  -19.3400  -28.2530   23.0550 C   0  0  0  0  0  0  0  0  0  0  0  0
  -19.0030  -29.4800   23.6700 C   0  0  0  0  0  3  0  0  0  0  0  0
  -17.6550  -29.8650   23.8170 C   0  0  0  0  0  3  0  0  0  0  0  0
  -16.6290  -29.0160   23.3670 C   0  0  0  0  0  3  0  0  0  0  0  0
  -16.9510  -27.7880   22.7630 C   0  0  0  0  0  3  0  0  0  0  0  0
  -25.8890  -32.3360   23.6990 C   0  0  0  0  0  3  0  0  0  0  0  0
  -25.5210  -33.7040   24.0860 N   0  0  0  0  0  0  0  0  0  0  0  0
  -25.7830  -34.7960   23.3540 C   0  0  0  0  0  0  0  0  0  0  0  0
  -26.4290  -34.7610   22.3030 O   0  0  0  0  0  0  0  0  0  0  0  0
  -24.9360  -33.7990   24.9010 H   0  0  0  0  0  0  0  0  0  0  0  0
  -23.9580  -36.5090   23.1110 C   0  0  0  0  0  1  0  0  0  0  0  0
  -25.2410  -36.1410   23.8710 C   0  0  0  0  0  3  0  0  0  0  0  0
  -27.3520  -37.1090   24.6710 C   0  0  0  0  0  1  0  0  0  0  0  0
  -26.2160  -37.2480   23.7640 N   0  0  0  0  0  0  0  0  0  0  0  0
  -25.7690  -38.1410   23.9530 H   0  0  0  0  0  0  0  0  0  0  0  0
  -26.4670  -31.5420   24.9350 C   0  0  1  0  0  0  0  0  0  0  0  0
  -25.4080  -31.2050   26.0110 C   0  0  0  0  0  1  0  0  0  0  0  0
  -27.1120  -30.2140   24.4790 C   0  0  0  0  0  1  0  0  0  0  0  0
  -27.5860  -32.3700   25.6090 C   0  0  0  0  0  1  0  0  0  0  0  0
  1  7  2  0
  2  4  1  0
  2  6  1  0
  3  1  1  0
  4  5  1  6
  4  3  1  0
  6  1  1  0
  8  2  2  0
  9 11  2  0
  9 13  1  0
 10 12  1  0
 11 14  1  0
 13  6  1  0
 13 10  2  0
 14 23  1  0
 14 12  2  0
 15 23  1  0
 16 21  1  0
 17 18  1  0
 17 16  1  0
 19 18  1  0
 19 28  1  0
 19 20  1  0
 21 15  1  0
 21 20  1  0
 22 15  2  0
 23 24  1  0
 25 26  2  0
 26 45  1  0
 27 26  1  0
 27 30  1  0
 28 29  1  0
 28 25  1  0
 29 27  2  0
 30 31  1  0
 31 32  2  0
 33 36  1  0
 33 32  1  0
 34 33  2  0
 35 34  1  0
 35 30  2  0
 36 37  1  0
 37 42  2  0
 37 38  1  0
 38 39  2  0
 39 40  1  0
 40 44  1  0
 41 40  2  0
 42 41  1  0
 43 42  1  0
 45 46  1  0
 46 49  1  0
 46 48  1  0
 47 45  2  0
 50 25  1  0
 50 51  1  0
 52 50  1  0
 53  4  1  0
 53 54  1  0
 55 66  2  0
 56 54  1  0
 56 61  1  0
 57 65  1  0
 57 67  1  0
 58 64  1  0
 58 60  1  0
 59 65  1  0
 60 59  1  0
 61 60  2  0
 62 63  1  0
 62 56  2  0
 63 58  2  0
 64 57  1  0
 65 55  1  0
 67 69  2  0
 68 67  1  0
 70 68  1  0
 71 80  2  0
 71 76  1  0
 72 68  1  0
 72 76  1  0
 73 72  1  0
 74 75  1  0
 74 73  1  0
 75 71  1  0
 76 77  2  0
 77 78  1  0
 79 78  2  0
 80 79  1  0
 81 55  1  0
 81 82  1  0
 81 91  1  0
 82 85  1  0
 83 87  1  0
 83 82  1  0
 84 83  2  0
 87 86  1  0
 89 87  1  0
 89 90  1  0
 89 88  1  0
 91 94  1  1
 91 92  1  0
 93 91  1  0
M  ISO  4  15 100  23 100  53 101  54 101
M  END
>  <TORSDO>  (48) 
F 18

>  <SCORE>  (48) 
-12.986

>  <name>  (48) 
47

>  <ligand_id>  (48) 
47

>  <original_smiles>  (48) 
[H]c1c([H])c([H])c2c(c1[H])C([H])([H])C([H])([H])C([H])([H])C2([H])N([H])C(=O)C1([H])N(C(=O)C([H])(N([H])C(=O)C([H])(N([H])C([H])([H])[H])C([H])([H])[H])C(C([H])([H])[H])(C([H])([H])[H])C([H])([H])[H])C([H])([H])c2c([H])c(OC([H])([H])C3(C([H])([H])[H])C(=O)N(c4c([H])c([H])c(N([H])C(=O)N5C([H])([H])C([H])([H])C([H])([H])C([H])(n6nc(-c7c([H])c([H])c(Oc8c([H])c([H])c(F)c([H])c8F)c([H])c7[H])c(C(=O)N([H])[H])c6N([H])[H])C5([H])[H])c([H])c4[H])C(=O)C3([H])[H])c([H])c([H])c2C1([H])[H]

>  <smiles>  (48) 
[H]c1c([H])c([H])c2c(c1[H])C([H])([H])C([H])([H])C([H])([H])C2([H])N([H])C(=O)C1([H])N(C(=O)C([H])(N([H])C(=O)C([H])(N([H])C([H])([H])[H])C([H])([H])[H])C(C([H])([H])[H])(C([H])([H])[H])C([H])([H])[H])C([H])([H])c2c([H])c(OC([H])([H])C3(C([H])([H])[H])C(=O)N(c4c([H])c([H])c(N([H])C(=O)N5C([H])([H])C([H])([H])C([H])([H])C([H])(n6nc(-c7c([H])c([H])c(Oc8c([H])c([H])c(F)c([H])c8F)c([H])c7[H])c(C(=O)N([H])[H])c6N([H])[H])C5([H])[H])c([H])c4[H])C(=O)C3([H])[H])c([H])c([H])c2C1([H])[H]

$$$$
48:0:0
     RDKit          3D

 95104  0  0  1  0  0  0  0  0999 V2000
  -27.4220  -22.0710   20.4650 C   0  0  0  0  0  0  0  0  0  0  0  0
  -29.4610  -22.8690   20.3530 C   0  0  0  0  0  0  0  0  0  0  0  0
  -27.2000  -23.5480   20.1280 C   0  0  0  0  0  2  0  0  0  0  0  0
  -28.6140  -24.1370   19.9140 C   0  0  2  0  0  0  0  0  0  0  0  0
  -28.9440  -24.3380   18.4150 C   0  0  0  0  0  1  0  0  0  0  0  0
  -28.7230  -21.7300   20.4970 N   0  0  0  0  0  0  0  0  0  0  0  0
  -26.4740  -21.3240   20.7370 O   0  0  0  0  0  0  0  0  0  0  0  0
  -30.6840  -22.9280   20.5200 O   0  0  0  0  0  0  0  0  0  0  0  0
  -30.1810  -19.7200   21.2680 C   0  0  0  0  0  3  0  0  0  0  0  0
  -30.5500  -18.3290   21.1700 C   0  0  0  0  0  3  0  0  0  0  0  0
  -28.9020  -18.0500   19.4540 C   0  0  0  0  0  3  0  0  0  0  0  0
  -29.1720  -20.3140   20.4450 C   0  0  0  0  0  0  0  0  0  0  0  0
  -29.9290  -17.4470   20.2360 C   0  0  0  0  0  0  0  0  0  0  0  0
  -28.5510  -19.4210   19.5300 C   0  0  0  0  0  0  0  0  0  0  0  0
  -27.6190  -19.8830   18.6600 F   0  0  0  0  0  0  0  0  0  0  0  0
  -31.0310  -15.0870   20.5860 C   0  0  0  0  0  0  0  0  0  0  0  0
  -30.9090  -12.7390   19.7720 C   0  0  0  0  0  2  0  0  0  0  0  0
  -30.0530  -12.6440   18.4880 C   0  0  0  0  0  2  0  0  0  0  0  0
  -28.5440  -12.6210   18.8010 C   0  0  0  0  0  2  0  0  0  0  0  0
  -28.0990  -13.5870   19.9350 C   0  0  0  0  0  3  0  0  0  0  0  0
  -29.0780  -13.5730   21.1240 C   0  0  0  0  0  2  0  0  0  0  0  0
  -30.4070  -13.8640   20.5830 N   0  0  0  0  0  0  0  0  0  0  0  0
  -32.2650  -15.1520   20.6010 O   0  0  0  0  0  0  0  0  0  0  0  0
  -30.5030  -15.9320   18.4150 C   0  0  0  0  0  1  0  0  0  0  0  0
  -30.3470  -16.0700   19.8800 N   0  0  0  0  0  0  0  0  0  0  0  0
  -25.6920  -14.2320   20.5410 C   0  0  0  0  0  0  0  0  0  0  0  0
  -24.5870  -13.4760   20.8330 C   0  0  0  0  0  0  0  0  0  0  0  0
  -25.0210  -12.1160   20.8080 C   0  0  0  0  0  0  0  0  0  0  0  0
  -26.7250  -13.3320   20.3540 N   0  0  0  0  0  0  0  0  0  0  0  0
  -26.3270  -12.0550   20.5860 N   0  0  0  0  0  0  0  0  0  0  0  0
  -24.2570  -10.8660   20.9260 C   0  0  0  0  0  0  0  0  0  0  0  0
  -24.6090   -9.8690   21.8630 C   0  0  0  0  0  3  0  0  0  0  0  0
  -23.8470   -8.6870   21.9710 C   0  0  0  0  0  3  0  0  0  0  0  0
  -22.7190   -8.4910   21.1380 C   0  0  0  0  0  0  0  0  0  0  0  0
  -22.3880   -9.4730   20.1900 C   0  0  0  0  0  3  0  0  0  0  0  0
  -23.1520  -10.6480   20.0810 C   0  0  0  0  0  3  0  0  0  0  0  0
  -21.9380   -7.3600   21.1570 O   0  0  0  0  0  0  0  0  0  0  0  0
  -21.7640   -6.6260   22.3030 C   0  0  0  0  0  0  0  0  0  0  0  0
  -21.1800   -7.1790   23.4630 C   0  0  0  0  0  3  0  0  0  0  0  0
  -20.9530   -6.3690   24.5930 C   0  0  0  0  0  3  0  0  0  0  0  0
  -21.3060   -5.0070   24.5650 C   0  0  0  0  0  0  0  0  0  0  0  0
  -21.8870   -4.4530   23.4110 C   0  0  0  0  0  3  0  0  0  0  0  0
  -22.1120   -5.2600   22.2820 C   0  0  0  0  0  0  0  0  0  0  0  0
  -22.6490   -4.7150   21.1630 F   0  0  0  0  0  0  0  0  0  0  0  0
  -21.0850   -4.2280   25.6480 F   0  0  0  0  0  0  0  0  0  0  0  0
  -23.1880  -13.9810   21.0220 C   0  0  0  0  0  0  0  0  0  0  0  0
  -22.3970  -13.2960   21.8440 N   0  0  0  0  0  0  0  0  0  0  0  0
  -22.8010  -15.0150   20.4760 O   0  0  0  0  0  0  0  0  0  0  0  0
  -22.7220  -12.4590   22.3040 H   0  0  0  0  0  0  0  0  0  0  0  0
  -21.4550  -13.6170   22.0200 H   0  0  0  0  0  0  0  0  0  0  0  0
  -25.8980  -15.5980   20.3870 N   0  0  0  0  0  0  0  0  0  0  0  0
  -25.1380  -16.2670   20.4290 H   0  0  0  0  0  0  0  0  0  0  0  0
  -26.7740  -16.0080   20.0930 H   0  0  0  0  0  0  0  0  0  0  0  0
  -28.8130  -25.5420   20.6830 C   0  0  0  0  0  2  0  0  0  0  0  0
  -28.7150  -26.8580   19.9990 O   0  0  0  0  0  0  0  0  0  0  0  0
  -24.6430  -31.8690   23.2450 C   0  0  0  0  0  0  0  0  0  0  0  0
  -27.5340  -27.6080   20.0440 C   0  0  0  0  0  0  0  0  0  0  0  0
  -23.5380  -30.4970   21.5120 C   0  0  0  0  0  3  0  0  0  0  0  0
  -25.0910  -29.0900   20.0460 C   0  0  0  0  0  0  0  0  0  0  0  0
  -26.0570  -30.9590   21.3860 C   0  0  0  0  0  2  0  0  0  0  0  0
  -26.2210  -29.6150   20.6870 C   0  0  0  0  0  0  0  0  0  0  0  0
  -27.4470  -28.8880   20.6710 C   0  0  0  0  0  3  0  0  0  0  0  0
  -26.3800  -27.1250   19.3940 C   0  0  0  0  0  3  0  0  0  0  0  0
  -25.1710  -27.8510   19.3900 C   0  0  0  0  0  3  0  0  0  0  0  0
  -23.8110  -29.9020   20.1040 C   0  0  0  0  0  2  0  0  0  0  0  0
  -24.7620  -31.1250   22.1050 N   0  0  0  0  0  0  0  0  0  0  0  0
  -23.5400  -32.0620   23.7750 O   0  0  0  0  0  0  0  0  0  0  0  0
  -22.9190  -29.3970   22.4070 C   0  0  0  0  0  0  0  0  0  0  0  0
  -21.6020  -29.1690   22.2640 N   0  0  0  0  0  0  0  0  0  0  0  0
  -23.6230  -28.7560   23.1930 O   0  0  0  0  0  0  0  0  0  0  0  0
  -21.0930  -29.7410   21.6060 H   0  0  0  0  0  0  0  0  0  0  0  0
  -18.2720  -27.8260   22.6960 C   0  0  0  0  0  0  0  0  0  0  0  0
  -20.8210  -28.1570   22.9750 C   0  0  0  0  0  3  0  0  0  0  0  0
  -20.9690  -26.7690   22.3070 C   0  0  0  0  0  2  0  0  0  0  0  0
  -19.8740  -26.4770   21.2760 C   0  0  0  0  0  2  0  0  0  0  0  0
  -18.4910  -26.5310   21.9310 C   0  0  0  0  0  2  0  0  0  0  0  0
  -19.3650  -28.5990   23.1710 C   0  0  0  0  0  0  0  0  0  0  0  0
  -19.1050  -29.8130   23.8440 C   0  0  0  0  0  3  0  0  0  0  0  0
  -17.7840  -30.2540   24.0470 C   0  0  0  0  0  3  0  0  0  0  0  0
  -16.7060  -29.4800   23.5850 C   0  0  0  0  0  3  0  0  0  0  0  0
  -16.9500  -28.2680   22.9160 C   0  0  0  0  0  3  0  0  0  0  0  0
  -25.8860  -32.5350   23.9210 C   0  0  0  0  0  3  0  0  0  0  0  0
  -25.5310  -33.9280   24.2310 N   0  0  0  0  0  0  0  0  0  0  0  0
  -25.8660  -34.9860   23.4790 C   0  0  0  0  0  0  0  0  0  0  0  0
  -26.5790  -34.8930   22.4750 O   0  0  0  0  0  0  0  0  0  0  0  0
  -24.9150  -34.0730   25.0180 H   0  0  0  0  0  0  0  0  0  0  0  0
  -24.1170  -36.7360   23.0270 C   0  0  0  0  0  1  0  0  0  0  0  0
  -25.3240  -36.3640   23.9050 C   0  0  0  0  0  3  0  0  0  0  0  0
  -27.3860  -37.3030   24.8510 C   0  0  0  0  0  1  0  0  0  0  0  0
  -26.3370  -37.4410   23.8420 N   0  0  0  0  0  0  0  0  0  0  0  0
  -25.9020  -38.3520   23.9610 H   0  0  0  0  0  0  0  0  0  0  0  0
  -26.3590  -31.7800   25.2250 C   0  0  1  0  0  0  0  0  0  0  0  0
  -25.2220  -31.5190   26.2400 C   0  0  0  0  0  1  0  0  0  0  0  0
  -26.9920  -30.4170   24.8650 C   0  0  0  0  0  1  0  0  0  0  0  0
  -27.4600  -32.6000   25.9390 C   0  0  0  0  0  1  0  0  0  0  0  0
  1  6  1  0
  1  7  2  0
  2  6  1  0
  2  8  2  0
  3  1  1  0
  4  5  1  6
  4  3  1  0
  4  2  1  0
  4 54  1  0
 10  9  1  0
 11 14  2  0
 11 13  1  0
 12  6  1  0
 12  9  2  0
 13 10  2  0
 14 12  1  0
 15 14  1  0
 16 23  2  0
 17 22  1  0
 18 19  1  0
 18 17  1  0
 20 19  1  0
 20 29  1  0
 20 21  1  0
 22 16  1  0
 22 21  1  0
 24 25  1  0
 25 13  1  0
 25 16  1  0
 26 27  2  0
 27 46  1  0
 28 27  1  0
 28 31  1  0
 29 26  1  0
 29 30  1  0
 30 28  2  0
 31 32  1  0
 32 33  2  0
 34 37  1  0
 34 33  1  0
 35 34  2  0
 36 35  1  0
 36 31  2  0
 37 38  1  0
 38 39  1  0
 39 40  2  0
 41 40  1  0
 41 45  1  0
 42 41  2  0
 43 38  2  0
 43 42  1  0
 44 43  1  0
 46 47  1  0
 47 50  1  0
 47 49  1  0
 48 46  2  0
 51 52  1  0
 51 26  1  0
 53 51  1  0
 55 57  1  0
 55 54  1  0
 56 67  2  0
 57 62  1  0
 58 66  1  0
 58 68  1  0
 59 65  1  0
 59 61  1  0
 60 66  1  0
 61 60  1  0
 62 61  2  0
 63 57  2  0
 64 63  1  0
 64 59  2  0
 65 58  1  0
 66 56  1  0
 68 70  2  0
 69 68  1  0
 71 69  1  0
 72 81  2  0
 72 77  1  0
 73 69  1  0
 73 77  1  0
 74 73  1  0
 75 76  1  0
 75 74  1  0
 76 72  1  0
 77 78  2  0
 78 79  1  0
 80 79  2  0
 81 80  1  0
 82 56  1  0
 82 83  1  0
 82 92  1  0
 83 86  1  0
 84 88  1  0
 84 83  1  0
 85 84  2  0
 88 87  1  0
 90 88  1  0
 90 91  1  0
 90 89  1  0
 92 95  1  1
 92 93  1  0
 94 92  1  0
M  ISO  4  16 100  25 100  54 101  55 101
M  END
>  <TORSDO>  (49) 
F 18

>  <SCORE>  (49) 
-12.876

>  <name>  (49) 
48

>  <ligand_id>  (49) 
48

>  <original_smiles>  (49) 
[H]c1c([H])c([H])c2c(c1[H])C([H])([H])C([H])([H])C([H])([H])C2([H])N([H])C(=O)C1([H])N(C(=O)C([H])(N([H])C(=O)C([H])(N([H])C([H])([H])[H])C([H])([H])[H])C(C([H])([H])[H])(C([H])([H])[H])C([H])([H])[H])C([H])([H])c2c([H])c(OC([H])([H])C3(C([H])([H])[H])C(=O)N(c4c([H])c([H])c(N(C(=O)N5C([H])([H])C([H])([H])C([H])([H])C([H])(n6nc(-c7c([H])c([H])c(Oc8c([H])c([H])c(F)c([H])c8F)c([H])c7[H])c(C(=O)N([H])[H])c6N([H])[H])C5([H])[H])C([H])([H])[H])c([H])c4F)C(=O)C3([H])[H])c([H])c([H])c2C1([H])[H]

>  <smiles>  (49) 
[H]c1c([H])c([H])c2c(c1[H])C([H])([H])C([H])([H])C([H])([H])C2([H])N([H])C(=O)C1([H])N(C(=O)C([H])(N([H])C(=O)C([H])(N([H])C([H])([H])[H])C([H])([H])[H])C(C([H])([H])[H])(C([H])([H])[H])C([H])([H])[H])C([H])([H])c2c([H])c(OC([H])([H])C3(C([H])([H])[H])C(=O)N(c4c([H])c([H])c(N(C(=O)N5C([H])([H])C([H])([H])C([H])([H])C([H])(n6nc(-c7c([H])c([H])c(Oc8c([H])c([H])c(F)c([H])c8F)c([H])c7[H])c(C(=O)N([H])[H])c6N([H])[H])C5([H])[H])C([H])([H])[H])c([H])c4F)C(=O)C3([H])[H])c([H])c([H])c2C1([H])[H]

$$$$
49:0:0
     RDKit          3D

 94103  0  0  1  0  0  0  0  0999 V2000
  -27.2070  -22.2880   20.8670 C   0  0  0  0  0  0  0  0  0  0  0  0
  -28.2640  -23.2520   20.6630 C   0  0  0  0  0  0  0  0  0  0  0  0
  -25.8950  -22.5180   20.6860 C   0  0  0  0  0  2  0  0  0  0  0  0
  -28.0530  -24.6120   20.6990 C   0  0  0  0  0  3  0  0  0  0  0  0
  -27.7760  -20.9260   21.1990 C   0  0  0  0  0  2  0  0  0  0  0  0
  -29.5560  -22.4240   20.5580 C   0  0  0  0  0  2  0  0  0  0  0  0
  -29.2030  -20.9960   20.8720 N   0  0  0  0  0  0  0  0  0  0  0  0
  -29.7740  -18.5490   20.8130 C   0  0  0  0  0  3  0  0  0  0  0  0
  -30.0130  -19.9000   18.8040 C   0  0  0  0  0  3  0  0  0  0  0  0
  -30.5170  -17.5030   18.7440 C   0  0  0  0  0  3  0  0  0  0  0  0
  -29.6870  -19.8380   20.1770 C   0  0  0  0  0  0  0  0  0  0  0  0
  -30.2280  -17.3740   20.1240 C   0  0  0  0  0  0  0  0  0  0  0  0
  -30.3980  -18.7450   18.0910 C   0  0  0  0  0  0  0  0  0  0  0  0
  -30.6330  -18.8270   16.7580 F   0  0  0  0  0  0  0  0  0  0  0  0
  -31.0660  -14.9950   20.4080 C   0  0  0  0  0  0  0  0  0  0  0  0
  -30.8490  -12.7570   19.3800 C   0  0  0  0  0  2  0  0  0  0  0  0
  -29.9210  -12.8910   18.1470 C   0  0  0  0  0  2  0  0  0  0  0  0
  -28.4470  -12.7360   18.5730 C   0  0  0  0  0  2  0  0  0  0  0  0
  -28.0810  -13.6230   19.7920 C   0  0  0  0  0  3  0  0  0  0  0  0
  -29.1230  -13.4690   20.9290 C   0  0  0  0  0  2  0  0  0  0  0  0
  -30.4440  -13.7810   20.3630 N   0  0  0  0  0  0  0  0  0  0  0  0
  -32.2260  -15.1420   20.0100 O   0  0  0  0  0  0  0  0  0  0  0  0
  -30.2980  -16.0650   20.7690 N   0  0  0  0  0  0  0  0  0  0  0  0
  -29.5290  -15.8410   21.3810 H   0  0  0  0  0  0  0  0  0  0  0  0
  -25.6830  -14.2500   20.4710 C   0  0  0  0  0  0  0  0  0  0  0  0
  -24.5980  -13.4850   20.8120 C   0  0  0  0  0  0  0  0  0  0  0  0
  -25.0440  -12.1280   20.7730 C   0  0  0  0  0  0  0  0  0  0  0  0
  -26.7210  -13.3580   20.2530 N   0  0  0  0  0  0  0  0  0  0  0  0
  -26.3390  -12.0780   20.4920 N   0  0  0  0  0  0  0  0  0  0  0  0
  -24.3000  -10.8720   20.9280 C   0  0  0  0  0  0  0  0  0  0  0  0
  -24.6600   -9.9130   21.9000 C   0  0  0  0  0  3  0  0  0  0  0  0
  -23.9120   -8.7230   22.0420 C   0  0  0  0  0  3  0  0  0  0  0  0
  -22.7940   -8.4840   21.2110 C   0  0  0  0  0  0  0  0  0  0  0  0
  -22.4520   -9.4330   20.2310 C   0  0  0  0  0  3  0  0  0  0  0  0
  -23.2000  -10.6140   20.0870 C   0  0  0  0  0  3  0  0  0  0  0  0
  -22.0290   -7.3450   21.2610 O   0  0  0  0  0  0  0  0  0  0  0  0
  -21.8400   -6.6530   22.4310 C   0  0  0  0  0  0  0  0  0  0  0  0
  -21.2460   -7.2560   23.5620 C   0  0  0  0  0  3  0  0  0  0  0  0
  -21.0040   -6.4910   24.7200 C   0  0  0  0  0  3  0  0  0  0  0  0
  -21.3460   -5.1260   24.7500 C   0  0  0  0  0  0  0  0  0  0  0  0
  -21.9330   -4.5240   23.6220 C   0  0  0  0  0  3  0  0  0  0  0  0
  -22.1730   -5.2840   22.4650 C   0  0  0  0  0  0  0  0  0  0  0  0
  -22.7180   -4.6910   21.3750 F   0  0  0  0  0  0  0  0  0  0  0  0
  -21.1080   -4.3910   25.8610 F   0  0  0  0  0  0  0  0  0  0  0  0
  -23.2040  -13.9750   21.0670 C   0  0  0  0  0  0  0  0  0  0  0  0
  -22.4530  -13.2770   21.9130 N   0  0  0  0  0  0  0  0  0  0  0  0
  -22.7880  -15.0140   20.5560 O   0  0  0  0  0  0  0  0  0  0  0  0
  -22.8020  -12.4310   22.3410 H   0  0  0  0  0  0  0  0  0  0  0  0
  -21.5200  -13.5890   22.1340 H   0  0  0  0  0  0  0  0  0  0  0  0
  -25.8660  -15.6200   20.3090 N   0  0  0  0  0  0  0  0  0  0  0  0
  -25.1030  -16.2780   20.4240 H   0  0  0  0  0  0  0  0  0  0  0  0
  -26.7170  -16.0550   19.9750 H   0  0  0  0  0  0  0  0  0  0  0  0
  -29.0280  -25.8170   20.7240 C   0  0  0  0  0  2  0  0  0  0  0  0
  -28.7300  -27.0050   19.9230 O   0  0  0  0  0  0  0  0  0  0  0  0
  -24.7500  -31.9720   23.3610 C   0  0  0  0  0  0  0  0  0  0  0  0
  -27.5550  -27.7290   20.0800 C   0  0  0  0  0  0  0  0  0  0  0  0
  -23.6150  -30.6430   21.6110 C   0  0  0  0  0  3  0  0  0  0  0  0
  -25.1340  -29.2230   20.1290 C   0  0  0  0  0  0  0  0  0  0  0  0
  -26.1390  -31.0610   21.4860 C   0  0  0  0  0  2  0  0  0  0  0  0
  -26.2730  -29.7240   20.7720 C   0  0  0  0  0  0  0  0  0  0  0  0
  -27.4890  -28.9880   20.7400 C   0  0  0  0  0  3  0  0  0  0  0  0
  -26.3990  -27.2610   19.4280 C   0  0  0  0  0  3  0  0  0  0  0  0
  -25.1950  -27.9930   19.4510 C   0  0  0  0  0  3  0  0  0  0  0  0
  -23.8700  -30.0510   20.1980 C   0  0  0  0  0  2  0  0  0  0  0  0
  -24.8520  -31.2410   22.2110 N   0  0  0  0  0  0  0  0  0  0  0  0
  -23.6540  -32.1760   23.9000 O   0  0  0  0  0  0  0  0  0  0  0  0
  -22.9720  -29.5500   22.4950 C   0  0  0  0  0  0  0  0  0  0  0  0
  -21.6520  -29.3550   22.3470 N   0  0  0  0  0  0  0  0  0  0  0  0
  -23.6630  -28.8830   23.2690 O   0  0  0  0  0  0  0  0  0  0  0  0
  -21.1520  -29.9640   21.7140 H   0  0  0  0  0  0  0  0  0  0  0  0
  -18.3000  -28.0670   22.7460 C   0  0  0  0  0  0  0  0  0  0  0  0
  -20.8530  -28.3400   23.0330 C   0  0  0  0  0  3  0  0  0  0  0  0
  -20.9740  -26.9670   22.3340 C   0  0  0  0  0  2  0  0  0  0  0  0
  -19.8750  -26.7160   21.2960 C   0  0  0  0  0  2  0  0  0  0  0  0
  -18.4920  -26.7830   21.9550 C   0  0  0  0  0  2  0  0  0  0  0  0
  -19.4080  -28.8060   23.2370 C   0  0  0  0  0  0  0  0  0  0  0  0
  -19.1760  -30.0100   23.9380 C   0  0  0  0  0  3  0  0  0  0  0  0
  -17.8660  -30.4750   24.1510 C   0  0  0  0  0  3  0  0  0  0  0  0
  -16.7710  -29.7340   23.6760 C   0  0  0  0  0  3  0  0  0  0  0  0
  -16.9870  -28.5330   22.9770 C   0  0  0  0  0  3  0  0  0  0  0  0
  -26.0080  -32.5980   24.0420 C   0  0  0  0  0  3  0  0  0  0  0  0
  -25.6780  -33.9890   24.3860 N   0  0  0  0  0  0  0  0  0  0  0  0
  -26.0210  -35.0550   23.6510 C   0  0  0  0  0  0  0  0  0  0  0  0
  -26.7150  -34.9750   22.6340 O   0  0  0  0  0  0  0  0  0  0  0  0
  -25.0630  -34.1270   25.1730 H   0  0  0  0  0  0  0  0  0  0  0  0
  -24.2840  -36.8400   23.2940 C   0  0  0  0  0  1  0  0  0  0  0  0
  -25.5150  -36.4340   24.1200 C   0  0  0  0  0  3  0  0  0  0  0  0
  -27.6190  -37.3350   25.0080 C   0  0  0  0  0  1  0  0  0  0  0  0
  -26.5380  -37.4990   24.0400 N   0  0  0  0  0  0  0  0  0  0  0  0
  -26.1170  -38.4120   24.1870 H   0  0  0  0  0  0  0  0  0  0  0  0
  -26.4800  -31.8070   25.3230 C   0  0  1  0  0  0  0  0  0  0  0  0
  -25.3480  -31.5310   26.3380 C   0  0  0  0  0  1  0  0  0  0  0  0
  -27.0990  -30.4480   24.9280 C   0  0  0  0  0  1  0  0  0  0  0  0
  -27.5860  -32.6030   26.0520 C   0  0  0  0  0  1  0  0  0  0  0  0
  1  5  1  0
  2  4  2  0
  2  1  1  0
  3  1  2  0
  4 53  1  0
  6  2  1  0
  6  7  1  0
  7  5  1  0
  9 11  2  0
 10 12  1  0
 11  8  1  0
 11  7  1  0
 12 23  1  0
 12  8  2  0
 13 10  2  0
 13  9  1  0
 14 13  1  0
 15 23  1  0
 16 21  1  0
 17 18  1  0
 17 16  1  0
 19 18  1  0
 19 28  1  0
 19 20  1  0
 21 15  1  0
 21 20  1  0
 22 15  2  0
 23 24  1  0
 25 26  2  0
 26 45  1  0
 27 26  1  0
 27 30  1  0
 28 25  1  0
 28 29  1  0
 29 27  2  0
 30 31  1  0
 31 32  2  0
 33 36  1  0
 33 32  1  0
 34 33  2  0
 35 34  1  0
 35 30  2  0
 36 37  1  0
 37 42  2  0
 37 38  1  0
 38 39  2  0
 39 40  1  0
 40 44  1  0
 41 40  2  0
 42 41  1  0
 43 42  1  0
 45 46  1  0
 46 49  1  0
 46 48  1  0
 47 45  2  0
 50 51  1  0
 50 25  1  0
 52 50  1  0
 54 56  1  0
 54 53  1  0
 55 66  2  0
 56 61  1  0
 57 65  1  0
 57 67  1  0
 58 64  1  0
 58 60  1  0
 59 65  1  0
 60 59  1  0
 61 60  2  0
 62 63  1  0
 62 56  2  0
 63 58  2  0
 64 57  1  0
 65 55  1  0
 67 69  2  0
 68 67  1  0
 70 68  1  0
 71 80  2  0
 71 76  1  0
 72 68  1  0
 72 76  1  0
 73 72  1  0
 74 75  1  0
 74 73  1  0
 75 71  1  0
 76 77  2  0
 77 78  1  0
 79 78  2  0
 80 79  1  0
 81 55  1  0
 81 82  1  0
 81 91  1  0
 82 85  1  0
 83 87  1  0
 83 82  1  0
 84 83  2  0
 87 86  1  0
 89 87  1  0
 89 90  1  0
 89 88  1  0
 91 94  1  1
 91 92  1  0
 93 91  1  0
M  ISO  4  15 100  23 100  53 101  54 101
M  END
>  <TORSDO>  (50) 
F 18

>  <SCORE>  (50) 
-13.078

>  <name>  (50) 
49

>  <ligand_id>  (50) 
49

>  <original_smiles>  (50) 
[H]C([H])=C1C(=C([H])C([H])([H])Oc2c([H])c([H])c3c(c2[H])C([H])([H])N(C(=O)C([H])(N([H])C(=O)C([H])(N([H])C([H])([H])[H])C([H])([H])[H])C(C([H])([H])[H])(C([H])([H])[H])C([H])([H])[H])C([H])(C(=O)N([H])C2([H])c4c([H])c([H])c([H])c([H])c4C([H])([H])C([H])([H])C2([H])[H])C3([H])[H])C([H])([H])N(c2c([H])c(F)c([H])c(N([H])C(=O)N3C([H])([H])C([H])([H])C([H])([H])C([H])(n4nc(-c5c([H])c([H])c(Oc6c([H])c([H])c(F)c([H])c6F)c([H])c5[H])c(C(=O)N([H])[H])c4N([H])[H])C3([H])[H])c2[H])C1([H])[H]

>  <smiles>  (50) 
[H]C([H])=C1C(=C([H])C([H])([H])Oc2c([H])c([H])c3c(c2[H])C([H])([H])N(C(=O)C([H])(N([H])C(=O)C([H])(N([H])C([H])([H])[H])C([H])([H])[H])C(C([H])([H])[H])(C([H])([H])[H])C([H])([H])[H])C([H])(C(=O)N([H])C2([H])c4c([H])c([H])c([H])c([H])c4C([H])([H])C([H])([H])C2([H])[H])C3([H])[H])C([H])([H])N(c2c([H])c(F)c([H])c(N([H])C(=O)N3C([H])([H])C([H])([H])C([H])([H])C([H])(n4nc(-c5c([H])c([H])c(Oc6c([H])c([H])c(F)c([H])c6F)c([H])c5[H])c(C(=O)N([H])[H])c4N([H])[H])C3([H])[H])c2[H])C1([H])[H]

$$$$
50:0:0
     RDKit          3D

 94103  0  0  1  0  0  0  0  0999 V2000
  -28.6300  -23.7400   19.9920 C   0  0  0  0  0  0  0  0  0  0  0  0
  -28.8840  -23.2980   21.3570 C   0  0  0  0  0  0  0  0  0  0  0  0
  -28.7690  -22.4730   19.1890 C   0  0  0  0  0  0  0  0  0  0  0  0
  -28.3440  -25.0490   19.5250 C   0  0  0  0  0  0  0  0  0  0  0  0
  -29.1930  -21.7810   21.3630 C   0  0  0  0  0  2  0  0  0  0  0  0
  -28.2450  -25.3400   18.0290 C   0  0  0  0  0  1  0  0  0  0  0  0
  -29.1610  -21.3590   19.9520 N   0  0  0  0  0  0  0  0  0  0  0  0
  -28.8720  -23.9880   22.3810 O   0  0  0  0  0  0  0  0  0  0  0  0
  -28.5230  -22.3990   17.9810 O   0  0  0  0  0  0  0  0  0  0  0  0
  -30.2920  -18.5470   17.5790 C   0  0  0  0  0  3  0  0  0  0  0  0
  -29.9220  -19.7890   18.1280 C   0  0  0  0  0  3  0  0  0  0  0  0
  -30.3450  -17.3750   18.3510 C   0  0  0  0  0  3  0  0  0  0  0  0
  -29.6350  -18.7040   20.2690 C   0  0  0  0  0  3  0  0  0  0  0  0
  -29.5500  -19.9540   19.4860 C   0  0  0  0  0  0  0  0  0  0  0  0
  -30.0440  -17.3810   19.7310 C   0  0  0  0  0  0  0  0  0  0  0  0
  -30.7930  -14.8760   20.0230 C   0  0  0  0  0  0  0  0  0  0  0  0
  -30.5090  -12.6140   18.9490 C   0  0  0  0  0  2  0  0  0  0  0  0
  -29.5120  -12.6960   17.7730 C   0  0  0  0  0  2  0  0  0  0  0  0
  -28.0650  -12.5130   18.2720 C   0  0  0  0  0  2  0  0  0  0  0  0
  -27.7590  -13.3750   19.5240 C   0  0  0  0  0  3  0  0  0  0  0  0
  -28.8710  -13.2590   20.5850 C   0  0  0  0  0  2  0  0  0  0  0  0
  -30.1300  -13.6590   19.9400 N   0  0  0  0  0  0  0  0  0  0  0  0
  -31.9390  -14.9390   19.5620 O   0  0  0  0  0  0  0  0  0  0  0  0
  -29.8750  -16.1280   21.9020 C   0  0  0  0  0  1  0  0  0  0  0  0
  -30.1430  -16.0570   20.4620 N   0  0  0  0  0  0  0  0  0  0  0  0
  -25.4230  -13.9650   20.3920 C   0  0  0  0  0  0  0  0  0  0  0  0
  -24.3710  -13.1920   20.8000 C   0  0  0  0  0  0  0  0  0  0  0  0
  -24.8210  -11.8390   20.7180 C   0  0  0  0  0  0  0  0  0  0  0  0
  -26.4430  -13.0830   20.0800 N   0  0  0  0  0  0  0  0  0  0  0  0
  -26.0930  -11.7960   20.3410 N   0  0  0  0  0  0  0  0  0  0  0  0
  -24.0920  -10.5790   20.9210 C   0  0  0  0  0  0  0  0  0  0  0  0
  -24.5300   -9.6120   21.8540 C   0  0  0  0  0  3  0  0  0  0  0  0
  -23.8020   -8.4190   22.0440 C   0  0  0  0  0  3  0  0  0  0  0  0
  -22.6210   -8.1820   21.3030 C   0  0  0  0  0  0  0  0  0  0  0  0
  -22.2010   -9.1360   20.3590 C   0  0  0  0  0  3  0  0  0  0  0  0
  -22.9300  -10.3210   20.1660 C   0  0  0  0  0  3  0  0  0  0  0  0
  -21.8620   -7.0400   21.4020 O   0  0  0  0  0  0  0  0  0  0  0  0
  -21.7730   -6.3360   22.5760 C   0  0  0  0  0  0  0  0  0  0  0  0
  -21.3080   -6.9300   23.7680 C   0  0  0  0  0  3  0  0  0  0  0  0
  -21.1670   -6.1510   24.9340 C   0  0  0  0  0  3  0  0  0  0  0  0
  -21.4810   -4.7800   24.9090 C   0  0  0  0  0  0  0  0  0  0  0  0
  -21.9390   -4.1850   23.7200 C   0  0  0  0  0  3  0  0  0  0  0  0
  -22.0820   -4.9610   22.5560 C   0  0  0  0  0  0  0  0  0  0  0  0
  -22.5040   -4.3780   21.4080 F   0  0  0  0  0  0  0  0  0  0  0  0
  -21.3380   -4.0290   26.0260 F   0  0  0  0  0  0  0  0  0  0  0  0
  -22.9950  -13.6760   21.1520 C   0  0  0  0  0  0  0  0  0  0  0  0
  -22.3080  -12.9730   22.0460 N   0  0  0  0  0  0  0  0  0  0  0  0
  -22.5400  -14.7130   20.6700 O   0  0  0  0  0  0  0  0  0  0  0  0
  -22.6900  -12.1340   22.4560 H   0  0  0  0  0  0  0  0  0  0  0  0
  -21.3870  -13.2790   22.3250 H   0  0  0  0  0  0  0  0  0  0  0  0
  -25.5930  -15.3380   20.2370 N   0  0  0  0  0  0  0  0  0  0  0  0
  -24.8430  -15.9990   20.4090 H   0  0  0  0  0  0  0  0  0  0  0  0
  -26.4400  -15.7780   19.8990 H   0  0  0  0  0  0  0  0  0  0  0  0
  -28.2610  -26.2930   20.2580 O   0  0  0  0  0  0  0  0  0  0  0  0
  -24.5950  -31.8710   23.2340 C   0  0  0  0  0  0  0  0  0  0  0  0
  -27.1790  -27.2270   20.1670 C   0  0  0  0  0  0  0  0  0  0  0  0
  -23.3870  -30.4720   21.6010 C   0  0  0  0  0  3  0  0  0  0  0  0
  -24.8290  -28.9130   20.1640 C   0  0  0  0  0  0  0  0  0  0  0  0
  -25.9340  -30.7630   21.4130 C   0  0  0  0  0  2  0  0  0  0  0  0
  -26.0080  -29.3800   20.7590 C   0  0  0  0  0  0  0  0  0  0  0  0
  -27.1820  -28.5490   20.7470 C   0  0  0  0  0  3  0  0  0  0  0  0
  -25.9600  -26.8330   19.5670 C   0  0  0  0  0  3  0  0  0  0  0  0
  -24.8130  -27.6500   19.5570 C   0  0  0  0  0  3  0  0  0  0  0  0
  -23.5960  -29.7980   20.2200 C   0  0  0  0  0  2  0  0  0  0  0  0
  -24.6590  -31.0550   22.1370 N   0  0  0  0  0  0  0  0  0  0  0  0
  -23.5130  -32.1500   23.7700 O   0  0  0  0  0  0  0  0  0  0  0  0
  -22.7220  -29.4600   22.5660 C   0  0  0  0  0  0  0  0  0  0  0  0
  -21.3950  -29.2810   22.4420 N   0  0  0  0  0  0  0  0  0  0  0  0
  -23.4010  -28.8380   23.3870 O   0  0  0  0  0  0  0  0  0  0  0  0
  -20.9060  -29.8320   21.7510 H   0  0  0  0  0  0  0  0  0  0  0  0
  -18.0240  -28.0570   22.9390 C   0  0  0  0  0  0  0  0  0  0  0  0
  -20.5790  -28.3420   23.2160 C   0  0  0  0  0  3  0  0  0  0  0  0
  -20.6950  -26.9070   22.6530 C   0  0  0  0  0  2  0  0  0  0  0  0
  -19.6000  -26.5660   21.6370 C   0  0  0  0  0  2  0  0  0  0  0  0
  -18.2150  -26.7050   22.2740 C   0  0  0  0  0  2  0  0  0  0  0  0
  -19.1340  -28.8330   23.3660 C   0  0  0  0  0  0  0  0  0  0  0  0
  -18.9010  -30.0980   23.9490 C   0  0  0  0  0  3  0  0  0  0  0  0
  -17.5910  -30.5870   24.1080 C   0  0  0  0  0  3  0  0  0  0  0  0
  -16.4950  -29.8090   23.6950 C   0  0  0  0  0  3  0  0  0  0  0  0
  -16.7130  -28.5460   23.1170 C   0  0  0  0  0  3  0  0  0  0  0  0
  -25.8780  -32.5070   23.8520 C   0  0  0  0  0  3  0  0  0  0  0  0
  -25.5630  -33.9010   24.1960 N   0  0  0  0  0  0  0  0  0  0  0  0
  -25.8830  -34.9640   23.4450 C   0  0  0  0  0  0  0  0  0  0  0  0
  -26.5430  -34.8730   22.4060 O   0  0  0  0  0  0  0  0  0  0  0  0
  -24.9760  -34.0450   25.0040 H   0  0  0  0  0  0  0  0  0  0  0  0
  -24.1440  -36.7550   23.1270 C   0  0  0  0  0  1  0  0  0  0  0  0
  -25.3950  -36.3460   23.9210 C   0  0  0  0  0  3  0  0  0  0  0  0
  -27.5340  -37.2340   24.7400 C   0  0  0  0  0  1  0  0  0  0  0  0
  -26.4230  -37.4050   23.8080 N   0  0  0  0  0  0  0  0  0  0  0  0
  -26.0140  -38.3220   23.9660 H   0  0  0  0  0  0  0  0  0  0  0  0
  -26.4040  -31.7310   25.1220 C   0  0  1  0  0  0  0  0  0  0  0  0
  -25.3180  -31.4840   26.1950 C   0  0  0  0  0  1  0  0  0  0  0  0
  -26.9910  -30.3560   24.7240 C   0  0  0  0  0  1  0  0  0  0  0  0
  -27.5560  -32.5270   25.7820 C   0  0  0  0  0  1  0  0  0  0  0  0
  1  2  1  0
  2  5  1  0
  2  8  2  0
  3  7  1  0
  3  1  1  0
  4  1  2  0
  4 54  1  0
  6  4  1  0
  7  5  1  0
  9  3  2  0
 10 11  2  0
 10 12  1  0
 11 14  1  0
 12 15  2  0
 14  7  1  0
 14 13  2  0
 15 13  1  0
 15 25  1  0
 16 25  1  0
 17 22  1  0
 18 19  1  0
 18 17  1  0
 20 19  1  0
 20 29  1  0
 20 21  1  0
 22 16  1  0
 22 21  1  0
 23 16  2  0
 25 24  1  0
 26 27  2  0
 27 46  1  0
 28 27  1  0
 28 31  1  0
 29 30  1  0
 29 26  1  0
 30 28  2  0
 31 32  1  0
 32 33  2  0
 34 37  1  0
 34 33  1  0
 35 34  2  0
 36 35  1  0
 36 31  2  0
 37 38  1  0
 38 39  1  0
 39 40  2  0
 41 40  1  0
 41 45  1  0
 42 41  2  0
 43 38  2  0
 43 42  1  0
 44 43  1  0
 46 47  1  0
 47 50  1  0
 47 49  1  0
 48 46  2  0
 51 26  1  0
 51 52  1  0
 53 51  1  0
 55 66  2  0
 56 54  1  0
 56 61  1  0
 57 65  1  0
 57 67  1  0
 58 64  1  0
 58 60  1  0
 59 65  1  0
 60 59  1  0
 61 60  2  0
 62 56  2  0
 63 62  1  0
 63 58  2  0
 64 57  1  0
 65 55  1  0
 67 69  2  0
 68 67  1  0
 70 68  1  0
 71 80  2  0
 71 76  1  0
 72 68  1  0
 72 76  1  0
 73 72  1  0
 74 75  1  0
 74 73  1  0
 75 71  1  0
 76 77  2  0
 77 78  1  0
 79 78  2  0
 80 79  1  0
 81 55  1  0
 81 82  1  0
 81 91  1  0
 82 85  1  0
 83 87  1  0
 83 82  1  0
 84 83  2  0
 87 86  1  0
 89 87  1  0
 89 90  1  0
 89 88  1  0
 91 94  1  1
 91 92  1  0
 93 91  1  0
M  ISO  4   4 101  16 100  25 100  54 101
M  END
>  <TORSDO>  (51) 
F 17

>  <SCORE>  (51) 
-14.941

>  <name>  (51) 
50

>  <ligand_id>  (51) 
50

>  <original_smiles>  (51) 
[H]c1c([H])c(N(C(=O)N2C([H])([H])C([H])([H])C([H])([H])C([H])(n3nc(-c4c([H])c([H])c(Oc5c([H])c([H])c(F)c([H])c5F)c([H])c4[H])c(C(=O)N([H])[H])c3N([H])[H])C2([H])[H])C([H])([H])[H])c([H])c(N2C(=O)C(=C(Oc3c([H])c([H])c4c(c3[H])C([H])([H])N(C(=O)C([H])(N([H])C(=O)C([H])(N([H])C([H])([H])[H])C([H])([H])[H])C(C([H])([H])[H])(C([H])([H])[H])C([H])([H])[H])C([H])(C(=O)N([H])C3([H])c5c([H])c([H])c([H])c([H])c5C([H])([H])C([H])([H])C3([H])[H])C4([H])[H])C([H])([H])[H])C(=O)C2([H])[H])c1[H]

>  <smiles>  (51) 
[H]c1c([H])c(N(C(=O)N2C([H])([H])C([H])([H])C([H])([H])C([H])(n3nc(-c4c([H])c([H])c(Oc5c([H])c([H])c(F)c([H])c5F)c([H])c4[H])c(C(=O)N([H])[H])c3N([H])[H])C2([H])[H])C([H])([H])[H])c([H])c(N2C(=O)C(=C(Oc3c([H])c([H])c4c(c3[H])C([H])([H])N(C(=O)C([H])(N([H])C(=O)C([H])(N([H])C([H])([H])[H])C([H])([H])[H])C(C([H])([H])[H])(C([H])([H])[H])C([H])([H])[H])C([H])(C(=O)N([H])C3([H])c5c([H])c([H])c([H])c([H])c5C([H])([H])C([H])([H])C3([H])[H])C4([H])[H])C([H])([H])[H])C(=O)C2([H])[H])c1[H]

$$$$
51:0:0
     RDKit          3D

 98107  0  0  1  0  0  0  0  0999 V2000
  -28.7940  -24.1390   20.3780 C   0  0  0  0  0  0  0  0  0  0  0  0
  -29.0970  -24.0040   21.7800 C   0  0  0  0  0  0  0  0  0  0  0  0
  -28.9330  -22.7440   19.8340 C   0  0  0  0  0  0  0  0  0  0  0  0
  -29.0120  -24.9670   22.7140 C   0  0  0  0  0  1  0  0  0  0  0  0
  -28.4770  -25.3000   19.6700 C   0  0  0  0  0  3  0  0  0  0  0  0
  -29.5080  -22.5820   22.0840 C   0  0  0  0  0  2  0  0  0  0  0  0
  -28.3110  -25.3220   18.1550 C   0  0  0  0  0  1  0  0  0  0  0  0
  -29.3290  -21.8510   20.8200 N   0  0  0  0  0  0  0  0  0  0  0  0
  -28.7330  -22.4040   18.6630 O   0  0  0  0  0  0  0  0  0  0  0  0
  -30.2160  -19.6880   21.8390 C   0  0  0  0  0  3  0  0  0  0  0  0
  -30.3850  -18.2680   21.8800 C   0  0  0  0  0  3  0  0  0  0  0  0
  -29.1340  -19.5060   19.7210 C   0  0  0  0  0  3  0  0  0  0  0  0
  -29.2890  -18.0730   19.7480 C   0  0  0  0  0  0  0  0  0  0  0  0
  -29.5640  -20.3740   20.7690 C   0  0  0  0  0  0  0  0  0  0  0  0
  -29.9210  -17.4050   20.8520 C   0  0  0  0  0  0  0  0  0  0  0  0
  -30.7430  -14.9070   20.8480 C   0  0  0  0  0  0  0  0  0  0  0  0
  -30.7090  -12.5980   19.8980 C   0  0  0  0  0  2  0  0  0  0  0  0
  -29.8550  -12.6180   18.6100 C   0  0  0  0  0  2  0  0  0  0  0  0
  -28.3590  -12.4290   18.9330 C   0  0  0  0  0  2  0  0  0  0  0  0
  -27.8810  -13.3390   20.0940 C   0  0  0  0  0  3  0  0  0  0  0  0
  -28.8540  -13.2790   21.2930 C   0  0  0  0  0  2  0  0  0  0  0  0
  -30.1880  -13.6500   20.7960 N   0  0  0  0  0  0  0  0  0  0  0  0
  -31.9310  -15.0880   20.5620 O   0  0  0  0  0  0  0  0  0  0  0  0
  -29.8630  -15.9440   21.0750 N   0  0  0  0  0  0  0  0  0  0  0  0
  -28.9390  -15.6060   21.2960 H   0  0  0  0  0  0  0  0  0  0  0  0
  -25.4380  -13.9210   20.6330 C   0  0  0  0  0  0  0  0  0  0  0  0
  -24.3560  -13.1410   20.9420 C   0  0  0  0  0  0  0  0  0  0  0  0
  -24.8350  -11.7950   20.9630 C   0  0  0  0  0  0  0  0  0  0  0  0
  -26.5050  -13.0490   20.4860 N   0  0  0  0  0  0  0  0  0  0  0  0
  -26.1450  -11.7680   20.7470 N   0  0  0  0  0  0  0  0  0  0  0  0
  -24.1120  -10.5270   21.1220 C   0  0  0  0  0  0  0  0  0  0  0  0
  -24.4850   -9.5810   22.1010 C   0  0  0  0  0  3  0  0  0  0  0  0
  -23.7630   -8.3780   22.2460 C   0  0  0  0  0  3  0  0  0  0  0  0
  -22.6530   -8.1110   21.4090 C   0  0  0  0  0  0  0  0  0  0  0  0
  -22.3010   -9.0450   20.4190 C   0  0  0  0  0  3  0  0  0  0  0  0
  -23.0250  -10.2400   20.2730 C   0  0  0  0  0  3  0  0  0  0  0  0
  -21.9090   -6.9570   21.4590 O   0  0  0  0  0  0  0  0  0  0  0  0
  -21.7690   -6.2420   22.6220 C   0  0  0  0  0  0  0  0  0  0  0  0
  -21.1830   -6.8050   23.7760 C   0  0  0  0  0  3  0  0  0  0  0  0
  -20.9960   -6.0130   24.9270 C   0  0  0  0  0  3  0  0  0  0  0  0
  -21.3820   -4.6600   24.9230 C   0  0  0  0  0  0  0  0  0  0  0  0
  -21.9610   -4.0970   23.7720 C   0  0  0  0  0  3  0  0  0  0  0  0
  -22.1510   -4.8860   22.6230 C   0  0  0  0  0  0  0  0  0  0  0  0
  -22.6890   -4.3320   21.5100 F   0  0  0  0  0  0  0  0  0  0  0  0
  -21.1950   -3.8970   26.0250 F   0  0  0  0  0  0  0  0  0  0  0  0
  -22.9370  -13.6050   21.1050 C   0  0  0  0  0  0  0  0  0  0  0  0
  -22.1600  -12.9170   21.9330 N   0  0  0  0  0  0  0  0  0  0  0  0
  -22.5240  -14.6120   20.5330 O   0  0  0  0  0  0  0  0  0  0  0  0
  -22.5050  -12.1020   22.4180 H   0  0  0  0  0  0  0  0  0  0  0  0
  -21.2050  -13.2090   22.0840 H   0  0  0  0  0  0  0  0  0  0  0  0
  -25.5960  -15.2900   20.4390 N   0  0  0  0  0  0  0  0  0  0  0  0
  -24.7990  -15.9170   20.4470 H   0  0  0  0  0  0  0  0  0  0  0  0
  -26.4210  -15.7120   20.0280 H   0  0  0  0  0  0  0  0  0  0  0  0
  -28.6880  -17.2640   18.5970 C   0  0  1  0  0  0  0  0  0  0  0  0
  -28.3580  -18.0310   17.5570 F   0  0  0  0  0  0  0  0  0  0  0  0
  -29.5460  -16.3430   18.1580 F   0  0  0  0  0  0  0  0  0  0  0  0
  -27.5850  -16.6510   19.0250 F   0  0  0  0  0  0  0  0  0  0  0  0
  -28.4350  -26.6170   20.2030 O   0  0  0  0  0  0  0  0  0  0  0  0
  -24.6810  -31.9420   23.3520 C   0  0  0  0  0  0  0  0  0  0  0  0
  -27.3000  -27.4580   20.1600 C   0  0  0  0  0  0  0  0  0  0  0  0
  -23.4760  -30.5850   21.6780 C   0  0  0  0  0  3  0  0  0  0  0  0
  -24.9250  -29.0720   20.2080 C   0  0  0  0  0  0  0  0  0  0  0  0
  -26.0150  -30.9090   21.4960 C   0  0  0  0  0  2  0  0  0  0  0  0
  -26.0950  -29.5470   20.8110 C   0  0  0  0  0  0  0  0  0  0  0  0
  -27.2830  -28.7520   20.7760 C   0  0  0  0  0  3  0  0  0  0  0  0
  -26.0920  -27.0300   19.5610 C   0  0  0  0  0  3  0  0  0  0  0  0
  -24.9260  -27.8200   19.5760 C   0  0  0  0  0  3  0  0  0  0  0  0
  -23.6870  -29.9450   20.2810 C   0  0  0  0  0  2  0  0  0  0  0  0
  -24.7440  -31.1610   22.2330 N   0  0  0  0  0  0  0  0  0  0  0  0
  -23.5990  -32.2030   23.8960 O   0  0  0  0  0  0  0  0  0  0  0  0
  -22.8160  -29.5440   22.6130 C   0  0  0  0  0  0  0  0  0  0  0  0
  -21.4910  -29.3600   22.4760 N   0  0  0  0  0  0  0  0  0  0  0  0
  -23.4930  -28.9050   23.4220 O   0  0  0  0  0  0  0  0  0  0  0  0
  -21.0020  -29.9280   21.7980 H   0  0  0  0  0  0  0  0  0  0  0  0
  -18.1220  -28.1200   22.9220 C   0  0  0  0  0  0  0  0  0  0  0  0
  -20.6750  -28.4000   23.2220 C   0  0  0  0  0  3  0  0  0  0  0  0
  -20.7970  -26.9810   22.6220 C   0  0  0  0  0  2  0  0  0  0  0  0
  -19.7080  -26.6660   21.5910 C   0  0  0  0  0  2  0  0  0  0  0  0
  -18.3190  -26.7850   22.2240 C   0  0  0  0  0  2  0  0  0  0  0  0
  -19.2280  -28.8860   23.3770 C   0  0  0  0  0  0  0  0  0  0  0  0
  -18.9900  -30.1350   23.9900 C   0  0  0  0  0  3  0  0  0  0  0  0
  -17.6790  -30.6190   24.1520 C   0  0  0  0  0  3  0  0  0  0  0  0
  -16.5860  -29.8510   23.7140 C   0  0  0  0  0  3  0  0  0  0  0  0
  -16.8080  -28.6030   23.1050 C   0  0  0  0  0  3  0  0  0  0  0  0
  -25.9650  -32.5590   23.9890 C   0  0  0  0  0  3  0  0  0  0  0  0
  -26.4860  -31.7510   25.2410 C   0  0  1  0  0  0  0  0  0  0  0  0
  -25.3970  -31.4790   26.3030 C   0  0  0  0  0  1  0  0  0  0  0  0
  -27.0730  -30.3870   24.8080 C   0  0  0  0  0  1  0  0  0  0  0  0
  -27.6360  -32.5290   25.9230 C   0  0  0  0  0  1  0  0  0  0  0  0
  -25.6520  -33.9460   24.3630 N   0  0  0  0  0  0  0  0  0  0  0  0
  -25.9970  -35.0240   23.6470 C   0  0  0  0  0  0  0  0  0  0  0  0
  -26.6810  -34.9560   22.6210 O   0  0  0  0  0  0  0  0  0  0  0  0
  -25.0460  -34.0730   25.1600 H   0  0  0  0  0  0  0  0  0  0  0  0
  -24.3030  -36.8530   23.3050 C   0  0  0  0  0  1  0  0  0  0  0  0
  -25.5060  -36.3970   24.1460 C   0  0  0  0  0  3  0  0  0  0  0  0
  -27.6110  -37.2230   25.1040 C   0  0  0  0  0  1  0  0  0  0  0  0
  -26.5530  -37.4420   24.1210 N   0  0  0  0  0  0  0  0  0  0  0  0
  -26.1510  -38.3600   24.2880 H   0  0  0  0  0  0  0  0  0  0  0  0
  1  2  2  0
  2  6  1  0
  2  4  1  0
  3  1  1  0
  3  8  1  0
  5  7  1  0
  5 58  1  0
  5  1  1  0
  8  6  1  0
  9  3  2  0
 10 11  1  0
 12 13  2  0
 12 14  1  0
 13 15  1  0
 14  8  1  0
 14 10  2  0
 15 24  1  0
 15 11  2  0
 16 24  1  0
 17 22  1  0
 18 19  1  0
 18 17  1  0
 20 19  1  0
 20 29  1  0
 20 21  1  0
 22 16  1  0
 22 21  1  0
 23 16  2  0
 24 25  1  0
 26 27  2  0
 27 28  1  0
 27 46  1  0
 28 31  1  0
 29 26  1  0
 29 30  1  0
 30 28  2  0
 31 32  1  0
 32 33  2  0
 34 37  1  0
 34 33  1  0
 35 34  2  0
 36 35  1  0
 36 31  2  0
 37 38  1  0
 38 43  2  0
 38 39  1  0
 39 40  2  0
 41 40  1  0
 41 45  1  0
 42 41  2  0
 43 42  1  0
 44 43  1  0
 46 47  1  0
 47 50  1  0
 47 49  1  0
 48 46  2  0
 51 52  1  0
 51 26  1  0
 53 51  1  0
 54 57  1  1
 54 13  1  0
 55 54  1  0
 56 54  1  0
 59 70  2  0
 60 58  1  0
 60 65  1  0
 61 69  1  0
 61 71  1  0
 62 68  1  0
 62 64  1  0
 63 69  1  0
 64 63  1  0
 65 64  2  0
 66 67  1  0
 66 60  2  0
 67 62  2  0
 68 61  1  0
 69 59  1  0
 71 73  2  0
 72 71  1  0
 74 72  1  0
 75 84  2  0
 75 80  1  0
 76 72  1  0
 76 80  1  0
 77 76  1  0
 78 79  1  0
 78 77  1  0
 79 75  1  0
 80 81  2  0
 81 82  1  0
 83 82  2  0
 84 83  1  0
 85 59  1  0
 85 90  1  0
 85 86  1  0
 86 89  1  1
 86 87  1  0
 88 86  1  0
 90 93  1  0
 91 95  1  0
 91 90  1  0
 92 91  2  0
 95 94  1  0
 97 95  1  0
 97 98  1  0
 97 96  1  0
M  ISO  4   5 101  16 100  24 100  58 101
M  END
>  <TORSDO>  (52) 
F 18

>  <SCORE>  (52) 
-14.540

>  <name>  (52) 
51

>  <ligand_id>  (52) 
51

>  <original_smiles>  (52) 
[H]C([H])=C1C(=C(Oc2c([H])c([H])c3c(c2[H])C([H])([H])N(C(=O)C([H])(N([H])C(=O)C([H])(N([H])C([H])([H])[H])C([H])([H])[H])C(C([H])([H])[H])(C([H])([H])[H])C([H])([H])[H])C([H])(C(=O)N([H])C2([H])c4c([H])c([H])c([H])c([H])c4C([H])([H])C([H])([H])C2([H])[H])C3([H])[H])C([H])([H])[H])C(=O)N(c2c([H])c([H])c(N([H])C(=O)N3C([H])([H])C([H])([H])C([H])([H])C([H])(n4nc(-c5c([H])c([H])c(Oc6c([H])c([H])c(F)c([H])c6F)c([H])c5[H])c(C(=O)N([H])[H])c4N([H])[H])C3([H])[H])c(C(F)(F)F)c2[H])C1([H])[H]

>  <smiles>  (52) 
[H]C([H])=C1C(=C(Oc2c([H])c([H])c3c(c2[H])C([H])([H])N(C(=O)C([H])(N([H])C(=O)C([H])(N([H])C([H])([H])[H])C([H])([H])[H])C(C([H])([H])[H])(C([H])([H])[H])C([H])([H])[H])C([H])(C(=O)N([H])C2([H])c4c([H])c([H])c([H])c([H])c4C([H])([H])C([H])([H])C2([H])[H])C3([H])[H])C([H])([H])[H])C(=O)N(c2c([H])c([H])c(N([H])C(=O)N3C([H])([H])C([H])([H])C([H])([H])C([H])(n4nc(-c5c([H])c([H])c(Oc6c([H])c([H])c(F)c([H])c6F)c([H])c5[H])c(C(=O)N([H])[H])c4N([H])[H])C3([H])[H])c(C(F)(F)F)c2[H])C1([H])[H]

$$$$
52:0:0
     RDKit          3D

 96104  0  0  1  0  0  0  0  0999 V2000
  -28.6880  -22.2410   21.1630 C   0  0  0  0  0  0  0  0  0  0  0  0
  -28.0290  -24.5690   20.5210 C   0  0  0  0  0  0  0  0  0  0  0  0
  -28.5460  -23.2460   20.2580 N   0  0  0  0  0  0  0  0  0  0  0  0
  -28.3100  -22.3570   22.4510 N   0  0  0  0  0  4  0  0  0  0  0  0
  -27.6070  -24.8950   21.6410 O   0  0  0  0  0  0  0  0  0  0  0  0
  -28.8860  -23.0040   19.3410 H   0  0  0  0  0  0  0  0  0  0  0  0
  -28.3790  -21.5800   23.0910 H   0  0  0  0  0  0  0  0  0  0  0  0
  -27.9080  -23.2290   22.7770 H   0  0  0  0  0  0  0  0  0  0  0  0
  -30.3490  -20.4920   21.3550 C   0  0  0  0  0  3  0  0  0  0  0  0
  -29.2490  -20.9990   20.7610 C   0  0  0  0  0  3  0  0  0  0  0  0
  -33.1920  -18.0480   20.9820 C   0  0  0  0  0  3  0  0  0  0  0  0
  -32.4470  -19.2150   21.2220 C   0  0  0  0  0  3  0  0  0  0  0  0
  -32.5390  -16.8640   20.6040 C   0  0  0  0  0  3  0  0  0  0  0  0
  -30.3890  -18.0230   20.6800 C   0  0  0  0  0  3  0  0  0  0  0  0
  -31.0420  -19.2170   21.0830 C   0  0  0  0  0  0  0  0  0  0  0  0
  -31.1350  -16.8370   20.4420 C   0  0  0  0  0  0  0  0  0  0  0  0
  -31.0040  -14.5830   19.4220 C   0  0  0  0  0  0  0  0  0  0  0  0
  -30.5650  -12.3410   18.4840 C   0  0  0  0  0  2  0  0  0  0  0  0
  -29.5050  -12.4190   17.3680 C   0  0  0  0  0  2  0  0  0  0  0  0
  -28.0860  -12.3280   17.9580 C   0  0  0  0  0  2  0  0  0  0  0  0
  -27.8710  -13.2960   19.1520 C   0  0  0  0  0  3  0  0  0  0  0  0
  -29.0310  -13.1900   20.1660 C   0  0  0  0  0  2  0  0  0  0  0  0
  -30.2900  -13.4260   19.4400 N   0  0  0  0  0  0  0  0  0  0  0  0
  -32.0280  -14.7200   18.7440 O   0  0  0  0  0  0  0  0  0  0  0  0
  -30.4750  -15.6160   20.1080 N   0  0  0  0  0  0  0  0  0  0  0  0
  -29.5380  -15.4890   20.4570 H   0  0  0  0  0  0  0  0  0  0  0  0
  -25.6080  -14.0030   20.1520 C   0  0  0  0  0  0  0  0  0  0  0  0
  -24.5560  -13.2760   20.6410 C   0  0  0  0  0  0  0  0  0  0  0  0
  -24.9440  -11.9050   20.5400 C   0  0  0  0  0  0  0  0  0  0  0  0
  -26.5740  -13.0780   19.7890 N   0  0  0  0  0  0  0  0  0  0  0  0
  -26.1840  -11.8100   20.0760 N   0  0  0  0  0  0  0  0  0  0  0  0
  -24.1860  -10.6750   20.8040 C   0  0  0  0  0  0  0  0  0  0  0  0
  -24.5620   -9.7800   21.8290 C   0  0  0  0  0  3  0  0  0  0  0  0
  -23.8060   -8.6140   22.0750 C   0  0  0  0  0  3  0  0  0  0  0  0
  -22.6590   -8.3340   21.2950 C   0  0  0  0  0  0  0  0  0  0  0  0
  -22.3030   -9.2150   20.2590 C   0  0  0  0  0  3  0  0  0  0  0  0
  -23.0580  -10.3740   20.0120 C   0  0  0  0  0  3  0  0  0  0  0  0
  -21.8800   -7.2130   21.4450 O   0  0  0  0  0  0  0  0  0  0  0  0
  -21.6430   -6.6610   22.6780 C   0  0  0  0  0  0  0  0  0  0  0  0
  -21.0100   -7.3860   23.7110 C   0  0  0  0  0  3  0  0  0  0  0  0
  -20.7240   -6.7590   24.9390 C   0  0  0  0  0  3  0  0  0  0  0  0
  -21.0590   -5.4060   25.1350 C   0  0  0  0  0  0  0  0  0  0  0  0
  -21.6850   -4.6800   24.1060 C   0  0  0  0  0  3  0  0  0  0  0  0
  -21.9730   -5.3050   22.8800 C   0  0  0  0  0  0  0  0  0  0  0  0
  -22.5560   -4.5950   21.8840 F   0  0  0  0  0  0  0  0  0  0  0  0
  -20.7770   -4.7990   26.3120 F   0  0  0  0  0  0  0  0  0  0  0  0
  -23.2280  -13.8140   21.0870 C   0  0  0  0  0  0  0  0  0  0  0  0
  -22.5930  -13.1560   22.0510 N   0  0  0  0  0  0  0  0  0  0  0  0
  -22.7670  -14.8530   20.6150 O   0  0  0  0  0  0  0  0  0  0  0  0
  -22.9800  -12.3160   22.4530 H   0  0  0  0  0  0  0  0  0  0  0  0
  -21.7060  -13.4990   22.3930 H   0  0  0  0  0  0  0  0  0  0  0  0
  -25.8170  -15.3670   19.9690 N   0  0  0  0  0  0  0  0  0  0  0  0
  -25.0990  -16.0550   20.1690 H   0  0  0  0  0  0  0  0  0  0  0  0
  -26.6390  -15.7690   19.5370 H   0  0  0  0  0  0  0  0  0  0  0  0
  -28.0750  -25.5520   19.3310 C   0  0  0  0  0  2  0  0  0  0  0  0
  -28.0150  -26.9250   19.7670 O   0  0  0  0  0  0  0  0  0  0  0  0
  -24.3230  -31.8750   23.2830 C   0  0  0  0  0  0  0  0  0  0  0  0
  -26.8140  -27.6080   19.8410 C   0  0  0  0  0  0  0  0  0  0  0  0
  -23.0430  -30.5810   21.6070 C   0  0  0  0  0  3  0  0  0  0  0  0
  -24.4260  -29.1230   20.0390 C   0  0  0  0  0  0  0  0  0  0  0  0
  -25.5610  -30.9380   21.3310 C   0  0  0  0  0  2  0  0  0  0  0  0
  -25.6090  -29.6060   20.6090 C   0  0  0  0  0  0  0  0  0  0  0  0
  -26.8020  -28.8570   20.5050 C   0  0  0  0  0  3  0  0  0  0  0  0
  -25.6060  -27.1340   19.2760 C   0  0  0  0  0  3  0  0  0  0  0  0
  -24.4190  -27.8860   19.3730 C   0  0  0  0  0  3  0  0  0  0  0  0
  -23.1930  -29.9850   20.1820 C   0  0  0  0  0  2  0  0  0  0  0  0
  -24.3290  -31.1430   22.1320 N   0  0  0  0  0  0  0  0  0  0  0  0
  -23.2660  -32.1220   23.8790 O   0  0  0  0  0  0  0  0  0  0  0  0
  -22.4220  -29.5080   22.5300 C   0  0  0  0  0  0  0  0  0  0  0  0
  -21.1190  -29.2420   22.3470 N   0  0  0  0  0  0  0  0  0  0  0  0
  -23.1120  -28.9160   23.3640 O   0  0  0  0  0  0  0  0  0  0  0  0
  -20.6200  -29.7760   21.6470 H   0  0  0  0  0  0  0  0  0  0  0  0
  -17.8430  -27.7370   22.5950 C   0  0  0  0  0  0  0  0  0  0  0  0
  -20.3330  -28.2430   23.0710 C   0  0  0  0  0  3  0  0  0  0  0  0
  -20.6190  -26.8200   22.5420 C   0  0  0  0  0  2  0  0  0  0  0  0
  -19.6430  -26.3750   21.4490 C   0  0  0  0  0  2  0  0  0  0  0  0
  -18.2040  -26.3990   21.9730 C   0  0  0  0  0  2  0  0  0  0  0  0
  -18.8450  -28.6110   23.0960 C   0  0  0  0  0  0  0  0  0  0  0  0
  -18.4600  -29.8600   23.6300 C   0  0  0  0  0  3  0  0  0  0  0  0
  -17.1060  -30.2370   23.6740 C   0  0  0  0  0  3  0  0  0  0  0  0
  -16.1160  -29.3610   23.1920 C   0  0  0  0  0  3  0  0  0  0  0  0
  -16.4860  -28.1140   22.6570 C   0  0  0  0  0  3  0  0  0  0  0  0
  -25.6370  -32.4600   23.8870 C   0  0  0  0  0  3  0  0  0  0  0  0
  -26.1470  -31.6670   25.1520 C   0  0  1  0  0  0  0  0  0  0  0  0
  -25.0490  -31.4090   26.2100 C   0  0  0  0  0  1  0  0  0  0  0  0
  -26.7300  -30.2950   24.7360 C   0  0  0  0  0  1  0  0  0  0  0  0
  -27.2950  -32.4470   25.8340 C   0  0  0  0  0  1  0  0  0  0  0  0
  -25.3820  -33.8670   24.2240 N   0  0  0  0  0  0  0  0  0  0  0  0
  -25.7400  -34.9080   23.4610 C   0  0  0  0  0  0  0  0  0  0  0  0
  -26.3920  -34.7830   22.4200 O   0  0  0  0  0  0  0  0  0  0  0  0
  -24.8050  -34.0410   25.0330 H   0  0  0  0  0  0  0  0  0  0  0  0
  -24.0730  -36.7610   23.1240 C   0  0  0  0  0  1  0  0  0  0  0  0
  -25.3050  -36.3120   23.9250 C   0  0  0  0  0  3  0  0  0  0  0  0
  -27.4710  -37.1220   24.7480 C   0  0  0  0  0  1  0  0  0  0  0  0
  -26.3730  -37.3270   23.8080 N   0  0  0  0  0  0  0  0  0  0  0  0
  -26.0000  -38.2620   23.9540 H   0  0  0  0  0  0  0  0  0  0  0  0
  1  4  2  0
  2  5  2  0
  3  2  1  0
  3  1  1  0
  4  8  1  0
  4  7  1  0
  6  3  1  0
 10  1  1  0
 10  9  2  0
 11 12  1  0
 13 11  2  0
 14 15  1  0
 15 12  2  0
 15  9  1  0
 16 13  1  0
 16 14  2  0
 17 23  1  0
 17 25  1  0
 18 23  1  0
 19 20  1  0
 19 18  1  0
 21 20  1  0
 21 30  1  0
 21 22  1  0
 23 22  1  0
 24 17  2  0
 25 16  1  0
 25 26  1  0
 27 28  2  0
 28 47  1  0
 29 28  1  0
 29 32  1  0
 30 31  1  0
 30 27  1  0
 31 29  2  0
 32 33  1  0
 33 34  2  0
 35 38  1  0
 35 34  1  0
 36 35  2  0
 37 36  1  0
 37 32  2  0
 38 39  1  0
 39 44  2  0
 39 40  1  0
 40 41  2  0
 41 42  1  0
 42 46  1  0
 43 42  2  0
 44 43  1  0
 45 44  1  0
 47 48  1  0
 48 51  1  0
 48 50  1  0
 49 47  2  0
 52 27  1  0
 52 53  1  0
 54 52  1  0
 55 56  1  0
 55  2  1  0
 56 58  1  0
 57 68  2  0
 58 63  1  0
 59 67  1  0
 59 69  1  0
 60 66  1  0
 60 62  1  0
 61 67  1  0
 62 61  1  0
 63 62  2  0
 64 65  1  0
 64 58  2  0
 65 60  2  0
 66 59  1  0
 67 57  1  0
 69 71  2  0
 70 69  1  0
 72 70  1  0
 73 82  2  0
 73 78  1  0
 74 70  1  0
 74 78  1  0
 75 74  1  0
 76 77  1  0
 76 75  1  0
 77 73  1  0
 78 79  2  0
 79 80  1  0
 81 80  2  0
 82 81  1  0
 83 57  1  0
 83 88  1  0
 83 84  1  0
 84 87  1  1
 84 85  1  0
 86 84  1  0
 88 91  1  0
 89 93  1  0
 89 88  1  0
 90 89  2  0
 93 92  1  0
 95 93  1  0
 95 96  1  0
 95 94  1  0
M  ISO  4  17 100  25 100  55 101  56 101
M  END
>  <TORSDO>  (53) 
F 19

>  <SCORE>  (53) 
-12.002

>  <name>  (53) 
52

>  <ligand_id>  (53) 
52

>  <original_smiles>  (53) 
[H]C(=C([H])c1c([H])c([H])c([H])c(N([H])C(=O)N2C([H])([H])C([H])([H])C([H])([H])C([H])(n3nc(-c4c([H])c([H])c(Oc5c([H])c([H])c(F)c([H])c5F)c([H])c4[H])c(C(=O)N([H])[H])c3N([H])[H])C2([H])[H])c1[H])C(N([H])C(=O)C([H])([H])Oc1c([H])c([H])c2c(c1[H])C([H])([H])N(C(=O)C([H])(N([H])C(=O)C([H])(N([H])C([H])([H])[H])C([H])([H])[H])C(C([H])([H])[H])(C([H])([H])[H])C([H])([H])[H])C([H])(C(=O)N([H])C1([H])c3c([H])c([H])c([H])c([H])c3C([H])([H])C([H])([H])C1([H])[H])C2([H])[H])=[N+]([H])[H]

>  <smiles>  (53) 
[H]C(=C([H])c1c([H])c([H])c([H])c(N([H])C(=O)N2C([H])([H])C([H])([H])C([H])([H])C([H])(n3nc(-c4c([H])c([H])c(Oc5c([H])c([H])c(F)c([H])c5F)c([H])c4[H])c(C(=O)N([H])[H])c3N([H])[H])C2([H])[H])c1[H])C(N([H])C(=O)C([H])([H])Oc1c([H])c([H])c2c(c1[H])C([H])([H])N(C(=O)C([H])(N([H])C(=O)C([H])(N([H])C([H])([H])[H])C([H])([H])[H])C(C([H])([H])[H])(C([H])([H])[H])C([H])([H])[H])C([H])(C(=O)N([H])C1([H])c3c([H])c([H])c([H])c([H])c3C([H])([H])C([H])([H])C1([H])[H])C2([H])[H])=[N+]([H])[H]

$$$$
53:0:0
     RDKit          3D

 99108  0  0  1  0  0  0  0  0999 V2000
  -29.3260  -24.0140   20.0830 C   0  0  0  0  0  0  0  0  0  0  0  0
  -30.6230  -24.3930   20.2240 C   0  0  0  0  0  0  0  0  0  0  0  0
  -29.0050  -22.5330   20.0430 C   0  0  0  0  0  0  0  0  0  0  0  0
  -31.7350  -23.4020   20.5020 C   0  0  0  0  0  2  0  0  0  0  0  0
  -31.1910  -22.0960   21.0830 C   0  0  0  0  0  2  0  0  0  0  0  0
  -31.1200  -25.8250   20.1240 C   0  0  0  0  0  1  0  0  0  0  0  0
  -29.9950  -21.6170   20.3860 N   0  0  0  0  0  0  0  0  0  0  0  0
  -27.8980  -22.1230   19.6810 O   0  0  0  0  0  0  0  0  0  0  0  0
  -29.7590  -19.4090   21.5240 C   0  0  0  0  0  3  0  0  0  0  0  0
  -29.8090  -17.9870   21.5740 C   0  0  0  0  0  3  0  0  0  0  0  0
  -30.1860  -17.9120   19.2070 C   0  0  0  0  0  3  0  0  0  0  0  0
  -30.1260  -19.3470   19.1350 C   0  0  0  0  0  0  0  0  0  0  0  0
  -29.9070  -20.1420   20.3140 C   0  0  0  0  0  0  0  0  0  0  0  0
  -30.0480  -17.1920   20.4240 C   0  0  0  0  0  0  0  0  0  0  0  0
  -30.7490  -14.7240   19.9780 C   0  0  0  0  0  0  0  0  0  0  0  0
  -30.5180  -12.4840   18.9150 C   0  0  0  0  0  2  0  0  0  0  0  0
  -29.4900  -12.5910   17.7670 C   0  0  0  0  0  2  0  0  0  0  0  0
  -28.0530  -12.4050   18.2930 C   0  0  0  0  0  2  0  0  0  0  0  0
  -27.7640  -13.2640   19.5520 C   0  0  0  0  0  3  0  0  0  0  0  0
  -28.8940  -13.1140   20.5950 C   0  0  0  0  0  2  0  0  0  0  0  0
  -30.1590  -13.4860   19.9410 N   0  0  0  0  0  0  0  0  0  0  0  0
  -31.8470  -14.9260   19.4510 O   0  0  0  0  0  0  0  0  0  0  0  0
  -30.0060  -15.7310   20.5410 N   0  0  0  0  0  0  0  0  0  0  0  0
  -29.2420  -15.3790   21.0980 H   0  0  0  0  0  0  0  0  0  0  0  0
  -25.4300  -13.8380   20.4650 C   0  0  0  0  0  0  0  0  0  0  0  0
  -24.3890  -13.0510   20.8800 C   0  0  0  0  0  0  0  0  0  0  0  0
  -24.8430  -11.7020   20.7640 C   0  0  0  0  0  0  0  0  0  0  0  0
  -26.4510  -12.9660   20.1220 N   0  0  0  0  0  0  0  0  0  0  0  0
  -26.1080  -11.6740   20.3610 N   0  0  0  0  0  0  0  0  0  0  0  0
  -24.1280  -10.4340   20.9590 C   0  0  0  0  0  0  0  0  0  0  0  0
  -24.5580   -9.4850   21.9140 C   0  0  0  0  0  3  0  0  0  0  0  0
  -23.8440   -8.2820   22.0980 C   0  0  0  0  0  3  0  0  0  0  0  0
  -22.6870   -8.0170   21.3260 C   0  0  0  0  0  0  0  0  0  0  0  0
  -22.2780   -8.9550   20.3620 C   0  0  0  0  0  3  0  0  0  0  0  0
  -22.9920  -10.1500   20.1770 C   0  0  0  0  0  3  0  0  0  0  0  0
  -21.9480   -6.8630   21.4160 O   0  0  0  0  0  0  0  0  0  0  0  0
  -21.7850   -6.2030   22.6080 C   0  0  0  0  0  0  0  0  0  0  0  0
  -21.1500   -6.8100   23.7140 C   0  0  0  0  0  3  0  0  0  0  0  0
  -20.9400   -6.0720   24.8960 C   0  0  0  0  0  3  0  0  0  0  0  0
  -21.3550   -4.7290   24.9730 C   0  0  0  0  0  0  0  0  0  0  0  0
  -21.9850   -4.1220   23.8710 C   0  0  0  0  0  3  0  0  0  0  0  0
  -22.1940   -4.8570   22.6910 C   0  0  0  0  0  0  0  0  0  0  0  0
  -22.7810   -4.2620   21.6250 F   0  0  0  0  0  0  0  0  0  0  0  0
  -21.1480   -4.0180   26.1050 F   0  0  0  0  0  0  0  0  0  0  0  0
  -23.0160  -13.5180   21.2700 C   0  0  0  0  0  0  0  0  0  0  0  0
  -22.3650  -12.8120   22.1870 N   0  0  0  0  0  0  0  0  0  0  0  0
  -22.5320  -14.5450   20.7970 O   0  0  0  0  0  0  0  0  0  0  0  0
  -22.7690  -11.9810   22.5920 H   0  0  0  0  0  0  0  0  0  0  0  0
  -21.4490  -13.1110   22.4900 H   0  0  0  0  0  0  0  0  0  0  0  0
  -25.5870  -15.2150   20.3350 N   0  0  0  0  0  0  0  0  0  0  0  0
  -24.8430  -15.8680   20.5520 H   0  0  0  0  0  0  0  0  0  0  0  0
  -26.4230  -15.6700   19.9890 H   0  0  0  0  0  0  0  0  0  0  0  0
  -30.2910  -19.9690   17.7760 C   0  0  0  0  0  0  0  0  0  0  0  0
  -31.2150  -20.9130   17.6570 N   0  0  0  0  0  0  0  0  0  0  0  0
  -29.6440  -19.5730   16.8090 O   0  0  0  0  0  0  0  0  0  0  0  0
  -31.7810  -21.1660   18.4510 H   0  0  0  0  0  0  0  0  0  0  0  0
  -31.3850  -21.3450   16.7620 H   0  0  0  0  0  0  0  0  0  0  0  0
  -28.1510  -25.0540   19.8830 C   0  0  0  0  0  2  0  0  0  0  0  0
  -28.3460  -26.4970   20.1960 O   0  0  0  0  0  0  0  0  0  0  0  0
  -24.6640  -31.8930   23.2750 C   0  0  0  0  0  0  0  0  0  0  0  0
  -27.2360  -27.3590   20.1480 C   0  0  0  0  0  0  0  0  0  0  0  0
  -23.4520  -30.5400   21.6050 C   0  0  0  0  0  3  0  0  0  0  0  0
  -24.8910  -29.0010   20.1560 C   0  0  0  0  0  0  0  0  0  0  0  0
  -25.9960  -30.8310   21.4390 C   0  0  0  0  0  2  0  0  0  0  0  0
  -26.0630  -29.4640   20.7660 C   0  0  0  0  0  0  0  0  0  0  0  0
  -27.2380  -28.6560   20.7520 C   0  0  0  0  0  3  0  0  0  0  0  0
  -26.0390  -26.9510   19.5160 C   0  0  0  0  0  3  0  0  0  0  0  0
  -24.8810  -27.7500   19.5220 C   0  0  0  0  0  3  0  0  0  0  0  0
  -23.6650  -29.8890   20.2130 C   0  0  0  0  0  2  0  0  0  0  0  0
  -24.7230  -31.1050   22.1630 N   0  0  0  0  0  0  0  0  0  0  0  0
  -23.5810  -32.1750   23.8100 O   0  0  0  0  0  0  0  0  0  0  0  0
  -22.7710  -29.5140   22.5430 C   0  0  0  0  0  0  0  0  0  0  0  0
  -21.4440  -29.3570   22.4050 N   0  0  0  0  0  0  0  0  0  0  0  0
  -23.4370  -28.8640   23.3520 O   0  0  0  0  0  0  0  0  0  0  0  0
  -20.9650  -29.9340   21.7280 H   0  0  0  0  0  0  0  0  0  0  0  0
  -18.0430  -28.2230   22.8910 C   0  0  0  0  0  0  0  0  0  0  0  0
  -20.6080  -28.4160   23.1550 C   0  0  0  0  0  3  0  0  0  0  0  0
  -20.6740  -26.9980   22.5420 C   0  0  0  0  0  2  0  0  0  0  0  0
  -19.5610  -26.7290   21.5240 C   0  0  0  0  0  2  0  0  0  0  0  0
  -18.1850  -26.8900   22.1770 C   0  0  0  0  0  2  0  0  0  0  0  0
  -19.1810  -28.9480   23.3360 C   0  0  0  0  0  0  0  0  0  0  0  0
  -18.9940  -30.1980   23.9640 C   0  0  0  0  0  3  0  0  0  0  0  0
  -17.7010  -30.7240   24.1510 C   0  0  0  0  0  3  0  0  0  0  0  0
  -16.5780  -29.9960   23.7210 C   0  0  0  0  0  3  0  0  0  0  0  0
  -16.7500  -28.7470   23.0970 C   0  0  0  0  0  3  0  0  0  0  0  0
  -25.9510  -32.4990   23.9150 C   0  0  0  0  0  3  0  0  0  0  0  0
  -26.4630  -31.6850   25.1680 C   0  0  1  0  0  0  0  0  0  0  0  0
  -25.3640  -31.4140   26.2230 C   0  0  0  0  0  1  0  0  0  0  0  0
  -27.0490  -30.3210   24.7340 C   0  0  0  0  0  1  0  0  0  0  0  0
  -27.6090  -32.4590   25.8610 C   0  0  0  0  0  1  0  0  0  0  0  0
  -25.6500  -33.8870   24.2900 N   0  0  0  0  0  0  0  0  0  0  0  0
  -25.9410  -34.9590   23.5410 C   0  0  0  0  0  0  0  0  0  0  0  0
  -26.5640  -34.8820   22.4780 O   0  0  0  0  0  0  0  0  0  0  0  0
  -25.0910  -34.0200   25.1190 H   0  0  0  0  0  0  0  0  0  0  0  0
  -24.1790  -36.7420   23.3220 C   0  0  0  0  0  1  0  0  0  0  0  0
  -25.4700  -36.3340   24.0520 C   0  0  0  0  0  3  0  0  0  0  0  0
  -27.6310  -37.2390   24.7860 C   0  0  0  0  0  1  0  0  0  0  0  0
  -26.4840  -37.4000   23.8970 N   0  0  0  0  0  0  0  0  0  0  0  0
  -26.0730  -38.3140   24.0700 H   0  0  0  0  0  0  0  0  0  0  0  0
  1  2  2  0
  2  4  1  0
  3  1  1  0
  3  7  1  0
  4  5  1  0
  6  2  1  0
  7  5  1  0
  8  3  2  0
  9 10  1  0
 11 14  1  0
 12 11  2  0
 12 13  1  0
 13  7  1  0
 13  9  2  0
 14 23  1  0
 14 10  2  0
 15 23  1  0
 16 21  1  0
 17 18  1  0
 17 16  1  0
 19 18  1  0
 19 28  1  0
 19 20  1  0
 21 15  1  0
 21 20  1  0
 22 15  2  0
 23 24  1  0
 25 26  2  0
 26 45  1  0
 27 26  1  0
 27 30  1  0
 28 29  1  0
 28 25  1  0
 29 27  2  0
 30 31  1  0
 31 32  2  0
 33 36  1  0
 33 32  1  0
 34 33  2  0
 35 34  1  0
 35 30  2  0
 36 37  1  0
 37 42  2  0
 37 38  1  0
 38 39  2  0
 39 40  1  0
 40 44  1  0
 41 40  2  0
 42 41  1  0
 43 42  1  0
 45 46  1  0
 46 49  1  0
 46 48  1  0
 47 45  2  0
 50 25  1  0
 50 51  1  0
 52 50  1  0
 53 12  1  0
 54 53  1  0
 54 56  1  0
 55 53  2  0
 57 54  1  0
 58  1  1  0
 58 59  1  0
 60 71  2  0
 61 59  1  0
 61 66  1  0
 62 70  1  0
 62 72  1  0
 63 69  1  0
 63 65  1  0
 64 70  1  0
 65 64  1  0
 66 65  2  0
 67 68  1  0
 67 61  2  0
 68 63  2  0
 69 62  1  0
 70 60  1  0
 72 74  2  0
 73 72  1  0
 75 73  1  0
 76 85  2  0
 76 81  1  0
 77 73  1  0
 77 81  1  0
 78 77  1  0
 79 80  1  0
 79 78  1  0
 80 76  1  0
 81 82  2  0
 82 83  1  0
 84 83  2  0
 85 84  1  0
 86 60  1  0
 86 91  1  0
 86 87  1  0
 87 90  1  1
 87 88  1  0
 89 87  1  0
 91 94  1  0
 92 96  1  0
 92 91  1  0
 93 92  2  0
 96 95  1  0
 98 96  1  0
 98 99  1  0
 98 97  1  0
M  ISO  4  15 100  23 100  58 101  59 101
M  END
>  <TORSDO>  (54) 
F 19

>  <SCORE>  (54) 
-13.724

>  <name>  (54) 
53

>  <ligand_id>  (54) 
53

>  <original_smiles>  (54) 
[H]c1c([H])c([H])c2c(c1[H])C([H])([H])C([H])([H])C([H])([H])C2([H])N([H])C(=O)C1([H])N(C(=O)C([H])(N([H])C(=O)C([H])(N([H])C([H])([H])[H])C([H])([H])[H])C(C([H])([H])[H])(C([H])([H])[H])C([H])([H])[H])C([H])([H])c2c([H])c(OC([H])([H])C3=C(C([H])([H])[H])C([H])([H])C([H])([H])N(c4c([H])c([H])c(N([H])C(=O)N5C([H])([H])C([H])([H])C([H])([H])C([H])(n6nc(-c7c([H])c([H])c(Oc8c([H])c([H])c(F)c([H])c8F)c([H])c7[H])c(C(=O)N([H])[H])c6N([H])[H])C5([H])[H])c([H])c4C(=O)N([H])[H])C3=O)c([H])c([H])c2C1([H])[H]

>  <smiles>  (54) 
[H]c1c([H])c([H])c2c(c1[H])C([H])([H])C([H])([H])C([H])([H])C2([H])N([H])C(=O)C1([H])N(C(=O)C([H])(N([H])C(=O)C([H])(N([H])C([H])([H])[H])C([H])([H])[H])C(C([H])([H])[H])(C([H])([H])[H])C([H])([H])[H])C([H])([H])c2c([H])c(OC([H])([H])C3=C(C([H])([H])[H])C([H])([H])C([H])([H])N(c4c([H])c([H])c(N([H])C(=O)N5C([H])([H])C([H])([H])C([H])([H])C([H])(n6nc(-c7c([H])c([H])c(Oc8c([H])c([H])c(F)c([H])c8F)c([H])c7[H])c(C(=O)N([H])[H])c6N([H])[H])C5([H])[H])c([H])c4C(=O)N([H])[H])C3=O)c([H])c([H])c2C1([H])[H]

$$$$
54:0:0
     RDKit          3D

 96105  0  0  1  0  0  0  0  0999 V2000
  -31.7640  -22.9550   20.7050 C   0  0  0  0  0  0  0  0  0  0  0  0
  -29.0490  -23.5430   20.1210 C   0  0  0  0  0  0  0  0  0  0  0  0
  -32.9580  -23.1680   20.1270 C   0  0  0  0  0  2  0  0  0  0  0  0
  -28.2410  -24.5020   19.3870 C   0  0  0  0  0  3  0  0  0  0  0  0
  -31.1540  -23.8560   21.7230 C   0  0  0  0  0  2  0  0  0  0  0  0
  -30.8960  -21.7540   20.4550 C   0  0  0  0  0  2  0  0  0  0  0  0
  -29.7710  -24.3380   21.2600 C   0  0  0  0  0  3  0  0  0  0  0  0
  -29.4780  -22.0290   20.1320 N   0  0  0  0  0  0  0  0  0  0  0  0
  -27.8850  -19.1270   18.1470 C   0  0  0  0  0  3  0  0  0  0  0  0
  -28.1590  -20.4100   18.6950 C   0  0  0  0  0  3  0  0  0  0  0  0
  -28.4770  -17.9130   18.5890 C   0  0  0  0  0  3  0  0  0  0  0  0
  -29.6460  -19.2380   20.2100 C   0  0  0  0  0  3  0  0  0  0  0  0
  -29.0800  -20.5960   19.7440 C   0  0  0  0  0  0  0  0  0  0  0  0
  -29.3990  -17.8410   19.6590 C   0  0  0  0  0  0  0  0  0  0  0  0
  -30.4390  -15.1650   19.7570 C   0  0  0  0  0  0  0  0  0  0  0  0
  -30.3330  -12.7260   18.9410 C   0  0  0  0  0  2  0  0  0  0  0  0
  -29.3340  -12.5850   17.7640 C   0  0  0  0  0  2  0  0  0  0  0  0
  -27.9030  -12.3620   18.2830 C   0  0  0  0  0  2  0  0  0  0  0  0
  -27.5500  -13.3240   19.4440 C   0  0  0  0  0  3  0  0  0  0  0  0
  -28.6680  -13.4240   20.5080 C   0  0  0  0  0  2  0  0  0  0  0  0
  -29.8880  -13.8650   19.8150 N   0  0  0  0  0  0  0  0  0  0  0  0
  -31.5920  -15.2110   19.3060 O   0  0  0  0  0  0  0  0  0  0  0  0
  -29.7190  -16.3680   20.1650 N   0  0  0  0  0  0  0  0  0  0  0  0
  -28.9480  -16.0300   20.7240 H   0  0  0  0  0  0  0  0  0  0  0  0
  -25.2410  -13.9200   20.3610 C   0  0  0  0  0  0  0  0  0  0  0  0
  -24.1920  -13.1560   20.7960 C   0  0  0  0  0  0  0  0  0  0  0  0
  -24.6300  -11.7980   20.7130 C   0  0  0  0  0  0  0  0  0  0  0  0
  -26.2480  -13.0300   20.0340 N   0  0  0  0  0  0  0  0  0  0  0  0
  -25.8960  -11.7450   20.3090 N   0  0  0  0  0  0  0  0  0  0  0  0
  -23.8930  -10.5460   20.9380 C   0  0  0  0  0  0  0  0  0  0  0  0
  -24.3640   -9.5620   21.8360 C   0  0  0  0  0  3  0  0  0  0  0  0
  -23.6230   -8.3770   22.0510 C   0  0  0  0  0  3  0  0  0  0  0  0
  -22.4000   -8.1720   21.3710 C   0  0  0  0  0  0  0  0  0  0  0  0
  -21.9470   -9.1460   20.4610 C   0  0  0  0  0  3  0  0  0  0  0  0
  -22.6870  -10.3220   20.2440 C   0  0  0  0  0  3  0  0  0  0  0  0
  -21.6280   -7.0420   21.4940 O   0  0  0  0  0  0  0  0  0  0  0  0
  -21.6350   -6.2880   22.6420 C   0  0  0  0  0  0  0  0  0  0  0  0
  -21.2620   -6.8310   23.8910 C   0  0  0  0  0  3  0  0  0  0  0  0
  -21.2160   -6.0060   25.0320 C   0  0  0  0  0  3  0  0  0  0  0  0
  -21.5320   -4.6380   24.9270 C   0  0  0  0  0  0  0  0  0  0  0  0
  -21.8980   -4.0940   23.6820 C   0  0  0  0  0  3  0  0  0  0  0  0
  -21.9450   -4.9160   22.5420 C   0  0  0  0  0  0  0  0  0  0  0  0
  -22.2770   -4.3810   21.3420 F   0  0  0  0  0  0  0  0  0  0  0  0
  -21.4820   -3.8430   26.0210 F   0  0  0  0  0  0  0  0  0  0  0  0
  -22.8300  -13.6570   21.1710 C   0  0  0  0  0  0  0  0  0  0  0  0
  -22.1530  -12.9680   22.0820 N   0  0  0  0  0  0  0  0  0  0  0  0
  -22.3730  -14.6920   20.6890 O   0  0  0  0  0  0  0  0  0  0  0  0
  -22.5300  -12.1280   22.4940 H   0  0  0  0  0  0  0  0  0  0  0  0
  -21.2420  -13.2910   22.3750 H   0  0  0  0  0  0  0  0  0  0  0  0
  -25.4140  -15.2920   20.1940 N   0  0  0  0  0  0  0  0  0  0  0  0
  -24.6670  -15.9550   20.3750 H   0  0  0  0  0  0  0  0  0  0  0  0
  -26.2370  -15.7330   19.8050 H   0  0  0  0  0  0  0  0  0  0  0  0
  -27.9930  -23.6990   22.9390 C   0  0  0  0  0  2  0  0  0  0  0  0
  -28.8870  -24.5890   22.4790 C   0  0  0  0  0  0  0  0  0  0  0  0
  -29.0690  -25.9410   23.1440 C   0  0  0  0  0  1  0  0  0  0  0  0
  -28.2310  -26.0160   19.5210 O   0  0  0  0  0  0  0  0  0  0  0  0
  -24.5480  -31.5740   22.8800 C   0  0  0  0  0  0  0  0  0  0  0  0
  -27.1350  -27.0000   19.5250 C   0  0  0  0  0  0  0  0  0  0  0  0
  -23.3280  -30.2470   21.1960 C   0  0  0  0  0  3  0  0  0  0  0  0
  -24.7720  -28.7640   19.6400 C   0  0  0  0  0  0  0  0  0  0  0  0
  -25.8770  -30.5440   20.9840 C   0  0  0  0  0  2  0  0  0  0  0  0
  -25.9600  -29.1820   20.2530 C   0  0  0  0  0  0  0  0  0  0  0  0
  -27.1290  -28.3170   20.1790 C   0  0  0  0  0  3  0  0  0  0  0  0
  -25.9160  -26.7120   18.8730 C   0  0  0  0  0  3  0  0  0  0  0  0
  -24.7680  -27.5480   18.9340 C   0  0  0  0  0  3  0  0  0  0  0  0
  -23.5290  -29.6420   19.7770 C   0  0  0  0  0  2  0  0  0  0  0  0
  -24.6050  -30.8130   21.7410 N   0  0  0  0  0  0  0  0  0  0  0  0
  -23.4720  -31.8090   23.4530 O   0  0  0  0  0  0  0  0  0  0  0  0
  -22.6920  -29.1820   22.1230 C   0  0  0  0  0  0  0  0  0  0  0  0
  -21.3600  -29.0090   22.0460 N   0  0  0  0  0  0  0  0  0  0  0  0
  -23.4000  -28.5100   22.8760 O   0  0  0  0  0  0  0  0  0  0  0  0
  -20.8410  -29.6030   21.4160 H   0  0  0  0  0  0  0  0  0  0  0  0
  -18.0060  -27.7820   22.6660 C   0  0  0  0  0  0  0  0  0  0  0  0
  -20.5800  -28.0160   22.7920 C   0  0  0  0  0  3  0  0  0  0  0  0
  -20.6320  -26.6330   22.0950 C   0  0  0  0  0  2  0  0  0  0  0  0
  -19.4660  -26.4020   21.1290 C   0  0  0  0  0  2  0  0  0  0  0  0
  -18.1280  -26.4950   21.8690 C   0  0  0  0  0  2  0  0  0  0  0  0
  -19.1560  -28.5050   23.0850 C   0  0  0  0  0  0  0  0  0  0  0  0
  -18.9810  -29.7140   23.7930 C   0  0  0  0  0  3  0  0  0  0  0  0
  -17.6920  -30.1940   24.0930 C   0  0  0  0  0  3  0  0  0  0  0  0
  -16.5590  -29.4670   23.6870 C   0  0  0  0  0  3  0  0  0  0  0  0
  -16.7170  -28.2650   22.9770 C   0  0  0  0  0  3  0  0  0  0  0  0
  -25.8290  -32.2030   23.5060 C   0  0  0  0  0  3  0  0  0  0  0  0
  -25.4910  -33.5660   23.9540 N   0  0  0  0  0  0  0  0  0  0  0  0
  -25.7740  -34.6870   23.2780 C   0  0  0  0  0  0  0  0  0  0  0  0
  -26.4110  -34.6820   22.2210 O   0  0  0  0  0  0  0  0  0  0  0  0
  -24.9220  -33.6370   24.7840 H   0  0  0  0  0  0  0  0  0  0  0  0
  -23.9970  -36.4650   23.1280 C   0  0  0  0  0  1  0  0  0  0  0  0
  -25.2730  -36.0240   23.8620 C   0  0  0  0  0  3  0  0  0  0  0  0
  -27.4100  -36.9030   24.6970 C   0  0  0  0  0  1  0  0  0  0  0  0
  -26.2760  -37.1090   23.8000 N   0  0  0  0  0  0  0  0  0  0  0  0
  -25.8540  -38.0050   24.0260 H   0  0  0  0  0  0  0  0  0  0  0  0
  -26.4050  -31.3620   24.7140 C   0  0  1  0  0  0  0  0  0  0  0  0
  -25.3540  -31.0360   25.8020 C   0  0  0  0  0  1  0  0  0  0  0  0
  -27.0040  -30.0240   24.2220 C   0  0  0  0  0  1  0  0  0  0  0  0
  -27.5550  -32.1410   25.3900 C   0  0  0  0  0  1  0  0  0  0  0  0
  1  5  1  0
  2  8  1  0
  2  7  1  0
  3  1  2  0
  4 56  1  0
  4  2  2  0
  6  1  1  0
  7  5  1  0
  7 54  1  0
  8  6  1  0
  9 11  2  0
  9 10  1  0
 10 13  2  0
 11 14  1  0
 13  8  1  0
 13 12  1  0
 14 23  1  0
 14 12  2  0
 15 21  1  0
 15 23  1  0
 16 21  1  0
 17 18  1  0
 17 16  1  0
 19 18  1  0
 19 28  1  0
 19 20  1  0
 21 20  1  0
 22 15  2  0
 23 24  1  0
 25 26  2  0
 26 45  1  0
 27 26  1  0
 27 30  1  0
 28 29  1  0
 28 25  1  0
 29 27  2  0
 30 31  1  0
 31 32  2  0
 33 36  1  0
 33 32  1  0
 34 33  2  0
 35 34  1  0
 35 30  2  0
 36 37  1  0
 37 38  1  0
 38 39  2  0
 40 39  1  0
 40 44  1  0
 41 40  2  0
 42 37  2  0
 42 41  1  0
 43 42  1  0
 45 46  1  0
 46 49  1  0
 46 48  1  0
 47 45  2  0
 50 25  1  0
 50 51  1  0
 52 50  1  0
 54 53  2  0
 54 55  1  0
 56 58  1  0
 57 68  2  0
 58 63  1  0
 59 67  1  0
 59 69  1  0
 60 66  1  0
 60 62  1  0
 61 67  1  0
 62 61  1  0
 63 62  2  0
 64 65  1  0
 64 58  2  0
 65 60  2  0
 66 59  1  0
 67 57  1  0
 69 71  2  0
 70 69  1  0
 72 70  1  0
 73 82  2  0
 73 78  1  0
 74 70  1  0
 74 78  1  0
 75 74  1  0
 76 77  1  0
 76 75  1  0
 77 73  1  0
 78 79  2  0
 79 80  1  0
 81 80  2  0
 82 81  1  0
 83 57  1  0
 83 84  1  0
 83 93  1  0
 84 87  1  0
 85 89  1  0
 85 84  1  0
 86 85  2  0
 89 88  1  0
 91 89  1  0
 91 92  1  0
 91 90  1  0
 93 96  1  1
 93 94  1  0
 95 93  1  0
M  ISO  4   4 101  15 100  23 100  56 101
M  END
>  <TORSDO>  (55) 
F 18

>  <SCORE>  (55) 
-12.807

>  <name>  (55) 
54

>  <ligand_id>  (55) 
54

>  <original_smiles>  (55) 
[H]C([H])=C1C([H])([H])N(c2c([H])c([H])c([H])c(N([H])C(=O)N3C([H])([H])C([H])([H])C([H])([H])C([H])(n4nc(-c5c([H])c([H])c(Oc6c([H])c([H])c(F)c([H])c6F)c([H])c5[H])c(C(=O)N([H])[H])c4N([H])[H])C3([H])[H])c2[H])C(=C([H])Oc2c([H])c([H])c3c(c2[H])C([H])([H])N(C(=O)C([H])(N([H])C(=O)C([H])(N([H])C([H])([H])[H])C([H])([H])[H])C(C([H])([H])[H])(C([H])([H])[H])C([H])([H])[H])C([H])(C(=O)N([H])C2([H])c4c([H])c([H])c([H])c([H])c4C([H])([H])C([H])([H])C2([H])[H])C3([H])[H])C([H])(C(=C([H])[H])C([H])([H])[H])C1([H])[H]

>  <smiles>  (55) 
[H]C([H])=C1C([H])([H])N(c2c([H])c([H])c([H])c(N([H])C(=O)N3C([H])([H])C([H])([H])C([H])([H])C([H])(n4nc(-c5c([H])c([H])c(Oc6c([H])c([H])c(F)c([H])c6F)c([H])c5[H])c(C(=O)N([H])[H])c4N([H])[H])C3([H])[H])c2[H])C(=C([H])Oc2c([H])c([H])c3c(c2[H])C([H])([H])N(C(=O)C([H])(N([H])C(=O)C([H])(N([H])C([H])([H])[H])C([H])([H])[H])C(C([H])([H])[H])(C([H])([H])[H])C([H])([H])[H])C([H])(C(=O)N([H])C2([H])c4c([H])c([H])c([H])c([H])c4C([H])([H])C([H])([H])C2([H])[H])C3([H])[H])C([H])(C(=C([H])[H])C([H])([H])[H])C1([H])[H]

$$$$
55:0:0
     RDKit          3D

 95104  0  0  1  0  0  0  0  0999 V2000
  -31.1300  -19.1940   20.3230 C   0  0  0  0  0  3  0  0  0  0  0  0
  -28.9010  -18.3530   20.1860 C   0  0  0  0  0  3  0  0  0  0  0  0
  -30.6590  -20.5110   20.0940 C   0  0  0  0  0  3  0  0  0  0  0  0
  -28.4320  -19.6790   19.9850 C   0  0  0  0  0  3  0  0  0  0  0  0
  -30.2690  -18.0700   20.4160 C   0  0  0  0  0  0  0  0  0  0  0  0
  -29.2850  -20.8140   19.9580 C   0  0  0  0  0  0  0  0  0  0  0  0
  -28.2600  -24.0400   20.2810 C   0  0  0  0  0  0  0  0  0  0  0  0
  -29.2280  -23.4230   19.4020 C   0  0  0  0  0  0  0  0  0  0  0  0
  -27.7910  -25.2970   20.5050 C   0  0  0  0  0  3  0  0  0  0  0  0
  -27.9390  -22.6890   20.8970 C   0  0  0  0  0  2  0  0  0  0  0  0
  -28.7720  -22.1540   19.8130 N   0  0  0  0  0  0  0  0  0  0  0  0
  -30.1290  -23.8830   18.7300 O   0  0  0  0  0  0  0  0  0  0  0  0
  -28.0730  -26.4890   19.8470 O   0  0  0  0  0  0  0  0  0  0  0  0
  -24.5210  -31.7860   23.0900 C   0  0  0  0  0  0  0  0  0  0  0  0
  -26.9950  -27.3580   19.8230 C   0  0  0  0  0  0  0  0  0  0  0  0
  -23.2480  -30.4440   21.4510 C   0  0  0  0  0  3  0  0  0  0  0  0
  -24.6380  -28.9300   19.9340 C   0  0  0  0  0  0  0  0  0  0  0  0
  -25.7760  -30.7640   21.1910 C   0  0  0  0  0  2  0  0  0  0  0  0
  -25.8260  -29.4100   20.5050 C   0  0  0  0  0  0  0  0  0  0  0  0
  -27.0120  -28.6330   20.4450 C   0  0  0  0  0  3  0  0  0  0  0  0
  -25.7950  -26.9100   19.2330 C   0  0  0  0  0  3  0  0  0  0  0  0
  -24.6210  -27.6810   19.2910 C   0  0  0  0  0  3  0  0  0  0  0  0
  -23.4080  -29.8030   20.0470 C   0  0  0  0  0  2  0  0  0  0  0  0
  -24.5350  -31.0110   21.9680 N   0  0  0  0  0  0  0  0  0  0  0  0
  -23.4610  -32.0600   23.6670 O   0  0  0  0  0  0  0  0  0  0  0  0
  -22.6090  -29.4060   22.4030 C   0  0  0  0  0  0  0  0  0  0  0  0
  -21.2800  -29.2350   22.3010 N   0  0  0  0  0  0  0  0  0  0  0  0
  -23.3040  -28.7600   23.1920 O   0  0  0  0  0  0  0  0  0  0  0  0
  -20.7800  -29.8080   21.6370 H   0  0  0  0  0  0  0  0  0  0  0  0
  -17.9050  -28.0730   22.8710 C   0  0  0  0  0  0  0  0  0  0  0  0
  -20.4730  -28.2870   23.0700 C   0  0  0  0  0  3  0  0  0  0  0  0
  -20.5370  -26.8710   22.4510 C   0  0  0  0  0  2  0  0  0  0  0  0
  -19.4000  -26.5950   21.4620 C   0  0  0  0  0  2  0  0  0  0  0  0
  -18.0410  -26.7400   22.1530 C   0  0  0  0  0  2  0  0  0  0  0  0
  -19.0470  -28.8070   23.2880 C   0  0  0  0  0  0  0  0  0  0  0  0
  -18.8660  -30.0560   23.9200 C   0  0  0  0  0  3  0  0  0  0  0  0
  -17.5750  -30.5710   24.1400 C   0  0  0  0  0  3  0  0  0  0  0  0
  -16.4470  -29.8330   23.7400 C   0  0  0  0  0  3  0  0  0  0  0  0
  -16.6130  -28.5860   23.1110 C   0  0  0  0  0  3  0  0  0  0  0  0
  -25.8330  -32.3840   23.6870 C   0  0  0  0  0  3  0  0  0  0  0  0
  -26.3900  -31.5600   24.9120 C   0  0  1  0  0  0  0  0  0  0  0  0
  -25.3330  -31.2800   26.0050 C   0  0  0  0  0  1  0  0  0  0  0  0
  -26.9560  -30.1990   24.4440 C   0  0  0  0  0  1  0  0  0  0  0  0
  -27.5640  -32.3250   25.5670 C   0  0  0  0  0  1  0  0  0  0  0  0
  -25.5500  -33.7710   24.0790 N   0  0  0  0  0  0  0  0  0  0  0  0
  -25.8720  -34.8480   23.3500 C   0  0  0  0  0  0  0  0  0  0  0  0
  -26.5120  -34.7780   22.2970 O   0  0  0  0  0  0  0  0  0  0  0  0
  -24.9800  -33.9000   24.9020 H   0  0  0  0  0  0  0  0  0  0  0  0
  -24.1660  -36.6770   23.0970 C   0  0  0  0  0  1  0  0  0  0  0  0
  -25.4120  -36.2220   23.8730 C   0  0  0  0  0  3  0  0  0  0  0  0
  -27.5650  -37.0460   24.7170 C   0  0  0  0  0  1  0  0  0  0  0  0
  -26.4580  -37.2640   23.7900 N   0  0  0  0  0  0  0  0  0  0  0  0
  -26.0670  -38.1840   23.9750 H   0  0  0  0  0  0  0  0  0  0  0  0
  -30.8380  -16.7090   20.8310 C   0  0  0  0  0  3  0  0  0  0  0  0
  -30.5330  -14.5200   19.6590 C   0  0  0  0  0  0  0  0  0  0  0  0
  -30.0390  -12.4130   18.4640 C   0  0  0  0  0  2  0  0  0  0  0  0
  -28.9510  -12.6580   17.4020 C   0  0  0  0  0  2  0  0  0  0  0  0
  -27.5500  -12.4870   18.0190 C   0  0  0  0  0  2  0  0  0  0  0  0
  -27.3830  -13.2710   19.3490 C   0  0  0  0  0  3  0  0  0  0  0  0
  -28.5790  -13.0360   20.2990 C   0  0  0  0  0  2  0  0  0  0  0  0
  -29.8100  -13.3680   19.5650 N   0  0  0  0  0  0  0  0  0  0  0  0
  -31.5720  -14.6840   19.0170 O   0  0  0  0  0  0  0  0  0  0  0  0
  -30.0490  -15.5140   20.4400 N   0  0  0  0  0  0  0  0  0  0  0  0
  -29.1840  -15.3480   20.9290 H   0  0  0  0  0  0  0  0  0  0  0  0
  -25.1030  -13.8250   20.4030 C   0  0  0  0  0  0  0  0  0  0  0  0
  -24.0930  -13.0290   20.8720 C   0  0  0  0  0  0  0  0  0  0  0  0
  -24.5440  -11.6830   20.7140 C   0  0  0  0  0  0  0  0  0  0  0  0
  -26.1080  -12.9610   19.9920 N   0  0  0  0  0  0  0  0  0  0  0  0
  -25.7820  -11.6660   20.2350 N   0  0  0  0  0  0  0  0  0  0  0  0
  -23.8470  -10.4100   20.9360 C   0  0  0  0  0  0  0  0  0  0  0  0
  -24.3370   -9.4470   21.8460 C   0  0  0  0  0  3  0  0  0  0  0  0
  -23.6380   -8.2400   22.0570 C   0  0  0  0  0  3  0  0  0  0  0  0
  -22.4340   -7.9850   21.3590 C   0  0  0  0  0  0  0  0  0  0  0  0
  -21.9620   -8.9370   20.4380 C   0  0  0  0  0  3  0  0  0  0  0  0
  -22.6620  -10.1360   20.2250 C   0  0  0  0  0  3  0  0  0  0  0  0
  -21.7010   -6.8290   21.4810 O   0  0  0  0  0  0  0  0  0  0  0  0
  -21.6530   -6.1270   22.6600 C   0  0  0  0  0  0  0  0  0  0  0  0
  -21.1690   -6.7080   23.8520 C   0  0  0  0  0  3  0  0  0  0  0  0
  -21.0720   -5.9310   25.0240 C   0  0  0  0  0  3  0  0  0  0  0  0
  -21.4490   -4.5740   25.0030 C   0  0  0  0  0  0  0  0  0  0  0  0
  -21.9260   -3.9940   23.8150 C   0  0  0  0  0  3  0  0  0  0  0  0
  -22.0250   -4.7680   22.6460 C   0  0  0  0  0  0  0  0  0  0  0  0
  -22.4660   -4.1990   21.4990 F   0  0  0  0  0  0  0  0  0  0  0  0
  -21.3480   -3.8260   26.1270 F   0  0  0  0  0  0  0  0  0  0  0  0
  -22.7460  -13.4870   21.3510 C   0  0  0  0  0  0  0  0  0  0  0  0
  -22.1380  -12.7460   22.2720 N   0  0  0  0  0  0  0  0  0  0  0  0
  -22.2450  -14.5350   20.9450 O   0  0  0  0  0  0  0  0  0  0  0  0
  -22.5590  -11.8980   22.6210 H   0  0  0  0  0  0  0  0  0  0  0  0
  -21.2400  -13.0330   22.6340 H   0  0  0  0  0  0  0  0  0  0  0  0
  -25.2460  -15.2030   20.2710 N   0  0  0  0  0  0  0  0  0  0  0  0
  -24.4990  -15.8460   20.5080 H   0  0  0  0  0  0  0  0  0  0  0  0
  -26.0380  -15.6590   19.8360 H   0  0  0  0  0  0  0  0  0  0  0  0
  -30.9570  -16.7280   22.3740 C   0  0  0  0  0  0  0  0  0  0  0  0
  -31.6050  -15.5070   23.0130 C   0  0  0  0  0  1  0  0  0  0  0  0
  -30.5290  -17.6220   23.1100 O   0  0  0  0  0  0  0  0  0  0  0  0
  1  5  1  0
  2  5  2  0
  3  1  2  0
  4  2  1  0
  5 54  1  0
  6  4  2  0
  6  3  1  0
  7  9  2  0
  7 10  1  0
  8 11  1  0
  8  7  1  0
 11  6  1  0
 11 10  1  0
 12  8  2  0
 13  9  1  0
 14 25  2  0
 15 13  1  0
 15 20  1  0
 16 24  1  0
 16 26  1  0
 17 23  1  0
 17 19  1  0
 18 24  1  0
 19 18  1  0
 20 19  2  0
 21 22  1  0
 21 15  2  0
 22 17  2  0
 23 16  1  0
 24 14  1  0
 26 28  2  0
 27 26  1  0
 29 27  1  0
 30 39  2  0
 30 35  1  0
 31 27  1  0
 31 35  1  0
 32 31  1  0
 33 34  1  0
 33 32  1  0
 34 30  1  0
 35 36  2  0
 36 37  1  0
 38 37  2  0
 39 38  1  0
 40 14  1  0
 40 45  1  0
 40 41  1  0
 41 44  1  1
 41 42  1  0
 43 41  1  0
 45 48  1  0
 46 50  1  0
 46 45  1  0
 47 46  2  0
 50 49  1  0
 52 50  1  0
 52 53  1  0
 52 51  1  0
 54 93  1  0
 55 63  1  0
 56 61  1  0
 57 58  1  0
 57 56  1  0
 59 58  1  0
 59 68  1  0
 59 60  1  0
 61 55  1  0
 61 60  1  0
 62 55  2  0
 63 54  1  0
 63 64  1  0
 65 66  2  0
 66 85  1  0
 67 66  1  0
 67 70  1  0
 68 69  1  0
 68 65  1  0
 69 67  2  0
 70 71  1  0
 71 72  2  0
 73 76  1  0
 73 72  1  0
 74 73  2  0
 75 74  1  0
 75 70  2  0
 76 77  1  0
 77 78  1  0
 78 79  2  0
 80 79  1  0
 80 84  1  0
 81 80  2  0
 82 77  2  0
 82 81  1  0
 83 82  1  0
 85 86  1  0
 86 88  1  0
 86 89  1  0
 87 85  2  0
 90 65  1  0
 90 91  1  0
 92 90  1  0
 93 94  1  0
 93 95  2  0
M  ISO  4   9 101  13 101  55 100  63 100
M  END
>  <TORSDO>  (56) 
F 19

>  <SCORE>  (56) 
-11.541

>  <name>  (56) 
55

>  <ligand_id>  (56) 
55

>  <original_smiles>  (56) 
[H]C(Oc1c([H])c([H])c2c(c1[H])C([H])([H])N(C(=O)C([H])(N([H])C(=O)C([H])(N([H])C([H])([H])[H])C([H])([H])[H])C(C([H])([H])[H])(C([H])([H])[H])C([H])([H])[H])C([H])(C(=O)N([H])C1([H])c3c([H])c([H])c([H])c([H])c3C([H])([H])C([H])([H])C1([H])[H])C2([H])[H])=C1C(=O)N(c2c([H])c([H])c(C([H])(C(=O)C([H])([H])[H])N([H])C(=O)N3C([H])([H])C([H])([H])C([H])([H])C([H])(n4nc(-c5c([H])c([H])c(Oc6c([H])c([H])c(F)c([H])c6F)c([H])c5[H])c(C(=O)N([H])[H])c4N([H])[H])C3([H])[H])c([H])c2[H])C1([H])[H]

>  <smiles>  (56) 
[H]C(Oc1c([H])c([H])c2c(c1[H])C([H])([H])N(C(=O)C([H])(N([H])C(=O)C([H])(N([H])C([H])([H])[H])C([H])([H])[H])C(C([H])([H])[H])(C([H])([H])[H])C([H])([H])[H])C([H])(C(=O)N([H])C1([H])c3c([H])c([H])c([H])c([H])c3C([H])([H])C([H])([H])C1([H])[H])C2([H])[H])=C1C(=O)N(c2c([H])c([H])c(C([H])(C(=O)C([H])([H])[H])N([H])C(=O)N3C([H])([H])C([H])([H])C([H])([H])C([H])(n4nc(-c5c([H])c([H])c(Oc6c([H])c([H])c(F)c([H])c6F)c([H])c5[H])c(C(=O)N([H])[H])c4N([H])[H])C3([H])[H])c([H])c2[H])C1([H])[H]

$$$$
56:0:0
     RDKit          3D

 99107  0  0  1  0  0  0  0  0999 V2000
  -31.5930  -20.2630   21.8570 C   0  0  0  0  0  3  0  0  0  0  0  0
  -30.5750  -22.2980   22.7290 C   0  0  0  0  0  3  0  0  0  0  0  0
  -29.7230  -24.1350   21.2470 C   0  0  0  0  0  0  0  0  0  0  0  0
  -30.8820  -22.0070   24.1830 C   0  0  0  0  0  1  0  0  0  0  0  0
  -30.7030  -21.3160   21.7770 N   0  0  0  0  0  0  0  0  0  0  0  0
  -30.1050  -23.5560   22.5020 N   0  0  0  0  0  0  0  0  0  0  0  0
  -29.7030  -23.4660   20.2010 O   0  0  0  0  0  0  0  0  0  0  0  0
  -30.1250  -21.4010   20.9440 H   0  0  0  0  0  0  0  0  0  0  0  0
  -30.0850  -24.1190   23.3310 H   0  0  0  0  0  0  0  0  0  0  0  0
  -32.1780  -17.9740   21.0140 C   0  0  0  0  0  3  0  0  0  0  0  0
  -31.8650  -16.6300   20.7280 C   0  0  0  0  0  3  0  0  0  0  0  0
  -29.8350  -18.4600   21.4110 C   0  0  0  0  0  3  0  0  0  0  0  0
  -31.1770  -18.9030   21.3810 C   0  0  0  0  0  0  0  0  0  0  0  0
  -30.5250  -16.1760   20.7930 C   0  0  0  0  0  0  0  0  0  0  0  0
  -29.5180  -17.1120   21.1220 C   0  0  0  0  0  0  0  0  0  0  0  0
  -28.2290  -16.6940   21.1850 F   0  0  0  0  0  0  0  0  0  0  0  0
  -30.6330  -13.8680   19.7730 C   0  0  0  0  0  0  0  0  0  0  0  0
  -30.0590  -11.8420   18.4870 C   0  0  0  0  0  2  0  0  0  0  0  0
  -28.9870  -12.1930   17.4360 C   0  0  0  0  0  2  0  0  0  0  0  0
  -27.5740  -12.0800   18.0400 C   0  0  0  0  0  2  0  0  0  0  0  0
  -27.4440  -12.8190   19.4000 C   0  0  0  0  0  3  0  0  0  0  0  0
  -28.6150  -12.4560   20.3410 C   0  0  0  0  0  2  0  0  0  0  0  0
  -29.8740  -12.7470   19.6340 N   0  0  0  0  0  0  0  0  0  0  0  0
  -31.6710  -14.0390   19.1300 O   0  0  0  0  0  0  0  0  0  0  0  0
  -30.1130  -14.8210   20.5730 N   0  0  0  0  0  0  0  0  0  0  0  0
  -29.2430  -14.5700   21.0200 H   0  0  0  0  0  0  0  0  0  0  0  0
  -25.1530  -13.4580   20.3830 C   0  0  0  0  0  0  0  0  0  0  0  0
  -24.1170  -12.6990   20.8590 C   0  0  0  0  0  0  0  0  0  0  0  0
  -24.5440  -11.3400   20.7540 C   0  0  0  0  0  0  0  0  0  0  0  0
  -26.1470  -12.5620   20.0240 N   0  0  0  0  0  0  0  0  0  0  0  0
  -25.7900  -11.2810   20.3010 N   0  0  0  0  0  0  0  0  0  0  0  0
  -23.8180  -10.0880   21.0050 C   0  0  0  0  0  0  0  0  0  0  0  0
  -24.2640   -9.1560   21.9680 C   0  0  0  0  0  3  0  0  0  0  0  0
  -23.5390   -7.9680   22.2040 C   0  0  0  0  0  3  0  0  0  0  0  0
  -22.3530   -7.7050   21.4780 C   0  0  0  0  0  0  0  0  0  0  0  0
  -21.9250   -8.6250   20.5050 C   0  0  0  0  0  3  0  0  0  0  0  0
  -22.6520   -9.8040   20.2670 C   0  0  0  0  0  3  0  0  0  0  0  0
  -21.5980   -6.5660   21.6220 O   0  0  0  0  0  0  0  0  0  0  0  0
  -21.4980   -5.9160   22.8260 C   0  0  0  0  0  0  0  0  0  0  0  0
  -20.9640   -6.5450   23.9710 C   0  0  0  0  0  3  0  0  0  0  0  0
  -20.8160   -5.8180   25.1700 C   0  0  0  0  0  3  0  0  0  0  0  0
  -21.1920   -4.4620   25.2230 C   0  0  0  0  0  0  0  0  0  0  0  0
  -21.7200   -3.8330   24.0820 C   0  0  0  0  0  3  0  0  0  0  0  0
  -21.8700   -4.5570   22.8860 C   0  0  0  0  0  0  0  0  0  0  0  0
  -22.3590   -3.9400   21.7840 F   0  0  0  0  0  0  0  0  0  0  0  0
  -21.0430   -3.7620   26.3710 F   0  0  0  0  0  0  0  0  0  0  0  0
  -22.7710  -13.1980   21.2980 C   0  0  0  0  0  0  0  0  0  0  0  0
  -22.1420  -12.5110   22.2450 N   0  0  0  0  0  0  0  0  0  0  0  0
  -22.2890  -14.2310   20.8350 O   0  0  0  0  0  0  0  0  0  0  0  0
  -22.5460  -11.6740   22.6390 H   0  0  0  0  0  0  0  0  0  0  0  0
  -21.2430  -12.8270   22.5820 H   0  0  0  0  0  0  0  0  0  0  0  0
  -25.3260  -14.8280   20.2110 N   0  0  0  0  0  0  0  0  0  0  0  0
  -24.5970  -15.4970   20.4310 H   0  0  0  0  0  0  0  0  0  0  0  0
  -26.1590  -15.2610   19.8330 H   0  0  0  0  0  0  0  0  0  0  0  0
  -33.6430  -21.3770   22.2360 C   0  0  0  0  0  3  0  0  0  0  0  0
  -35.0350  -21.3830   22.8110 C   0  0  0  0  0  1  0  0  0  0  0  0
  -32.8800  -20.3580   22.3220 N   0  0  0  0  0  0  0  0  0  0  0  0
  -29.3560  -25.6380   21.3230 C   0  0  0  0  0  2  0  0  0  0  0  0
  -28.9080  -26.1370   20.0530 O   0  0  0  0  0  0  0  0  0  0  0  0
  -25.1670  -31.2640   23.3480 C   0  0  0  0  0  0  0  0  0  0  0  0
  -27.7950  -26.9440   20.0960 C   0  0  0  0  0  0  0  0  0  0  0  0
  -23.9790  -30.0000   21.5810 C   0  0  0  0  0  3  0  0  0  0  0  0
  -25.4430  -28.5080   20.1160 C   0  0  0  0  0  0  0  0  0  0  0  0
  -26.5180  -30.2960   21.4920 C   0  0  0  0  0  2  0  0  0  0  0  0
  -26.5900  -28.9610   20.7810 C   0  0  0  0  0  0  0  0  0  0  0  0
  -27.7700  -28.1830   20.7790 C   0  0  0  0  0  3  0  0  0  0  0  0
  -26.6410  -26.5100   19.4160 C   0  0  0  0  0  3  0  0  0  0  0  0
  -25.4610  -27.2790   19.4330 C   0  0  0  0  0  3  0  0  0  0  0  0
  -24.2200  -29.3970   20.1710 C   0  0  0  0  0  2  0  0  0  0  0  0
  -25.2380  -30.5310   22.2000 N   0  0  0  0  0  0  0  0  0  0  0  0
  -24.0760  -31.5360   23.8680 O   0  0  0  0  0  0  0  0  0  0  0  0
  -23.2670  -28.9440   22.4560 C   0  0  0  0  0  0  0  0  0  0  0  0
  -21.9450  -28.8030   22.2670 N   0  0  0  0  0  0  0  0  0  0  0  0
  -23.9020  -28.2560   23.2600 O   0  0  0  0  0  0  0  0  0  0  0  0
  -21.4970  -29.4100   21.5950 H   0  0  0  0  0  0  0  0  0  0  0  0
  -18.5280  -27.6660   22.5510 C   0  0  0  0  0  0  0  0  0  0  0  0
  -21.0760  -27.8450   22.9490 C   0  0  0  0  0  3  0  0  0  0  0  0
  -21.1730  -26.4450   22.3000 C   0  0  0  0  0  2  0  0  0  0  0  0
  -20.1100  -26.2050   21.2220 C   0  0  0  0  0  2  0  0  0  0  0  0
  -18.7050  -26.3500   21.8130 C   0  0  0  0  0  2  0  0  0  0  0  0
  -19.6430  -28.3750   23.0710 C   0  0  0  0  0  0  0  0  0  0  0  0
  -19.4260  -29.6110   23.7190 C   0  0  0  0  0  3  0  0  0  0  0  0
  -18.1270  -30.1350   23.8540 C   0  0  0  0  0  3  0  0  0  0  0  0
  -17.0260  -29.4210   23.3520 C   0  0  0  0  0  3  0  0  0  0  0  0
  -17.2270  -28.1870   22.7070 C   0  0  0  0  0  3  0  0  0  0  0  0
  -26.4490  -31.8160   24.0460 C   0  0  0  0  0  3  0  0  0  0  0  0
  -26.9040  -30.9510   25.2840 C   0  0  1  0  0  0  0  0  0  0  0  0
  -25.7750  -30.6880   26.3070 C   0  0  0  0  0  1  0  0  0  0  0  0
  -27.4500  -29.5800   24.8200 C   0  0  0  0  0  1  0  0  0  0  0  0
  -28.0630  -31.6610   26.0230 C   0  0  0  0  0  1  0  0  0  0  0  0
  -26.1700  -33.2000   24.4520 N   0  0  0  0  0  0  0  0  0  0  0  0
  -26.5630  -34.2850   23.7710 C   0  0  0  0  0  0  0  0  0  0  0  0
  -27.2670  -34.2230   22.7600 O   0  0  0  0  0  0  0  0  0  0  0  0
  -25.5510  -33.3250   25.2390 H   0  0  0  0  0  0  0  0  0  0  0  0
  -24.9040  -36.1500   23.4640 C   0  0  0  0  0  1  0  0  0  0  0  0
  -26.0990  -35.6570   24.2950 C   0  0  0  0  0  3  0  0  0  0  0  0
  -28.2140  -36.4290   25.2730 C   0  0  0  0  0  1  0  0  0  0  0  0
  -27.1660  -36.6810   24.2880 N   0  0  0  0  0  0  0  0  0  0  0  0
  -26.7800  -37.6050   24.4640 H   0  0  0  0  0  0  0  0  0  0  0  0
  1 57  1  0
  2  4  1  0
  3 58  1  0
  3  6  1  0
  5  1  1  0
  5  2  1  0
  6  2  1  0
  6  9  1  0
  7  3  2  0
  8  5  1  0
 10 13  1  0
 11 14  1  0
 11 10  2  0
 13 12  2  0
 13  1  1  0
 14 15  2  0
 15 16  1  0
 15 12  1  0
 17 25  1  0
 18 23  1  0
 19 20  1  0
 19 18  1  0
 21 20  1  0
 21 30  1  0
 21 22  1  0
 23 17  1  0
 23 22  1  0
 24 17  2  0
 25 14  1  0
 25 26  1  0
 27 28  2  0
 28 47  1  0
 29 28  1  0
 29 32  1  0
 30 31  1  0
 30 27  1  0
 31 29  2  0
 32 33  1  0
 33 34  2  0
 35 38  1  0
 35 34  1  0
 36 35  2  0
 37 36  1  0
 37 32  2  0
 38 39  1  0
 39 44  2  0
 39 40  1  0
 40 41  2  0
 41 42  1  0
 42 46  1  0
 43 42  2  0
 44 43  1  0
 45 44  1  0
 47 48  1  0
 48 51  1  0
 48 50  1  0
 49 47  2  0
 52 27  1  0
 52 53  1  0
 54 52  1  0
 55 57  2  0
 55 56  1  0
 59 61  1  0
 59 58  1  0
 60 71  2  0
 61 66  1  0
 62 70  1  0
 62 72  1  0
 63 69  1  0
 63 65  1  0
 64 70  1  0
 65 64  1  0
 66 65  2  0
 67 68  1  0
 67 61  2  0
 68 63  2  0
 69 62  1  0
 70 60  1  0
 72 74  2  0
 73 72  1  0
 75 73  1  0
 76 85  2  0
 76 81  1  0
 77 73  1  0
 77 81  1  0
 78 77  1  0
 79 80  1  0
 79 78  1  0
 80 76  1  0
 81 82  2  0
 82 83  1  0
 84 83  2  0
 85 84  1  0
 86 60  1  0
 86 91  1  0
 86 87  1  0
 87 90  1  1
 87 88  1  0
 89 87  1  0
 91 94  1  0
 92 96  1  0
 92 91  1  0
 93 92  2  0
 96 95  1  0
 98 96  1  0
 98 99  1  0
 98 97  1  0
M  ISO  4  17 100  25 100  58 101  59 101
M  END
>  <TORSDO>  (57) 
F 19

>  <SCORE>  (57) 
-11.766

>  <name>  (57) 
56

>  <ligand_id>  (57) 
56

>  <original_smiles>  (57) 
[H]C(=NC(c1c([H])c([H])c(N([H])C(=O)N2C([H])([H])C([H])([H])C([H])([H])C([H])(n3nc(-c4c([H])c([H])c(Oc5c([H])c([H])c(F)c([H])c5F)c([H])c4[H])c(C(=O)N([H])[H])c3N([H])[H])C2([H])[H])c(F)c1[H])=[N+]([H])C(=[N+]([H])C(=O)C([H])([H])Oc1c([H])c([H])c2c(c1[H])C([H])([H])N(C(=O)C([H])(N([H])C(=O)C([H])(N([H])C([H])([H])[H])C([H])([H])[H])C(C([H])([H])[H])(C([H])([H])[H])C([H])([H])[H])C([H])(C(=O)N([H])C1([H])c3c([H])c([H])c([H])c([H])c3C([H])([H])C([H])([H])C1([H])[H])C2([H])[H])C([H])([H])[H])C([H])([H])[H]

>  <smiles>  (57) 
[H]C(=NC(c1c([H])c([H])c(N([H])C(=O)N2C([H])([H])C([H])([H])C([H])([H])C([H])(n3nc(-c4c([H])c([H])c(Oc5c([H])c([H])c(F)c([H])c5F)c([H])c4[H])c(C(=O)N([H])[H])c3N([H])[H])C2([H])[H])c(F)c1[H])=[N+]([H])C(=[N+]([H])C(=O)C([H])([H])Oc1c([H])c([H])c2c(c1[H])C([H])([H])N(C(=O)C([H])(N([H])C(=O)C([H])(N([H])C([H])([H])[H])C([H])([H])[H])C(C([H])([H])[H])(C([H])([H])[H])C([H])([H])[H])C([H])(C(=O)N([H])C1([H])c3c([H])c([H])c([H])c([H])c3C([H])([H])C([H])([H])C1([H])[H])C2([H])[H])C([H])([H])[H])C([H])([H])[H]

$$$$
57:0:0
     RDKit          3D

 97105  0  0  1  0  0  0  0  0999 V2000
  -29.5190  -20.7130   21.3440 C   0  0  0  0  0  0  0  0  0  0  0  0
  -29.8500  -23.1830   21.1400 C   0  0  0  0  0  0  0  0  0  0  0  0
  -30.2510  -21.8060   21.0390 N   0  0  0  0  0  0  0  0  0  0  0  0
  -28.2630  -20.8060   21.7960 N   0  0  0  0  0  4  0  0  0  0  0  0
  -28.7480  -23.5200   21.5870 O   0  0  0  0  0  0  0  0  0  0  0  0
  -31.1730  -21.5550   20.7150 H   0  0  0  0  0  0  0  0  0  0  0  0
  -27.6970  -19.9850   21.9420 H   0  0  0  0  0  0  0  0  0  0  0  0
  -27.8640  -21.7280   21.9250 H   0  0  0  0  0  0  0  0  0  0  0  0
  -30.6020  -18.9320   19.9340 C   0  0  0  0  0  3  0  0  0  0  0  0
  -31.0700  -17.6080   19.7790 C   0  0  0  0  0  3  0  0  0  0  0  0
  -30.0750  -18.4740   22.2700 C   0  0  0  0  0  3  0  0  0  0  0  0
  -30.0850  -19.3680   21.1770 C   0  0  0  0  0  0  0  0  0  0  0  0
  -31.0140  -16.7040   20.8680 C   0  0  0  0  0  0  0  0  0  0  0  0
  -30.5310  -17.1540   22.1130 C   0  0  0  0  0  0  0  0  0  0  0  0
  -30.4740  -16.2930   23.1580 F   0  0  0  0  0  0  0  0  0  0  0  0
  -31.6210  -14.6120   19.7090 C   0  0  0  0  0  0  0  0  0  0  0  0
  -31.1870  -12.4510   18.5940 C   0  0  0  0  0  2  0  0  0  0  0  0
  -30.0790  -12.5880   17.5320 C   0  0  0  0  0  2  0  0  0  0  0  0
  -28.6840  -12.4270   18.1670 C   0  0  0  0  0  2  0  0  0  0  0  0
  -28.5000  -13.3180   19.4210 C   0  0  0  0  0  3  0  0  0  0  0  0
  -29.6930  -13.1420   20.3860 C   0  0  0  0  0  2  0  0  0  0  0  0
  -30.9460  -13.4340   19.6590 N   0  0  0  0  0  0  0  0  0  0  0  0
  -32.4830  -14.9430   18.8880 O   0  0  0  0  0  0  0  0  0  0  0  0
  -31.3650  -15.3330   20.8040 N   0  0  0  0  0  0  0  0  0  0  0  0
  -30.9430  -14.7980   21.5490 H   0  0  0  0  0  0  0  0  0  0  0  0
  -26.3080  -13.9330   20.6320 C   0  0  0  0  0  0  0  0  0  0  0  0
  -25.2580  -13.1690   21.0680 C   0  0  0  0  0  0  0  0  0  0  0  0
  -25.5940  -11.8180   20.7450 C   0  0  0  0  0  0  0  0  0  0  0  0
  -27.2250  -13.0480   20.0860 N   0  0  0  0  0  0  0  0  0  0  0  0
  -26.8050  -11.7610   20.2030 N   0  0  0  0  0  0  0  0  0  0  0  0
  -24.8120  -10.5820   20.8680 C   0  0  0  0  0  0  0  0  0  0  0  0
  -25.2190   -9.5320   21.7220 C   0  0  0  0  0  3  0  0  0  0  0  0
  -24.4410   -8.3610   21.8360 C   0  0  0  0  0  3  0  0  0  0  0  0
  -23.2420   -8.2300   21.0970 C   0  0  0  0  0  0  0  0  0  0  0  0
  -22.8530   -9.2680   20.2330 C   0  0  0  0  0  3  0  0  0  0  0  0
  -23.6300  -10.4320   20.1160 C   0  0  0  0  0  3  0  0  0  0  0  0
  -22.4350   -7.1180   21.1260 O   0  0  0  0  0  0  0  0  0  0  0  0
  -22.2160   -6.4170   22.2850 C   0  0  0  0  0  0  0  0  0  0  0  0
  -21.7090   -7.0390   23.4470 C   0  0  0  0  0  3  0  0  0  0  0  0
  -21.4330   -6.2690   24.5940 C   0  0  0  0  0  3  0  0  0  0  0  0
  -21.6540   -4.8780   24.5790 C   0  0  0  0  0  0  0  0  0  0  0  0
  -22.1520   -4.2560   23.4210 C   0  0  0  0  0  3  0  0  0  0  0  0
  -22.4300   -5.0240   22.2760 C   0  0  0  0  0  0  0  0  0  0  0  0
  -22.8910   -4.4170   21.1560 F   0  0  0  0  0  0  0  0  0  0  0  0
  -21.3810   -4.1370   25.6780 F   0  0  0  0  0  0  0  0  0  0  0  0
  -23.9730  -13.6670   21.6620 C   0  0  0  0  0  0  0  0  0  0  0  0
  -23.3820  -12.9030   22.5750 N   0  0  0  0  0  0  0  0  0  0  0  0
  -23.5070  -14.7630   21.3530 O   0  0  0  0  0  0  0  0  0  0  0  0
  -23.7750  -12.0130   22.8460 H   0  0  0  0  0  0  0  0  0  0  0  0
  -22.5260  -13.2140   23.0130 H   0  0  0  0  0  0  0  0  0  0  0  0
  -26.5510  -15.3040   20.6400 N   0  0  0  0  0  0  0  0  0  0  0  0
  -25.8650  -15.9710   20.9750 H   0  0  0  0  0  0  0  0  0  0  0  0
  -27.3620  -15.7430   20.2230 H   0  0  0  0  0  0  0  0  0  0  0  0
  -30.8810  -24.2120   20.6560 C   0  0  0  0  0  2  0  0  0  0  0  0
  -30.3160  -25.2110   19.6220 C   0  0  0  0  0  2  0  0  0  0  0  0
  -29.2770  -26.2110   20.1620 C   0  0  0  0  0  2  0  0  0  0  0  0
  -28.9190  -27.0880   19.1050 O   0  0  0  0  0  0  0  0  0  0  0  0
  -24.9940  -31.4800   23.1030 C   0  0  0  0  0  0  0  0  0  0  0  0
  -27.7250  -27.7290   19.3010 C   0  0  0  0  0  0  0  0  0  0  0  0
  -23.7920  -30.2930   21.2940 C   0  0  0  0  0  3  0  0  0  0  0  0
  -25.2630  -29.0610   19.6130 C   0  0  0  0  0  0  0  0  0  0  0  0
  -26.2870  -30.8060   21.0860 C   0  0  0  0  0  2  0  0  0  0  0  0
  -26.4120  -29.5530   20.2470 C   0  0  0  0  0  0  0  0  0  0  0  0
  -27.6480  -28.8900   20.0960 C   0  0  0  0  0  3  0  0  0  0  0  0
  -26.5650  -27.2370   18.6690 C   0  0  0  0  0  3  0  0  0  0  0  0
  -25.3310  -27.8980   18.8250 C   0  0  0  0  0  3  0  0  0  0  0  0
  -23.9830  -29.8390   19.8220 C   0  0  0  0  0  2  0  0  0  0  0  0
  -25.0440  -30.8650   21.8880 N   0  0  0  0  0  0  0  0  0  0  0  0
  -23.9220  -31.6160   23.7090 O   0  0  0  0  0  0  0  0  0  0  0  0
  -23.2190  -29.1070   22.1030 C   0  0  0  0  0  0  0  0  0  0  0  0
  -21.8970  -28.8940   21.9930 N   0  0  0  0  0  0  0  0  0  0  0  0
  -23.9570  -28.3880   22.7820 O   0  0  0  0  0  0  0  0  0  0  0  0
  -21.3620  -29.5320   21.4210 H   0  0  0  0  0  0  0  0  0  0  0  0
  -18.5870  -27.5090   22.4090 C   0  0  0  0  0  0  0  0  0  0  0  0
  -21.1440  -27.8150   22.6310 C   0  0  0  0  0  3  0  0  0  0  0  0
  -21.2680  -26.5000   21.8270 C   0  0  0  0  0  2  0  0  0  0  0  0
  -20.1370  -26.3030   20.8130 C   0  0  0  0  0  2  0  0  0  0  0  0
  -18.7790  -26.2910   21.5210 C   0  0  0  0  0  2  0  0  0  0  0  0
  -19.6980  -28.2340   22.9170 C   0  0  0  0  0  0  0  0  0  0  0  0
  -19.4650  -29.3790   23.7090 C   0  0  0  0  0  3  0  0  0  0  0  0
  -18.1530  -29.8000   23.9970 C   0  0  0  0  0  3  0  0  0  0  0  0
  -17.0570  -29.0700   23.5060 C   0  0  0  0  0  3  0  0  0  0  0  0
  -17.2760  -27.9250   22.7170 C   0  0  0  0  0  3  0  0  0  0  0  0
  -26.2750  -32.0660   23.7770 C   0  0  0  0  0  3  0  0  0  0  0  0
  -26.8740  -31.1270   24.8950 C   0  0  1  0  0  0  0  0  0  0  0  0
  -25.8320  -30.6590   25.9370 C   0  0  0  0  0  1  0  0  0  0  0  0
  -27.5110  -29.8670   24.2640 C   0  0  0  0  0  1  0  0  0  0  0  0
  -28.0060  -31.8650   25.6490 C   0  0  0  0  0  1  0  0  0  0  0  0
  -25.9210  -33.3780   24.3330 N   0  0  0  0  0  0  0  0  0  0  0  0
  -26.1790  -34.5500   23.7380 C   0  0  0  0  0  0  0  0  0  0  0  0
  -26.8130  -34.6400   22.6820 O   0  0  0  0  0  0  0  0  0  0  0  0
  -25.3520  -33.3770   25.1670 H   0  0  0  0  0  0  0  0  0  0  0  0
  -24.3500  -36.2750   23.7370 C   0  0  0  0  0  1  0  0  0  0  0  0
  -25.6500  -35.8250   24.4210 C   0  0  0  0  0  3  0  0  0  0  0  0
  -27.7790  -36.6940   25.2820 C   0  0  0  0  0  1  0  0  0  0  0  0
  -26.6240  -36.9380   24.4240 N   0  0  0  0  0  0  0  0  0  0  0  0
  -26.1820  -37.8030   24.7250 H   0  0  0  0  0  0  0  0  0  0  0  0
  1  4  2  0
  2  5  2  0
  3  2  1  0
  3  1  1  0
  4  8  1  0
  4  7  1  0
  6  3  1  0
  9 12  1  0
 10  9  2  0
 10 13  1  0
 12  1  1  0
 12 11  2  0
 13 14  2  0
 14 11  1  0
 14 15  1  0
 16 24  1  0
 17 22  1  0
 18 19  1  0
 18 17  1  0
 20 19  1  0
 20 29  1  0
 20 21  1  0
 22 16  1  0
 22 21  1  0
 23 16  2  0
 24 13  1  0
 24 25  1  0
 26 51  1  0
 26 27  2  0
 27 46  1  0
 28 31  1  0
 28 27  1  0
 29 30  1  0
 29 26  1  0
 30 28  2  0
 31 32  1  0
 32 33  2  0
 34 37  1  0
 34 33  1  0
 35 34  2  0
 36 35  1  0
 36 31  2  0
 37 38  1  0
 38 39  1  0
 39 40  2  0
 41 40  1  0
 41 45  1  0
 42 41  2  0
 43 38  2  0
 43 42  1  0
 44 43  1  0
 46 47  1  0
 47 49  1  0
 47 50  1  0
 48 46  2  0
 51 52  1  0
 53 51  1  0
 54  2  1  0
 55 56  1  0
 55 54  1  0
 57 59  1  0
 57 56  1  0
 58 69  2  0
 59 64  1  0
 60 68  1  0
 60 70  1  0
 61 67  1  0
 61 63  1  0
 62 68  1  0
 63 62  1  0
 64 63  2  0
 65 66  1  0
 65 59  2  0
 66 61  2  0
 67 60  1  0
 68 58  1  0
 70 72  2  0
 71 70  1  0
 73 71  1  0
 74 83  2  0
 74 79  1  0
 75 71  1  0
 75 79  1  0
 76 75  1  0
 77 78  1  0
 77 76  1  0
 78 74  1  0
 79 80  2  0
 80 81  1  0
 82 81  2  0
 83 82  1  0
 84 58  1  0
 84 89  1  0
 84 85  1  0
 85 88  1  1
 85 86  1  0
 87 85  1  0
 89 92  1  0
 90 89  1  0
 90 94  1  0
 91 90  2  0
 94 93  1  0
 94 96  1  0
 96 97  1  0
 96 95  1  0
M  ISO  4  16 100  24 100  56 101  57 101
M  END
>  <TORSDO>  (58) 
F 20

>  <SCORE>  (58) 
-8.669

>  <name>  (58) 
57

>  <ligand_id>  (58) 
57

>  <original_smiles>  (58) 
[H]c1c([H])c([H])c2c(c1[H])C([H])([H])C([H])([H])C([H])([H])C2([H])N([H])C(=O)C1([H])N(C(=O)C([H])(N([H])C(=O)C([H])(N([H])C([H])([H])[H])C([H])([H])[H])C(C([H])([H])[H])(C([H])([H])[H])C([H])([H])[H])C([H])([H])c2c([H])c(OC([H])([H])C([H])([H])C([H])([H])C(=O)N([H])C(c3c([H])c([H])c(N([H])C(=O)N4C([H])([H])C([H])([H])C([H])([H])C([H])(n5nc(-c6c([H])c([H])c(Oc7c([H])c([H])c(F)c([H])c7F)c([H])c6[H])c(C(=O)N([H])[H])c5N([H])[H])C4([H])[H])c(F)c3[H])=[N+]([H])[H])c([H])c([H])c2C1([H])[H]

>  <smiles>  (58) 
[H]c1c([H])c([H])c2c(c1[H])C([H])([H])C([H])([H])C([H])([H])C2([H])N([H])C(=O)C1([H])N(C(=O)C([H])(N([H])C(=O)C([H])(N([H])C([H])([H])[H])C([H])([H])[H])C(C([H])([H])[H])(C([H])([H])[H])C([H])([H])[H])C([H])([H])c2c([H])c(OC([H])([H])C([H])([H])C([H])([H])C(=O)N([H])C(c3c([H])c([H])c(N([H])C(=O)N4C([H])([H])C([H])([H])C([H])([H])C([H])(n5nc(-c6c([H])c([H])c(Oc7c([H])c([H])c(F)c([H])c7F)c([H])c6[H])c(C(=O)N([H])[H])c5N([H])[H])C4([H])[H])c(F)c3[H])=[N+]([H])[H])c([H])c([H])c2C1([H])[H]

$$$$
58:0:0
     RDKit          3D

 97106  0  0  1  0  0  0  0  0999 V2000
  -30.6050  -23.1000   22.0880 C   0  0  0  0  0  0  0  0  0  0  0  0
  -29.7020  -23.1030   20.9510 C   0  0  0  0  0  0  0  0  0  0  0  0
  -30.5130  -21.9460   22.9470 C   0  0  0  0  0  0  0  0  0  0  0  0
  -29.5400  -21.8070   20.2150 C   0  0  0  0  0  0  0  0  0  0  0  0
  -31.5450  -24.0560   22.2620 C   0  0  0  0  0  2  0  0  0  0  0  0
  -30.5900  -22.0640   24.2830 C   0  0  0  0  0  2  0  0  0  0  0  0
  -29.1360  -24.3110   20.6260 C   0  0  0  0  0  3  0  0  0  0  0  0
  -30.3170  -20.5960   22.2820 C   0  0  0  0  0  2  0  0  0  0  0  0
  -30.0540  -20.6570   20.8250 N   0  0  0  0  0  0  0  0  0  0  0  0
  -28.9790  -21.7480   19.1180 O   0  0  0  0  0  0  0  0  0  0  0  0
  -31.4220  -18.4940   18.0540 C   0  0  0  0  0  3  0  0  0  0  0  0
  -31.0240  -19.5990   18.8200 C   0  0  0  0  0  3  0  0  0  0  0  0
  -31.1970  -17.1830   18.5140 C   0  0  0  0  0  3  0  0  0  0  0  0
  -30.2610  -18.0870   20.5620 C   0  0  0  0  0  3  0  0  0  0  0  0
  -30.4040  -19.4410   20.0740 C   0  0  0  0  0  0  0  0  0  0  0  0
  -30.6290  -16.9160   19.7870 C   0  0  0  0  0  0  0  0  0  0  0  0
  -30.9430  -14.3910   19.5710 C   0  0  0  0  0  0  0  0  0  0  0  0
  -30.4000  -12.3090   18.2870 C   0  0  0  0  0  2  0  0  0  0  0  0
  -29.2910  -12.5760   17.2440 C   0  0  0  0  0  2  0  0  0  0  0  0
  -27.8890  -12.4190   17.8730 C   0  0  0  0  0  2  0  0  0  0  0  0
  -27.7710  -13.1440   19.2410 C   0  0  0  0  0  3  0  0  0  0  0  0
  -28.9680  -12.7890   20.1370 C   0  0  0  0  0  2  0  0  0  0  0  0
  -30.1930  -13.2330   19.4320 N   0  0  0  0  0  0  0  0  0  0  0  0
  -32.0080  -14.4870   18.9460 O   0  0  0  0  0  0  0  0  0  0  0  0
  -30.4460  -15.5080   20.2470 N   0  0  0  0  0  0  0  0  0  0  0  0
  -25.5240  -13.7560   20.3300 C   0  0  0  0  0  0  0  0  0  0  0  0
  -24.4970  -12.9830   20.8030 C   0  0  0  0  0  0  0  0  0  0  0  0
  -24.9110  -11.6260   20.6390 C   0  0  0  0  0  0  0  0  0  0  0  0
  -26.4960  -12.8670   19.8970 N   0  0  0  0  0  0  0  0  0  0  0  0
  -26.1400  -11.5780   20.1390 N   0  0  0  0  0  0  0  0  0  0  0  0
  -24.1910  -10.3680   20.8710 C   0  0  0  0  0  0  0  0  0  0  0  0
  -24.6640   -9.4150   21.8000 C   0  0  0  0  0  3  0  0  0  0  0  0
  -23.9420   -8.2240   22.0370 C   0  0  0  0  0  3  0  0  0  0  0  0
  -22.7330   -7.9800   21.3440 C   0  0  0  0  0  0  0  0  0  0  0  0
  -22.2750   -8.9260   20.4120 C   0  0  0  0  0  3  0  0  0  0  0  0
  -22.9960  -10.1060   20.1700 C   0  0  0  0  0  3  0  0  0  0  0  0
  -21.9840   -6.8340   21.4750 O   0  0  0  0  0  0  0  0  0  0  0  0
  -21.8930   -6.1680   22.6710 C   0  0  0  0  0  0  0  0  0  0  0  0
  -21.4570   -6.8070   23.8530 C   0  0  0  0  0  3  0  0  0  0  0  0
  -21.3060   -6.0620   25.0410 C   0  0  0  0  0  3  0  0  0  0  0  0
  -21.5900   -4.6850   25.0500 C   0  0  0  0  0  0  0  0  0  0  0  0
  -22.0370   -4.0500   23.8780 C   0  0  0  0  0  3  0  0  0  0  0  0
  -22.1800   -4.7880   22.6910 C   0  0  0  0  0  0  0  0  0  0  0  0
  -22.5820   -4.1680   21.5550 F   0  0  0  0  0  0  0  0  0  0  0  0
  -21.4430   -3.9680   26.1880 F   0  0  0  0  0  0  0  0  0  0  0  0
  -23.1610  -13.4710   21.2820 C   0  0  0  0  0  0  0  0  0  0  0  0
  -22.5640  -12.7880   22.2530 N   0  0  0  0  0  0  0  0  0  0  0  0
  -22.6570  -14.4980   20.8290 O   0  0  0  0  0  0  0  0  0  0  0  0
  -22.9850  -11.9680   22.6610 H   0  0  0  0  0  0  0  0  0  0  0  0
  -21.6780  -13.1120   22.6110 H   0  0  0  0  0  0  0  0  0  0  0  0
  -25.7040  -15.1330   20.2150 N   0  0  0  0  0  0  0  0  0  0  0  0
  -24.9830  -15.7970   20.4790 H   0  0  0  0  0  0  0  0  0  0  0  0
  -26.5330  -15.5780   19.8430 H   0  0  0  0  0  0  0  0  0  0  0  0
  -28.7790  -15.8490   22.0210 C   0  0  0  0  0  2  0  0  0  0  0  0
  -29.9090  -15.3030   21.5340 C   0  0  0  0  0  3  0  0  0  0  0  0
  -28.1590  -24.8170   19.5560 C   0  0  0  0  0  2  0  0  0  0  0  0
  -28.2570  -26.2720   19.4480 O   0  0  0  0  0  0  0  0  0  0  0  0
  -24.6460  -31.3880   22.9380 C   0  0  0  0  0  0  0  0  0  0  0  0
  -27.1000  -27.0320   19.5260 C   0  0  0  0  0  0  0  0  0  0  0  0
  -23.3640  -30.0680   21.2970 C   0  0  0  0  0  3  0  0  0  0  0  0
  -24.7360  -28.5960   19.7320 C   0  0  0  0  0  0  0  0  0  0  0  0
  -25.8890  -30.4090   20.9990 C   0  0  0  0  0  2  0  0  0  0  0  0
  -25.9300  -29.0710   20.2810 C   0  0  0  0  0  0  0  0  0  0  0  0
  -27.1210  -28.3060   20.1560 C   0  0  0  0  0  3  0  0  0  0  0  0
  -25.8810  -26.5790   18.9760 C   0  0  0  0  0  3  0  0  0  0  0  0
  -24.7090  -27.3530   19.0760 C   0  0  0  0  0  3  0  0  0  0  0  0
  -23.4990  -29.4570   19.8810 C   0  0  0  0  0  2  0  0  0  0  0  0
  -24.6550  -30.6350   21.8020 N   0  0  0  0  0  0  0  0  0  0  0  0
  -23.5870  -31.6450   23.5290 O   0  0  0  0  0  0  0  0  0  0  0  0
  -22.7440  -29.0070   22.2340 C   0  0  0  0  0  0  0  0  0  0  0  0
  -21.4170  -28.8310   22.1470 N   0  0  0  0  0  0  0  0  0  0  0  0
  -23.4580  -28.3470   22.9950 O   0  0  0  0  0  0  0  0  0  0  0  0
  -20.9060  -29.4100   21.4950 H   0  0  0  0  0  0  0  0  0  0  0  0
  -18.0550  -27.6220   22.7110 C   0  0  0  0  0  0  0  0  0  0  0  0
  -20.6230  -27.8590   22.8990 C   0  0  0  0  0  3  0  0  0  0  0  0
  -20.7000  -26.4600   22.2470 C   0  0  0  0  0  2  0  0  0  0  0  0
  -19.5550  -26.1910   21.2630 C   0  0  0  0  0  2  0  0  0  0  0  0
  -18.1980  -26.3060   21.9650 C   0  0  0  0  0  2  0  0  0  0  0  0
  -19.1940  -28.3610   23.1340 C   0  0  0  0  0  0  0  0  0  0  0  0
  -18.9990  -29.5950   23.7930 C   0  0  0  0  0  3  0  0  0  0  0  0
  -17.7040  -30.0910   24.0290 C   0  0  0  0  0  3  0  0  0  0  0  0
  -16.5830  -29.3490   23.6200 C   0  0  0  0  0  3  0  0  0  0  0  0
  -16.7600  -28.1170   22.9690 C   0  0  0  0  0  3  0  0  0  0  0  0
  -25.9560  -31.9810   23.5420 C   0  0  0  0  0  3  0  0  0  0  0  0
  -26.5530  -31.1130   24.7180 C   0  0  1  0  0  0  0  0  0  0  0  0
  -25.5190  -30.7710   25.8170 C   0  0  0  0  0  1  0  0  0  0  0  0
  -27.1280  -29.7810   24.1780 C   0  0  0  0  0  1  0  0  0  0  0  0
  -27.7280  -31.8720   25.3830 C   0  0  0  0  0  1  0  0  0  0  0  0
  -25.6530  -33.3400   24.0050 N   0  0  0  0  0  0  0  0  0  0  0  0
  -25.9690  -34.4600   23.3380 C   0  0  0  0  0  0  0  0  0  0  0  0
  -26.6110  -34.4510   22.2840 O   0  0  0  0  0  0  0  0  0  0  0  0
  -25.0490  -33.4210   24.8090 H   0  0  0  0  0  0  0  0  0  0  0  0
  -24.2130  -36.2600   23.2180 C   0  0  0  0  0  1  0  0  0  0  0  0
  -25.4900  -35.7970   23.9370 C   0  0  0  0  0  3  0  0  0  0  0  0
  -27.6520  -36.6190   24.7630 C   0  0  0  0  0  1  0  0  0  0  0  0
  -26.5130  -36.8650   23.8830 N   0  0  0  0  0  0  0  0  0  0  0  0
  -26.1080  -37.7660   24.1260 H   0  0  0  0  0  0  0  0  0  0  0  0
  1  5  2  0
  1  3  1  0
  2  1  1  0
  3  6  2  0
  4  9  1  0
  4  2  1  0
  7  2  2  0
  8  3  1  0
  9  8  1  0
 10  4  2  0
 11 13  2  0
 11 12  1  0
 12 15  2  0
 13 16  1  0
 15 14  1  0
 15  9  1  0
 16 25  1  0
 16 14  2  0
 17 25  1  0
 18 23  1  0
 19 20  1  0
 19 18  1  0
 21 20  1  0
 21 29  1  0
 21 22  1  0
 23 17  1  0
 23 22  1  0
 24 17  2  0
 25 55  1  0
 26 27  2  0
 27 46  1  0
 28 27  1  0
 28 31  1  0
 29 30  1  0
 29 26  1  0
 30 28  2  0
 31 32  1  0
 32 33  2  0
 34 37  1  0
 34 33  1  0
 35 34  2  0
 36 35  1  0
 36 31  2  0
 37 38  1  0
 38 43  2  0
 38 39  1  0
 39 40  2  0
 40 41  1  0
 41 45  1  0
 42 41  2  0
 43 42  1  0
 44 43  1  0
 46 47  1  0
 47 50  1  0
 47 49  1  0
 48 46  2  0
 51 26  1  0
 51 52  1  0
 53 51  1  0
 55 54  2  0
 56  7  1  0
 57 59  1  0
 57 56  1  0
 58 69  2  0
 59 64  1  0
 60 68  1  0
 60 70  1  0
 61 67  1  0
 61 63  1  0
 62 68  1  0
 63 62  1  0
 64 63  2  0
 65 66  1  0
 65 59  2  0
 66 61  2  0
 67 60  1  0
 68 58  1  0
 70 72  2  0
 71 70  1  0
 73 71  1  0
 74 83  2  0
 74 79  1  0
 75 71  1  0
 75 79  1  0
 76 75  1  0
 77 78  1  0
 77 76  1  0
 78 74  1  0
 79 80  2  0
 80 81  1  0
 82 81  2  0
 83 82  1  0
 84 58  1  0
 84 89  1  0
 84 85  1  0
 85 88  1  1
 85 86  1  0
 87 85  1  0
 89 92  1  0
 90 94  1  0
 90 89  1  0
 91 90  2  0
 94 93  1  0
 96 94  1  0
 96 97  1  0
 96 95  1  0
M  ISO  4  17 100  25 100  56 101  57 101
M  END
>  <TORSDO>  (59) 
F 19

>  <SCORE>  (59) 
-9.197

>  <name>  (59) 
58

>  <ligand_id>  (59) 
58

>  <original_smiles>  (59) 
[H]C([H])=C1C(=C([H])C([H])([H])Oc2c([H])c([H])c3c(c2[H])C([H])([H])N(C(=O)C([H])(N([H])C(=O)C([H])(N([H])C([H])([H])[H])C([H])([H])[H])C(C([H])([H])[H])(C([H])([H])[H])C([H])([H])[H])C([H])(C(=O)N([H])C2([H])c4c([H])c([H])c([H])c([H])c4C([H])([H])C([H])([H])C2([H])[H])C3([H])[H])C(=O)N(c2c([H])c([H])c([H])c(N(C(=O)N3C([H])([H])C([H])([H])C([H])([H])C([H])(n4nc(-c5c([H])c([H])c(Oc6c([H])c([H])c(F)c([H])c6F)c([H])c5[H])c(C(=O)N([H])[H])c4N([H])[H])C3([H])[H])C([H])=C([H])[H])c2[H])C([H])([H])C1=C([H])[H]

>  <smiles>  (59) 
[H]C([H])=C1C(=C([H])C([H])([H])Oc2c([H])c([H])c3c(c2[H])C([H])([H])N(C(=O)C([H])(N([H])C(=O)C([H])(N([H])C([H])([H])[H])C([H])([H])[H])C(C([H])([H])[H])(C([H])([H])[H])C([H])([H])[H])C([H])(C(=O)N([H])C2([H])c4c([H])c([H])c([H])c([H])c4C([H])([H])C([H])([H])C2([H])[H])C3([H])[H])C(=O)N(c2c([H])c([H])c([H])c(N(C(=O)N3C([H])([H])C([H])([H])C([H])([H])C([H])(n4nc(-c5c([H])c([H])c(Oc6c([H])c([H])c(F)c([H])c6F)c([H])c5[H])c(C(=O)N([H])[H])c4N([H])[H])C3([H])[H])C([H])=C([H])[H])c2[H])C([H])([H])C1=C([H])[H]

$$$$
59:0:0
     RDKit          3D

 98106  0  0  1  0  0  0  0  0999 V2000
  -28.7750  -21.1820   20.8510 C   0  0  0  0  0  0  0  0  0  0  0  0
  -28.4450  -23.4770   19.8060 C   0  0  0  0  0  0  0  0  0  0  0  0
  -28.8360  -22.0680   19.8210 N   0  0  0  0  0  0  0  0  0  0  0  0
  -28.3180  -21.5980   22.0450 N   0  0  0  0  0  4  0  0  0  0  0  0
  -27.7830  -23.9770   20.7230 O   0  0  0  0  0  0  0  0  0  0  0  0
  -29.2900  -21.6550   19.0230 H   0  0  0  0  0  0  0  0  0  0  0  0
  -28.3600  -21.0050   22.8630 H   0  0  0  0  0  0  0  0  0  0  0  0
  -28.0090  -22.5580   22.1410 H   0  0  0  0  0  0  0  0  0  0  0  0
  -28.6450  -18.8750   19.7570 C   0  0  0  0  0  3  0  0  0  0  0  0
  -29.0100  -17.4990   19.7060 C   0  0  0  0  0  3  0  0  0  0  0  0
  -30.5180  -17.8280   21.5690 C   0  0  0  0  0  3  0  0  0  0  0  0
  -29.2100  -19.7530   20.7210 C   0  0  0  0  0  0  0  0  0  0  0  0
  -29.9470  -16.9490   20.6210 C   0  0  0  0  0  0  0  0  0  0  0  0
  -30.1710  -19.2020   21.6120 C   0  0  0  0  0  0  0  0  0  0  0  0
  -30.7540  -19.9790   22.5610 F   0  0  0  0  0  0  0  0  0  0  0  0
  -30.8300  -14.6480   20.0020 C   0  0  0  0  0  0  0  0  0  0  0  0
  -30.6040  -12.4470   18.8790 C   0  0  0  0  0  2  0  0  0  0  0  0
  -29.5670  -12.5830   17.7410 C   0  0  0  0  0  2  0  0  0  0  0  0
  -28.1240  -12.4230   18.2660 C   0  0  0  0  0  2  0  0  0  0  0  0
  -27.8530  -13.2720   19.5380 C   0  0  0  0  0  3  0  0  0  0  0  0
  -28.9770  -13.0460   20.5730 C   0  0  0  0  0  2  0  0  0  0  0  0
  -30.2560  -13.4130   19.9350 N   0  0  0  0  0  0  0  0  0  0  0  0
  -31.8720  -14.9310   19.3930 O   0  0  0  0  0  0  0  0  0  0  0  0
  -30.1550  -15.5340   20.7690 N   0  0  0  0  0  0  0  0  0  0  0  0
  -29.4750  -15.0840   21.3650 H   0  0  0  0  0  0  0  0  0  0  0  0
  -25.5340  -13.8830   20.4780 C   0  0  0  0  0  0  0  0  0  0  0  0
  -24.4840  -13.1100   20.8960 C   0  0  0  0  0  0  0  0  0  0  0  0
  -24.9100  -11.7530   20.7540 C   0  0  0  0  0  0  0  0  0  0  0  0
  -26.5360  -12.9960   20.1070 N   0  0  0  0  0  0  0  0  0  0  0  0
  -26.1660  -11.7090   20.3260 N   0  0  0  0  0  0  0  0  0  0  0  0
  -24.1750  -10.4960   20.9430 C   0  0  0  0  0  0  0  0  0  0  0  0
  -24.5930   -9.5290   21.8830 C   0  0  0  0  0  3  0  0  0  0  0  0
  -23.8600   -8.3350   22.0550 C   0  0  0  0  0  3  0  0  0  0  0  0
  -22.6980   -8.0980   21.2820 C   0  0  0  0  0  0  0  0  0  0  0  0
  -22.3000   -9.0550   20.3340 C   0  0  0  0  0  3  0  0  0  0  0  0
  -23.0310  -10.2410   20.1600 C   0  0  0  0  0  3  0  0  0  0  0  0
  -21.9360   -6.9570   21.3600 O   0  0  0  0  0  0  0  0  0  0  0  0
  -21.7640   -6.2890   22.5480 C   0  0  0  0  0  0  0  0  0  0  0  0
  -21.1760   -6.9100   23.6710 C   0  0  0  0  0  3  0  0  0  0  0  0
  -20.9510   -6.1680   24.8490 C   0  0  0  0  0  3  0  0  0  0  0  0
  -21.3010   -4.8050   24.9000 C   0  0  0  0  0  0  0  0  0  0  0  0
  -21.8800   -4.1830   23.7790 C   0  0  0  0  0  3  0  0  0  0  0  0
  -22.1040   -4.9240   22.6040 C   0  0  0  0  0  0  0  0  0  0  0  0
  -22.6440   -4.3130   21.5210 F   0  0  0  0  0  0  0  0  0  0  0  0
  -21.0810   -4.0900   26.0280 F   0  0  0  0  0  0  0  0  0  0  0  0
  -23.1250  -13.5980   21.3200 C   0  0  0  0  0  0  0  0  0  0  0  0
  -22.4610  -12.8740   22.2140 N   0  0  0  0  0  0  0  0  0  0  0  0
  -22.6650  -14.6540   20.8920 O   0  0  0  0  0  0  0  0  0  0  0  0
  -22.8520  -12.0230   22.5890 H   0  0  0  0  0  0  0  0  0  0  0  0
  -21.5500  -13.1790   22.5270 H   0  0  0  0  0  0  0  0  0  0  0  0
  -25.7170  -15.2570   20.3650 N   0  0  0  0  0  0  0  0  0  0  0  0
  -24.9840  -15.9210   20.5830 H   0  0  0  0  0  0  0  0  0  0  0  0
  -26.5530  -15.6960   20.0030 H   0  0  0  0  0  0  0  0  0  0  0  0
  -28.4640  -23.6000   17.2950 C   0  0  0  0  0  1  0  0  0  0  0  0
  -30.4990  -24.2660   18.5750 C   0  0  0  0  0  1  0  0  0  0  0  0
  -28.9560  -24.3060   18.5880 C   0  0  2  0  0  0  0  0  0  0  0  0
  -28.4820  -25.8200   18.4980 C   0  0  0  0  0  2  0  0  0  0  0  0
  -28.4250  -26.7240   19.6450 O   0  0  0  0  0  0  0  0  0  0  0  0
  -24.6910  -31.8090   23.1600 C   0  0  0  0  0  0  0  0  0  0  0  0
  -27.2600  -27.4760   19.7960 C   0  0  0  0  0  0  0  0  0  0  0  0
  -23.4480  -30.4550   21.5180 C   0  0  0  0  0  3  0  0  0  0  0  0
  -24.8590  -28.9880   19.9980 C   0  0  0  0  0  0  0  0  0  0  0  0
  -25.9720  -30.8390   21.2440 C   0  0  0  0  0  2  0  0  0  0  0  0
  -26.0470  -29.4940   20.5420 C   0  0  0  0  0  0  0  0  0  0  0  0
  -27.2550  -28.7510   20.4310 C   0  0  0  0  0  3  0  0  0  0  0  0
  -26.0180  -26.9640   19.3460 C   0  0  0  0  0  3  0  0  0  0  0  0
  -24.8390  -27.7160   19.4130 C   0  0  0  0  0  3  0  0  0  0  0  0
  -23.6180  -29.8390   20.1070 C   0  0  0  0  0  2  0  0  0  0  0  0
  -24.7260  -31.0510   22.0280 N   0  0  0  0  0  0  0  0  0  0  0  0
  -23.6260  -32.0400   23.7500 O   0  0  0  0  0  0  0  0  0  0  0  0
  -22.8500  -29.3830   22.4600 C   0  0  0  0  0  0  0  0  0  0  0  0
  -21.5360  -29.1310   22.3290 N   0  0  0  0  0  0  0  0  0  0  0  0
  -23.5650  -28.7820   23.2650 O   0  0  0  0  0  0  0  0  0  0  0  0
  -21.0170  -29.6730   21.6530 H   0  0  0  0  0  0  0  0  0  0  0  0
  -18.2380  -27.7160   22.7570 C   0  0  0  0  0  0  0  0  0  0  0  0
  -20.7680  -28.1370   23.0810 C   0  0  0  0  0  3  0  0  0  0  0  0
  -20.9760  -26.7180   22.5020 C   0  0  0  0  0  2  0  0  0  0  0  0
  -19.9170  -26.3270   21.4680 C   0  0  0  0  0  2  0  0  0  0  0  0
  -18.5170  -26.3800   22.0850 C   0  0  0  0  0  2  0  0  0  0  0  0
  -19.2970  -28.5450   23.2090 C   0  0  0  0  0  0  0  0  0  0  0  0
  -18.9850  -29.7930   23.7930 C   0  0  0  0  0  3  0  0  0  0  0  0
  -17.6500  -30.2090   23.9350 C   0  0  0  0  0  3  0  0  0  0  0  0
  -16.6030  -29.3760   23.5020 C   0  0  0  0  0  3  0  0  0  0  0  0
  -16.9000  -28.1310   22.9170 C   0  0  0  0  0  3  0  0  0  0  0  0
  -25.9840  -32.4460   23.7550 C   0  0  0  0  0  3  0  0  0  0  0  0
  -26.5460  -31.6590   25.0030 C   0  0  1  0  0  0  0  0  0  0  0  0
  -25.4820  -31.3710   26.0870 C   0  0  0  0  0  1  0  0  0  0  0  0
  -27.1550  -30.3060   24.5660 C   0  0  0  0  0  1  0  0  0  0  0  0
  -27.6830  -32.4700   25.6650 C   0  0  0  0  0  1  0  0  0  0  0  0
  -25.6610  -33.8310   24.1250 N   0  0  0  0  0  0  0  0  0  0  0  0
  -25.9540  -34.9090   23.3840 C   0  0  0  0  0  0  0  0  0  0  0  0
  -26.5970  -34.8400   22.3320 O   0  0  0  0  0  0  0  0  0  0  0  0
  -25.0880  -33.9490   24.9470 H   0  0  0  0  0  0  0  0  0  0  0  0
  -24.1870  -36.6770   23.1230 C   0  0  0  0  0  1  0  0  0  0  0  0
  -25.4580  -36.2760   23.8900 C   0  0  0  0  0  3  0  0  0  0  0  0
  -27.5990  -37.1810   24.6830 C   0  0  0  0  0  1  0  0  0  0  0  0
  -26.4680  -37.3510   23.7720 N   0  0  0  0  0  0  0  0  0  0  0  0
  -26.0510  -38.2610   23.9480 H   0  0  0  0  0  0  0  0  0  0  0  0
  1  4  2  0
  2  3  1  0
  2  5  2  0
  3  1  1  0
  4  8  1  0
  4  7  1  0
  6  3  1  0
  9 12  1  0
 10  9  2  0
 10 13  1  0
 11 14  1  0
 12  1  1  0
 12 14  2  0
 13 24  1  0
 13 11  2  0
 14 15  1  0
 16 24  1  0
 17 22  1  0
 18 19  1  0
 18 17  1  0
 20 19  1  0
 20 29  1  0
 20 21  1  0
 22 16  1  0
 22 21  1  0
 23 16  2  0
 24 25  1  0
 26 27  2  0
 27 46  1  0
 28 27  1  0
 28 31  1  0
 29 30  1  0
 29 26  1  0
 30 28  2  0
 31 32  1  0
 32 33  2  0
 34 37  1  0
 34 33  1  0
 35 34  2  0
 36 35  1  0
 36 31  2  0
 37 38  1  0
 38 43  2  0
 38 39  1  0
 39 40  2  0
 40 41  1  0
 41 45  1  0
 42 41  2  0
 43 42  1  0
 44 43  1  0
 46 47  1  0
 47 50  1  0
 47 49  1  0
 48 46  2  0
 51 26  1  0
 51 52  1  0
 53 51  1  0
 56 54  1  6
 55 56  1  0
 56  2  1  0
 57 56  1  0
 57 58  1  0
 58 60  1  0
 59 70  2  0
 60 65  1  0
 61 69  1  0
 61 71  1  0
 62 68  1  0
 62 64  1  0
 63 69  1  0
 64 63  1  0
 65 64  2  0
 66 67  1  0
 66 60  2  0
 67 62  2  0
 68 61  1  0
 69 59  1  0
 71 73  2  0
 72 71  1  0
 74 72  1  0
 75 84  2  0
 75 80  1  0
 76 72  1  0
 76 80  1  0
 77 76  1  0
 78 79  1  0
 78 77  1  0
 79 75  1  0
 80 81  2  0
 81 82  1  0
 83 82  2  0
 84 83  1  0
 85 59  1  0
 85 90  1  0
 85 86  1  0
 86 89  1  1
 86 87  1  0
 88 86  1  0
 90 93  1  0
 91 95  1  0
 91 90  1  0
 92 91  2  0
 95 94  1  0
 97 95  1  0
 97 98  1  0
 97 96  1  0
M  ISO  4  16 100  24 100  57 101  58 101
M  END
>  <TORSDO>  (60) 
F 19

>  <SCORE>  (60) 
-13.743

>  <name>  (60) 
59

>  <ligand_id>  (60) 
59

>  <original_smiles>  (60) 
[H]c1c([H])c([H])c2c(c1[H])C([H])([H])C([H])([H])C([H])([H])C2([H])N([H])C(=O)C1([H])N(C(=O)C([H])(N([H])C(=O)C([H])(N([H])C([H])([H])[H])C([H])([H])[H])C(C([H])([H])[H])(C([H])([H])[H])C([H])([H])[H])C([H])([H])c2c([H])c(OC([H])([H])C(C(=O)N([H])C(c3c([H])c([H])c(N([H])C(=O)N4C([H])([H])C([H])([H])C([H])([H])C([H])(n5nc(-c6c([H])c([H])c(Oc7c([H])c([H])c(F)c([H])c7F)c([H])c6[H])c(C(=O)N([H])[H])c5N([H])[H])C4([H])[H])c([H])c3F)=[N+]([H])[H])(C([H])([H])[H])C([H])([H])[H])c([H])c([H])c2C1([H])[H]

>  <smiles>  (60) 
[H]c1c([H])c([H])c2c(c1[H])C([H])([H])C([H])([H])C([H])([H])C2([H])N([H])C(=O)C1([H])N(C(=O)C([H])(N([H])C(=O)C([H])(N([H])C([H])([H])[H])C([H])([H])[H])C(C([H])([H])[H])(C([H])([H])[H])C([H])([H])[H])C([H])([H])c2c([H])c(OC([H])([H])C(C(=O)N([H])C(c3c([H])c([H])c(N([H])C(=O)N4C([H])([H])C([H])([H])C([H])([H])C([H])(n5nc(-c6c([H])c([H])c(Oc7c([H])c([H])c(F)c([H])c7F)c([H])c6[H])c(C(=O)N([H])[H])c5N([H])[H])C4([H])[H])c([H])c3F)=[N+]([H])[H])(C([H])([H])[H])C([H])([H])[H])c([H])c([H])c2C1([H])[H]

$$$$
60:0:0
     RDKit          3D

 95103  0  0  1  0  0  0  0  0999 V2000
  -28.9780  -21.9020   19.4550 C   0  0  0  0  0  0  0  0  0  0  0  0
  -28.2410  -21.2360   18.5600 N   0  0  0  0  0  4  0  0  0  0  0  0
  -29.8360  -21.2290   20.2680 N   0  0  0  0  0  0  0  0  0  0  0  0
  -28.8130  -23.2480   19.4730 N   0  0  0  0  0  0  0  0  0  0  0  0
  -28.3570  -20.2400   18.4470 H   0  0  0  0  0  0  0  0  0  0  0  0
  -27.5710  -21.6890   17.9540 H   0  0  0  0  0  0  0  0  0  0  0  0
  -30.6240  -21.7700   20.5960 H   0  0  0  0  0  0  0  0  0  0  0  0
  -28.2340  -23.6410   18.7450 H   0  0  0  0  0  0  0  0  0  0  0  0
  -28.7630  -17.6130   20.7190 C   0  0  0  0  0  3  0  0  0  0  0  0
  -31.1690  -17.6630   20.4040 C   0  0  0  0  0  3  0  0  0  0  0  0
  -28.7090  -19.0200   20.5910 C   0  0  0  0  0  3  0  0  0  0  0  0
  -31.1200  -19.0770   20.2900 C   0  0  0  0  0  3  0  0  0  0  0  0
  -29.9860  -16.9080   20.6120 C   0  0  0  0  0  0  0  0  0  0  0  0
  -29.8870  -19.7660   20.3670 C   0  0  0  0  0  0  0  0  0  0  0  0
  -30.6480  -14.5120   20.1230 C   0  0  0  0  0  0  0  0  0  0  0  0
  -30.3050  -12.3830   18.9160 C   0  0  0  0  0  2  0  0  0  0  0  0
  -29.2920  -12.6350   17.7800 C   0  0  0  0  0  2  0  0  0  0  0  0
  -27.8440  -12.4770   18.2900 C   0  0  0  0  0  2  0  0  0  0  0  0
  -27.5870  -13.2650   19.6020 C   0  0  0  0  0  3  0  0  0  0  0  0
  -28.7040  -12.9860   20.6350 C   0  0  0  0  0  2  0  0  0  0  0  0
  -29.9970  -13.3200   20.0070 N   0  0  0  0  0  0  0  0  0  0  0  0
  -31.7440  -14.7210   19.5910 O   0  0  0  0  0  0  0  0  0  0  0  0
  -29.9460  -15.4780   20.7580 N   0  0  0  0  0  0  0  0  0  0  0  0
  -29.1010  -15.1190   21.1790 H   0  0  0  0  0  0  0  0  0  0  0  0
  -25.2350  -13.8660   20.4600 C   0  0  0  0  0  0  0  0  0  0  0  0
  -24.1850  -13.0900   20.8710 C   0  0  0  0  0  0  0  0  0  0  0  0
  -24.6340  -11.7370   20.7800 C   0  0  0  0  0  0  0  0  0  0  0  0
  -26.2610  -12.9860   20.1480 N   0  0  0  0  0  0  0  0  0  0  0  0
  -25.9050  -11.6990   20.3960 N   0  0  0  0  0  0  0  0  0  0  0  0
  -23.9140  -10.4740   20.9800 C   0  0  0  0  0  0  0  0  0  0  0  0
  -24.3700   -9.5010   21.8970 C   0  0  0  0  0  3  0  0  0  0  0  0
  -23.6500   -8.3010   22.0860 C   0  0  0  0  0  3  0  0  0  0  0  0
  -22.4600   -8.0660   21.3580 C   0  0  0  0  0  0  0  0  0  0  0  0
  -22.0210   -9.0280   20.4320 C   0  0  0  0  0  3  0  0  0  0  0  0
  -22.7420  -10.2190   20.2400 C   0  0  0  0  0  3  0  0  0  0  0  0
  -21.7100   -6.9190   21.4570 O   0  0  0  0  0  0  0  0  0  0  0  0
  -21.6620   -6.1870   22.6160 C   0  0  0  0  0  0  0  0  0  0  0  0
  -21.2080   -6.7450   23.8310 C   0  0  0  0  0  3  0  0  0  0  0  0
  -21.1090   -5.9380   24.9820 C   0  0  0  0  0  3  0  0  0  0  0  0
  -21.4550   -4.5760   24.9200 C   0  0  0  0  0  0  0  0  0  0  0  0
  -21.9020   -4.0170   23.7090 C   0  0  0  0  0  3  0  0  0  0  0  0
  -22.0030   -4.8200   22.5610 C   0  0  0  0  0  0  0  0  0  0  0  0
  -22.4140   -4.2720   21.3920 F   0  0  0  0  0  0  0  0  0  0  0  0
  -21.3510   -3.7980   26.0230 F   0  0  0  0  0  0  0  0  0  0  0  0
  -22.8080  -13.5660   21.2340 C   0  0  0  0  0  0  0  0  0  0  0  0
  -22.1240  -12.8500   22.1200 N   0  0  0  0  0  0  0  0  0  0  0  0
  -22.3470  -14.6080   20.7660 O   0  0  0  0  0  0  0  0  0  0  0  0
  -22.5100  -12.0070   22.5190 H   0  0  0  0  0  0  0  0  0  0  0  0
  -21.2030  -13.1520   22.4040 H   0  0  0  0  0  0  0  0  0  0  0  0
  -25.3970  -15.2390   20.3030 N   0  0  0  0  0  0  0  0  0  0  0  0
  -24.6340  -15.8910   20.4490 H   0  0  0  0  0  0  0  0  0  0  0  0
  -26.2130  -15.6720   19.8910 H   0  0  0  0  0  0  0  0  0  0  0  0
  -29.3910  -24.3060   20.3380 C   0  0  0  0  0  2  0  0  0  0  0  0
  -28.3230  -25.3520   20.7850 C   0  0  0  0  0  2  0  0  0  0  0  0
  -28.4500  -26.6650   20.1910 O   0  0  0  0  0  0  0  0  0  0  0  0
  -24.5970  -31.8730   23.2240 C   0  0  0  0  0  0  0  0  0  0  0  0
  -27.2910  -27.4220   20.1810 C   0  0  0  0  0  0  0  0  0  0  0  0
  -23.4140  -30.4640   21.5730 C   0  0  0  0  0  3  0  0  0  0  0  0
  -24.8900  -28.9300   20.1660 C   0  0  0  0  0  0  0  0  0  0  0  0
  -25.9420  -30.8320   21.3980 C   0  0  0  0  0  2  0  0  0  0  0  0
  -26.0430  -29.4590   20.7610 C   0  0  0  0  0  0  0  0  0  0  0  0
  -27.2490  -28.7150   20.7600 C   0  0  0  0  0  3  0  0  0  0  0  0
  -26.1210  -26.9180   19.5720 C   0  0  0  0  0  3  0  0  0  0  0  0
  -24.9230  -27.6580   19.5710 C   0  0  0  0  0  3  0  0  0  0  0  0
  -23.6420  -29.7840   20.1970 C   0  0  0  0  0  2  0  0  0  0  0  0
  -24.6700  -31.0710   22.1230 N   0  0  0  0  0  0  0  0  0  0  0  0
  -23.5100  -32.1420   23.7510 O   0  0  0  0  0  0  0  0  0  0  0  0
  -22.7580  -29.4420   22.5280 C   0  0  0  0  0  0  0  0  0  0  0  0
  -21.4320  -29.2660   22.4000 N   0  0  0  0  0  0  0  0  0  0  0  0
  -23.4380  -28.8080   23.3400 O   0  0  0  0  0  0  0  0  0  0  0  0
  -20.9450  -29.8260   21.7150 H   0  0  0  0  0  0  0  0  0  0  0  0
  -18.0470  -28.1140   22.9170 C   0  0  0  0  0  0  0  0  0  0  0  0
  -20.6110  -28.3290   23.1660 C   0  0  0  0  0  3  0  0  0  0  0  0
  -20.6850  -26.9050   22.5670 C   0  0  0  0  0  2  0  0  0  0  0  0
  -19.5690  -26.6160   21.5600 C   0  0  0  0  0  2  0  0  0  0  0  0
  -18.1960  -26.7720   22.2210 C   0  0  0  0  0  2  0  0  0  0  0  0
  -19.1810  -28.8520   23.3470 C   0  0  0  0  0  0  0  0  0  0  0  0
  -18.9880  -30.1100   23.9580 C   0  0  0  0  0  3  0  0  0  0  0  0
  -17.6930  -30.6280   24.1460 C   0  0  0  0  0  3  0  0  0  0  0  0
  -16.5730  -29.8860   23.7330 C   0  0  0  0  0  3  0  0  0  0  0  0
  -16.7510  -28.6310   23.1230 C   0  0  0  0  0  3  0  0  0  0  0  0
  -25.8740  -32.5110   23.8550 C   0  0  0  0  0  3  0  0  0  0  0  0
  -26.3820  -31.7450   25.1370 C   0  0  1  0  0  0  0  0  0  0  0  0
  -25.2780  -31.5050   26.1940 C   0  0  0  0  0  1  0  0  0  0  0  0
  -26.9780  -30.3710   24.7500 C   0  0  0  0  0  1  0  0  0  0  0  0
  -27.5220  -32.5460   25.8090 C   0  0  0  0  0  1  0  0  0  0  0  0
  -25.5560  -33.9090   24.1780 N   0  0  0  0  0  0  0  0  0  0  0  0
  -25.8940  -34.9590   23.4190 C   0  0  0  0  0  0  0  0  0  0  0  0
  -26.5770  -34.8550   22.3960 O   0  0  0  0  0  0  0  0  0  0  0  0
  -24.9500  -34.0630   24.9690 H   0  0  0  0  0  0  0  0  0  0  0  0
  -24.1700  -36.7470   23.0310 C   0  0  0  0  0  1  0  0  0  0  0  0
  -25.3960  -36.3460   23.8670 C   0  0  0  0  0  3  0  0  0  0  0  0
  -27.5130  -37.2350   24.7360 C   0  0  0  0  0  1  0  0  0  0  0  0
  -26.4280  -37.4020   23.7720 N   0  0  0  0  0  0  0  0  0  0  0  0
  -26.0170  -38.3210   23.9150 H   0  0  0  0  0  0  0  0  0  0  0  0
  1  4  1  0
  1  3  1  0
  2  1  2  0
  3 14  1  0
  3  7  1  0
  4 53  1  0
  5  2  1  0
  6  2  1  0
  8  4  1  0
 10 13  2  0
 11  9  2  0
 12 14  2  0
 12 10  1  0
 13  9  1  0
 13 23  1  0
 14 11  1  0
 15 23  1  0
 16 21  1  0
 17 18  1  0
 17 16  1  0
 19 18  1  0
 19 28  1  0
 19 20  1  0
 21 15  1  0
 21 20  1  0
 22 15  2  0
 23 24  1  0
 25 26  2  0
 26 45  1  0
 27 26  1  0
 27 30  1  0
 28 29  1  0
 28 25  1  0
 29 27  2  0
 30 31  1  0
 31 32  2  0
 33 36  1  0
 33 32  1  0
 34 33  2  0
 35 34  1  0
 35 30  2  0
 36 37  1  0
 37 38  1  0
 38 39  2  0
 40 39  1  0
 40 44  1  0
 41 40  2  0
 42 37  2  0
 42 41  1  0
 43 42  1  0
 45 46  1  0
 46 49  1  0
 46 48  1  0
 47 45  2  0
 50 51  1  0
 50 25  1  0
 52 50  1  0
 53 54  1  0
 55 54  1  0
 56 67  2  0
 57 55  1  0
 57 62  1  0
 58 66  1  0
 58 68  1  0
 59 65  1  0
 59 61  1  0
 60 66  1  0
 61 60  1  0
 62 61  2  0
 63 57  2  0
 64 63  1  0
 64 59  2  0
 65 58  1  0
 66 56  1  0
 68 70  2  0
 69 68  1  0
 71 69  1  0
 72 81  2  0
 72 77  1  0
 73 69  1  0
 73 77  1  0
 74 73  1  0
 75 76  1  0
 75 74  1  0
 76 72  1  0
 77 78  2  0
 78 79  1  0
 80 79  2  0
 81 80  1  0
 82 56  1  0
 82 87  1  0
 82 83  1  0
 83 86  1  1
 83 84  1  0
 85 83  1  0
 87 90  1  0
 88 92  1  0
 88 87  1  0
 89 88  2  0
 92 91  1  0
 94 92  1  0
 94 95  1  0
 94 93  1  0
M  ISO  4  15 100  23 100  54 101  55 101
M  END
>  <TORSDO>  (61) 
F 19

>  <SCORE>  (61) 
-14.229

>  <name>  (61) 
60

>  <ligand_id>  (61) 
60

>  <original_smiles>  (61) 
[H]c1c([H])c([H])c2c(c1[H])C([H])([H])C([H])([H])C([H])([H])C2([H])N([H])C(=O)C1([H])N(C(=O)C([H])(N([H])C(=O)C([H])(N([H])C([H])([H])[H])C([H])([H])[H])C(C([H])([H])[H])(C([H])([H])[H])C([H])([H])[H])C([H])([H])c2c([H])c(OC([H])([H])C([H])([H])[N+]([H])=C(N([H])[H])N([H])c3c([H])c([H])c(N([H])C(=O)N4C([H])([H])C([H])([H])C([H])([H])C([H])(n5nc(-c6c([H])c([H])c(Oc7c([H])c([H])c(F)c([H])c7F)c([H])c6[H])c(C(=O)N([H])[H])c5N([H])[H])C4([H])[H])c([H])c3[H])c([H])c([H])c2C1([H])[H]

>  <smiles>  (61) 
[H]c1c([H])c([H])c2c(c1[H])C([H])([H])C([H])([H])C([H])([H])C2([H])N([H])C(=O)C1([H])N(C(=O)C([H])(N([H])C(=O)C([H])(N([H])C([H])([H])[H])C([H])([H])[H])C(C([H])([H])[H])(C([H])([H])[H])C([H])([H])[H])C([H])([H])c2c([H])c(OC([H])([H])C([H])([H])[N+]([H])=C(N([H])[H])N([H])c3c([H])c([H])c(N([H])C(=O)N4C([H])([H])C([H])([H])C([H])([H])C([H])(n5nc(-c6c([H])c([H])c(Oc7c([H])c([H])c(F)c([H])c7F)c([H])c6[H])c(C(=O)N([H])[H])c5N([H])[H])C4([H])[H])c([H])c3[H])c([H])c([H])c2C1([H])[H]

$$$$
61:0:0
     RDKit          3D

 93102  0  0  1  0  0  0  0  0999 V2000
  -30.4850  -22.0410   21.0210 C   0  0  0  0  0  0  0  0  0  0  0  0
  -29.1990  -21.5830   19.0490 C   0  0  0  0  0  0  0  0  0  0  0  0
  -30.6790  -22.8420   22.0850 C   0  0  0  0  0  2  0  0  0  0  0  0
  -31.0890  -20.6130   21.0160 C   0  0  0  0  0  2  0  0  0  0  0  0
  -29.3300  -20.0510   19.3350 C   0  0  0  0  0  2  0  0  0  0  0  0
  -30.4950  -19.6040   20.1220 N   0  0  0  0  0  0  0  0  0  0  0  0
  -29.7820  -22.4980   19.8720 N   0  0  0  0  0  0  0  0  0  0  0  0
  -28.5600  -21.9240   18.0480 O   0  0  0  0  0  0  0  0  0  0  0  0
  -30.1790  -16.8140   22.6050 C   0  0  0  0  0  3  0  0  0  0  0  0
  -30.5970  -15.6860   21.8720 C   0  0  0  0  0  3  0  0  0  0  0  0
  -30.0990  -18.0820   21.9980 C   0  0  0  0  0  3  0  0  0  0  0  0
  -30.8360  -17.0950   19.9010 C   0  0  0  0  0  3  0  0  0  0  0  0
  -30.8870  -15.7770   20.4910 C   0  0  0  0  0  0  0  0  0  0  0  0
  -30.4610  -18.2670   20.6460 C   0  0  0  0  0  0  0  0  0  0  0  0
  -31.3840  -14.5400   19.7140 C   0  0  0  0  0  0  0  0  0  0  0  0
  -30.8860  -12.4040   18.5330 C   0  0  0  0  0  2  0  0  0  0  0  0
  -29.8170  -12.6530   17.4440 C   0  0  0  0  0  2  0  0  0  0  0  0
  -28.3970  -12.5370   18.0330 C   0  0  0  0  0  2  0  0  0  0  0  0
  -28.2350  -13.3380   19.3500 C   0  0  0  0  0  3  0  0  0  0  0  0
  -29.4000  -13.0480   20.3160 C   0  0  0  0  0  2  0  0  0  0  0  0
  -30.6600  -13.3750   19.6300 N   0  0  0  0  0  0  0  0  0  0  0  0
  -32.4320  -14.6680   19.0720 O   0  0  0  0  0  0  0  0  0  0  0  0
  -25.9960  -14.0050   20.4230 C   0  0  0  0  0  0  0  0  0  0  0  0
  -24.9360  -13.2630   20.8660 C   0  0  0  0  0  0  0  0  0  0  0  0
  -25.2980  -11.8960   20.6660 C   0  0  0  0  0  0  0  0  0  0  0  0
  -26.9410  -13.0910   19.9810 N   0  0  0  0  0  0  0  0  0  0  0  0
  -26.5320  -11.8120   20.1850 N   0  0  0  0  0  0  0  0  0  0  0  0
  -24.5200  -10.6640   20.8480 C   0  0  0  0  0  0  0  0  0  0  0  0
  -24.9370   -9.6490   21.7370 C   0  0  0  0  0  3  0  0  0  0  0  0
  -24.1600   -8.4840   21.9080 C   0  0  0  0  0  3  0  0  0  0  0  0
  -22.9510   -8.3240   21.1900 C   0  0  0  0  0  0  0  0  0  0  0  0
  -22.5520   -9.3280   20.2910 C   0  0  0  0  0  3  0  0  0  0  0  0
  -23.3270  -10.4850   20.1160 C   0  0  0  0  0  3  0  0  0  0  0  0
  -22.1450   -7.2130   21.2730 O   0  0  0  0  0  0  0  0  0  0  0  0
  -22.0150   -6.5030   22.4400 C   0  0  0  0  0  0  0  0  0  0  0  0
  -21.5660   -7.1100   23.6330 C   0  0  0  0  0  3  0  0  0  0  0  0
  -21.3800   -6.3300   24.7920 C   0  0  0  0  0  3  0  0  0  0  0  0
  -21.6320   -4.9450   24.7570 C   0  0  0  0  0  0  0  0  0  0  0  0
  -22.0720   -4.3390   23.5680 C   0  0  0  0  0  3  0  0  0  0  0  0
  -22.2600   -5.1160   22.4110 C   0  0  0  0  0  0  0  0  0  0  0  0
  -22.6650   -4.5240   21.2620 F   0  0  0  0  0  0  0  0  0  0  0  0
  -21.4460   -4.1940   25.8670 F   0  0  0  0  0  0  0  0  0  0  0  0
  -23.6200  -13.7920   21.3570 C   0  0  0  0  0  0  0  0  0  0  0  0
  -22.9850  -13.0900   22.2900 N   0  0  0  0  0  0  0  0  0  0  0  0
  -23.1670  -14.8600   20.9490 O   0  0  0  0  0  0  0  0  0  0  0  0
  -23.3660  -12.2240   22.6430 H   0  0  0  0  0  0  0  0  0  0  0  0
  -22.1050  -13.4240   22.6570 H   0  0  0  0  0  0  0  0  0  0  0  0
  -26.2310  -15.3740   20.3400 N   0  0  0  0  0  0  0  0  0  0  0  0
  -25.5430  -16.0630   20.6230 H   0  0  0  0  0  0  0  0  0  0  0  0
  -27.0840  -15.7880   19.9830 H   0  0  0  0  0  0  0  0  0  0  0  0
  -29.7580  -23.9790   19.5330 C   0  0  0  0  0  3  0  0  0  0  0  0
  -28.5460  -24.8640   20.0190 C   0  0  0  0  0  3  0  0  0  0  0  0
  -28.7470  -26.3290   19.9590 O   0  0  0  0  0  0  0  0  0  0  0  0
  -24.9420  -31.4610   23.2840 C   0  0  0  0  0  0  0  0  0  0  0  0
  -27.6170  -27.1520   19.9690 C   0  0  0  0  0  0  0  0  0  0  0  0
  -23.7710  -30.1870   21.5200 C   0  0  0  0  0  3  0  0  0  0  0  0
  -25.2500  -28.7450   20.0170 C   0  0  0  0  0  0  0  0  0  0  0  0
  -26.3090  -30.5250   21.4070 C   0  0  0  0  0  2  0  0  0  0  0  0
  -26.4040  -29.1960   20.6720 C   0  0  0  0  0  0  0  0  0  0  0  0
  -27.5910  -28.4100   20.6410 C   0  0  0  0  0  3  0  0  0  0  0  0
  -26.4460  -26.7550   19.2830 C   0  0  0  0  0  3  0  0  0  0  0  0
  -25.2730  -27.5310   19.3150 C   0  0  0  0  0  3  0  0  0  0  0  0
  -24.0140  -29.6160   20.0990 C   0  0  0  0  0  2  0  0  0  0  0  0
  -25.0260  -30.7370   22.1290 N   0  0  0  0  0  0  0  0  0  0  0  0
  -23.8480  -31.6970   23.8160 O   0  0  0  0  0  0  0  0  0  0  0  0
  -23.0940  -29.1020   22.3890 C   0  0  0  0  0  0  0  0  0  0  0  0
  -21.7730  -28.9280   22.2160 N   0  0  0  0  0  0  0  0  0  0  0  0
  -23.7550  -28.4240   23.1790 O   0  0  0  0  0  0  0  0  0  0  0  0
  -21.3000  -29.5300   21.5570 H   0  0  0  0  0  0  0  0  0  0  0  0
  -18.3980  -27.6640   22.5130 C   0  0  0  0  0  0  0  0  0  0  0  0
  -20.9400  -27.9380   22.9000 C   0  0  0  0  0  3  0  0  0  0  0  0
  -21.0850  -26.5440   22.2490 C   0  0  0  0  0  2  0  0  0  0  0  0
  -20.0270  -26.2660   21.1750 C   0  0  0  0  0  2  0  0  0  0  0  0
  -18.6190  -26.3580   21.7710 C   0  0  0  0  0  2  0  0  0  0  0  0
  -19.4880  -28.4130   23.0310 C   0  0  0  0  0  0  0  0  0  0  0  0
  -19.2280  -29.6370   23.6840 C   0  0  0  0  0  3  0  0  0  0  0  0
  -17.9100  -30.1120   23.8280 C   0  0  0  0  0  3  0  0  0  0  0  0
  -16.8340  -29.3590   23.3250 C   0  0  0  0  0  3  0  0  0  0  0  0
  -17.0780  -28.1370   22.6740 C   0  0  0  0  0  3  0  0  0  0  0  0
  -26.2130  -32.0420   23.9760 C   0  0  0  0  0  3  0  0  0  0  0  0
  -26.6850  -31.1960   25.2210 C   0  0  1  0  0  0  0  0  0  0  0  0
  -25.5560  -30.9010   26.2370 C   0  0  0  0  0  1  0  0  0  0  0  0
  -27.2770  -29.8400   24.7680 C   0  0  0  0  0  1  0  0  0  0  0  0
  -27.8120  -31.9470   25.9680 C   0  0  0  0  0  1  0  0  0  0  0  0
  -25.9070  -33.4240   24.3730 N   0  0  0  0  0  0  0  0  0  0  0  0
  -26.3190  -34.5140   23.7120 C   0  0  0  0  0  0  0  0  0  0  0  0
  -27.0650  -34.4610   22.7310 O   0  0  0  0  0  0  0  0  0  0  0  0
  -25.2530  -33.5420   25.1330 H   0  0  0  0  0  0  0  0  0  0  0  0
  -24.6680  -36.3770   23.3380 C   0  0  0  0  0  1  0  0  0  0  0  0
  -25.8250  -35.8820   24.2210 C   0  0  0  0  0  3  0  0  0  0  0  0
  -27.9060  -36.6450   25.2810 C   0  0  0  0  0  1  0  0  0  0  0  0
  -26.8860  -36.9110   24.2690 N   0  0  0  0  0  0  0  0  0  0  0  0
  -26.4890  -37.8290   24.4510 H   0  0  0  0  0  0  0  0  0  0  0  0
  1  3  2  0
  2  5  1  0
  2  7  1  0
  4  1  1  0
  5  6  1  0
  6 14  1  0
  6  4  1  0
  7  1  1  0
  8  2  2  0
 10  9  2  0
 11  9  1  0
 12 13  2  0
 12 14  1  0
 13 10  1  0
 14 11  2  0
 15 13  1  0
 16 21  1  0
 17 18  1  0
 17 16  1  0
 19 18  1  0
 19 26  1  0
 19 20  1  0
 21 15  1  0
 21 20  1  0
 22 15  2  0
 23 24  2  0
 24 43  1  0
 25 28  1  0
 25 24  1  0
 26 27  1  0
 26 23  1  0
 27 25  2  0
 28 29  1  0
 29 30  2  0
 31 34  1  0
 31 30  1  0
 32 31  2  0
 33 32  1  0
 33 28  2  0
 34 35  1  0
 35 36  1  0
 36 37  2  0
 38 37  1  0
 38 42  1  0
 39 38  2  0
 40 35  2  0
 40 39  1  0
 41 40  1  0
 43 44  1  0
 44 46  1  0
 44 47  1  0
 45 43  2  0
 48 23  1  0
 48 49  1  0
 50 48  1  0
 51  7  1  0
 51 52  2  0
 53 55  1  0
 53 52  1  0
 54 65  2  0
 55 60  1  0
 56 64  1  0
 56 66  1  0
 57 63  1  0
 57 59  1  0
 58 64  1  0
 59 58  1  0
 60 59  2  0
 61 62  1  0
 61 55  2  0
 62 57  2  0
 63 56  1  0
 64 54  1  0
 66 68  2  0
 67 66  1  0
 69 67  1  0
 70 79  2  0
 70 75  1  0
 71 67  1  0
 71 75  1  0
 72 71  1  0
 73 74  1  0
 73 72  1  0
 74 70  1  0
 75 76  2  0
 76 77  1  0
 78 77  2  0
 79 78  1  0
 80 54  1  0
 80 85  1  0
 80 81  1  0
 81 84  1  1
 81 82  1  0
 83 81  1  0
 85 88  1  0
 86 90  1  0
 86 85  1  0
 87 86  2  0
 90 89  1  0
 90 92  1  0
 92 93  1  0
 92 91  1  0
M  ISO  4  13 100  15 100  52 101  53 101
M  END
>  <TORSDO>  (62) 
F 19

>  <SCORE>  (62) 
-11.611

>  <name>  (62) 
61

>  <ligand_id>  (62) 
61

>  <original_smiles>  (62) 
[H]C([H])=C1N(C([H])([H])C([H])([H])Oc2c([H])c([H])c3c(c2[H])C([H])([H])N(C(=O)C([H])(N([H])C(=O)C([H])(N([H])C([H])([H])[H])C([H])([H])[H])C(C([H])([H])[H])(C([H])([H])[H])C([H])([H])[H])C([H])(C(=O)N([H])C2([H])c4c([H])c([H])c([H])c([H])c4C([H])([H])C([H])([H])C2([H])[H])C3([H])[H])C(=O)C([H])([H])N(c2c([H])c([H])c([H])c(C(=O)N3C([H])([H])C([H])([H])C([H])([H])C([H])(n4nc(-c5c([H])c([H])c(Oc6c([H])c([H])c(F)c([H])c6F)c([H])c5[H])c(C(=O)N([H])[H])c4N([H])[H])C3([H])[H])c2[H])C1([H])[H]

>  <smiles>  (62) 
[H]C([H])=C1N(C([H])([H])C([H])([H])Oc2c([H])c([H])c3c(c2[H])C([H])([H])N(C(=O)C([H])(N([H])C(=O)C([H])(N([H])C([H])([H])[H])C([H])([H])[H])C(C([H])([H])[H])(C([H])([H])[H])C([H])([H])[H])C([H])(C(=O)N([H])C2([H])c4c([H])c([H])c([H])c([H])c4C([H])([H])C([H])([H])C2([H])[H])C3([H])[H])C(=O)C([H])([H])N(c2c([H])c([H])c([H])c(C(=O)N3C([H])([H])C([H])([H])C([H])([H])C([H])(n4nc(-c5c([H])c([H])c(Oc6c([H])c([H])c(F)c([H])c6F)c([H])c5[H])c(C(=O)N([H])[H])c4N([H])[H])C3([H])[H])c2[H])C1([H])[H]

$$$$
62:0:0
     RDKit          3D

 94103  0  0  1  0  0  0  0  0999 V2000
  -28.7210  -23.9850   20.2630 C   0  0  0  0  0  0  0  0  0  0  0  0
  -29.0690  -23.7900   21.6490 C   0  0  0  0  0  0  0  0  0  0  0  0
  -28.8360  -22.6120   19.6630 C   0  0  0  0  0  0  0  0  0  0  0  0
  -28.9480  -24.6940   22.6370 C   0  0  0  0  0  1  0  0  0  0  0  0
  -28.3940  -25.1740   19.6080 C   0  0  0  0  0  3  0  0  0  0  0  0
  -29.5460  -22.3700   21.8700 C   0  0  0  0  0  2  0  0  0  0  0  0
  -28.2170  -25.2480   18.0940 C   0  0  0  0  0  1  0  0  0  0  0  0
  -29.2780  -21.6910   20.5980 N   0  0  0  0  0  0  0  0  0  0  0  0
  -28.5820  -22.3040   18.4940 O   0  0  0  0  0  0  0  0  0  0  0  0
  -28.6270  -19.3680   19.7170 C   0  0  0  0  0  3  0  0  0  0  0  0
  -30.5030  -19.5280   21.1960 C   0  0  0  0  0  3  0  0  0  0  0  0
  -28.7540  -17.9420   19.7340 C   0  0  0  0  0  3  0  0  0  0  0  0
  -30.6510  -18.1010   21.1860 C   0  0  0  0  0  3  0  0  0  0  0  0
  -29.4790  -20.2200   20.4760 C   0  0  0  0  0  0  0  0  0  0  0  0
  -29.7610  -17.2550   20.4710 C   0  0  0  0  0  0  0  0  0  0  0  0
  -30.5680  -14.7490   20.3690 C   0  0  0  0  0  0  0  0  0  0  0  0
  -30.4120  -12.4840   19.3340 C   0  0  0  0  0  2  0  0  0  0  0  0
  -29.4580  -12.5780   18.1210 C   0  0  0  0  0  2  0  0  0  0  0  0
  -27.9880  -12.4020   18.5570 C   0  0  0  0  0  2  0  0  0  0  0  0
  -27.6220  -13.2700   19.7890 C   0  0  0  0  0  3  0  0  0  0  0  0
  -28.6870  -13.1420   20.9010 C   0  0  0  0  0  2  0  0  0  0  0  0
  -29.9860  -13.5050   20.3130 N   0  0  0  0  0  0  0  0  0  0  0  0
  -31.7460  -14.9180   20.0330 O   0  0  0  0  0  0  0  0  0  0  0  0
  -29.6970  -15.7900   20.6050 N   0  0  0  0  0  0  0  0  0  0  0  0
  -28.7620  -15.4420   20.7480 H   0  0  0  0  0  0  0  0  0  0  0  0
  -25.2330  -13.8640   20.5260 C   0  0  0  0  0  0  0  0  0  0  0  0
  -24.1700  -13.0880   20.8970 C   0  0  0  0  0  0  0  0  0  0  0  0
  -24.6330  -11.7380   20.8590 C   0  0  0  0  0  0  0  0  0  0  0  0
  -26.2770  -12.9860   20.2810 N   0  0  0  0  0  0  0  0  0  0  0  0
  -25.9220  -11.7010   20.5430 N   0  0  0  0  0  0  0  0  0  0  0  0
  -23.9100  -10.4740   21.0470 C   0  0  0  0  0  0  0  0  0  0  0  0
  -24.3510   -9.5010   21.9700 C   0  0  0  0  0  3  0  0  0  0  0  0
  -23.6290   -8.3020   22.1470 C   0  0  0  0  0  3  0  0  0  0  0  0
  -22.4490   -8.0670   21.4010 C   0  0  0  0  0  0  0  0  0  0  0  0
  -22.0260   -9.0290   20.4670 C   0  0  0  0  0  3  0  0  0  0  0  0
  -22.7500  -10.2200   20.2880 C   0  0  0  0  0  3  0  0  0  0  0  0
  -21.6980   -6.9210   21.4870 O   0  0  0  0  0  0  0  0  0  0  0  0
  -21.6600   -6.1690   22.6340 C   0  0  0  0  0  0  0  0  0  0  0  0
  -21.2320   -6.7100   23.8650 C   0  0  0  0  0  3  0  0  0  0  0  0
  -21.1410   -5.8850   25.0040 C   0  0  0  0  0  3  0  0  0  0  0  0
  -21.4680   -4.5190   24.9120 C   0  0  0  0  0  0  0  0  0  0  0  0
  -21.8900   -3.9770   23.6850 C   0  0  0  0  0  3  0  0  0  0  0  0
  -21.9830   -4.8000   22.5490 C   0  0  0  0  0  0  0  0  0  0  0  0
  -22.3680   -4.2680   21.3630 F   0  0  0  0  0  0  0  0  0  0  0  0
  -21.3740   -3.7240   26.0030 F   0  0  0  0  0  0  0  0  0  0  0  0
  -22.7720  -13.5630   21.1760 C   0  0  0  0  0  0  0  0  0  0  0  0
  -22.0490  -12.8640   22.0440 N   0  0  0  0  0  0  0  0  0  0  0  0
  -22.3310  -14.5910   20.6630 O   0  0  0  0  0  0  0  0  0  0  0  0
  -22.4170  -12.0320   22.4820 H   0  0  0  0  0  0  0  0  0  0  0  0
  -21.1130  -13.1660   22.2740 H   0  0  0  0  0  0  0  0  0  0  0  0
  -25.3940  -15.2370   20.3520 N   0  0  0  0  0  0  0  0  0  0  0  0
  -24.6230  -15.8850   20.4680 H   0  0  0  0  0  0  0  0  0  0  0  0
  -26.2300  -15.6810   19.9980 H   0  0  0  0  0  0  0  0  0  0  0  0
  -28.3500  -26.4730   20.1950 O   0  0  0  0  0  0  0  0  0  0  0  0
  -24.6340  -31.8940   23.2520 C   0  0  0  0  0  0  0  0  0  0  0  0
  -27.2200  -27.3240   20.1510 C   0  0  0  0  0  0  0  0  0  0  0  0
  -23.4160  -30.5000   21.6210 C   0  0  0  0  0  3  0  0  0  0  0  0
  -24.8510  -28.9520   20.1790 C   0  0  0  0  0  0  0  0  0  0  0  0
  -25.9550  -30.8180   21.4080 C   0  0  0  0  0  2  0  0  0  0  0  0
  -26.0300  -29.4370   20.7590 C   0  0  0  0  0  0  0  0  0  0  0  0
  -27.2140  -28.6350   20.7330 C   0  0  0  0  0  3  0  0  0  0  0  0
  -26.0000  -26.8850   19.5850 C   0  0  0  0  0  3  0  0  0  0  0  0
  -24.8390  -27.6810   19.5860 C   0  0  0  0  0  3  0  0  0  0  0  0
  -23.6170  -29.8310   20.2370 C   0  0  0  0  0  2  0  0  0  0  0  0
  -24.6900  -31.0880   22.1510 N   0  0  0  0  0  0  0  0  0  0  0  0
  -23.5560  -32.1690   23.7980 O   0  0  0  0  0  0  0  0  0  0  0  0
  -22.7620  -29.4810   22.5840 C   0  0  0  0  0  0  0  0  0  0  0  0
  -21.4370  -29.2940   22.4640 N   0  0  0  0  0  0  0  0  0  0  0  0
  -23.4480  -28.8600   23.4010 O   0  0  0  0  0  0  0  0  0  0  0  0
  -20.9430  -29.8470   21.7770 H   0  0  0  0  0  0  0  0  0  0  0  0
  -18.0700  -28.0670   22.9650 C   0  0  0  0  0  0  0  0  0  0  0  0
  -20.6270  -28.3530   23.2380 C   0  0  0  0  0  3  0  0  0  0  0  0
  -20.7420  -26.9190   22.6690 C   0  0  0  0  0  2  0  0  0  0  0  0
  -19.6450  -26.5820   21.6550 C   0  0  0  0  0  2  0  0  0  0  0  0
  -18.2610  -26.7160   22.2960 C   0  0  0  0  0  2  0  0  0  0  0  0
  -19.1810  -28.8420   23.3930 C   0  0  0  0  0  0  0  0  0  0  0  0
  -18.9480  -30.1050   23.9790 C   0  0  0  0  0  3  0  0  0  0  0  0
  -17.6380  -30.5940   24.1420 C   0  0  0  0  0  3  0  0  0  0  0  0
  -16.5420  -29.8150   23.7310 C   0  0  0  0  0  3  0  0  0  0  0  0
  -16.7600  -28.5550   23.1470 C   0  0  0  0  0  3  0  0  0  0  0  0
  -25.9220  -32.5240   23.8660 C   0  0  0  0  0  3  0  0  0  0  0  0
  -25.6140  -33.9220   24.2040 N   0  0  0  0  0  0  0  0  0  0  0  0
  -25.9230  -34.9770   23.4390 C   0  0  0  0  0  0  0  0  0  0  0  0
  -26.5650  -34.8760   22.3900 O   0  0  0  0  0  0  0  0  0  0  0  0
  -25.0390  -34.0740   25.0200 H   0  0  0  0  0  0  0  0  0  0  0  0
  -24.1750  -36.7620   23.1370 C   0  0  0  0  0  1  0  0  0  0  0  0
  -25.4430  -36.3630   23.9090 C   0  0  0  0  0  3  0  0  0  0  0  0
  -27.5980  -37.2650   24.6690 C   0  0  0  0  0  1  0  0  0  0  0  0
  -26.4650  -37.4220   23.7610 N   0  0  0  0  0  0  0  0  0  0  0  0
  -26.0590  -38.3410   23.9150 H   0  0  0  0  0  0  0  0  0  0  0  0
  -26.4470  -31.7470   25.1360 C   0  0  1  0  0  0  0  0  0  0  0  0
  -25.3630  -31.5110   26.2120 C   0  0  0  0  0  1  0  0  0  0  0  0
  -27.0190  -30.3670   24.7340 C   0  0  0  0  0  1  0  0  0  0  0  0
  -27.6080  -32.5340   25.7890 C   0  0  0  0  0  1  0  0  0  0  0  0
  1  2  2  0
  2  6  1  0
  2  4  1  0
  3  1  1  0
  3  8  1  0
  5  7  1  0
  5 54  1  0
  5  1  1  0
  8  6  1  0
  9  3  2  0
 10 12  2  0
 10 14  1  0
 12 15  1  0
 13 11  1  0
 14  8  1  0
 14 11  2  0
 15 24  1  0
 15 13  2  0
 16 24  1  0
 17 22  1  0
 18 19  1  0
 18 17  1  0
 20 19  1  0
 20 29  1  0
 20 21  1  0
 22 16  1  0
 22 21  1  0
 23 16  2  0
 24 25  1  0
 26 27  2  0
 27 46  1  0
 28 27  1  0
 28 31  1  0
 29 26  1  0
 29 30  1  0
 30 28  2  0
 31 32  1  0
 32 33  2  0
 34 37  1  0
 34 33  1  0
 35 34  2  0
 36 35  1  0
 36 31  2  0
 37 38  1  0
 38 39  1  0
 39 40  2  0
 41 40  1  0
 41 45  1  0
 42 41  2  0
 43 38  2  0
 43 42  1  0
 44 43  1  0
 46 47  1  0
 47 50  1  0
 47 49  1  0
 48 46  2  0
 51 52  1  0
 51 26  1  0
 53 51  1  0
 55 66  2  0
 56 54  1  0
 56 61  1  0
 57 65  1  0
 57 67  1  0
 58 64  1  0
 58 60  1  0
 59 65  1  0
 60 59  1  0
 61 60  2  0
 62 63  1  0
 62 56  2  0
 63 58  2  0
 64 57  1  0
 65 55  1  0
 67 69  2  0
 68 67  1  0
 70 68  1  0
 71 80  2  0
 71 76  1  0
 72 68  1  0
 72 76  1  0
 73 72  1  0
 74 75  1  0
 74 73  1  0
 75 71  1  0
 76 77  2  0
 77 78  1  0
 79 78  2  0
 80 79  1  0
 81 55  1  0
 81 82  1  0
 81 91  1  0
 82 85  1  0
 83 87  1  0
 83 82  1  0
 84 83  2  0
 87 86  1  0
 89 87  1  0
 89 90  1  0
 89 88  1  0
 91 94  1  1
 91 92  1  0
 93 91  1  0
M  ISO  4   5 101  16 100  24 100  54 101
M  END
>  <TORSDO>  (63) 
F 17

>  <SCORE>  (63) 
-15.512

>  <name>  (63) 
62

>  <ligand_id>  (63) 
62

>  <original_smiles>  (63) 
[H]C([H])=C1C(=C(Oc2c([H])c([H])c3c(c2[H])C([H])([H])N(C(=O)C([H])(N([H])C(=O)C([H])(N([H])C([H])([H])[H])C([H])([H])[H])C(C([H])([H])[H])(C([H])([H])[H])C([H])([H])[H])C([H])(C(=O)N([H])C2([H])c4c([H])c([H])c([H])c([H])c4C([H])([H])C([H])([H])C2([H])[H])C3([H])[H])C([H])([H])[H])C(=O)N(c2c([H])c([H])c(N([H])C(=O)N3C([H])([H])C([H])([H])C([H])([H])C([H])(n4nc(-c5c([H])c([H])c(Oc6c([H])c([H])c(F)c([H])c6F)c([H])c5[H])c(C(=O)N([H])[H])c4N([H])[H])C3([H])[H])c([H])c2[H])C1([H])[H]

>  <smiles>  (63) 
[H]C([H])=C1C(=C(Oc2c([H])c([H])c3c(c2[H])C([H])([H])N(C(=O)C([H])(N([H])C(=O)C([H])(N([H])C([H])([H])[H])C([H])([H])[H])C(C([H])([H])[H])(C([H])([H])[H])C([H])([H])[H])C([H])(C(=O)N([H])C2([H])c4c([H])c([H])c([H])c([H])c4C([H])([H])C([H])([H])C2([H])[H])C3([H])[H])C([H])([H])[H])C(=O)N(c2c([H])c([H])c(N([H])C(=O)N3C([H])([H])C([H])([H])C([H])([H])C([H])(n4nc(-c5c([H])c([H])c(Oc6c([H])c([H])c(F)c([H])c6F)c([H])c5[H])c(C(=O)N([H])[H])c4N([H])[H])C3([H])[H])c([H])c2[H])C1([H])[H]

$$$$
63:0:0
     RDKit          3D

103111  0  0  1  0  0  0  0  0999 V2000
  -28.7570  -20.6750   21.0080 C   0  0  0  0  0  0  0  0  0  0  0  0
  -28.8600  -23.1000   21.6380 C   0  0  0  0  0  0  0  0  0  0  0  0
  -29.3850  -21.7570   21.5280 N   0  0  0  0  0  0  0  0  0  0  0  0
  -27.5150  -20.7560   20.5190 N   0  0  0  0  0  4  0  0  0  0  0  0
  -27.7290  -23.3890   21.2160 O   0  0  0  0  0  0  0  0  0  0  0  0
  -30.3150  -21.5390   21.8460 H   0  0  0  0  0  0  0  0  0  0  0  0
  -27.0180  -19.9200   20.2560 H   0  0  0  0  0  0  0  0  0  0  0  0
  -27.0350  -21.6460   20.5550 H   0  0  0  0  0  0  0  0  0  0  0  0
  -30.2370  -18.8860   21.9920 C   0  0  0  0  0  3  0  0  0  0  0  0
  -30.6840  -17.5440   22.0010 C   0  0  0  0  0  3  0  0  0  0  0  0
  -29.0240  -18.4500   19.9280 C   0  0  0  0  0  3  0  0  0  0  0  0
  -29.3800  -19.3420   20.9650 C   0  0  0  0  0  0  0  0  0  0  0  0
  -30.2960  -16.6400   20.9850 C   0  0  0  0  0  0  0  0  0  0  0  0
  -29.4620  -17.1120   19.9410 C   0  0  0  0  0  0  0  0  0  0  0  0
  -29.0120  -16.2720   18.9780 F   0  0  0  0  0  0  0  0  0  0  0  0
  -31.0060  -14.4590   20.1010 C   0  0  0  0  0  0  0  0  0  0  0  0
  -30.6450  -12.2830   18.9780 C   0  0  0  0  0  2  0  0  0  0  0  0
  -29.6140  -12.4280   17.8410 C   0  0  0  0  0  2  0  0  0  0  0  0
  -28.1800  -12.2660   18.3830 C   0  0  0  0  0  2  0  0  0  0  0  0
  -27.9150  -13.1590   19.6210 C   0  0  0  0  0  3  0  0  0  0  0  0
  -29.0390  -12.9890   20.6680 C   0  0  0  0  0  2  0  0  0  0  0  0
  -30.3390  -13.2750   20.0230 N   0  0  0  0  0  0  0  0  0  0  0  0
  -31.9490  -14.7600   19.3610 O   0  0  0  0  0  0  0  0  0  0  0  0
  -30.6260  -15.2620   21.1080 N   0  0  0  0  0  0  0  0  0  0  0  0
  -30.1470  -14.7950   21.8590 H   0  0  0  0  0  0  0  0  0  0  0  0
  -25.6000  -13.7770   20.5680 C   0  0  0  0  0  0  0  0  0  0  0  0
  -24.5500  -13.0080   20.9920 C   0  0  0  0  0  0  0  0  0  0  0  0
  -24.9740  -11.6500   20.8460 C   0  0  0  0  0  0  0  0  0  0  0  0
  -26.5990  -12.8900   20.1980 N   0  0  0  0  0  0  0  0  0  0  0  0
  -26.2290  -11.6020   20.4180 N   0  0  0  0  0  0  0  0  0  0  0  0
  -24.2400  -10.3930   21.0370 C   0  0  0  0  0  0  0  0  0  0  0  0
  -24.6490   -9.4360   21.9930 C   0  0  0  0  0  3  0  0  0  0  0  0
  -23.9160   -8.2420   22.1670 C   0  0  0  0  0  3  0  0  0  0  0  0
  -22.7620   -7.9970   21.3870 C   0  0  0  0  0  0  0  0  0  0  0  0
  -22.3740   -8.9420   20.4200 C   0  0  0  0  0  3  0  0  0  0  0  0
  -23.1070  -10.1270   20.2430 C   0  0  0  0  0  3  0  0  0  0  0  0
  -22.0030   -6.8550   21.4700 O   0  0  0  0  0  0  0  0  0  0  0  0
  -21.7880   -6.2190   22.6660 C   0  0  0  0  0  0  0  0  0  0  0  0
  -21.1550   -6.8660   23.7500 C   0  0  0  0  0  3  0  0  0  0  0  0
  -20.8930   -6.1560   24.9380 C   0  0  0  0  0  3  0  0  0  0  0  0
  -21.2490   -4.7980   25.0400 C   0  0  0  0  0  0  0  0  0  0  0  0
  -21.8720   -4.1490   23.9600 C   0  0  0  0  0  3  0  0  0  0  0  0
  -22.1380   -4.8580   22.7750 C   0  0  0  0  0  0  0  0  0  0  0  0
  -22.7210   -4.2230   21.7290 F   0  0  0  0  0  0  0  0  0  0  0  0
  -20.9890   -4.1120   26.1780 F   0  0  0  0  0  0  0  0  0  0  0  0
  -23.1960  -13.4930   21.4220 C   0  0  0  0  0  0  0  0  0  0  0  0
  -22.5400  -12.7690   22.3200 N   0  0  0  0  0  0  0  0  0  0  0  0
  -22.7280  -14.5470   20.9890 O   0  0  0  0  0  0  0  0  0  0  0  0
  -22.9270  -11.9110   22.6840 H   0  0  0  0  0  0  0  0  0  0  0  0
  -21.6380  -13.0760   22.6540 H   0  0  0  0  0  0  0  0  0  0  0  0
  -25.7840  -15.1520   20.4500 N   0  0  0  0  0  0  0  0  0  0  0  0
  -25.0510  -15.8200   20.6590 H   0  0  0  0  0  0  0  0  0  0  0  0
  -26.6090  -15.5830   20.0550 H   0  0  0  0  0  0  0  0  0  0  0  0
  -28.9190  -24.9380   23.3900 C   0  0  0  0  0  1  0  0  0  0  0  0
  -31.0840  -23.6550   22.9450 C   0  0  0  0  0  1  0  0  0  0  0  0
  -29.7540  -24.1610   22.3500 C   0  0  1  0  0  0  0  0  0  0  0  0
  -30.1130  -25.2290   21.3730 N   0  0  0  0  0  0  0  0  0  0  0  0
  -30.6030  -24.9470   20.2590 N   0  0  0  0  0  0  0  0  0  0  0  0
  -30.4740  -25.4290   17.9060 C   0  0  0  0  0  1  0  0  0  0  0  0
  -32.2480  -26.4500   19.3910 C   0  0  0  0  0  1  0  0  0  0  0  0
  -30.7680  -26.0690   19.2740 C   0  0  2  0  0  0  0  0  0  0  0  0
  -29.7960  -27.2620   19.5930 C   0  0  0  0  0  2  0  0  0  0  0  0
  -28.4870  -26.7220   19.5710 O   0  0  0  0  0  0  0  0  0  0  0  0
  -24.4840  -31.5900   23.0220 C   0  0  0  0  0  0  0  0  0  0  0  0
  -27.3690  -27.5090   19.6760 C   0  0  0  0  0  0  0  0  0  0  0  0
  -23.3640  -30.2420   21.2810 C   0  0  0  0  0  3  0  0  0  0  0  0
  -24.9030  -28.8780   19.7780 C   0  0  0  0  0  0  0  0  0  0  0  0
  -25.8630  -30.7490   21.1200 C   0  0  0  0  0  2  0  0  0  0  0  0
  -26.0340  -29.4250   20.4010 C   0  0  0  0  0  0  0  0  0  0  0  0
  -27.2810  -28.7560   20.3410 C   0  0  0  0  0  3  0  0  0  0  0  0
  -26.2120  -26.9640   19.0900 C   0  0  0  0  0  3  0  0  0  0  0  0
  -24.9830  -27.6440   19.1150 C   0  0  0  0  0  3  0  0  0  0  0  0
  -23.6160  -29.6660   19.8650 C   0  0  0  0  0  2  0  0  0  0  0  0
  -24.5890  -30.8690   21.8680 N   0  0  0  0  0  0  0  0  0  0  0  0
  -23.3840  -31.7760   23.5610 O   0  0  0  0  0  0  0  0  0  0  0  0
  -22.7500  -29.1320   22.1650 C   0  0  0  0  0  0  0  0  0  0  0  0
  -21.4280  -28.9330   22.0440 N   0  0  0  0  0  0  0  0  0  0  0  0
  -23.4580  -28.4560   22.9160 O   0  0  0  0  0  0  0  0  0  0  0  0
  -20.9130  -29.5320   21.4130 H   0  0  0  0  0  0  0  0  0  0  0  0
  -18.0830  -27.6740   22.5520 C   0  0  0  0  0  0  0  0  0  0  0  0
  -20.6480  -27.9170   22.7490 C   0  0  0  0  0  3  0  0  0  0  0  0
  -20.7300  -26.5520   22.0270 C   0  0  0  0  0  2  0  0  0  0  0  0
  -19.5900  -26.3280   21.0280 C   0  0  0  0  0  2  0  0  0  0  0  0
  -18.2340  -26.4020   21.7340 C   0  0  0  0  0  2  0  0  0  0  0  0
  -19.2160  -28.3940   23.0140 C   0  0  0  0  0  0  0  0  0  0  0  0
  -19.0200  -29.5900   23.7370 C   0  0  0  0  0  3  0  0  0  0  0  0
  -17.7220  -30.0650   24.0040 C   0  0  0  0  0  3  0  0  0  0  0  0
  -16.6030  -29.3410   23.5590 C   0  0  0  0  0  3  0  0  0  0  0  0
  -16.7840  -28.1480   22.8370 C   0  0  0  0  0  3  0  0  0  0  0  0
  -25.7350  -32.2360   23.6960 C   0  0  0  0  0  3  0  0  0  0  0  0
  -25.3730  -33.6070   24.0800 N   0  0  0  0  0  0  0  0  0  0  0  0
  -25.6720  -34.6990   23.3670 C   0  0  0  0  0  0  0  0  0  0  0  0
  -26.3570  -34.6640   22.3420 O   0  0  0  0  0  0  0  0  0  0  0  0
  -24.7910  -33.7150   24.8970 H   0  0  0  0  0  0  0  0  0  0  0  0
  -23.8850  -36.4310   23.0490 C   0  0  0  0  0  1  0  0  0  0  0  0
  -25.1250  -36.0460   23.8700 C   0  0  0  0  0  3  0  0  0  0  0  0
  -27.2010  -36.9810   24.7880 C   0  0  0  0  0  1  0  0  0  0  0  0
  -26.1190  -37.1380   23.8200 N   0  0  0  0  0  0  0  0  0  0  0  0
  -25.6750  -38.0370   23.9780 H   0  0  0  0  0  0  0  0  0  0  0  0
  -26.2520  -31.4200   24.9430 C   0  0  1  0  0  0  0  0  0  0  0  0
  -25.1350  -31.0670   25.9540 C   0  0  0  0  0  1  0  0  0  0  0  0
  -26.9150  -30.0940   24.4970 C   0  0  0  0  0  1  0  0  0  0  0  0
  -27.3450  -32.2290   25.6800 C   0  0  0  0  0  1  0  0  0  0  0  0
  1  3  1  0
  2 56  1  0
  3  2  1  0
  3  6  1  0
  4  8  1  0
  4  1  2  0
  5  2  2  0
  7  4  1  0
  9 10  1  0
 11 14  2  0
 11 12  1  0
 12  1  1  0
 12  9  2  0
 13 24  1  0
 13 10  2  0
 14 13  1  0
 15 14  1  0
 16 24  1  0
 17 22  1  0
 18 19  1  0
 18 17  1  0
 20 19  1  0
 20 29  1  0
 20 21  1  0
 22 16  1  0
 22 21  1  0
 23 16  2  0
 24 25  1  0
 26 27  2  0
 27 46  1  0
 28 27  1  0
 28 31  1  0
 29 30  1  0
 29 26  1  0
 30 28  2  0
 31 32  1  0
 32 33  2  0
 34 37  1  0
 34 33  1  0
 35 34  2  0
 36 35  1  0
 36 31  2  0
 37 38  1  0
 38 43  2  0
 38 39  1  0
 39 40  2  0
 40 41  1  0
 41 45  1  0
 42 41  2  0
 43 42  1  0
 44 43  1  0
 46 47  1  0
 47 50  1  0
 47 49  1  0
 48 46  2  0
 51 26  1  0
 51 52  1  0
 53 51  1  0
 56 55  1  1
 56 54  1  0
 57 56  1  0
 58 57  2  0
 61 59  1  6
 61 60  1  0
 61 62  1  0
 61 58  1  0
 63 62  1  0
 63 65  1  0
 64 75  2  0
 65 70  1  0
 66 74  1  0
 66 76  1  0
 67 73  1  0
 67 69  1  0
 68 74  1  0
 69 68  1  0
 70 69  2  0
 71 72  1  0
 71 65  2  0
 72 67  2  0
 73 66  1  0
 74 64  1  0
 76 78  2  0
 77 76  1  0
 79 77  1  0
 80 89  2  0
 80 85  1  0
 81 77  1  0
 81 85  1  0
 82 81  1  0
 83 84  1  0
 83 82  1  0
 84 80  1  0
 85 86  2  0
 86 87  1  0
 88 87  2  0
 89 88  1  0
 90 64  1  0
 90 91  1  0
 90100  1  0
 91 94  1  0
 92 96  1  0
 92 91  1  0
 93 92  2  0
 96 95  1  0
 98 96  1  0
 98 99  1  0
 98 97  1  0
100103  1  1
100101  1  0
102100  1  0
M  ISO  4  16 100  24 100  62 101  63 101
M  END
>  <TORSDO>  (64) 
F 21

>  <SCORE>  (64) 
-11.102

>  <name>  (64) 
63

>  <ligand_id>  (64) 
63

>  <original_smiles>  (64) 
[H]c1c([H])c([H])c2c(c1[H])C([H])([H])C([H])([H])C([H])([H])C2([H])N([H])C(=O)C1([H])N(C(=O)C([H])(N([H])C(=O)C([H])(N([H])C([H])([H])[H])C([H])([H])[H])C(C([H])([H])[H])(C([H])([H])[H])C([H])([H])[H])C([H])([H])c2c([H])c(OC([H])([H])C(N=NC(C(=O)N([H])C(c3c([H])c([H])c(N([H])C(=O)N4C([H])([H])C([H])([H])C([H])([H])C([H])(n5nc(-c6c([H])c([H])c(Oc7c([H])c([H])c(F)c([H])c7F)c([H])c6[H])c(C(=O)N([H])[H])c5N([H])[H])C4([H])[H])c(F)c3[H])=[N+]([H])[H])(C([H])([H])[H])C([H])([H])[H])(C([H])([H])[H])C([H])([H])[H])c([H])c([H])c2C1([H])[H]

>  <smiles>  (64) 
[H]c1c([H])c([H])c2c(c1[H])C([H])([H])C([H])([H])C([H])([H])C2([H])N([H])C(=O)C1([H])N(C(=O)C([H])(N([H])C(=O)C([H])(N([H])C([H])([H])[H])C([H])([H])[H])C(C([H])([H])[H])(C([H])([H])[H])C([H])([H])[H])C([H])([H])c2c([H])c(OC([H])([H])C(N=NC(C(=O)N([H])C(c3c([H])c([H])c(N([H])C(=O)N4C([H])([H])C([H])([H])C([H])([H])C([H])(n5nc(-c6c([H])c([H])c(Oc7c([H])c([H])c(F)c([H])c7F)c([H])c6[H])c(C(=O)N([H])[H])c5N([H])[H])C4([H])[H])c(F)c3[H])=[N+]([H])[H])(C([H])([H])[H])C([H])([H])[H])(C([H])([H])[H])C([H])([H])[H])c([H])c([H])c2C1([H])[H]

$$$$
64:0:0
     RDKit          3D

 93101  0  0  1  0  0  0  0  0999 V2000
  -28.6650  -22.6200   20.4570 C   0  0  0  0  0  0  0  0  0  0  0  0
  -29.5930  -21.6710   20.0880 N   0  0  0  0  0  0  0  0  0  0  0  0
  -27.6140  -22.3010   21.0190 O   0  0  0  0  0  0  0  0  0  0  0  0
  -30.3920  -22.0960   19.6350 H   0  0  0  0  0  0  0  0  0  0  0  0
  -30.7780  -19.4710   19.7450 C   0  0  0  0  0  3  0  0  0  0  0  0
  -28.6220  -19.3830   20.7850 C   0  0  0  0  0  3  0  0  0  0  0  0
  -30.8950  -18.0430   19.8280 C   0  0  0  0  0  3  0  0  0  0  0  0
  -28.7390  -17.9600   20.8690 C   0  0  0  0  0  3  0  0  0  0  0  0
  -29.6400  -20.1960   20.2140 C   0  0  0  0  0  0  0  0  0  0  0  0
  -29.8700  -17.2350   20.3940 C   0  0  0  0  0  0  0  0  0  0  0  0
  -30.6550  -14.7460   20.0230 C   0  0  0  0  0  0  0  0  0  0  0  0
  -30.4200  -12.5200   18.9190 C   0  0  0  0  0  2  0  0  0  0  0  0
  -29.4000  -12.6600   17.7660 C   0  0  0  0  0  2  0  0  0  0  0  0
  -27.9580  -12.4740   18.2760 C   0  0  0  0  0  2  0  0  0  0  0  0
  -27.6680  -13.3020   19.5570 C   0  0  0  0  0  3  0  0  0  0  0  0
  -28.7930  -13.1270   20.6020 C   0  0  0  0  0  2  0  0  0  0  0  0
  -30.0610  -13.5080   19.9590 N   0  0  0  0  0  0  0  0  0  0  0  0
  -31.7830  -14.9320   19.5540 O   0  0  0  0  0  0  0  0  0  0  0  0
  -29.8640  -15.7650   20.5040 N   0  0  0  0  0  0  0  0  0  0  0  0
  -29.0250  -15.3990   20.9280 H   0  0  0  0  0  0  0  0  0  0  0  0
  -25.3220  -13.8740   20.4340 C   0  0  0  0  0  0  0  0  0  0  0  0
  -24.2800  -13.0880   20.8460 C   0  0  0  0  0  0  0  0  0  0  0  0
  -24.7400  -11.7390   20.7450 C   0  0  0  0  0  0  0  0  0  0  0  0
  -26.3510  -13.0030   20.1120 N   0  0  0  0  0  0  0  0  0  0  0  0
  -26.0100  -11.7120   20.3580 N   0  0  0  0  0  0  0  0  0  0  0  0
  -24.0280  -10.4700   20.9410 C   0  0  0  0  0  0  0  0  0  0  0  0
  -24.4630   -9.5170   21.8890 C   0  0  0  0  0  3  0  0  0  0  0  0
  -23.7490   -8.3130   22.0720 C   0  0  0  0  0  3  0  0  0  0  0  0
  -22.5870   -8.0520   21.3080 C   0  0  0  0  0  0  0  0  0  0  0  0
  -22.1710   -8.9950   20.3500 C   0  0  0  0  0  3  0  0  0  0  0  0
  -22.8860  -10.1910   20.1640 C   0  0  0  0  0  3  0  0  0  0  0  0
  -21.8470   -6.8990   21.3990 O   0  0  0  0  0  0  0  0  0  0  0  0
  -21.7240   -6.2140   22.5800 C   0  0  0  0  0  0  0  0  0  0  0  0
  -21.1700   -6.8120   23.7340 C   0  0  0  0  0  3  0  0  0  0  0  0
  -20.9970   -6.0510   24.9070 C   0  0  0  0  0  3  0  0  0  0  0  0
  -21.3680   -4.6930   24.9280 C   0  0  0  0  0  0  0  0  0  0  0  0
  -21.9150   -4.0950   23.7790 C   0  0  0  0  0  3  0  0  0  0  0  0
  -22.0890   -4.8530   22.6080 C   0  0  0  0  0  0  0  0  0  0  0  0
  -22.5970   -4.2660   21.4980 F   0  0  0  0  0  0  0  0  0  0  0  0
  -21.1950   -3.9610   26.0520 F   0  0  0  0  0  0  0  0  0  0  0  0
  -22.9020  -13.5540   21.2150 C   0  0  0  0  0  0  0  0  0  0  0  0
  -22.2270  -12.8300   22.1010 N   0  0  0  0  0  0  0  0  0  0  0  0
  -22.4320  -14.5940   20.7540 O   0  0  0  0  0  0  0  0  0  0  0  0
  -22.6200  -11.9880   22.4960 H   0  0  0  0  0  0  0  0  0  0  0  0
  -21.3050  -13.1230   22.3900 H   0  0  0  0  0  0  0  0  0  0  0  0
  -25.4740  -15.2500   20.2870 N   0  0  0  0  0  0  0  0  0  0  0  0
  -24.7080  -15.8950   20.4480 H   0  0  0  0  0  0  0  0  0  0  0  0
  -26.2870  -15.6980   19.8840 H   0  0  0  0  0  0  0  0  0  0  0  0
  -28.1560  -25.1020   20.4120 C   0  0  0  0  0  3  0  0  0  0  0  0
  -29.0080  -24.0510   20.1330 C   0  0  0  0  0  0  0  0  0  0  0  0
  -30.1880  -24.3110   19.5520 O   0  0  0  0  0  0  0  0  0  0  0  0
  -30.2320  -25.2510   19.4290 H   0  0  0  0  0  0  0  0  0  0  0  0
  -28.3630  -26.4830   20.1580 O   0  0  0  0  0  0  0  0  0  0  0  0
  -24.6100  -31.8780   23.2150 C   0  0  0  0  0  0  0  0  0  0  0  0
  -27.2520  -27.3450   20.1410 C   0  0  0  0  0  0  0  0  0  0  0  0
  -23.4150  -30.4810   21.5670 C   0  0  0  0  0  3  0  0  0  0  0  0
  -24.8780  -28.9460   20.1330 C   0  0  0  0  0  0  0  0  0  0  0  0
  -25.9530  -30.8140   21.3880 C   0  0  0  0  0  2  0  0  0  0  0  0
  -26.0420  -29.4380   20.7360 C   0  0  0  0  0  0  0  0  0  0  0  0
  -27.2330  -28.6480   20.7340 C   0  0  0  0  0  3  0  0  0  0  0  0
  -26.0670  -26.9140   19.5040 C   0  0  0  0  0  3  0  0  0  0  0  0
  -24.8920  -27.6890   19.5070 C   0  0  0  0  0  3  0  0  0  0  0  0
  -23.6350  -29.8130   20.1840 C   0  0  0  0  0  2  0  0  0  0  0  0
  -24.6780  -31.0750   22.1140 N   0  0  0  0  0  0  0  0  0  0  0  0
  -23.5240  -32.1470   23.7510 O   0  0  0  0  0  0  0  0  0  0  0  0
  -22.7570  -29.4560   22.5220 C   0  0  0  0  0  0  0  0  0  0  0  0
  -21.4320  -29.2770   22.3970 N   0  0  0  0  0  0  0  0  0  0  0  0
  -23.4400  -28.8260   23.3340 O   0  0  0  0  0  0  0  0  0  0  0  0
  -20.9400  -29.8360   21.7150 H   0  0  0  0  0  0  0  0  0  0  0  0
  -18.0540  -28.0910   22.9180 C   0  0  0  0  0  0  0  0  0  0  0  0
  -20.6160  -28.3330   23.1640 C   0  0  0  0  0  3  0  0  0  0  0  0
  -20.7040  -26.9090   22.5660 C   0  0  0  0  0  2  0  0  0  0  0  0
  -19.5890  -26.6070   21.5600 C   0  0  0  0  0  2  0  0  0  0  0  0
  -18.2150  -26.7500   22.2210 C   0  0  0  0  0  2  0  0  0  0  0  0
  -19.1810  -28.8410   23.3470 C   0  0  0  0  0  0  0  0  0  0  0  0
  -18.9740  -30.0960   23.9600 C   0  0  0  0  0  3  0  0  0  0  0  0
  -17.6740  -30.6010   24.1470 C   0  0  0  0  0  3  0  0  0  0  0  0
  -16.5610  -29.8480   23.7350 C   0  0  0  0  0  3  0  0  0  0  0  0
  -16.7520  -28.5950   23.1260 C   0  0  0  0  0  3  0  0  0  0  0  0
  -25.8890  -32.5150   23.8420 C   0  0  0  0  0  3  0  0  0  0  0  0
  -26.4050  -31.7420   25.1180 C   0  0  1  0  0  0  0  0  0  0  0  0
  -25.3090  -31.4910   26.1780 C   0  0  0  0  0  1  0  0  0  0  0  0
  -27.0020  -30.3710   24.7240 C   0  0  0  0  0  1  0  0  0  0  0  0
  -27.5470  -32.5430   25.7880 C   0  0  0  0  0  1  0  0  0  0  0  0
  -25.5720  -33.9110   24.1760 N   0  0  0  0  0  0  0  0  0  0  0  0
  -25.8910  -34.9660   23.4160 C   0  0  0  0  0  0  0  0  0  0  0  0
  -26.5520  -34.8690   22.3790 O   0  0  0  0  0  0  0  0  0  0  0  0
  -24.9830  -34.0600   24.9820 H   0  0  0  0  0  0  0  0  0  0  0  0
  -24.1500  -36.7510   23.0800 C   0  0  0  0  0  1  0  0  0  0  0  0
  -25.4000  -36.3520   23.8800 C   0  0  0  0  0  3  0  0  0  0  0  0
  -27.5320  -37.2520   24.7000 C   0  0  0  0  0  1  0  0  0  0  0  0
  -26.4250  -37.4110   23.7610 N   0  0  0  0  0  0  0  0  0  0  0  0
  -26.0140  -38.3290   23.9080 H   0  0  0  0  0  0  0  0  0  0  0  0
  1  3  2  0
  2  9  1  0
  2  1  1  0
  4  2  1  0
  5  7  2  0
  5  9  1  0
  6  8  1  0
  7 10  1  0
  9  6  2  0
 10 19  1  0
 10  8  2  0
 11 19  1  0
 12 17  1  0
 13 14  1  0
 13 12  1  0
 15 14  1  0
 15 24  1  0
 15 16  1  0
 17 11  1  0
 17 16  1  0
 18 11  2  0
 19 20  1  0
 21 22  2  0
 22 41  1  0
 23 22  1  0
 23 26  1  0
 24 25  1  0
 24 21  1  0
 25 23  2  0
 26 27  1  0
 27 28  2  0
 29 32  1  0
 29 28  1  0
 30 29  2  0
 31 30  1  0
 31 26  2  0
 32 33  1  0
 33 38  2  0
 33 34  1  0
 34 35  2  0
 35 36  1  0
 36 40  1  0
 37 36  2  0
 38 37  1  0
 39 38  1  0
 41 42  1  0
 42 45  1  0
 42 44  1  0
 43 41  2  0
 46 21  1  0
 46 47  1  0
 48 46  1  0
 50 49  2  0
 50  1  1  0
 51 50  1  0
 52 51  1  0
 53 49  1  0
 54 65  2  0
 55 53  1  0
 55 60  1  0
 56 64  1  0
 56 66  1  0
 57 63  1  0
 57 59  1  0
 58 64  1  0
 59 58  1  0
 60 59  2  0
 61 62  1  0
 61 55  2  0
 62 57  2  0
 63 56  1  0
 64 54  1  0
 66 68  2  0
 67 66  1  0
 69 67  1  0
 70 79  2  0
 70 75  1  0
 71 67  1  0
 71 75  1  0
 72 71  1  0
 73 74  1  0
 73 72  1  0
 74 70  1  0
 75 76  2  0
 76 77  1  0
 78 77  2  0
 79 78  1  0
 80 54  1  0
 80 85  1  0
 80 81  1  0
 81 84  1  1
 81 82  1  0
 83 81  1  0
 85 88  1  0
 86 90  1  0
 86 85  1  0
 87 86  2  0
 90 89  1  0
 92 90  1  0
 92 93  1  0
 92 91  1  0
M  ISO  4  11 100  19 100  49 101  53 101
M  END
>  <TORSDO>  (65) 
F 19

>  <SCORE>  (65) 
-14.081

>  <name>  (65) 
64

>  <ligand_id>  (65) 
64

>  <original_smiles>  (65) 
[H]OC(C(=O)N([H])c1c([H])c([H])c(N([H])C(=O)N2C([H])([H])C([H])([H])C([H])([H])C([H])(n3nc(-c4c([H])c([H])c(Oc5c([H])c([H])c(F)c([H])c5F)c([H])c4[H])c(C(=O)N([H])[H])c3N([H])[H])C2([H])[H])c([H])c1[H])=C([H])Oc1c([H])c([H])c2c(c1[H])C([H])([H])N(C(=O)C([H])(N([H])C(=O)C([H])(N([H])C([H])([H])[H])C([H])([H])[H])C(C([H])([H])[H])(C([H])([H])[H])C([H])([H])[H])C([H])(C(=O)N([H])C1([H])c3c([H])c([H])c([H])c([H])c3C([H])([H])C([H])([H])C1([H])[H])C2([H])[H]

>  <smiles>  (65) 
[H]OC(C(=O)N([H])c1c([H])c([H])c(N([H])C(=O)N2C([H])([H])C([H])([H])C([H])([H])C([H])(n3nc(-c4c([H])c([H])c(Oc5c([H])c([H])c(F)c([H])c5F)c([H])c4[H])c(C(=O)N([H])[H])c3N([H])[H])C2([H])[H])c([H])c1[H])=C([H])Oc1c([H])c([H])c2c(c1[H])C([H])([H])N(C(=O)C([H])(N([H])C(=O)C([H])(N([H])C([H])([H])[H])C([H])([H])[H])C(C([H])([H])[H])(C([H])([H])[H])C([H])([H])[H])C([H])(C(=O)N([H])C1([H])c3c([H])c([H])c([H])c([H])c3C([H])([H])C([H])([H])C1([H])[H])C2([H])[H]

$$$$
65:0:0
     RDKit          3D

 94103  0  0  1  0  0  0  0  0999 V2000
  -29.3060  -24.0200   20.3000 C   0  0  0  0  0  0  0  0  0  0  0  0
  -30.4990  -24.0980   19.6970 C   0  0  0  0  0  0  0  0  0  0  0  0
  -29.1440  -22.6010   20.7060 C   0  0  0  0  0  0  0  0  0  0  0  0
  -31.1930  -22.7520   19.6510 C   0  0  0  0  0  2  0  0  0  0  0  0
  -31.1370  -25.2970   19.0210 C   0  0  0  0  0  1  0  0  0  0  0  0
  -30.2380  -21.8600   20.3170 N   0  0  0  0  0  0  0  0  0  0  0  0
  -28.1650  -22.1360   21.2970 O   0  0  0  0  0  0  0  0  0  0  0  0
  -30.1220  -19.6370   21.5510 C   0  0  0  0  0  3  0  0  0  0  0  0
  -30.9330  -19.6400   19.2910 C   0  0  0  0  0  3  0  0  0  0  0  0
  -30.1990  -18.2120   21.5700 C   0  0  0  0  0  3  0  0  0  0  0  0
  -30.9740  -18.2100   19.2970 C   0  0  0  0  0  3  0  0  0  0  0  0
  -30.4310  -20.3970   20.3910 C   0  0  0  0  0  0  0  0  0  0  0  0
  -30.5430  -17.4480   20.4170 C   0  0  0  0  0  0  0  0  0  0  0  0
  -30.6680  -14.8750   20.0530 C   0  0  0  0  0  0  0  0  0  0  0  0
  -30.4050  -12.6030   19.0050 C   0  0  0  0  0  2  0  0  0  0  0  0
  -29.3820  -12.5980   17.8470 C   0  0  0  0  0  2  0  0  0  0  0  0
  -27.9530  -12.3470   18.3730 C   0  0  0  0  0  2  0  0  0  0  0  0
  -27.6200  -13.2380   19.5890 C   0  0  0  0  0  3  0  0  0  0  0  0
  -28.7640  -13.2170   20.6440 C   0  0  0  0  0  2  0  0  0  0  0  0
  -29.9980  -13.6580   19.9670 N   0  0  0  0  0  0  0  0  0  0  0  0
  -31.8630  -14.8980   19.7460 O   0  0  0  0  0  0  0  0  0  0  0  0
  -29.9850  -16.0940   20.2570 N   0  0  0  0  0  0  0  0  0  0  0  0
  -25.2920  -13.8830   20.4810 C   0  0  0  0  0  0  0  0  0  0  0  0
  -24.2400  -13.1180   20.8980 C   0  0  0  0  0  0  0  0  0  0  0  0
  -24.6840  -11.7650   20.8070 C   0  0  0  0  0  0  0  0  0  0  0  0
  -26.3080  -12.9890   20.1640 N   0  0  0  0  0  0  0  0  0  0  0  0
  -25.9520  -11.7110   20.4250 N   0  0  0  0  0  0  0  0  0  0  0  0
  -23.9590  -10.5090   20.9970 C   0  0  0  0  0  0  0  0  0  0  0  0
  -24.4160   -9.5300   21.9060 C   0  0  0  0  0  3  0  0  0  0  0  0
  -23.6940   -8.3330   22.0840 C   0  0  0  0  0  3  0  0  0  0  0  0
  -22.5030   -8.1080   21.3550 C   0  0  0  0  0  0  0  0  0  0  0  0
  -22.0660   -9.0760   20.4330 C   0  0  0  0  0  3  0  0  0  0  0  0
  -22.7900  -10.2660   20.2510 C   0  0  0  0  0  3  0  0  0  0  0  0
  -21.7470   -6.9650   21.4490 O   0  0  0  0  0  0  0  0  0  0  0  0
  -21.6930   -6.2340   22.6080 C   0  0  0  0  0  0  0  0  0  0  0  0
  -21.2380   -6.7950   23.8220 C   0  0  0  0  0  3  0  0  0  0  0  0
  -21.1310   -5.9890   24.9720 C   0  0  0  0  0  3  0  0  0  0  0  0
  -21.4710   -4.6240   24.9100 C   0  0  0  0  0  0  0  0  0  0  0  0
  -21.9210   -4.0640   23.7010 C   0  0  0  0  0  3  0  0  0  0  0  0
  -22.0290   -4.8670   22.5520 C   0  0  0  0  0  0  0  0  0  0  0  0
  -22.4440   -4.3180   21.3850 F   0  0  0  0  0  0  0  0  0  0  0  0
  -21.3590   -3.8460   26.0120 F   0  0  0  0  0  0  0  0  0  0  0  0
  -22.8660  -13.6040   21.2590 C   0  0  0  0  0  0  0  0  0  0  0  0
  -22.1810  -12.8970   22.1510 N   0  0  0  0  0  0  0  0  0  0  0  0
  -22.4110  -14.6450   20.7860 O   0  0  0  0  0  0  0  0  0  0  0  0
  -22.5620  -12.0550   22.5550 H   0  0  0  0  0  0  0  0  0  0  0  0
  -21.2630  -13.2070   22.4350 H   0  0  0  0  0  0  0  0  0  0  0  0
  -25.4400  -15.2580   20.3220 N   0  0  0  0  0  0  0  0  0  0  0  0
  -24.6850  -15.9070   20.5110 H   0  0  0  0  0  0  0  0  0  0  0  0
  -26.2660  -15.7060   19.9480 H   0  0  0  0  0  0  0  0  0  0  0  0
  -28.2320  -16.5680   18.5250 C   0  0  0  0  0  1  0  0  0  0  0  0
  -28.5450  -16.2940   20.0150 C   0  0  0  0  0  2  0  0  0  0  0  0
  -28.1600  -25.0890   20.4480 C   0  0  0  0  0  2  0  0  0  0  0  0
  -28.4000  -26.5430   20.2520 O   0  0  0  0  0  0  0  0  0  0  0  0
  -24.6250  -31.9270   23.2600 C   0  0  0  0  0  0  0  0  0  0  0  0
  -27.2630  -27.3770   20.2160 C   0  0  0  0  0  0  0  0  0  0  0  0
  -23.4190  -30.5100   21.6390 C   0  0  0  0  0  3  0  0  0  0  0  0
  -24.8740  -28.9630   20.2140 C   0  0  0  0  0  0  0  0  0  0  0  0
  -25.9540  -30.8480   21.4340 C   0  0  0  0  0  2  0  0  0  0  0  0
  -26.0430  -29.4660   20.7980 C   0  0  0  0  0  0  0  0  0  0  0  0
  -27.2390  -28.6860   20.7880 C   0  0  0  0  0  3  0  0  0  0  0  0
  -26.0660  -26.9310   19.6030 C   0  0  0  0  0  3  0  0  0  0  0  0
  -24.8880  -27.6990   19.6080 C   0  0  0  0  0  3  0  0  0  0  0  0
  -23.6280  -29.8250   20.2630 C   0  0  0  0  0  2  0  0  0  0  0  0
  -24.6850  -31.1120   22.1670 N   0  0  0  0  0  0  0  0  0  0  0  0
  -23.5450  -32.2020   23.8020 O   0  0  0  0  0  0  0  0  0  0  0  0
  -22.7700  -29.4950   22.6110 C   0  0  0  0  0  0  0  0  0  0  0  0
  -21.4460  -29.2990   22.4860 N   0  0  0  0  0  0  0  0  0  0  0  0
  -23.4570  -28.8870   23.4370 O   0  0  0  0  0  0  0  0  0  0  0  0
  -20.9500  -29.8420   21.7950 H   0  0  0  0  0  0  0  0  0  0  0  0
  -18.0850  -28.0590   22.9950 C   0  0  0  0  0  0  0  0  0  0  0  0
  -20.6400  -28.3610   23.2690 C   0  0  0  0  0  3  0  0  0  0  0  0
  -20.7640  -26.9230   22.7160 C   0  0  0  0  0  2  0  0  0  0  0  0
  -19.6710  -26.5670   21.7040 C   0  0  0  0  0  2  0  0  0  0  0  0
  -18.2850  -26.7020   22.3400 C   0  0  0  0  0  2  0  0  0  0  0  0
  -19.1920  -28.8440   23.4170 C   0  0  0  0  0  0  0  0  0  0  0  0
  -18.9510  -30.1120   23.9880 C   0  0  0  0  0  3  0  0  0  0  0  0
  -17.6380  -30.5960   24.1430 C   0  0  0  0  0  3  0  0  0  0  0  0
  -16.5470  -29.8080   23.7370 C   0  0  0  0  0  3  0  0  0  0  0  0
  -16.7720  -28.5420   23.1690 C   0  0  0  0  0  3  0  0  0  0  0  0
  -25.9100  -32.5710   23.8690 C   0  0  0  0  0  3  0  0  0  0  0  0
  -26.4490  -31.8040   25.1370 C   0  0  1  0  0  0  0  0  0  0  0  0
  -25.3690  -31.5560   26.2170 C   0  0  0  0  0  1  0  0  0  0  0  0
  -27.0410  -30.4320   24.7400 C   0  0  0  0  0  1  0  0  0  0  0  0
  -27.5980  -32.6090   25.7870 C   0  0  0  0  0  1  0  0  0  0  0  0
  -25.5920  -33.9660   24.2030 N   0  0  0  0  0  0  0  0  0  0  0  0
  -25.8930  -35.0220   23.4350 C   0  0  0  0  0  0  0  0  0  0  0  0
  -26.5380  -34.9250   22.3880 O   0  0  0  0  0  0  0  0  0  0  0  0
  -25.0160  -34.1160   25.0180 H   0  0  0  0  0  0  0  0  0  0  0  0
  -24.1320  -36.7910   23.1240 C   0  0  0  0  0  1  0  0  0  0  0  0
  -25.4000  -36.4050   23.9020 C   0  0  0  0  0  3  0  0  0  0  0  0
  -27.5430  -37.3220   24.6740 C   0  0  0  0  0  1  0  0  0  0  0  0
  -26.4150  -37.4710   23.7590 N   0  0  0  0  0  0  0  0  0  0  0  0
  -26.0010  -38.3860   23.9130 H   0  0  0  0  0  0  0  0  0  0  0  0
  1 53  1  0
  1  3  1  0
  2  1  2  0
  3  7  2  0
  4  2  1  0
  4  6  1  0
  5  2  1  0
  6 12  1  0
  6  3  1  0
  8 10  1  0
  9 11  2  0
  9 12  1  0
 11 13  1  0
 12  8  2  0
 13 10  2  0
 14 22  1  0
 15 20  1  0
 16 17  1  0
 16 15  1  0
 18 17  1  0
 18 26  1  0
 18 19  1  0
 20 14  1  0
 20 19  1  0
 21 14  2  0
 22 13  1  0
 23 24  2  0
 24 43  1  0
 25 24  1  0
 25 28  1  0
 26 27  1  0
 26 23  1  0
 27 25  2  0
 28 29  1  0
 29 30  2  0
 31 34  1  0
 31 30  1  0
 32 31  2  0
 33 32  1  0
 33 28  2  0
 34 35  1  0
 35 36  1  0
 36 37  2  0
 38 37  1  0
 38 42  1  0
 39 38  2  0
 40 35  2  0
 40 39  1  0
 41 40  1  0
 43 44  1  0
 44 47  1  0
 44 46  1  0
 45 43  2  0
 48 23  1  0
 48 49  1  0
 50 48  1  0
 51 52  1  0
 52 22  1  0
 54 53  1  0
 55 66  2  0
 56 54  1  0
 56 61  1  0
 57 65  1  0
 57 67  1  0
 58 64  1  0
 58 60  1  0
 59 65  1  0
 60 59  1  0
 61 60  2  0
 62 63  1  0
 62 56  2  0
 63 58  2  0
 64 57  1  0
 65 55  1  0
 67 69  2  0
 68 67  1  0
 70 68  1  0
 71 80  2  0
 71 76  1  0
 72 68  1  0
 72 76  1  0
 73 72  1  0
 74 75  1  0
 74 73  1  0
 75 71  1  0
 76 77  2  0
 77 78  1  0
 79 78  2  0
 80 79  1  0
 81 55  1  0
 81 86  1  0
 81 82  1  0
 82 85  1  1
 82 83  1  0
 84 82  1  0
 86 89  1  0
 87 91  1  0
 87 86  1  0
 88 87  2  0
 91 90  1  0
 93 91  1  0
 93 94  1  0
 93 92  1  0
M  ISO  4  14 100  22 100  53 101  54 101
M  END
>  <TORSDO>  (66) 
F 19

>  <SCORE>  (66) 
-14.015

>  <name>  (66) 
65

>  <ligand_id>  (66) 
65

>  <original_smiles>  (66) 
[H]c1c([H])c([H])c2c(c1[H])C([H])([H])C([H])([H])C([H])([H])C2([H])N([H])C(=O)C1([H])N(C(=O)C([H])(N([H])C(=O)C([H])(N([H])C([H])([H])[H])C([H])([H])[H])C(C([H])([H])[H])(C([H])([H])[H])C([H])([H])[H])C([H])([H])c2c([H])c(OC([H])([H])C3=C(C([H])([H])[H])C([H])([H])N(c4c([H])c([H])c(N(C(=O)N5C([H])([H])C([H])([H])C([H])([H])C([H])(n6nc(-c7c([H])c([H])c(Oc8c([H])c([H])c(F)c([H])c8F)c([H])c7[H])c(C(=O)N([H])[H])c6N([H])[H])C5([H])[H])C([H])([H])C([H])([H])[H])c([H])c4[H])C3=O)c([H])c([H])c2C1([H])[H]

>  <smiles>  (66) 
[H]c1c([H])c([H])c2c(c1[H])C([H])([H])C([H])([H])C([H])([H])C2([H])N([H])C(=O)C1([H])N(C(=O)C([H])(N([H])C(=O)C([H])(N([H])C([H])([H])[H])C([H])([H])[H])C(C([H])([H])[H])(C([H])([H])[H])C([H])([H])[H])C([H])([H])c2c([H])c(OC([H])([H])C3=C(C([H])([H])[H])C([H])([H])N(c4c([H])c([H])c(N(C(=O)N5C([H])([H])C([H])([H])C([H])([H])C([H])(n6nc(-c7c([H])c([H])c(Oc8c([H])c([H])c(F)c([H])c8F)c([H])c7[H])c(C(=O)N([H])[H])c6N([H])[H])C5([H])[H])C([H])([H])C([H])([H])[H])c([H])c4[H])C3=O)c([H])c([H])c2C1([H])[H]

$$$$
66:0:0
     RDKit          3D

 96106  0  0  1  0  0  0  0  0999 V2000
  -26.9160  -19.1340   17.5370 C   0  0  0  0  0  3  0  0  0  0  0  0
  -26.8300  -20.4930   17.8640 C   0  0  0  0  0  3  0  0  0  0  0  0
  -27.7820  -18.2970   18.2550 C   0  0  0  0  0  3  0  0  0  0  0  0
  -28.5380  -20.1930   19.5870 C   0  0  0  0  0  3  0  0  0  0  0  0
  -27.6380  -21.0380   18.8840 C   0  0  0  0  0  0  0  0  0  0  0  0
  -28.6060  -18.7960   19.3010 C   0  0  0  0  0  0  0  0  0  0  0  0
  -28.3000  -23.3670   19.6460 C   0  0  0  0  0  3  0  0  0  0  0  0
  -27.7320  -24.2900   20.4430 C   0  0  0  0  0  0  0  0  0  0  0  0
  -26.3820  -23.8310   20.6940 C   0  0  0  0  0  0  0  0  0  0  0  0
  -25.4990  -24.3600   21.5560 C   0  0  0  0  0  1  0  0  0  0  0  0
  -26.1110  -22.6180   19.8390 C   0  0  0  0  0  3  0  0  0  0  0  0
  -27.4120  -22.3820   19.2260 N   0  0  0  0  0  0  0  0  0  0  0  0
  -28.4120  -25.5310   21.0360 C   0  0  0  0  0  2  0  0  0  0  0  0
  -28.4520  -26.6850   20.1720 O   0  0  0  0  0  0  0  0  0  0  0  0
  -24.6040  -31.8440   23.2540 C   0  0  0  0  0  0  0  0  0  0  0  0
  -27.3070  -27.4500   20.1560 C   0  0  0  0  0  0  0  0  0  0  0  0
  -23.4350  -30.4700   21.5610 C   0  0  0  0  0  3  0  0  0  0  0  0
  -24.9210  -28.9620   20.1380 C   0  0  0  0  0  0  0  0  0  0  0  0
  -25.9660  -30.8290   21.4300 C   0  0  0  0  0  2  0  0  0  0  0  0
  -26.0650  -29.4700   20.7700 C   0  0  0  0  0  0  0  0  0  0  0  0
  -27.2630  -28.7170   20.7800 C   0  0  0  0  0  3  0  0  0  0  0  0
  -26.1620  -26.9800   19.4830 C   0  0  0  0  0  3  0  0  0  0  0  0
  -24.9650  -27.7170   19.4890 C   0  0  0  0  0  3  0  0  0  0  0  0
  -23.6740  -29.8160   20.1750 C   0  0  0  0  0  2  0  0  0  0  0  0
  -24.6860  -31.0600   22.1410 N   0  0  0  0  0  0  0  0  0  0  0  0
  -23.5120  -32.1090   23.7730 O   0  0  0  0  0  0  0  0  0  0  0  0
  -22.7630  -29.4310   22.4880 C   0  0  0  0  0  0  0  0  0  0  0  0
  -21.4380  -29.2710   22.3450 N   0  0  0  0  0  0  0  0  0  0  0  0
  -23.4320  -28.7760   23.2920 O   0  0  0  0  0  0  0  0  0  0  0  0
  -20.9630  -29.8480   21.6640 H   0  0  0  0  0  0  0  0  0  0  0  0
  -18.0350  -28.1610   22.8360 C   0  0  0  0  0  0  0  0  0  0  0  0
  -20.6030  -28.3250   23.0840 C   0  0  0  0  0  3  0  0  0  0  0  0
  -20.6520  -26.9190   22.4420 C   0  0  0  0  0  2  0  0  0  0  0  0
  -19.5280  -26.6770   21.4300 C   0  0  0  0  0  2  0  0  0  0  0  0
  -18.1600  -26.8380   22.0980 C   0  0  0  0  0  2  0  0  0  0  0  0
  -19.1830  -28.8660   23.2850 C   0  0  0  0  0  0  0  0  0  0  0  0
  -19.0130  -30.1090   23.9330 C   0  0  0  0  0  3  0  0  0  0  0  0
  -17.7290  -30.6460   24.1360 C   0  0  0  0  0  3  0  0  0  0  0  0
  -16.5950  -29.9370   23.7040 C   0  0  0  0  0  3  0  0  0  0  0  0
  -16.7480  -28.6950   23.0600 C   0  0  0  0  0  3  0  0  0  0  0  0
  -25.8760  -32.4630   23.9110 C   0  0  0  0  0  3  0  0  0  0  0  0
  -26.3410  -31.6950   25.2080 C   0  0  1  0  0  0  0  0  0  0  0  0
  -25.2100  -31.4780   26.2400 C   0  0  0  0  0  1  0  0  0  0  0  0
  -26.9200  -30.3090   24.8440 C   0  0  0  0  0  1  0  0  0  0  0  0
  -27.4780  -32.4810   25.9030 C   0  0  0  0  0  1  0  0  0  0  0  0
  -25.5760  -33.8680   24.2160 N   0  0  0  0  0  0  0  0  0  0  0  0
  -25.9370  -34.9060   23.4510 C   0  0  0  0  0  0  0  0  0  0  0  0
  -26.6290  -34.7820   22.4360 O   0  0  0  0  0  0  0  0  0  0  0  0
  -24.9640  -34.0400   25.0010 H   0  0  0  0  0  0  0  0  0  0  0  0
  -24.2360  -36.7100   23.0310 C   0  0  0  0  0  1  0  0  0  0  0  0
  -25.4530  -36.3050   23.8780 C   0  0  0  0  0  3  0  0  0  0  0  0
  -27.5680  -37.1870   24.7590 C   0  0  0  0  0  1  0  0  0  0  0  0
  -26.4990  -37.3460   23.7770 N   0  0  0  0  0  0  0  0  0  0  0  0
  -26.0980  -38.2730   23.8900 H   0  0  0  0  0  0  0  0  0  0  0  0
  -30.9970  -16.7870   21.2890 C   0  0  0  0  0  2  0  0  0  0  0  0
  -30.3760  -15.8100   20.6210 C   0  0  0  0  0  3  0  0  0  0  0  0
  -30.3720  -18.0640   20.9880 C   0  0  0  0  0  0  0  0  0  0  0  0
  -29.2910  -16.4150   19.7890 C   0  0  0  0  0  2  0  0  0  0  0  0
  -29.4370  -17.8530   20.0220 N   0  0  0  0  0  0  0  0  0  0  0  0
  -30.6660  -19.1450   21.5020 O   0  0  0  0  0  0  0  0  0  0  0  0
  -31.0630  -14.5770   20.2450 C   0  0  0  0  0  0  0  0  0  0  0  0
  -30.6500  -12.4390   19.1000 C   0  0  0  0  0  2  0  0  0  0  0  0
  -29.6750  -12.6420   17.9230 C   0  0  0  0  0  2  0  0  0  0  0  0
  -28.2190  -12.4750   18.3900 C   0  0  0  0  0  2  0  0  0  0  0  0
  -27.9070  -13.3320   19.6390 C   0  0  0  0  0  3  0  0  0  0  0  0
  -29.0000  -13.1840   20.7290 C   0  0  0  0  0  2  0  0  0  0  0  0
  -30.3170  -13.4410   20.1260 N   0  0  0  0  0  0  0  0  0  0  0  0
  -32.2210  -14.6400   19.8280 O   0  0  0  0  0  0  0  0  0  0  0  0
  -25.5430  -13.9720   20.4280 C   0  0  0  0  0  0  0  0  0  0  0  0
  -24.4760  -13.2110   20.8140 C   0  0  0  0  0  0  0  0  0  0  0  0
  -24.9200  -11.8550   20.7670 C   0  0  0  0  0  0  0  0  0  0  0  0
  -26.5700  -13.0770   20.1610 N   0  0  0  0  0  0  0  0  0  0  0  0
  -26.2010  -11.8000   20.4300 N   0  0  0  0  0  0  0  0  0  0  0  0
  -24.1880  -10.5980   20.9600 C   0  0  0  0  0  0  0  0  0  0  0  0
  -24.6070   -9.6360   21.9040 C   0  0  0  0  0  3  0  0  0  0  0  0
  -23.8770   -8.4430   22.0830 C   0  0  0  0  0  3  0  0  0  0  0  0
  -22.7110   -8.2050   21.3190 C   0  0  0  0  0  0  0  0  0  0  0  0
  -22.3110   -9.1540   20.3620 C   0  0  0  0  0  3  0  0  0  0  0  0
  -23.0450  -10.3380   20.1800 C   0  0  0  0  0  3  0  0  0  0  0  0
  -21.9520   -7.0610   21.4050 O   0  0  0  0  0  0  0  0  0  0  0  0
  -21.8470   -6.3570   22.5770 C   0  0  0  0  0  0  0  0  0  0  0  0
  -21.3340   -6.9410   23.7560 C   0  0  0  0  0  3  0  0  0  0  0  0
  -21.1800   -6.1620   24.9190 C   0  0  0  0  0  3  0  0  0  0  0  0
  -21.5300   -4.7980   24.9030 C   0  0  0  0  0  0  0  0  0  0  0  0
  -22.0390   -4.2140   23.7290 C   0  0  0  0  0  3  0  0  0  0  0  0
  -22.1940   -4.9910   22.5680 C   0  0  0  0  0  0  0  0  0  0  0  0
  -22.6650   -4.4190   21.4350 F   0  0  0  0  0  0  0  0  0  0  0  0
  -21.3750   -4.0460   26.0180 F   0  0  0  0  0  0  0  0  0  0  0  0
  -23.0870  -13.6990   21.1150 C   0  0  0  0  0  0  0  0  0  0  0  0
  -22.3700  -13.0070   21.9940 N   0  0  0  0  0  0  0  0  0  0  0  0
  -22.6460  -14.7290   20.6060 O   0  0  0  0  0  0  0  0  0  0  0  0
  -22.7340  -12.1730   22.4290 H   0  0  0  0  0  0  0  0  0  0  0  0
  -21.4400  -13.3150   22.2360 H   0  0  0  0  0  0  0  0  0  0  0  0
  -25.7140  -15.3410   20.2580 N   0  0  0  0  0  0  0  0  0  0  0  0
  -24.9470  -15.9950   20.3790 H   0  0  0  0  0  0  0  0  0  0  0  0
  -26.5460  -15.7760   19.8850 H   0  0  0  0  0  0  0  0  0  0  0  0
  1  2  2  0
  1  3  1  0
  2  5  1  0
  3  6  2  0
  5 12  1  0
  5  4  2  0
  6  4  1  0
  6 59  1  0
  7  8  2  0
  8  9  1  0
  8 13  1  0
  9 10  1  0
 11  9  2  0
 12  7  1  0
 12 11  1  0
 14 13  1  0
 15 26  2  0
 16 14  1  0
 16 21  1  0
 17 25  1  0
 17 27  1  0
 18 24  1  0
 18 20  1  0
 19 25  1  0
 20 21  2  0
 20 19  1  0
 22 23  1  0
 22 16  2  0
 23 18  2  0
 24 17  1  0
 25 15  1  0
 27 29  2  0
 28 27  1  0
 30 28  1  0
 31 40  2  0
 31 36  1  0
 32 28  1  0
 32 36  1  0
 33 32  1  0
 34 35  1  0
 34 33  1  0
 35 31  1  0
 36 37  2  0
 37 38  1  0
 39 38  2  0
 40 39  1  0
 41 15  1  0
 41 46  1  0
 41 42  1  0
 42 45  1  1
 42 43  1  0
 44 42  1  0
 46 49  1  0
 47 51  1  0
 47 46  1  0
 48 47  2  0
 51 50  1  0
 53 51  1  0
 53 54  1  0
 53 52  1  0
 56 61  1  0
 56 55  1  0
 57 55  1  0
 57 60  2  0
 58 59  1  0
 58 56  1  0
 59 57  1  0
 62 67  1  0
 63 64  1  0
 63 62  1  0
 65 64  1  0
 65 72  1  0
 65 66  1  0
 67 61  1  0
 67 66  1  0
 68 61  2  0
 69 70  2  0
 70 89  1  0
 71 70  1  0
 71 74  1  0
 72 69  1  0
 72 73  1  0
 73 71  2  0
 74 75  1  0
 75 76  2  0
 77 80  1  0
 77 76  1  0
 78 77  2  0
 79 78  1  0
 79 74  2  0
 80 81  1  0
 81 82  1  0
 82 83  2  0
 84 83  1  0
 84 88  1  0
 85 84  2  0
 86 81  2  0
 86 85  1  0
 87 86  1  0
 89 90  1  0
 90 93  1  0
 90 92  1  0
 91 89  2  0
 94 95  1  0
 94 69  1  0
 96 94  1  0
M  ISO  4  13 101  14 101  56 100  61 100
M  END
>  <TORSDO>  (67) 
F 19

>  <SCORE>  (67) 
-14.463

>  <name>  (67) 
66

>  <ligand_id>  (67) 
66

>  <original_smiles>  (67) 
[H]C([H])=C1C(C([H])([H])Oc2c([H])c([H])c3c(c2[H])C([H])([H])N(C(=O)C([H])(N([H])C(=O)C([H])(N([H])C([H])([H])[H])C([H])([H])[H])C(C([H])([H])[H])(C([H])([H])[H])C([H])([H])[H])C([H])(C(=O)N([H])C2([H])c4c([H])c([H])c([H])c([H])c4C([H])([H])C([H])([H])C2([H])[H])C3([H])[H])=C([H])N(c2c([H])c([H])c([H])c(N3C(=O)C([H])=C(C(=O)N4C([H])([H])C([H])([H])C([H])([H])C([H])(n5nc(-c6c([H])c([H])c(Oc7c([H])c([H])c(F)c([H])c7F)c([H])c6[H])c(C(=O)N([H])[H])c5N([H])[H])C4([H])[H])C3([H])[H])c2[H])C1([H])[H]

>  <smiles>  (67) 
[H]C([H])=C1C(C([H])([H])Oc2c([H])c([H])c3c(c2[H])C([H])([H])N(C(=O)C([H])(N([H])C(=O)C([H])(N([H])C([H])([H])[H])C([H])([H])[H])C(C([H])([H])[H])(C([H])([H])[H])C([H])([H])[H])C([H])(C(=O)N([H])C2([H])c4c([H])c([H])c([H])c([H])c4C([H])([H])C([H])([H])C2([H])[H])C3([H])[H])=C([H])N(c2c([H])c([H])c([H])c(N3C(=O)C([H])=C(C(=O)N4C([H])([H])C([H])([H])C([H])([H])C([H])(n5nc(-c6c([H])c([H])c(Oc7c([H])c([H])c(F)c([H])c7F)c([H])c6[H])c(C(=O)N([H])[H])c5N([H])[H])C4([H])[H])C3([H])[H])c2[H])C1([H])[H]

$$$$
67:0:0
     RDKit          3D

 93101  0  0  1  0  0  0  0  0999 V2000
  -29.0460  -21.6800   19.6820 C   0  0  0  0  0  0  0  0  0  0  0  0
  -29.1670  -24.0020   20.7410 C   0  0  0  0  0  0  0  0  0  0  0  0
  -29.2820  -22.6210   20.6460 N   0  0  0  0  0  0  0  0  0  0  0  0
  -28.6060  -21.9760   18.5690 O   0  0  0  0  0  0  0  0  0  0  0  0
  -29.6680  -24.5100   21.7500 O   0  0  0  0  0  0  0  0  0  0  0  0
  -29.7020  -22.2150   21.4660 H   0  0  0  0  0  0  0  0  0  0  0  0
  -28.9050  -19.4620   21.0870 C   0  0  0  0  0  3  0  0  0  0  0  0
  -30.0770  -19.3690   19.0040 C   0  0  0  0  0  3  0  0  0  0  0  0
  -29.1040  -18.0500   21.2440 C   0  0  0  0  0  3  0  0  0  0  0  0
  -30.3030  -17.9590   19.1730 C   0  0  0  0  0  3  0  0  0  0  0  0
  -29.3780  -20.1780   19.9530 C   0  0  0  0  0  0  0  0  0  0  0  0
  -29.8100  -17.2420   20.3010 C   0  0  0  0  0  0  0  0  0  0  0  0
  -30.6230  -14.7430   19.9820 C   0  0  0  0  0  0  0  0  0  0  0  0
  -30.3910  -12.4960   18.9170 C   0  0  0  0  0  2  0  0  0  0  0  0
  -29.3670  -12.6110   17.7640 C   0  0  0  0  0  2  0  0  0  0  0  0
  -27.9260  -12.4330   18.2860 C   0  0  0  0  0  2  0  0  0  0  0  0
  -27.6420  -13.2860   19.5520 C   0  0  0  0  0  3  0  0  0  0  0  0
  -28.7680  -13.1220   20.5960 C   0  0  0  0  0  2  0  0  0  0  0  0
  -30.0340  -13.4990   19.9450 N   0  0  0  0  0  0  0  0  0  0  0  0
  -31.7420  -14.9210   19.4920 O   0  0  0  0  0  0  0  0  0  0  0  0
  -29.8560  -15.7750   20.4920 N   0  0  0  0  0  0  0  0  0  0  0  0
  -29.0820  -15.4210   21.0340 H   0  0  0  0  0  0  0  0  0  0  0  0
  -25.3060  -13.8810   20.4390 C   0  0  0  0  0  0  0  0  0  0  0  0
  -24.2580  -13.1050   20.8550 C   0  0  0  0  0  0  0  0  0  0  0  0
  -24.7050  -11.7520   20.7580 C   0  0  0  0  0  0  0  0  0  0  0  0
  -26.3250  -13.0000   20.1140 N   0  0  0  0  0  0  0  0  0  0  0  0
  -25.9730  -11.7120   20.3670 N   0  0  0  0  0  0  0  0  0  0  0  0
  -23.9810  -10.4900   20.9600 C   0  0  0  0  0  0  0  0  0  0  0  0
  -24.4400   -9.5130   21.8690 C   0  0  0  0  0  3  0  0  0  0  0  0
  -23.7160   -8.3160   22.0600 C   0  0  0  0  0  3  0  0  0  0  0  0
  -22.5190   -8.0890   21.3410 C   0  0  0  0  0  0  0  0  0  0  0  0
  -22.0790   -9.0560   20.4190 C   0  0  0  0  0  3  0  0  0  0  0  0
  -22.8020  -10.2440   20.2260 C   0  0  0  0  0  3  0  0  0  0  0  0
  -21.7630   -6.9460   21.4430 O   0  0  0  0  0  0  0  0  0  0  0  0
  -21.7170   -6.2160   22.6040 C   0  0  0  0  0  0  0  0  0  0  0  0
  -21.2770   -6.7800   23.8230 C   0  0  0  0  0  3  0  0  0  0  0  0
  -21.1790   -5.9760   24.9750 C   0  0  0  0  0  3  0  0  0  0  0  0
  -21.5080   -4.6080   24.9110 C   0  0  0  0  0  0  0  0  0  0  0  0
  -21.9410   -4.0440   23.6980 C   0  0  0  0  0  3  0  0  0  0  0  0
  -22.0410   -4.8460   22.5480 C   0  0  0  0  0  0  0  0  0  0  0  0
  -22.4380   -4.2920   21.3770 F   0  0  0  0  0  0  0  0  0  0  0  0
  -21.4060   -3.8340   26.0170 F   0  0  0  0  0  0  0  0  0  0  0  0
  -22.8860  -13.5830   21.2320 C   0  0  0  0  0  0  0  0  0  0  0  0
  -22.2140  -12.8650   22.1270 N   0  0  0  0  0  0  0  0  0  0  0  0
  -22.4200  -14.6230   20.7680 O   0  0  0  0  0  0  0  0  0  0  0  0
  -22.6060  -12.0190   22.5140 H   0  0  0  0  0  0  0  0  0  0  0  0
  -21.2990  -13.1640   22.4280 H   0  0  0  0  0  0  0  0  0  0  0  0
  -25.4730  -15.2550   20.2910 N   0  0  0  0  0  0  0  0  0  0  0  0
  -24.7220  -15.9120   20.4680 H   0  0  0  0  0  0  0  0  0  0  0  0
  -26.2940  -15.6920   19.8920 H   0  0  0  0  0  0  0  0  0  0  0  0
  -29.2350  -25.1740   18.4340 C   0  0  0  0  0  1  0  0  0  0  0  0
  -28.4510  -25.0300   19.7490 C   0  0  0  0  0  3  0  0  0  0  0  0
  -28.3940  -26.4400   20.2790 O   0  0  0  0  0  0  0  0  0  0  0  0
  -24.6490  -31.8830   23.2340 C   0  0  0  0  0  0  0  0  0  0  0  0
  -27.2640  -27.2850   20.1860 C   0  0  0  0  0  0  0  0  0  0  0  0
  -23.4460  -30.4840   21.5930 C   0  0  0  0  0  3  0  0  0  0  0  0
  -24.8960  -28.9220   20.1700 C   0  0  0  0  0  0  0  0  0  0  0  0
  -25.9890  -30.7830   21.4180 C   0  0  0  0  0  2  0  0  0  0  0  0
  -26.0650  -29.4050   20.7670 C   0  0  0  0  0  0  0  0  0  0  0  0
  -27.2470  -28.5990   20.7640 C   0  0  0  0  0  3  0  0  0  0  0  0
  -26.0680  -26.8650   19.5590 C   0  0  0  0  0  3  0  0  0  0  0  0
  -24.9020  -27.6590   19.5570 C   0  0  0  0  0  3  0  0  0  0  0  0
  -23.6560  -29.7940   20.2180 C   0  0  0  0  0  2  0  0  0  0  0  0
  -24.7150  -31.0690   22.1370 N   0  0  0  0  0  0  0  0  0  0  0  0
  -23.5640  -32.1620   23.7660 O   0  0  0  0  0  0  0  0  0  0  0  0
  -22.7760  -29.4740   22.5560 C   0  0  0  0  0  0  0  0  0  0  0  0
  -21.4500  -29.2990   22.4200 N   0  0  0  0  0  0  0  0  0  0  0  0
  -23.4500  -28.8500   23.3800 O   0  0  0  0  0  0  0  0  0  0  0  0
  -20.9640  -29.8590   21.7340 H   0  0  0  0  0  0  0  0  0  0  0  0
  -18.0760  -28.0740   22.8770 C   0  0  0  0  0  0  0  0  0  0  0  0
  -20.6270  -28.3580   23.1830 C   0  0  0  0  0  3  0  0  0  0  0  0
  -20.7510  -26.9230   22.6180 C   0  0  0  0  0  2  0  0  0  0  0  0
  -19.6660  -26.5800   21.5930 C   0  0  0  0  0  2  0  0  0  0  0  0
  -18.2720  -26.7240   22.2100 C   0  0  0  0  0  2  0  0  0  0  0  0
  -19.1820  -28.8500   23.3160 C   0  0  0  0  0  0  0  0  0  0  0  0
  -18.9450  -30.1160   23.8930 C   0  0  0  0  0  3  0  0  0  0  0  0
  -17.6340  -30.6080   24.0380 C   0  0  0  0  0  3  0  0  0  0  0  0
  -16.5410  -29.8300   23.6140 C   0  0  0  0  0  3  0  0  0  0  0  0
  -16.7630  -28.5650   23.0430 C   0  0  0  0  0  3  0  0  0  0  0  0
  -25.9310  -32.5130   23.8620 C   0  0  0  0  0  3  0  0  0  0  0  0
  -25.6250  -33.9120   24.1940 N   0  0  0  0  0  0  0  0  0  0  0  0
  -25.9410  -34.9650   23.4270 C   0  0  0  0  0  0  0  0  0  0  0  0
  -26.5930  -34.8590   22.3860 O   0  0  0  0  0  0  0  0  0  0  0  0
  -25.0510  -34.0700   25.0090 H   0  0  0  0  0  0  0  0  0  0  0  0
  -24.1970  -36.7470   23.1050 C   0  0  0  0  0  1  0  0  0  0  0  0
  -25.4590  -36.3540   23.8900 C   0  0  0  0  0  3  0  0  0  0  0  0
  -27.6040  -37.2550   24.6740 C   0  0  0  0  0  1  0  0  0  0  0  0
  -26.4840  -37.4120   23.7490 N   0  0  0  0  0  0  0  0  0  0  0  0
  -26.0770  -38.3310   23.8970 H   0  0  0  0  0  0  0  0  0  0  0  0
  -26.4410  -31.7430   25.1410 C   0  0  1  0  0  0  0  0  0  0  0  0
  -25.3420  -31.5060   26.2040 C   0  0  0  0  0  1  0  0  0  0  0  0
  -27.0260  -30.3640   24.7580 C   0  0  0  0  0  1  0  0  0  0  0  0
  -27.5890  -32.5380   25.8090 C   0  0  0  0  0  1  0  0  0  0  0  0
  1 11  1  0
  1  3  1  0
  2  5  2  0
  3  2  1  0
  3  6  1  0
  4  1  2  0
  7  9  1  0
  8 10  2  0
  8 11  1  0
 10 12  1  0
 11  7  2  0
 12 21  1  0
 12  9  2  0
 13 21  1  0
 14 19  1  0
 15 16  1  0
 15 14  1  0
 17 16  1  0
 17 26  1  0
 17 18  1  0
 19 13  1  0
 19 18  1  0
 20 13  2  0
 21 22  1  0
 23 24  2  0
 24 43  1  0
 25 24  1  0
 25 28  1  0
 26 27  1  0
 26 23  1  0
 27 25  2  0
 28 29  1  0
 29 30  2  0
 31 34  1  0
 31 30  1  0
 32 31  2  0
 33 32  1  0
 33 28  2  0
 34 35  1  0
 35 36  1  0
 36 37  2  0
 38 37  1  0
 38 42  1  0
 39 38  2  0
 40 35  2  0
 40 39  1  0
 41 40  1  0
 43 44  1  0
 44 47  1  0
 44 46  1  0
 45 43  2  0
 48 23  1  0
 48 49  1  0
 50 48  1  0
 52 51  1  0
 52 53  1  0
 52  2  1  0
 54 65  2  0
 55 53  1  0
 55 60  1  0
 56 64  1  0
 56 66  1  0
 57 63  1  0
 57 59  1  0
 58 64  1  0
 59 58  1  0
 60 59  2  0
 61 55  2  0
 62 61  1  0
 62 57  2  0
 63 56  1  0
 64 54  1  0
 66 68  2  0
 67 66  1  0
 69 67  1  0
 70 79  2  0
 70 75  1  0
 71 67  1  0
 71 75  1  0
 72 71  1  0
 73 74  1  0
 73 72  1  0
 74 70  1  0
 75 76  2  0
 76 77  1  0
 78 77  2  0
 79 78  1  0
 80 54  1  0
 80 81  1  0
 80 90  1  0
 81 84  1  0
 82 86  1  0
 82 81  1  0
 83 82  2  0
 86 85  1  0
 88 86  1  0
 88 89  1  0
 88 87  1  0
 90 93  1  1
 90 91  1  0
 92 90  1  0
M  ISO  4  13 100  21 100  52 101  53 101
M  END
>  <TORSDO>  (68) 
F 18

>  <SCORE>  (68) 
-13.962

>  <name>  (68) 
67

>  <ligand_id>  (68) 
67

>  <original_smiles>  (68) 
[H]c1c([H])c([H])c2c(c1[H])C([H])([H])C([H])([H])C([H])([H])C2([H])N([H])C(=O)C1([H])N(C(=O)C([H])(N([H])C(=O)C([H])(N([H])C([H])([H])[H])C([H])([H])[H])C(C([H])([H])[H])(C([H])([H])[H])C([H])([H])[H])C([H])([H])c2c([H])c(OC([H])(C(=O)N([H])C(=O)c3c([H])c([H])c(N([H])C(=O)N4C([H])([H])C([H])([H])C([H])([H])C([H])(n5nc(-c6c([H])c([H])c(Oc7c([H])c([H])c(F)c([H])c7F)c([H])c6[H])c(C(=O)N([H])[H])c5N([H])[H])C4([H])[H])c([H])c3[H])C([H])([H])[H])c([H])c([H])c2C1([H])[H]

>  <smiles>  (68) 
[H]c1c([H])c([H])c2c(c1[H])C([H])([H])C([H])([H])C([H])([H])C2([H])N([H])C(=O)C1([H])N(C(=O)C([H])(N([H])C(=O)C([H])(N([H])C([H])([H])[H])C([H])([H])[H])C(C([H])([H])[H])(C([H])([H])[H])C([H])([H])[H])C([H])([H])c2c([H])c(OC([H])(C(=O)N([H])C(=O)c3c([H])c([H])c(N([H])C(=O)N4C([H])([H])C([H])([H])C([H])([H])C([H])(n5nc(-c6c([H])c([H])c(Oc7c([H])c([H])c(F)c([H])c7F)c([H])c6[H])c(C(=O)N([H])[H])c5N([H])[H])C4([H])[H])c([H])c3[H])C([H])([H])[H])c([H])c([H])c2C1([H])[H]

$$$$
68:0:0
     RDKit          3D

 98107  0  0  1  0  0  0  0  0999 V2000
  -29.0900  -19.0980   19.9480 C   0  0  0  0  0  3  0  0  0  0  0  0
  -31.0820  -19.1140   21.3300 C   0  0  0  0  0  3  0  0  0  0  0  0
  -28.9260  -20.4830   20.1640 C   0  0  0  0  0  3  0  0  0  0  0  0
  -30.9190  -20.5000   21.5420 C   0  0  0  0  0  3  0  0  0  0  0  0
  -30.2010  -18.4030   20.4820 C   0  0  0  0  0  0  0  0  0  0  0  0
  -29.8740  -21.2180   20.9110 C   0  0  0  0  0  0  0  0  0  0  0  0
  -28.9080  -23.4690   20.3470 C   0  0  0  0  0  3  0  0  0  0  0  0
  -29.4040  -24.6610   19.9800 C   0  0  0  0  0  0  0  0  0  0  0  0
  -30.7880  -24.6660   20.3750 C   0  0  0  0  0  0  0  0  0  0  0  0
  -31.6480  -25.6840   20.1990 C   0  0  0  0  0  1  0  0  0  0  0  0
  -31.1130  -23.3410   21.0260 C   0  0  0  0  0  3  0  0  0  0  0  0
  -29.8280  -22.6310   20.9760 N   0  0  0  0  0  0  0  0  0  0  0  0
  -28.6740  -25.7270   19.1700 C   0  0  0  0  0  2  0  0  0  0  0  0
  -28.4340  -26.9150   19.9350 O   0  0  0  0  0  0  0  0  0  0  0  0
  -24.5100  -31.8310   23.2110 C   0  0  0  0  0  0  0  0  0  0  0  0
  -27.2090  -27.5600   19.9310 C   0  0  0  0  0  0  0  0  0  0  0  0
  -23.3070  -30.4610   21.5380 C   0  0  0  0  0  3  0  0  0  0  0  0
  -24.7710  -29.0060   20.0390 C   0  0  0  0  0  0  0  0  0  0  0  0
  -25.8200  -30.8780   21.3220 C   0  0  0  0  0  2  0  0  0  0  0  0
  -25.9240  -29.5330   20.6320 C   0  0  0  0  0  0  0  0  0  0  0  0
  -27.1370  -28.8130   20.5830 C   0  0  0  0  0  3  0  0  0  0  0  0
  -26.0290  -27.0410   19.3430 C   0  0  0  0  0  3  0  0  0  0  0  0
  -24.8180  -27.7570   19.3970 C   0  0  0  0  0  3  0  0  0  0  0  0
  -23.5110  -29.8350   20.1320 C   0  0  0  0  0  2  0  0  0  0  0  0
  -24.5630  -31.0710   22.0810 N   0  0  0  0  0  0  0  0  0  0  0  0
  -23.4330  -32.0620   23.7760 O   0  0  0  0  0  0  0  0  0  0  0  0
  -22.6930  -29.3930   22.4710 C   0  0  0  0  0  0  0  0  0  0  0  0
  -21.3840  -29.1400   22.3120 N   0  0  0  0  0  0  0  0  0  0  0  0
  -23.3920  -28.7950   23.2940 O   0  0  0  0  0  0  0  0  0  0  0  0
  -20.8780  -29.6770   21.6210 H   0  0  0  0  0  0  0  0  0  0  0  0
  -18.0840  -27.7130   22.6700 C   0  0  0  0  0  0  0  0  0  0  0  0
  -20.6020  -28.1500   23.0530 C   0  0  0  0  0  3  0  0  0  0  0  0
  -20.8300  -26.7280   22.4900 C   0  0  0  0  0  2  0  0  0  0  0  0
  -19.8000  -26.3260   21.4310 C   0  0  0  0  0  2  0  0  0  0  0  0
  -18.3840  -26.3760   22.0120 C   0  0  0  0  0  2  0  0  0  0  0  0
  -19.1260  -28.5520   23.1440 C   0  0  0  0  0  0  0  0  0  0  0  0
  -18.7960  -29.8000   23.7170 C   0  0  0  0  0  3  0  0  0  0  0  0
  -17.4550  -30.2110   23.8220 C   0  0  0  0  0  3  0  0  0  0  0  0
  -16.4250  -29.3690   23.3660 C   0  0  0  0  0  3  0  0  0  0  0  0
  -16.7400  -28.1230   22.7950 C   0  0  0  0  0  3  0  0  0  0  0  0
  -25.7930  -32.4650   23.8320 C   0  0  0  0  0  3  0  0  0  0  0  0
  -25.4790  -33.8600   24.1680 N   0  0  0  0  0  0  0  0  0  0  0  0
  -25.8280  -34.9190   23.4250 C   0  0  0  0  0  0  0  0  0  0  0  0
  -26.5200  -34.8250   22.4070 O   0  0  0  0  0  0  0  0  0  0  0  0
  -24.8690  -34.0080   24.9590 H   0  0  0  0  0  0  0  0  0  0  0  0
  -24.1090  -36.7130   23.0440 C   0  0  0  0  0  1  0  0  0  0  0  0
  -25.3290  -36.3010   23.8830 C   0  0  0  0  0  3  0  0  0  0  0  0
  -27.4380  -37.1790   24.7820 C   0  0  0  0  0  1  0  0  0  0  0  0
  -26.3640  -37.3550   23.8080 N   0  0  0  0  0  0  0  0  0  0  0  0
  -25.9530  -38.2740   23.9510 H   0  0  0  0  0  0  0  0  0  0  0  0
  -26.3210  -31.6890   25.1020 C   0  0  1  0  0  0  0  0  0  0  0  0
  -25.2320  -31.4350   26.1700 C   0  0  0  0  0  1  0  0  0  0  0  0
  -26.9150  -30.3180   24.7000 C   0  0  0  0  0  1  0  0  0  0  0  0
  -27.4650  -32.4890   25.7670 C   0  0  0  0  0  1  0  0  0  0  0  0
  -30.5650  -17.0540   19.9630 C   0  0  0  0  0  0  0  0  0  0  0  0
  -30.3980  -15.9230   20.7420 C   0  0  0  0  0  0  0  0  0  0  0  0
  -29.6890  -15.9610   22.0940 C   0  0  0  0  0  1  0  0  0  0  0  0
  -31.0680  -14.6580   20.4000 C   0  0  0  0  0  0  0  0  0  0  0  0
  -30.7440  -12.4040   19.4650 C   0  0  0  0  0  2  0  0  0  0  0  0
  -29.8160  -12.4420   18.2330 C   0  0  0  0  0  2  0  0  0  0  0  0
  -28.3310  -12.3840   18.6300 C   0  0  0  0  0  2  0  0  0  0  0  0
  -27.9720  -13.3210   19.8110 C   0  0  0  0  0  3  0  0  0  0  0  0
  -29.0160  -13.2360   20.9400 C   0  0  0  0  0  2  0  0  0  0  0  0
  -30.3440  -13.4990   20.3660 N   0  0  0  0  0  0  0  0  0  0  0  0
  -32.2370  -14.6900   20.0210 O   0  0  0  0  0  0  0  0  0  0  0  0
  -25.6000  -13.9430   20.5860 C   0  0  0  0  0  0  0  0  0  0  0  0
  -24.5200  -13.1770   20.9350 C   0  0  0  0  0  0  0  0  0  0  0  0
  -24.9550  -11.8190   20.8520 C   0  0  0  0  0  0  0  0  0  0  0  0
  -26.6240  -13.0540   20.3070 N   0  0  0  0  0  0  0  0  0  0  0  0
  -26.2410  -11.7700   20.5300 N   0  0  0  0  0  0  0  0  0  0  0  0
  -24.2090  -10.5620   21.0020 C   0  0  0  0  0  0  0  0  0  0  0  0
  -24.6260   -9.5590   21.9030 C   0  0  0  0  0  3  0  0  0  0  0  0
  -23.8830   -8.3680   22.0460 C   0  0  0  0  0  3  0  0  0  0  0  0
  -22.7050   -8.1720   21.2850 C   0  0  0  0  0  0  0  0  0  0  0  0
  -22.3060   -9.1630   20.3730 C   0  0  0  0  0  3  0  0  0  0  0  0
  -23.0510  -10.3460   20.2280 C   0  0  0  0  0  3  0  0  0  0  0  0
  -21.9350   -7.0340   21.3350 O   0  0  0  0  0  0  0  0  0  0  0  0
  -21.8380   -6.2820   22.4770 C   0  0  0  0  0  0  0  0  0  0  0  0
  -21.3540   -6.8250   23.6860 C   0  0  0  0  0  3  0  0  0  0  0  0
  -21.2010   -5.9990   24.8180 C   0  0  0  0  0  3  0  0  0  0  0  0
  -21.5240   -4.6310   24.7400 C   0  0  0  0  0  0  0  0  0  0  0  0
  -22.0030   -4.0870   23.5340 C   0  0  0  0  0  3  0  0  0  0  0  0
  -22.1570   -4.9110   22.4060 C   0  0  0  0  0  0  0  0  0  0  0  0
  -22.5990   -4.3800   21.2400 F   0  0  0  0  0  0  0  0  0  0  0  0
  -21.3720   -3.8340   25.8240 F   0  0  0  0  0  0  0  0  0  0  0  0
  -23.1340  -13.6700   21.2320 C   0  0  0  0  0  0  0  0  0  0  0  0
  -22.4120  -12.9720   22.0990 N   0  0  0  0  0  0  0  0  0  0  0  0
  -22.7010  -14.7080   20.7290 O   0  0  0  0  0  0  0  0  0  0  0  0
  -22.7800  -12.1380   22.5300 H   0  0  0  0  0  0  0  0  0  0  0  0
  -21.4800  -13.2790   22.3380 H   0  0  0  0  0  0  0  0  0  0  0  0
  -25.7910  -15.3150   20.4620 N   0  0  0  0  0  0  0  0  0  0  0  0
  -25.0460  -15.9800   20.6350 H   0  0  0  0  0  0  0  0  0  0  0  0
  -26.6510  -15.7530   20.1540 H   0  0  0  0  0  0  0  0  0  0  0  0
  -31.2870  -17.0920   18.6200 C   0  0  0  0  0  0  0  0  0  0  0  0
  -31.7360  -18.4710   18.1100 C   0  0  0  0  0  1  0  0  0  0  0  0
  -31.5160  -16.0540   17.9100 N   0  0  0  0  0  0  0  0  0  0  0  0
  -32.8730  -15.1850   16.2660 C   0  0  0  0  0  1  0  0  0  0  0  0
  -32.1860  -16.3460   16.7070 O   0  0  0  0  0  0  0  0  0  0  0  0
  1  3  2  0
  1  5  1  0
  2  4  1  0
  3  6  1  0
  5  2  2  0
  6 12  1  0
  6  4  2  0
  7 12  1  0
  8  7  2  0
  8  9  1  0
  9 11  2  0
 10  9  1  0
 12 11  1  0
 13 14  1  0
 13  8  1  0
 15 26  2  0
 16 14  1  0
 16 21  1  0
 17 25  1  0
 17 27  1  0
 18 24  1  0
 18 20  1  0
 19 25  1  0
 20 19  1  0
 21 20  2  0
 22 23  1  0
 22 16  2  0
 23 18  2  0
 24 17  1  0
 25 15  1  0
 27 29  2  0
 28 27  1  0
 30 28  1  0
 31 40  2  0
 31 36  1  0
 32 28  1  0
 32 36  1  0
 33 32  1  0
 34 35  1  0
 34 33  1  0
 35 31  1  0
 36 37  2  0
 37 38  1  0
 39 38  2  0
 40 39  1  0
 41 15  1  0
 41 42  1  0
 41 51  1  0
 42 45  1  0
 43 47  1  0
 43 42  1  0
 44 43  2  0
 47 46  1  0
 49 47  1  0
 49 50  1  0
 49 48  1  0
 51 54  1  1
 51 52  1  0
 53 51  1  0
 55  5  1  0
 55 56  2  0
 56 57  1  0
 58 56  1  0
 59 64  1  0
 60 61  1  0
 60 59  1  0
 62 61  1  0
 62 69  1  0
 62 63  1  0
 64 58  1  0
 64 63  1  0
 65 58  2  0
 66 67  2  0
 67 86  1  0
 68 67  1  0
 68 71  1  0
 69 70  1  0
 69 66  1  0
 70 68  2  0
 71 72  1  0
 72 73  2  0
 74 77  1  0
 74 73  1  0
 75 74  2  0
 76 75  1  0
 76 71  2  0
 77 78  1  0
 78 79  1  0
 79 80  2  0
 81 80  1  0
 81 85  1  0
 82 81  2  0
 83 78  2  0
 83 82  1  0
 84 83  1  0
 86 87  1  0
 87 90  1  0
 87 89  1  0
 88 86  2  0
 91 66  1  0
 91 92  1  0
 93 91  1  0
 94 55  1  0
 95 94  1  0
 96 94  2  0
 97 98  1  0
 98 96  1  0
M  ISO  4  13 101  14 101  56 100  58 100
M  END
>  <TORSDO>  (69) 
F 21

>  <SCORE>  (69) 
-13.000

>  <name>  (69) 
68

>  <ligand_id>  (69) 
68

>  <original_smiles>  (69) 
[H]C([H])=C1C(C([H])([H])Oc2c([H])c([H])c3c(c2[H])C([H])([H])N(C(=O)C([H])(N([H])C(=O)C([H])(N([H])C([H])([H])[H])C([H])([H])[H])C(C([H])([H])[H])(C([H])([H])[H])C([H])([H])[H])C([H])(C(=O)N([H])C2([H])c4c([H])c([H])c([H])c([H])c4C([H])([H])C([H])([H])C2([H])[H])C3([H])[H])=C([H])N(c2c([H])c([H])c(C(C(=NOC([H])([H])[H])C([H])([H])[H])=C(C(=O)N3C([H])([H])C([H])([H])C([H])([H])C([H])(n4nc(-c5c([H])c([H])c(Oc6c([H])c([H])c(F)c([H])c6F)c([H])c5[H])c(C(=O)N([H])[H])c4N([H])[H])C3([H])[H])C([H])([H])[H])c([H])c2[H])C1([H])[H]

>  <smiles>  (69) 
[H]C([H])=C1C(C([H])([H])Oc2c([H])c([H])c3c(c2[H])C([H])([H])N(C(=O)C([H])(N([H])C(=O)C([H])(N([H])C([H])([H])[H])C([H])([H])[H])C(C([H])([H])[H])(C([H])([H])[H])C([H])([H])[H])C([H])(C(=O)N([H])C2([H])c4c([H])c([H])c([H])c([H])c4C([H])([H])C([H])([H])C2([H])[H])C3([H])[H])=C([H])N(c2c([H])c([H])c(C(C(=NOC([H])([H])[H])C([H])([H])[H])=C(C(=O)N3C([H])([H])C([H])([H])C([H])([H])C([H])(n4nc(-c5c([H])c([H])c(Oc6c([H])c([H])c(F)c([H])c6F)c([H])c5[H])c(C(=O)N([H])[H])c4N([H])[H])C3([H])[H])C([H])([H])[H])c([H])c2[H])C1([H])[H]

$$$$
69:0:0
     RDKit          3D

 94102  0  0  1  0  0  0  0  0999 V2000
  -29.2830  -21.4690   19.3930 C   0  0  0  0  0  0  0  0  0  0  0  0
  -29.0350  -22.5450   20.2030 N   0  0  0  0  0  0  0  0  0  0  0  0
  -29.4190  -21.6490   18.1810 O   0  0  0  0  0  0  0  0  0  0  0  0
  -28.9370  -22.3740   21.1930 H   0  0  0  0  0  0  0  0  0  0  0  0
  -28.6400  -18.9880   19.2160 C   0  0  0  0  0  3  0  0  0  0  0  0
  -30.3110  -19.5330   20.8530 C   0  0  0  0  0  3  0  0  0  0  0  0
  -28.8020  -17.6010   19.4970 C   0  0  0  0  0  3  0  0  0  0  0  0
  -30.4900  -18.1330   21.1230 C   0  0  0  0  0  3  0  0  0  0  0  0
  -29.3780  -20.0040   19.8840 C   0  0  0  0  0  0  0  0  0  0  0  0
  -29.7460  -17.1250   20.4410 C   0  0  0  0  0  0  0  0  0  0  0  0
  -30.5850  -14.6720   20.4130 C   0  0  0  0  0  0  0  0  0  0  0  0
  -30.4110  -12.4230   19.3570 C   0  0  0  0  0  2  0  0  0  0  0  0
  -29.4660  -12.5420   18.1400 C   0  0  0  0  0  2  0  0  0  0  0  0
  -27.9920  -12.3750   18.5640 C   0  0  0  0  0  2  0  0  0  0  0  0
  -27.6270  -13.2360   19.8020 C   0  0  0  0  0  3  0  0  0  0  0  0
  -28.6840  -13.0800   20.9200 C   0  0  0  0  0  2  0  0  0  0  0  0
  -29.9930  -13.4360   20.3470 N   0  0  0  0  0  0  0  0  0  0  0  0
  -31.7430  -14.8500   20.0240 O   0  0  0  0  0  0  0  0  0  0  0  0
  -29.7640  -15.7040   20.7940 N   0  0  0  0  0  0  0  0  0  0  0  0
  -28.8630  -15.3500   21.0810 H   0  0  0  0  0  0  0  0  0  0  0  0
  -25.2300  -13.8330   20.5120 C   0  0  0  0  0  0  0  0  0  0  0  0
  -24.1640  -13.0600   20.8810 C   0  0  0  0  0  0  0  0  0  0  0  0
  -24.6290  -11.7090   20.8560 C   0  0  0  0  0  0  0  0  0  0  0  0
  -26.2770  -12.9540   20.2830 N   0  0  0  0  0  0  0  0  0  0  0  0
  -25.9200  -11.6710   20.5500 N   0  0  0  0  0  0  0  0  0  0  0  0
  -23.9040  -10.4460   21.0470 C   0  0  0  0  0  0  0  0  0  0  0  0
  -24.3390   -9.4800   21.9800 C   0  0  0  0  0  3  0  0  0  0  0  0
  -23.6150   -8.2810   22.1600 C   0  0  0  0  0  3  0  0  0  0  0  0
  -22.4420   -8.0410   21.4060 C   0  0  0  0  0  0  0  0  0  0  0  0
  -22.0260   -8.9970   20.4620 C   0  0  0  0  0  3  0  0  0  0  0  0
  -22.7510  -10.1870   20.2810 C   0  0  0  0  0  3  0  0  0  0  0  0
  -21.6880   -6.8950   21.4940 O   0  0  0  0  0  0  0  0  0  0  0  0
  -21.6460   -6.1490   22.6450 C   0  0  0  0  0  0  0  0  0  0  0  0
  -21.2230   -6.6990   23.8740 C   0  0  0  0  0  3  0  0  0  0  0  0
  -21.1280   -5.8790   25.0160 C   0  0  0  0  0  3  0  0  0  0  0  0
  -21.4470   -4.5100   24.9300 C   0  0  0  0  0  0  0  0  0  0  0  0
  -21.8630   -3.9600   23.7040 C   0  0  0  0  0  3  0  0  0  0  0  0
  -21.9600   -4.7770   22.5650 C   0  0  0  0  0  0  0  0  0  0  0  0
  -22.3420   -4.2380   21.3820 F   0  0  0  0  0  0  0  0  0  0  0  0
  -21.3480   -3.7210   26.0250 F   0  0  0  0  0  0  0  0  0  0  0  0
  -22.7650  -13.5360   21.1470 C   0  0  0  0  0  0  0  0  0  0  0  0
  -22.0340  -12.8400   22.0110 N   0  0  0  0  0  0  0  0  0  0  0  0
  -22.3280  -14.5600   20.6250 O   0  0  0  0  0  0  0  0  0  0  0  0
  -22.4000  -12.0110   22.4570 H   0  0  0  0  0  0  0  0  0  0  0  0
  -21.0950  -13.1400   22.2310 H   0  0  0  0  0  0  0  0  0  0  0  0
  -25.3920  -15.2040   20.3320 N   0  0  0  0  0  0  0  0  0  0  0  0
  -24.6210  -15.8540   20.4400 H   0  0  0  0  0  0  0  0  0  0  0  0
  -26.2370  -15.6480   19.9960 H   0  0  0  0  0  0  0  0  0  0  0  0
  -29.1510  -23.9960   19.7520 C   0  0  0  0  0  3  0  0  0  0  0  0
  -30.6210  -24.4220   19.9410 C   0  0  0  0  0  0  0  0  0  0  0  0
  -31.1680  -25.4960   19.0100 C   0  0  0  0  0  1  0  0  0  0  0  0
  -31.3620  -23.9360   20.8010 O   0  0  0  0  0  0  0  0  0  0  0  0
  -28.2480  -25.0620   20.5320 C   0  0  0  0  0  2  0  0  0  0  0  0
  -28.3580  -26.5000   20.1570 O   0  0  0  0  0  0  0  0  0  0  0  0
  -24.6000  -31.8660   23.2210 C   0  0  0  0  0  0  0  0  0  0  0  0
  -27.2170  -27.3160   20.1630 C   0  0  0  0  0  0  0  0  0  0  0  0
  -23.3940  -30.4660   21.5800 C   0  0  0  0  0  3  0  0  0  0  0  0
  -24.8450  -28.9140   20.1550 C   0  0  0  0  0  0  0  0  0  0  0  0
  -25.9320  -30.7910   21.3920 C   0  0  0  0  0  2  0  0  0  0  0  0
  -26.0130  -29.4120   20.7480 C   0  0  0  0  0  0  0  0  0  0  0  0
  -27.2030  -28.6250   20.7370 C   0  0  0  0  0  3  0  0  0  0  0  0
  -26.0290  -26.8680   19.5490 C   0  0  0  0  0  3  0  0  0  0  0  0
  -24.8540  -27.6480   19.5470 C   0  0  0  0  0  3  0  0  0  0  0  0
  -23.6080  -29.7880   20.2010 C   0  0  0  0  0  2  0  0  0  0  0  0
  -24.6610  -31.0580   22.1210 N   0  0  0  0  0  0  0  0  0  0  0  0
  -23.5170  -32.1420   23.7570 O   0  0  0  0  0  0  0  0  0  0  0  0
  -22.7350  -29.4500   22.5420 C   0  0  0  0  0  0  0  0  0  0  0  0
  -21.4080  -29.2730   22.4190 N   0  0  0  0  0  0  0  0  0  0  0  0
  -23.4150  -28.8220   23.3580 O   0  0  0  0  0  0  0  0  0  0  0  0
  -20.9190  -29.8320   21.7340 H   0  0  0  0  0  0  0  0  0  0  0  0
  -18.0300  -28.0830   22.9270 C   0  0  0  0  0  0  0  0  0  0  0  0
  -20.5900  -28.3370   23.1900 C   0  0  0  0  0  3  0  0  0  0  0  0
  -20.6860  -26.9060   22.6120 C   0  0  0  0  0  2  0  0  0  0  0  0
  -19.5810  -26.5870   21.6000 C   0  0  0  0  0  2  0  0  0  0  0  0
  -18.2010  -26.7350   22.2490 C   0  0  0  0  0  2  0  0  0  0  0  0
  -19.1520  -28.8420   23.3560 C   0  0  0  0  0  0  0  0  0  0  0  0
  -18.9370  -30.1040   23.9510 C   0  0  0  0  0  3  0  0  0  0  0  0
  -17.6340  -30.6070   24.1220 C   0  0  0  0  0  3  0  0  0  0  0  0
  -16.5270  -29.8460   23.7100 C   0  0  0  0  0  3  0  0  0  0  0  0
  -16.7260  -28.5850   23.1190 C   0  0  0  0  0  3  0  0  0  0  0  0
  -25.8830  -32.4990   23.8420 C   0  0  0  0  0  3  0  0  0  0  0  0
  -26.4020  -31.7280   25.1180 C   0  0  1  0  0  0  0  0  0  0  0  0
  -25.3090  -31.4900   26.1870 C   0  0  0  0  0  1  0  0  0  0  0  0
  -26.9840  -30.3500   24.7250 C   0  0  0  0  0  1  0  0  0  0  0  0
  -27.5540  -32.5200   25.7780 C   0  0  0  0  0  1  0  0  0  0  0  0
  -25.5740  -33.8970   24.1740 N   0  0  0  0  0  0  0  0  0  0  0  0
  -25.9080  -34.9510   23.4190 C   0  0  0  0  0  0  0  0  0  0  0  0
  -26.5790  -34.8490   22.3880 O   0  0  0  0  0  0  0  0  0  0  0  0
  -24.9780  -34.0500   24.9760 H   0  0  0  0  0  0  0  0  0  0  0  0
  -24.1850  -36.7500   23.0600 C   0  0  0  0  0  1  0  0  0  0  0  0
  -25.4210  -36.3390   23.8790 C   0  0  0  0  0  3  0  0  0  0  0  0
  -27.5530  -37.2150   24.7250 C   0  0  0  0  0  1  0  0  0  0  0  0
  -26.4570  -37.3910   23.7750 N   0  0  0  0  0  0  0  0  0  0  0  0
  -26.0520  -38.3120   23.9250 H   0  0  0  0  0  0  0  0  0  0  0  0
  1  9  1  0
  1  2  1  0
  2  4  1  0
  3  1  2  0
  5  7  2  0
  5  9  1  0
  6  8  1  0
  7 10  1  0
  9  6  2  0
 10 19  1  0
 10  8  2  0
 11 19  1  0
 12 17  1  0
 13 14  1  0
 13 12  1  0
 15 14  1  0
 15 24  1  0
 15 16  1  0
 17 11  1  0
 17 16  1  0
 18 11  2  0
 19 20  1  0
 21 22  2  0
 22 41  1  0
 23 22  1  0
 23 26  1  0
 24 21  1  0
 24 25  1  0
 25 23  2  0
 26 27  1  0
 27 28  2  0
 29 32  1  0
 29 28  1  0
 30 29  2  0
 31 30  1  0
 31 26  2  0
 32 33  1  0
 33 34  1  0
 34 35  2  0
 36 35  1  0
 36 40  1  0
 37 36  2  0
 38 33  2  0
 38 37  1  0
 39 38  1  0
 41 42  1  0
 42 45  1  0
 42 44  1  0
 43 41  2  0
 46 47  1  0
 46 21  1  0
 48 46  1  0
 49 50  1  0
 49  2  1  0
 49 53  1  0
 50 52  2  0
 51 50  1  0
 54 56  1  0
 54 53  1  0
 55 66  2  0
 56 61  1  0
 57 65  1  0
 57 67  1  0
 58 64  1  0
 58 60  1  0
 59 65  1  0
 60 59  1  0
 61 60  2  0
 62 56  2  0
 63 62  1  0
 63 58  2  0
 64 57  1  0
 65 55  1  0
 67 69  2  0
 68 67  1  0
 70 68  1  0
 71 80  2  0
 71 76  1  0
 72 68  1  0
 72 76  1  0
 73 72  1  0
 74 75  1  0
 74 73  1  0
 75 71  1  0
 76 77  2  0
 77 78  1  0
 79 78  2  0
 80 79  1  0
 81 55  1  0
 81 86  1  0
 81 82  1  0
 82 85  1  1
 82 83  1  0
 84 82  1  0
 86 89  1  0
 87 91  1  0
 87 86  1  0
 88 87  2  0
 91 90  1  0
 93 91  1  0
 93 94  1  0
 93 92  1  0
M  ISO  4  11 100  19 100  53 101  54 101
M  END
>  <TORSDO>  (70) 
F 20

>  <SCORE>  (70) 
-14.045

>  <name>  (70) 
69

>  <ligand_id>  (70) 
69

>  <original_smiles>  (70) 
[H]c1c([H])c([H])c2c(c1[H])C([H])([H])C([H])([H])C([H])([H])C2([H])N([H])C(=O)C1([H])N(C(=O)C([H])(N([H])C(=O)C([H])(N([H])C([H])([H])[H])C([H])([H])[H])C(C([H])([H])[H])(C([H])([H])[H])C([H])([H])[H])C([H])([H])c2c([H])c(OC([H])([H])C([H])(C(=O)C([H])([H])[H])N([H])C(=O)c3c([H])c([H])c(N([H])C(=O)N4C([H])([H])C([H])([H])C([H])([H])C([H])(n5nc(-c6c([H])c([H])c(Oc7c([H])c([H])c(F)c([H])c7F)c([H])c6[H])c(C(=O)N([H])[H])c5N([H])[H])C4([H])[H])c([H])c3[H])c([H])c([H])c2C1([H])[H]

>  <smiles>  (70) 
[H]c1c([H])c([H])c2c(c1[H])C([H])([H])C([H])([H])C([H])([H])C2([H])N([H])C(=O)C1([H])N(C(=O)C([H])(N([H])C(=O)C([H])(N([H])C([H])([H])[H])C([H])([H])[H])C(C([H])([H])[H])(C([H])([H])[H])C([H])([H])[H])C([H])([H])c2c([H])c(OC([H])([H])C([H])(C(=O)C([H])([H])[H])N([H])C(=O)c3c([H])c([H])c(N([H])C(=O)N4C([H])([H])C([H])([H])C([H])([H])C([H])(n5nc(-c6c([H])c([H])c(Oc7c([H])c([H])c(F)c([H])c7F)c([H])c6[H])c(C(=O)N([H])[H])c5N([H])[H])C4([H])[H])c([H])c3[H])c([H])c([H])c2C1([H])[H]

$$$$
70:0:0
     RDKit          3D

 90 97  0  0  1  0  0  0  0  0999 V2000
  -28.7030  -21.5740   20.5920 C   0  0  0  0  0  0  0  0  0  0  0  0
  -28.0870  -24.4080   20.6480 C   0  0  0  0  0  3  0  0  0  0  0  0
  -26.8570  -25.2460   22.7140 C   0  0  0  0  0  1  0  0  0  0  0  0
  -28.6560  -23.1420   20.0610 N   0  0  0  0  0  0  0  0  0  0  0  0
  -27.4160  -24.2380   21.8090 N   0  0  0  0  0  0  0  0  0  0  0  0
  -28.2950  -21.4470   21.7540 O   0  0  0  0  0  0  0  0  0  0  0  0
  -29.0470  -23.3430   19.1540 H   0  0  0  0  0  0  0  0  0  0  0  0
  -27.3540  -23.2840   22.1460 H   0  0  0  0  0  0  0  0  0  0  0  0
  -27.9820  -19.7620   18.8240 C   0  0  0  0  0  1  0  0  0  0  0  0
  -29.1430  -20.0380   19.8090 C   0  0  0  0  0  3  0  0  0  0  0  0
  -29.7410  -18.3850   20.4020 C   0  0  0  0  0  2  0  0  0  0  0  0
  -30.4020  -15.4280   20.1390 C   0  0  0  0  0  0  0  0  0  0  0  0
  -30.4000  -12.9730   19.2350 C   0  0  0  0  0  2  0  0  0  0  0  0
  -29.4610  -12.7660   18.0190 C   0  0  0  0  0  2  0  0  0  0  0  0
  -28.0220  -12.4690   18.4820 C   0  0  0  0  0  2  0  0  0  0  0  0
  -27.5840  -13.4120   19.6310 C   0  0  0  0  0  3  0  0  0  0  0  0
  -28.6530  -13.5690   20.7330 C   0  0  0  0  0  2  0  0  0  0  0  0
  -29.8550  -14.1080   20.0750 N   0  0  0  0  0  0  0  0  0  0  0  0
  -31.6270  -15.4330   19.9420 O   0  0  0  0  0  0  0  0  0  0  0  0
  -29.6070  -16.6930   20.2300 N   0  0  0  0  0  0  0  0  0  0  0  0
  -28.6340  -16.4280   20.2860 H   0  0  0  0  0  0  0  0  0  0  0  0
  -25.2240  -13.9410   20.4280 C   0  0  0  0  0  0  0  0  0  0  0  0
  -24.1790  -13.1520   20.8160 C   0  0  0  0  0  0  0  0  0  0  0  0
  -24.6600  -11.8070   20.7750 C   0  0  0  0  0  0  0  0  0  0  0  0
  -26.2720  -13.0760   20.1660 N   0  0  0  0  0  0  0  0  0  0  0  0
  -25.9470  -11.7870   20.4440 N   0  0  0  0  0  0  0  0  0  0  0  0
  -23.9490  -10.5370   20.9780 C   0  0  0  0  0  0  0  0  0  0  0  0
  -24.3900   -9.5850   21.9240 C   0  0  0  0  0  3  0  0  0  0  0  0
  -23.6770   -8.3820   22.1150 C   0  0  0  0  0  3  0  0  0  0  0  0
  -22.5080   -8.1220   21.3610 C   0  0  0  0  0  0  0  0  0  0  0  0
  -22.0870   -9.0620   20.4050 C   0  0  0  0  0  3  0  0  0  0  0  0
  -22.7990  -10.2570   20.2120 C   0  0  0  0  0  3  0  0  0  0  0  0
  -21.7660   -6.9700   21.4600 O   0  0  0  0  0  0  0  0  0  0  0  0
  -21.7090   -6.2480   22.6240 C   0  0  0  0  0  0  0  0  0  0  0  0
  -21.2360   -6.8120   23.8270 C   0  0  0  0  0  3  0  0  0  0  0  0
  -21.1270   -6.0140   24.9850 C   0  0  0  0  0  3  0  0  0  0  0  0
  -21.4810   -4.6520   24.9380 C   0  0  0  0  0  0  0  0  0  0  0  0
  -21.9430   -4.0850   23.7370 C   0  0  0  0  0  3  0  0  0  0  0  0
  -22.0530   -4.8810   22.5810 C   0  0  0  0  0  0  0  0  0  0  0  0
  -22.4800   -4.3260   21.4230 F   0  0  0  0  0  0  0  0  0  0  0  0
  -21.3710   -3.8840   26.0460 F   0  0  0  0  0  0  0  0  0  0  0  0
  -22.7800  -13.6140   21.1030 C   0  0  0  0  0  0  0  0  0  0  0  0
  -22.0730  -12.9060   21.9740 N   0  0  0  0  0  0  0  0  0  0  0  0
  -22.3260  -14.6340   20.5870 O   0  0  0  0  0  0  0  0  0  0  0  0
  -22.4540  -12.0790   22.4110 H   0  0  0  0  0  0  0  0  0  0  0  0
  -21.1350  -13.1930   22.2120 H   0  0  0  0  0  0  0  0  0  0  0  0
  -25.3700  -15.3140   20.2430 N   0  0  0  0  0  0  0  0  0  0  0  0
  -24.6020  -15.9630   20.3690 H   0  0  0  0  0  0  0  0  0  0  0  0
  -26.1830  -15.7440   19.8240 H   0  0  0  0  0  0  0  0  0  0  0  0
  -28.2200  -25.8570   20.2090 O   0  0  0  0  0  0  0  0  0  0  0  0
  -24.6280  -31.9030   23.1960 C   0  0  0  0  0  0  0  0  0  0  0  0
  -27.2210  -26.9860   20.2270 C   0  0  0  0  0  0  0  0  0  0  0  0
  -23.4540  -30.4890   21.5610 C   0  0  0  0  0  3  0  0  0  0  0  0
  -24.9200  -28.8790   20.1610 C   0  0  0  0  0  0  0  0  0  0  0  0
  -26.0230  -30.7010   21.4320 C   0  0  0  0  0  2  0  0  0  0  0  0
  -26.1050  -29.2840   20.7900 C   0  0  0  0  0  0  0  0  0  0  0  0
  -27.2510  -28.3580   20.8000 C   0  0  0  0  0  3  0  0  0  0  0  0
  -26.0080  -26.7520   19.5440 C   0  0  0  0  0  3  0  0  0  0  0  0
  -24.8990  -27.6340   19.5180 C   0  0  0  0  0  3  0  0  0  0  0  0
  -23.6960  -29.7950   20.1940 C   0  0  0  0  0  2  0  0  0  0  0  0
  -24.7250  -31.0590   22.1180 N   0  0  0  0  0  0  0  0  0  0  0  0
  -23.5330  -32.1940   23.7040 O   0  0  0  0  0  0  0  0  0  0  0  0
  -22.7590  -29.4990   22.5300 C   0  0  0  0  0  0  0  0  0  0  0  0
  -21.4280  -29.3280   22.4020 N   0  0  0  0  0  0  0  0  0  0  0  0
  -23.4240  -28.8780   23.3620 O   0  0  0  0  0  0  0  0  0  0  0  0
  -20.9430  -29.8760   21.7030 H   0  0  0  0  0  0  0  0  0  0  0  0
  -18.0500  -28.1210   22.9340 C   0  0  0  0  0  0  0  0  0  0  0  0
  -20.6100  -28.3900   23.1790 C   0  0  0  0  0  3  0  0  0  0  0  0
  -20.7100  -26.9590   22.6020 C   0  0  0  0  0  2  0  0  0  0  0  0
  -19.6020  -26.6360   21.5940 C   0  0  0  0  0  2  0  0  0  0  0  0
  -18.2240  -26.7760   22.2480 C   0  0  0  0  0  2  0  0  0  0  0  0
  -19.1690  -28.8850   23.3580 C   0  0  0  0  0  0  0  0  0  0  0  0
  -18.9500  -30.1400   23.9650 C   0  0  0  0  0  3  0  0  0  0  0  0
  -17.6440  -30.6350   24.1450 C   0  0  0  0  0  3  0  0  0  0  0  0
  -16.5390  -29.8690   23.7350 C   0  0  0  0  0  3  0  0  0  0  0  0
  -16.7430  -28.6110   23.1390 C   0  0  0  0  0  3  0  0  0  0  0  0
  -25.8900  -32.5610   23.8320 C   0  0  0  0  0  3  0  0  0  0  0  0
  -25.5610  -33.9610   24.1540 N   0  0  0  0  0  0  0  0  0  0  0  0
  -25.9000  -35.0210   23.4070 C   0  0  0  0  0  0  0  0  0  0  0  0
  -26.5840  -34.9230   22.3860 O   0  0  0  0  0  0  0  0  0  0  0  0
  -24.9470  -34.1110   24.9400 H   0  0  0  0  0  0  0  0  0  0  0  0
  -24.1810  -36.8220   23.0330 C   0  0  0  0  0  1  0  0  0  0  0  0
  -25.4060  -36.4070   23.8650 C   0  0  0  0  0  3  0  0  0  0  0  0
  -27.5190  -37.2950   24.7450 C   0  0  0  0  0  1  0  0  0  0  0  0
  -26.4400  -37.4610   23.7770 N   0  0  0  0  0  0  0  0  0  0  0  0
  -26.0300  -38.3790   23.9160 H   0  0  0  0  0  0  0  0  0  0  0  0
  -26.3910  -31.8090   25.1290 C   0  0  1  0  0  0  0  0  0  0  0  0
  -25.2840  -31.5820   26.1830 C   0  0  0  0  0  1  0  0  0  0  0  0
  -26.9840  -30.4270   24.7740 C   0  0  0  0  0  1  0  0  0  0  0  0
  -27.5310  -32.6170   25.7970 C   0  0  0  0  0  1  0  0  0  0  0  0
  1  6  2  0
  2 50  1  0
  2  5  1  0
  4  1  1  0
  4  2  1  0
  5  8  1  0
  5  3  1  0
  7  4  1  0
 10  9  1  0
 10 11  1  0
 10  1  1  0
 12 20  1  0
 13 18  1  0
 14 15  1  0
 14 13  1  0
 16 15  1  0
 16 25  1  0
 16 17  1  0
 18 12  1  0
 18 17  1  0
 19 12  2  0
 20 21  1  0
 20 11  1  0
 22 23  2  0
 23 42  1  0
 24 23  1  0
 24 27  1  0
 25 22  1  0
 25 26  1  0
 26 24  2  0
 27 28  1  0
 28 29  2  0
 30 33  1  0
 30 29  1  0
 31 30  2  0
 32 31  1  0
 32 27  2  0
 33 34  1  0
 34 35  1  0
 35 36  2  0
 37 36  1  0
 37 41  1  0
 38 37  2  0
 39 34  2  0
 39 38  1  0
 40 39  1  0
 42 43  1  0
 43 46  1  0
 43 45  1  0
 44 42  2  0
 47 48  1  0
 47 22  1  0
 49 47  1  0
 50 52  1  0
 51 62  2  0
 52 57  1  0
 53 61  1  0
 53 63  1  0
 54 60  1  0
 54 56  1  0
 55 61  1  0
 56 57  2  0
 56 55  1  0
 58 52  2  0
 59 58  1  0
 59 54  2  0
 60 53  1  0
 61 51  1  0
 63 65  2  0
 64 63  1  0
 66 64  1  0
 67 76  2  0
 67 72  1  0
 68 64  1  0
 68 72  1  0
 69 68  1  0
 70 71  1  0
 70 69  1  0
 71 67  1  0
 72 73  2  0
 73 74  1  0
 75 74  2  0
 76 75  1  0
 77 51  1  0
 77 78  1  0
 77 87  1  0
 78 81  1  0
 79 83  1  0
 79 78  1  0
 80 79  2  0
 83 82  1  0
 85 83  1  0
 85 86  1  0
 85 84  1  0
 87 90  1  1
 87 88  1  0
 89 87  1  0
M  ISO  4   2 101  12 100  20 100  50 101
M  END
>  <TORSDO>  (71) 
F 18

>  <SCORE>  (71) 
-15.964

>  <name>  (71) 
70

>  <ligand_id>  (71) 
70

>  <original_smiles>  (71) 
[H]c1c([H])c([H])c2c(c1[H])C([H])([H])C([H])([H])C([H])([H])C2([H])N([H])C(=O)C1([H])N(C(=O)C([H])(N([H])C(=O)C([H])(N([H])C([H])([H])[H])C([H])([H])[H])C(C([H])([H])[H])(C([H])([H])[H])C([H])([H])[H])C([H])([H])c2c([H])c(OC(N([H])C(=O)C([H])(C([H])([H])[H])C([H])([H])N([H])C(=O)N3C([H])([H])C([H])([H])C([H])([H])C([H])(n4nc(-c5c([H])c([H])c(Oc6c([H])c([H])c(F)c([H])c6F)c([H])c5[H])c(C(=O)N([H])[H])c4N([H])[H])C3([H])[H])=[N+]([H])C([H])([H])[H])c([H])c([H])c2C1([H])[H]

>  <smiles>  (71) 
[H]c1c([H])c([H])c2c(c1[H])C([H])([H])C([H])([H])C([H])([H])C2([H])N([H])C(=O)C1([H])N(C(=O)C([H])(N([H])C(=O)C([H])(N([H])C([H])([H])[H])C([H])([H])[H])C(C([H])([H])[H])(C([H])([H])[H])C([H])([H])[H])C([H])([H])c2c([H])c(OC(N([H])C(=O)C([H])(C([H])([H])[H])C([H])([H])N([H])C(=O)N3C([H])([H])C([H])([H])C([H])([H])C([H])(n4nc(-c5c([H])c([H])c(Oc6c([H])c([H])c(F)c([H])c6F)c([H])c5[H])c(C(=O)N([H])[H])c4N([H])[H])C3([H])[H])=[N+]([H])C([H])([H])[H])c([H])c([H])c2C1([H])[H]

$$$$
71:0:0
     RDKit          3D

 94103  0  0  1  0  0  0  0  0999 V2000
  -28.9610  -23.1640   18.8180 C   0  0  0  0  0  0  0  0  0  0  0  0
  -29.2160  -22.6140   17.5160 C   0  0  0  0  0  0  0  0  0  0  0  0
  -29.0810  -22.0540   19.7790 C   0  0  0  0  0  0  0  0  0  0  0  0
  -29.2810  -23.2900   16.3540 C   0  0  0  0  0  2  0  0  0  0  0  0
  -28.6380  -24.4670   19.0610 C   0  0  0  0  0  3  0  0  0  0  0  0
  -29.4350  -21.1440   17.6400 C   0  0  0  0  0  2  0  0  0  0  0  0
  -29.3710  -20.8990   19.0870 N   0  0  0  0  0  0  0  0  0  0  0  0
  -28.9260  -22.1420   21.0010 O   0  0  0  0  0  0  0  0  0  0  0  0
  -29.8680  -19.2200   20.9320 C   0  0  0  0  0  3  0  0  0  0  0  0
  -29.5600  -18.4410   18.6740 C   0  0  0  0  0  3  0  0  0  0  0  0
  -30.0930  -17.8840   21.3500 C   0  0  0  0  0  3  0  0  0  0  0  0
  -29.7880  -17.1070   19.0900 C   0  0  0  0  0  3  0  0  0  0  0  0
  -29.5900  -19.5400   19.5780 C   0  0  0  0  0  0  0  0  0  0  0  0
  -30.0710  -16.7900   20.4410 C   0  0  0  0  0  0  0  0  0  0  0  0
  -30.7860  -14.4480   20.0440 C   0  0  0  0  0  0  0  0  0  0  0  0
  -30.3070  -12.3510   18.8140 C   0  0  0  0  0  2  0  0  0  0  0  0
  -29.2730  -12.6060   17.6980 C   0  0  0  0  0  2  0  0  0  0  0  0
  -27.8410  -12.4570   18.2440 C   0  0  0  0  0  2  0  0  0  0  0  0
  -27.6220  -13.2620   19.5510 C   0  0  0  0  0  3  0  0  0  0  0  0
  -28.7590  -13.0070   20.5620 C   0  0  0  0  0  2  0  0  0  0  0  0
  -30.0420  -13.3080   19.9040 N   0  0  0  0  0  0  0  0  0  0  0  0
  -31.8200  -14.6350   19.3940 O   0  0  0  0  0  0  0  0  0  0  0  0
  -30.5110  -15.1760   22.3150 C   0  0  0  0  0  1  0  0  0  0  0  0
  -30.3180  -15.4210   20.8800 N   0  0  0  0  0  0  0  0  0  0  0  0
  -25.3060  -13.8820   20.4780 C   0  0  0  0  0  0  0  0  0  0  0  0
  -24.2590  -13.1160   20.9120 C   0  0  0  0  0  0  0  0  0  0  0  0
  -24.6920  -11.7590   20.8050 C   0  0  0  0  0  0  0  0  0  0  0  0
  -26.3110  -12.9920   20.1340 N   0  0  0  0  0  0  0  0  0  0  0  0
  -25.9500  -11.7070   20.3870 N   0  0  0  0  0  0  0  0  0  0  0  0
  -23.9590  -10.5040   21.0210 C   0  0  0  0  0  0  0  0  0  0  0  0
  -24.4390   -9.5110   21.9030 C   0  0  0  0  0  3  0  0  0  0  0  0
  -23.7090   -8.3200   22.1060 C   0  0  0  0  0  3  0  0  0  0  0  0
  -22.4850   -8.1140   21.4270 C   0  0  0  0  0  0  0  0  0  0  0  0
  -22.0230   -9.0960   20.5320 C   0  0  0  0  0  3  0  0  0  0  0  0
  -22.7530  -10.2780   20.3280 C   0  0  0  0  0  3  0  0  0  0  0  0
  -21.7190   -6.9790   21.5410 O   0  0  0  0  0  0  0  0  0  0  0  0
  -21.7200   -6.2230   22.6870 C   0  0  0  0  0  0  0  0  0  0  0  0
  -21.3840   -6.7740   23.9420 C   0  0  0  0  0  3  0  0  0  0  0  0
  -21.3300   -5.9480   25.0820 C   0  0  0  0  0  3  0  0  0  0  0  0
  -21.6000   -4.5720   24.9690 C   0  0  0  0  0  0  0  0  0  0  0  0
  -21.9270   -4.0190   23.7190 C   0  0  0  0  0  3  0  0  0  0  0  0
  -21.9840   -4.8430   22.5810 C   0  0  0  0  0  0  0  0  0  0  0  0
  -22.2800   -4.3010   21.3750 F   0  0  0  0  0  0  0  0  0  0  0  0
  -21.5390   -3.7770   26.0630 F   0  0  0  0  0  0  0  0  0  0  0  0
  -22.9000  -13.6080   21.3160 C   0  0  0  0  0  0  0  0  0  0  0  0
  -22.2440  -12.9070   22.2340 N   0  0  0  0  0  0  0  0  0  0  0  0
  -22.4320  -14.6480   20.8530 O   0  0  0  0  0  0  0  0  0  0  0  0
  -22.6370  -12.0640   22.6250 H   0  0  0  0  0  0  0  0  0  0  0  0
  -21.3350  -13.2160   22.5470 H   0  0  0  0  0  0  0  0  0  0  0  0
  -25.4820  -15.2540   20.3300 N   0  0  0  0  0  0  0  0  0  0  0  0
  -24.7440  -15.9230   20.5250 H   0  0  0  0  0  0  0  0  0  0  0  0
  -26.3250  -15.6920   19.9830 H   0  0  0  0  0  0  0  0  0  0  0  0
  -28.3530  -25.1900   20.3750 C   0  0  0  0  0  2  0  0  0  0  0  0
  -28.4410  -26.6310   20.2470 O   0  0  0  0  0  0  0  0  0  0  0  0
  -24.6170  -31.8670   23.2280 C   0  0  0  0  0  0  0  0  0  0  0  0
  -27.2680  -27.3670   20.2130 C   0  0  0  0  0  0  0  0  0  0  0  0
  -23.4160  -30.4490   21.5960 C   0  0  0  0  0  3  0  0  0  0  0  0
  -24.8740  -28.8910   20.1930 C   0  0  0  0  0  0  0  0  0  0  0  0
  -25.9440  -30.8000   21.4020 C   0  0  0  0  0  2  0  0  0  0  0  0
  -26.0330  -29.4200   20.7750 C   0  0  0  0  0  0  0  0  0  0  0  0
  -27.2330  -28.6690   20.7720 C   0  0  0  0  0  3  0  0  0  0  0  0
  -26.0900  -26.8580   19.6200 C   0  0  0  0  0  3  0  0  0  0  0  0
  -24.9000  -27.6110   19.6110 C   0  0  0  0  0  3  0  0  0  0  0  0
  -23.6300  -29.7530   20.2260 C   0  0  0  0  0  2  0  0  0  0  0  0
  -24.6780  -31.0550   22.1340 N   0  0  0  0  0  0  0  0  0  0  0  0
  -23.5340  -32.1460   23.7600 O   0  0  0  0  0  0  0  0  0  0  0  0
  -22.7590  -29.4400   22.5650 C   0  0  0  0  0  0  0  0  0  0  0  0
  -21.4320  -29.2690   22.4430 N   0  0  0  0  0  0  0  0  0  0  0  0
  -23.4380  -28.8150   23.3830 O   0  0  0  0  0  0  0  0  0  0  0  0
  -20.9450  -29.8230   21.7530 H   0  0  0  0  0  0  0  0  0  0  0  0
  -18.0500  -28.1040   22.9570 C   0  0  0  0  0  0  0  0  0  0  0  0
  -20.6100  -28.3410   23.2200 C   0  0  0  0  0  3  0  0  0  0  0  0
  -20.6980  -26.9060   22.6500 C   0  0  0  0  0  2  0  0  0  0  0  0
  -19.5900  -26.5900   21.6400 C   0  0  0  0  0  2  0  0  0  0  0  0
  -18.2120  -26.7500   22.2860 C   0  0  0  0  0  2  0  0  0  0  0  0
  -19.1760  -28.8580   23.3810 C   0  0  0  0  0  0  0  0  0  0  0  0
  -18.9710  -30.1250   23.9680 C   0  0  0  0  0  3  0  0  0  0  0  0
  -17.6720  -30.6410   24.1340 C   0  0  0  0  0  3  0  0  0  0  0  0
  -16.5600  -29.8830   23.7270 C   0  0  0  0  0  3  0  0  0  0  0  0
  -16.7490  -28.6180   23.1450 C   0  0  0  0  0  3  0  0  0  0  0  0
  -25.9010  -32.5030   23.8470 C   0  0  0  0  0  3  0  0  0  0  0  0
  -25.5900  -33.9010   24.1710 N   0  0  0  0  0  0  0  0  0  0  0  0
  -25.9160  -34.9510   23.4060 C   0  0  0  0  0  0  0  0  0  0  0  0
  -26.5810  -34.8440   22.3720 O   0  0  0  0  0  0  0  0  0  0  0  0
  -24.9970  -34.0590   24.9740 H   0  0  0  0  0  0  0  0  0  0  0  0
  -24.1770  -36.7320   23.0530 C   0  0  0  0  0  1  0  0  0  0  0  0
  -25.4260  -36.3390   23.8580 C   0  0  0  0  0  3  0  0  0  0  0  0
  -27.5640  -37.2350   24.6650 C   0  0  0  0  0  1  0  0  0  0  0  0
  -26.4530  -37.3960   23.7310 N   0  0  0  0  0  0  0  0  0  0  0  0
  -26.0440  -38.3150   23.8800 H   0  0  0  0  0  0  0  0  0  0  0  0
  -26.4210  -31.7360   25.1240 C   0  0  1  0  0  0  0  0  0  0  0  0
  -25.3300  -31.4990   26.1950 C   0  0  0  0  0  1  0  0  0  0  0  0
  -27.0070  -30.3590   24.7350 C   0  0  0  0  0  1  0  0  0  0  0  0
  -27.5710  -32.5350   25.7840 C   0  0  0  0  0  1  0  0  0  0  0  0
  1  5  2  0
  1  3  1  0
  2  6  1  0
  2  1  1  0
  3  8  2  0
  4  2  2  0
  5 53  1  0
  6  7  1  0
  7 13  1  0
  7  3  1  0
  9 11  1  0
 10 12  2  0
 10 13  1  0
 12 14  1  0
 13  9  2  0
 14 24  1  0
 14 11  2  0
 15 24  1  0
 16 21  1  0
 17 18  1  0
 17 16  1  0
 19 18  1  0
 19 28  1  0
 19 20  1  0
 21 15  1  0
 21 20  1  0
 22 15  2  0
 24 23  1  0
 25 26  2  0
 26 45  1  0
 27 26  1  0
 27 30  1  0
 28 29  1  0
 28 25  1  0
 29 27  2  0
 30 31  1  0
 31 32  2  0
 33 36  1  0
 33 32  1  0
 34 33  2  0
 35 34  1  0
 35 30  2  0
 36 37  1  0
 37 38  1  0
 38 39  2  0
 40 39  1  0
 40 44  1  0
 41 40  2  0
 42 37  2  0
 42 41  1  0
 43 42  1  0
 45 46  1  0
 46 49  1  0
 46 48  1  0
 47 45  2  0
 50 25  1  0
 50 51  1  0
 52 50  1  0
 54 53  1  0
 55 66  2  0
 56 54  1  0
 56 61  1  0
 57 65  1  0
 57 67  1  0
 58 64  1  0
 58 60  1  0
 59 65  1  0
 60 59  1  0
 61 60  2  0
 62 56  2  0
 63 62  1  0
 63 58  2  0
 64 57  1  0
 65 55  1  0
 67 69  2  0
 68 67  1  0
 70 68  1  0
 71 80  2  0
 71 76  1  0
 72 68  1  0
 72 76  1  0
 73 72  1  0
 74 75  1  0
 74 73  1  0
 75 71  1  0
 76 77  2  0
 77 78  1  0
 79 78  2  0
 80 79  1  0
 81 55  1  0
 81 82  1  0
 81 91  1  0
 82 85  1  0
 83 87  1  0
 83 82  1  0
 84 83  2  0
 87 86  1  0
 89 87  1  0
 89 90  1  0
 89 88  1  0
 91 94  1  1
 91 92  1  0
 93 91  1  0
M  ISO  4  15 100  24 100  53 101  54 101
M  END
>  <TORSDO>  (72) 
F 18

>  <SCORE>  (72) 
-13.541

>  <name>  (72) 
71

>  <ligand_id>  (72) 
71

>  <original_smiles>  (72) 
[H]C([H])=C1C(=C([H])C([H])([H])Oc2c([H])c([H])c3c(c2[H])C([H])([H])N(C(=O)C([H])(N([H])C(=O)C([H])(N([H])C([H])([H])[H])C([H])([H])[H])C(C([H])([H])[H])(C([H])([H])[H])C([H])([H])[H])C([H])(C(=O)N([H])C2([H])c4c([H])c([H])c([H])c([H])c4C([H])([H])C([H])([H])C2([H])[H])C3([H])[H])C(=O)N(c2c([H])c([H])c(N(C(=O)N3C([H])([H])C([H])([H])C([H])([H])C([H])(n4nc(-c5c([H])c([H])c(Oc6c([H])c([H])c(F)c([H])c6F)c([H])c5[H])c(C(=O)N([H])[H])c4N([H])[H])C3([H])[H])C([H])([H])[H])c([H])c2[H])C1([H])[H]

>  <smiles>  (72) 
[H]C([H])=C1C(=C([H])C([H])([H])Oc2c([H])c([H])c3c(c2[H])C([H])([H])N(C(=O)C([H])(N([H])C(=O)C([H])(N([H])C([H])([H])[H])C([H])([H])[H])C(C([H])([H])[H])(C([H])([H])[H])C([H])([H])[H])C([H])(C(=O)N([H])C2([H])c4c([H])c([H])c([H])c([H])c4C([H])([H])C([H])([H])C2([H])[H])C3([H])[H])C(=O)N(c2c([H])c([H])c(N(C(=O)N3C([H])([H])C([H])([H])C([H])([H])C([H])(n4nc(-c5c([H])c([H])c(Oc6c([H])c([H])c(F)c([H])c6F)c([H])c5[H])c(C(=O)N([H])[H])c4N([H])[H])C3([H])[H])C([H])([H])[H])c([H])c2[H])C1([H])[H]

$$$$
72:0:0
     RDKit          3D

 98107  0  0  1  0  0  0  0  0999 V2000
  -29.6810  -23.1510   20.9290 C   0  0  0  0  0  0  0  0  0  0  0  0
  -30.8130  -22.9060   21.8280 C   0  0  0  0  0  0  0  0  0  0  0  0
  -29.0590  -21.9350   20.3260 C   0  0  0  0  0  0  0  0  0  0  0  0
  -30.9720  -23.5860   22.9790 C   0  0  0  0  0  2  0  0  0  0  0  0
  -29.2640  -24.4490   20.7490 C   0  0  0  0  0  3  0  0  0  0  0  0
  -31.8130  -21.8290   21.4830 C   0  0  0  0  0  2  0  0  0  0  0  0
  -31.3280  -20.9770   20.3120 C   0  0  0  0  0  2  0  0  0  0  0  0
  -29.8680  -20.8020   20.2730 N   0  0  0  0  0  0  0  0  0  0  0  0
  -27.8860  -21.9190   19.9390 O   0  0  0  0  0  0  0  0  0  0  0  0
  -28.7280  -19.3650   18.6310 C   0  0  0  0  0  3  0  0  0  0  0  0
  -29.9170  -18.2550   20.4570 C   0  0  0  0  0  3  0  0  0  0  0  0
  -28.9380  -16.9300   18.6650 C   0  0  0  0  0  3  0  0  0  0  0  0
  -29.4670  -19.4730   19.8290 C   0  0  0  0  0  0  0  0  0  0  0  0
  -28.4540  -18.1090   18.0620 C   0  0  0  0  0  0  0  0  0  0  0  0
  -29.6590  -16.9630   19.8800 C   0  0  0  0  0  0  0  0  0  0  0  0
  -30.6310  -14.6330   20.0210 C   0  0  0  0  0  0  0  0  0  0  0  0
  -30.3150  -12.4330   18.9300 C   0  0  0  0  0  2  0  0  0  0  0  0
  -29.3080  -12.6220   17.7740 C   0  0  0  0  0  2  0  0  0  0  0  0
  -27.8590  -12.4690   18.2800 C   0  0  0  0  0  2  0  0  0  0  0  0
  -27.5850  -13.2880   19.5690 C   0  0  0  0  0  3  0  0  0  0  0  0
  -28.7040  -13.0920   20.6170 C   0  0  0  0  0  2  0  0  0  0  0  0
  -29.9870  -13.4230   19.9760 N   0  0  0  0  0  0  0  0  0  0  0  0
  -31.7460  -14.7920   19.5180 O   0  0  0  0  0  0  0  0  0  0  0  0
  -29.9400  -15.6920   20.5370 N   0  0  0  0  0  0  0  0  0  0  0  0
  -29.1770  -15.3850   21.1210 H   0  0  0  0  0  0  0  0  0  0  0  0
  -25.2340  -13.8910   20.4170 C   0  0  0  0  0  0  0  0  0  0  0  0
  -24.1810  -13.1160   20.8280 C   0  0  0  0  0  0  0  0  0  0  0  0
  -24.6360  -11.7640   20.7520 C   0  0  0  0  0  0  0  0  0  0  0  0
  -26.2600  -13.0060   20.1160 N   0  0  0  0  0  0  0  0  0  0  0  0
  -25.9060  -11.7230   20.3740 N   0  0  0  0  0  0  0  0  0  0  0  0
  -23.9130  -10.5030   20.9630 C   0  0  0  0  0  0  0  0  0  0  0  0
  -24.3710   -9.5350   21.8850 C   0  0  0  0  0  3  0  0  0  0  0  0
  -23.6490   -8.3380   22.0810 C   0  0  0  0  0  3  0  0  0  0  0  0
  -22.4550   -8.1020   21.3590 C   0  0  0  0  0  0  0  0  0  0  0  0
  -22.0180   -9.0580   20.4270 C   0  0  0  0  0  3  0  0  0  0  0  0
  -22.7400  -10.2470   20.2270 C   0  0  0  0  0  3  0  0  0  0  0  0
  -21.7020   -6.9550   21.4630 O   0  0  0  0  0  0  0  0  0  0  0  0
  -21.6720   -6.2210   22.6200 C   0  0  0  0  0  0  0  0  0  0  0  0
  -21.2320   -6.7730   23.8440 C   0  0  0  0  0  3  0  0  0  0  0  0
  -21.1500   -5.9610   24.9930 C   0  0  0  0  0  3  0  0  0  0  0  0
  -21.4990   -4.5980   24.9210 C   0  0  0  0  0  0  0  0  0  0  0  0
  -21.9330   -4.0470   23.7020 C   0  0  0  0  0  3  0  0  0  0  0  0
  -22.0160   -4.8560   22.5550 C   0  0  0  0  0  0  0  0  0  0  0  0
  -22.4140   -4.3140   21.3800 F   0  0  0  0  0  0  0  0  0  0  0  0
  -21.4150   -3.8190   26.0240 F   0  0  0  0  0  0  0  0  0  0  0  0
  -22.8050  -13.5970   21.1830 C   0  0  0  0  0  0  0  0  0  0  0  0
  -22.1190  -12.8900   22.0750 N   0  0  0  0  0  0  0  0  0  0  0  0
  -22.3450  -14.6330   20.7060 O   0  0  0  0  0  0  0  0  0  0  0  0
  -22.5050  -12.0540   22.4880 H   0  0  0  0  0  0  0  0  0  0  0  0
  -21.1960  -13.1930   22.3510 H   0  0  0  0  0  0  0  0  0  0  0  0
  -25.4000  -15.2620   20.2540 N   0  0  0  0  0  0  0  0  0  0  0  0
  -24.6550  -15.9250   20.4290 H   0  0  0  0  0  0  0  0  0  0  0  0
  -26.2460  -15.7030   19.9150 H   0  0  0  0  0  0  0  0  0  0  0  0
  -27.6910  -18.0360   16.8990 N   0  0  0  0  0  0  0  0  0  0  0  0
  -27.0610  -18.8110   16.7090 H   0  0  0  0  0  0  0  0  0  0  0  0
  -27.2530  -17.1450   16.6850 H   0  0  0  0  0  0  0  0  0  0  0  0
  -28.1220  -25.1280   19.9670 C   0  0  0  0  0  2  0  0  0  0  0  0
  -28.2160  -26.5890   20.0610 O   0  0  0  0  0  0  0  0  0  0  0  0
  -24.4910  -31.8860   23.1460 C   0  0  0  0  0  0  0  0  0  0  0  0
  -27.0610  -27.3670   20.0400 C   0  0  0  0  0  0  0  0  0  0  0  0
  -23.2590  -30.4960   21.5160 C   0  0  0  0  0  3  0  0  0  0  0  0
  -24.6850  -28.9420   20.0700 C   0  0  0  0  0  0  0  0  0  0  0  0
  -25.7910  -30.8200   21.2950 C   0  0  0  0  0  2  0  0  0  0  0  0
  -25.8580  -29.4430   20.6480 C   0  0  0  0  0  0  0  0  0  0  0  0
  -27.0470  -28.6650   20.6230 C   0  0  0  0  0  3  0  0  0  0  0  0
  -25.8660  -26.8990   19.4480 C   0  0  0  0  0  3  0  0  0  0  0  0
  -24.6880  -27.6740   19.4640 C   0  0  0  0  0  3  0  0  0  0  0  0
  -23.4500  -29.8160   20.1330 C   0  0  0  0  0  2  0  0  0  0  0  0
  -24.5330  -31.0840   22.0430 N   0  0  0  0  0  0  0  0  0  0  0  0
  -23.4160  -32.1650   23.6970 O   0  0  0  0  0  0  0  0  0  0  0  0
  -22.6080  -29.4790   22.4830 C   0  0  0  0  0  0  0  0  0  0  0  0
  -21.2790  -29.3130   22.3750 N   0  0  0  0  0  0  0  0  0  0  0  0
  -23.2960  -28.8430   23.2850 O   0  0  0  0  0  0  0  0  0  0  0  0
  -20.7860  -29.8760   21.6960 H   0  0  0  0  0  0  0  0  0  0  0  0
  -17.8990  -28.1580   22.9280 C   0  0  0  0  0  0  0  0  0  0  0  0
  -20.4640  -28.3780   23.1520 C   0  0  0  0  0  3  0  0  0  0  0  0
  -20.5370  -26.9520   22.5610 C   0  0  0  0  0  2  0  0  0  0  0  0
  -19.4110  -26.6540   21.5640 C   0  0  0  0  0  2  0  0  0  0  0  0
  -18.0440  -26.8120   22.2360 C   0  0  0  0  0  2  0  0  0  0  0  0
  -19.0360  -28.9010   23.3440 C   0  0  0  0  0  0  0  0  0  0  0  0
  -18.8460  -30.1610   23.9490 C   0  0  0  0  0  3  0  0  0  0  0  0
  -17.5520  -30.6800   24.1430 C   0  0  0  0  0  3  0  0  0  0  0  0
  -16.4300  -29.9330   23.7440 C   0  0  0  0  0  3  0  0  0  0  0  0
  -16.6040  -28.6730   23.1430 C   0  0  0  0  0  3  0  0  0  0  0  0
  -25.7850  -32.5110   23.7550 C   0  0  0  0  0  3  0  0  0  0  0  0
  -26.3280  -31.7180   25.0060 C   0  0  1  0  0  0  0  0  0  0  0  0
  -25.2560  -31.4540   26.0900 C   0  0  0  0  0  1  0  0  0  0  0  0
  -26.9090  -30.3520   24.5750 C   0  0  0  0  0  1  0  0  0  0  0  0
  -27.4870  -32.5050   25.6630 C   0  0  0  0  0  1  0  0  0  0  0  0
  -25.4770  -33.9020   24.1150 N   0  0  0  0  0  0  0  0  0  0  0  0
  -25.8020  -34.9700   23.3760 C   0  0  0  0  0  0  0  0  0  0  0  0
  -26.4620  -34.8880   22.3360 O   0  0  0  0  0  0  0  0  0  0  0  0
  -24.8890  -34.0390   24.9240 H   0  0  0  0  0  0  0  0  0  0  0  0
  -24.0860  -36.7810   23.0600 C   0  0  0  0  0  1  0  0  0  0  0  0
  -25.3190  -36.3480   23.8670 C   0  0  0  0  0  3  0  0  0  0  0  0
  -27.4480  -37.2060   24.7410 C   0  0  0  0  0  1  0  0  0  0  0  0
  -26.3570  -37.4000   23.7890 N   0  0  0  0  0  0  0  0  0  0  0  0
  -25.9530  -38.3180   23.9510 H   0  0  0  0  0  0  0  0  0  0  0  0
  1  2  1  0
  2  4  2  0
  3  1  1  0
  5  1  2  0
  6  2  1  0
  7  6  1  0
  8  7  1  0
  8  3  1  0
  9  3  2  0
 10 13  1  0
 12 15  2  0
 13  8  1  0
 13 11  2  0
 14 10  2  0
 14 12  1  0
 15 11  1  0
 15 24  1  0
 16 24  1  0
 17 22  1  0
 18 19  1  0
 18 17  1  0
 20 19  1  0
 20 29  1  0
 20 21  1  0
 22 16  1  0
 22 21  1  0
 23 16  2  0
 24 25  1  0
 26 27  2  0
 27 46  1  0
 28 27  1  0
 28 31  1  0
 29 30  1  0
 29 26  1  0
 30 28  2  0
 31 32  1  0
 32 33  2  0
 34 37  1  0
 34 33  1  0
 35 34  2  0
 36 35  1  0
 36 31  2  0
 37 38  1  0
 38 39  1  0
 39 40  2  0
 41 40  1  0
 41 45  1  0
 42 41  2  0
 43 38  2  0
 43 42  1  0
 44 43  1  0
 46 47  1  0
 47 50  1  0
 47 49  1  0
 48 46  2  0
 51 26  1  0
 51 52  1  0
 53 51  1  0
 54 14  1  0
 55 54  1  0
 56 54  1  0
 57 58  1  0
 57  5  1  0
 59 70  2  0
 60 58  1  0
 60 65  1  0
 61 69  1  0
 61 71  1  0
 62 68  1  0
 62 64  1  0
 63 69  1  0
 64 63  1  0
 65 64  2  0
 66 67  1  0
 66 60  2  0
 67 62  2  0
 68 61  1  0
 69 59  1  0
 71 73  2  0
 72 71  1  0
 74 72  1  0
 75 84  2  0
 75 80  1  0
 76 72  1  0
 76 80  1  0
 77 76  1  0
 78 79  1  0
 78 77  1  0
 79 75  1  0
 80 81  2  0
 81 82  1  0
 83 82  2  0
 84 83  1  0
 85 59  1  0
 85 90  1  0
 85 86  1  0
 86 89  1  1
 86 87  1  0
 88 86  1  0
 90 93  1  0
 91 95  1  0
 91 90  1  0
 92 91  2  0
 95 94  1  0
 97 95  1  0
 97 98  1  0
 97 96  1  0
M  ISO  4  16 100  24 100  57 101  58 101
M  END
>  <TORSDO>  (73) 
F 19

>  <SCORE>  (73) 
-12.913

>  <name>  (73) 
72

>  <ligand_id>  (73) 
72

>  <original_smiles>  (73) 
[H]C([H])=C1C(=C([H])C([H])([H])Oc2c([H])c([H])c3c(c2[H])C([H])([H])N(C(=O)C([H])(N([H])C(=O)C([H])(N([H])C([H])([H])[H])C([H])([H])[H])C(C([H])([H])[H])(C([H])([H])[H])C([H])([H])[H])C([H])(C(=O)N([H])C2([H])c4c([H])c([H])c([H])c([H])c4C([H])([H])C([H])([H])C2([H])[H])C3([H])[H])C(=O)N(c2c([H])c(N([H])[H])c([H])c(N([H])C(=O)N3C([H])([H])C([H])([H])C([H])([H])C([H])(n4nc(-c5c([H])c([H])c(Oc6c([H])c([H])c(F)c([H])c6F)c([H])c5[H])c(C(=O)N([H])[H])c4N([H])[H])C3([H])[H])c2[H])C([H])([H])C1([H])[H]

>  <smiles>  (73) 
[H]C([H])=C1C(=C([H])C([H])([H])Oc2c([H])c([H])c3c(c2[H])C([H])([H])N(C(=O)C([H])(N([H])C(=O)C([H])(N([H])C([H])([H])[H])C([H])([H])[H])C(C([H])([H])[H])(C([H])([H])[H])C([H])([H])[H])C([H])(C(=O)N([H])C2([H])c4c([H])c([H])c([H])c([H])c4C([H])([H])C([H])([H])C2([H])[H])C3([H])[H])C(=O)N(c2c([H])c(N([H])[H])c([H])c(N([H])C(=O)N3C([H])([H])C([H])([H])C([H])([H])C([H])(n4nc(-c5c([H])c([H])c(Oc6c([H])c([H])c(F)c([H])c6F)c([H])c5[H])c(C(=O)N([H])[H])c4N([H])[H])C3([H])[H])c2[H])C([H])([H])C1([H])[H]

$$$$
73:0:0
     RDKit          3D

 92101  0  0  1  0  0  0  0  0999 V2000
  -30.3080  -23.8460   20.2880 C   0  0  0  0  0  3  0  0  0  0  0  0
  -28.9910  -23.8480   20.0850 C   0  0  0  0  0  0  0  0  0  0  0  0
  -28.5690  -22.4290   20.0540 C   0  0  0  0  0  0  0  0  0  0  0  0
  -30.8520  -22.4360   20.3950 C   0  0  0  0  0  2  0  0  0  0  0  0
  -29.6520  -21.5990   20.2520 N   0  0  0  0  0  0  0  0  0  0  0  0
  -27.4130  -22.0410   19.8550 O   0  0  0  0  0  0  0  0  0  0  0  0
  -28.5750  -19.3150   20.6220 C   0  0  0  0  0  3  0  0  0  0  0  0
  -30.9080  -19.3880   20.0760 C   0  0  0  0  0  3  0  0  0  0  0  0
  -28.6480  -17.8940   20.7020 C   0  0  0  0  0  3  0  0  0  0  0  0
  -30.9800  -17.9590   20.1400 C   0  0  0  0  0  3  0  0  0  0  0  0
  -29.7040  -20.1200   20.3050 C   0  0  0  0  0  0  0  0  0  0  0  0
  -29.8430  -17.1680   20.4610 C   0  0  0  0  0  0  0  0  0  0  0  0
  -30.5790  -14.6810   20.1240 C   0  0  0  0  0  0  0  0  0  0  0  0
  -30.3150  -12.4690   19.0180 C   0  0  0  0  0  2  0  0  0  0  0  0
  -29.3130  -12.6290   17.8530 C   0  0  0  0  0  2  0  0  0  0  0  0
  -27.8600  -12.4680   18.3460 C   0  0  0  0  0  2  0  0  0  0  0  0
  -27.5650  -13.3030   19.6190 C   0  0  0  0  0  3  0  0  0  0  0  0
  -28.6740  -13.1070   20.6800 C   0  0  0  0  0  2  0  0  0  0  0  0
  -29.9600  -13.4590   20.0530 N   0  0  0  0  0  0  0  0  0  0  0  0
  -31.7160  -14.8540   19.6740 O   0  0  0  0  0  0  0  0  0  0  0  0
  -29.7920  -15.7080   20.5740 N   0  0  0  0  0  0  0  0  0  0  0  0
  -28.9190  -15.3620   20.9430 H   0  0  0  0  0  0  0  0  0  0  0  0
  -25.2090  -13.9040   20.4560 C   0  0  0  0  0  0  0  0  0  0  0  0
  -24.1540  -13.1300   20.8560 C   0  0  0  0  0  0  0  0  0  0  0  0
  -24.6040  -11.7770   20.7760 C   0  0  0  0  0  0  0  0  0  0  0  0
  -26.2360  -13.0210   20.1570 N   0  0  0  0  0  0  0  0  0  0  0  0
  -25.8790  -11.7360   20.4090 N   0  0  0  0  0  0  0  0  0  0  0  0
  -23.8780  -10.5160   20.9720 C   0  0  0  0  0  0  0  0  0  0  0  0
  -24.3190   -9.5450   21.8980 C   0  0  0  0  0  3  0  0  0  0  0  0
  -23.5930   -8.3480   22.0810 C   0  0  0  0  0  3  0  0  0  0  0  0
  -22.4120   -8.1130   21.3390 C   0  0  0  0  0  0  0  0  0  0  0  0
  -21.9910   -9.0720   20.4000 C   0  0  0  0  0  3  0  0  0  0  0  0
  -22.7170  -10.2600   20.2150 C   0  0  0  0  0  3  0  0  0  0  0  0
  -21.6580   -6.9680   21.4310 O   0  0  0  0  0  0  0  0  0  0  0  0
  -21.5830   -6.2480   22.5970 C   0  0  0  0  0  0  0  0  0  0  0  0
  -21.1180   -6.8240   23.7990 C   0  0  0  0  0  3  0  0  0  0  0  0
  -20.9920   -6.0290   24.9560 C   0  0  0  0  0  3  0  0  0  0  0  0
  -21.3190   -4.6600   24.9120 C   0  0  0  0  0  0  0  0  0  0  0  0
  -21.7760   -4.0850   23.7130 C   0  0  0  0  0  3  0  0  0  0  0  0
  -21.9050   -4.8760   22.5580 C   0  0  0  0  0  0  0  0  0  0  0  0
  -22.3250   -4.3120   21.4010 F   0  0  0  0  0  0  0  0  0  0  0  0
  -21.1900   -3.8960   26.0210 F   0  0  0  0  0  0  0  0  0  0  0  0
  -22.7720  -13.6100   21.1980 C   0  0  0  0  0  0  0  0  0  0  0  0
  -22.0790  -12.9040   22.0840 N   0  0  0  0  0  0  0  0  0  0  0  0
  -22.3180  -14.6460   20.7160 O   0  0  0  0  0  0  0  0  0  0  0  0
  -22.4590  -12.0660   22.4980 H   0  0  0  0  0  0  0  0  0  0  0  0
  -21.1540  -13.2080   22.3550 H   0  0  0  0  0  0  0  0  0  0  0  0
  -25.3750  -15.2770   20.2990 N   0  0  0  0  0  0  0  0  0  0  0  0
  -24.6140  -15.9290   20.4490 H   0  0  0  0  0  0  0  0  0  0  0  0
  -26.1940  -15.7130   19.8960 H   0  0  0  0  0  0  0  0  0  0  0  0
  -28.0060  -25.0360   19.8110 C   0  0  0  0  0  2  0  0  0  0  0  0
  -28.3290  -26.4620   20.1010 O   0  0  0  0  0  0  0  0  0  0  0  0
  -24.6430  -31.8630   23.2280 C   0  0  0  0  0  0  0  0  0  0  0  0
  -27.2290  -27.3480   20.0660 C   0  0  0  0  0  0  0  0  0  0  0  0
  -23.4300  -30.4960   21.5750 C   0  0  0  0  0  3  0  0  0  0  0  0
  -24.8690  -28.9810   20.1110 C   0  0  0  0  0  0  0  0  0  0  0  0
  -25.9720  -30.8120   21.3820 C   0  0  0  0  0  2  0  0  0  0  0  0
  -26.0470  -29.4470   20.7090 C   0  0  0  0  0  0  0  0  0  0  0  0
  -27.2300  -28.6440   20.6790 C   0  0  0  0  0  3  0  0  0  0  0  0
  -26.0200  -26.9530   19.4410 C   0  0  0  0  0  3  0  0  0  0  0  0
  -24.8580  -27.7380   19.4690 C   0  0  0  0  0  3  0  0  0  0  0  0
  -23.6350  -29.8540   20.1810 C   0  0  0  0  0  2  0  0  0  0  0  0
  -24.7020  -31.0730   22.1180 N   0  0  0  0  0  0  0  0  0  0  0  0
  -23.5630  -32.1330   23.7720 O   0  0  0  0  0  0  0  0  0  0  0  0
  -22.7740  -29.4590   22.5180 C   0  0  0  0  0  0  0  0  0  0  0  0
  -21.4470  -29.2830   22.3970 N   0  0  0  0  0  0  0  0  0  0  0  0
  -23.4570  -28.8170   23.3210 O   0  0  0  0  0  0  0  0  0  0  0  0
  -20.9540  -29.8530   21.7240 H   0  0  0  0  0  0  0  0  0  0  0  0
  -18.0690  -28.0900   22.9060 C   0  0  0  0  0  0  0  0  0  0  0  0
  -20.6310  -28.3340   23.1580 C   0  0  0  0  0  3  0  0  0  0  0  0
  -20.7210  -26.9140   22.5550 C   0  0  0  0  0  2  0  0  0  0  0  0
  -19.6080  -26.6140   21.5460 C   0  0  0  0  0  2  0  0  0  0  0  0
  -18.2320  -26.7530   22.2060 C   0  0  0  0  0  2  0  0  0  0  0  0
  -19.1940  -28.8400   23.3410 C   0  0  0  0  0  0  0  0  0  0  0  0
  -18.9850  -30.0930   23.9570 C   0  0  0  0  0  3  0  0  0  0  0  0
  -17.6830  -30.5960   24.1440 C   0  0  0  0  0  3  0  0  0  0  0  0
  -16.5720  -29.8420   23.7260 C   0  0  0  0  0  3  0  0  0  0  0  0
  -16.7660  -28.5910   23.1130 C   0  0  0  0  0  3  0  0  0  0  0  0
  -25.9300  -32.4860   23.8520 C   0  0  0  0  0  3  0  0  0  0  0  0
  -25.6240  -33.8810   24.1990 N   0  0  0  0  0  0  0  0  0  0  0  0
  -25.9310  -34.9390   23.4380 C   0  0  0  0  0  0  0  0  0  0  0  0
  -26.5730  -34.8440   22.3890 O   0  0  0  0  0  0  0  0  0  0  0  0
  -25.0480  -34.0290   25.0150 H   0  0  0  0  0  0  0  0  0  0  0  0
  -24.1780  -36.7200   23.1550 C   0  0  0  0  0  1  0  0  0  0  0  0
  -25.4510  -36.3230   23.9170 C   0  0  0  0  0  3  0  0  0  0  0  0
  -27.6110  -37.2210   24.6670 C   0  0  0  0  0  1  0  0  0  0  0  0
  -26.4700  -37.3850   23.7690 N   0  0  0  0  0  0  0  0  0  0  0  0
  -26.0630  -38.3010   23.9380 H   0  0  0  0  0  0  0  0  0  0  0  0
  -26.4470  -31.6990   25.1200 C   0  0  1  0  0  0  0  0  0  0  0  0
  -25.3550  -31.4530   26.1860 C   0  0  0  0  0  1  0  0  0  0  0  0
  -27.0240  -30.3230   24.7120 C   0  0  0  0  0  1  0  0  0  0  0  0
  -27.6010  -32.4820   25.7870 C   0  0  0  0  0  1  0  0  0  0  0  0
  1  4  1  0
  2  1  2  0
  3  2  1  0
  3  5  1  0
  5 11  1  0
  5  4  1  0
  6  3  2  0
  7  9  1  0
  8 10  2  0
  8 11  1  0
 10 12  1  0
 11  7  2  0
 12 21  1  0
 12  9  2  0
 13 21  1  0
 14 19  1  0
 15 16  1  0
 15 14  1  0
 17 16  1  0
 17 26  1  0
 17 18  1  0
 19 13  1  0
 19 18  1  0
 20 13  2  0
 21 22  1  0
 23 24  2  0
 24 43  1  0
 25 24  1  0
 25 28  1  0
 26 27  1  0
 26 23  1  0
 27 25  2  0
 28 29  1  0
 29 30  2  0
 31 34  1  0
 31 30  1  0
 32 31  2  0
 33 32  1  0
 33 28  2  0
 34 35  1  0
 35 36  1  0
 36 37  2  0
 38 37  1  0
 38 42  1  0
 39 38  2  0
 40 35  2  0
 40 39  1  0
 41 40  1  0
 43 44  1  0
 44 47  1  0
 44 46  1  0
 45 43  2  0
 48 49  1  0
 48 23  1  0
 50 48  1  0
 51  2  1  0
 51 52  1  0
 53 64  2  0
 54 52  1  0
 54 59  1  0
 55 63  1  0
 55 65  1  0
 56 62  1  0
 56 58  1  0
 57 63  1  0
 58 57  1  0
 59 58  2  0
 60 61  1  0
 60 54  2  0
 61 56  2  0
 62 55  1  0
 63 53  1  0
 65 67  2  0
 66 65  1  0
 68 66  1  0
 69 78  2  0
 69 74  1  0
 70 66  1  0
 70 74  1  0
 71 70  1  0
 72 73  1  0
 72 71  1  0
 73 69  1  0
 74 75  2  0
 75 76  1  0
 77 76  2  0
 78 77  1  0
 79 53  1  0
 79 80  1  0
 79 89  1  0
 80 83  1  0
 81 85  1  0
 81 80  1  0
 82 81  2  0
 85 84  1  0
 87 85  1  0
 87 88  1  0
 87 86  1  0
 89 92  1  1
 89 90  1  0
 91 89  1  0
M  ISO  4  13 100  21 100  51 101  52 101
M  END
>  <TORSDO>  (74) 
F 18

>  <SCORE>  (74) 
-14.678

>  <name>  (74) 
73

>  <ligand_id>  (74) 
73

>  <original_smiles>  (74) 
[H]C1=C(C([H])([H])Oc2c([H])c([H])c3c(c2[H])C([H])([H])N(C(=O)C([H])(N([H])C(=O)C([H])(N([H])C([H])([H])[H])C([H])([H])[H])C(C([H])([H])[H])(C([H])([H])[H])C([H])([H])[H])C([H])(C(=O)N([H])C2([H])c4c([H])c([H])c([H])c([H])c4C([H])([H])C([H])([H])C2([H])[H])C3([H])[H])C(=O)N(c2c([H])c([H])c(N([H])C(=O)N3C([H])([H])C([H])([H])C([H])([H])C([H])(n4nc(-c5c([H])c([H])c(Oc6c([H])c([H])c(F)c([H])c6F)c([H])c5[H])c(C(=O)N([H])[H])c4N([H])[H])C3([H])[H])c([H])c2[H])C1([H])[H]

>  <smiles>  (74) 
[H]C1=C(C([H])([H])Oc2c([H])c([H])c3c(c2[H])C([H])([H])N(C(=O)C([H])(N([H])C(=O)C([H])(N([H])C([H])([H])[H])C([H])([H])[H])C(C([H])([H])[H])(C([H])([H])[H])C([H])([H])[H])C([H])(C(=O)N([H])C2([H])c4c([H])c([H])c([H])c([H])c4C([H])([H])C([H])([H])C2([H])[H])C3([H])[H])C(=O)N(c2c([H])c([H])c(N([H])C(=O)N3C([H])([H])C([H])([H])C([H])([H])C([H])(n4nc(-c5c([H])c([H])c(Oc6c([H])c([H])c(F)c([H])c6F)c([H])c5[H])c(C(=O)N([H])[H])c4N([H])[H])C3([H])[H])c([H])c2[H])C1([H])[H]

$$$$
74:0:0
     RDKit          3D

 97105  0  0  1  0  0  0  0  0999 V2000
  -30.7330  -21.1800   21.6160 C   0  0  0  0  0  0  0  0  0  0  0  0
  -30.1100  -22.1600   20.9200 N   0  0  0  0  0  0  0  0  0  0  0  0
  -31.5410  -21.5410   22.6150 N   0  0  0  0  0  4  0  0  0  0  0  0
  -29.4970  -21.8770   20.1630 H   0  0  0  0  0  0  0  0  0  0  0  0
  -31.9810  -20.8290   23.1780 H   0  0  0  0  0  0  0  0  0  0  0  0
  -31.6820  -22.5060   22.8540 H   0  0  0  0  0  0  0  0  0  0  0  0
  -31.6580  -18.8410   21.5270 C   0  0  0  0  0  3  0  0  0  0  0  0
  -31.4990  -17.4460   21.3500 C   0  0  0  0  0  3  0  0  0  0  0  0
  -29.3250  -19.1960   20.9480 C   0  0  0  0  0  3  0  0  0  0  0  0
  -30.5710  -19.7340   21.3390 C   0  0  0  0  0  0  0  0  0  0  0  0
  -30.2450  -16.9100   20.9730 C   0  0  0  0  0  0  0  0  0  0  0  0
  -29.1660  -17.8020   20.7710 C   0  0  0  0  0  0  0  0  0  0  0  0
  -27.9570  -17.3060   20.4080 F   0  0  0  0  0  0  0  0  0  0  0  0
  -30.6670  -14.5620   20.2010 C   0  0  0  0  0  0  0  0  0  0  0  0
  -30.3240  -12.4620   18.9390 C   0  0  0  0  0  2  0  0  0  0  0  0
  -29.3220  -12.7180   17.7920 C   0  0  0  0  0  2  0  0  0  0  0  0
  -27.8710  -12.5460   18.2870 C   0  0  0  0  0  2  0  0  0  0  0  0
  -27.5940  -13.3260   19.6010 C   0  0  0  0  0  3  0  0  0  0  0  0
  -28.6990  -13.0440   20.6450 C   0  0  0  0  0  2  0  0  0  0  0  0
  -29.9960  -13.3880   20.0350 N   0  0  0  0  0  0  0  0  0  0  0  0
  -31.7640  -14.7830   19.6770 O   0  0  0  0  0  0  0  0  0  0  0  0
  -29.9800  -15.5100   20.8650 N   0  0  0  0  0  0  0  0  0  0  0  0
  -29.0500  -15.2370   21.1390 H   0  0  0  0  0  0  0  0  0  0  0  0
  -25.2190  -13.9040   20.4090 C   0  0  0  0  0  0  0  0  0  0  0  0
  -24.1740  -13.1170   20.8130 C   0  0  0  0  0  0  0  0  0  0  0  0
  -24.6480  -11.7720   20.7530 C   0  0  0  0  0  0  0  0  0  0  0  0
  -26.2630  -13.0360   20.1290 N   0  0  0  0  0  0  0  0  0  0  0  0
  -25.9250  -11.7470   20.3920 N   0  0  0  0  0  0  0  0  0  0  0  0
  -23.9450  -10.5000   20.9610 C   0  0  0  0  0  0  0  0  0  0  0  0
  -24.4040   -9.5480   21.8990 C   0  0  0  0  0  3  0  0  0  0  0  0
  -23.7000   -8.3390   22.0950 C   0  0  0  0  0  3  0  0  0  0  0  0
  -22.5250   -8.0750   21.3530 C   0  0  0  0  0  0  0  0  0  0  0  0
  -22.0860   -9.0160   20.4040 C   0  0  0  0  0  3  0  0  0  0  0  0
  -22.7890  -10.2160   20.2080 C   0  0  0  0  0  3  0  0  0  0  0  0
  -21.7890   -6.9190   21.4580 O   0  0  0  0  0  0  0  0  0  0  0  0
  -21.7370   -6.2040   22.6270 C   0  0  0  0  0  0  0  0  0  0  0  0
  -21.2660   -6.7740   23.8300 C   0  0  0  0  0  3  0  0  0  0  0  0
  -21.1630   -5.9840   24.9910 C   0  0  0  0  0  3  0  0  0  0  0  0
  -21.5200   -4.6220   24.9510 C   0  0  0  0  0  0  0  0  0  0  0  0
  -21.9840   -4.0520   23.7530 C   0  0  0  0  0  3  0  0  0  0  0  0
  -22.0890   -4.8400   22.5940 C   0  0  0  0  0  0  0  0  0  0  0  0
  -22.5170   -4.2790   21.4360 F   0  0  0  0  0  0  0  0  0  0  0  0
  -21.4140   -3.8610   26.0640 F   0  0  0  0  0  0  0  0  0  0  0  0
  -22.7840  -13.5760   21.1450 C   0  0  0  0  0  0  0  0  0  0  0  0
  -22.0970  -12.8590   22.0270 N   0  0  0  0  0  0  0  0  0  0  0  0
  -22.3170  -14.6050   20.6590 O   0  0  0  0  0  0  0  0  0  0  0  0
  -22.4890  -12.0270   22.4410 H   0  0  0  0  0  0  0  0  0  0  0  0
  -21.1660  -13.1470   22.2930 H   0  0  0  0  0  0  0  0  0  0  0  0
  -25.3630  -15.2790   20.2450 N   0  0  0  0  0  0  0  0  0  0  0  0
  -24.5990  -15.9220   20.4230 H   0  0  0  0  0  0  0  0  0  0  0  0
  -26.2140  -15.7490   19.9600 H   0  0  0  0  0  0  0  0  0  0  0  0
  -31.5310  -24.1480   20.4070 C   0  0  0  0  0  1  0  0  0  0  0  0
  -30.2500  -23.6380   21.1030 C   0  0  0  0  0  3  0  0  0  0  0  0
  -29.0270  -24.4080   20.5300 C   0  0  0  0  0  0  0  0  0  0  0  0
  -28.3180  -23.9220   19.6420 O   0  0  0  0  0  0  0  0  0  0  0  0
  -28.7160  -25.8140   21.1060 C   0  0  0  0  0  2  0  0  0  0  0  0
  -28.4880  -26.7840   20.0670 O   0  0  0  0  0  0  0  0  0  0  0  0
  -24.6210  -31.9110   23.2400 C   0  0  0  0  0  0  0  0  0  0  0  0
  -27.3140  -27.4990   20.1530 C   0  0  0  0  0  0  0  0  0  0  0  0
  -23.4290  -30.5020   21.5910 C   0  0  0  0  0  3  0  0  0  0  0  0
  -24.9000  -28.9750   20.1710 C   0  0  0  0  0  0  0  0  0  0  0  0
  -25.9520  -30.8840   21.3990 C   0  0  0  0  0  2  0  0  0  0  0  0
  -26.0520  -29.5110   20.7620 C   0  0  0  0  0  0  0  0  0  0  0  0
  -27.2640  -28.7800   20.7500 C   0  0  0  0  0  3  0  0  0  0  0  0
  -26.1470  -26.9730   19.5640 C   0  0  0  0  0  3  0  0  0  0  0  0
  -24.9400  -27.7010   19.5740 C   0  0  0  0  0  3  0  0  0  0  0  0
  -23.6480  -29.8240   20.2130 C   0  0  0  0  0  2  0  0  0  0  0  0
  -24.6860  -31.1140   22.1350 N   0  0  0  0  0  0  0  0  0  0  0  0
  -23.5350  -32.1740   23.7780 O   0  0  0  0  0  0  0  0  0  0  0  0
  -22.7830  -29.4760   22.5480 C   0  0  0  0  0  0  0  0  0  0  0  0
  -21.4590  -29.2910   22.4220 N   0  0  0  0  0  0  0  0  0  0  0  0
  -23.4700  -28.8490   23.3580 O   0  0  0  0  0  0  0  0  0  0  0  0
  -20.9680  -29.8510   21.7390 H   0  0  0  0  0  0  0  0  0  0  0  0
  -18.0880  -28.0920   22.9290 C   0  0  0  0  0  0  0  0  0  0  0  0
  -20.6470  -28.3450   23.1860 C   0  0  0  0  0  3  0  0  0  0  0  0
  -20.7430  -26.9200   22.5930 C   0  0  0  0  0  2  0  0  0  0  0  0
  -19.6330  -26.6110   21.5820 C   0  0  0  0  0  2  0  0  0  0  0  0
  -18.2570  -26.7520   22.2350 C   0  0  0  0  0  2  0  0  0  0  0  0
  -19.2100  -28.8480   23.3600 C   0  0  0  0  0  0  0  0  0  0  0  0
  -18.9970  -30.1070   23.9640 C   0  0  0  0  0  3  0  0  0  0  0  0
  -17.6940  -30.6080   24.1450 C   0  0  0  0  0  3  0  0  0  0  0  0
  -16.5870  -29.8470   23.7310 C   0  0  0  0  0  3  0  0  0  0  0  0
  -16.7850  -28.5920   23.1280 C   0  0  0  0  0  3  0  0  0  0  0  0
  -25.9020  -32.5480   23.8670 C   0  0  0  0  0  3  0  0  0  0  0  0
  -26.4210  -31.7750   25.1410 C   0  0  1  0  0  0  0  0  0  0  0  0
  -25.3250  -31.5270   26.2040 C   0  0  0  0  0  1  0  0  0  0  0  0
  -27.0150  -30.4010   24.7460 C   0  0  0  0  0  1  0  0  0  0  0  0
  -27.5650  -32.5740   25.8090 C   0  0  0  0  0  1  0  0  0  0  0  0
  -25.5870  -33.9430   24.1950 N   0  0  0  0  0  0  0  0  0  0  0  0
  -25.9180  -34.9970   23.4360 C   0  0  0  0  0  0  0  0  0  0  0  0
  -26.5920  -34.8950   22.4070 O   0  0  0  0  0  0  0  0  0  0  0  0
  -24.9920  -34.0980   24.9950 H   0  0  0  0  0  0  0  0  0  0  0  0
  -24.1840  -36.7800   23.0660 C   0  0  0  0  0  1  0  0  0  0  0  0
  -25.4210  -36.3820   23.8900 C   0  0  0  0  0  3  0  0  0  0  0  0
  -27.5430  -37.2750   24.7420 C   0  0  0  0  0  1  0  0  0  0  0  0
  -26.4510  -37.4400   23.7860 N   0  0  0  0  0  0  0  0  0  0  0  0
  -26.0390  -38.3590   23.9290 H   0  0  0  0  0  0  0  0  0  0  0  0
  1  3  2  0
  2 53  1  0
  2  1  1  0
  3  6  1  0
  3  5  1  0
  4  2  1  0
  8  7  1  0
  9 10  1  0
 10  7  2  0
 10  1  1  0
 11  8  2  0
 12  9  2  0
 12 11  1  0
 13 12  1  0
 14 22  1  0
 15 20  1  0
 16 17  1  0
 16 15  1  0
 18 17  1  0
 18 27  1  0
 18 19  1  0
 20 14  1  0
 20 19  1  0
 21 14  2  0
 22 11  1  0
 22 23  1  0
 24 25  2  0
 25 44  1  0
 26 25  1  0
 26 29  1  0
 27 28  1  0
 27 24  1  0
 28 26  2  0
 29 30  1  0
 30 31  2  0
 32 35  1  0
 32 31  1  0
 33 32  2  0
 34 33  1  0
 34 29  2  0
 35 36  1  0
 36 37  1  0
 37 38  2  0
 39 38  1  0
 39 43  1  0
 40 39  2  0
 41 36  2  0
 41 40  1  0
 42 41  1  0
 44 45  1  0
 45 48  1  0
 45 47  1  0
 46 44  2  0
 49 24  1  0
 49 50  1  0
 51 49  1  0
 53 52  1  0
 54 53  1  0
 54 56  1  0
 55 54  2  0
 57 59  1  0
 57 56  1  0
 58 69  2  0
 59 64  1  0
 60 68  1  0
 60 70  1  0
 61 67  1  0
 61 63  1  0
 62 68  1  0
 63 62  1  0
 64 63  2  0
 65 66  1  0
 65 59  2  0
 66 61  2  0
 67 60  1  0
 68 58  1  0
 70 72  2  0
 71 70  1  0
 73 71  1  0
 74 83  2  0
 74 79  1  0
 75 71  1  0
 75 79  1  0
 76 75  1  0
 77 78  1  0
 77 76  1  0
 78 74  1  0
 79 80  2  0
 80 81  1  0
 82 81  2  0
 83 82  1  0
 84 58  1  0
 84 89  1  0
 84 85  1  0
 85 88  1  1
 85 86  1  0
 87 85  1  0
 89 92  1  0
 90 94  1  0
 90 89  1  0
 91 90  2  0
 94 93  1  0
 96 94  1  0
 96 97  1  0
 96 95  1  0
M  ISO  4  14 100  22 100  56 101  57 101
M  END
>  <TORSDO>  (75) 
F 20

>  <SCORE>  (75) 
-14.270

>  <name>  (75) 
74

>  <ligand_id>  (75) 
74

>  <original_smiles>  (75) 
[H]c1c([H])c([H])c2c(c1[H])C([H])([H])C([H])([H])C([H])([H])C2([H])N([H])C(=O)C1([H])N(C(=O)C([H])(N([H])C(=O)C([H])(N([H])C([H])([H])[H])C([H])([H])[H])C(C([H])([H])[H])(C([H])([H])[H])C([H])([H])[H])C([H])([H])c2c([H])c(OC([H])([H])C(=O)C([H])(N([H])C(c3c([H])c([H])c(N([H])C(=O)N4C([H])([H])C([H])([H])C([H])([H])C([H])(n5nc(-c6c([H])c([H])c(Oc7c([H])c([H])c(F)c([H])c7F)c([H])c6[H])c(C(=O)N([H])[H])c5N([H])[H])C4([H])[H])c(F)c3[H])=[N+]([H])[H])C([H])([H])[H])c([H])c([H])c2C1([H])[H]

>  <smiles>  (75) 
[H]c1c([H])c([H])c2c(c1[H])C([H])([H])C([H])([H])C([H])([H])C2([H])N([H])C(=O)C1([H])N(C(=O)C([H])(N([H])C(=O)C([H])(N([H])C([H])([H])[H])C([H])([H])[H])C(C([H])([H])[H])(C([H])([H])[H])C([H])([H])[H])C([H])([H])c2c([H])c(OC([H])([H])C(=O)C([H])(N([H])C(c3c([H])c([H])c(N([H])C(=O)N4C([H])([H])C([H])([H])C([H])([H])C([H])(n5nc(-c6c([H])c([H])c(Oc7c([H])c([H])c(F)c([H])c7F)c([H])c6[H])c(C(=O)N([H])[H])c5N([H])[H])C4([H])[H])c(F)c3[H])=[N+]([H])[H])C([H])([H])[H])c([H])c([H])c2C1([H])[H]

$$$$
75:0:0
     RDKit          3D

 94104  0  0  1  0  0  0  0  0999 V2000
  -28.4990  -24.6700   22.1170 C   0  0  0  0  0  2  0  0  0  0  0  0
  -29.2800  -23.0230   23.5950 C   0  0  0  0  0  2  0  0  0  0  0  0
  -29.4740  -24.2430   23.0780 C   0  0  0  0  0  3  0  0  0  0  0  0
  -28.5970  -24.1050   20.8830 C   0  0  0  0  0  3  0  0  0  0  0  0
  -30.2680  -22.0860   22.9450 C   0  0  0  0  0  2  0  0  0  0  0  0
  -30.8390  -24.2770   22.4500 C   0  0  0  0  0  2  0  0  0  0  0  0
  -30.6950  -22.9440   21.7080 C   0  0  0  0  0  3  0  0  0  0  0  0
  -29.5960  -23.0290   20.6690 N   0  0  0  0  0  0  0  0  0  0  0  0
  -28.2420  -19.4740   20.0780 C   0  0  0  0  0  3  0  0  0  0  0  0
  -30.5830  -19.4300   19.6300 C   0  0  0  0  0  3  0  0  0  0  0  0
  -28.2700  -20.8900   20.3020 C   0  0  0  0  0  3  0  0  0  0  0  0
  -30.6090  -20.8520   19.8440 C   0  0  0  0  0  3  0  0  0  0  0  0
  -29.3830  -18.6830   19.7320 C   0  0  0  0  0  0  0  0  0  0  0  0
  -29.4670  -21.6460   20.2090 C   0  0  0  0  0  0  0  0  0  0  0  0
  -29.1330  -17.2360   19.2750 C   0  0  0  0  0  3  0  0  0  0  0  0
  -29.5010  -15.8910   19.2490 C   0  0  0  0  0  3  0  0  0  0  0  0
  -30.4990  -14.8860   19.7600 C   0  0  0  0  0  0  0  0  0  0  0  0
  -30.3450  -12.5450   18.9270 C   0  0  0  0  0  2  0  0  0  0  0  0
  -29.3050  -12.5350   17.7800 C   0  0  0  0  0  2  0  0  0  0  0  0
  -27.8760  -12.3280   18.3250 C   0  0  0  0  0  2  0  0  0  0  0  0
  -27.5510  -13.2500   19.5270 C   0  0  0  0  0  3  0  0  0  0  0  0
  -28.7070  -13.2750   20.5570 C   0  0  0  0  0  2  0  0  0  0  0  0
  -29.9640  -13.6180   19.8680 N   0  0  0  0  0  0  0  0  0  0  0  0
  -31.7120  -15.0310   19.5930 O   0  0  0  0  0  0  0  0  0  0  0  0
  -25.2650  -13.8460   20.5110 C   0  0  0  0  0  0  0  0  0  0  0  0
  -24.2180  -13.0690   20.9270 C   0  0  0  0  0  0  0  0  0  0  0  0
  -24.6520  -11.7160   20.7810 C   0  0  0  0  0  0  0  0  0  0  0  0
  -26.2630  -12.9590   20.1340 N   0  0  0  0  0  0  0  0  0  0  0  0
  -25.9090  -11.6720   20.3610 N   0  0  0  0  0  0  0  0  0  0  0  0
  -23.9250  -10.4560   20.9610 C   0  0  0  0  0  0  0  0  0  0  0  0
  -24.3530   -9.4860   21.8920 C   0  0  0  0  0  3  0  0  0  0  0  0
  -23.6250   -8.2880   22.0600 C   0  0  0  0  0  3  0  0  0  0  0  0
  -22.4580   -8.0550   21.2960 C   0  0  0  0  0  0  0  0  0  0  0  0
  -22.0510   -9.0150   20.3530 C   0  0  0  0  0  3  0  0  0  0  0  0
  -22.7770  -10.2040   20.1820 C   0  0  0  0  0  3  0  0  0  0  0  0
  -21.7040   -6.9090   21.3730 O   0  0  0  0  0  0  0  0  0  0  0  0
  -21.5690   -6.2160   22.5500 C   0  0  0  0  0  0  0  0  0  0  0  0
  -20.9820   -6.7980   23.6950 C   0  0  0  0  0  3  0  0  0  0  0  0
  -20.8020   -6.0270   24.8600 C   0  0  0  0  0  3  0  0  0  0  0  0
  -21.1970   -4.6770   24.8810 C   0  0  0  0  0  0  0  0  0  0  0  0
  -21.7770   -4.0950   23.7400 C   0  0  0  0  0  3  0  0  0  0  0  0
  -21.9610   -4.8620   22.5770 C   0  0  0  0  0  0  0  0  0  0  0  0
  -22.5010   -4.2920   21.4730 F   0  0  0  0  0  0  0  0  0  0  0  0
  -21.0150   -3.9340   25.9970 F   0  0  0  0  0  0  0  0  0  0  0  0
  -22.8590  -13.5520   21.3410 C   0  0  0  0  0  0  0  0  0  0  0  0
  -22.1870  -12.8090   22.2150 N   0  0  0  0  0  0  0  0  0  0  0  0
  -22.4030  -14.6170   20.9280 O   0  0  0  0  0  0  0  0  0  0  0  0
  -22.5710  -11.9460   22.5690 H   0  0  0  0  0  0  0  0  0  0  0  0
  -21.2780  -13.1100   22.5360 H   0  0  0  0  0  0  0  0  0  0  0  0
  -25.4400  -15.2230   20.4000 N   0  0  0  0  0  0  0  0  0  0  0  0
  -24.7060  -15.8840   20.6300 H   0  0  0  0  0  0  0  0  0  0  0  0
  -26.2870  -15.6690   20.0690 H   0  0  0  0  0  0  0  0  0  0  0  0
  -27.9050  -24.9460   19.7430 C   0  0  0  0  0  2  0  0  0  0  0  0
  -27.9660  -26.4470   19.9050 O   0  0  0  0  0  0  0  0  0  0  0  0
  -24.4610  -31.8700   23.1930 C   0  0  0  0  0  0  0  0  0  0  0  0
  -26.8380  -27.3020   19.9190 C   0  0  0  0  0  0  0  0  0  0  0  0
  -23.1570  -30.5400   21.5720 C   0  0  0  0  0  3  0  0  0  0  0  0
  -24.5100  -28.9880   20.0470 C   0  0  0  0  0  0  0  0  0  0  0  0
  -25.6940  -30.7970   21.2910 C   0  0  0  0  0  2  0  0  0  0  0  0
  -25.7140  -29.4300   20.6070 C   0  0  0  0  0  0  0  0  0  0  0  0
  -26.8760  -28.6000   20.5310 C   0  0  0  0  0  3  0  0  0  0  0  0
  -25.6100  -26.9250   19.3300 C   0  0  0  0  0  3  0  0  0  0  0  0
  -24.4630  -27.7440   19.3990 C   0  0  0  0  0  3  0  0  0  0  0  0
  -23.2980  -29.8910   20.1690 C   0  0  0  0  0  2  0  0  0  0  0  0
  -24.4590  -31.0860   22.0750 N   0  0  0  0  0  0  0  0  0  0  0  0
  -23.4080  -32.1590   23.7800 O   0  0  0  0  0  0  0  0  0  0  0  0
  -22.5100  -29.5170   22.5370 C   0  0  0  0  0  0  0  0  0  0  0  0
  -21.1890  -29.3080   22.4030 N   0  0  0  0  0  0  0  0  0  0  0  0
  -23.1970  -28.9140   23.3640 O   0  0  0  0  0  0  0  0  0  0  0  0
  -20.6940  -29.8450   21.7050 H   0  0  0  0  0  0  0  0  0  0  0  0
  -17.8530  -27.9750   22.8310 C   0  0  0  0  0  0  0  0  0  0  0  0
  -20.3870  -28.3560   23.1740 C   0  0  0  0  0  3  0  0  0  0  0  0
  -20.5710  -26.9150   22.6440 C   0  0  0  0  0  2  0  0  0  0  0  0
  -19.5180  -26.5160   21.6050 C   0  0  0  0  0  2  0  0  0  0  0  0
  -18.1110  -26.6170   22.2000 C   0  0  0  0  0  2  0  0  0  0  0  0
  -18.9220  -28.7980   23.2730 C   0  0  0  0  0  0  0  0  0  0  0  0
  -18.6280  -30.0650   23.8220 C   0  0  0  0  0  3  0  0  0  0  0  0
  -17.2980  -30.5110   23.9340 C   0  0  0  0  0  3  0  0  0  0  0  0
  -16.2420  -29.6850   23.5090 C   0  0  0  0  0  3  0  0  0  0  0  0
  -16.5200  -28.4190   22.9620 C   0  0  0  0  0  3  0  0  0  0  0  0
  -25.7830  -32.4590   23.7740 C   0  0  0  0  0  3  0  0  0  0  0  0
  -26.3180  -31.6630   25.0280 C   0  0  1  0  0  0  0  0  0  0  0  0
  -25.2520  -31.4460   26.1280 C   0  0  0  0  0  1  0  0  0  0  0  0
  -26.8520  -30.2730   24.6100 C   0  0  0  0  0  1  0  0  0  0  0  0
  -27.5100  -32.4210   25.6600 C   0  0  0  0  0  1  0  0  0  0  0  0
  -25.5280  -33.8640   24.1250 N   0  0  0  0  0  0  0  0  0  0  0  0
  -25.8760  -34.9140   23.3690 C   0  0  0  0  0  0  0  0  0  0  0  0
  -26.5150  -34.8000   22.3200 O   0  0  0  0  0  0  0  0  0  0  0  0
  -24.9590  -34.0290   24.9440 H   0  0  0  0  0  0  0  0  0  0  0  0
  -24.2200  -36.7840   23.0600 C   0  0  0  0  0  1  0  0  0  0  0  0
  -25.4480  -36.3130   23.8540 C   0  0  0  0  0  3  0  0  0  0  0  0
  -27.6150  -37.1060   24.6960 C   0  0  0  0  0  1  0  0  0  0  0  0
  -26.5220  -37.3260   23.7520 N   0  0  0  0  0  0  0  0  0  0  0  0
  -26.1520  -38.2590   23.9080 H   0  0  0  0  0  0  0  0  0  0  0  0
  3  1  1  0
  3  2  1  0
  4 53  1  0
  4  1  1  0
  5  2  1  0
  6  3  1  0
  7  6  1  0
  7  5  1  0
  8  4  1  0
  8  7  1  0
  9 11  1  0
 10 13  1  0
 10 12  2  0
 12 14  1  0
 13  9  2  0
 14 11  2  0
 14  8  1  0
 15 13  1  0
 16 15  2  0
 16 17  1  0
 17 23  1  0
 18 23  1  0
 19 20  1  0
 19 18  1  0
 21 20  1  0
 21 28  1  0
 21 22  1  0
 23 22  1  0
 24 17  2  0
 25 26  2  0
 26 45  1  0
 27 26  1  0
 27 30  1  0
 28 29  1  0
 28 25  1  0
 29 27  2  0
 30 31  1  0
 31 32  2  0
 33 36  1  0
 33 32  1  0
 34 33  2  0
 35 34  1  0
 35 30  2  0
 36 37  1  0
 37 42  2  0
 37 38  1  0
 38 39  2  0
 39 40  1  0
 40 44  1  0
 41 40  2  0
 42 41  1  0
 43 42  1  0
 45 46  1  0
 46 49  1  0
 46 48  1  0
 47 45  2  0
 50 25  1  0
 50 51  1  0
 52 50  1  0
 53 54  1  0
 54 56  1  0
 55 66  2  0
 56 61  1  0
 57 65  1  0
 57 67  1  0
 58 64  1  0
 58 60  1  0
 59 65  1  0
 60 59  1  0
 61 60  2  0
 62 63  1  0
 62 56  2  0
 63 58  2  0
 64 57  1  0
 65 55  1  0
 67 69  2  0
 68 67  1  0
 70 68  1  0
 71 80  2  0
 71 76  1  0
 72 68  1  0
 72 76  1  0
 73 72  1  0
 74 75  1  0
 74 73  1  0
 75 71  1  0
 76 77  2  0
 77 78  1  0
 79 78  2  0
 80 79  1  0
 81 55  1  0
 81 86  1  0
 81 82  1  0
 82 85  1  1
 82 83  1  0
 84 82  1  0
 86 89  1  0
 87 91  1  0
 87 86  1  0
 88 87  2  0
 91 90  1  0
 93 91  1  0
 93 94  1  0
 93 92  1  0
M  ISO  4  16 100  17 100  53 101  54 101
M  END
>  <TORSDO>  (76) 
F 19

>  <SCORE>  (76) 
-12.959

>  <name>  (76) 
75

>  <ligand_id>  (76) 
75

>  <original_smiles>  (76) 
[H]C(C(=O)N1C([H])([H])C([H])([H])C([H])([H])C([H])(n2nc(-c3c([H])c([H])c(Oc4c([H])c([H])c(F)c([H])c4F)c([H])c3[H])c(C(=O)N([H])[H])c2N([H])[H])C1([H])[H])=C([H])c1c([H])c([H])c(N2C(C([H])([H])Oc3c([H])c([H])c4c(c3[H])C([H])([H])N(C(=O)C([H])(N([H])C(=O)C([H])(N([H])C([H])([H])[H])C([H])([H])[H])C(C([H])([H])[H])(C([H])([H])[H])C([H])([H])[H])C([H])(C(=O)N([H])C3([H])c5c([H])c([H])c([H])c([H])c5C([H])([H])C([H])([H])C3([H])[H])C4([H])[H])=C([H])C3=C([H])C([H])([H])C2([H])C3([H])[H])c([H])c1[H]

>  <smiles>  (76) 
[H]C(C(=O)N1C([H])([H])C([H])([H])C([H])([H])C([H])(n2nc(-c3c([H])c([H])c(Oc4c([H])c([H])c(F)c([H])c4F)c([H])c3[H])c(C(=O)N([H])[H])c2N([H])[H])C1([H])[H])=C([H])c1c([H])c([H])c(N2C(C([H])([H])Oc3c([H])c([H])c4c(c3[H])C([H])([H])N(C(=O)C([H])(N([H])C(=O)C([H])(N([H])C([H])([H])[H])C([H])([H])[H])C(C([H])([H])[H])(C([H])([H])[H])C([H])([H])[H])C([H])(C(=O)N([H])C3([H])c5c([H])c([H])c([H])c([H])c5C([H])([H])C([H])([H])C3([H])[H])C4([H])[H])=C([H])C3=C([H])C([H])([H])C2([H])C3([H])[H])c([H])c1[H]

$$$$
76:0:0
     RDKit          3D

 95104  0  0  1  0  0  0  0  0999 V2000
  -28.6280  -23.7600   20.0440 C   0  0  0  0  0  0  0  0  0  0  0  0
  -28.8140  -23.3550   21.4190 C   0  0  0  0  0  0  0  0  0  0  0  0
  -28.8230  -22.4570   19.2980 C   0  0  0  0  0  0  0  0  0  0  0  0
  -28.6820  -24.1630   22.4860 C   0  0  0  0  0  2  0  0  0  0  0  0
  -28.3470  -25.0380   19.5020 C   0  0  0  0  0  0  0  0  0  0  0  0
  -29.1370  -21.8600   21.5170 C   0  0  0  0  0  2  0  0  0  0  0  0
  -28.2050  -25.2440   17.9940 C   0  0  0  0  0  1  0  0  0  0  0  0
  -29.1800  -21.3860   20.1290 N   0  0  0  0  0  0  0  0  0  0  0  0
  -28.6650  -22.3140   18.0800 O   0  0  0  0  0  0  0  0  0  0  0  0
  -30.5240  -19.9580   18.5910 C   0  0  0  0  0  3  0  0  0  0  0  0
  -31.0710  -18.7560   18.1100 C   0  0  0  0  0  3  0  0  0  0  0  0
  -29.5060  -18.7060   20.4050 C   0  0  0  0  0  3  0  0  0  0  0  0
  -29.6950  -20.0100   19.7380 C   0  0  0  0  0  0  0  0  0  0  0  0
  -30.0690  -17.4220   19.9270 C   0  0  0  0  0  0  0  0  0  0  0  0
  -30.8320  -17.5190   18.7340 C   0  0  0  0  0  0  0  0  0  0  0  0
  -31.3170  -16.4180   18.1120 F   0  0  0  0  0  0  0  0  0  0  0  0
  -30.5710  -14.8560   20.3940 C   0  0  0  0  0  0  0  0  0  0  0  0
  -30.3950  -12.5320   19.4760 C   0  0  0  0  0  2  0  0  0  0  0  0
  -29.4960  -12.5460   18.2190 C   0  0  0  0  0  2  0  0  0  0  0  0
  -28.0150  -12.3800   18.6120 C   0  0  0  0  0  2  0  0  0  0  0  0
  -27.5990  -13.2990   19.7930 C   0  0  0  0  0  3  0  0  0  0  0  0
  -28.6310  -13.2800   20.9420 C   0  0  0  0  0  2  0  0  0  0  0  0
  -29.9330  -13.6280   20.3640 N   0  0  0  0  0  0  0  0  0  0  0  0
  -31.7850  -14.8820   20.1810 O   0  0  0  0  0  0  0  0  0  0  0  0
  -29.8280  -16.0450   20.5060 N   0  0  0  0  0  0  0  0  0  0  0  0
  -28.9060  -15.9090   20.8920 H   0  0  0  0  0  0  0  0  0  0  0  0
  -25.1940  -13.8840   20.4590 C   0  0  0  0  0  0  0  0  0  0  0  0
  -24.1220  -13.1120   20.8160 C   0  0  0  0  0  0  0  0  0  0  0  0
  -24.5920  -11.7620   20.8210 C   0  0  0  0  0  0  0  0  0  0  0  0
  -26.2470  -13.0070   20.2620 N   0  0  0  0  0  0  0  0  0  0  0  0
  -25.8910  -11.7260   20.5460 N   0  0  0  0  0  0  0  0  0  0  0  0
  -23.8650  -10.4990   21.0130 C   0  0  0  0  0  0  0  0  0  0  0  0
  -24.2780   -9.5450   21.9700 C   0  0  0  0  0  3  0  0  0  0  0  0
  -23.5490   -8.3490   22.1510 C   0  0  0  0  0  3  0  0  0  0  0  0
  -22.3920   -8.0990   21.3750 C   0  0  0  0  0  0  0  0  0  0  0  0
  -21.9970   -9.0420   20.4090 C   0  0  0  0  0  3  0  0  0  0  0  0
  -22.7270  -10.2280   20.2260 C   0  0  0  0  0  3  0  0  0  0  0  0
  -21.6400   -6.9540   21.4620 O   0  0  0  0  0  0  0  0  0  0  0  0
  -21.5720   -6.2210   22.6200 C   0  0  0  0  0  0  0  0  0  0  0  0
  -21.1320   -6.7890   23.8350 C   0  0  0  0  0  3  0  0  0  0  0  0
  -21.0120   -5.9850   24.9860 C   0  0  0  0  0  3  0  0  0  0  0  0
  -21.3230   -4.6130   24.9220 C   0  0  0  0  0  0  0  0  0  0  0  0
  -21.7560   -4.0450   23.7130 C   0  0  0  0  0  3  0  0  0  0  0  0
  -21.8770   -4.8460   22.5630 C   0  0  0  0  0  0  0  0  0  0  0  0
  -22.2740   -4.2880   21.3940 F   0  0  0  0  0  0  0  0  0  0  0  0
  -21.1990   -3.8390   26.0260 F   0  0  0  0  0  0  0  0  0  0  0  0
  -22.7160  -13.5880   21.0390 C   0  0  0  0  0  0  0  0  0  0  0  0
  -21.9670  -12.9050   21.8980 N   0  0  0  0  0  0  0  0  0  0  0  0
  -22.2890  -14.6000   20.4860 O   0  0  0  0  0  0  0  0  0  0  0  0
  -22.3240  -12.0860   22.3680 H   0  0  0  0  0  0  0  0  0  0  0  0
  -21.0220  -13.2070   22.0910 H   0  0  0  0  0  0  0  0  0  0  0  0
  -25.3580  -15.2520   20.2580 N   0  0  0  0  0  0  0  0  0  0  0  0
  -24.5880  -15.9080   20.3280 H   0  0  0  0  0  0  0  0  0  0  0  0
  -26.2050  -15.6750   19.8980 H   0  0  0  0  0  0  0  0  0  0  0  0
  -28.2920  -26.3150   20.1770 O   0  0  0  0  0  0  0  0  0  0  0  0
  -24.6600  -31.8820   23.2150 C   0  0  0  0  0  0  0  0  0  0  0  0
  -27.2060  -27.2420   20.1090 C   0  0  0  0  0  0  0  0  0  0  0  0
  -23.4350  -30.4860   21.5960 C   0  0  0  0  0  3  0  0  0  0  0  0
  -24.8590  -28.9280   20.1440 C   0  0  0  0  0  0  0  0  0  0  0  0
  -25.9800  -30.7780   21.3800 C   0  0  0  0  0  2  0  0  0  0  0  0
  -26.0470  -29.3950   20.7190 C   0  0  0  0  0  0  0  0  0  0  0  0
  -27.2220  -28.5660   20.6880 C   0  0  0  0  0  3  0  0  0  0  0  0
  -25.9780  -26.8440   19.5380 C   0  0  0  0  0  3  0  0  0  0  0  0
  -24.8310  -27.6610   19.5430 C   0  0  0  0  0  3  0  0  0  0  0  0
  -23.6290  -29.8160   20.2110 C   0  0  0  0  0  2  0  0  0  0  0  0
  -24.7130  -31.0660   22.1200 N   0  0  0  0  0  0  0  0  0  0  0  0
  -23.5830  -32.1620   23.7630 O   0  0  0  0  0  0  0  0  0  0  0  0
  -22.7790  -29.4720   22.5650 C   0  0  0  0  0  0  0  0  0  0  0  0
  -21.4520  -29.2890   22.4520 N   0  0  0  0  0  0  0  0  0  0  0  0
  -23.4640  -28.8520   23.3830 O   0  0  0  0  0  0  0  0  0  0  0  0
  -20.9540  -29.8400   21.7670 H   0  0  0  0  0  0  0  0  0  0  0  0
  -18.0890  -28.0540   22.9730 C   0  0  0  0  0  0  0  0  0  0  0  0
  -20.6450  -28.3500   23.2340 C   0  0  0  0  0  3  0  0  0  0  0  0
  -20.7630  -26.9130   22.6740 C   0  0  0  0  0  2  0  0  0  0  0  0
  -19.6630  -26.5650   21.6660 C   0  0  0  0  0  2  0  0  0  0  0  0
  -18.2810  -26.7020   22.3100 C   0  0  0  0  0  2  0  0  0  0  0  0
  -19.1990  -28.8350   23.3930 C   0  0  0  0  0  0  0  0  0  0  0  0
  -18.9650  -30.1000   23.9740 C   0  0  0  0  0  3  0  0  0  0  0  0
  -17.6530  -30.5860   24.1390 C   0  0  0  0  0  3  0  0  0  0  0  0
  -16.5590  -29.8030   23.7340 C   0  0  0  0  0  3  0  0  0  0  0  0
  -16.7770  -28.5390   23.1580 C   0  0  0  0  0  3  0  0  0  0  0  0
  -25.9480  -32.5190   23.8210 C   0  0  0  0  0  3  0  0  0  0  0  0
  -25.6360  -33.9140   24.1670 N   0  0  0  0  0  0  0  0  0  0  0  0
  -25.9490  -34.9760   23.4120 C   0  0  0  0  0  0  0  0  0  0  0  0
  -26.6000  -34.8850   22.3680 O   0  0  0  0  0  0  0  0  0  0  0  0
  -25.0590  -34.0570   24.9820 H   0  0  0  0  0  0  0  0  0  0  0  0
  -24.2080  -36.7680   23.1080 C   0  0  0  0  0  1  0  0  0  0  0  0
  -25.4650  -36.3590   23.8920 C   0  0  0  0  0  3  0  0  0  0  0  0
  -27.6130  -37.2440   24.6890 C   0  0  0  0  0  1  0  0  0  0  0  0
  -26.4920  -37.4180   23.7710 N   0  0  0  0  0  0  0  0  0  0  0  0
  -26.0850  -38.3340   23.9360 H   0  0  0  0  0  0  0  0  0  0  0  0
  -26.4840  -31.7450   25.0880 C   0  0  1  0  0  0  0  0  0  0  0  0
  -25.4070  -31.5060   26.1730 C   0  0  0  0  0  1  0  0  0  0  0  0
  -27.0610  -30.3680   24.6860 C   0  0  0  0  0  1  0  0  0  0  0  0
  -27.6440  -32.5390   25.7350 C   0  0  0  0  0  1  0  0  0  0  0  0
  1  2  1  0
  2  6  1  0
  2  4  2  0
  3  1  1  0
  3  8  1  0
  5  1  2  0
  5 55  1  0
  7  5  1  0
  8  6  1  0
  9  3  2  0
 10 13  1  0
 11 10  2  0
 11 15  1  0
 13  8  1  0
 13 12  2  0
 14 12  1  0
 14 25  1  0
 15 14  2  0
 16 15  1  0
 17 25  1  0
 18 23  1  0
 19 20  1  0
 19 18  1  0
 21 20  1  0
 21 30  1  0
 21 22  1  0
 23 17  1  0
 23 22  1  0
 24 17  2  0
 25 26  1  0
 27 28  2  0
 28 29  1  0
 28 47  1  0
 29 32  1  0
 30 27  1  0
 30 31  1  0
 31 29  2  0
 32 33  1  0
 33 34  2  0
 35 38  1  0
 35 34  1  0
 36 35  2  0
 37 36  1  0
 37 32  2  0
 38 39  1  0
 39 40  1  0
 40 41  2  0
 42 41  1  0
 42 46  1  0
 43 42  2  0
 44 39  2  0
 44 43  1  0
 45 44  1  0
 47 48  1  0
 48 51  1  0
 48 50  1  0
 49 47  2  0
 52 53  1  0
 52 27  1  0
 54 52  1  0
 56 67  2  0
 57 55  1  0
 57 62  1  0
 58 66  1  0
 58 68  1  0
 59 65  1  0
 59 61  1  0
 60 66  1  0
 61 60  1  0
 62 61  2  0
 63 64  1  0
 63 57  2  0
 64 59  2  0
 65 58  1  0
 66 56  1  0
 68 70  2  0
 69 68  1  0
 71 69  1  0
 72 81  2  0
 72 77  1  0
 73 69  1  0
 73 77  1  0
 74 73  1  0
 75 76  1  0
 75 74  1  0
 76 72  1  0
 77 78  2  0
 78 79  1  0
 80 79  2  0
 81 80  1  0
 82 56  1  0
 82 83  1  0
 82 92  1  0
 83 86  1  0
 84 88  1  0
 84 83  1  0
 85 84  2  0
 88 87  1  0
 90 88  1  0
 90 91  1  0
 90 89  1  0
 92 95  1  1
 92 93  1  0
 94 92  1  0
M  ISO  4   5 101  17 100  25 100  55 101
M  END
>  <TORSDO>  (77) 
F 17

>  <SCORE>  (77) 
-15.134

>  <name>  (77) 
76

>  <ligand_id>  (77) 
76

>  <original_smiles>  (77) 
[H]C([H])=C1C(=C(Oc2c([H])c([H])c3c(c2[H])C([H])([H])N(C(=O)C([H])(N([H])C(=O)C([H])(N([H])C([H])([H])[H])C([H])([H])[H])C(C([H])([H])[H])(C([H])([H])[H])C([H])([H])[H])C([H])(C(=O)N([H])C2([H])c4c([H])c([H])c([H])c([H])c4C([H])([H])C([H])([H])C2([H])[H])C3([H])[H])C([H])([H])[H])C(=O)N(c2c([H])c([H])c(F)c(N([H])C(=O)N3C([H])([H])C([H])([H])C([H])([H])C([H])(n4nc(-c5c([H])c([H])c(Oc6c([H])c([H])c(F)c([H])c6F)c([H])c5[H])c(C(=O)N([H])[H])c4N([H])[H])C3([H])[H])c2[H])C1([H])[H]

>  <smiles>  (77) 
[H]C([H])=C1C(=C(Oc2c([H])c([H])c3c(c2[H])C([H])([H])N(C(=O)C([H])(N([H])C(=O)C([H])(N([H])C([H])([H])[H])C([H])([H])[H])C(C([H])([H])[H])(C([H])([H])[H])C([H])([H])[H])C([H])(C(=O)N([H])C2([H])c4c([H])c([H])c([H])c([H])c4C([H])([H])C([H])([H])C2([H])[H])C3([H])[H])C([H])([H])[H])C(=O)N(c2c([H])c([H])c(F)c(N([H])C(=O)N3C([H])([H])C([H])([H])C([H])([H])C([H])(n4nc(-c5c([H])c([H])c(Oc6c([H])c([H])c(F)c([H])c6F)c([H])c5[H])c(C(=O)N([H])[H])c4N([H])[H])C3([H])[H])c2[H])C1([H])[H]

$$$$
77:0:0
     RDKit          3D

 93101  0  0  1  0  0  0  0  0999 V2000
  -28.9500  -23.8950   19.6990 C   0  0  0  0  0  0  0  0  0  0  0  0
  -29.0530  -22.6360   20.1250 N   0  0  0  0  0  0  0  0  0  0  0  0
  -29.6790  -21.5680   19.4070 C   0  0  0  0  0  0  0  0  0  0  0  0
  -30.2870  -21.6930   18.3450 O   0  0  0  0  0  0  0  0  0  0  0  0
  -28.5330  -19.3740   20.2630 C   0  0  0  0  0  3  0  0  0  0  0  0
  -30.9100  -19.3530   19.9450 C   0  0  0  0  0  3  0  0  0  0  0  0
  -28.5840  -17.9710   20.5470 C   0  0  0  0  0  3  0  0  0  0  0  0
  -30.9600  -17.9500   20.2160 C   0  0  0  0  0  3  0  0  0  0  0  0
  -29.7010  -20.1110   19.9420 C   0  0  0  0  0  0  0  0  0  0  0  0
  -29.7870  -17.2010   20.5050 C   0  0  0  0  0  0  0  0  0  0  0  0
  -30.5790  -14.6920   20.4700 C   0  0  0  0  0  0  0  0  0  0  0  0
  -30.4420  -12.4130   19.4690 C   0  0  0  0  0  2  0  0  0  0  0  0
  -29.5190  -12.4890   18.2300 C   0  0  0  0  0  2  0  0  0  0  0  0
  -28.0340  -12.3550   18.6270 C   0  0  0  0  0  2  0  0  0  0  0  0
  -27.6510  -13.2220   19.8580 C   0  0  0  0  0  3  0  0  0  0  0  0
  -28.6910  -13.0810   20.9890 C   0  0  0  0  0  2  0  0  0  0  0  0
  -29.9990  -13.4480   20.4270 N   0  0  0  0  0  0  0  0  0  0  0  0
  -31.7520  -14.8520   20.1110 O   0  0  0  0  0  0  0  0  0  0  0  0
  -29.7350  -15.7480   20.7560 N   0  0  0  0  0  0  0  0  0  0  0  0
  -28.8290  -15.4220   21.0580 H   0  0  0  0  0  0  0  0  0  0  0  0
  -25.2530  -13.8180   20.5680 C   0  0  0  0  0  0  0  0  0  0  0  0
  -24.1810  -13.0440   20.9210 C   0  0  0  0  0  0  0  0  0  0  0  0
  -24.6380  -11.6920   20.8740 C   0  0  0  0  0  0  0  0  0  0  0  0
  -26.2960  -12.9380   20.3240 N   0  0  0  0  0  0  0  0  0  0  0  0
  -25.9310  -11.6530   20.5680 N   0  0  0  0  0  0  0  0  0  0  0  0
  -23.9050  -10.4290   21.0390 C   0  0  0  0  0  0  0  0  0  0  0  0
  -24.3610   -9.4210   21.9170 C   0  0  0  0  0  3  0  0  0  0  0  0
  -23.6280   -8.2240   22.0730 C   0  0  0  0  0  3  0  0  0  0  0  0
  -22.4260   -8.0280   21.3520 C   0  0  0  0  0  0  0  0  0  0  0  0
  -21.9900   -9.0260   20.4630 C   0  0  0  0  0  3  0  0  0  0  0  0
  -22.7220  -10.2140   20.3040 C   0  0  0  0  0  3  0  0  0  0  0  0
  -21.6650   -6.8860   21.4220 O   0  0  0  0  0  0  0  0  0  0  0  0
  -21.6860   -6.0720   22.5260 C   0  0  0  0  0  0  0  0  0  0  0  0
  -21.4040   -6.5620   23.8200 C   0  0  0  0  0  3  0  0  0  0  0  0
  -21.3680   -5.6780   24.9170 C   0  0  0  0  0  3  0  0  0  0  0  0
  -21.6030   -4.3030   24.7220 C   0  0  0  0  0  0  0  0  0  0  0  0
  -21.8830   -3.8120   23.4350 C   0  0  0  0  0  3  0  0  0  0  0  0
  -21.9200   -4.6950   22.3400 C   0  0  0  0  0  0  0  0  0  0  0  0
  -22.1660   -4.2110   21.0990 F   0  0  0  0  0  0  0  0  0  0  0  0
  -21.5620   -3.4530   25.7750 F   0  0  0  0  0  0  0  0  0  0  0  0
  -22.7820  -13.5230   21.1860 C   0  0  0  0  0  0  0  0  0  0  0  0
  -22.0440  -12.8250   22.0430 N   0  0  0  0  0  0  0  0  0  0  0  0
  -22.3510  -14.5530   20.6670 O   0  0  0  0  0  0  0  0  0  0  0  0
  -22.4100  -11.9990   22.4930 H   0  0  0  0  0  0  0  0  0  0  0  0
  -21.1030  -13.1250   22.2530 H   0  0  0  0  0  0  0  0  0  0  0  0
  -25.4190  -15.1900   20.4100 N   0  0  0  0  0  0  0  0  0  0  0  0
  -24.6410  -15.8310   20.5280 H   0  0  0  0  0  0  0  0  0  0  0  0
  -26.2280  -15.6210   19.9810 H   0  0  0  0  0  0  0  0  0  0  0  0
  -28.1750  -25.0400   20.4880 C   0  0  0  0  0  0  0  0  0  0  0  0
  -27.4180  -24.7280   21.4130 O   0  0  0  0  0  0  0  0  0  0  0  0
  -28.3100  -26.4220   20.0650 O   0  0  0  0  0  0  0  0  0  0  0  0
  -24.6310  -31.8610   23.2010 C   0  0  0  0  0  0  0  0  0  0  0  0
  -27.2170  -27.3040   20.1130 C   0  0  0  0  0  0  0  0  0  0  0  0
  -23.4240  -30.4890   21.5410 C   0  0  0  0  0  3  0  0  0  0  0  0
  -24.8710  -28.9390   20.1100 C   0  0  0  0  0  0  0  0  0  0  0  0
  -25.9650  -30.7830   21.3770 C   0  0  0  0  0  2  0  0  0  0  0  0
  -26.0380  -29.4050   20.7290 C   0  0  0  0  0  0  0  0  0  0  0  0
  -27.2150  -28.5940   20.7330 C   0  0  0  0  0  3  0  0  0  0  0  0
  -26.0330  -26.9020   19.4560 C   0  0  0  0  0  3  0  0  0  0  0  0
  -24.8690  -27.6920   19.4660 C   0  0  0  0  0  3  0  0  0  0  0  0
  -23.6460  -29.8290   20.1540 C   0  0  0  0  0  2  0  0  0  0  0  0
  -24.6920  -31.0600   22.0970 N   0  0  0  0  0  0  0  0  0  0  0  0
  -23.5480  -32.1410   23.7350 O   0  0  0  0  0  0  0  0  0  0  0  0
  -22.7470  -29.4680   22.4870 C   0  0  0  0  0  0  0  0  0  0  0  0
  -21.4170  -29.3140   22.3650 N   0  0  0  0  0  0  0  0  0  0  0  0
  -23.4180  -28.8190   23.2930 O   0  0  0  0  0  0  0  0  0  0  0  0
  -20.9320  -29.8920   21.6930 H   0  0  0  0  0  0  0  0  0  0  0  0
  -18.0300  -28.1420   22.8480 C   0  0  0  0  0  0  0  0  0  0  0  0
  -20.5900  -28.3750   23.1260 C   0  0  0  0  0  3  0  0  0  0  0  0
  -20.6810  -26.9480   22.5400 C   0  0  0  0  0  2  0  0  0  0  0  0
  -19.5790  -26.6420   21.5210 C   0  0  0  0  0  2  0  0  0  0  0  0
  -18.1960  -26.7960   22.1620 C   0  0  0  0  0  2  0  0  0  0  0  0
  -19.1540  -28.8890   23.2890 C   0  0  0  0  0  0  0  0  0  0  0  0
  -18.9460  -30.1470   23.8940 C   0  0  0  0  0  3  0  0  0  0  0  0
  -17.6470  -30.6620   24.0580 C   0  0  0  0  0  3  0  0  0  0  0  0
  -16.5360  -29.9130   23.6310 C   0  0  0  0  0  3  0  0  0  0  0  0
  -16.7280  -28.6540   23.0330 C   0  0  0  0  0  3  0  0  0  0  0  0
  -25.9160  -32.4790   23.8340 C   0  0  0  0  0  3  0  0  0  0  0  0
  -26.4530  -31.6570   25.0690 C   0  0  1  0  0  0  0  0  0  0  0  0
  -25.3760  -31.3700   26.1420 C   0  0  0  0  0  1  0  0  0  0  0  0
  -27.0350  -30.3000   24.6090 C   0  0  0  0  0  1  0  0  0  0  0  0
  -27.6110  -32.4250   25.7460 C   0  0  0  0  0  1  0  0  0  0  0  0
  -25.6010  -33.8590   24.2310 N   0  0  0  0  0  0  0  0  0  0  0  0
  -25.9050  -34.9460   23.5110 C   0  0  0  0  0  0  0  0  0  0  0  0
  -26.5560  -34.8930   22.4640 O   0  0  0  0  0  0  0  0  0  0  0  0
  -25.0300  -33.9700   25.0560 H   0  0  0  0  0  0  0  0  0  0  0  0
  -24.1500  -36.7290   23.2620 C   0  0  0  0  0  1  0  0  0  0  0  0
  -25.4110  -36.3090   24.0340 C   0  0  0  0  0  3  0  0  0  0  0  0
  -27.5580  -37.1820   24.8460 C   0  0  0  0  0  1  0  0  0  0  0  0
  -26.4280  -37.3780   23.9420 N   0  0  0  0  0  0  0  0  0  0  0  0
  -26.0160  -38.2850   24.1410 H   0  0  0  0  0  0  0  0  0  0  0  0
  -28.5230  -24.0610   17.1620 C   0  0  0  0  0  1  0  0  0  0  0  0
  -29.4690  -24.4070   18.3310 C   0  0  0  0  0  2  0  0  0  0  0  0
  1  2  2  0
  1 49  1  0
  3  9  1  0
  3  2  1  0
  4  3  2  0
  5  7  1  0
  6  8  2  0
  8 10  1  0
  9  6  1  0
  9  5  2  0
 10  7  2  0
 10 19  1  0
 11 19  1  0
 12 17  1  0
 13 14  1  0
 13 12  1  0
 15 14  1  0
 15 24  1  0
 15 16  1  0
 17 11  1  0
 17 16  1  0
 18 11  2  0
 19 20  1  0
 21 22  2  0
 22 41  1  0
 23 22  1  0
 23 26  1  0
 24 21  1  0
 24 25  1  0
 25 23  2  0
 26 27  1  0
 27 28  2  0
 29 32  1  0
 29 28  1  0
 30 29  2  0
 31 30  1  0
 31 26  2  0
 32 33  1  0
 33 34  1  0
 34 35  2  0
 36 35  1  0
 36 40  1  0
 37 36  2  0
 38 33  2  0
 38 37  1  0
 39 38  1  0
 41 42  1  0
 42 45  1  0
 42 44  1  0
 43 41  2  0
 46 47  1  0
 46 21  1  0
 48 46  1  0
 49 50  2  0
 51 53  1  0
 51 49  1  0
 52 63  2  0
 53 58  1  0
 54 62  1  0
 54 64  1  0
 55 61  1  0
 55 57  1  0
 56 62  1  0
 57 58  2  0
 57 56  1  0
 59 60  1  0
 59 53  2  0
 60 55  2  0
 61 54  1  0
 62 52  1  0
 64 66  2  0
 65 64  1  0
 67 65  1  0
 68 77  2  0
 68 73  1  0
 69 65  1  0
 69 73  1  0
 70 69  1  0
 71 72  1  0
 71 70  1  0
 72 68  1  0
 73 74  2  0
 74 75  1  0
 76 75  2  0
 77 76  1  0
 78 52  1  0
 78 83  1  0
 78 79  1  0
 79 82  1  1
 79 80  1  0
 81 79  1  0
 83 86  1  0
 84 88  1  0
 84 83  1  0
 85 84  2  0
 88 87  1  0
 90 88  1  0
 90 91  1  0
 90 89  1  0
 92 93  1  0
 93  1  1  0
M  ISO  4  11 100  19 100  49 101  51 101
M  END
>  <TORSDO>  (78) 
F 20

>  <SCORE>  (78) 
-13.879

>  <name>  (78) 
77

>  <ligand_id>  (78) 
77

>  <original_smiles>  (78) 
[H]c1c([H])c([H])c2c(c1[H])C([H])([H])C([H])([H])C([H])([H])C2([H])N([H])C(=O)C1([H])N(C(=O)C([H])(N([H])C(=O)C([H])(N([H])C([H])([H])[H])C([H])([H])[H])C(C([H])([H])[H])(C([H])([H])[H])C([H])([H])[H])C([H])([H])c2c([H])c(OC(=O)C(=NC(=O)c3c([H])c([H])c(N([H])C(=O)N4C([H])([H])C([H])([H])C([H])([H])C([H])(n5nc(-c6c([H])c([H])c(Oc7c([H])c([H])c(F)c([H])c7F)c([H])c6[H])c(C(=O)N([H])[H])c5N([H])[H])C4([H])[H])c([H])c3[H])C([H])([H])C([H])([H])[H])c([H])c([H])c2C1([H])[H]

>  <smiles>  (78) 
[H]c1c([H])c([H])c2c(c1[H])C([H])([H])C([H])([H])C([H])([H])C2([H])N([H])C(=O)C1([H])N(C(=O)C([H])(N([H])C(=O)C([H])(N([H])C([H])([H])[H])C([H])([H])[H])C(C([H])([H])[H])(C([H])([H])[H])C([H])([H])[H])C([H])([H])c2c([H])c(OC(=O)C(=NC(=O)c3c([H])c([H])c(N([H])C(=O)N4C([H])([H])C([H])([H])C([H])([H])C([H])(n5nc(-c6c([H])c([H])c(Oc7c([H])c([H])c(F)c([H])c7F)c([H])c6[H])c(C(=O)N([H])[H])c5N([H])[H])C4([H])[H])c([H])c3[H])C([H])([H])C([H])([H])[H])c([H])c([H])c2C1([H])[H]

$$$$
78:0:0
     RDKit          3D

 95104  0  0  1  0  0  0  0  0999 V2000
  -26.8510  -23.7770   18.4690 C   0  0  0  0  0  3  0  0  0  0  0  0
  -27.9570  -23.9720   19.2040 C   0  0  0  0  0  0  0  0  0  0  0  0
  -26.3920  -22.4760   18.0440 C   0  0  0  0  0  0  0  0  0  0  0  0
  -27.2970  -21.3240   18.0700 C   0  0  0  0  0  0  0  0  0  0  0  0
  -25.1740  -22.3320   17.4770 C   0  0  0  0  0  2  0  0  0  0  0  0
  -28.7470  -22.6560   19.6000 C   0  0  0  0  0  2  0  0  0  0  0  0
  -28.2440  -21.3160   19.0630 N   0  0  0  0  0  0  0  0  0  0  0  0
  -27.2000  -20.4060   17.2410 O   0  0  0  0  0  0  0  0  0  0  0  0
  -29.9860  -19.7230   20.1950 C   0  0  0  0  0  3  0  0  0  0  0  0
  -30.3740  -18.4070   20.6580 C   0  0  0  0  0  3  0  0  0  0  0  0
  -27.9290  -18.8160   19.3950 C   0  0  0  0  0  3  0  0  0  0  0  0
  -28.7360  -19.9850   19.5500 C   0  0  0  0  0  0  0  0  0  0  0  0
  -29.5260  -17.2620   20.5060 C   0  0  0  0  0  0  0  0  0  0  0  0
  -28.3060  -17.5290   19.8510 C   0  0  0  0  0  0  0  0  0  0  0  0
  -27.4350  -16.5150   19.6740 F   0  0  0  0  0  0  0  0  0  0  0  0
  -30.5750  -14.8840   20.9890 C   0  0  0  0  0  0  0  0  0  0  0  0
  -30.5850  -12.5700   20.0850 C   0  0  0  0  0  2  0  0  0  0  0  0
  -29.7370  -12.5860   18.7930 C   0  0  0  0  0  2  0  0  0  0  0  0
  -28.2490  -12.3450   19.1190 C   0  0  0  0  0  2  0  0  0  0  0  0
  -27.7360  -13.2420   20.2750 C   0  0  0  0  0  3  0  0  0  0  0  0
  -28.7140  -13.2290   21.4750 C   0  0  0  0  0  2  0  0  0  0  0  0
  -30.0440  -13.6140   20.9770 N   0  0  0  0  0  0  0  0  0  0  0  0
  -31.7750  -15.0690   20.7730 O   0  0  0  0  0  0  0  0  0  0  0  0
  -29.6640  -15.9110   21.0960 N   0  0  0  0  0  0  0  0  0  0  0  0
  -28.7530  -15.5220   21.2840 H   0  0  0  0  0  0  0  0  0  0  0  0
  -25.2750  -13.7520   20.8260 C   0  0  0  0  0  0  0  0  0  0  0  0
  -24.2100  -12.9420   21.1100 C   0  0  0  0  0  0  0  0  0  0  0  0
  -24.7210  -11.6080   21.1070 C   0  0  0  0  0  0  0  0  0  0  0  0
  -26.3670  -12.9120   20.6640 N   0  0  0  0  0  0  0  0  0  0  0  0
  -26.0320  -11.6150   20.8950 N   0  0  0  0  0  0  0  0  0  0  0  0
  -24.0250  -10.3220   21.2320 C   0  0  0  0  0  0  0  0  0  0  0  0
  -24.3960   -9.3760   22.2140 C   0  0  0  0  0  3  0  0  0  0  0  0
  -23.6990   -8.1530   22.3290 C   0  0  0  0  0  3  0  0  0  0  0  0
  -22.6180   -7.8700   21.4630 C   0  0  0  0  0  0  0  0  0  0  0  0
  -22.2670   -8.8050   20.4740 C   0  0  0  0  0  3  0  0  0  0  0  0
  -22.9630  -10.0190   20.3580 C   0  0  0  0  0  3  0  0  0  0  0  0
  -21.9040   -6.6970   21.4820 O   0  0  0  0  0  0  0  0  0  0  0  0
  -21.7450   -5.9720   22.6340 C   0  0  0  0  0  0  0  0  0  0  0  0
  -21.0660   -6.4930   23.7570 C   0  0  0  0  0  3  0  0  0  0  0  0
  -20.8650   -5.6860   24.8940 C   0  0  0  0  0  3  0  0  0  0  0  0
  -21.3340   -4.3590   24.9120 C   0  0  0  0  0  0  0  0  0  0  0  0
  -22.0100   -3.8390   23.7950 C   0  0  0  0  0  3  0  0  0  0  0  0
  -22.2120   -4.6420   22.6590 C   0  0  0  0  0  0  0  0  0  0  0  0
  -22.8430   -4.1270   21.5760 F   0  0  0  0  0  0  0  0  0  0  0  0
  -21.1350   -3.5840   26.0030 F   0  0  0  0  0  0  0  0  0  0  0  0
  -22.7800  -13.3740   21.2720 C   0  0  0  0  0  0  0  0  0  0  0  0
  -22.0100  -12.6560   22.0820 N   0  0  0  0  0  0  0  0  0  0  0  0
  -22.3490  -14.3850   20.7170 O   0  0  0  0  0  0  0  0  0  0  0  0
  -22.3650  -11.8430   22.5650 H   0  0  0  0  0  0  0  0  0  0  0  0
  -21.0500  -12.9320   22.2290 H   0  0  0  0  0  0  0  0  0  0  0  0
  -25.3830  -15.1280   20.6630 N   0  0  0  0  0  0  0  0  0  0  0  0
  -24.5550  -15.7140   20.6620 H   0  0  0  0  0  0  0  0  0  0  0  0
  -26.2020  -15.6080   20.2960 H   0  0  0  0  0  0  0  0  0  0  0  0
  -28.6050  -25.4280   19.2210 C   0  0  0  0  0  2  0  0  0  0  0  0
  -28.3230  -26.5200   20.2030 O   0  0  0  0  0  0  0  0  0  0  0  0
  -24.6010  -31.9370   23.3190 C   0  0  0  0  0  0  0  0  0  0  0  0
  -27.2260  -27.4020   20.1480 C   0  0  0  0  0  0  0  0  0  0  0  0
  -23.4030  -30.5420   21.6730 C   0  0  0  0  0  3  0  0  0  0  0  0
  -24.8560  -29.0160   20.2190 C   0  0  0  0  0  0  0  0  0  0  0  0
  -25.9480  -30.8590   21.4980 C   0  0  0  0  0  2  0  0  0  0  0  0
  -26.0270  -29.4900   20.8240 C   0  0  0  0  0  0  0  0  0  0  0  0
  -27.2100  -28.6850   20.7930 C   0  0  0  0  0  3  0  0  0  0  0  0
  -26.0250  -26.9920   19.5430 C   0  0  0  0  0  3  0  0  0  0  0  0
  -24.8570  -27.7710   19.5760 C   0  0  0  0  0  3  0  0  0  0  0  0
  -23.6170  -29.8830   20.2860 C   0  0  0  0  0  2  0  0  0  0  0  0
  -24.6700  -31.1320   22.2170 N   0  0  0  0  0  0  0  0  0  0  0  0
  -23.5160  -32.2080   23.8530 O   0  0  0  0  0  0  0  0  0  0  0  0
  -22.7500  -29.5150   22.6300 C   0  0  0  0  0  0  0  0  0  0  0  0
  -21.4350  -29.2920   22.4660 N   0  0  0  0  0  0  0  0  0  0  0  0
  -23.4240  -28.9270   23.4790 O   0  0  0  0  0  0  0  0  0  0  0  0
  -20.9500  -29.8220   21.7550 H   0  0  0  0  0  0  0  0  0  0  0  0
  -18.0920  -27.9670   22.8680 C   0  0  0  0  0  0  0  0  0  0  0  0
  -20.6250  -28.3360   23.2250 C   0  0  0  0  0  3  0  0  0  0  0  0
  -20.8050  -26.8990   22.6820 C   0  0  0  0  0  2  0  0  0  0  0  0
  -19.7550  -26.5150   21.6340 C   0  0  0  0  0  2  0  0  0  0  0  0
  -18.3460  -26.6150   22.2250 C   0  0  0  0  0  2  0  0  0  0  0  0
  -19.1620  -28.7820   23.3230 C   0  0  0  0  0  0  0  0  0  0  0  0
  -18.8720  -30.0450   23.8840 C   0  0  0  0  0  3  0  0  0  0  0  0
  -17.5420  -30.4940   23.9960 C   0  0  0  0  0  3  0  0  0  0  0  0
  -16.4850  -29.6780   23.5550 C   0  0  0  0  0  3  0  0  0  0  0  0
  -16.7610  -28.4160   22.9970 C   0  0  0  0  0  3  0  0  0  0  0  0
  -25.8790  -32.5740   23.9440 C   0  0  0  0  0  3  0  0  0  0  0  0
  -25.5740  -33.9820   24.2390 N   0  0  0  0  0  0  0  0  0  0  0  0
  -25.9200  -35.0180   23.4600 C   0  0  0  0  0  0  0  0  0  0  0  0
  -26.5990  -34.8880   22.4390 O   0  0  0  0  0  0  0  0  0  0  0  0
  -24.9670  -34.1580   25.0260 H   0  0  0  0  0  0  0  0  0  0  0  0
  -24.2240  -36.8270   23.0340 C   0  0  0  0  0  1  0  0  0  0  0  0
  -25.4380  -36.4190   23.8840 C   0  0  0  0  0  3  0  0  0  0  0  0
  -27.5510  -37.3010   24.7730 C   0  0  0  0  0  1  0  0  0  0  0  0
  -26.4850  -37.4590   23.7860 N   0  0  0  0  0  0  0  0  0  0  0  0
  -26.0830  -38.3860   23.8990 H   0  0  0  0  0  0  0  0  0  0  0  0
  -26.3710  -31.8330   25.2480 C   0  0  1  0  0  0  0  0  0  0  0  0
  -25.2580  -31.6280   26.3030 C   0  0  0  0  0  1  0  0  0  0  0  0
  -26.9560  -30.4440   24.9040 C   0  0  0  0  0  1  0  0  0  0  0  0
  -27.5100  -32.6420   25.9110 C   0  0  0  0  0  1  0  0  0  0  0  0
  1  2  2  0
  2 54  1  0
  2  6  1  0
  3  4  1  0
  3  1  1  0
  4  7  1  0
  5  3  2  0
  7 12  1  0
  7  6  1  0
  8  4  2  0
  9 10  1  0
 11 12  1  0
 11 14  2  0
 12  9  2  0
 13 10  2  0
 13 24  1  0
 14 13  1  0
 15 14  1  0
 16 24  1  0
 17 22  1  0
 18 19  1  0
 18 17  1  0
 20 19  1  0
 20 29  1  0
 20 21  1  0
 22 16  1  0
 22 21  1  0
 23 16  2  0
 24 25  1  0
 26 27  2  0
 27 46  1  0
 28 27  1  0
 28 31  1  0
 29 26  1  0
 29 30  1  0
 30 28  2  0
 31 32  1  0
 32 33  2  0
 34 37  1  0
 34 33  1  0
 35 34  2  0
 36 35  1  0
 36 31  2  0
 37 38  1  0
 38 43  2  0
 38 39  1  0
 39 40  2  0
 40 41  1  0
 41 45  1  0
 42 41  2  0
 43 42  1  0
 44 43  1  0
 46 47  1  0
 47 50  1  0
 47 49  1  0
 48 46  2  0
 51 26  1  0
 52 51  1  0
 53 51  1  0
 54 55  1  0
 56 67  2  0
 57 55  1  0
 57 62  1  0
 58 66  1  0
 58 68  1  0
 59 65  1  0
 59 61  1  0
 60 66  1  0
 61 60  1  0
 62 61  2  0
 63 64  1  0
 63 57  2  0
 64 59  2  0
 65 58  1  0
 66 56  1  0
 68 70  2  0
 69 68  1  0
 71 69  1  0
 72 81  2  0
 72 77  1  0
 73 69  1  0
 73 77  1  0
 74 73  1  0
 75 76  1  0
 75 74  1  0
 76 72  1  0
 77 78  2  0
 78 79  1  0
 80 79  2  0
 81 80  1  0
 82 56  1  0
 82 83  1  0
 82 92  1  0
 83 86  1  0
 84 88  1  0
 84 83  1  0
 85 84  2  0
 88 87  1  0
 90 88  1  0
 90 91  1  0
 90 89  1  0
 92 95  1  1
 92 93  1  0
 94 92  1  0
M  ISO  4  16 100  24 100  54 101  55 101
M  END
>  <TORSDO>  (79) 
F 18

>  <SCORE>  (79) 
-14.884

>  <name>  (79) 
78

>  <ligand_id>  (79) 
78

>  <original_smiles>  (79) 
[H]C([H])=C1C(=O)N(c2c([H])c([H])c(N([H])C(=O)N3C([H])([H])C([H])([H])C([H])([H])C([H])(n4nc(-c5c([H])c([H])c(Oc6c([H])c([H])c(F)c([H])c6F)c([H])c5[H])c(C(=O)N([H])[H])c4N([H])[H])C3([H])[H])c(F)c2[H])C([H])([H])C(C([H])([H])Oc2c([H])c([H])c3c(c2[H])C([H])([H])N(C(=O)C([H])(N([H])C(=O)C([H])(N([H])C([H])([H])[H])C([H])([H])[H])C(C([H])([H])[H])(C([H])([H])[H])C([H])([H])[H])C([H])(C(=O)N([H])C2([H])c4c([H])c([H])c([H])c([H])c4C([H])([H])C([H])([H])C2([H])[H])C3([H])[H])=C1[H]

>  <smiles>  (79) 
[H]C([H])=C1C(=O)N(c2c([H])c([H])c(N([H])C(=O)N3C([H])([H])C([H])([H])C([H])([H])C([H])(n4nc(-c5c([H])c([H])c(Oc6c([H])c([H])c(F)c([H])c6F)c([H])c5[H])c(C(=O)N([H])[H])c4N([H])[H])C3([H])[H])c(F)c2[H])C([H])([H])C(C([H])([H])Oc2c([H])c([H])c3c(c2[H])C([H])([H])N(C(=O)C([H])(N([H])C(=O)C([H])(N([H])C([H])([H])[H])C([H])([H])[H])C(C([H])([H])[H])(C([H])([H])[H])C([H])([H])[H])C([H])(C(=O)N([H])C2([H])c4c([H])c([H])c([H])c([H])c4C([H])([H])C([H])([H])C2([H])[H])C3([H])[H])=C1[H]

$$$$
79:0:0
     RDKit          3D

 96105  0  0  1  0  0  0  0  0999 V2000
  -28.9570  -23.0310   20.0400 C   0  0  0  0  0  3  0  0  0  0  0  0
  -28.7800  -24.0760   20.8840 C   0  0  0  0  0  0  0  0  0  0  0  0
  -29.3500  -23.9340   22.2300 C   0  0  0  0  0  0  0  0  0  0  0  0
  -29.2340  -24.8990   23.1540 C   0  0  0  0  0  2  0  0  0  0  0  0
  -30.0390  -22.6250   22.6170 C   0  0  0  0  0  2  0  0  0  0  0  0
  -30.6890  -21.9710   21.3880 C   0  0  0  0  0  2  0  0  0  0  0  0
  -29.7050  -21.8670   20.3020 N   0  0  0  0  0  0  0  0  0  0  0  0
  -27.7320  -19.0230   18.8140 C   0  0  0  0  0  3  0  0  0  0  0  0
  -28.6550  -17.9590   18.9070 C   0  0  0  0  0  3  0  0  0  0  0  0
  -28.0560  -20.2900   19.3470 C   0  0  0  0  0  3  0  0  0  0  0  0
  -30.2750  -19.4710   19.8970 C   0  0  0  0  0  3  0  0  0  0  0  0
  -29.9380  -18.1510   19.4660 C   0  0  0  0  0  0  0  0  0  0  0  0
  -29.3540  -20.5550   19.8620 C   0  0  0  0  0  0  0  0  0  0  0  0
  -32.2770  -17.3530   20.1770 C   0  0  0  0  0  1  0  0  0  0  0  0
  -31.3090  -16.6110   18.0190 C   0  0  0  0  0  1  0  0  0  0  0  0
  -30.9390  -16.9520   19.4850 C   0  0  2  0  0  0  0  0  0  0  0  0
  -30.9510  -14.5690   20.4630 C   0  0  0  0  0  0  0  0  0  0  0  0
  -30.5720  -12.4000   19.4460 C   0  0  0  0  0  2  0  0  0  0  0  0
  -29.6740  -12.6710   18.2240 C   0  0  0  0  0  2  0  0  0  0  0  0
  -28.1900  -12.5360   18.6330 C   0  0  0  0  0  2  0  0  0  0  0  0
  -27.8280  -13.3640   19.8990 C   0  0  0  0  0  3  0  0  0  0  0  0
  -28.8860  -13.2090   21.0120 C   0  0  0  0  0  2  0  0  0  0  0  0
  -30.2120  -13.4320   20.4270 N   0  0  0  0  0  0  0  0  0  0  0  0
  -32.1730  -14.5150   20.4410 O   0  0  0  0  0  0  0  0  0  0  0  0
  -30.3210  -15.7190   20.1020 N   0  0  0  0  0  0  0  0  0  0  0  0
  -29.3150  -15.6740   20.0500 H   0  0  0  0  0  0  0  0  0  0  0  0
  -25.4100  -13.9620   20.5270 C   0  0  0  0  0  0  0  0  0  0  0  0
  -24.3330  -13.1810   20.8550 C   0  0  0  0  0  0  0  0  0  0  0  0
  -24.8080  -11.8290   20.8710 C   0  0  0  0  0  0  0  0  0  0  0  0
  -26.4710  -13.0830   20.3500 N   0  0  0  0  0  0  0  0  0  0  0  0
  -26.1130  -11.7980   20.6180 N   0  0  0  0  0  0  0  0  0  0  0  0
  -24.0870  -10.5620   21.0520 C   0  0  0  0  0  0  0  0  0  0  0  0
  -24.4940   -9.6050   22.0080 C   0  0  0  0  0  3  0  0  0  0  0  0
  -23.7630   -8.4090   22.1760 C   0  0  0  0  0  3  0  0  0  0  0  0
  -22.6170   -8.1610   21.3850 C   0  0  0  0  0  0  0  0  0  0  0  0
  -22.2320   -9.1070   20.4220 C   0  0  0  0  0  3  0  0  0  0  0  0
  -22.9630  -10.2940   20.2510 C   0  0  0  0  0  3  0  0  0  0  0  0
  -21.8590   -7.0170   21.4570 O   0  0  0  0  0  0  0  0  0  0  0  0
  -21.7680   -6.2870   22.6160 C   0  0  0  0  0  0  0  0  0  0  0  0
  -21.2800   -6.8470   23.8150 C   0  0  0  0  0  3  0  0  0  0  0  0
  -21.1440   -6.0460   24.9640 C   0  0  0  0  0  3  0  0  0  0  0  0
  -21.4850   -4.6790   24.9160 C   0  0  0  0  0  0  0  0  0  0  0  0
  -21.9700   -4.1180   23.7210 C   0  0  0  0  0  3  0  0  0  0  0  0
  -22.1100   -4.9200   22.5730 C   0  0  0  0  0  0  0  0  0  0  0  0
  -22.5600   -4.3680   21.4200 F   0  0  0  0  0  0  0  0  0  0  0  0
  -21.3530   -3.9050   26.0160 F   0  0  0  0  0  0  0  0  0  0  0  0
  -22.9260  -13.6600   21.0630 C   0  0  0  0  0  0  0  0  0  0  0  0
  -22.1630  -12.9770   21.9070 N   0  0  0  0  0  0  0  0  0  0  0  0
  -22.5000  -14.6740   20.5090 O   0  0  0  0  0  0  0  0  0  0  0  0
  -22.5150  -12.1590   22.3850 H   0  0  0  0  0  0  0  0  0  0  0  0
  -21.2090  -13.2660   22.0720 H   0  0  0  0  0  0  0  0  0  0  0  0
  -25.5480  -15.3380   20.3410 N   0  0  0  0  0  0  0  0  0  0  0  0
  -24.7290  -15.9320   20.4030 H   0  0  0  0  0  0  0  0  0  0  0  0
  -26.3730  -15.8540   20.0640 H   0  0  0  0  0  0  0  0  0  0  0  0
  -27.7730  -25.1860   20.5090 C   0  0  0  0  0  2  0  0  0  0  0  0
  -28.2380  -26.5460   20.1980 O   0  0  0  0  0  0  0  0  0  0  0  0
  -24.5510  -31.9140   23.1600 C   0  0  0  0  0  0  0  0  0  0  0  0
  -27.1680  -27.4280   20.0780 C   0  0  0  0  0  0  0  0  0  0  0  0
  -23.3590  -30.5210   21.5060 C   0  0  0  0  0  3  0  0  0  0  0  0
  -24.8170  -29.0140   20.0670 C   0  0  0  0  0  0  0  0  0  0  0  0
  -25.8970  -30.8680   21.3310 C   0  0  0  0  0  2  0  0  0  0  0  0
  -25.9870  -29.5020   20.6730 C   0  0  0  0  0  0  0  0  0  0  0  0
  -27.1730  -28.7190   20.6700 C   0  0  0  0  0  3  0  0  0  0  0  0
  -25.9950  -27.0170   19.4030 C   0  0  0  0  0  3  0  0  0  0  0  0
  -24.8230  -27.7760   19.4190 C   0  0  0  0  0  3  0  0  0  0  0  0
  -23.5740  -29.8680   20.1220 C   0  0  0  0  0  2  0  0  0  0  0  0
  -24.6210  -31.1160   22.0570 N   0  0  0  0  0  0  0  0  0  0  0  0
  -23.4670  -32.1840   23.6960 O   0  0  0  0  0  0  0  0  0  0  0  0
  -22.7120  -29.4890   22.4540 C   0  0  0  0  0  0  0  0  0  0  0  0
  -21.3810  -29.3180   22.3610 N   0  0  0  0  0  0  0  0  0  0  0  0
  -23.4040  -28.8420   23.2400 O   0  0  0  0  0  0  0  0  0  0  0  0
  -20.8710  -29.9010   21.7140 H   0  0  0  0  0  0  0  0  0  0  0  0
  -18.0020  -28.1620   22.8630 C   0  0  0  0  0  0  0  0  0  0  0  0
  -20.5680  -28.3700   23.1270 C   0  0  0  0  0  3  0  0  0  0  0  0
  -20.6370  -26.9360   22.5330 C   0  0  0  0  0  2  0  0  0  0  0  0
  -19.5340  -26.6820   21.4980 C   0  0  0  0  0  2  0  0  0  0  0  0
  -18.1470  -26.8420   22.1240 C   0  0  0  0  0  2  0  0  0  0  0  0
  -19.1390  -28.8870   23.3110 C   0  0  0  0  0  0  0  0  0  0  0  0
  -18.9520  -30.1230   23.9540 C   0  0  0  0  0  3  0  0  0  0  0  0
  -17.6610  -30.6480   24.1560 C   0  0  0  0  0  3  0  0  0  0  0  0
  -16.5360  -29.9140   23.7450 C   0  0  0  0  0  3  0  0  0  0  0  0
  -16.7080  -28.6770   23.0970 C   0  0  0  0  0  3  0  0  0  0  0  0
  -25.8370  -32.5500   23.7780 C   0  0  0  0  0  3  0  0  0  0  0  0
  -26.3640  -31.7730   25.0470 C   0  0  1  0  0  0  0  0  0  0  0  0
  -25.2680  -31.5130   26.1080 C   0  0  0  0  0  1  0  0  0  0  0  0
  -26.9620  -30.4070   24.6450 C   0  0  0  0  0  1  0  0  0  0  0  0
  -27.5110  -32.5710   25.7150 C   0  0  0  0  0  1  0  0  0  0  0  0
  -25.5220  -33.9440   24.1260 N   0  0  0  0  0  0  0  0  0  0  0  0
  -25.8710  -35.0070   23.3920 C   0  0  0  0  0  0  0  0  0  0  0  0
  -26.5560  -34.9150   22.3740 O   0  0  0  0  0  0  0  0  0  0  0  0
  -24.9070  -34.0900   24.9130 H   0  0  0  0  0  0  0  0  0  0  0  0
  -24.1730  -36.8210   22.9930 C   0  0  0  0  0  1  0  0  0  0  0  0
  -25.3680  -36.3890   23.8580 C   0  0  0  0  0  3  0  0  0  0  0  0
  -27.4590  -37.2370   24.8230 C   0  0  0  0  0  1  0  0  0  0  0  0
  -26.4120  -37.4330   23.8230 N   0  0  0  0  0  0  0  0  0  0  0  0
  -26.0090  -38.3550   23.9660 H   0  0  0  0  0  0  0  0  0  0  0  0
  1  7  1  0
  1  2  2  0
  2  3  1  0
  3  5  1  0
  3  4  2  0
  6  5  1  0
  7  6  1  0
  8  9  2  0
  8 10  1  0
  9 12  1  0
 10 13  2  0
 12 16  1  0
 12 11  2  0
 13 11  1  0
 13  7  1  0
 16 15  1  6
 16 25  1  0
 16 14  1  0
 18 23  1  0
 19 20  1  0
 19 18  1  0
 21 20  1  0
 21 30  1  0
 21 22  1  0
 23 17  1  0
 23 22  1  0
 24 17  2  0
 25 17  1  0
 26 25  1  0
 27 28  2  0
 28 29  1  0
 28 47  1  0
 29 32  1  0
 30 27  1  0
 30 31  1  0
 31 29  2  0
 32 33  1  0
 33 34  2  0
 35 38  1  0
 35 34  1  0
 36 35  2  0
 37 36  1  0
 37 32  2  0
 38 39  1  0
 39 40  1  0
 40 41  2  0
 42 41  1  0
 42 46  1  0
 43 42  2  0
 44 39  2  0
 44 43  1  0
 45 44  1  0
 47 48  1  0
 48 51  1  0
 48 50  1  0
 49 47  2  0
 52 53  1  0
 52 27  1  0
 54 52  1  0
 55  2  1  0
 56 55  1  0
 57 68  2  0
 58 56  1  0
 58 63  1  0
 59 67  1  0
 59 69  1  0
 60 66  1  0
 60 62  1  0
 61 67  1  0
 62 61  1  0
 63 62  2  0
 64 65  1  0
 64 58  2  0
 65 60  2  0
 66 59  1  0
 67 57  1  0
 69 71  2  0
 70 69  1  0
 72 70  1  0
 73 82  2  0
 73 78  1  0
 74 70  1  0
 74 78  1  0
 75 74  1  0
 76 77  1  0
 76 75  1  0
 77 73  1  0
 78 79  2  0
 79 80  1  0
 81 80  2  0
 82 81  1  0
 83 57  1  0
 83 88  1  0
 83 84  1  0
 84 87  1  1
 84 85  1  0
 86 84  1  0
 88 91  1  0
 89 93  1  0
 89 88  1  0
 90 89  2  0
 93 92  1  0
 95 93  1  0
 95 96  1  0
 95 94  1  0
M  ISO  4  17 100  25 100  55 101  56 101
M  END
>  <TORSDO>  (80) 
F 19

>  <SCORE>  (80) 
-14.831

>  <name>  (80) 
79

>  <ligand_id>  (80) 
79

>  <original_smiles>  (80) 
[H]C([H])=C1C(C([H])([H])Oc2c([H])c([H])c3c(c2[H])C([H])([H])N(C(=O)C([H])(N([H])C(=O)C([H])(N([H])C([H])([H])[H])C([H])([H])[H])C(C([H])([H])[H])(C([H])([H])[H])C([H])([H])[H])C([H])(C(=O)N([H])C2([H])c4c([H])c([H])c([H])c([H])c4C([H])([H])C([H])([H])C2([H])[H])C3([H])[H])=C([H])N(c2c([H])c([H])c([H])c(C(N([H])C(=O)N3C([H])([H])C([H])([H])C([H])([H])C([H])(n4nc(-c5c([H])c([H])c(Oc6c([H])c([H])c(F)c([H])c6F)c([H])c5[H])c(C(=O)N([H])[H])c4N([H])[H])C3([H])[H])(C([H])([H])[H])C([H])([H])[H])c2[H])C([H])([H])C1([H])[H]

>  <smiles>  (80) 
[H]C([H])=C1C(C([H])([H])Oc2c([H])c([H])c3c(c2[H])C([H])([H])N(C(=O)C([H])(N([H])C(=O)C([H])(N([H])C([H])([H])[H])C([H])([H])[H])C(C([H])([H])[H])(C([H])([H])[H])C([H])([H])[H])C([H])(C(=O)N([H])C2([H])c4c([H])c([H])c([H])c([H])c4C([H])([H])C([H])([H])C2([H])[H])C3([H])[H])=C([H])N(c2c([H])c([H])c([H])c(C(N([H])C(=O)N3C([H])([H])C([H])([H])C([H])([H])C([H])(n4nc(-c5c([H])c([H])c(Oc6c([H])c([H])c(F)c([H])c6F)c([H])c5[H])c(C(=O)N([H])[H])c4N([H])[H])C3([H])[H])(C([H])([H])[H])C([H])([H])[H])c2[H])C([H])([H])C1([H])[H]

$$$$
80:0:0
     RDKit          3D

 95103  0  0  1  0  0  0  0  0999 V2000
  -29.5730  -22.5130   20.1980 C   0  0  0  0  0  0  0  0  0  0  0  0
  -28.5640  -23.4840   19.9220 N   0  0  0  0  0  0  0  0  0  0  0  0
  -30.6410  -22.9560   20.6280 O   0  0  0  0  0  0  0  0  0  0  0  0
  -27.7120  -23.1230   19.5180 H   0  0  0  0  0  0  0  0  0  0  0  0
  -30.8070  -20.1360   19.9440 C   0  0  0  0  0  3  0  0  0  0  0  0
  -30.9460  -18.6840   20.0110 C   0  0  0  0  0  3  0  0  0  0  0  0
  -28.4860  -19.9830   20.2460 C   0  0  0  0  0  3  0  0  0  0  0  0
  -29.5780  -20.8970   20.0570 C   0  0  0  0  0  0  0  0  0  0  0  0
  -29.8520  -17.7790   20.2160 C   0  0  0  0  0  0  0  0  0  0  0  0
  -28.6180  -18.5260   20.3140 C   0  0  0  0  0  0  0  0  0  0  0  0
  -27.4860  -17.8070   20.5070 F   0  0  0  0  0  0  0  0  0  0  0  0
  -30.7010  -15.1140   20.0860 C   0  0  0  0  0  0  0  0  0  0  0  0
  -30.6020  -12.7440   19.1650 C   0  0  0  0  0  2  0  0  0  0  0  0
  -29.6240  -12.6870   17.9660 C   0  0  0  0  0  2  0  0  0  0  0  0
  -28.1740  -12.4780   18.4450 C   0  0  0  0  0  2  0  0  0  0  0  0
  -27.8070  -13.4020   19.6350 C   0  0  0  0  0  3  0  0  0  0  0  0
  -28.8990  -13.4030   20.7250 C   0  0  0  0  0  2  0  0  0  0  0  0
  -30.1480  -13.8310   20.0800 N   0  0  0  0  0  0  0  0  0  0  0  0
  -31.8820  -15.2210   19.7350 O   0  0  0  0  0  0  0  0  0  0  0  0
  -29.8540  -16.2350   20.3220 N   0  0  0  0  0  0  0  0  0  0  0  0
  -28.9490  -15.9070   20.6220 H   0  0  0  0  0  0  0  0  0  0  0  0
  -25.4610  -13.9890   20.4780 C   0  0  0  0  0  0  0  0  0  0  0  0
  -24.4030  -13.2170   20.8690 C   0  0  0  0  0  0  0  0  0  0  0  0
  -24.8500  -11.8630   20.7870 C   0  0  0  0  0  0  0  0  0  0  0  0
  -26.4850  -13.1060   20.1760 N   0  0  0  0  0  0  0  0  0  0  0  0
  -26.1290  -11.8190   20.4250 N   0  0  0  0  0  0  0  0  0  0  0  0
  -24.1150  -10.6040   20.9730 C   0  0  0  0  0  0  0  0  0  0  0  0
  -24.5240   -9.6420   21.9220 C   0  0  0  0  0  3  0  0  0  0  0  0
  -23.7880   -8.4500   22.0960 C   0  0  0  0  0  3  0  0  0  0  0  0
  -22.6300   -8.2110   21.3200 C   0  0  0  0  0  0  0  0  0  0  0  0
  -22.2400   -9.1620   20.3590 C   0  0  0  0  0  3  0  0  0  0  0  0
  -22.9760  -10.3450   20.1830 C   0  0  0  0  0  3  0  0  0  0  0  0
  -21.8670   -7.0710   21.4010 O   0  0  0  0  0  0  0  0  0  0  0  0
  -21.7430   -6.3720   22.5750 C   0  0  0  0  0  0  0  0  0  0  0  0
  -21.2120   -6.9630   23.7420 C   0  0  0  0  0  3  0  0  0  0  0  0
  -21.0370   -6.1880   24.9070 C   0  0  0  0  0  3  0  0  0  0  0  0
  -21.3830   -4.8240   24.9040 C   0  0  0  0  0  0  0  0  0  0  0  0
  -21.9060   -4.2320   23.7410 C   0  0  0  0  0  3  0  0  0  0  0  0
  -22.0820   -5.0040   22.5790 C   0  0  0  0  0  0  0  0  0  0  0  0
  -22.5670   -4.4230   21.4550 F   0  0  0  0  0  0  0  0  0  0  0  0
  -21.2070   -4.0780   26.0190 F   0  0  0  0  0  0  0  0  0  0  0  0
  -23.0230  -13.7030   21.2050 C   0  0  0  0  0  0  0  0  0  0  0  0
  -22.3210  -12.9960   22.0830 N   0  0  0  0  0  0  0  0  0  0  0  0
  -22.5790  -14.7460   20.7270 O   0  0  0  0  0  0  0  0  0  0  0  0
  -22.6940  -12.1510   22.4900 H   0  0  0  0  0  0  0  0  0  0  0  0
  -21.3970  -13.3030   22.3510 H   0  0  0  0  0  0  0  0  0  0  0  0
  -25.6310  -15.3630   20.3310 N   0  0  0  0  0  0  0  0  0  0  0  0
  -24.8790  -16.0170   20.5210 H   0  0  0  0  0  0  0  0  0  0  0  0
  -26.4760  -15.8220   20.0210 H   0  0  0  0  0  0  0  0  0  0  0  0
  -28.4400  -24.9350   20.5550 C   0  0  0  0  0  3  0  0  0  0  0  0
  -27.9290  -26.1380   22.7670 C   0  0  0  0  0  1  0  0  0  0  0  0
  -28.0430  -23.6710   22.7550 C   0  0  0  0  0  1  0  0  0  0  0  0
  -26.0970  -24.7580   21.6520 C   0  0  0  0  0  1  0  0  0  0  0  0
  -27.6110  -24.8930   21.9100 C   0  0  2  0  0  0  0  0  0  0  0  0
  -28.3010  -26.2530   19.7520 O   0  0  0  0  0  0  0  0  0  0  0  0
  -24.5670  -31.7660   22.9920 C   0  0  0  0  0  0  0  0  0  0  0  0
  -27.2050  -27.1960   19.8070 C   0  0  0  0  0  0  0  0  0  0  0  0
  -23.3750  -30.3970   21.3240 C   0  0  0  0  0  3  0  0  0  0  0  0
  -24.8390  -28.8930   19.8340 C   0  0  0  0  0  0  0  0  0  0  0  0
  -25.9190  -30.7240   21.1330 C   0  0  0  0  0  2  0  0  0  0  0  0
  -26.0140  -29.3520   20.4410 C   0  0  0  0  0  0  0  0  0  0  0  0
  -27.1990  -28.5260   20.3980 C   0  0  0  0  0  3  0  0  0  0  0  0
  -26.0110  -26.8510   19.1400 C   0  0  0  0  0  3  0  0  0  0  0  0
  -24.8490  -27.6590   19.1640 C   0  0  0  0  0  3  0  0  0  0  0  0
  -23.5920  -29.7620   19.9230 C   0  0  0  0  0  2  0  0  0  0  0  0
  -24.6410  -30.9830   21.8720 N   0  0  0  0  0  0  0  0  0  0  0  0
  -23.4820  -32.0110   23.5420 O   0  0  0  0  0  0  0  0  0  0  0  0
  -22.7310  -29.3470   22.2640 C   0  0  0  0  0  0  0  0  0  0  0  0
  -21.3980  -29.1840   22.1800 N   0  0  0  0  0  0  0  0  0  0  0  0
  -23.4320  -28.6850   23.0340 O   0  0  0  0  0  0  0  0  0  0  0  0
  -20.8880  -29.7720   21.5350 H   0  0  0  0  0  0  0  0  0  0  0  0
  -18.0320  -27.9960   22.7870 C   0  0  0  0  0  0  0  0  0  0  0  0
  -20.6050  -28.2130   22.9390 C   0  0  0  0  0  3  0  0  0  0  0  0
  -20.6570  -26.8150   22.2770 C   0  0  0  0  0  2  0  0  0  0  0  0
  -19.5010  -26.5650   21.3040 C   0  0  0  0  0  2  0  0  0  0  0  0
  -18.1550  -26.6870   22.0240 C   0  0  0  0  0  2  0  0  0  0  0  0
  -19.1810  -28.7200   23.2020 C   0  0  0  0  0  0  0  0  0  0  0  0
  -19.0070  -29.9460   23.8790 C   0  0  0  0  0  3  0  0  0  0  0  0
  -17.7190  -30.4480   24.1430 C   0  0  0  0  0  3  0  0  0  0  0  0
  -16.5850  -29.7190   23.7420 C   0  0  0  0  0  3  0  0  0  0  0  0
  -16.7430  -28.4940   23.0690 C   0  0  0  0  0  3  0  0  0  0  0  0
  -25.8390  -32.4100   23.6230 C   0  0  0  0  0  3  0  0  0  0  0  0
  -26.3900  -31.6040   24.8640 C   0  0  1  0  0  0  0  0  0  0  0  0
  -25.3180  -31.3060   25.9370 C   0  0  0  0  0  1  0  0  0  0  0  0
  -26.9970  -30.2540   24.4170 C   0  0  0  0  0  1  0  0  0  0  0  0
  -27.5330  -32.4000   25.5380 C   0  0  0  0  0  1  0  0  0  0  0  0
  -25.4980  -33.7870   24.0160 N   0  0  0  0  0  0  0  0  0  0  0  0
  -25.8060  -34.8820   23.3100 C   0  0  0  0  0  0  0  0  0  0  0  0
  -26.4710  -34.8420   22.2710 O   0  0  0  0  0  0  0  0  0  0  0  0
  -24.9040  -33.8890   24.8260 H   0  0  0  0  0  0  0  0  0  0  0  0
  -24.0460  -36.6630   23.0490 C   0  0  0  0  0  1  0  0  0  0  0  0
  -25.2950  -36.2370   23.8380 C   0  0  0  0  0  3  0  0  0  0  0  0
  -27.4090  -37.1240   24.7210 C   0  0  0  0  0  1  0  0  0  0  0  0
  -26.3090  -37.3130   23.7780 N   0  0  0  0  0  0  0  0  0  0  0  0
  -25.8840  -38.2180   23.9630 H   0  0  0  0  0  0  0  0  0  0  0  0
  1  3  2  0
  2  1  1  0
  2 50  1  0
  4  2  1  0
  5  6  2  0
  5  8  1  0
  6  9  1  0
  7 10  1  0
  8  1  1  0
  8  7  2  0
  9 10  2  0
  9 20  1  0
 10 11  1  0
 12 20  1  0
 13 18  1  0
 14 15  1  0
 14 13  1  0
 16 15  1  0
 16 25  1  0
 16 17  1  0
 18 12  1  0
 18 17  1  0
 19 12  2  0
 20 21  1  0
 22 23  2  0
 23 42  1  0
 24 23  1  0
 24 27  1  0
 25 26  1  0
 25 22  1  0
 26 24  2  0
 27 28  1  0
 28 29  2  0
 30 33  1  0
 30 29  1  0
 31 30  2  0
 32 31  1  0
 32 27  2  0
 33 34  1  0
 34 39  2  0
 34 35  1  0
 35 36  2  0
 37 36  1  0
 37 41  1  0
 38 37  2  0
 39 38  1  0
 40 39  1  0
 42 43  1  0
 43 46  1  0
 43 45  1  0
 44 42  2  0
 47 22  1  0
 47 48  1  0
 49 47  1  0
 50 55  1  0
 50 54  1  0
 54 53  1  6
 54 52  1  0
 54 51  1  0
 55 57  1  0
 56 67  2  0
 57 62  1  0
 58 66  1  0
 58 68  1  0
 59 65  1  0
 59 61  1  0
 60 66  1  0
 61 60  1  0
 62 61  2  0
 63 64  1  0
 63 57  2  0
 64 59  2  0
 65 58  1  0
 66 56  1  0
 68 70  2  0
 69 68  1  0
 71 69  1  0
 72 81  2  0
 72 77  1  0
 73 69  1  0
 73 77  1  0
 74 73  1  0
 75 76  1  0
 75 74  1  0
 76 72  1  0
 77 78  2  0
 78 79  1  0
 80 79  2  0
 81 80  1  0
 82 56  1  0
 82 87  1  0
 82 83  1  0
 83 86  1  1
 83 84  1  0
 85 83  1  0
 87 90  1  0
 88 92  1  0
 88 87  1  0
 89 88  2  0
 92 91  1  0
 94 92  1  0
 94 95  1  0
 94 93  1  0
M  ISO  4  12 100  20 100  50 101  55 101
M  END
>  <TORSDO>  (81) 
F 19

>  <SCORE>  (81) 
-13.831

>  <name>  (81) 
80

>  <ligand_id>  (81) 
80

>  <original_smiles>  (81) 
[H]c1c([H])c([H])c2c(c1[H])C([H])([H])C([H])([H])C([H])([H])C2([H])N([H])C(=O)C1([H])N(C(=O)C([H])(N([H])C(=O)C([H])(N([H])C([H])([H])[H])C([H])([H])[H])C(C([H])([H])[H])(C([H])([H])[H])C([H])([H])[H])C([H])([H])c2c([H])c(OC([H])(N([H])C(=O)c3c([H])c([H])c(N([H])C(=O)N4C([H])([H])C([H])([H])C([H])([H])C([H])(n5nc(-c6c([H])c([H])c(Oc7c([H])c([H])c(F)c([H])c7F)c([H])c6[H])c(C(=O)N([H])[H])c5N([H])[H])C4([H])[H])c(F)c3[H])C(C([H])([H])[H])(C([H])([H])[H])C([H])([H])[H])c([H])c([H])c2C1([H])[H]

>  <smiles>  (81) 
[H]c1c([H])c([H])c2c(c1[H])C([H])([H])C([H])([H])C([H])([H])C2([H])N([H])C(=O)C1([H])N(C(=O)C([H])(N([H])C(=O)C([H])(N([H])C([H])([H])[H])C([H])([H])[H])C(C([H])([H])[H])(C([H])([H])[H])C([H])([H])[H])C([H])([H])c2c([H])c(OC([H])(N([H])C(=O)c3c([H])c([H])c(N([H])C(=O)N4C([H])([H])C([H])([H])C([H])([H])C([H])(n5nc(-c6c([H])c([H])c(Oc7c([H])c([H])c(F)c([H])c7F)c([H])c6[H])c(C(=O)N([H])[H])c5N([H])[H])C4([H])[H])c(F)c3[H])C(C([H])([H])[H])(C([H])([H])[H])C([H])([H])[H])c([H])c([H])c2C1([H])[H]

$$$$
81:0:0
     RDKit          3D

 95103  0  0  1  0  0  0  0  0999 V2000
  -28.7140  -21.1460   20.0330 C   0  0  0  0  0  0  0  0  0  0  0  0
  -29.5660  -22.1780   20.2120 N   0  0  0  0  0  0  0  0  0  0  0  0
  -27.5430  -21.3350   19.6980 O   0  0  0  0  0  0  0  0  0  0  0  0
  -30.5170  -21.9380   20.4570 H   0  0  0  0  0  0  0  0  0  0  0  0
  -28.6100  -18.6790   19.4270 C   0  0  0  0  0  3  0  0  0  0  0  0
  -30.2000  -19.3260   21.1300 C   0  0  0  0  0  3  0  0  0  0  0  0
  -28.9290  -17.3150   19.6310 C   0  0  0  0  0  3  0  0  0  0  0  0
  -30.5190  -17.9550   21.3430 C   0  0  0  0  0  3  0  0  0  0  0  0
  -29.2180  -19.7120   20.1820 C   0  0  0  0  0  0  0  0  0  0  0  0
  -29.8760  -16.9290   20.6060 C   0  0  0  0  0  0  0  0  0  0  0  0
  -30.6960  -14.5830   20.3010 C   0  0  0  0  0  0  0  0  0  0  0  0
  -30.4200  -12.4100   19.1450 C   0  0  0  0  0  2  0  0  0  0  0  0
  -29.4470  -12.6100   17.9630 C   0  0  0  0  0  2  0  0  0  0  0  0
  -27.9820  -12.4590   18.4220 C   0  0  0  0  0  2  0  0  0  0  0  0
  -27.6690  -13.2820   19.6980 C   0  0  0  0  0  3  0  0  0  0  0  0
  -28.7480  -13.0470   20.7810 C   0  0  0  0  0  2  0  0  0  0  0  0
  -30.0610  -13.3780   20.1950 N   0  0  0  0  0  0  0  0  0  0  0  0
  -31.7940  -14.8040   19.7800 O   0  0  0  0  0  0  0  0  0  0  0  0
  -30.0080  -15.5420   20.9600 N   0  0  0  0  0  0  0  0  0  0  0  0
  -29.1980  -15.1610   21.4230 H   0  0  0  0  0  0  0  0  0  0  0  0
  -25.2860  -13.8910   20.4600 C   0  0  0  0  0  0  0  0  0  0  0  0
  -24.2230  -13.1180   20.8430 C   0  0  0  0  0  0  0  0  0  0  0  0
  -24.6810  -11.7660   20.7930 C   0  0  0  0  0  0  0  0  0  0  0  0
  -26.3240  -13.0080   20.2010 N   0  0  0  0  0  0  0  0  0  0  0  0
  -25.9630  -11.7250   20.4580 N   0  0  0  0  0  0  0  0  0  0  0  0
  -23.9540  -10.5040   20.9900 C   0  0  0  0  0  0  0  0  0  0  0  0
  -24.3890   -9.5420   21.9280 C   0  0  0  0  0  3  0  0  0  0  0  0
  -23.6640   -8.3440   22.1110 C   0  0  0  0  0  3  0  0  0  0  0  0
  -22.4930   -8.1000   21.3560 C   0  0  0  0  0  0  0  0  0  0  0  0
  -22.0770   -9.0510   20.4080 C   0  0  0  0  0  3  0  0  0  0  0  0
  -22.8020  -10.2410   20.2220 C   0  0  0  0  0  3  0  0  0  0  0  0
  -21.7410   -6.9540   21.4490 O   0  0  0  0  0  0  0  0  0  0  0  0
  -21.6760   -6.2260   22.6100 C   0  0  0  0  0  0  0  0  0  0  0  0
  -21.1940   -6.7870   23.8130 C   0  0  0  0  0  3  0  0  0  0  0  0
  -21.0780   -5.9860   24.9660 C   0  0  0  0  0  3  0  0  0  0  0  0
  -21.4350   -4.6250   24.9180 C   0  0  0  0  0  0  0  0  0  0  0  0
  -21.9090   -4.0630   23.7190 C   0  0  0  0  0  3  0  0  0  0  0  0
  -22.0270   -4.8620   22.5680 C   0  0  0  0  0  0  0  0  0  0  0  0
  -22.4650   -4.3110   21.4100 F   0  0  0  0  0  0  0  0  0  0  0  0
  -21.3160   -3.8530   26.0230 F   0  0  0  0  0  0  0  0  0  0  0  0
  -22.8330  -13.5970   21.1490 C   0  0  0  0  0  0  0  0  0  0  0  0
  -22.1170  -12.8900   22.0180 N   0  0  0  0  0  0  0  0  0  0  0  0
  -22.3890  -14.6330   20.6540 O   0  0  0  0  0  0  0  0  0  0  0  0
  -22.4890  -12.0530   22.4410 H   0  0  0  0  0  0  0  0  0  0  0  0
  -21.1860  -13.1920   22.2640 H   0  0  0  0  0  0  0  0  0  0  0  0
  -25.4500  -15.2620   20.2930 N   0  0  0  0  0  0  0  0  0  0  0  0
  -24.6920  -15.9200   20.4340 H   0  0  0  0  0  0  0  0  0  0  0  0
  -26.3050  -15.7070   19.9840 H   0  0  0  0  0  0  0  0  0  0  0  0
  -29.2740  -23.6200   19.9650 C   0  0  0  0  0  3  0  0  0  0  0  0
  -28.5010  -25.7560   21.2340 C   0  0  0  0  0  3  0  0  0  0  0  0
  -28.8580  -24.4390   21.2090 C   0  0  0  0  0  0  0  0  0  0  0  0
  -28.8520  -23.6650   22.5190 C   0  0  0  0  0  1  0  0  0  0  0  0
  -28.4450  -26.6540   20.1850 O   0  0  0  0  0  0  0  0  0  0  0  0
  -24.6070  -31.8890   23.2330 C   0  0  0  0  0  0  0  0  0  0  0  0
  -27.3230  -27.4590   20.1680 C   0  0  0  0  0  0  0  0  0  0  0  0
  -23.4330  -30.4800   21.5740 C   0  0  0  0  0  3  0  0  0  0  0  0
  -24.9190  -28.9610   20.1560 C   0  0  0  0  0  0  0  0  0  0  0  0
  -25.9600  -30.8580   21.4060 C   0  0  0  0  0  2  0  0  0  0  0  0
  -26.0680  -29.4880   20.7610 C   0  0  0  0  0  0  0  0  0  0  0  0
  -27.2760  -28.7450   20.7650 C   0  0  0  0  0  3  0  0  0  0  0  0
  -26.1590  -26.9550   19.5540 C   0  0  0  0  0  3  0  0  0  0  0  0
  -24.9600  -27.6940   19.5490 C   0  0  0  0  0  3  0  0  0  0  0  0
  -23.6650  -29.8080   20.1950 C   0  0  0  0  0  2  0  0  0  0  0  0
  -24.6840  -31.0920   22.1290 N   0  0  0  0  0  0  0  0  0  0  0  0
  -23.5170  -32.1490   23.7620 O   0  0  0  0  0  0  0  0  0  0  0  0
  -22.7810  -29.4500   22.5240 C   0  0  0  0  0  0  0  0  0  0  0  0
  -21.4540  -29.2770   22.4020 N   0  0  0  0  0  0  0  0  0  0  0  0
  -23.4640  -28.8110   23.3280 O   0  0  0  0  0  0  0  0  0  0  0  0
  -20.9640  -29.8470   21.7270 H   0  0  0  0  0  0  0  0  0  0  0  0
  -18.0740  -28.1020   22.9130 C   0  0  0  0  0  0  0  0  0  0  0  0
  -20.6360  -28.3330   23.1640 C   0  0  0  0  0  3  0  0  0  0  0  0
  -20.7200  -26.9110   22.5610 C   0  0  0  0  0  2  0  0  0  0  0  0
  -19.6050  -26.6160   21.5520 C   0  0  0  0  0  2  0  0  0  0  0  0
  -18.2310  -26.7630   22.2120 C   0  0  0  0  0  2  0  0  0  0  0  0
  -19.2030  -28.8470   23.3460 C   0  0  0  0  0  0  0  0  0  0  0  0
  -19.0020  -30.1010   23.9600 C   0  0  0  0  0  3  0  0  0  0  0  0
  -17.7040  -30.6100   24.1480 C   0  0  0  0  0  3  0  0  0  0  0  0
  -16.5880  -29.8640   23.7320 C   0  0  0  0  0  3  0  0  0  0  0  0
  -16.7750  -28.6110   23.1190 C   0  0  0  0  0  3  0  0  0  0  0  0
  -25.8800  -32.5300   23.8690 C   0  0  0  0  0  3  0  0  0  0  0  0
  -26.3920  -31.7610   25.1480 C   0  0  1  0  0  0  0  0  0  0  0  0
  -25.2910  -31.5120   26.2040 C   0  0  0  0  0  1  0  0  0  0  0  0
  -26.9910  -30.3900   24.7560 C   0  0  0  0  0  1  0  0  0  0  0  0
  -27.5280  -32.5650   25.8220 C   0  0  0  0  0  1  0  0  0  0  0  0
  -25.5560  -33.9250   24.1970 N   0  0  0  0  0  0  0  0  0  0  0  0
  -25.8710  -34.9790   23.4320 C   0  0  0  0  0  0  0  0  0  0  0  0
  -26.5350  -34.8810   22.3970 O   0  0  0  0  0  0  0  0  0  0  0  0
  -24.9640  -34.0740   25.0010 H   0  0  0  0  0  0  0  0  0  0  0  0
  -24.1180  -36.7490   23.0820 C   0  0  0  0  0  1  0  0  0  0  0  0
  -25.3680  -36.3620   23.8880 C   0  0  0  0  0  3  0  0  0  0  0  0
  -27.4910  -37.2810   24.7110 C   0  0  0  0  0  1  0  0  0  0  0  0
  -26.3860  -37.4280   23.7670 N   0  0  0  0  0  0  0  0  0  0  0  0
  -25.9670  -38.3430   23.9100 H   0  0  0  0  0  0  0  0  0  0  0  0
  -30.5360  -24.7620   18.0930 C   0  0  0  0  0  2  0  0  0  0  0  0
  -30.4980  -24.2590   19.3360 C   0  0  0  0  0  3  0  0  0  0  0  0
  1  9  1  0
  1  2  1  0
  2  4  1  0
  3  1  2  0
  5  7  2  0
  5  9  1  0
  6  8  1  0
  7 10  1  0
  9  6  2  0
 10 19  1  0
 10  8  2  0
 11 19  1  0
 12 17  1  0
 13 14  1  0
 13 12  1  0
 15 14  1  0
 15 24  1  0
 15 16  1  0
 17 11  1  0
 17 16  1  0
 18 11  2  0
 19 20  1  0
 21 22  2  0
 22 41  1  0
 23 22  1  0
 23 26  1  0
 24 25  1  0
 24 21  1  0
 25 23  2  0
 26 27  1  0
 27 28  2  0
 29 32  1  0
 29 28  1  0
 30 29  2  0
 31 30  1  0
 31 26  2  0
 32 33  1  0
 33 34  1  0
 34 35  2  0
 36 35  1  0
 36 40  1  0
 37 36  2  0
 38 33  2  0
 38 37  1  0
 39 38  1  0
 41 42  1  0
 42 45  1  0
 42 44  1  0
 43 41  2  0
 46 47  1  0
 46 21  1  0
 48 46  1  0
 49 95  1  0
 49  2  1  0
 49 51  1  0
 51 50  2  0
 51 52  1  0
 53 50  1  0
 54 65  2  0
 55 53  1  0
 55 60  1  0
 56 64  1  0
 56 66  1  0
 57 63  1  0
 57 59  1  0
 58 64  1  0
 59 60  2  0
 59 58  1  0
 61 55  2  0
 62 61  1  0
 62 57  2  0
 63 56  1  0
 64 54  1  0
 66 68  2  0
 67 66  1  0
 69 67  1  0
 70 79  2  0
 70 75  1  0
 71 67  1  0
 71 75  1  0
 72 71  1  0
 73 74  1  0
 73 72  1  0
 74 70  1  0
 75 76  2  0
 76 77  1  0
 78 77  2  0
 79 78  1  0
 80 54  1  0
 80 85  1  0
 80 81  1  0
 81 84  1  1
 81 82  1  0
 83 81  1  0
 85 88  1  0
 86 90  1  0
 86 85  1  0
 87 86  2  0
 90 89  1  0
 92 90  1  0
 92 93  1  0
 92 91  1  0
 94 95  2  0
M  ISO  4  11 100  19 100  50 101  53 101
M  END
>  <TORSDO>  (82) 
F 20

>  <SCORE>  (82) 
-14.081

>  <name>  (82) 
81

>  <ligand_id>  (82) 
81

>  <original_smiles>  (82) 
[H]C([H])=C([H])C([H])(C(=C([H])Oc1c([H])c([H])c2c(c1[H])C([H])([H])N(C(=O)C([H])(N([H])C(=O)C([H])(N([H])C([H])([H])[H])C([H])([H])[H])C(C([H])([H])[H])(C([H])([H])[H])C([H])([H])[H])C([H])(C(=O)N([H])C1([H])c3c([H])c([H])c([H])c([H])c3C([H])([H])C([H])([H])C1([H])[H])C2([H])[H])C([H])([H])[H])N([H])C(=O)c1c([H])c([H])c(N([H])C(=O)N2C([H])([H])C([H])([H])C([H])([H])C([H])(n3nc(-c4c([H])c([H])c(Oc5c([H])c([H])c(F)c([H])c5F)c([H])c4[H])c(C(=O)N([H])[H])c3N([H])[H])C2([H])[H])c([H])c1[H]

>  <smiles>  (82) 
[H]C([H])=C([H])C([H])(C(=C([H])Oc1c([H])c([H])c2c(c1[H])C([H])([H])N(C(=O)C([H])(N([H])C(=O)C([H])(N([H])C([H])([H])[H])C([H])([H])[H])C(C([H])([H])[H])(C([H])([H])[H])C([H])([H])[H])C([H])(C(=O)N([H])C1([H])c3c([H])c([H])c([H])c([H])c3C([H])([H])C([H])([H])C1([H])[H])C2([H])[H])C([H])([H])[H])N([H])C(=O)c1c([H])c([H])c(N([H])C(=O)N2C([H])([H])C([H])([H])C([H])([H])C([H])(n3nc(-c4c([H])c([H])c(Oc5c([H])c([H])c(F)c([H])c5F)c([H])c4[H])c(C(=O)N([H])[H])c3N([H])[H])C2([H])[H])c([H])c1[H]

$$$$
82:0:0
     RDKit          3D

 93102  0  0  1  0  0  0  0  0999 V2000
  -28.7400  -23.8800   19.6130 C   0  0  0  0  0  0  0  0  0  0  0  0
  -28.8460  -22.9970   20.7850 C   0  0  0  0  0  0  0  0  0  0  0  0
  -28.4910  -25.2350   19.3320 C   0  0  0  0  0  0  0  0  0  0  0  0
  -29.0450  -22.6430   18.7170 C   0  0  0  0  0  2  0  0  0  0  0  0
  -28.5630  -25.6910   17.8810 C   0  0  0  0  0  1  0  0  0  0  0  0
  -29.1440  -21.8580   19.9660 N   0  0  0  0  0  0  0  0  0  0  0  0
  -28.7070  -23.2200   21.9690 O   0  0  0  0  0  0  0  0  0  0  0  0
  -29.5210  -19.6850   21.2910 C   0  0  0  0  0  3  0  0  0  0  0  0
  -29.7810  -18.2810   21.4480 C   0  0  0  0  0  3  0  0  0  0  0  0
  -29.9110  -18.0290   19.1110 C   0  0  0  0  0  3  0  0  0  0  0  0
  -29.4270  -20.3790   20.0500 C   0  0  0  0  0  0  0  0  0  0  0  0
  -29.9990  -17.3590   20.3710 C   0  0  0  0  0  0  0  0  0  0  0  0
  -29.6410  -19.4500   18.9650 C   0  0  0  0  0  0  0  0  0  0  0  0
  -29.5840  -19.9380   17.7020 F   0  0  0  0  0  0  0  0  0  0  0  0
  -30.7250  -14.8570   19.7940 C   0  0  0  0  0  0  0  0  0  0  0  0
  -30.3990  -12.6180   18.6770 C   0  0  0  0  0  2  0  0  0  0  0  0
  -29.3260  -12.7030   17.5690 C   0  0  0  0  0  2  0  0  0  0  0  0
  -27.9160  -12.4930   18.1530 C   0  0  0  0  0  2  0  0  0  0  0  0
  -27.6770  -13.3420   19.4280 C   0  0  0  0  0  3  0  0  0  0  0  0
  -28.8490  -13.2160   20.4200 C   0  0  0  0  0  2  0  0  0  0  0  0
  -30.0800  -13.6290   19.7210 N   0  0  0  0  0  0  0  0  0  0  0  0
  -31.7560  -15.0250   19.1330 O   0  0  0  0  0  0  0  0  0  0  0  0
  -30.4010  -15.5250   22.0520 C   0  0  0  0  0  1  0  0  0  0  0  0
  -30.2390  -15.8770   20.6290 N   0  0  0  0  0  0  0  0  0  0  0  0
  -25.4200  -13.9050   20.5090 C   0  0  0  0  0  0  0  0  0  0  0  0
  -24.3880  -13.1200   20.9460 C   0  0  0  0  0  0  0  0  0  0  0  0
  -24.8060  -11.7680   20.7400 C   0  0  0  0  0  0  0  0  0  0  0  0
  -26.3980  -13.0330   20.0600 N   0  0  0  0  0  0  0  0  0  0  0  0
  -26.0430  -11.7370   20.2610 N   0  0  0  0  0  0  0  0  0  0  0  0
  -24.0730  -10.5070   20.9140 C   0  0  0  0  0  0  0  0  0  0  0  0
  -24.5530   -9.4840   21.7610 C   0  0  0  0  0  3  0  0  0  0  0  0
  -23.8210   -8.2890   21.9260 C   0  0  0  0  0  3  0  0  0  0  0  0
  -22.5940   -8.1080   21.2460 C   0  0  0  0  0  0  0  0  0  0  0  0
  -22.1310   -9.1200   20.3860 C   0  0  0  0  0  3  0  0  0  0  0  0
  -22.8640  -10.3070   20.2180 C   0  0  0  0  0  3  0  0  0  0  0  0
  -21.8270   -6.9710   21.3240 O   0  0  0  0  0  0  0  0  0  0  0  0
  -21.7870   -6.2090   22.4650 C   0  0  0  0  0  0  0  0  0  0  0  0
  -21.3830   -6.7470   23.7070 C   0  0  0  0  0  3  0  0  0  0  0  0
  -21.2880   -5.9120   24.8380 C   0  0  0  0  0  3  0  0  0  0  0  0
  -21.5860   -4.5410   24.7290 C   0  0  0  0  0  0  0  0  0  0  0  0
  -21.9830   -4.0020   23.4920 C   0  0  0  0  0  3  0  0  0  0  0  0
  -22.0790   -4.8340   22.3620 C   0  0  0  0  0  0  0  0  0  0  0  0
  -22.4410   -4.3060   21.1680 F   0  0  0  0  0  0  0  0  0  0  0  0
  -21.4870   -3.7360   25.8130 F   0  0  0  0  0  0  0  0  0  0  0  0
  -23.0520  -13.5950   21.4380 C   0  0  0  0  0  0  0  0  0  0  0  0
  -22.4350  -12.8540   22.3510 N   0  0  0  0  0  0  0  0  0  0  0  0
  -22.5690  -14.6570   21.0470 O   0  0  0  0  0  0  0  0  0  0  0  0
  -22.8420  -11.9950   22.6880 H   0  0  0  0  0  0  0  0  0  0  0  0
  -21.5420  -13.1530   22.7190 H   0  0  0  0  0  0  0  0  0  0  0  0
  -25.6020  -15.2830   20.4350 N   0  0  0  0  0  0  0  0  0  0  0  0
  -24.8830  -15.9420   20.7110 H   0  0  0  0  0  0  0  0  0  0  0  0
  -26.4300  -15.7330   20.0630 H   0  0  0  0  0  0  0  0  0  0  0  0
  -28.2990  -26.3640   20.1970 O   0  0  0  0  0  0  0  0  0  0  0  0
  -24.5970  -31.8590   23.2110 C   0  0  0  0  0  0  0  0  0  0  0  0
  -27.2120  -27.2800   20.0980 C   0  0  0  0  0  0  0  0  0  0  0  0
  -23.3940  -30.4680   21.5660 C   0  0  0  0  0  3  0  0  0  0  0  0
  -24.8450  -28.9310   20.1140 C   0  0  0  0  0  0  0  0  0  0  0  0
  -25.9360  -30.7820   21.3790 C   0  0  0  0  0  2  0  0  0  0  0  0
  -26.0190  -29.4060   20.7120 C   0  0  0  0  0  0  0  0  0  0  0  0
  -27.2010  -28.5910   20.6950 C   0  0  0  0  0  3  0  0  0  0  0  0
  -26.0030  -26.8720   19.4890 C   0  0  0  0  0  3  0  0  0  0  0  0
  -24.8440  -27.6730   19.4920 C   0  0  0  0  0  3  0  0  0  0  0  0
  -23.6060  -29.8070   20.1780 C   0  0  0  0  0  2  0  0  0  0  0  0
  -24.6620  -31.0560   22.1080 N   0  0  0  0  0  0  0  0  0  0  0  0
  -23.5130  -32.1270   23.7520 O   0  0  0  0  0  0  0  0  0  0  0  0
  -22.7350  -29.4440   22.5230 C   0  0  0  0  0  0  0  0  0  0  0  0
  -21.4120  -29.2470   22.3860 N   0  0  0  0  0  0  0  0  0  0  0  0
  -23.4150  -28.8300   23.3480 O   0  0  0  0  0  0  0  0  0  0  0  0
  -20.9210  -29.7960   21.6950 H   0  0  0  0  0  0  0  0  0  0  0  0
  -18.0550  -27.9740   22.8470 C   0  0  0  0  0  0  0  0  0  0  0  0
  -20.6020  -28.2970   23.1520 C   0  0  0  0  0  3  0  0  0  0  0  0
  -20.7470  -26.8640   22.5890 C   0  0  0  0  0  2  0  0  0  0  0  0
  -19.6680  -26.5080   21.5600 C   0  0  0  0  0  2  0  0  0  0  0  0
  -18.2730  -26.6250   22.1820 C   0  0  0  0  0  2  0  0  0  0  0  0
  -19.1490  -28.7660   23.2870 C   0  0  0  0  0  0  0  0  0  0  0  0
  -18.8910  -30.0260   23.8690 C   0  0  0  0  0  3  0  0  0  0  0  0
  -17.5720  -30.4960   24.0140 C   0  0  0  0  0  3  0  0  0  0  0  0
  -16.4930  -29.7030   23.5880 C   0  0  0  0  0  3  0  0  0  0  0  0
  -16.7350  -28.4440   23.0100 C   0  0  0  0  0  3  0  0  0  0  0  0
  -25.8770  -32.4950   23.8350 C   0  0  0  0  0  3  0  0  0  0  0  0
  -25.5680  -33.8960   24.1560 N   0  0  0  0  0  0  0  0  0  0  0  0
  -25.8870  -34.9440   23.3840 C   0  0  0  0  0  0  0  0  0  0  0  0
  -26.5410  -34.8330   22.3430 O   0  0  0  0  0  0  0  0  0  0  0  0
  -24.9850  -34.0560   24.9630 H   0  0  0  0  0  0  0  0  0  0  0  0
  -24.1500  -36.7340   23.0450 C   0  0  0  0  0  1  0  0  0  0  0  0
  -25.4060  -36.3360   23.8380 C   0  0  0  0  0  3  0  0  0  0  0  0
  -27.5530  -37.2350   24.6230 C   0  0  0  0  0  1  0  0  0  0  0  0
  -26.4350  -37.3910   23.6970 N   0  0  0  0  0  0  0  0  0  0  0  0
  -26.0290  -38.3110   23.8400 H   0  0  0  0  0  0  0  0  0  0  0  0
  -26.3850  -31.7330   25.1210 C   0  0  1  0  0  0  0  0  0  0  0  0
  -25.2860  -31.5060   26.1850 C   0  0  0  0  0  1  0  0  0  0  0  0
  -26.9700  -30.3520   24.7460 C   0  0  0  0  0  1  0  0  0  0  0  0
  -27.5320  -32.5330   25.7830 C   0  0  0  0  0  1  0  0  0  0  0  0
  1  2  1  0
  2  7  2  0
  3  1  2  0
  3 53  1  0
  4  1  1  0
  4  6  1  0
  5  3  1  0
  6 11  1  0
  6  2  1  0
  8  9  1  0
 10 12  1  0
 11  8  2  0
 12 24  1  0
 12  9  2  0
 13 10  2  0
 13 11  1  0
 14 13  1  0
 15 24  1  0
 16 21  1  0
 17 18  1  0
 17 16  1  0
 19 18  1  0
 19 28  1  0
 19 20  1  0
 21 15  1  0
 21 20  1  0
 22 15  2  0
 24 23  1  0
 25 26  2  0
 26 45  1  0
 27 30  1  0
 27 26  1  0
 28 29  1  0
 28 25  1  0
 29 27  2  0
 30 31  1  0
 31 32  2  0
 33 36  1  0
 33 32  1  0
 34 33  2  0
 35 34  1  0
 35 30  2  0
 36 37  1  0
 37 38  1  0
 38 39  2  0
 40 39  1  0
 40 44  1  0
 41 40  2  0
 42 37  2  0
 42 41  1  0
 43 42  1  0
 45 46  1  0
 46 48  1  0
 46 49  1  0
 47 45  2  0
 50 25  1  0
 50 51  1  0
 52 50  1  0
 54 65  2  0
 55 53  1  0
 55 60  1  0
 56 64  1  0
 56 66  1  0
 57 63  1  0
 57 59  1  0
 58 64  1  0
 59 58  1  0
 60 59  2  0
 61 62  1  0
 61 55  2  0
 62 57  2  0
 63 56  1  0
 64 54  1  0
 66 68  2  0
 67 66  1  0
 69 67  1  0
 70 79  2  0
 70 75  1  0
 71 67  1  0
 71 75  1  0
 72 71  1  0
 73 74  1  0
 73 72  1  0
 74 70  1  0
 75 76  2  0
 76 77  1  0
 78 77  2  0
 79 78  1  0
 80 54  1  0
 80 81  1  0
 80 90  1  0
 81 84  1  0
 82 86  1  0
 82 81  1  0
 83 82  2  0
 86 85  1  0
 88 86  1  0
 88 89  1  0
 88 87  1  0
 90 93  1  1
 90 91  1  0
 92 90  1  0
M  ISO  4   3 101  15 100  24 100  53 101
M  END
>  <TORSDO>  (83) 
F 17

>  <SCORE>  (83) 
-13.709

>  <name>  (83) 
82

>  <ligand_id>  (83) 
82

>  <original_smiles>  (83) 
[H]c1c([H])c([H])c2c(c1[H])C([H])([H])C([H])([H])C([H])([H])C2([H])N([H])C(=O)C1([H])N(C(=O)C([H])(N([H])C(=O)C([H])(N([H])C([H])([H])[H])C([H])([H])[H])C(C([H])([H])[H])(C([H])([H])[H])C([H])([H])[H])C([H])([H])c2c([H])c(OC(=C3C(=O)N(c4c([H])c([H])c(N(C(=O)N5C([H])([H])C([H])([H])C([H])([H])C([H])(n6nc(-c7c([H])c([H])c(Oc8c([H])c([H])c(F)c([H])c8F)c([H])c7[H])c(C(=O)N([H])[H])c6N([H])[H])C5([H])[H])C([H])([H])[H])c([H])c4F)C3([H])[H])C([H])([H])[H])c([H])c([H])c2C1([H])[H]

>  <smiles>  (83) 
[H]c1c([H])c([H])c2c(c1[H])C([H])([H])C([H])([H])C([H])([H])C2([H])N([H])C(=O)C1([H])N(C(=O)C([H])(N([H])C(=O)C([H])(N([H])C([H])([H])[H])C([H])([H])[H])C(C([H])([H])[H])(C([H])([H])[H])C([H])([H])[H])C([H])([H])c2c([H])c(OC(=C3C(=O)N(c4c([H])c([H])c(N(C(=O)N5C([H])([H])C([H])([H])C([H])([H])C([H])(n6nc(-c7c([H])c([H])c(Oc8c([H])c([H])c(F)c([H])c8F)c([H])c7[H])c(C(=O)N([H])[H])c6N([H])[H])C5([H])[H])C([H])([H])[H])c([H])c4F)C3([H])[H])C([H])([H])[H])c([H])c([H])c2C1([H])[H]

$$$$
83:0:0
     RDKit          3D

 92101  0  0  1  0  0  0  0  0999 V2000
  -30.3080  -23.8460   20.2880 C   0  0  0  0  0  3  0  0  0  0  0  0
  -28.9910  -23.8480   20.0850 C   0  0  0  0  0  0  0  0  0  0  0  0
  -28.5690  -22.4290   20.0540 C   0  0  0  0  0  0  0  0  0  0  0  0
  -30.8520  -22.4360   20.3950 C   0  0  0  0  0  2  0  0  0  0  0  0
  -29.6520  -21.5990   20.2520 N   0  0  0  0  0  0  0  0  0  0  0  0
  -27.4130  -22.0410   19.8550 O   0  0  0  0  0  0  0  0  0  0  0  0
  -28.5750  -19.3150   20.6220 C   0  0  0  0  0  3  0  0  0  0  0  0
  -30.9080  -19.3880   20.0760 C   0  0  0  0  0  3  0  0  0  0  0  0
  -28.6480  -17.8940   20.7020 C   0  0  0  0  0  3  0  0  0  0  0  0
  -30.9800  -17.9590   20.1400 C   0  0  0  0  0  3  0  0  0  0  0  0
  -29.7040  -20.1200   20.3050 C   0  0  0  0  0  0  0  0  0  0  0  0
  -29.8430  -17.1680   20.4610 C   0  0  0  0  0  0  0  0  0  0  0  0
  -30.5790  -14.6810   20.1240 C   0  0  0  0  0  0  0  0  0  0  0  0
  -30.3150  -12.4690   19.0180 C   0  0  0  0  0  2  0  0  0  0  0  0
  -29.3130  -12.6290   17.8530 C   0  0  0  0  0  2  0  0  0  0  0  0
  -27.8600  -12.4680   18.3460 C   0  0  0  0  0  2  0  0  0  0  0  0
  -27.5650  -13.3030   19.6190 C   0  0  0  0  0  3  0  0  0  0  0  0
  -28.6740  -13.1070   20.6800 C   0  0  0  0  0  2  0  0  0  0  0  0
  -29.9600  -13.4590   20.0530 N   0  0  0  0  0  0  0  0  0  0  0  0
  -31.7160  -14.8540   19.6740 O   0  0  0  0  0  0  0  0  0  0  0  0
  -29.7920  -15.7080   20.5740 N   0  0  0  0  0  0  0  0  0  0  0  0
  -28.9190  -15.3620   20.9430 H   0  0  0  0  0  0  0  0  0  0  0  0
  -25.2090  -13.9040   20.4560 C   0  0  0  0  0  0  0  0  0  0  0  0
  -24.1540  -13.1300   20.8560 C   0  0  0  0  0  0  0  0  0  0  0  0
  -24.6040  -11.7770   20.7760 C   0  0  0  0  0  0  0  0  0  0  0  0
  -26.2360  -13.0210   20.1570 N   0  0  0  0  0  0  0  0  0  0  0  0
  -25.8790  -11.7360   20.4090 N   0  0  0  0  0  0  0  0  0  0  0  0
  -23.8780  -10.5160   20.9720 C   0  0  0  0  0  0  0  0  0  0  0  0
  -24.3190   -9.5450   21.8980 C   0  0  0  0  0  3  0  0  0  0  0  0
  -23.5930   -8.3480   22.0810 C   0  0  0  0  0  3  0  0  0  0  0  0
  -22.4120   -8.1130   21.3390 C   0  0  0  0  0  0  0  0  0  0  0  0
  -21.9910   -9.0720   20.4000 C   0  0  0  0  0  3  0  0  0  0  0  0
  -22.7170  -10.2600   20.2150 C   0  0  0  0  0  3  0  0  0  0  0  0
  -21.6580   -6.9680   21.4310 O   0  0  0  0  0  0  0  0  0  0  0  0
  -21.5830   -6.2480   22.5970 C   0  0  0  0  0  0  0  0  0  0  0  0
  -21.1180   -6.8240   23.7990 C   0  0  0  0  0  3  0  0  0  0  0  0
  -20.9920   -6.0290   24.9560 C   0  0  0  0  0  3  0  0  0  0  0  0
  -21.3190   -4.6600   24.9120 C   0  0  0  0  0  0  0  0  0  0  0  0
  -21.7760   -4.0850   23.7130 C   0  0  0  0  0  3  0  0  0  0  0  0
  -21.9050   -4.8760   22.5580 C   0  0  0  0  0  0  0  0  0  0  0  0
  -22.3250   -4.3120   21.4010 F   0  0  0  0  0  0  0  0  0  0  0  0
  -21.1900   -3.8960   26.0210 F   0  0  0  0  0  0  0  0  0  0  0  0
  -22.7720  -13.6100   21.1980 C   0  0  0  0  0  0  0  0  0  0  0  0
  -22.0790  -12.9040   22.0840 N   0  0  0  0  0  0  0  0  0  0  0  0
  -22.3180  -14.6460   20.7160 O   0  0  0  0  0  0  0  0  0  0  0  0
  -22.4590  -12.0660   22.4980 H   0  0  0  0  0  0  0  0  0  0  0  0
  -21.1540  -13.2080   22.3550 H   0  0  0  0  0  0  0  0  0  0  0  0
  -25.3750  -15.2770   20.2990 N   0  0  0  0  0  0  0  0  0  0  0  0
  -24.6140  -15.9290   20.4490 H   0  0  0  0  0  0  0  0  0  0  0  0
  -26.1940  -15.7130   19.8960 H   0  0  0  0  0  0  0  0  0  0  0  0
  -28.0060  -25.0360   19.8110 C   0  0  0  0  0  2  0  0  0  0  0  0
  -28.3290  -26.4620   20.1010 O   0  0  0  0  0  0  0  0  0  0  0  0
  -24.6430  -31.8630   23.2280 C   0  0  0  0  0  0  0  0  0  0  0  0
  -27.2290  -27.3480   20.0660 C   0  0  0  0  0  0  0  0  0  0  0  0
  -23.4300  -30.4960   21.5750 C   0  0  0  0  0  3  0  0  0  0  0  0
  -24.8690  -28.9810   20.1110 C   0  0  0  0  0  0  0  0  0  0  0  0
  -25.9720  -30.8120   21.3820 C   0  0  0  0  0  2  0  0  0  0  0  0
  -26.0470  -29.4470   20.7090 C   0  0  0  0  0  0  0  0  0  0  0  0
  -27.2300  -28.6440   20.6790 C   0  0  0  0  0  3  0  0  0  0  0  0
  -26.0200  -26.9530   19.4410 C   0  0  0  0  0  3  0  0  0  0  0  0
  -24.8580  -27.7380   19.4690 C   0  0  0  0  0  3  0  0  0  0  0  0
  -23.6350  -29.8540   20.1810 C   0  0  0  0  0  2  0  0  0  0  0  0
  -24.7020  -31.0730   22.1180 N   0  0  0  0  0  0  0  0  0  0  0  0
  -23.5630  -32.1330   23.7720 O   0  0  0  0  0  0  0  0  0  0  0  0
  -22.7740  -29.4590   22.5180 C   0  0  0  0  0  0  0  0  0  0  0  0
  -21.4470  -29.2830   22.3970 N   0  0  0  0  0  0  0  0  0  0  0  0
  -23.4570  -28.8170   23.3210 O   0  0  0  0  0  0  0  0  0  0  0  0
  -20.9540  -29.8530   21.7240 H   0  0  0  0  0  0  0  0  0  0  0  0
  -18.0690  -28.0900   22.9060 C   0  0  0  0  0  0  0  0  0  0  0  0
  -20.6310  -28.3340   23.1580 C   0  0  0  0  0  3  0  0  0  0  0  0
  -20.7210  -26.9140   22.5550 C   0  0  0  0  0  2  0  0  0  0  0  0
  -19.6080  -26.6140   21.5460 C   0  0  0  0  0  2  0  0  0  0  0  0
  -18.2320  -26.7530   22.2060 C   0  0  0  0  0  2  0  0  0  0  0  0
  -19.1940  -28.8400   23.3410 C   0  0  0  0  0  0  0  0  0  0  0  0
  -18.9850  -30.0930   23.9570 C   0  0  0  0  0  3  0  0  0  0  0  0
  -17.6830  -30.5960   24.1440 C   0  0  0  0  0  3  0  0  0  0  0  0
  -16.5720  -29.8420   23.7260 C   0  0  0  0  0  3  0  0  0  0  0  0
  -16.7660  -28.5910   23.1130 C   0  0  0  0  0  3  0  0  0  0  0  0
  -25.9300  -32.4860   23.8520 C   0  0  0  0  0  3  0  0  0  0  0  0
  -25.6240  -33.8810   24.1990 N   0  0  0  0  0  0  0  0  0  0  0  0
  -25.9310  -34.9390   23.4380 C   0  0  0  0  0  0  0  0  0  0  0  0
  -26.5730  -34.8440   22.3890 O   0  0  0  0  0  0  0  0  0  0  0  0
  -25.0480  -34.0290   25.0150 H   0  0  0  0  0  0  0  0  0  0  0  0
  -24.1780  -36.7200   23.1550 C   0  0  0  0  0  1  0  0  0  0  0  0
  -25.4510  -36.3230   23.9170 C   0  0  0  0  0  3  0  0  0  0  0  0
  -27.6110  -37.2210   24.6670 C   0  0  0  0  0  1  0  0  0  0  0  0
  -26.4700  -37.3850   23.7690 N   0  0  0  0  0  0  0  0  0  0  0  0
  -26.0630  -38.3010   23.9380 H   0  0  0  0  0  0  0  0  0  0  0  0
  -26.4470  -31.6990   25.1200 C   0  0  1  0  0  0  0  0  0  0  0  0
  -25.3550  -31.4530   26.1860 C   0  0  0  0  0  1  0  0  0  0  0  0
  -27.0240  -30.3230   24.7120 C   0  0  0  0  0  1  0  0  0  0  0  0
  -27.6010  -32.4820   25.7870 C   0  0  0  0  0  1  0  0  0  0  0  0
  1  4  1  0
  2  1  2  0
  3  2  1  0
  3  5  1  0
  5 11  1  0
  5  4  1  0
  6  3  2  0
  7  9  1  0
  8 10  2  0
  8 11  1  0
 10 12  1  0
 11  7  2  0
 12 21  1  0
 12  9  2  0
 13 21  1  0
 14 19  1  0
 15 16  1  0
 15 14  1  0
 17 16  1  0
 17 26  1  0
 17 18  1  0
 19 13  1  0
 19 18  1  0
 20 13  2  0
 21 22  1  0
 23 24  2  0
 24 43  1  0
 25 24  1  0
 25 28  1  0
 26 27  1  0
 26 23  1  0
 27 25  2  0
 28 29  1  0
 29 30  2  0
 31 34  1  0
 31 30  1  0
 32 31  2  0
 33 32  1  0
 33 28  2  0
 34 35  1  0
 35 36  1  0
 36 37  2  0
 38 37  1  0
 38 42  1  0
 39 38  2  0
 40 35  2  0
 40 39  1  0
 41 40  1  0
 43 44  1  0
 44 47  1  0
 44 46  1  0
 45 43  2  0
 48 49  1  0
 48 23  1  0
 50 48  1  0
 51  2  1  0
 51 52  1  0
 53 64  2  0
 54 52  1  0
 54 59  1  0
 55 63  1  0
 55 65  1  0
 56 62  1  0
 56 58  1  0
 57 63  1  0
 58 57  1  0
 59 58  2  0
 60 61  1  0
 60 54  2  0
 61 56  2  0
 62 55  1  0
 63 53  1  0
 65 67  2  0
 66 65  1  0
 68 66  1  0
 69 78  2  0
 69 74  1  0
 70 66  1  0
 70 74  1  0
 71 70  1  0
 72 73  1  0
 72 71  1  0
 73 69  1  0
 74 75  2  0
 75 76  1  0
 77 76  2  0
 78 77  1  0
 79 53  1  0
 79 80  1  0
 79 89  1  0
 80 83  1  0
 81 85  1  0
 81 80  1  0
 82 81  2  0
 85 84  1  0
 87 85  1  0
 87 88  1  0
 87 86  1  0
 89 92  1  1
 89 90  1  0
 91 89  1  0
M  ISO  4  13 100  21 100  51 101  52 101
M  END
>  <TORSDO>  (84) 
F 18

>  <SCORE>  (84) 
-14.678

>  <name>  (84) 
83

>  <ligand_id>  (84) 
83

>  <original_smiles>  (84) 
[H]C1=C(C([H])([H])Oc2c([H])c([H])c3c(c2[H])C([H])([H])N(C(=O)C([H])(N([H])C(=O)C([H])(N([H])C([H])([H])[H])C([H])([H])[H])C(C([H])([H])[H])(C([H])([H])[H])C([H])([H])[H])C([H])(C(=O)N([H])C2([H])c4c([H])c([H])c([H])c([H])c4C([H])([H])C([H])([H])C2([H])[H])C3([H])[H])C(=O)N(c2c([H])c([H])c(N([H])C(=O)N3C([H])([H])C([H])([H])C([H])([H])C([H])(n4nc(-c5c([H])c([H])c(Oc6c([H])c([H])c(F)c([H])c6F)c([H])c5[H])c(C(=O)N([H])[H])c4N([H])[H])C3([H])[H])c([H])c2[H])C1([H])[H]

>  <smiles>  (84) 
[H]C1=C(C([H])([H])Oc2c([H])c([H])c3c(c2[H])C([H])([H])N(C(=O)C([H])(N([H])C(=O)C([H])(N([H])C([H])([H])[H])C([H])([H])[H])C(C([H])([H])[H])(C([H])([H])[H])C([H])([H])[H])C([H])(C(=O)N([H])C2([H])c4c([H])c([H])c([H])c([H])c4C([H])([H])C([H])([H])C2([H])[H])C3([H])[H])C(=O)N(c2c([H])c([H])c(N([H])C(=O)N3C([H])([H])C([H])([H])C([H])([H])C([H])(n4nc(-c5c([H])c([H])c(Oc6c([H])c([H])c(F)c([H])c6F)c([H])c5[H])c(C(=O)N([H])[H])c4N([H])[H])C3([H])[H])c([H])c2[H])C1([H])[H]

$$$$
84:0:0
     RDKit          3D

 94103  0  0  1  0  0  0  0  0999 V2000
  -28.6460  -23.7680   20.0980 C   0  0  0  0  0  0  0  0  0  0  0  0
  -28.7600  -23.4110   21.5070 C   0  0  0  0  0  0  0  0  0  0  0  0
  -28.8990  -22.4630   19.3860 C   0  0  0  0  0  0  0  0  0  0  0  0
  -28.3870  -25.0450   19.5480 C   0  0  0  0  0  0  0  0  0  0  0  0
  -29.0050  -21.8920   21.6390 C   0  0  0  0  0  2  0  0  0  0  0  0
  -28.3360  -25.2600   18.0380 C   0  0  0  0  0  1  0  0  0  0  0  0
  -29.1600  -21.4010   20.2600 N   0  0  0  0  0  0  0  0  0  0  0  0
  -28.6750  -24.1670   22.4790 O   0  0  0  0  0  0  0  0  0  0  0  0
  -28.8780  -22.3060   18.1590 O   0  0  0  0  0  0  0  0  0  0  0  0
  -31.5660  -18.9350   18.6590 C   0  0  0  0  0  3  0  0  0  0  0  0
  -30.8570  -20.0890   19.0280 C   0  0  0  0  0  3  0  0  0  0  0  0
  -31.2340  -17.6660   19.1680 C   0  0  0  0  0  3  0  0  0  0  0  0
  -29.4650  -18.7100   20.4690 C   0  0  0  0  0  3  0  0  0  0  0  0
  -29.7750  -20.0530   19.9380 C   0  0  0  0  0  0  0  0  0  0  0  0
  -30.1810  -17.4700   20.0930 C   0  0  0  0  0  0  0  0  0  0  0  0
  -30.5930  -14.8470   20.3400 C   0  0  0  0  0  0  0  0  0  0  0  0
  -30.3740  -12.5380   19.3860 C   0  0  0  0  0  2  0  0  0  0  0  0
  -29.4510  -12.5750   18.1500 C   0  0  0  0  0  2  0  0  0  0  0  0
  -27.9810  -12.4000   18.5750 C   0  0  0  0  0  2  0  0  0  0  0  0
  -27.5950  -13.3050   19.7760 C   0  0  0  0  0  3  0  0  0  0  0  0
  -28.6510  -13.2730   20.9030 C   0  0  0  0  0  2  0  0  0  0  0  0
  -29.9420  -13.6260   20.3030 N   0  0  0  0  0  0  0  0  0  0  0  0
  -31.7940  -14.8580   20.0570 O   0  0  0  0  0  0  0  0  0  0  0  0
  -29.8760  -16.0490   20.5230 N   0  0  0  0  0  0  0  0  0  0  0  0
  -28.9520  -15.9120   20.9040 H   0  0  0  0  0  0  0  0  0  0  0  0
  -25.2090  -13.8880   20.5010 C   0  0  0  0  0  0  0  0  0  0  0  0
  -24.1420  -13.1140   20.8690 C   0  0  0  0  0  0  0  0  0  0  0  0
  -24.6070  -11.7630   20.8480 C   0  0  0  0  0  0  0  0  0  0  0  0
  -26.2530  -13.0100   20.2700 N   0  0  0  0  0  0  0  0  0  0  0  0
  -25.9000  -11.7270   20.5450 N   0  0  0  0  0  0  0  0  0  0  0  0
  -23.8800  -10.5010   21.0420 C   0  0  0  0  0  0  0  0  0  0  0  0
  -24.3140   -9.5320   21.9730 C   0  0  0  0  0  3  0  0  0  0  0  0
  -23.5850   -8.3370   22.1580 C   0  0  0  0  0  3  0  0  0  0  0  0
  -22.4070   -8.1020   21.4090 C   0  0  0  0  0  0  0  0  0  0  0  0
  -21.9920   -9.0600   20.4670 C   0  0  0  0  0  3  0  0  0  0  0  0
  -22.7220  -10.2460   20.2820 C   0  0  0  0  0  3  0  0  0  0  0  0
  -21.6520   -6.9570   21.5000 O   0  0  0  0  0  0  0  0  0  0  0  0
  -21.6190   -6.2060   22.6470 C   0  0  0  0  0  0  0  0  0  0  0  0
  -21.2230   -6.7550   23.8850 C   0  0  0  0  0  3  0  0  0  0  0  0
  -21.1340   -5.9310   25.0250 C   0  0  0  0  0  3  0  0  0  0  0  0
  -21.4330   -4.5590   24.9290 C   0  0  0  0  0  0  0  0  0  0  0  0
  -21.8240   -4.0100   23.6950 C   0  0  0  0  0  3  0  0  0  0  0  0
  -21.9130   -4.8310   22.5560 C   0  0  0  0  0  0  0  0  0  0  0  0
  -22.2690   -4.2910   21.3650 F   0  0  0  0  0  0  0  0  0  0  0  0
  -21.3410   -3.7660   26.0210 F   0  0  0  0  0  0  0  0  0  0  0  0
  -22.7430  -13.5930   21.1300 C   0  0  0  0  0  0  0  0  0  0  0  0
  -22.0120  -12.9030   21.9980 N   0  0  0  0  0  0  0  0  0  0  0  0
  -22.3080  -14.6140   20.6000 O   0  0  0  0  0  0  0  0  0  0  0  0
  -22.3760  -12.0780   22.4510 H   0  0  0  0  0  0  0  0  0  0  0  0
  -21.0740  -13.2090   22.2160 H   0  0  0  0  0  0  0  0  0  0  0  0
  -25.3720  -15.2570   20.3130 N   0  0  0  0  0  0  0  0  0  0  0  0
  -24.5990  -15.9090   20.3980 H   0  0  0  0  0  0  0  0  0  0  0  0
  -26.2110  -15.6880   19.9470 H   0  0  0  0  0  0  0  0  0  0  0  0
  -28.2960  -26.3200   20.2250 O   0  0  0  0  0  0  0  0  0  0  0  0
  -24.6460  -31.8740   23.2270 C   0  0  0  0  0  0  0  0  0  0  0  0
  -27.2080  -27.2400   20.1330 C   0  0  0  0  0  0  0  0  0  0  0  0
  -23.4250  -30.4790   21.6000 C   0  0  0  0  0  3  0  0  0  0  0  0
  -24.8550  -28.9180   20.1530 C   0  0  0  0  0  0  0  0  0  0  0  0
  -25.9690  -30.7730   21.3930 C   0  0  0  0  0  2  0  0  0  0  0  0
  -26.0390  -29.3870   20.7370 C   0  0  0  0  0  0  0  0  0  0  0  0
  -27.2140  -28.5620   20.7130 C   0  0  0  0  0  3  0  0  0  0  0  0
  -25.9900  -26.8410   19.5400 C   0  0  0  0  0  3  0  0  0  0  0  0
  -24.8380  -27.6530   19.5450 C   0  0  0  0  0  3  0  0  0  0  0  0
  -23.6240  -29.8050   20.2170 C   0  0  0  0  0  2  0  0  0  0  0  0
  -24.7010  -31.0620   22.1300 N   0  0  0  0  0  0  0  0  0  0  0  0
  -23.5690  -32.1540   23.7730 O   0  0  0  0  0  0  0  0  0  0  0  0
  -22.7650  -29.4660   22.5680 C   0  0  0  0  0  0  0  0  0  0  0  0
  -21.4380  -29.2880   22.4520 N   0  0  0  0  0  0  0  0  0  0  0  0
  -23.4490  -28.8450   23.3850 O   0  0  0  0  0  0  0  0  0  0  0  0
  -20.9440  -29.8420   21.7670 H   0  0  0  0  0  0  0  0  0  0  0  0
  -18.0690  -28.0630   22.9640 C   0  0  0  0  0  0  0  0  0  0  0  0
  -20.6260  -28.3500   23.2310 C   0  0  0  0  0  3  0  0  0  0  0  0
  -20.7410  -26.9140   22.6680 C   0  0  0  0  0  2  0  0  0  0  0  0
  -19.6420  -26.5720   21.6560 C   0  0  0  0  0  2  0  0  0  0  0  0
  -18.2590  -26.7100   22.2990 C   0  0  0  0  0  2  0  0  0  0  0  0
  -19.1810  -28.8400   23.3870 C   0  0  0  0  0  0  0  0  0  0  0  0
  -18.9490  -30.1030   23.9710 C   0  0  0  0  0  3  0  0  0  0  0  0
  -17.6400  -30.5930   24.1350 C   0  0  0  0  0  3  0  0  0  0  0  0
  -16.5440  -29.8140   23.7280 C   0  0  0  0  0  3  0  0  0  0  0  0
  -16.7590  -28.5520   23.1480 C   0  0  0  0  0  3  0  0  0  0  0  0
  -25.9340  -32.5090   23.8370 C   0  0  0  0  0  3  0  0  0  0  0  0
  -25.6250  -33.9050   24.1790 N   0  0  0  0  0  0  0  0  0  0  0  0
  -25.9410  -34.9650   23.4220 C   0  0  0  0  0  0  0  0  0  0  0  0
  -26.5920  -34.8690   22.3790 O   0  0  0  0  0  0  0  0  0  0  0  0
  -25.0470  -34.0520   24.9930 H   0  0  0  0  0  0  0  0  0  0  0  0
  -24.2020  -36.7570   23.1150 C   0  0  0  0  0  1  0  0  0  0  0  0
  -25.4610  -36.3500   23.8970 C   0  0  0  0  0  3  0  0  0  0  0  0
  -27.6120  -37.2360   24.6860 C   0  0  0  0  0  1  0  0  0  0  0  0
  -26.4880  -37.4060   23.7690 N   0  0  0  0  0  0  0  0  0  0  0  0
  -26.0830  -38.3240   23.9310 H   0  0  0  0  0  0  0  0  0  0  0  0
  -26.4630  -31.7350   25.1070 C   0  0  1  0  0  0  0  0  0  0  0  0
  -25.3820  -31.5000   26.1880 C   0  0  0  0  0  1  0  0  0  0  0  0
  -27.0390  -30.3550   24.7090 C   0  0  0  0  0  1  0  0  0  0  0  0
  -27.6230  -32.5260   25.7580 C   0  0  0  0  0  1  0  0  0  0  0  0
  1  2  1  0
  2  5  1  0
  2  8  2  0
  3  1  1  0
  3  7  1  0
  4  1  2  0
  4 54  1  0
  6  4  1  0
  7  5  1  0
  9  3  2  0
 10 11  2  0
 10 12  1  0
 11 14  1  0
 12 15  2  0
 14  7  1  0
 14 13  2  0
 15 13  1  0
 15 24  1  0
 16 24  1  0
 17 22  1  0
 18 19  1  0
 18 17  1  0
 20 19  1  0
 20 29  1  0
 20 21  1  0
 22 16  1  0
 22 21  1  0
 23 16  2  0
 24 25  1  0
 26 27  2  0
 27 46  1  0
 28 27  1  0
 28 31  1  0
 29 26  1  0
 29 30  1  0
 30 28  2  0
 31 32  1  0
 32 33  2  0
 34 37  1  0
 34 33  1  0
 35 34  2  0
 36 35  1  0
 36 31  2  0
 37 38  1  0
 38 39  1  0
 39 40  2  0
 41 40  1  0
 41 45  1  0
 42 41  2  0
 43 38  2  0
 43 42  1  0
 44 43  1  0
 46 47  1  0
 47 50  1  0
 47 49  1  0
 48 46  2  0
 51 52  1  0
 51 26  1  0
 53 51  1  0
 55 66  2  0
 56 54  1  0
 56 61  1  0
 57 65  1  0
 57 67  1  0
 58 64  1  0
 58 60  1  0
 59 65  1  0
 60 59  1  0
 61 60  2  0
 62 63  1  0
 62 56  2  0
 63 58  2  0
 64 57  1  0
 65 55  1  0
 67 69  2  0
 68 67  1  0
 70 68  1  0
 71 80  2  0
 71 76  1  0
 72 68  1  0
 72 76  1  0
 73 72  1  0
 74 75  1  0
 74 73  1  0
 75 71  1  0
 76 77  2  0
 77 78  1  0
 79 78  2  0
 80 79  1  0
 81 55  1  0
 81 82  1  0
 81 91  1  0
 82 85  1  0
 83 87  1  0
 83 82  1  0
 84 83  2  0
 87 86  1  0
 89 87  1  0
 89 90  1  0
 89 88  1  0
 91 94  1  1
 91 92  1  0
 93 91  1  0
M  ISO  4   4 101  16 100  24 100  54 101
M  END
>  <TORSDO>  (85) 
F 17

>  <SCORE>  (85) 
-15.250

>  <name>  (85) 
84

>  <ligand_id>  (85) 
84

>  <original_smiles>  (85) 
[H]c1c([H])c(N([H])C(=O)N2C([H])([H])C([H])([H])C([H])([H])C([H])(n3nc(-c4c([H])c([H])c(Oc5c([H])c([H])c(F)c([H])c5F)c([H])c4[H])c(C(=O)N([H])[H])c3N([H])[H])C2([H])[H])c([H])c(N2C(=O)C(=C(Oc3c([H])c([H])c4c(c3[H])C([H])([H])N(C(=O)C([H])(N([H])C(=O)C([H])(N([H])C([H])([H])[H])C([H])([H])[H])C(C([H])([H])[H])(C([H])([H])[H])C([H])([H])[H])C([H])(C(=O)N([H])C3([H])c5c([H])c([H])c([H])c([H])c5C([H])([H])C([H])([H])C3([H])[H])C4([H])[H])C([H])([H])[H])C(=O)C2([H])[H])c1[H]

>  <smiles>  (85) 
[H]c1c([H])c(N([H])C(=O)N2C([H])([H])C([H])([H])C([H])([H])C([H])(n3nc(-c4c([H])c([H])c(Oc5c([H])c([H])c(F)c([H])c5F)c([H])c4[H])c(C(=O)N([H])[H])c3N([H])[H])C2([H])[H])c([H])c(N2C(=O)C(=C(Oc3c([H])c([H])c4c(c3[H])C([H])([H])N(C(=O)C([H])(N([H])C(=O)C([H])(N([H])C([H])([H])[H])C([H])([H])[H])C(C([H])([H])[H])(C([H])([H])[H])C([H])([H])[H])C([H])(C(=O)N([H])C3([H])c5c([H])c([H])c([H])c([H])c5C([H])([H])C([H])([H])C3([H])[H])C4([H])[H])C([H])([H])[H])C(=O)C2([H])[H])c1[H]

$$$$
85:0:0
     RDKit          3D

 92101  0  0  1  0  0  0  0  0999 V2000
  -28.6300  -23.6670   19.7260 C   0  0  0  0  0  0  0  0  0  0  0  0
  -28.6690  -22.6430   20.8090 C   0  0  0  0  0  0  0  0  0  0  0  0
  -28.4270  -25.0580   19.4760 C   0  0  0  0  0  0  0  0  0  0  0  0
  -28.9430  -22.5060   18.7400 C   0  0  0  0  0  2  0  0  0  0  0  0
  -28.6010  -25.5060   18.0350 C   0  0  0  0  0  1  0  0  0  0  0  0
  -28.8710  -21.5470   19.8770 N   0  0  0  0  0  0  0  0  0  0  0  0
  -28.5380  -22.7540   22.0140 O   0  0  0  0  0  0  0  0  0  0  0  0
  -28.3500  -18.2070   18.0340 C   0  0  0  0  0  3  0  0  0  0  0  0
  -28.3980  -19.5560   18.4450 C   0  0  0  0  0  3  0  0  0  0  0  0
  -28.8780  -17.1560   18.8030 C   0  0  0  0  0  3  0  0  0  0  0  0
  -29.4660  -18.8550   20.4500 C   0  0  0  0  0  3  0  0  0  0  0  0
  -28.9440  -20.0180   19.6750 C   0  0  0  0  0  0  0  0  0  0  0  0
  -29.4790  -17.4100   20.0480 C   0  0  0  0  0  0  0  0  0  0  0  0
  -30.5830  -14.9820   20.3510 C   0  0  0  0  0  0  0  0  0  0  0  0
  -30.3770  -12.6650   19.3640 C   0  0  0  0  0  2  0  0  0  0  0  0
  -29.4570  -12.6310   18.1250 C   0  0  0  0  0  2  0  0  0  0  0  0
  -27.9890  -12.4350   18.5460 C   0  0  0  0  0  2  0  0  0  0  0  0
  -27.5840  -13.3280   19.7520 C   0  0  0  0  0  3  0  0  0  0  0  0
  -28.6410  -13.3670   20.8770 C   0  0  0  0  0  2  0  0  0  0  0  0
  -29.9120  -13.7660   20.2590 N   0  0  0  0  0  0  0  0  0  0  0  0
  -31.7660  -14.9840   19.9890 O   0  0  0  0  0  0  0  0  0  0  0  0
  -30.5910  -16.5890   22.1170 C   0  0  0  0  0  1  0  0  0  0  0  0
  -30.0090  -16.2010   20.8240 N   0  0  0  0  0  0  0  0  0  0  0  0
  -25.1910  -13.8670   20.4690 C   0  0  0  0  0  0  0  0  0  0  0  0
  -24.1330  -13.0750   20.8150 C   0  0  0  0  0  0  0  0  0  0  0  0
  -24.6200  -11.7310   20.8030 C   0  0  0  0  0  0  0  0  0  0  0  0
  -26.2490  -13.0040   20.2450 N   0  0  0  0  0  0  0  0  0  0  0  0
  -25.9150  -11.7130   20.5110 N   0  0  0  0  0  0  0  0  0  0  0  0
  -23.9110  -10.4600   20.9980 C   0  0  0  0  0  0  0  0  0  0  0  0
  -24.3460   -9.5030   21.9430 C   0  0  0  0  0  3  0  0  0  0  0  0
  -23.6310   -8.3010   22.1270 C   0  0  0  0  0  3  0  0  0  0  0  0
  -22.4670   -8.0460   21.3620 C   0  0  0  0  0  0  0  0  0  0  0  0
  -22.0500   -8.9900   20.4050 C   0  0  0  0  0  3  0  0  0  0  0  0
  -22.7690  -10.1820   20.2210 C   0  0  0  0  0  3  0  0  0  0  0  0
  -21.7280   -6.8900   21.4510 O   0  0  0  0  0  0  0  0  0  0  0  0
  -21.6770   -6.1550   22.6080 C   0  0  0  0  0  0  0  0  0  0  0  0
  -21.2240   -6.7120   23.8230 C   0  0  0  0  0  3  0  0  0  0  0  0
  -21.1200   -5.9030   24.9730 C   0  0  0  0  0  3  0  0  0  0  0  0
  -21.4640   -4.5400   24.9070 C   0  0  0  0  0  0  0  0  0  0  0  0
  -21.9110   -3.9810   23.6960 C   0  0  0  0  0  3  0  0  0  0  0  0
  -22.0130   -4.7880   22.5490 C   0  0  0  0  0  0  0  0  0  0  0  0
  -22.4240   -4.2410   21.3790 F   0  0  0  0  0  0  0  0  0  0  0  0
  -21.3540   -3.7590   26.0050 F   0  0  0  0  0  0  0  0  0  0  0  0
  -22.7260  -13.5370   21.0610 C   0  0  0  0  0  0  0  0  0  0  0  0
  -22.0000  -12.8380   21.9240 N   0  0  0  0  0  0  0  0  0  0  0  0
  -22.2850  -14.5540   20.5260 O   0  0  0  0  0  0  0  0  0  0  0  0
  -22.3840  -12.0260   22.3820 H   0  0  0  0  0  0  0  0  0  0  0  0
  -21.0510  -13.1170   22.1300 H   0  0  0  0  0  0  0  0  0  0  0  0
  -25.3380  -15.2410   20.3140 N   0  0  0  0  0  0  0  0  0  0  0  0
  -24.5620  -15.8770   20.4730 H   0  0  0  0  0  0  0  0  0  0  0  0
  -26.2260  -15.7170   20.2150 H   0  0  0  0  0  0  0  0  0  0  0  0
  -28.2390  -26.2350   20.3090 O   0  0  0  0  0  0  0  0  0  0  0  0
  -24.6120  -31.8960   23.2260 C   0  0  0  0  0  0  0  0  0  0  0  0
  -27.1940  -27.2160   20.1670 C   0  0  0  0  0  0  0  0  0  0  0  0
  -23.4120  -30.5000   21.5860 C   0  0  0  0  0  3  0  0  0  0  0  0
  -24.8550  -28.9370   20.1470 C   0  0  0  0  0  0  0  0  0  0  0  0
  -25.9610  -30.7760   21.4140 C   0  0  0  0  0  2  0  0  0  0  0  0
  -26.0330  -29.3900   20.7530 C   0  0  0  0  0  0  0  0  0  0  0  0
  -27.2000  -28.5410   20.7560 C   0  0  0  0  0  3  0  0  0  0  0  0
  -25.9840  -26.8480   19.5370 C   0  0  0  0  0  3  0  0  0  0  0  0
  -24.8420  -27.6790   19.5250 C   0  0  0  0  0  3  0  0  0  0  0  0
  -23.6280  -29.8310   20.2020 C   0  0  0  0  0  2  0  0  0  0  0  0
  -24.6810  -31.0820   22.1300 N   0  0  0  0  0  0  0  0  0  0  0  0
  -23.5270  -32.1770   23.7580 O   0  0  0  0  0  0  0  0  0  0  0  0
  -22.7420  -29.4890   22.5480 C   0  0  0  0  0  0  0  0  0  0  0  0
  -21.4150  -29.3060   22.4170 N   0  0  0  0  0  0  0  0  0  0  0  0
  -23.4150  -28.8710   23.3790 O   0  0  0  0  0  0  0  0  0  0  0  0
  -20.9320  -29.8550   21.7190 H   0  0  0  0  0  0  0  0  0  0  0  0
  -18.0430  -28.0700   22.8950 C   0  0  0  0  0  0  0  0  0  0  0  0
  -20.5950  -28.3640   23.1850 C   0  0  0  0  0  3  0  0  0  0  0  0
  -20.7180  -26.9300   22.6200 C   0  0  0  0  0  2  0  0  0  0  0  0
  -19.6270  -26.5860   21.5990 C   0  0  0  0  0  2  0  0  0  0  0  0
  -18.2390  -26.7190   22.2310 C   0  0  0  0  0  2  0  0  0  0  0  0
  -19.1480  -28.8490   23.3310 C   0  0  0  0  0  0  0  0  0  0  0  0
  -18.9070  -30.1100   23.9160 C   0  0  0  0  0  3  0  0  0  0  0  0
  -17.5950  -30.5930   24.0710 C   0  0  0  0  0  3  0  0  0  0  0  0
  -16.5040  -29.8110   23.6510 C   0  0  0  0  0  3  0  0  0  0  0  0
  -16.7290  -28.5510   23.0700 C   0  0  0  0  0  3  0  0  0  0  0  0
  -25.8900  -32.5310   23.8550 C   0  0  0  0  0  3  0  0  0  0  0  0
  -25.5800  -33.9320   24.1800 N   0  0  0  0  0  0  0  0  0  0  0  0
  -25.9100  -34.9850   23.4210 C   0  0  0  0  0  0  0  0  0  0  0  0
  -26.5720  -34.8790   22.3850 O   0  0  0  0  0  0  0  0  0  0  0  0
  -24.9900  -34.0880   24.9840 H   0  0  0  0  0  0  0  0  0  0  0  0
  -24.1810  -36.7840   23.0760 C   0  0  0  0  0  1  0  0  0  0  0  0
  -25.4270  -36.3770   23.8790 C   0  0  0  0  0  3  0  0  0  0  0  0
  -27.5720  -37.2610   24.6910 C   0  0  0  0  0  1  0  0  0  0  0  0
  -26.4610  -37.4300   23.7580 N   0  0  0  0  0  0  0  0  0  0  0  0
  -26.0550  -38.3500   23.9100 H   0  0  0  0  0  0  0  0  0  0  0  0
  -26.3940  -31.7690   25.1440 C   0  0  1  0  0  0  0  0  0  0  0  0
  -25.2960  -31.5520   26.2130 C   0  0  0  0  0  1  0  0  0  0  0  0
  -26.9720  -30.3840   24.7700 C   0  0  0  0  0  1  0  0  0  0  0  0
  -27.5480  -32.5650   25.8020 C   0  0  0  0  0  1  0  0  0  0  0  0
  1  2  1  0
  2  7  2  0
  3  1  2  0
  3 52  1  0
  4  1  1  0
  4  6  1  0
  5  3  1  0
  6  2  1  0
  8  9  2  0
  8 10  1  0
  9 12  1  0
 10 13  2  0
 12  6  1  0
 12 11  2  0
 13 11  1  0
 13 23  1  0
 14 23  1  0
 15 20  1  0
 16 17  1  0
 16 15  1  0
 18 17  1  0
 18 27  1  0
 18 19  1  0
 20 14  1  0
 20 19  1  0
 21 14  2  0
 23 22  1  0
 24 25  2  0
 25 44  1  0
 26 25  1  0
 26 29  1  0
 27 24  1  0
 27 28  1  0
 28 26  2  0
 29 30  1  0
 30 31  2  0
 32 35  1  0
 32 31  1  0
 33 32  2  0
 34 33  1  0
 34 29  2  0
 35 36  1  0
 36 37  1  0
 37 38  2  0
 39 38  1  0
 39 43  1  0
 40 39  2  0
 41 36  2  0
 41 40  1  0
 42 41  1  0
 44 45  1  0
 45 48  1  0
 45 47  1  0
 46 44  2  0
 49 24  1  0
 49 50  1  0
 51 49  1  0
 53 64  2  0
 54 52  1  0
 54 59  1  0
 55 63  1  0
 55 65  1  0
 56 62  1  0
 56 58  1  0
 57 63  1  0
 58 59  2  0
 58 57  1  0
 60 54  2  0
 61 60  1  0
 61 56  2  0
 62 55  1  0
 63 53  1  0
 65 67  2  0
 66 65  1  0
 68 66  1  0
 69 78  2  0
 69 74  1  0
 70 66  1  0
 70 74  1  0
 71 70  1  0
 72 73  1  0
 72 71  1  0
 73 69  1  0
 74 75  2  0
 75 76  1  0
 77 76  2  0
 78 77  1  0
 79 53  1  0
 79 80  1  0
 79 89  1  0
 80 83  1  0
 81 85  1  0
 81 80  1  0
 82 81  2  0
 85 84  1  0
 87 85  1  0
 87 88  1  0
 87 86  1  0
 89 92  1  1
 89 90  1  0
 91 89  1  0
M  ISO  4   3 101  14 100  23 100  52 101
M  END
>  <TORSDO>  (86) 
F 17

>  <SCORE>  (86) 
-15.508

>  <name>  (86) 
85

>  <ligand_id>  (86) 
85

>  <original_smiles>  (86) 
[H]c1c([H])c(N(C(=O)N2C([H])([H])C([H])([H])C([H])([H])C([H])(n3nc(-c4c([H])c([H])c(Oc5c([H])c([H])c(F)c([H])c5F)c([H])c4[H])c(C(=O)N([H])[H])c3N([H])[H])C2([H])[H])C([H])([H])[H])c([H])c(N2C(=O)C(=C(Oc3c([H])c([H])c4c(c3[H])C([H])([H])N(C(=O)C([H])(N([H])C(=O)C([H])(N([H])C([H])([H])[H])C([H])([H])[H])C(C([H])([H])[H])(C([H])([H])[H])C([H])([H])[H])C([H])(C(=O)N([H])C3([H])c5c([H])c([H])c([H])c([H])c5C([H])([H])C([H])([H])C3([H])[H])C4([H])[H])C([H])([H])[H])C2([H])[H])c1[H]

>  <smiles>  (86) 
[H]c1c([H])c(N(C(=O)N2C([H])([H])C([H])([H])C([H])([H])C([H])(n3nc(-c4c([H])c([H])c(Oc5c([H])c([H])c(F)c([H])c5F)c([H])c4[H])c(C(=O)N([H])[H])c3N([H])[H])C2([H])[H])C([H])([H])[H])c([H])c(N2C(=O)C(=C(Oc3c([H])c([H])c4c(c3[H])C([H])([H])N(C(=O)C([H])(N([H])C(=O)C([H])(N([H])C([H])([H])[H])C([H])([H])[H])C(C([H])([H])[H])(C([H])([H])[H])C([H])([H])[H])C([H])(C(=O)N([H])C3([H])c5c([H])c([H])c([H])c([H])c5C([H])([H])C([H])([H])C3([H])[H])C4([H])[H])C([H])([H])[H])C2([H])[H])c1[H]

$$$$
86:0:0
     RDKit          3D

 94103  0  0  1  0  0  0  0  0999 V2000
  -28.1230  -23.8270   20.6920 C   0  0  0  0  0  3  0  0  0  0  0  0
  -27.4240  -22.7880   21.4550 C   0  0  0  0  0  0  0  0  0  0  0  0
  -29.0210  -22.9660   19.8260 C   0  0  0  0  0  0  0  0  0  0  0  0
  -26.1960  -22.8690   22.0060 C   0  0  0  0  0  2  0  0  0  0  0  0
  -27.9040  -25.2310   20.8650 C   0  0  0  0  0  3  0  0  0  0  0  0
  -28.0720  -21.4400   21.3210 C   0  0  0  0  0  2  0  0  0  0  0  0
  -27.2100  -25.7000   22.1520 C   0  0  0  0  0  1  0  0  0  0  0  0
  -29.0080  -21.5970   20.2230 N   0  0  0  0  0  0  0  0  0  0  0  0
  -29.7020  -23.4000   18.8890 O   0  0  0  0  0  0  0  0  0  0  0  0
  -31.6110  -19.3870   18.4600 C   0  0  0  0  0  3  0  0  0  0  0  0
  -30.8450  -20.4940   18.8810 C   0  0  0  0  0  3  0  0  0  0  0  0
  -31.3470  -18.0730   18.8970 C   0  0  0  0  0  3  0  0  0  0  0  0
  -29.5170  -18.9560   20.2130 C   0  0  0  0  0  3  0  0  0  0  0  0
  -29.7610  -20.3510   19.7780 C   0  0  0  0  0  0  0  0  0  0  0  0
  -30.2980  -17.7730   19.7970 C   0  0  0  0  0  0  0  0  0  0  0  0
  -30.8110  -15.1490   19.9920 C   0  0  0  0  0  0  0  0  0  0  0  0
  -30.6140  -12.8280   19.0540 C   0  0  0  0  0  2  0  0  0  0  0  0
  -29.6340  -12.8510   17.8600 C   0  0  0  0  0  2  0  0  0  0  0  0
  -28.1880  -12.6440   18.3500 C   0  0  0  0  0  2  0  0  0  0  0  0
  -27.8410  -13.5340   19.5750 C   0  0  0  0  0  3  0  0  0  0  0  0
  -28.9460  -13.5180   20.6520 C   0  0  0  0  0  2  0  0  0  0  0  0
  -30.1980  -13.9040   19.9900 N   0  0  0  0  0  0  0  0  0  0  0  0
  -31.9980  -15.1970   19.6590 O   0  0  0  0  0  0  0  0  0  0  0  0
  -30.0560  -16.3240   20.1880 N   0  0  0  0  0  0  0  0  0  0  0  0
  -29.1410  -16.1450   20.5730 H   0  0  0  0  0  0  0  0  0  0  0  0
  -25.4920  -14.0710   20.4420 C   0  0  0  0  0  0  0  0  0  0  0  0
  -24.4530  -13.2770   20.8410 C   0  0  0  0  0  0  0  0  0  0  0  0
  -24.9250  -11.9310   20.7490 C   0  0  0  0  0  0  0  0  0  0  0  0
  -26.5300  -13.2100   20.1280 N   0  0  0  0  0  0  0  0  0  0  0  0
  -26.1990  -11.9160   20.3750 N   0  0  0  0  0  0  0  0  0  0  0  0
  -24.2170  -10.6570   20.9390 C   0  0  0  0  0  0  0  0  0  0  0  0
  -24.6440   -9.7090   21.8940 C   0  0  0  0  0  3  0  0  0  0  0  0
  -23.9330   -8.5020   22.0720 C   0  0  0  0  0  3  0  0  0  0  0  0
  -22.7830   -8.2350   21.2920 C   0  0  0  0  0  0  0  0  0  0  0  0
  -22.3770   -9.1710   20.3260 C   0  0  0  0  0  3  0  0  0  0  0  0
  -23.0880  -10.3700   20.1470 C   0  0  0  0  0  3  0  0  0  0  0  0
  -22.0460   -7.0780   21.3760 O   0  0  0  0  0  0  0  0  0  0  0  0
  -21.9130   -6.3930   22.5580 C   0  0  0  0  0  0  0  0  0  0  0  0
  -21.3330   -6.9860   23.7010 C   0  0  0  0  0  3  0  0  0  0  0  0
  -21.1510   -6.2250   24.8730 C   0  0  0  0  0  3  0  0  0  0  0  0
  -21.5400   -4.8720   24.9030 C   0  0  0  0  0  0  0  0  0  0  0  0
  -22.1150   -4.2800   23.7640 C   0  0  0  0  0  3  0  0  0  0  0  0
  -22.2980   -5.0380   22.5950 C   0  0  0  0  0  0  0  0  0  0  0  0
  -22.8310   -4.4560   21.4940 F   0  0  0  0  0  0  0  0  0  0  0  0
  -21.3600   -4.1390   26.0260 F   0  0  0  0  0  0  0  0  0  0  0  0
  -23.0660  -13.7340   21.1910 C   0  0  0  0  0  0  0  0  0  0  0  0
  -22.3900  -13.0160   22.0810 N   0  0  0  0  0  0  0  0  0  0  0  0
  -22.5940  -14.7650   20.7150 O   0  0  0  0  0  0  0  0  0  0  0  0
  -22.7860  -12.1800   22.4860 H   0  0  0  0  0  0  0  0  0  0  0  0
  -21.4620  -13.3040   22.3560 H   0  0  0  0  0  0  0  0  0  0  0  0
  -25.6340  -15.4480   20.2950 N   0  0  0  0  0  0  0  0  0  0  0  0
  -24.8620  -16.0860   20.4500 H   0  0  0  0  0  0  0  0  0  0  0  0
  -26.4490  -15.9050   19.9080 H   0  0  0  0  0  0  0  0  0  0  0  0
  -28.2690  -26.4370   20.1410 O   0  0  0  0  0  0  0  0  0  0  0  0
  -24.6130  -31.9760   23.2350 C   0  0  0  0  0  0  0  0  0  0  0  0
  -27.2720  -27.4640   20.0410 C   0  0  0  0  0  0  0  0  0  0  0  0
  -23.4370  -30.6160   21.5490 C   0  0  0  0  0  3  0  0  0  0  0  0
  -24.9170  -29.1270   20.0670 C   0  0  0  0  0  0  0  0  0  0  0  0
  -25.9820  -30.9470   21.3910 C   0  0  0  0  0  2  0  0  0  0  0  0
  -26.0840  -29.5840   20.6930 C   0  0  0  0  0  0  0  0  0  0  0  0
  -27.2680  -28.7650   20.6720 C   0  0  0  0  0  3  0  0  0  0  0  0
  -26.0910  -27.1050   19.3610 C   0  0  0  0  0  3  0  0  0  0  0  0
  -24.9290  -27.9010   19.3860 C   0  0  0  0  0  3  0  0  0  0  0  0
  -23.6690  -29.9900   20.1480 C   0  0  0  0  0  2  0  0  0  0  0  0
  -24.6970  -31.1980   22.1150 N   0  0  0  0  0  0  0  0  0  0  0  0
  -23.5230  -32.2250   23.7720 O   0  0  0  0  0  0  0  0  0  0  0  0
  -22.7790  -29.5640   22.4760 C   0  0  0  0  0  0  0  0  0  0  0  0
  -21.4550  -29.3700   22.3360 N   0  0  0  0  0  0  0  0  0  0  0  0
  -23.4600  -28.9260   23.2840 O   0  0  0  0  0  0  0  0  0  0  0  0
  -20.9630  -29.9380   21.6610 H   0  0  0  0  0  0  0  0  0  0  0  0
  -18.0890  -28.1240   22.8100 C   0  0  0  0  0  0  0  0  0  0  0  0
  -20.6470  -28.3970   23.0750 C   0  0  0  0  0  3  0  0  0  0  0  0
  -20.7570  -26.9910   22.4430 C   0  0  0  0  0  2  0  0  0  0  0  0
  -19.6510  -26.6980   21.4240 C   0  0  0  0  0  2  0  0  0  0  0  0
  -18.2720  -26.8050   22.0800 C   0  0  0  0  0  2  0  0  0  0  0  0
  -19.2030  -28.8800   23.2630 C   0  0  0  0  0  0  0  0  0  0  0  0
  -18.9740  -30.1160   23.9070 C   0  0  0  0  0  3  0  0  0  0  0  0
  -17.6650  -30.5960   24.1010 C   0  0  0  0  0  3  0  0  0  0  0  0
  -16.5650  -29.8370   23.6610 C   0  0  0  0  0  3  0  0  0  0  0  0
  -16.7790  -28.6030   23.0220 C   0  0  0  0  0  3  0  0  0  0  0  0
  -25.8810  -32.6120   23.8830 C   0  0  0  0  0  3  0  0  0  0  0  0
  -25.5650  -34.0100   24.2100 N   0  0  0  0  0  0  0  0  0  0  0  0
  -25.9030  -35.0640   23.4550 C   0  0  0  0  0  0  0  0  0  0  0  0
  -26.5820  -34.9600   22.4290 O   0  0  0  0  0  0  0  0  0  0  0  0
  -24.9630  -34.1630   25.0050 H   0  0  0  0  0  0  0  0  0  0  0  0
  -24.1770  -36.8560   23.0880 C   0  0  0  0  0  1  0  0  0  0  0  0
  -25.4140  -36.4540   23.9080 C   0  0  0  0  0  3  0  0  0  0  0  0
  -27.5390  -37.3460   24.7560 C   0  0  0  0  0  1  0  0  0  0  0  0
  -26.4470  -37.5090   23.8010 N   0  0  0  0  0  0  0  0  0  0  0  0
  -26.0390  -38.4290   23.9360 H   0  0  0  0  0  0  0  0  0  0  0  0
  -26.3650  -31.8410   25.1720 C   0  0  1  0  0  0  0  0  0  0  0  0
  -25.2460  -31.6000   26.2130 C   0  0  0  0  0  1  0  0  0  0  0  0
  -26.9600  -30.4650   24.7960 C   0  0  0  0  0  1  0  0  0  0  0  0
  -27.5000  -32.6340   25.8610 C   0  0  0  0  0  1  0  0  0  0  0  0
  1  5  1  0
  1  2  1  0
  2  4  2  0
  3  8  1  0
  3  1  1  0
  5  7  1  0
  6  2  1  0
  8  6  1  0
  9  3  2  0
 10 11  2  0
 10 12  1  0
 11 14  1  0
 12 15  2  0
 14 13  2  0
 14  8  1  0
 15 24  1  0
 15 13  1  0
 16 24  1  0
 17 22  1  0
 18 19  1  0
 18 17  1  0
 20 19  1  0
 20 29  1  0
 20 21  1  0
 22 16  1  0
 22 21  1  0
 23 16  2  0
 24 25  1  0
 26 27  2  0
 27 46  1  0
 28 27  1  0
 28 31  1  0
 29 30  1  0
 29 26  1  0
 30 28  2  0
 31 32  1  0
 32 33  2  0
 34 37  1  0
 34 33  1  0
 35 34  2  0
 36 35  1  0
 36 31  2  0
 37 38  1  0
 38 43  2  0
 38 39  1  0
 39 40  2  0
 40 41  1  0
 41 45  1  0
 42 41  2  0
 43 42  1  0
 44 43  1  0
 46 47  1  0
 47 50  1  0
 47 49  1  0
 48 46  2  0
 51 26  1  0
 51 52  1  0
 53 51  1  0
 54  5  1  0
 55 66  2  0
 56 54  1  0
 56 61  1  0
 57 65  1  0
 57 67  1  0
 58 64  1  0
 58 60  1  0
 59 65  1  0
 60 59  1  0
 61 60  2  0
 62 63  1  0
 62 56  2  0
 63 58  2  0
 64 57  1  0
 65 55  1  0
 67 69  2  0
 68 67  1  0
 70 68  1  0
 71 80  2  0
 71 76  1  0
 72 68  1  0
 72 76  1  0
 73 72  1  0
 74 75  1  0
 74 73  1  0
 75 71  1  0
 76 77  2  0
 77 78  1  0
 79 78  2  0
 80 79  1  0
 81 55  1  0
 81 82  1  0
 81 91  1  0
 82 85  1  0
 83 87  1  0
 83 82  1  0
 84 83  2  0
 87 86  1  0
 89 87  1  0
 89 90  1  0
 89 88  1  0
 91 94  1  1
 91 92  1  0
 93 91  1  0
M  ISO  4   5 101  16 100  24 100  54 101
M  END
>  <TORSDO>  (87) 
F 17

>  <SCORE>  (87) 
-14.393

>  <name>  (87) 
86

>  <ligand_id>  (87) 
86

>  <original_smiles>  (87) 
[H]C([H])=C1C(=C(Oc2c([H])c([H])c3c(c2[H])C([H])([H])N(C(=O)C([H])(N([H])C(=O)C([H])(N([H])C([H])([H])[H])C([H])([H])[H])C(C([H])([H])[H])(C([H])([H])[H])C([H])([H])[H])C([H])(C(=O)N([H])C2([H])c4c([H])c([H])c([H])c([H])c4C([H])([H])C([H])([H])C2([H])[H])C3([H])[H])C([H])([H])[H])C(=O)N(c2c([H])c([H])c([H])c(N([H])C(=O)N3C([H])([H])C([H])([H])C([H])([H])C([H])(n4nc(-c5c([H])c([H])c(Oc6c([H])c([H])c(F)c([H])c6F)c([H])c5[H])c(C(=O)N([H])[H])c4N([H])[H])C3([H])[H])c2[H])C1([H])[H]

>  <smiles>  (87) 
[H]C([H])=C1C(=C(Oc2c([H])c([H])c3c(c2[H])C([H])([H])N(C(=O)C([H])(N([H])C(=O)C([H])(N([H])C([H])([H])[H])C([H])([H])[H])C(C([H])([H])[H])(C([H])([H])[H])C([H])([H])[H])C([H])(C(=O)N([H])C2([H])c4c([H])c([H])c([H])c([H])c4C([H])([H])C([H])([H])C2([H])[H])C3([H])[H])C([H])([H])[H])C(=O)N(c2c([H])c([H])c([H])c(N([H])C(=O)N3C([H])([H])C([H])([H])C([H])([H])C([H])(n4nc(-c5c([H])c([H])c(Oc6c([H])c([H])c(F)c([H])c6F)c([H])c5[H])c(C(=O)N([H])[H])c4N([H])[H])C3([H])[H])c2[H])C1([H])[H]

$$$$
87:0:0
     RDKit          3D

 91100  0  0  1  0  0  0  0  0999 V2000
  -28.4100  -23.9190   20.6030 C   0  0  0  0  0  0  0  0  0  0  0  0
  -28.0110  -25.2290   20.7790 C   0  0  0  0  0  3  0  0  0  0  0  0
  -27.7720  -22.6570   21.1650 C   0  0  0  0  0  2  0  0  0  0  0  0
  -29.4540  -23.0220   19.8890 C   0  0  0  0  0  2  0  0  0  0  0  0
  -28.4550  -21.9350   20.0800 N   0  0  0  0  0  0  0  0  0  0  0  0
  -28.3170  -18.3140   20.8360 C   0  0  0  0  0  3  0  0  0  0  0  0
  -27.8580  -19.6560   21.0120 C   0  0  0  0  0  3  0  0  0  0  0  0
  -29.3950  -18.3450   19.9930 C   0  0  0  0  0  0  0  0  0  0  0  0
  -28.6630  -20.4950   20.2830 C   0  0  0  0  0  0  0  0  0  0  0  0
  -29.6200  -19.7000   19.6510 O   0  0  0  0  0  0  0  0  0  0  0  0
  -30.7020  -14.7590   19.4430 C   0  0  0  0  0  0  0  0  0  0  0  0
  -30.3650  -12.4950   18.4840 C   0  0  0  0  0  2  0  0  0  0  0  0
  -29.2860  -12.5750   17.3850 C   0  0  0  0  0  2  0  0  0  0  0  0
  -27.8850  -12.3840   17.9940 C   0  0  0  0  0  2  0  0  0  0  0  0
  -27.6520  -13.2700   19.2480 C   0  0  0  0  0  3  0  0  0  0  0  0
  -28.8440  -13.2030   20.2300 C   0  0  0  0  0  2  0  0  0  0  0  0
  -30.0590  -13.5450   19.4810 N   0  0  0  0  0  0  0  0  0  0  0  0
  -31.8330  -14.8210   18.9570 O   0  0  0  0  0  0  0  0  0  0  0  0
  -30.3120  -17.2140   19.5370 C   0  0  0  0  0  0  0  0  0  0  0  0
  -29.9810  -15.8910   19.7690 N   0  0  0  0  0  0  0  0  0  0  0  0
  -31.3370  -17.5570   18.9380 O   0  0  0  0  0  0  0  0  0  0  0  0
  -29.0800  -15.7400   20.1860 H   0  0  0  0  0  0  0  0  0  0  0  0
  -25.4000  -13.8200   20.3510 C   0  0  0  0  0  0  0  0  0  0  0  0
  -24.3840  -13.0260   20.8090 C   0  0  0  0  0  0  0  0  0  0  0  0
  -24.8140  -11.6780   20.6100 C   0  0  0  0  0  0  0  0  0  0  0  0
  -26.3850  -12.9550   19.9020 N   0  0  0  0  0  0  0  0  0  0  0  0
  -26.0480  -11.6570   20.1190 N   0  0  0  0  0  0  0  0  0  0  0  0
  -24.0990  -10.4090   20.8020 C   0  0  0  0  0  0  0  0  0  0  0  0
  -24.6060   -9.3970   21.6470 C   0  0  0  0  0  3  0  0  0  0  0  0
  -23.8900   -8.1950   21.8330 C   0  0  0  0  0  3  0  0  0  0  0  0
  -22.6530   -7.9960   21.1740 C   0  0  0  0  0  0  0  0  0  0  0  0
  -22.1640   -8.9980   20.3180 C   0  0  0  0  0  3  0  0  0  0  0  0
  -22.8810  -10.1920   20.1290 C   0  0  0  0  0  3  0  0  0  0  0  0
  -21.9010   -6.8510   21.2750 O   0  0  0  0  0  0  0  0  0  0  0  0
  -21.8970   -6.0890   22.4150 C   0  0  0  0  0  0  0  0  0  0  0  0
  -21.5280   -6.6260   23.6680 C   0  0  0  0  0  3  0  0  0  0  0  0
  -21.4720   -5.7910   24.8020 C   0  0  0  0  0  3  0  0  0  0  0  0
  -21.7750   -4.4210   24.6850 C   0  0  0  0  0  0  0  0  0  0  0  0
  -22.1370   -3.8840   23.4370 C   0  0  0  0  0  3  0  0  0  0  0  0
  -22.1950   -4.7160   22.3060 C   0  0  0  0  0  0  0  0  0  0  0  0
  -22.5250   -4.1900   21.1010 F   0  0  0  0  0  0  0  0  0  0  0  0
  -21.7130   -3.6170   25.7720 F   0  0  0  0  0  0  0  0  0  0  0  0
  -23.0470  -13.4900   21.3090 C   0  0  0  0  0  0  0  0  0  0  0  0
  -22.4400  -12.7390   22.2200 N   0  0  0  0  0  0  0  0  0  0  0  0
  -22.5560  -14.5510   20.9280 O   0  0  0  0  0  0  0  0  0  0  0  0
  -22.8530  -11.8800   22.5490 H   0  0  0  0  0  0  0  0  0  0  0  0
  -21.5470  -13.0280   22.5950 H   0  0  0  0  0  0  0  0  0  0  0  0
  -25.5590  -15.1990   20.2560 N   0  0  0  0  0  0  0  0  0  0  0  0
  -24.8140  -15.8390   20.5100 H   0  0  0  0  0  0  0  0  0  0  0  0
  -26.3350  -15.6610   19.8000 H   0  0  0  0  0  0  0  0  0  0  0  0
  -28.4370  -26.4860   20.2950 O   0  0  0  0  0  0  0  0  0  0  0  0
  -24.7150  -31.9130   23.2770 C   0  0  0  0  0  0  0  0  0  0  0  0
  -27.3990  -27.4240   20.1910 C   0  0  0  0  0  0  0  0  0  0  0  0
  -23.5560  -30.5550   21.5720 C   0  0  0  0  0  3  0  0  0  0  0  0
  -25.0450  -29.0420   20.1450 C   0  0  0  0  0  0  0  0  0  0  0  0
  -26.1010  -30.8720   21.4710 C   0  0  0  0  0  2  0  0  0  0  0  0
  -26.1990  -29.5120   20.7900 C   0  0  0  0  0  0  0  0  0  0  0  0
  -27.3820  -28.7130   20.8090 C   0  0  0  0  0  3  0  0  0  0  0  0
  -26.2330  -27.0170   19.5070 C   0  0  0  0  0  3  0  0  0  0  0  0
  -25.0650  -27.7990   19.4940 C   0  0  0  0  0  3  0  0  0  0  0  0
  -23.8080  -29.9150   20.1820 C   0  0  0  0  0  2  0  0  0  0  0  0
  -24.8070  -31.1280   22.1650 N   0  0  0  0  0  0  0  0  0  0  0  0
  -23.6160  -32.1820   23.7870 O   0  0  0  0  0  0  0  0  0  0  0  0
  -22.8630  -29.5180   22.4890 C   0  0  0  0  0  0  0  0  0  0  0  0
  -21.5380  -29.3600   22.3310 N   0  0  0  0  0  0  0  0  0  0  0  0
  -23.5180  -28.8600   23.3010 O   0  0  0  0  0  0  0  0  0  0  0  0
  -21.0710  -29.9400   21.6480 H   0  0  0  0  0  0  0  0  0  0  0  0
  -18.1330  -28.2120   22.7540 C   0  0  0  0  0  0  0  0  0  0  0  0
  -20.6920  -28.4140   23.0600 C   0  0  0  0  0  3  0  0  0  0  0  0
  -20.7730  -27.0000   22.4390 C   0  0  0  0  0  2  0  0  0  0  0  0
  -19.6770  -26.7340   21.4000 C   0  0  0  0  0  2  0  0  0  0  0  0
  -18.2920  -26.8850   22.0330 C   0  0  0  0  0  2  0  0  0  0  0  0
  -19.2610  -28.9380   23.2220 C   0  0  0  0  0  0  0  0  0  0  0  0
  -19.0590  -30.1840   23.8550 C   0  0  0  0  0  3  0  0  0  0  0  0
  -17.7600  -30.7040   24.0250 C   0  0  0  0  0  3  0  0  0  0  0  0
  -16.6470  -29.9740   23.5720 C   0  0  0  0  0  3  0  0  0  0  0  0
  -16.8340  -28.7300   22.9440 C   0  0  0  0  0  3  0  0  0  0  0  0
  -25.9820  -32.5280   23.9490 C   0  0  0  0  0  3  0  0  0  0  0  0
  -25.6730  -33.9250   24.2810 N   0  0  0  0  0  0  0  0  0  0  0  0
  -26.0360  -34.9830   23.5430 C   0  0  0  0  0  0  0  0  0  0  0  0
  -26.7360  -34.8840   22.5310 O   0  0  0  0  0  0  0  0  0  0  0  0
  -25.0570  -34.0780   25.0660 H   0  0  0  0  0  0  0  0  0  0  0  0
  -24.3350  -36.7950   23.1550 C   0  0  0  0  0  1  0  0  0  0  0  0
  -25.5480  -36.3710   24.0000 C   0  0  0  0  0  3  0  0  0  0  0  0
  -27.6630  -37.2290   24.9060 C   0  0  0  0  0  1  0  0  0  0  0  0
  -26.5930  -37.4160   23.9290 N   0  0  0  0  0  0  0  0  0  0  0  0
  -26.1900  -38.3380   24.0720 H   0  0  0  0  0  0  0  0  0  0  0  0
  -26.4460  -31.7400   25.2350 C   0  0  1  0  0  0  0  0  0  0  0  0
  -25.3140  -31.5010   26.2600 C   0  0  0  0  0  1  0  0  0  0  0  0
  -27.0340  -30.3620   24.8520 C   0  0  0  0  0  1  0  0  0  0  0  0
  -27.5780  -32.5200   25.9450 C   0  0  0  0  0  1  0  0  0  0  0  0
  1  2  2  0
  1  3  1  0
  4  5  1  0
  4  1  1  0
  5  9  1  0
  5  3  1  0
  6  7  1  0
  8  6  2  0
  9  7  2  0
 10  8  1  0
 10  9  1  0
 11 17  1  0
 11 20  1  0
 12 17  1  0
 13 14  1  0
 13 12  1  0
 15 14  1  0
 15 26  1  0
 15 16  1  0
 17 16  1  0
 18 11  2  0
 19 20  1  0
 19  8  1  0
 20 22  1  0
 21 19  2  0
 23 24  2  0
 24 43  1  0
 25 28  1  0
 25 24  1  0
 26 27  1  0
 26 23  1  0
 27 25  2  0
 28 29  1  0
 29 30  2  0
 31 34  1  0
 31 30  1  0
 32 31  2  0
 33 32  1  0
 33 28  2  0
 34 35  1  0
 35 36  1  0
 36 37  2  0
 38 37  1  0
 38 42  1  0
 39 38  2  0
 40 35  2  0
 40 39  1  0
 41 40  1  0
 43 44  1  0
 44 46  1  0
 44 47  1  0
 45 43  2  0
 48 23  1  0
 48 49  1  0
 50 48  1  0
 51  2  1  0
 52 63  2  0
 53 51  1  0
 53 58  1  0
 54 62  1  0
 54 64  1  0
 55 61  1  0
 55 57  1  0
 56 62  1  0
 57 58  2  0
 57 56  1  0
 59 53  2  0
 60 59  1  0
 60 55  2  0
 61 54  1  0
 62 52  1  0
 64 66  2  0
 65 64  1  0
 67 65  1  0
 68 77  2  0
 68 73  1  0
 69 65  1  0
 69 73  1  0
 70 69  1  0
 71 72  1  0
 71 70  1  0
 72 68  1  0
 73 74  2  0
 74 75  1  0
 76 75  2  0
 77 76  1  0
 78 52  1  0
 78 79  1  0
 78 88  1  0
 79 82  1  0
 80 84  1  0
 80 79  1  0
 81 80  2  0
 84 83  1  0
 86 84  1  0
 86 87  1  0
 86 85  1  0
 88 91  1  1
 88 89  1  0
 90 88  1  0
M  ISO  4   2 101  11 100  20 100  51 101
M  END
>  <TORSDO>  (88) 
F 17

>  <SCORE>  (88) 
-12.974

>  <name>  (88) 
87

>  <ligand_id>  (88) 
87

>  <original_smiles>  (88) 
[H]C(Oc1c([H])c([H])c2c(c1[H])C([H])([H])N(C(=O)C([H])(N([H])C(=O)C([H])(N([H])C([H])([H])[H])C([H])([H])[H])C(C([H])([H])[H])(C([H])([H])[H])C([H])([H])[H])C([H])(C(=O)N([H])C1([H])c3c([H])c([H])c([H])c([H])c3C([H])([H])C([H])([H])C1([H])[H])C2([H])[H])=C1C([H])([H])N(c2oc(C(=O)N([H])C(=O)N3C([H])([H])C([H])([H])C([H])([H])C([H])(n4nc(-c5c([H])c([H])c(Oc6c([H])c([H])c(F)c([H])c6F)c([H])c5[H])c(C(=O)N([H])[H])c4N([H])[H])C3([H])[H])c([H])c2[H])C1([H])[H]

>  <smiles>  (88) 
[H]C(Oc1c([H])c([H])c2c(c1[H])C([H])([H])N(C(=O)C([H])(N([H])C(=O)C([H])(N([H])C([H])([H])[H])C([H])([H])[H])C(C([H])([H])[H])(C([H])([H])[H])C([H])([H])[H])C([H])(C(=O)N([H])C1([H])c3c([H])c([H])c([H])c([H])c3C([H])([H])C([H])([H])C1([H])[H])C2([H])[H])=C1C([H])([H])N(c2oc(C(=O)N([H])C(=O)N3C([H])([H])C([H])([H])C([H])([H])C([H])(n4nc(-c5c([H])c([H])c(Oc6c([H])c([H])c(F)c([H])c6F)c([H])c5[H])c(C(=O)N([H])[H])c4N([H])[H])C3([H])[H])c([H])c2[H])C1([H])[H]

$$$$
88:0:0
     RDKit          3D

 92101  0  0  1  0  0  0  0  0999 V2000
  -31.7640  -23.1830   20.2210 C   0  0  0  0  0  0  0  0  0  0  0  0
  -30.4240  -23.1500   20.0750 C   0  0  0  0  0  0  0  0  0  0  0  0
  -32.7410  -24.1060   20.3080 C   0  0  0  0  0  1  0  0  0  0  0  0
  -29.7490  -24.3690   20.0210 C   0  0  0  0  0  2  0  0  0  0  0  0
  -31.8940  -21.7150   20.2750 C   0  0  0  0  0  2  0  0  0  0  0  0
  -30.4530  -21.6810   20.0180 N   0  0  0  0  0  0  0  0  0  0  0  0
  -29.1580  -19.5910   20.9250 C   0  0  0  0  0  3  0  0  0  0  0  0
  -30.7190  -19.3240   19.1750 C   0  0  0  0  0  3  0  0  0  0  0  0
  -29.0750  -18.1580   21.0410 C   0  0  0  0  0  3  0  0  0  0  0  0
  -30.6690  -17.9000   19.2930 C   0  0  0  0  0  3  0  0  0  0  0  0
  -30.0310  -20.2590   20.0190 C   0  0  0  0  0  0  0  0  0  0  0  0
  -29.8680  -17.2570   20.2660 C   0  0  0  0  0  0  0  0  0  0  0  0
  -30.5370  -14.7280   20.0080 C   0  0  0  0  0  0  0  0  0  0  0  0
  -30.2850  -12.4860   18.9480 C   0  0  0  0  0  2  0  0  0  0  0  0
  -29.2720  -12.6130   17.7870 C   0  0  0  0  0  2  0  0  0  0  0  0
  -27.8300  -12.4400   18.2990 C   0  0  0  0  0  2  0  0  0  0  0  0
  -27.5390  -13.2960   19.5590 C   0  0  0  0  0  3  0  0  0  0  0  0
  -28.6560  -13.1370   20.6130 C   0  0  0  0  0  2  0  0  0  0  0  0
  -29.9280  -13.4960   19.9680 N   0  0  0  0  0  0  0  0  0  0  0  0
  -31.6760  -14.8770   19.5520 O   0  0  0  0  0  0  0  0  0  0  0  0
  -29.7690  -15.7910   20.4430 N   0  0  0  0  0  0  0  0  0  0  0  0
  -28.9380  -15.4870   20.9250 H   0  0  0  0  0  0  0  0  0  0  0  0
  -25.1970  -13.8930   20.4260 C   0  0  0  0  0  0  0  0  0  0  0  0
  -24.1480  -13.1160   20.8380 C   0  0  0  0  0  0  0  0  0  0  0  0
  -24.6000  -11.7630   20.7500 C   0  0  0  0  0  0  0  0  0  0  0  0
  -26.2210  -13.0100   20.1140 N   0  0  0  0  0  0  0  0  0  0  0  0
  -25.8700  -11.7240   20.3690 N   0  0  0  0  0  0  0  0  0  0  0  0
  -23.8760  -10.5030   20.9530 C   0  0  0  0  0  0  0  0  0  0  0  0
  -24.3280   -9.5300   21.8710 C   0  0  0  0  0  3  0  0  0  0  0  0
  -23.6040   -8.3320   22.0580 C   0  0  0  0  0  3  0  0  0  0  0  0
  -22.4120   -8.1010   21.3310 C   0  0  0  0  0  0  0  0  0  0  0  0
  -21.9780   -9.0640   20.4030 C   0  0  0  0  0  3  0  0  0  0  0  0
  -22.7030  -10.2530   20.2140 C   0  0  0  0  0  3  0  0  0  0  0  0
  -21.6580   -6.9570   21.4310 O   0  0  0  0  0  0  0  0  0  0  0  0
  -21.6040   -6.2300   22.5940 C   0  0  0  0  0  0  0  0  0  0  0  0
  -21.1730   -6.8020   23.8110 C   0  0  0  0  0  3  0  0  0  0  0  0
  -21.0670   -6.0010   24.9660 C   0  0  0  0  0  3  0  0  0  0  0  0
  -21.3810   -4.6300   24.9050 C   0  0  0  0  0  0  0  0  0  0  0  0
  -21.8080   -4.0590   23.6930 C   0  0  0  0  0  3  0  0  0  0  0  0
  -21.9150   -4.8570   22.5400 C   0  0  0  0  0  0  0  0  0  0  0  0
  -22.3050   -4.2960   21.3690 F   0  0  0  0  0  0  0  0  0  0  0  0
  -21.2730   -3.8590   26.0120 F   0  0  0  0  0  0  0  0  0  0  0  0
  -22.7730  -13.5970   21.1990 C   0  0  0  0  0  0  0  0  0  0  0  0
  -22.0910  -12.8860   22.0920 N   0  0  0  0  0  0  0  0  0  0  0  0
  -22.3130  -14.6370   20.7280 O   0  0  0  0  0  0  0  0  0  0  0  0
  -22.4740  -12.0430   22.4920 H   0  0  0  0  0  0  0  0  0  0  0  0
  -21.1740  -13.1920   22.3820 H   0  0  0  0  0  0  0  0  0  0  0  0
  -25.3620  -15.2650   20.2690 N   0  0  0  0  0  0  0  0  0  0  0  0
  -24.6040  -15.9180   20.4380 H   0  0  0  0  0  0  0  0  0  0  0  0
  -26.1890  -15.7060   19.8880 H   0  0  0  0  0  0  0  0  0  0  0  0
  -28.3420  -25.0230   19.8130 C   0  0  0  0  0  2  0  0  0  0  0  0
  -28.3780  -26.4990   20.0680 O   0  0  0  0  0  0  0  0  0  0  0  0
  -24.6300  -31.8350   23.2100 C   0  0  0  0  0  0  0  0  0  0  0  0
  -27.2290  -27.3130   20.0580 C   0  0  0  0  0  0  0  0  0  0  0  0
  -23.4140  -30.4640   21.5560 C   0  0  0  0  0  3  0  0  0  0  0  0
  -24.8540  -28.9250   20.0980 C   0  0  0  0  0  0  0  0  0  0  0  0
  -25.9520  -30.7800   21.3610 C   0  0  0  0  0  2  0  0  0  0  0  0
  -26.0260  -29.4090   20.6900 C   0  0  0  0  0  0  0  0  0  0  0  0
  -27.2140  -28.6160   20.6560 C   0  0  0  0  0  3  0  0  0  0  0  0
  -26.0310  -26.8770   19.4550 C   0  0  0  0  0  3  0  0  0  0  0  0
  -24.8590  -27.6640   19.4740 C   0  0  0  0  0  3  0  0  0  0  0  0
  -23.6200  -29.8030   20.1660 C   0  0  0  0  0  2  0  0  0  0  0  0
  -24.6850  -31.0430   22.0990 N   0  0  0  0  0  0  0  0  0  0  0  0
  -23.5510  -32.1070   23.7550 O   0  0  0  0  0  0  0  0  0  0  0  0
  -22.7540  -29.4360   22.5080 C   0  0  0  0  0  0  0  0  0  0  0  0
  -21.4270  -29.2610   22.3850 N   0  0  0  0  0  0  0  0  0  0  0  0
  -23.4360  -28.8000   23.3150 O   0  0  0  0  0  0  0  0  0  0  0  0
  -20.9390  -29.8280   21.7050 H   0  0  0  0  0  0  0  0  0  0  0  0
  -18.0520  -28.0540   22.8770 C   0  0  0  0  0  0  0  0  0  0  0  0
  -20.6110  -28.3130   23.1440 C   0  0  0  0  0  3  0  0  0  0  0  0
  -20.7150  -26.8900   22.5490 C   0  0  0  0  0  2  0  0  0  0  0  0
  -19.6100  -26.5810   21.5340 C   0  0  0  0  0  2  0  0  0  0  0  0
  -18.2290  -26.7130   22.1830 C   0  0  0  0  0  2  0  0  0  0  0  0
  -19.1700  -28.8120   23.3160 C   0  0  0  0  0  0  0  0  0  0  0  0
  -18.9510  -30.0660   23.9250 C   0  0  0  0  0  3  0  0  0  0  0  0
  -17.6450  -30.5630   24.1000 C   0  0  0  0  0  3  0  0  0  0  0  0
  -16.5410  -29.8010   23.6790 C   0  0  0  0  0  3  0  0  0  0  0  0
  -16.7460  -28.5490   23.0720 C   0  0  0  0  0  3  0  0  0  0  0  0
  -25.9170  -32.4570   23.8360 C   0  0  0  0  0  3  0  0  0  0  0  0
  -25.6130  -33.8500   24.1910 N   0  0  0  0  0  0  0  0  0  0  0  0
  -25.9200  -34.9140   23.4350 C   0  0  0  0  0  0  0  0  0  0  0  0
  -26.5610  -34.8230   22.3840 O   0  0  0  0  0  0  0  0  0  0  0  0
  -25.0400  -33.9930   25.0080 H   0  0  0  0  0  0  0  0  0  0  0  0
  -24.1660  -36.6970   23.1700 C   0  0  0  0  0  1  0  0  0  0  0  0
  -25.4440  -36.2950   23.9230 C   0  0  0  0  0  3  0  0  0  0  0  0
  -27.6030  -37.1950   24.6700 C   0  0  0  0  0  1  0  0  0  0  0  0
  -26.4650  -37.3550   23.7680 N   0  0  0  0  0  0  0  0  0  0  0  0
  -26.0600  -38.2740   23.9280 H   0  0  0  0  0  0  0  0  0  0  0  0
  -26.4370  -31.6650   25.1000 C   0  0  1  0  0  0  0  0  0  0  0  0
  -25.3480  -31.4150   26.1710 C   0  0  0  0  0  1  0  0  0  0  0  0
  -27.0140  -30.2920   24.6860 C   0  0  0  0  0  1  0  0  0  0  0  0
  -27.5950  -32.4460   25.7650 C   0  0  0  0  0  1  0  0  0  0  0  0
  1  5  1  0
  1  3  1  0
  2  1  2  0
  4  2  1  0
  6 11  1  0
  6  2  1  0
  6  5  1  0
  7  9  1  0
  8 10  2  0
  8 11  1  0
 10 12  1  0
 11  7  2  0
 12 21  1  0
 12  9  2  0
 13 21  1  0
 14 19  1  0
 15 16  1  0
 15 14  1  0
 17 16  1  0
 17 26  1  0
 17 18  1  0
 19 13  1  0
 19 18  1  0
 20 13  2  0
 21 22  1  0
 23 24  2  0
 24 43  1  0
 25 24  1  0
 25 28  1  0
 26 27  1  0
 26 23  1  0
 27 25  2  0
 28 29  1  0
 29 30  2  0
 31 34  1  0
 31 30  1  0
 32 31  2  0
 33 32  1  0
 33 28  2  0
 34 35  1  0
 35 36  1  0
 36 37  2  0
 38 37  1  0
 38 42  1  0
 39 38  2  0
 40 35  2  0
 40 39  1  0
 41 40  1  0
 43 44  1  0
 44 47  1  0
 44 46  1  0
 45 43  2  0
 48 23  1  0
 48 49  1  0
 50 48  1  0
 51  4  1  0
 51 52  1  0
 53 64  2  0
 54 52  1  0
 54 59  1  0
 55 63  1  0
 55 65  1  0
 56 62  1  0
 56 58  1  0
 57 63  1  0
 58 57  1  0
 59 58  2  0
 60 61  1  0
 60 54  2  0
 61 56  2  0
 62 55  1  0
 63 53  1  0
 65 67  2  0
 66 65  1  0
 68 66  1  0
 69 78  2  0
 69 74  1  0
 70 66  1  0
 70 74  1  0
 71 70  1  0
 72 73  1  0
 72 71  1  0
 73 69  1  0
 74 75  2  0
 75 76  1  0
 77 76  2  0
 78 77  1  0
 79 53  1  0
 79 80  1  0
 79 89  1  0
 80 83  1  0
 81 85  1  0
 81 80  1  0
 82 81  2  0
 85 84  1  0
 87 85  1  0
 87 88  1  0
 87 86  1  0
 89 92  1  1
 89 90  1  0
 91 89  1  0
M  ISO  4  13 100  21 100  51 101  52 101
M  END
>  <TORSDO>  (89) 
F 18

>  <SCORE>  (89) 
-14.022

>  <name>  (89) 
88

>  <ligand_id>  (89) 
88

>  <original_smiles>  (89) 
[H]C([H])=C1C(=C([H])C([H])([H])Oc2c([H])c([H])c3c(c2[H])C([H])([H])N(C(=O)C([H])(N([H])C(=O)C([H])(N([H])C([H])([H])[H])C([H])([H])[H])C(C([H])([H])[H])(C([H])([H])[H])C([H])([H])[H])C([H])(C(=O)N([H])C2([H])c4c([H])c([H])c([H])c([H])c4C([H])([H])C([H])([H])C2([H])[H])C3([H])[H])N(c2c([H])c([H])c(N([H])C(=O)N3C([H])([H])C([H])([H])C([H])([H])C([H])(n4nc(-c5c([H])c([H])c(Oc6c([H])c([H])c(F)c([H])c6F)c([H])c5[H])c(C(=O)N([H])[H])c4N([H])[H])C3([H])[H])c([H])c2[H])C1([H])[H]

>  <smiles>  (89) 
[H]C([H])=C1C(=C([H])C([H])([H])Oc2c([H])c([H])c3c(c2[H])C([H])([H])N(C(=O)C([H])(N([H])C(=O)C([H])(N([H])C([H])([H])[H])C([H])([H])[H])C(C([H])([H])[H])(C([H])([H])[H])C([H])([H])[H])C([H])(C(=O)N([H])C2([H])c4c([H])c([H])c([H])c([H])c4C([H])([H])C([H])([H])C2([H])[H])C3([H])[H])N(c2c([H])c([H])c(N([H])C(=O)N3C([H])([H])C([H])([H])C([H])([H])C([H])(n4nc(-c5c([H])c([H])c(Oc6c([H])c([H])c(F)c([H])c6F)c([H])c5[H])c(C(=O)N([H])[H])c4N([H])[H])C3([H])[H])c([H])c2[H])C1([H])[H]

$$$$
89:0:0
     RDKit          3D

 93102  0  0  1  0  0  0  0  0999 V2000
  -29.1570  -22.5770   20.9600 C   0  0  0  0  0  3  0  0  0  0  0  0
  -28.2780  -23.5240   20.4800 C   0  0  0  0  0  0  0  0  0  0  0  0
  -27.4090  -22.7030   19.6440 C   0  0  0  0  0  0  0  0  0  0  0  0
  -26.2470  -23.0970   19.1040 C   0  0  0  0  0  1  0  0  0  0  0  0
  -27.9220  -21.2620   19.5390 C   0  0  0  0  0  3  0  0  0  0  0  0
  -29.0010  -21.2130   20.5160 N   0  0  0  0  0  0  0  0  0  0  0  0
  -32.1290  -19.0720   20.6000 C   0  0  0  0  0  3  0  0  0  0  0  0
  -31.6570  -17.7540   20.6890 C   0  0  0  0  0  3  0  0  0  0  0  0
  -29.3990  -18.6190   20.6030 C   0  0  0  0  0  3  0  0  0  0  0  0
  -31.2710  -20.1830   20.4920 C   0  0  0  0  0  0  0  0  0  0  0  0
  -29.8580  -20.0210   20.5570 C   0  0  0  0  0  0  0  0  0  0  0  0
  -30.2810  -17.4410   20.6430 C   0  0  0  0  0  0  0  0  0  0  0  0
  -31.9510  -21.5230   20.2460 C   0  0  0  0  0  1  0  0  0  0  0  0
  -30.5950  -14.8210   20.3520 C   0  0  0  0  0  0  0  0  0  0  0  0
  -30.3750  -12.5520   19.3040 C   0  0  0  0  0  2  0  0  0  0  0  0
  -29.4310  -12.6190   18.0840 C   0  0  0  0  0  2  0  0  0  0  0  0
  -27.9690  -12.4250   18.5260 C   0  0  0  0  0  2  0  0  0  0  0  0
  -27.6010  -13.3050   19.7510 C   0  0  0  0  0  3  0  0  0  0  0  0
  -28.6650  -13.2270   20.8670 C   0  0  0  0  0  2  0  0  0  0  0  0
  -29.9500  -13.6010   20.2690 N   0  0  0  0  0  0  0  0  0  0  0  0
  -31.7670  -14.8720   19.9670 O   0  0  0  0  0  0  0  0  0  0  0  0
  -29.8760  -15.9860   20.6720 N   0  0  0  0  0  0  0  0  0  0  0  0
  -28.9170  -15.8060   20.9330 H   0  0  0  0  0  0  0  0  0  0  0  0
  -25.2200  -13.8780   20.4970 C   0  0  0  0  0  0  0  0  0  0  0  0
  -24.1610  -13.0970   20.8740 C   0  0  0  0  0  0  0  0  0  0  0  0
  -24.6330  -11.7480   20.8390 C   0  0  0  0  0  0  0  0  0  0  0  0
  -26.2650  -13.0030   20.2520 N   0  0  0  0  0  0  0  0  0  0  0  0
  -25.9220  -11.7170   20.5200 N   0  0  0  0  0  0  0  0  0  0  0  0
  -23.9160  -10.4810   21.0310 C   0  0  0  0  0  0  0  0  0  0  0  0
  -24.3600   -9.5140   21.9600 C   0  0  0  0  0  3  0  0  0  0  0  0
  -23.6420   -8.3140   22.1410 C   0  0  0  0  0  3  0  0  0  0  0  0
  -22.4660   -8.0700   21.3930 C   0  0  0  0  0  0  0  0  0  0  0  0
  -22.0420   -9.0240   20.4520 C   0  0  0  0  0  3  0  0  0  0  0  0
  -22.7610  -10.2170   20.2690 C   0  0  0  0  0  3  0  0  0  0  0  0
  -21.7170   -6.9210   21.4860 O   0  0  0  0  0  0  0  0  0  0  0  0
  -21.6800   -6.1760   22.6370 C   0  0  0  0  0  0  0  0  0  0  0  0
  -21.2580   -6.7250   23.8660 C   0  0  0  0  0  3  0  0  0  0  0  0
  -21.1690   -5.9060   25.0100 C   0  0  0  0  0  3  0  0  0  0  0  0
  -21.4900   -4.5390   24.9250 C   0  0  0  0  0  0  0  0  0  0  0  0
  -21.9060   -3.9880   23.6980 C   0  0  0  0  0  3  0  0  0  0  0  0
  -21.9970   -4.8050   22.5580 C   0  0  0  0  0  0  0  0  0  0  0  0
  -22.3770   -4.2660   21.3750 F   0  0  0  0  0  0  0  0  0  0  0  0
  -21.3980   -3.7520   26.0200 F   0  0  0  0  0  0  0  0  0  0  0  0
  -22.7640  -13.5670   21.1570 C   0  0  0  0  0  0  0  0  0  0  0  0
  -22.0440  -12.8610   22.0230 N   0  0  0  0  0  0  0  0  0  0  0  0
  -22.3200  -14.5930   20.6450 O   0  0  0  0  0  0  0  0  0  0  0  0
  -22.4160  -12.0290   22.4540 H   0  0  0  0  0  0  0  0  0  0  0  0
  -21.1050  -13.1530   22.2530 H   0  0  0  0  0  0  0  0  0  0  0  0
  -25.3810  -15.2480   20.3180 N   0  0  0  0  0  0  0  0  0  0  0  0
  -24.6140  -15.9030   20.4190 H   0  0  0  0  0  0  0  0  0  0  0  0
  -26.2200  -15.6770   19.9510 H   0  0  0  0  0  0  0  0  0  0  0  0
  -27.9940  -25.0250   21.0190 C   0  0  0  0  0  2  0  0  0  0  0  0
  -28.2640  -26.3160   20.2670 O   0  0  0  0  0  0  0  0  0  0  0  0
  -24.6170  -31.8940   23.2450 C   0  0  0  0  0  0  0  0  0  0  0  0
  -27.2190  -27.2700   20.2240 C   0  0  0  0  0  0  0  0  0  0  0  0
  -23.4200  -30.4870   21.6070 C   0  0  0  0  0  3  0  0  0  0  0  0
  -24.8760  -28.9360   20.1830 C   0  0  0  0  0  0  0  0  0  0  0  0
  -25.9650  -30.7930   21.4330 C   0  0  0  0  0  2  0  0  0  0  0  0
  -26.0470  -29.4070   20.7930 C   0  0  0  0  0  0  0  0  0  0  0  0
  -27.2240  -28.5860   20.8070 C   0  0  0  0  0  3  0  0  0  0  0  0
  -26.0430  -26.8970   19.5460 C   0  0  0  0  0  3  0  0  0  0  0  0
  -24.8810  -27.6890   19.5440 C   0  0  0  0  0  3  0  0  0  0  0  0
  -23.6360  -29.8060   20.2310 C   0  0  0  0  0  2  0  0  0  0  0  0
  -24.6860  -31.0770   22.1510 N   0  0  0  0  0  0  0  0  0  0  0  0
  -23.5310  -32.1730   23.7720 O   0  0  0  0  0  0  0  0  0  0  0  0
  -22.7530  -29.4760   22.5710 C   0  0  0  0  0  0  0  0  0  0  0  0
  -21.4260  -29.3040   22.4480 N   0  0  0  0  0  0  0  0  0  0  0  0
  -23.4290  -28.8480   23.3900 O   0  0  0  0  0  0  0  0  0  0  0  0
  -20.9410  -29.8620   21.7590 H   0  0  0  0  0  0  0  0  0  0  0  0
  -18.0470  -28.1080   22.9520 C   0  0  0  0  0  0  0  0  0  0  0  0
  -20.6060  -28.3650   23.2160 C   0  0  0  0  0  3  0  0  0  0  0  0
  -20.7060  -26.9340   22.6360 C   0  0  0  0  0  2  0  0  0  0  0  0
  -19.6010  -26.6110   21.6260 C   0  0  0  0  0  2  0  0  0  0  0  0
  -18.2190  -26.7600   22.2710 C   0  0  0  0  0  2  0  0  0  0  0  0
  -19.1680  -28.8690   23.3790 C   0  0  0  0  0  0  0  0  0  0  0  0
  -18.9520  -30.1320   23.9750 C   0  0  0  0  0  3  0  0  0  0  0  0
  -17.6490  -30.6310   24.1480 C   0  0  0  0  0  3  0  0  0  0  0  0
  -16.5420  -29.8670   23.7380 C   0  0  0  0  0  3  0  0  0  0  0  0
  -16.7430  -28.6070   23.1460 C   0  0  0  0  0  3  0  0  0  0  0  0
  -25.8960  -32.5320   23.8690 C   0  0  0  0  0  3  0  0  0  0  0  0
  -25.5820  -33.9310   24.1920 N   0  0  0  0  0  0  0  0  0  0  0  0
  -25.9120  -34.9840   23.4300 C   0  0  0  0  0  0  0  0  0  0  0  0
  -26.5780  -34.8790   22.3970 O   0  0  0  0  0  0  0  0  0  0  0  0
  -25.0020  -34.0900   25.0010 H   0  0  0  0  0  0  0  0  0  0  0  0
  -24.1820  -36.7710   23.0680 C   0  0  0  0  0  1  0  0  0  0  0  0
  -25.4240  -36.3730   23.8820 C   0  0  0  0  0  3  0  0  0  0  0  0
  -27.5590  -37.2600   24.7090 C   0  0  0  0  0  1  0  0  0  0  0  0
  -26.4540  -37.4270   23.7690 N   0  0  0  0  0  0  0  0  0  0  0  0
  -26.0460  -38.3450   23.9180 H   0  0  0  0  0  0  0  0  0  0  0  0
  -26.4040  -31.7690   25.1540 C   0  0  1  0  0  0  0  0  0  0  0  0
  -25.3040  -31.5370   26.2160 C   0  0  0  0  0  1  0  0  0  0  0  0
  -26.9920  -30.3900   24.7740 C   0  0  0  0  0  1  0  0  0  0  0  0
  -27.5500  -32.5690   25.8160 C   0  0  0  0  0  1  0  0  0  0  0  0
  2  1  2  0
  2 52  1  0
  3  2  1  0
  4  3  1  0
  5  3  2  0
  5  6  1  0
  6 11  1  0
  6  1  1  0
  7  8  1  0
  9 12  1  0
 10 11  1  0
 10  7  2  0
 11  9  2  0
 12 22  1  0
 12  8  2  0
 13 10  1  0
 14 22  1  0
 15 20  1  0
 16 17  1  0
 16 15  1  0
 18 17  1  0
 18 27  1  0
 18 19  1  0
 20 14  1  0
 20 19  1  0
 21 14  2  0
 22 23  1  0
 24 25  2  0
 25 44  1  0
 26 25  1  0
 26 29  1  0
 27 24  1  0
 27 28  1  0
 28 26  2  0
 29 30  1  0
 30 31  2  0
 32 35  1  0
 32 31  1  0
 33 32  2  0
 34 33  1  0
 34 29  2  0
 35 36  1  0
 36 37  1  0
 37 38  2  0
 39 38  1  0
 39 43  1  0
 40 39  2  0
 41 36  2  0
 41 40  1  0
 42 41  1  0
 44 45  1  0
 45 48  1  0
 45 47  1  0
 46 44  2  0
 49 50  1  0
 49 24  1  0
 51 49  1  0
 53 52  1  0
 54 65  2  0
 55 53  1  0
 55 60  1  0
 56 64  1  0
 56 66  1  0
 57 63  1  0
 57 59  1  0
 58 64  1  0
 59 60  2  0
 59 58  1  0
 61 55  2  0
 62 61  1  0
 62 57  2  0
 63 56  1  0
 64 54  1  0
 66 68  2  0
 67 66  1  0
 69 67  1  0
 70 79  2  0
 70 75  1  0
 71 67  1  0
 71 75  1  0
 72 71  1  0
 73 74  1  0
 73 72  1  0
 74 70  1  0
 75 76  2  0
 76 77  1  0
 78 77  2  0
 79 78  1  0
 80 54  1  0
 80 81  1  0
 80 90  1  0
 81 84  1  0
 82 86  1  0
 82 81  1  0
 83 82  2  0
 86 85  1  0
 88 86  1  0
 88 89  1  0
 88 87  1  0
 90 93  1  1
 90 91  1  0
 92 90  1  0
M  ISO  4  14 100  22 100  52 101  53 101
M  END
>  <TORSDO>  (90) 
F 18

>  <SCORE>  (90) 
-15.070

>  <name>  (90) 
89

>  <ligand_id>  (90) 
89

>  <original_smiles>  (90) 
[H]C([H])=C1C(C([H])([H])Oc2c([H])c([H])c3c(c2[H])C([H])([H])N(C(=O)C([H])(N([H])C(=O)C([H])(N([H])C([H])([H])[H])C([H])([H])[H])C(C([H])([H])[H])(C([H])([H])[H])C([H])([H])[H])C([H])(C(=O)N([H])C2([H])c4c([H])c([H])c([H])c([H])c4C([H])([H])C([H])([H])C2([H])[H])C3([H])[H])=C([H])N(c2c([H])c(N([H])C(=O)N3C([H])([H])C([H])([H])C([H])([H])C([H])(n4nc(-c5c([H])c([H])c(Oc6c([H])c([H])c(F)c([H])c6F)c([H])c5[H])c(C(=O)N([H])[H])c4N([H])[H])C3([H])[H])c([H])c([H])c2C([H])([H])[H])C1([H])[H]

>  <smiles>  (90) 
[H]C([H])=C1C(C([H])([H])Oc2c([H])c([H])c3c(c2[H])C([H])([H])N(C(=O)C([H])(N([H])C(=O)C([H])(N([H])C([H])([H])[H])C([H])([H])[H])C(C([H])([H])[H])(C([H])([H])[H])C([H])([H])[H])C([H])(C(=O)N([H])C2([H])c4c([H])c([H])c([H])c([H])c4C([H])([H])C([H])([H])C2([H])[H])C3([H])[H])=C([H])N(c2c([H])c(N([H])C(=O)N3C([H])([H])C([H])([H])C([H])([H])C([H])(n4nc(-c5c([H])c([H])c(Oc6c([H])c([H])c(F)c([H])c6F)c([H])c5[H])c(C(=O)N([H])[H])c4N([H])[H])C3([H])[H])c([H])c([H])c2C([H])([H])[H])C1([H])[H]

$$$$
90:0:0
     RDKit          3D

 94102  0  0  1  0  0  0  0  0999 V2000
  -28.9430  -20.5400   19.6850 C   0  0  0  0  0  0  0  0  0  0  0  0
  -28.5220  -22.9530   19.4870 C   0  0  0  0  0  0  0  0  0  0  0  0
  -29.0100  -21.8370   20.1070 N   0  0  0  0  0  0  0  0  0  0  0  0
  -28.2570  -20.1650   18.7270 O   0  0  0  0  0  0  0  0  0  0  0  0
  -27.9970  -22.9130   18.3670 O   0  0  0  0  0  0  0  0  0  0  0  0
  -29.4920  -21.9960   20.9760 H   0  0  0  0  0  0  0  0  0  0  0  0
  -31.6840  -18.8010   21.7600 C   0  0  0  0  0  3  0  0  0  0  0  0
  -30.8990  -19.8090   21.1630 C   0  0  0  0  0  3  0  0  0  0  0  0
  -31.3390  -17.4410   21.6290 C   0  0  0  0  0  3  0  0  0  0  0  0
  -29.3850  -18.0890   20.3330 C   0  0  0  0  0  3  0  0  0  0  0  0
  -29.7320  -19.4740   20.4380 C   0  0  0  0  0  0  0  0  0  0  0  0
  -30.1900  -17.0590   20.9020 C   0  0  0  0  0  0  0  0  0  0  0  0
  -30.5850  -14.6200   20.3950 C   0  0  0  0  0  0  0  0  0  0  0  0
  -30.3110  -12.4510   19.2360 C   0  0  0  0  0  2  0  0  0  0  0  0
  -29.3360  -12.6390   18.0550 C   0  0  0  0  0  2  0  0  0  0  0  0
  -27.8760  -12.4650   18.5200 C   0  0  0  0  0  2  0  0  0  0  0  0
  -27.5510  -13.2840   19.7970 C   0  0  0  0  0  3  0  0  0  0  0  0
  -28.6380  -13.0870   20.8770 C   0  0  0  0  0  2  0  0  0  0  0  0
  -29.9350  -13.4270   20.2740 N   0  0  0  0  0  0  0  0  0  0  0  0
  -31.7360  -14.7830   19.9780 O   0  0  0  0  0  0  0  0  0  0  0  0
  -29.8170  -15.6700   20.7870 N   0  0  0  0  0  0  0  0  0  0  0  0
  -28.8430  -15.4550   20.9270 H   0  0  0  0  0  0  0  0  0  0  0  0
  -25.1660  -13.8470   20.5750 C   0  0  0  0  0  0  0  0  0  0  0  0
  -24.1170  -13.0540   20.9580 C   0  0  0  0  0  0  0  0  0  0  0  0
  -24.5950  -11.7090   20.8950 C   0  0  0  0  0  0  0  0  0  0  0  0
  -26.2150  -12.9820   20.3050 N   0  0  0  0  0  0  0  0  0  0  0  0
  -25.8770  -11.6920   20.5570 N   0  0  0  0  0  0  0  0  0  0  0  0
  -23.8890  -10.4350   21.0810 C   0  0  0  0  0  0  0  0  0  0  0  0
  -24.3450   -9.4670   22.0010 C   0  0  0  0  0  3  0  0  0  0  0  0
  -23.6390   -8.2560   22.1750 C   0  0  0  0  0  3  0  0  0  0  0  0
  -22.4630   -8.0070   21.4290 C   0  0  0  0  0  0  0  0  0  0  0  0
  -22.0260   -8.9650   20.4970 C   0  0  0  0  0  3  0  0  0  0  0  0
  -22.7330  -10.1670   20.3210 C   0  0  0  0  0  3  0  0  0  0  0  0
  -21.7270   -6.8510   21.5130 O   0  0  0  0  0  0  0  0  0  0  0  0
  -21.6930   -6.1000   22.6610 C   0  0  0  0  0  0  0  0  0  0  0  0
  -21.2140   -6.6270   23.8810 C   0  0  0  0  0  3  0  0  0  0  0  0
  -21.1320   -5.8000   25.0190 C   0  0  0  0  0  3  0  0  0  0  0  0
  -21.5180   -4.4490   24.9400 C   0  0  0  0  0  0  0  0  0  0  0  0
  -21.9910   -3.9220   23.7250 C   0  0  0  0  0  3  0  0  0  0  0  0
  -22.0750   -4.7450   22.5880 C   0  0  0  0  0  0  0  0  0  0  0  0
  -22.5110   -4.2280   21.4150 F   0  0  0  0  0  0  0  0  0  0  0  0
  -21.4320   -3.6540   26.0310 F   0  0  0  0  0  0  0  0  0  0  0  0
  -22.7190  -13.5090   21.2680 C   0  0  0  0  0  0  0  0  0  0  0  0
  -22.0160  -12.7830   22.1300 N   0  0  0  0  0  0  0  0  0  0  0  0
  -22.2610  -14.5430   20.7820 O   0  0  0  0  0  0  0  0  0  0  0  0
  -22.4000  -11.9480   22.5450 H   0  0  0  0  0  0  0  0  0  0  0  0
  -21.0800  -13.0700   22.3790 H   0  0  0  0  0  0  0  0  0  0  0  0
  -25.3070  -15.2220   20.4140 N   0  0  0  0  0  0  0  0  0  0  0  0
  -24.5290  -15.8600   20.5420 H   0  0  0  0  0  0  0  0  0  0  0  0
  -26.1310  -15.6770   20.0440 H   0  0  0  0  0  0  0  0  0  0  0  0
  -28.2860  -25.3840   19.6220 C   0  0  0  0  0  3  0  0  0  0  0  0
  -28.6550  -24.2240   20.2420 C   0  0  0  0  0  0  0  0  0  0  0  0
  -29.1670  -24.2040   21.6740 C   0  0  0  0  0  1  0  0  0  0  0  0
  -28.2940  -26.6600   20.1790 O   0  0  0  0  0  0  0  0  0  0  0  0
  -24.5220  -31.9370   23.2260 C   0  0  0  0  0  0  0  0  0  0  0  0
  -27.1380  -27.4390   20.1400 C   0  0  0  0  0  0  0  0  0  0  0  0
  -23.3100  -30.5370   21.5910 C   0  0  0  0  0  3  0  0  0  0  0  0
  -24.7540  -28.9960   20.1590 C   0  0  0  0  0  0  0  0  0  0  0  0
  -25.8420  -30.8740   21.3900 C   0  0  0  0  0  2  0  0  0  0  0  0
  -25.9210  -29.5010   20.7450 C   0  0  0  0  0  0  0  0  0  0  0  0
  -27.1140  -28.7310   20.7320 C   0  0  0  0  0  3  0  0  0  0  0  0
  -25.9390  -26.9610   19.5550 C   0  0  0  0  0  3  0  0  0  0  0  0
  -24.7600  -27.7260   19.5620 C   0  0  0  0  0  3  0  0  0  0  0  0
  -23.5140  -29.8610   20.2100 C   0  0  0  0  0  2  0  0  0  0  0  0
  -24.5760  -31.1320   22.1260 N   0  0  0  0  0  0  0  0  0  0  0  0
  -23.4420  -32.2120   23.7660 O   0  0  0  0  0  0  0  0  0  0  0  0
  -22.6570  -29.5170   22.5540 C   0  0  0  0  0  0  0  0  0  0  0  0
  -21.3330  -29.3310   22.4260 N   0  0  0  0  0  0  0  0  0  0  0  0
  -23.3400  -28.8970   23.3720 O   0  0  0  0  0  0  0  0  0  0  0  0
  -20.8420  -29.8840   21.7360 H   0  0  0  0  0  0  0  0  0  0  0  0
  -17.9560  -28.1510   22.9460 C   0  0  0  0  0  0  0  0  0  0  0  0
  -20.5170  -28.3940   23.1980 C   0  0  0  0  0  3  0  0  0  0  0  0
  -20.6070  -26.9640   22.6150 C   0  0  0  0  0  2  0  0  0  0  0  0
  -19.4960  -26.6520   21.6080 C   0  0  0  0  0  2  0  0  0  0  0  0
  -18.1200  -26.8020   22.2640 C   0  0  0  0  0  2  0  0  0  0  0  0
  -19.0820  -28.9050   23.3700 C   0  0  0  0  0  0  0  0  0  0  0  0
  -18.8750  -30.1670   23.9670 C   0  0  0  0  0  3  0  0  0  0  0  0
  -17.5740  -30.6750   24.1450 C   0  0  0  0  0  3  0  0  0  0  0  0
  -16.4630  -29.9180   23.7380 C   0  0  0  0  0  3  0  0  0  0  0  0
  -16.6540  -28.6570   23.1440 C   0  0  0  0  0  3  0  0  0  0  0  0
  -25.8100  -32.5670   23.8400 C   0  0  0  0  0  3  0  0  0  0  0  0
  -25.5050  -33.9680   24.1630 N   0  0  0  0  0  0  0  0  0  0  0  0
  -25.8470  -35.0170   23.4020 C   0  0  0  0  0  0  0  0  0  0  0  0
  -26.5230  -34.9050   22.3750 O   0  0  0  0  0  0  0  0  0  0  0  0
  -24.9050  -34.1290   24.9600 H   0  0  0  0  0  0  0  0  0  0  0  0
  -24.1490  -36.8300   23.0060 C   0  0  0  0  0  1  0  0  0  0  0  0
  -25.3630  -36.4080   23.8500 C   0  0  0  0  0  3  0  0  0  0  0  0
  -27.4760  -37.2730   24.7510 C   0  0  0  0  0  1  0  0  0  0  0  0
  -26.4110  -37.4500   23.7700 N   0  0  0  0  0  0  0  0  0  0  0  0
  -26.0090  -38.3750   23.8990 H   0  0  0  0  0  0  0  0  0  0  0  0
  -26.3270  -31.8020   25.1190 C   0  0  1  0  0  0  0  0  0  0  0  0
  -25.2350  -31.5640   26.1870 C   0  0  0  0  0  1  0  0  0  0  0  0
  -26.9150  -30.4240   24.7300 C   0  0  0  0  0  1  0  0  0  0  0  0
  -27.4750  -32.6000   25.7790 C   0  0  0  0  0  1  0  0  0  0  0  0
  1  3  1  0
  1 11  1  0
  2  3  1  0
  2 52  1  0
  3  6  1  0
  4  1  2  0
  5  2  2  0
  8  7  2  0
  9  7  1  0
 10 11  2  0
 10 12  1  0
 11  8  1  0
 12  9  2  0
 13 21  1  0
 14 19  1  0
 15 16  1  0
 15 14  1  0
 17 16  1  0
 17 26  1  0
 17 18  1  0
 19 13  1  0
 19 18  1  0
 20 13  2  0
 21 12  1  0
 21 22  1  0
 23 24  2  0
 24 43  1  0
 25 24  1  0
 25 28  1  0
 26 27  1  0
 26 23  1  0
 27 25  2  0
 28 29  1  0
 29 30  2  0
 31 34  1  0
 31 30  1  0
 32 31  2  0
 33 32  1  0
 33 28  2  0
 34 35  1  0
 35 36  1  0
 36 37  2  0
 38 37  1  0
 38 42  1  0
 39 38  2  0
 40 35  2  0
 40 39  1  0
 41 40  1  0
 43 44  1  0
 44 47  1  0
 44 46  1  0
 45 43  2  0
 48 49  1  0
 48 23  1  0
 50 48  1  0
 51 54  1  0
 51 52  2  0
 52 53  1  0
 55 66  2  0
 56 54  1  0
 56 61  1  0
 57 65  1  0
 57 67  1  0
 58 64  1  0
 58 60  1  0
 59 65  1  0
 60 59  1  0
 61 60  2  0
 62 63  1  0
 62 56  2  0
 63 58  2  0
 64 57  1  0
 65 55  1  0
 67 69  2  0
 68 67  1  0
 70 68  1  0
 71 80  2  0
 71 76  1  0
 72 68  1  0
 72 76  1  0
 73 72  1  0
 74 75  1  0
 74 73  1  0
 75 71  1  0
 76 77  2  0
 77 78  1  0
 79 78  2  0
 80 79  1  0
 81 55  1  0
 81 82  1  0
 81 91  1  0
 82 85  1  0
 83 87  1  0
 83 82  1  0
 84 83  2  0
 87 86  1  0
 89 87  1  0
 89 90  1  0
 89 88  1  0
 91 94  1  1
 91 92  1  0
 93 91  1  0
M  ISO  4  13 100  21 100  51 101  54 101
M  END
>  <TORSDO>  (91) 
F 18

>  <SCORE>  (91) 
-15.013

>  <name>  (91) 
90

>  <ligand_id>  (91) 
90

>  <original_smiles>  (91) 
[H]C(Oc1c([H])c([H])c2c(c1[H])C([H])([H])N(C(=O)C([H])(N([H])C(=O)C([H])(N([H])C([H])([H])[H])C([H])([H])[H])C(C([H])([H])[H])(C([H])([H])[H])C([H])([H])[H])C([H])(C(=O)N([H])C1([H])c3c([H])c([H])c([H])c([H])c3C([H])([H])C([H])([H])C1([H])[H])C2([H])[H])=C(C(=O)N([H])C(=O)c1c([H])c([H])c([H])c(N([H])C(=O)N2C([H])([H])C([H])([H])C([H])([H])C([H])(n3nc(-c4c([H])c([H])c(Oc5c([H])c([H])c(F)c([H])c5F)c([H])c4[H])c(C(=O)N([H])[H])c3N([H])[H])C2([H])[H])c1[H])C([H])([H])[H]

>  <smiles>  (91) 
[H]C(Oc1c([H])c([H])c2c(c1[H])C([H])([H])N(C(=O)C([H])(N([H])C(=O)C([H])(N([H])C([H])([H])[H])C([H])([H])[H])C(C([H])([H])[H])(C([H])([H])[H])C([H])([H])[H])C([H])(C(=O)N([H])C1([H])c3c([H])c([H])c([H])c([H])c3C([H])([H])C([H])([H])C1([H])[H])C2([H])[H])=C(C(=O)N([H])C(=O)c1c([H])c([H])c([H])c(N([H])C(=O)N2C([H])([H])C([H])([H])C([H])([H])C([H])(n3nc(-c4c([H])c([H])c(Oc5c([H])c([H])c(F)c([H])c5F)c([H])c4[H])c(C(=O)N([H])[H])c3N([H])[H])C2([H])[H])c1[H])C([H])([H])[H]

$$$$
91:0:0
     RDKit          3D

 95103  0  0  1  0  0  0  0  0999 V2000
  -29.7420  -23.0650   20.7120 C   0  0  0  0  0  3  0  0  0  0  0  0
  -29.1440  -22.1700   19.9880 N   0  0  0  0  0  2  0  0  0  0  0  0
  -29.8920  -21.1350   19.4210 C   0  0  0  0  0  0  0  0  0  0  0  0
  -30.6860  -21.3290   18.5000 O   0  0  0  0  0  0  0  0  0  0  0  0
  -28.6450  -18.9570   19.9640 C   0  0  0  0  0  3  0  0  0  0  0  0
  -28.6700  -17.5810   20.3080 C   0  0  0  0  0  3  0  0  0  0  0  0
  -31.0280  -19.0810   20.3860 C   0  0  0  0  0  3  0  0  0  0  0  0
  -29.8330  -19.7230   19.9770 C   0  0  0  0  0  0  0  0  0  0  0  0
  -29.8780  -16.9240   20.6520 C   0  0  0  0  0  0  0  0  0  0  0  0
  -31.0580  -17.7060   20.7250 C   0  0  0  0  0  0  0  0  0  0  0  0
  -32.2250  -17.1570   21.1340 F   0  0  0  0  0  0  0  0  0  0  0  0
  -30.6060  -14.5310   20.4450 C   0  0  0  0  0  0  0  0  0  0  0  0
  -30.3800  -12.3340   19.3320 C   0  0  0  0  0  2  0  0  0  0  0  0
  -29.4300  -12.5080   18.1280 C   0  0  0  0  0  2  0  0  0  0  0  0
  -27.9580  -12.3440   18.5590 C   0  0  0  0  0  2  0  0  0  0  0  0
  -27.6080  -13.1830   19.8170 C   0  0  0  0  0  3  0  0  0  0  0  0
  -28.6700  -12.9820   20.9220 C   0  0  0  0  0  2  0  0  0  0  0  0
  -29.9880  -13.3190   20.3550 N   0  0  0  0  0  0  0  0  0  0  0  0
  -31.7270  -14.7320   19.9700 O   0  0  0  0  0  0  0  0  0  0  0  0
  -29.8380  -15.5200   20.9620 N   0  0  0  0  0  0  0  0  0  0  0  0
  -28.9540  -15.1850   21.3070 H   0  0  0  0  0  0  0  0  0  0  0  0
  -25.2090  -13.7590   20.5550 C   0  0  0  0  0  0  0  0  0  0  0  0
  -24.1530  -12.9720   20.9300 C   0  0  0  0  0  0  0  0  0  0  0  0
  -24.6280  -11.6260   20.8830 C   0  0  0  0  0  0  0  0  0  0  0  0
  -26.2610  -12.8910   20.3040 N   0  0  0  0  0  0  0  0  0  0  0  0
  -25.9150  -11.6030   20.5580 N   0  0  0  0  0  0  0  0  0  0  0  0
  -23.9170  -10.3540   21.0700 C   0  0  0  0  0  0  0  0  0  0  0  0
  -24.3520   -9.3960   22.0110 C   0  0  0  0  0  3  0  0  0  0  0  0
  -23.6420   -8.1880   22.1830 C   0  0  0  0  0  3  0  0  0  0  0  0
  -22.4820   -7.9300   21.4140 C   0  0  0  0  0  0  0  0  0  0  0  0
  -22.0660   -8.8780   20.4620 C   0  0  0  0  0  3  0  0  0  0  0  0
  -22.7770  -10.0770   20.2880 C   0  0  0  0  0  3  0  0  0  0  0  0
  -21.7440   -6.7750   21.4950 O   0  0  0  0  0  0  0  0  0  0  0  0
  -21.6830   -6.0390   22.6520 C   0  0  0  0  0  0  0  0  0  0  0  0
  -21.2000   -6.5880   23.8610 C   0  0  0  0  0  3  0  0  0  0  0  0
  -21.0900   -5.7770   25.0080 C   0  0  0  0  0  3  0  0  0  0  0  0
  -21.4520   -4.4190   24.9490 C   0  0  0  0  0  0  0  0  0  0  0  0
  -21.9270   -3.8690   23.7450 C   0  0  0  0  0  3  0  0  0  0  0  0
  -22.0400   -4.6760   22.6000 C   0  0  0  0  0  0  0  0  0  0  0  0
  -22.4790   -4.1370   21.4370 F   0  0  0  0  0  0  0  0  0  0  0  0
  -21.3370   -3.6380   26.0480 F   0  0  0  0  0  0  0  0  0  0  0  0
  -22.7530  -13.4320   21.2200 C   0  0  0  0  0  0  0  0  0  0  0  0
  -22.0360  -12.7190   22.0810 N   0  0  0  0  0  0  0  0  0  0  0  0
  -22.3010  -14.4590   20.7150 O   0  0  0  0  0  0  0  0  0  0  0  0
  -22.4130  -11.8880   22.5130 H   0  0  0  0  0  0  0  0  0  0  0  0
  -21.0970  -13.0090   22.3160 H   0  0  0  0  0  0  0  0  0  0  0  0
  -25.3580  -15.1320   20.3860 N   0  0  0  0  0  0  0  0  0  0  0  0
  -24.5840  -15.7750   20.5130 H   0  0  0  0  0  0  0  0  0  0  0  0
  -26.1800  -15.5720   19.9940 H   0  0  0  0  0  0  0  0  0  0  0  0
  -29.1910  -24.4810   21.0350 C   0  0  0  0  0  0  0  0  0  0  0  0
  -29.5150  -25.0790   22.0700 O   0  0  0  0  0  0  0  0  0  0  0  0
  -28.2450  -25.2060   20.0420 C   0  0  0  0  0  2  0  0  0  0  0  0
  -28.3150  -26.6570   20.1970 O   0  0  0  0  0  0  0  0  0  0  0  0
  -24.5740  -31.9460   23.2050 C   0  0  0  0  0  0  0  0  0  0  0  0
  -27.1520  -27.4160   20.1520 C   0  0  0  0  0  0  0  0  0  0  0  0
  -23.3480  -30.5500   21.5740 C   0  0  0  0  0  3  0  0  0  0  0  0
  -24.7800  -28.9830   20.1520 C   0  0  0  0  0  0  0  0  0  0  0  0
  -25.8800  -30.8680   21.3700 C   0  0  0  0  0  2  0  0  0  0  0  0
  -25.9480  -29.4890   20.7350 C   0  0  0  0  0  0  0  0  0  0  0  0
  -27.1360  -28.7150   20.7250 C   0  0  0  0  0  3  0  0  0  0  0  0
  -25.9650  -26.9420   19.5480 C   0  0  0  0  0  3  0  0  0  0  0  0
  -24.7870  -27.7120   19.5520 C   0  0  0  0  0  3  0  0  0  0  0  0
  -23.5460  -29.8590   20.1980 C   0  0  0  0  0  2  0  0  0  0  0  0
  -24.6200  -31.1370   22.1070 N   0  0  0  0  0  0  0  0  0  0  0  0
  -23.4960  -32.2350   23.7450 O   0  0  0  0  0  0  0  0  0  0  0  0
  -22.6850  -29.5430   22.5430 C   0  0  0  0  0  0  0  0  0  0  0  0
  -21.3590  -29.3700   22.4120 N   0  0  0  0  0  0  0  0  0  0  0  0
  -23.3610  -28.9210   23.3650 O   0  0  0  0  0  0  0  0  0  0  0  0
  -20.8760  -29.9230   21.7180 H   0  0  0  0  0  0  0  0  0  0  0  0
  -17.9750  -28.1990   22.9100 C   0  0  0  0  0  0  0  0  0  0  0  0
  -20.5330  -28.4430   23.1880 C   0  0  0  0  0  3  0  0  0  0  0  0
  -20.6290  -27.0070   22.6230 C   0  0  0  0  0  2  0  0  0  0  0  0
  -19.5290  -26.6820   21.6090 C   0  0  0  0  0  2  0  0  0  0  0  0
  -18.1460  -26.8420   22.2470 C   0  0  0  0  0  2  0  0  0  0  0  0
  -19.0970  -28.9570   23.3370 C   0  0  0  0  0  0  0  0  0  0  0  0
  -18.8840  -30.2260   23.9180 C   0  0  0  0  0  3  0  0  0  0  0  0
  -17.5830  -30.7370   24.0730 C   0  0  0  0  0  3  0  0  0  0  0  0
  -16.4750  -29.9760   23.6630 C   0  0  0  0  0  3  0  0  0  0  0  0
  -16.6720  -28.7080   23.0860 C   0  0  0  0  0  3  0  0  0  0  0  0
  -25.8670  -32.5670   23.8180 C   0  0  0  0  0  3  0  0  0  0  0  0
  -25.5720  -33.9670   24.1510 N   0  0  0  0  0  0  0  0  0  0  0  0
  -25.9120  -35.0180   23.3920 C   0  0  0  0  0  0  0  0  0  0  0  0
  -26.5780  -34.9080   22.3590 O   0  0  0  0  0  0  0  0  0  0  0  0
  -24.9790  -34.1270   24.9530 H   0  0  0  0  0  0  0  0  0  0  0  0
  -24.2050  -36.8290   23.0400 C   0  0  0  0  0  1  0  0  0  0  0  0
  -25.4400  -36.4100   23.8530 C   0  0  0  0  0  3  0  0  0  0  0  0
  -27.5810  -37.2680   24.6940 C   0  0  0  0  0  1  0  0  0  0  0  0
  -26.4850  -37.4510   23.7460 N   0  0  0  0  0  0  0  0  0  0  0  0
  -26.0890  -38.3750   23.8940 H   0  0  0  0  0  0  0  0  0  0  0  0
  -26.3850  -31.7910   25.0900 C   0  0  1  0  0  0  0  0  0  0  0  0
  -25.2940  -31.5610   26.1630 C   0  0  0  0  0  1  0  0  0  0  0  0
  -26.9570  -30.4100   24.6930 C   0  0  0  0  0  1  0  0  0  0  0  0
  -27.5440  -32.5770   25.7470 C   0  0  0  0  0  1  0  0  0  0  0  0
  -32.3110  -23.3870   20.5930 C   0  0  0  0  0  1  0  0  0  0  0  0
  -31.1190  -22.8170   21.3810 C   0  0  0  0  0  2  0  0  0  0  0  0
  1 50  1  0
  1 95  1  0
  2  1  1  0
  3  8  1  0
  3  2  1  0
  4  3  2  0
  5  8  2  0
  5  6  1  0
  6  9  2  0
  7 10  2  0
  8  7  1  0
  9 10  1  0
  9 20  1  0
 10 11  1  0
 12 20  1  0
 13 18  1  0
 14 15  1  0
 14 13  1  0
 16 15  1  0
 16 25  1  0
 16 17  1  0
 18 12  1  0
 18 17  1  0
 19 12  2  0
 20 21  1  0
 22 23  2  0
 23 42  1  0
 24 23  1  0
 24 27  1  0
 25 22  1  0
 25 26  1  0
 26 24  2  0
 27 28  1  0
 28 29  2  0
 30 33  1  0
 30 29  1  0
 31 30  2  0
 32 31  1  0
 32 27  2  0
 33 34  1  0
 34 35  1  0
 35 36  2  0
 37 36  1  0
 37 41  1  0
 38 37  2  0
 39 34  2  0
 39 38  1  0
 40 39  1  0
 42 43  1  0
 43 46  1  0
 43 45  1  0
 44 42  2  0
 47 48  1  0
 47 22  1  0
 49 47  1  0
 50 51  2  0
 52 53  1  0
 52 50  1  0
 54 65  2  0
 55 53  1  0
 55 60  1  0
 56 64  1  0
 56 66  1  0
 57 63  1  0
 57 59  1  0
 58 64  1  0
 59 58  1  0
 60 59  2  0
 61 62  1  0
 61 55  2  0
 62 57  2  0
 63 56  1  0
 64 54  1  0
 66 68  2  0
 67 66  1  0
 69 67  1  0
 70 79  2  0
 70 75  1  0
 71 67  1  0
 71 75  1  0
 72 71  1  0
 73 74  1  0
 73 72  1  0
 74 70  1  0
 75 76  2  0
 76 77  1  0
 78 77  2  0
 79 78  1  0
 80 54  1  0
 80 81  1  0
 80 90  1  0
 81 84  1  0
 82 86  1  0
 82 81  1  0
 83 82  2  0
 86 85  1  0
 88 86  1  0
 88 89  1  0
 88 87  1  0
 90 93  1  1
 90 91  1  0
 92 90  1  0
 94 95  1  0
M  ISO  4  12 100  20 100  52 101  53 101
M  END
>  <TORSDO>  (92) 
F 21

>  <SCORE>  (92) 
-13.579

>  <name>  (92) 
91

>  <ligand_id>  (92) 
91

>  <original_smiles>  (92) 
[H]c1c([H])c([H])c2c(c1[H])C([H])([H])C([H])([H])C([H])([H])C2([H])N([H])C(=O)C1([H])N(C(=O)C([H])(N([H])C(=O)C([H])(N([H])C([H])([H])[H])C([H])([H])[H])C(C([H])([H])[H])(C([H])([H])[H])C([H])([H])[H])C([H])([H])c2c([H])c(OC([H])([H])C(=O)C(=NC(=O)c3c([H])c([H])c(N([H])C(=O)N4C([H])([H])C([H])([H])C([H])([H])C([H])(n5nc(-c6c([H])c([H])c(Oc7c([H])c([H])c(F)c([H])c7F)c([H])c6[H])c(C(=O)N([H])[H])c5N([H])[H])C4([H])[H])c(F)c3[H])C([H])([H])C([H])([H])[H])c([H])c([H])c2C1([H])[H]

>  <smiles>  (92) 
[H]c1c([H])c([H])c2c(c1[H])C([H])([H])C([H])([H])C([H])([H])C2([H])N([H])C(=O)C1([H])N(C(=O)C([H])(N([H])C(=O)C([H])(N([H])C([H])([H])[H])C([H])([H])[H])C(C([H])([H])[H])(C([H])([H])[H])C([H])([H])[H])C([H])([H])c2c([H])c(OC([H])([H])C(=O)C(=NC(=O)c3c([H])c([H])c(N([H])C(=O)N4C([H])([H])C([H])([H])C([H])([H])C([H])(n5nc(-c6c([H])c([H])c(Oc7c([H])c([H])c(F)c([H])c7F)c([H])c6[H])c(C(=O)N([H])[H])c5N([H])[H])C4([H])[H])c(F)c3[H])C([H])([H])C([H])([H])[H])c([H])c([H])c2C1([H])[H]

$$$$
92:0:0
     RDKit          3D

 94103  0  0  1  0  0  0  0  0999 V2000
  -29.2840  -23.7700   18.6430 C   0  0  0  0  0  3  0  0  0  0  0  0
  -28.9370  -23.9540   19.9220 C   0  0  0  0  0  0  0  0  0  0  0  0
  -29.7430  -22.3950   18.4300 C   0  0  0  0  0  0  0  0  0  0  0  0
  -29.2060  -22.6410   20.6690 C   0  0  0  0  0  2  0  0  0  0  0  0
  -29.7020  -21.7110   19.6120 N   0  0  0  0  0  0  0  0  0  0  0  0
  -30.0840  -21.9280   17.3380 O   0  0  0  0  0  0  0  0  0  0  0  0
  -30.9380  -19.4820   19.2290 C   0  0  0  0  0  3  0  0  0  0  0  0
  -31.0140  -18.0510   19.3630 C   0  0  0  0  0  3  0  0  0  0  0  0
  -28.9080  -19.4970   20.4920 C   0  0  0  0  0  3  0  0  0  0  0  0
  -28.9460  -18.0780   20.5820 C   0  0  0  0  0  0  0  0  0  0  0  0
  -29.8700  -20.2520   19.7840 C   0  0  0  0  0  0  0  0  0  0  0  0
  -30.0130  -17.2950   20.0410 C   0  0  0  0  0  0  0  0  0  0  0  0
  -27.7380  -17.4390   21.2390 C   0  0  0  0  0  1  0  0  0  0  0  0
  -30.7290  -14.7720   19.7130 C   0  0  0  0  0  0  0  0  0  0  0  0
  -30.4410  -12.5580   18.6220 C   0  0  0  0  0  2  0  0  0  0  0  0
  -29.3790  -12.7100   17.5160 C   0  0  0  0  0  2  0  0  0  0  0  0
  -27.9650  -12.4900   18.0930 C   0  0  0  0  0  2  0  0  0  0  0  0
  -27.7150  -13.3010   19.3900 C   0  0  0  0  0  3  0  0  0  0  0  0
  -28.8900  -13.1560   20.3790 C   0  0  0  0  0  2  0  0  0  0  0  0
  -30.1280  -13.5390   19.6790 N   0  0  0  0  0  0  0  0  0  0  0  0
  -31.8630  -14.9300   19.2420 O   0  0  0  0  0  0  0  0  0  0  0  0
  -29.9440  -15.8160   20.1300 N   0  0  0  0  0  0  0  0  0  0  0  0
  -29.0850  -15.4870   20.5430 H   0  0  0  0  0  0  0  0  0  0  0  0
  -25.4410  -13.8400   20.4620 C   0  0  0  0  0  0  0  0  0  0  0  0
  -24.4120  -13.0450   20.8850 C   0  0  0  0  0  0  0  0  0  0  0  0
  -24.8310  -11.6980   20.6470 C   0  0  0  0  0  0  0  0  0  0  0  0
  -26.4280  -12.9790   20.0030 N   0  0  0  0  0  0  0  0  0  0  0  0
  -26.0700  -11.6810   20.1710 N   0  0  0  0  0  0  0  0  0  0  0  0
  -24.0990  -10.4330   20.7890 C   0  0  0  0  0  0  0  0  0  0  0  0
  -24.5430   -9.4160   21.6630 C   0  0  0  0  0  3  0  0  0  0  0  0
  -23.8150   -8.2170   21.7950 C   0  0  0  0  0  3  0  0  0  0  0  0
  -22.6260   -8.0200   21.0550 C   0  0  0  0  0  0  0  0  0  0  0  0
  -22.1990   -9.0280   20.1710 C   0  0  0  0  0  3  0  0  0  0  0  0
  -22.9290  -10.2180   20.0350 C   0  0  0  0  0  3  0  0  0  0  0  0
  -21.8740   -6.8730   21.0890 O   0  0  0  0  0  0  0  0  0  0  0  0
  -21.7640   -6.1270   22.2320 C   0  0  0  0  0  0  0  0  0  0  0  0
  -21.2410   -6.6630   23.4280 C   0  0  0  0  0  3  0  0  0  0  0  0
  -21.0690   -5.8370   24.5570 C   0  0  0  0  0  3  0  0  0  0  0  0
  -21.4210   -4.4750   24.4920 C   0  0  0  0  0  0  0  0  0  0  0  0
  -21.9410   -3.9400   23.3020 C   0  0  0  0  0  3  0  0  0  0  0  0
  -22.1070   -4.7640   22.1760 C   0  0  0  0  0  0  0  0  0  0  0  0
  -22.5850   -4.2300   21.0240 F   0  0  0  0  0  0  0  0  0  0  0  0
  -21.2540   -3.6800   25.5780 F   0  0  0  0  0  0  0  0  0  0  0  0
  -23.0680  -13.5080   21.3730 C   0  0  0  0  0  0  0  0  0  0  0  0
  -22.4280  -12.7530   22.2570 N   0  0  0  0  0  0  0  0  0  0  0  0
  -22.5930  -14.5810   21.0040 O   0  0  0  0  0  0  0  0  0  0  0  0
  -22.8190  -11.8840   22.5930 H   0  0  0  0  0  0  0  0  0  0  0  0
  -21.5310  -13.0630   22.6090 H   0  0  0  0  0  0  0  0  0  0  0  0
  -25.6100  -15.2200   20.3870 N   0  0  0  0  0  0  0  0  0  0  0  0
  -24.8360  -15.8530   20.5520 H   0  0  0  0  0  0  0  0  0  0  0  0
  -26.3060  -15.6260   19.7790 H   0  0  0  0  0  0  0  0  0  0  0  0
  -28.6040  -25.3790   22.0640 C   0  0  0  0  0  1  0  0  0  0  0  0
  -28.2260  -25.1920   20.5820 C   0  0  0  0  0  3  0  0  0  0  0  0
  -28.3980  -26.5180   19.9520 O   0  0  0  0  0  0  0  0  0  0  0  0
  -24.4730  -31.7570   23.0020 C   0  0  0  0  0  0  0  0  0  0  0  0
  -27.2610  -27.3330   19.9400 C   0  0  0  0  0  0  0  0  0  0  0  0
  -23.3220  -30.3180   21.3580 C   0  0  0  0  0  3  0  0  0  0  0  0
  -24.8360  -28.8320   19.9340 C   0  0  0  0  0  0  0  0  0  0  0  0
  -25.8460  -30.7470   21.1710 C   0  0  0  0  0  2  0  0  0  0  0  0
  -25.9840  -29.3770   20.5240 C   0  0  0  0  0  0  0  0  0  0  0  0
  -27.2050  -28.6400   20.5120 C   0  0  0  0  0  3  0  0  0  0  0  0
  -26.0900  -26.8360   19.3330 C   0  0  0  0  0  3  0  0  0  0  0  0
  -24.8880  -27.5660   19.3290 C   0  0  0  0  0  3  0  0  0  0  0  0
  -23.5630  -29.6480   19.9800 C   0  0  0  0  0  2  0  0  0  0  0  0
  -24.5660  -30.9530   21.9020 N   0  0  0  0  0  0  0  0  0  0  0  0
  -23.3800  -31.9940   23.5340 O   0  0  0  0  0  0  0  0  0  0  0  0
  -22.6910  -29.2790   22.3140 C   0  0  0  0  0  0  0  0  0  0  0  0
  -21.3650  -29.0860   22.2080 N   0  0  0  0  0  0  0  0  0  0  0  0
  -23.3940  -28.6470   23.1080 O   0  0  0  0  0  0  0  0  0  0  0  0
  -20.8540  -29.6490   21.5430 H   0  0  0  0  0  0  0  0  0  0  0  0
  -18.0070  -27.8730   22.7870 C   0  0  0  0  0  0  0  0  0  0  0  0
  -20.5730  -28.1280   22.9810 C   0  0  0  0  0  3  0  0  0  0  0  0
  -20.6560  -26.7120   22.3640 C   0  0  0  0  0  2  0  0  0  0  0  0
  -19.5230  -26.4170   21.3740 C   0  0  0  0  0  2  0  0  0  0  0  0
  -18.1620  -26.5440   22.0650 C   0  0  0  0  0  2  0  0  0  0  0  0
  -19.1400  -28.6240   23.2010 C   0  0  0  0  0  0  0  0  0  0  0  0
  -18.9410  -29.8690   23.8340 C   0  0  0  0  0  3  0  0  0  0  0  0
  -17.6430  -30.3690   24.0530 C   0  0  0  0  0  3  0  0  0  0  0  0
  -16.5260  -29.6140   23.6530 C   0  0  0  0  0  3  0  0  0  0  0  0
  -16.7080  -28.3670   23.0300 C   0  0  0  0  0  3  0  0  0  0  0  0
  -25.7340  -32.4300   23.6280 C   0  0  0  0  0  3  0  0  0  0  0  0
  -25.3430  -33.7870   24.0330 N   0  0  0  0  0  0  0  0  0  0  0  0
  -25.6060  -34.8950   23.3290 C   0  0  0  0  0  0  0  0  0  0  0  0
  -26.2690  -34.8850   22.2880 O   0  0  0  0  0  0  0  0  0  0  0  0
  -24.7500  -33.8670   24.8450 H   0  0  0  0  0  0  0  0  0  0  0  0
  -23.7940  -36.6200   23.0810 C   0  0  0  0  0  1  0  0  0  0  0  0
  -25.0550  -36.2280   23.8670 C   0  0  0  0  0  3  0  0  0  0  0  0
  -27.1390  -37.1770   24.7550 C   0  0  0  0  0  1  0  0  0  0  0  0
  -26.0310  -37.3370   23.8150 N   0  0  0  0  0  0  0  0  0  0  0  0
  -25.5800  -38.2270   24.0050 H   0  0  0  0  0  0  0  0  0  0  0  0
  -26.3200  -31.6280   24.8550 C   0  0  1  0  0  0  0  0  0  0  0  0
  -25.2640  -31.2770   25.9290 C   0  0  0  0  0  1  0  0  0  0  0  0
  -26.9720  -30.3050   24.3870 C   0  0  0  0  0  1  0  0  0  0  0  0
  -27.4360  -32.4550   25.5360 C   0  0  0  0  0  1  0  0  0  0  0  0
  1  2  2  0
  2 53  1  0
  2  4  1  0
  3  1  1  0
  3  5  1  0
  5 11  1  0
  5  4  1  0
  6  3  2  0
  7  8  2  0
  7 11  1  0
  8 12  1  0
  9 10  1  0
 10 13  1  0
 11  9  2  0
 12 22  1  0
 12 10  2  0
 14 22  1  0
 15 20  1  0
 16 17  1  0
 16 15  1  0
 18 17  1  0
 18 27  1  0
 18 19  1  0
 20 14  1  0
 20 19  1  0
 21 14  2  0
 22 23  1  0
 24 25  2  0
 25 44  1  0
 26 29  1  0
 26 25  1  0
 27 28  1  0
 27 24  1  0
 28 26  2  0
 29 30  1  0
 30 31  2  0
 32 35  1  0
 32 31  1  0
 33 32  2  0
 34 33  1  0
 34 29  2  0
 35 36  1  0
 36 37  1  0
 37 38  2  0
 39 38  1  0
 39 43  1  0
 40 39  2  0
 41 36  2  0
 41 40  1  0
 42 41  1  0
 44 45  1  0
 45 47  1  0
 45 48  1  0
 46 44  2  0
 49 24  1  0
 49 50  1  0
 51 49  1  0
 53 52  1  0
 54 53  1  0
 55 66  2  0
 56 54  1  0
 56 61  1  0
 57 65  1  0
 57 67  1  0
 58 64  1  0
 58 60  1  0
 59 65  1  0
 60 59  1  0
 61 60  2  0
 62 56  2  0
 63 62  1  0
 63 58  2  0
 64 57  1  0
 65 55  1  0
 67 69  2  0
 68 67  1  0
 70 68  1  0
 71 80  2  0
 71 76  1  0
 72 68  1  0
 72 76  1  0
 73 72  1  0
 74 75  1  0
 74 73  1  0
 75 71  1  0
 76 77  2  0
 77 78  1  0
 79 78  2  0
 80 79  1  0
 81 55  1  0
 81 82  1  0
 81 91  1  0
 82 85  1  0
 83 87  1  0
 83 82  1  0
 84 83  2  0
 87 86  1  0
 89 87  1  0
 89 90  1  0
 89 88  1  0
 91 94  1  1
 91 92  1  0
 93 91  1  0
M  ISO  4  14 100  22 100  53 101  54 101
M  END
>  <TORSDO>  (93) 
F 18

>  <SCORE>  (93) 
-12.221

>  <name>  (93) 
92

>  <ligand_id>  (93) 
92

>  <original_smiles>  (93) 
[H]C1=C(C([H])(Oc2c([H])c([H])c3c(c2[H])C([H])([H])N(C(=O)C([H])(N([H])C(=O)C([H])(N([H])C([H])([H])[H])C([H])([H])[H])C(C([H])([H])[H])(C([H])([H])[H])C([H])([H])[H])C([H])(C(=O)N([H])C2([H])c4c([H])c([H])c([H])c([H])c4C([H])([H])C([H])([H])C2([H])[H])C3([H])[H])C([H])([H])[H])C([H])([H])N(c2c([H])c([H])c(N([H])C(=O)N3C([H])([H])C([H])([H])C([H])([H])C([H])(n4nc(-c5c([H])c([H])c(Oc6c([H])c([H])c(F)c([H])c6F)c([H])c5[H])c(C(=O)N([H])[H])c4N([H])[H])C3([H])[H])c(C([H])([H])[H])c2[H])C1=O

>  <smiles>  (93) 
[H]C1=C(C([H])(Oc2c([H])c([H])c3c(c2[H])C([H])([H])N(C(=O)C([H])(N([H])C(=O)C([H])(N([H])C([H])([H])[H])C([H])([H])[H])C(C([H])([H])[H])(C([H])([H])[H])C([H])([H])[H])C([H])(C(=O)N([H])C2([H])c4c([H])c([H])c([H])c([H])c4C([H])([H])C([H])([H])C2([H])[H])C3([H])[H])C([H])([H])[H])C([H])([H])N(c2c([H])c([H])c(N([H])C(=O)N3C([H])([H])C([H])([H])C([H])([H])C([H])(n4nc(-c5c([H])c([H])c(Oc6c([H])c([H])c(F)c([H])c6F)c([H])c5[H])c(C(=O)N([H])[H])c4N([H])[H])C3([H])[H])c(C([H])([H])[H])c2[H])C1=O

$$$$
93:0:0
     RDKit          3D

104114  0  0  1  0  0  0  0  0999 V2000
  -30.4530  -19.7410   21.0730 C   0  0  0  0  0  3  0  0  0  0  0  0
  -29.0830  -18.1740   19.8230 C   0  0  0  0  0  3  0  0  0  0  0  0
  -30.2020  -18.4040   20.6460 C   0  0  0  0  0  0  0  0  0  0  0  0
  -28.4280  -20.5400   19.9430 C   0  0  0  0  0  0  0  0  0  0  0  0
  -29.6040  -20.8300   20.7060 C   0  0  0  0  0  0  0  0  0  0  0  0
  -28.2030  -19.2130   19.4670 C   0  0  0  0  0  0  0  0  0  0  0  0
  -27.4000  -21.6370   19.6560 C   0  0  0  0  0  1  0  0  0  0  0  0
  -31.4910  -14.8940   20.5410 C   0  0  0  0  0  0  0  0  0  0  0  0
  -31.1690  -12.7710   19.3240 C   0  0  0  0  0  2  0  0  0  0  0  0
  -30.2210  -13.0210   18.1340 C   0  0  0  0  0  2  0  0  0  0  0  0
  -28.7550  -12.8390   18.5720 C   0  0  0  0  0  2  0  0  0  0  0  0
  -28.4170  -13.6120   19.8740 C   0  0  0  0  0  3  0  0  0  0  0  0
  -29.4920  -13.3960   20.9630 C   0  0  0  0  0  2  0  0  0  0  0  0
  -30.7980  -13.7300   20.3780 N   0  0  0  0  0  0  0  0  0  0  0  0
  -32.6720  -14.9780   20.2000 O   0  0  0  0  0  0  0  0  0  0  0  0
  -31.1890  -17.2790   20.9230 C   0  0  0  0  0  0  0  0  0  0  0  0
  -30.7470  -15.9940   20.8300 N   0  0  0  0  0  0  0  0  0  0  0  0
  -32.3500  -17.5830   21.2220 O   0  0  0  0  0  0  0  0  0  0  0  0
  -29.7510  -15.8640   20.8410 H   0  0  0  0  0  0  0  0  0  0  0  0
  -26.0250  -14.1420   20.6450 C   0  0  0  0  0  0  0  0  0  0  0  0
  -24.9690  -13.3400   20.9800 C   0  0  0  0  0  0  0  0  0  0  0  0
  -25.4490  -11.9980   20.8790 C   0  0  0  0  0  0  0  0  0  0  0  0
  -27.0770  -13.2900   20.3570 N   0  0  0  0  0  0  0  0  0  0  0  0
  -26.7370  -11.9910   20.5600 N   0  0  0  0  0  0  0  0  0  0  0  0
  -24.7390  -10.7190   21.0130 C   0  0  0  0  0  0  0  0  0  0  0  0
  -25.0820   -9.7860   22.0160 C   0  0  0  0  0  3  0  0  0  0  0  0
  -24.3740   -8.5710   22.1370 C   0  0  0  0  0  3  0  0  0  0  0  0
  -23.3080   -8.2820   21.2520 C   0  0  0  0  0  0  0  0  0  0  0  0
  -22.9860   -9.2030   20.2390 C   0  0  0  0  0  3  0  0  0  0  0  0
  -23.6950  -10.4090   20.1180 C   0  0  0  0  0  3  0  0  0  0  0  0
  -22.5820   -7.1150   21.2770 O   0  0  0  0  0  0  0  0  0  0  0  0
  -22.2580   -6.4950   22.4560 C   0  0  0  0  0  0  0  0  0  0  0  0
  -21.4600   -7.1250   23.4350 C   0  0  0  0  0  3  0  0  0  0  0  0
  -21.0940   -6.4250   24.6030 C   0  0  0  0  0  3  0  0  0  0  0  0
  -21.5160   -5.0960   24.7880 C   0  0  0  0  0  0  0  0  0  0  0  0
  -22.3080   -4.4640   23.8130 C   0  0  0  0  0  3  0  0  0  0  0  0
  -22.6750   -5.1620   22.6480 C   0  0  0  0  0  0  0  0  0  0  0  0
  -23.4200   -4.5430   21.7010 F   0  0  0  0  0  0  0  0  0  0  0  0
  -21.1590   -4.4200   25.9050 F   0  0  0  0  0  0  0  0  0  0  0  0
  -23.5680  -13.7880   21.2800 C   0  0  0  0  0  0  0  0  0  0  0  0
  -22.8770  -13.0800   22.1650 N   0  0  0  0  0  0  0  0  0  0  0  0
  -23.0960  -14.8000   20.7640 O   0  0  0  0  0  0  0  0  0  0  0  0
  -23.2730  -12.2600   22.6010 H   0  0  0  0  0  0  0  0  0  0  0  0
  -21.9390  -13.3610   22.4120 H   0  0  0  0  0  0  0  0  0  0  0  0
  -26.1690  -15.5210   20.5430 N   0  0  0  0  0  0  0  0  0  0  0  0
  -25.3810  -16.1390   20.6960 H   0  0  0  0  0  0  0  0  0  0  0  0
  -26.9770  -15.9960   20.1690 H   0  0  0  0  0  0  0  0  0  0  0  0
  -30.0280  -23.2830   20.3270 C   0  0  0  0  0  0  0  0  0  0  0  0
  -30.6870  -24.0270   22.4750 C   0  0  0  0  0  2  0  0  0  0  0  0
  -30.2660  -22.5380   22.4970 C   0  0  0  0  0  2  0  0  0  0  0  0
  -30.2170  -24.6050   21.1190 C   0  0  1  0  0  0  0  0  0  0  0  0
  -31.3290  -25.4530   20.4630 C   0  0  0  0  0  1  0  0  0  0  0  0
  -29.9420  -22.1850   21.1180 N   0  0  0  0  0  0  0  0  0  0  0  0
  -30.0040  -23.2710   19.0920 O   0  0  0  0  0  0  0  0  0  0  0  0
  -28.0650  -25.1970   22.4720 C   0  0  0  0  0  1  0  0  0  0  0  0
  -28.8720  -25.4440   21.1640 C   0  0  0  0  0  3  0  0  0  0  0  0
  -29.0240  -26.8820   20.9190 O   0  0  0  0  0  0  0  0  0  0  0  0
  -24.9700  -32.1010   23.6320 C   0  0  0  0  0  0  0  0  0  0  0  0
  -27.8730  -27.6530   20.7570 C   0  0  0  0  0  0  0  0  0  0  0  0
  -23.8920  -30.6560   21.9450 C   0  0  0  0  0  3  0  0  0  0  0  0
  -25.4580  -29.1530   20.6060 C   0  0  0  0  0  0  0  0  0  0  0  0
  -26.4220  -31.0640   21.8860 C   0  0  0  0  0  2  0  0  0  0  0  0
  -26.5750  -29.6900   21.2600 C   0  0  0  0  0  0  0  0  0  0  0  0
  -27.7840  -28.9490   21.3320 C   0  0  0  0  0  3  0  0  0  0  0  0
  -26.7410  -27.1670   20.0570 C   0  0  0  0  0  3  0  0  0  0  0  0
  -25.5410  -27.8940   19.9970 C   0  0  0  0  0  3  0  0  0  0  0  0
  -24.1930  -29.9790   20.5830 C   0  0  0  0  0  2  0  0  0  0  0  0
  -25.1100  -31.2900   22.5460 N   0  0  0  0  0  0  0  0  0  0  0  0
  -23.8540  -32.3510   24.1090 O   0  0  0  0  0  0  0  0  0  0  0  0
  -23.2170  -29.6230   22.8780 C   0  0  0  0  0  0  0  0  0  0  0  0
  -21.9330  -29.3240   22.6150 N   0  0  0  0  0  0  0  0  0  0  0  0
  -23.8480  -29.0940   23.7970 O   0  0  0  0  0  0  0  0  0  0  0  0
  -21.4820  -29.8060   21.8490 H   0  0  0  0  0  0  0  0  0  0  0  0
  -18.5980  -27.9570   22.8720 C   0  0  0  0  0  0  0  0  0  0  0  0
  -21.1090  -28.3570   23.3400 C   0  0  0  0  0  3  0  0  0  0  0  0
  -21.3310  -26.9220   22.8050 C   0  0  0  0  0  2  0  0  0  0  0  0
  -20.3320  -26.5250   21.7140 C   0  0  0  0  0  2  0  0  0  0  0  0
  -18.8970  -26.6070   22.2410 C   0  0  0  0  0  2  0  0  0  0  0  0
  -19.6370  -28.7850   23.3730 C   0  0  0  0  0  0  0  0  0  0  0  0
  -19.3050  -30.0440   23.9170 C   0  0  0  0  0  3  0  0  0  0  0  0
  -17.9650  -30.4770   23.9690 C   0  0  0  0  0  3  0  0  0  0  0  0
  -16.9400  -29.6460   23.4860 C   0  0  0  0  0  3  0  0  0  0  0  0
  -17.2560  -28.3880   22.9430 C   0  0  0  0  0  3  0  0  0  0  0  0
  -26.2050  -32.7730   24.3120 C   0  0  0  0  0  3  0  0  0  0  0  0
  -26.6370  -32.0630   25.6530 C   0  0  1  0  0  0  0  0  0  0  0  0
  -25.4510  -31.7180   26.5830 C   0  0  0  0  0  1  0  0  0  0  0  0
  -27.4010  -30.7510   25.3560 C   0  0  0  0  0  1  0  0  0  0  0  0
  -27.6120  -32.9730   26.4370 C   0  0  0  0  0  1  0  0  0  0  0  0
  -25.8620  -34.1800   24.5570 N   0  0  0  0  0  0  0  0  0  0  0  0
  -26.1190  -35.1840   23.7070 C   0  0  0  0  0  0  0  0  0  0  0  0
  -26.7430  -35.0270   22.6540 O   0  0  0  0  0  0  0  0  0  0  0  0
  -25.2990  -34.3740   25.3720 H   0  0  0  0  0  0  0  0  0  0  0  0
  -24.2800  -36.8630   23.3560 C   0  0  0  0  0  1  0  0  0  0  0  0
  -25.6030  -36.5850   24.0880 C   0  0  0  0  0  3  0  0  0  0  0  0
  -27.7420  -37.6440   24.6710 C   0  0  0  0  0  1  0  0  0  0  0  0
  -26.5700  -37.6680   23.7990 N   0  0  0  0  0  0  0  0  0  0  0  0
  -26.1260  -38.5790   23.8920 H   0  0  0  0  0  0  0  0  0  0  0  0
  -24.9240  -19.5380   18.2380 C   0  0  0  0  0  0  0  0  0  0  0  0
  -25.7070  -19.9750   17.1150 C   0  0  0  0  0  0  0  0  0  0  0  0
  -23.6190  -19.7820   18.4420 C   0  0  0  0  0  1  0  0  0  0  0  0
  -25.2740  -20.7210   16.0850 C   0  0  0  0  0  1  0  0  0  0  0  0
  -25.8080  -18.7730   19.1890 C   0  0  0  0  0  2  0  0  0  0  0  0
  -27.1250  -19.4960   17.2880 C   0  0  0  0  0  2  0  0  0  0  0  0
  -27.1530  -18.8470   18.6050 N   0  0  0  0  0  0  0  0  0  0  0  0
  2  3  1  0
  3 16  1  0
  3  1  2  0
  4  5  2  0
  5  1  1  0
  5 53  1  0
  6  2  2  0
  6  4  1  0
  7  4  1  0
  8 17  1  0
  9 14  1  0
 10 11  1  0
 10  9  1  0
 12 11  1  0
 12 23  1  0
 12 13  1  0
 14  8  1  0
 14 13  1  0
 15  8  2  0
 16 18  2  0
 17 19  1  0
 17 16  1  0
 20 21  2  0
 21 40  1  0
 22 21  1  0
 22 25  1  0
 23 24  1  0
 23 20  1  0
 24 22  2  0
 25 26  1  0
 26 27  2  0
 28 31  1  0
 28 27  1  0
 29 28  2  0
 30 29  1  0
 30 25  2  0
 31 32  1  0
 32 37  2  0
 32 33  1  0
 33 34  2  0
 34 35  1  0
 35 39  1  0
 36 35  2  0
 37 36  1  0
 38 37  1  0
 40 41  1  0
 41 44  1  0
 41 43  1  0
 42 40  2  0
 45 20  1  0
 45 46  1  0
 47 45  1  0
 48 53  1  0
 48 51  1  0
 49 50  1  0
 51 52  1  6
 51 56  1  0
 51 49  1  0
 53 50  1  0
 54 48  2  0
 56 55  1  0
 57 56  1  0
 58 69  2  0
 59 57  1  0
 59 64  1  0
 60 68  1  0
 60 70  1  0
 61 63  1  0
 62 68  1  0
 63 64  2  0
 63 62  1  0
 65 59  2  0
 66 65  1  0
 66 61  2  0
 67 61  1  0
 67 60  1  0
 68 58  1  0
 70 72  2  0
 71 70  1  0
 73 71  1  0
 74 83  2  0
 74 79  1  0
 75 71  1  0
 75 79  1  0
 76 75  1  0
 77 78  1  0
 77 76  1  0
 78 74  1  0
 79 80  2  0
 80 81  1  0
 82 81  2  0
 83 82  1  0
 84 58  1  0
 84 89  1  0
 84 85  1  0
 85 88  1  1
 85 86  1  0
 87 85  1  0
 89 92  1  0
 90 94  1  0
 90 89  1  0
 91 90  2  0
 94 93  1  0
 96 97  1  0
 96 94  1  0
 96 95  1  0
 98100  1  0
 98102  1  0
 99103  1  0
 99 98  2  0
101 99  1  0
103104  1  0
104102  1  0
104  6  1  0
M  ISO  4   8 100  17 100  56 101  57 101
M  END
>  <TORSDO>  (94) 
F 19

>  <SCORE>  (94) 
-7.570

>  <name>  (94) 
93

>  <ligand_id>  (94) 
93

>  <original_smiles>  (94) 
[H]C([H])=C1C(=C([H])[H])C([H])([H])N(c2c([H])c(C(=O)N([H])C(=O)N3C([H])([H])C([H])([H])C([H])([H])C([H])(n4nc(-c5c([H])c([H])c(Oc6c([H])c([H])c(F)c([H])c6F)c([H])c5[H])c(C(=O)N([H])[H])c4N([H])[H])C3([H])[H])c([H])c(N3C(=O)C(C([H])([H])[H])(C([H])(Oc4c([H])c([H])c5c(c4[H])C([H])([H])N(C(=O)C([H])(N([H])C(=O)C([H])(N([H])C([H])([H])[H])C([H])([H])[H])C(C([H])([H])[H])(C([H])([H])[H])C([H])([H])[H])C([H])(C(=O)N([H])C4([H])c6c([H])c([H])c([H])c([H])c6C([H])([H])C([H])([H])C4([H])[H])C5([H])[H])C([H])([H])[H])C([H])([H])C3([H])[H])c2C([H])([H])[H])C1([H])[H]

>  <smiles>  (94) 
[H]C([H])=C1C(=C([H])[H])C([H])([H])N(c2c([H])c(C(=O)N([H])C(=O)N3C([H])([H])C([H])([H])C([H])([H])C([H])(n4nc(-c5c([H])c([H])c(Oc6c([H])c([H])c(F)c([H])c6F)c([H])c5[H])c(C(=O)N([H])[H])c4N([H])[H])C3([H])[H])c([H])c(N3C(=O)C(C([H])([H])[H])(C([H])(Oc4c([H])c([H])c5c(c4[H])C([H])([H])N(C(=O)C([H])(N([H])C(=O)C([H])(N([H])C([H])([H])[H])C([H])([H])[H])C(C([H])([H])[H])(C([H])([H])[H])C([H])([H])[H])C([H])(C(=O)N([H])C4([H])c6c([H])c([H])c([H])c([H])c6C([H])([H])C([H])([H])C4([H])[H])C5([H])[H])C([H])([H])[H])C([H])([H])C3([H])[H])c2C([H])([H])[H])C1([H])[H]

$$$$
94:0:0
     RDKit          3D

 98107  0  0  1  0  0  0  0  0999 V2000
  -30.3510  -18.4980   17.3280 C   0  0  0  0  0  3  0  0  0  0  0  0
  -30.5180  -17.4880   18.2940 C   0  0  0  0  0  3  0  0  0  0  0  0
  -30.2350  -19.8540   17.6940 C   0  0  0  0  0  3  0  0  0  0  0  0
  -30.4990  -19.2130   20.0130 C   0  0  0  0  0  3  0  0  0  0  0  0
  -30.5880  -17.7970   19.6710 C   0  0  0  0  0  0  0  0  0  0  0  0
  -30.2970  -20.2630   19.0460 C   0  0  0  0  0  0  0  0  0  0  0  0
  -29.4570  -23.8900   19.7160 C   0  0  0  0  0  0  0  0  0  0  0  0
  -29.2170  -22.4340   19.9040 C   0  0  0  0  0  0  0  0  0  0  0  0
  -28.5800  -24.8850   20.0920 C   0  0  0  0  0  3  0  0  0  0  0  0
  -31.1740  -22.6190   18.6520 C   0  0  0  0  0  2  0  0  0  0  0  0
  -30.7820  -24.0650   19.0230 C   0  0  0  0  0  3  0  0  0  0  0  0
  -30.7580  -25.0300   17.8240 C   0  0  0  0  0  1  0  0  0  0  0  0
  -30.2340  -21.7120   19.3280 N   0  0  0  0  0  0  0  0  0  0  0  0
  -28.2600  -21.9280   20.4990 O   0  0  0  0  0  0  0  0  0  0  0  0
  -28.7140  -26.2850   19.9200 O   0  0  0  0  0  0  0  0  0  0  0  0
  -24.6350  -31.4190   22.9930 C   0  0  0  0  0  0  0  0  0  0  0  0
  -27.5590  -27.0840   19.8940 C   0  0  0  0  0  0  0  0  0  0  0  0
  -23.5470  -30.0030   21.2860 C   0  0  0  0  0  3  0  0  0  0  0  0
  -25.1130  -28.5650   19.8630 C   0  0  0  0  0  0  0  0  0  0  0  0
  -26.0710  -30.4530   21.1830 C   0  0  0  0  0  2  0  0  0  0  0  0
  -26.2380  -29.0960   20.5090 C   0  0  0  0  0  0  0  0  0  0  0  0
  -27.4630  -28.3650   20.5210 C   0  0  0  0  0  3  0  0  0  0  0  0
  -26.4130  -26.6100   19.2170 C   0  0  0  0  0  3  0  0  0  0  0  0
  -25.2010  -27.3270   19.2110 C   0  0  0  0  0  3  0  0  0  0  0  0
  -23.8310  -29.3730   19.8980 C   0  0  0  0  0  2  0  0  0  0  0  0
  -24.7670  -30.6420   21.8780 N   0  0  0  0  0  0  0  0  0  0  0  0
  -23.5240  -31.6270   23.5050 O   0  0  0  0  0  0  0  0  0  0  0  0
  -22.9120  -28.9310   22.2040 C   0  0  0  0  0  0  0  0  0  0  0  0
  -21.5880  -28.7410   22.0870 N   0  0  0  0  0  0  0  0  0  0  0  0
  -23.6120  -28.2730   22.9780 O   0  0  0  0  0  0  0  0  0  0  0  0
  -21.0820  -29.3230   21.4340 H   0  0  0  0  0  0  0  0  0  0  0  0
  -18.2230  -27.5280   22.6300 C   0  0  0  0  0  0  0  0  0  0  0  0
  -20.7910  -27.7560   22.8210 C   0  0  0  0  0  3  0  0  0  0  0  0
  -20.8620  -26.3690   22.1440 C   0  0  0  0  0  2  0  0  0  0  0  0
  -19.7210  -26.1220   21.1530 C   0  0  0  0  0  2  0  0  0  0  0  0
  -18.3640  -26.2280   21.8550 C   0  0  0  0  0  2  0  0  0  0  0  0
  -19.3620  -28.2530   23.0700 C   0  0  0  0  0  0  0  0  0  0  0  0
  -19.1740  -29.4710   23.7570 C   0  0  0  0  0  3  0  0  0  0  0  0
  -17.8800  -29.9680   24.0050 C   0  0  0  0  0  3  0  0  0  0  0  0
  -16.7560  -29.2390   23.5810 C   0  0  0  0  0  3  0  0  0  0  0  0
  -16.9290  -28.0190   22.9010 C   0  0  0  0  0  3  0  0  0  0  0  0
  -25.8670  -32.0980   23.6650 C   0  0  0  0  0  3  0  0  0  0  0  0
  -26.3960  -31.3140   24.9300 C   0  0  1  0  0  0  0  0  0  0  0  0
  -25.2920  -30.9950   25.9670 C   0  0  0  0  0  1  0  0  0  0  0  0
  -27.0480  -29.9760   24.5120 C   0  0  0  0  0  1  0  0  0  0  0  0
  -27.4960  -32.1390   25.6350 C   0  0  0  0  0  1  0  0  0  0  0  0
  -25.4760  -33.4660   24.0320 N   0  0  0  0  0  0  0  0  0  0  0  0
  -25.7520  -34.5580   23.3060 C   0  0  0  0  0  0  0  0  0  0  0  0
  -26.4330  -34.5220   22.2770 O   0  0  0  0  0  0  0  0  0  0  0  0
  -24.8640  -33.5630   24.8290 H   0  0  0  0  0  0  0  0  0  0  0  0
  -23.9140  -36.2490   23.0030 C   0  0  0  0  0  1  0  0  0  0  0  0
  -25.1830  -35.9030   23.7990 C   0  0  0  0  0  3  0  0  0  0  0  0
  -27.2600  -36.9020   24.6460 C   0  0  0  0  0  1  0  0  0  0  0  0
  -26.1490  -37.0200   23.7050 N   0  0  0  0  0  0  0  0  0  0  0  0
  -25.6880  -37.9100   23.8690 H   0  0  0  0  0  0  0  0  0  0  0  0
  -30.6610  -16.6450   20.7100 C   0  0  0  0  0  0  0  0  0  0  0  0
  -31.0110  -15.3770   20.6960 N   0  0  0  0  0  0  0  0  0  0  0  0
  -31.5120  -14.5380   19.6830 C   0  0  0  0  0  0  0  0  0  0  0  0
  -30.9910  -12.4810   18.3440 C   0  0  0  0  0  2  0  0  0  0  0  0
  -29.9310  -12.8020   17.2680 C   0  0  0  0  0  2  0  0  0  0  0  0
  -28.5020  -12.6990   17.8430 C   0  0  0  0  0  2  0  0  0  0  0  0
  -28.3530  -13.4430   19.1960 C   0  0  0  0  0  3  0  0  0  0  0  0
  -29.5030  -13.0620   20.1560 C   0  0  0  0  0  2  0  0  0  0  0  0
  -30.7730  -13.3970   19.4820 N   0  0  0  0  0  0  0  0  0  0  0  0
  -32.5210  -14.7570   19.0130 O   0  0  0  0  0  0  0  0  0  0  0  0
  -26.0760  -14.1550   20.1570 C   0  0  0  0  0  0  0  0  0  0  0  0
  -25.0010  -13.4360   20.6010 C   0  0  0  0  0  0  0  0  0  0  0  0
  -25.3730  -12.0630   20.4840 C   0  0  0  0  0  0  0  0  0  0  0  0
  -27.0370  -13.2240   19.7950 N   0  0  0  0  0  0  0  0  0  0  0  0
  -26.6220  -11.9560   20.0470 N   0  0  0  0  0  0  0  0  0  0  0  0
  -24.5890  -10.8420   20.7080 C   0  0  0  0  0  0  0  0  0  0  0  0
  -24.9860   -9.8770   21.6590 C   0  0  0  0  0  3  0  0  0  0  0  0
  -24.2090   -8.7170   21.8690 C   0  0  0  0  0  3  0  0  0  0  0  0
  -23.0210   -8.5150   21.1260 C   0  0  0  0  0  0  0  0  0  0  0  0
  -22.6420   -9.4690   20.1640 C   0  0  0  0  0  3  0  0  0  0  0  0
  -23.4200  -10.6200   19.9540 C   0  0  0  0  0  3  0  0  0  0  0  0
  -22.2170   -7.4070   21.2430 O   0  0  0  0  0  0  0  0  0  0  0  0
  -22.0000   -6.8010   22.4550 C   0  0  0  0  0  0  0  0  0  0  0  0
  -21.4630   -7.5040   23.5550 C   0  0  0  0  0  3  0  0  0  0  0  0
  -21.1900   -6.8250   24.7590 C   0  0  0  0  0  3  0  0  0  0  0  0
  -21.4430   -5.4440   24.8640 C   0  0  0  0  0  0  0  0  0  0  0  0
  -21.9730   -4.7400   23.7660 C   0  0  0  0  0  3  0  0  0  0  0  0
  -22.2460   -5.4180   22.5650 C   0  0  0  0  0  0  0  0  0  0  0  0
  -22.7360   -4.7300   21.5040 F   0  0  0  0  0  0  0  0  0  0  0  0
  -21.1740   -4.7890   26.0170 F   0  0  0  0  0  0  0  0  0  0  0  0
  -23.6690  -13.9880   21.0200 C   0  0  0  0  0  0  0  0  0  0  0  0
  -22.9990  -13.3300   21.9590 N   0  0  0  0  0  0  0  0  0  0  0  0
  -23.2340  -15.0370   20.5490 O   0  0  0  0  0  0  0  0  0  0  0  0
  -23.3650  -12.4820   22.3660 H   0  0  0  0  0  0  0  0  0  0  0  0
  -22.1060  -13.6810   22.2780 H   0  0  0  0  0  0  0  0  0  0  0  0
  -26.3070  -15.5190   20.0160 N   0  0  0  0  0  0  0  0  0  0  0  0
  -25.6240  -16.2180   20.2850 H   0  0  0  0  0  0  0  0  0  0  0  0
  -27.1610  -15.9220   19.6560 H   0  0  0  0  0  0  0  0  0  0  0  0
  -30.1010  -17.0730   22.0660 C   0  0  0  0  0  0  0  0  0  0  0  0
  -30.7610  -16.8620   23.0940 O   0  0  0  0  0  0  0  0  0  0  0  0
  -28.7150  -17.6930   22.1950 C   0  0  0  0  0  3  0  0  0  0  0  0
  -27.8470  -17.9530   21.3040 N   0  0  0  0  0  0  0  0  0  0  0  0
  -28.1570  -17.7160   20.3680 H   0  0  0  0  0  0  0  0  0  0  0  0
  1  3  2  0
  1  2  1  0
  2  5  2  0
  3  6  1  0
  5  4  1  0
  5 56  1  0
  6 13  1  0
  6  4  2  0
  7  8  1  0
  7  9  2  0
  8 14  2  0
 10 11  1  0
 10 13  1  0
 11 12  1  0
 11  7  1  0
 13  8  1  0
 15  9  1  0
 16 27  2  0
 17 15  1  0
 17 22  1  0
 18 26  1  0
 18 28  1  0
 19 25  1  0
 19 21  1  0
 20 26  1  0
 21 22  2  0
 21 20  1  0
 23 17  2  0
 24 23  1  0
 24 19  2  0
 25 18  1  0
 26 16  1  0
 28 30  2  0
 29 28  1  0
 31 29  1  0
 32 41  2  0
 32 37  1  0
 33 29  1  0
 33 37  1  0
 34 33  1  0
 35 36  1  0
 35 34  1  0
 36 32  1  0
 37 38  2  0
 38 39  1  0
 40 39  2  0
 41 40  1  0
 42 16  1  0
 42 47  1  0
 42 43  1  0
 43 46  1  1
 43 44  1  0
 45 43  1  0
 47 50  1  0
 48 52  1  0
 48 47  1  0
 49 48  2  0
 52 51  1  0
 54 52  1  0
 54 55  1  0
 54 53  1  0
 56 94  1  0
 57 56  2  0
 58 57  1  0
 59 64  1  0
 60 61  1  0
 60 59  1  0
 62 61  1  0
 62 69  1  0
 62 63  1  0
 64 58  1  0
 64 63  1  0
 65 58  2  0
 66 67  2  0
 67 86  1  0
 68 67  1  0
 68 71  1  0
 69 70  1  0
 69 66  1  0
 70 68  2  0
 71 72  1  0
 72 73  2  0
 74 77  1  0
 74 73  1  0
 75 74  2  0
 76 75  1  0
 76 71  2  0
 77 78  1  0
 78 83  2  0
 78 79  1  0
 79 80  2  0
 80 81  1  0
 81 85  1  0
 82 81  2  0
 83 82  1  0
 84 83  1  0
 86 87  1  0
 87 90  1  0
 87 89  1  0
 88 86  2  0
 91 66  1  0
 91 92  1  0
 93 91  1  0
 94 96  1  0
 94 95  2  0
 97 96  2  0
 98 97  1  0
M  ISO  4   9 101  15 101  57 100  58 100
M  END
>  <TORSDO>  (95) 
F 20

>  <SCORE>  (95) 
-8.452

>  <name>  (95) 
94

>  <ligand_id>  (95) 
94

>  <original_smiles>  (95) 
[H]N=C([H])C(=O)C(=NC(=O)N1C([H])([H])C([H])([H])C([H])([H])C([H])(n2nc(-c3c([H])c([H])c(Oc4c([H])c([H])c(F)c([H])c4F)c([H])c3[H])c(C(=O)N([H])[H])c2N([H])[H])C1([H])[H])c1c([H])c([H])c([H])c(N2C(=O)C(=C([H])Oc3c([H])c([H])c4c(c3[H])C([H])([H])N(C(=O)C([H])(N([H])C(=O)C([H])(N([H])C([H])([H])[H])C([H])([H])[H])C(C([H])([H])[H])(C([H])([H])[H])C([H])([H])[H])C([H])(C(=O)N([H])C3([H])c5c([H])c([H])c([H])c([H])c5C([H])([H])C([H])([H])C3([H])[H])C4([H])[H])C([H])(C([H])([H])[H])C2([H])[H])c1[H]

>  <smiles>  (95) 
[H]N=C([H])C(=O)C(=NC(=O)N1C([H])([H])C([H])([H])C([H])([H])C([H])(n2nc(-c3c([H])c([H])c(Oc4c([H])c([H])c(F)c([H])c4F)c([H])c3[H])c(C(=O)N([H])[H])c2N([H])[H])C1([H])[H])c1c([H])c([H])c([H])c(N2C(=O)C(=C([H])Oc3c([H])c([H])c4c(c3[H])C([H])([H])N(C(=O)C([H])(N([H])C(=O)C([H])(N([H])C([H])([H])[H])C([H])([H])[H])C(C([H])([H])[H])(C([H])([H])[H])C([H])([H])[H])C([H])(C(=O)N([H])C3([H])c5c([H])c([H])c([H])c([H])c5C([H])([H])C([H])([H])C3([H])[H])C4([H])[H])C([H])(C([H])([H])[H])C2([H])[H])c1[H]

$$$$
95:0:0
     RDKit          3D

 97106  0  0  1  0  0  0  0  0999 V2000
  -29.9870  -22.8210   19.9910 C   0  0  0  0  0  0  0  0  0  0  0  0
  -30.9430  -22.4880   18.9670 C   0  0  0  0  0  0  0  0  0  0  0  0
  -29.4300  -21.5370   20.4580 C   0  0  0  0  0  0  0  0  0  0  0  0
  -31.5040  -23.3350   18.0840 C   0  0  0  0  0  2  0  0  0  0  0  0
  -29.7060  -24.1040   20.3710 C   0  0  0  0  0  3  0  0  0  0  0  0
  -31.1700  -21.0140   18.9610 C   0  0  0  0  0  2  0  0  0  0  0  0
  -30.1090  -20.5240   19.8410 N   0  0  0  0  0  0  0  0  0  0  0  0
  -28.4830  -21.3510   21.2280 O   0  0  0  0  0  0  0  0  0  0  0  0
  -28.5900  -17.6810   17.9850 C   0  0  0  0  0  3  0  0  0  0  0  0
  -28.9330  -18.9780   18.3910 C   0  0  0  0  0  3  0  0  0  0  0  0
  -28.9200  -16.5820   18.7950 C   0  0  0  0  0  3  0  0  0  0  0  0
  -29.9260  -18.0810   20.4430 C   0  0  0  0  0  3  0  0  0  0  0  0
  -29.6220  -19.1950   19.6070 C   0  0  0  0  0  0  0  0  0  0  0  0
  -29.5850  -16.7580   20.0320 C   0  0  0  0  0  0  0  0  0  0  0  0
  -30.5870  -14.5580   20.4160 C   0  0  0  0  0  0  0  0  0  0  0  0
  -30.3280  -12.3900   19.2850 C   0  0  0  0  0  2  0  0  0  0  0  0
  -29.3570  -12.5870   18.1000 C   0  0  0  0  0  2  0  0  0  0  0  0
  -27.8910  -12.4240   18.5540 C   0  0  0  0  0  2  0  0  0  0  0  0
  -27.5660  -13.2220   19.8470 C   0  0  0  0  0  3  0  0  0  0  0  0
  -28.6520  -13.0140   20.9290 C   0  0  0  0  0  2  0  0  0  0  0  0
  -29.9540  -13.3540   20.3320 N   0  0  0  0  0  0  0  0  0  0  0  0
  -31.7210  -14.7480   19.9650 O   0  0  0  0  0  0  0  0  0  0  0  0
  -29.8340  -15.5970   20.8390 N   0  0  0  0  0  0  0  0  0  0  0  0
  -29.0350  -15.3020   21.3770 H   0  0  0  0  0  0  0  0  0  0  0  0
  -25.1700  -13.7880   20.5860 C   0  0  0  0  0  0  0  0  0  0  0  0
  -24.1170  -12.9980   20.9650 C   0  0  0  0  0  0  0  0  0  0  0  0
  -24.5980  -11.6540   20.9140 C   0  0  0  0  0  0  0  0  0  0  0  0
  -26.2260  -12.9240   20.3420 N   0  0  0  0  0  0  0  0  0  0  0  0
  -25.8860  -11.6360   20.5910 N   0  0  0  0  0  0  0  0  0  0  0  0
  -23.8920  -10.3800   21.0990 C   0  0  0  0  0  0  0  0  0  0  0  0
  -24.3500   -9.4120   22.0170 C   0  0  0  0  0  3  0  0  0  0  0  0
  -23.6480   -8.2010   22.1900 C   0  0  0  0  0  3  0  0  0  0  0  0
  -22.4700   -7.9510   21.4460 C   0  0  0  0  0  0  0  0  0  0  0  0
  -22.0310   -8.9110   20.5160 C   0  0  0  0  0  3  0  0  0  0  0  0
  -22.7370  -10.1130   20.3400 C   0  0  0  0  0  3  0  0  0  0  0  0
  -21.7320   -6.7950   21.5340 O   0  0  0  0  0  0  0  0  0  0  0  0
  -21.7090   -6.0420   22.6790 C   0  0  0  0  0  0  0  0  0  0  0  0
  -21.2580   -6.5700   23.9100 C   0  0  0  0  0  3  0  0  0  0  0  0
  -21.1820   -5.7400   25.0460 C   0  0  0  0  0  3  0  0  0  0  0  0
  -21.5450   -4.3830   24.9530 C   0  0  0  0  0  0  0  0  0  0  0  0
  -21.9880   -3.8540   23.7280 C   0  0  0  0  0  3  0  0  0  0  0  0
  -22.0670   -4.6820   22.5930 C   0  0  0  0  0  0  0  0  0  0  0  0
  -22.4730   -4.1620   21.4100 F   0  0  0  0  0  0  0  0  0  0  0  0
  -21.4680   -3.5840   26.0430 F   0  0  0  0  0  0  0  0  0  0  0  0
  -22.7160  -13.4550   21.2590 C   0  0  0  0  0  0  0  0  0  0  0  0
  -22.0050  -12.7400   22.1250 N   0  0  0  0  0  0  0  0  0  0  0  0
  -22.2600  -14.4820   20.7590 O   0  0  0  0  0  0  0  0  0  0  0  0
  -22.3840  -11.9130   22.5610 H   0  0  0  0  0  0  0  0  0  0  0  0
  -21.0650  -13.0340   22.3580 H   0  0  0  0  0  0  0  0  0  0  0  0
  -25.3090  -15.1610   20.4150 N   0  0  0  0  0  0  0  0  0  0  0  0
  -24.5310  -15.8000   20.5210 H   0  0  0  0  0  0  0  0  0  0  0  0
  -26.1490  -15.6190   20.0830 H   0  0  0  0  0  0  0  0  0  0  0  0
  -28.3890  -25.8980   21.3960 C   0  0  0  0  0  3  0  0  0  0  0  0
  -28.9580  -24.6690   21.4950 C   0  0  0  0  0  0  0  0  0  0  0  0
  -30.2840  -23.5970   23.3910 C   0  0  0  0  0  1  0  0  0  0  0  0
  -28.8970  -23.9790   22.8550 C   0  0  0  0  0  2  0  0  0  0  0  0
  -28.3690  -26.7180   20.2860 O   0  0  0  0  0  0  0  0  0  0  0  0
  -24.5330  -31.9370   23.2530 C   0  0  0  0  0  0  0  0  0  0  0  0
  -27.2500  -27.5180   20.2090 C   0  0  0  0  0  0  0  0  0  0  0  0
  -23.3640  -30.5430   21.5730 C   0  0  0  0  0  3  0  0  0  0  0  0
  -24.8540  -29.0180   20.1660 C   0  0  0  0  0  0  0  0  0  0  0  0
  -25.8920  -30.9100   21.4330 C   0  0  0  0  0  2  0  0  0  0  0  0
  -25.9970  -29.5420   20.7860 C   0  0  0  0  0  0  0  0  0  0  0  0
  -27.1980  -28.7960   20.8100 C   0  0  0  0  0  3  0  0  0  0  0  0
  -26.0980  -27.0120   19.5710 C   0  0  0  0  0  3  0  0  0  0  0  0
  -24.8990  -27.7510   19.5540 C   0  0  0  0  0  3  0  0  0  0  0  0
  -23.6050  -29.8720   20.1930 C   0  0  0  0  0  2  0  0  0  0  0  0
  -24.6130  -31.1440   22.1450 N   0  0  0  0  0  0  0  0  0  0  0  0
  -23.4410  -32.2040   23.7730 O   0  0  0  0  0  0  0  0  0  0  0  0
  -22.6940  -29.5160   22.5150 C   0  0  0  0  0  0  0  0  0  0  0  0
  -21.3710  -29.3420   22.3690 N   0  0  0  0  0  0  0  0  0  0  0  0
  -23.3620  -28.8780   23.3330 O   0  0  0  0  0  0  0  0  0  0  0  0
  -20.8930  -29.9120   21.6870 H   0  0  0  0  0  0  0  0  0  0  0  0
  -17.9790  -28.1930   22.8350 C   0  0  0  0  0  0  0  0  0  0  0  0
  -20.5380  -28.4020   23.1200 C   0  0  0  0  0  3  0  0  0  0  0  0
  -20.6170  -26.9810   22.5140 C   0  0  0  0  0  2  0  0  0  0  0  0
  -19.5140  -26.6980   21.4890 C   0  0  0  0  0  2  0  0  0  0  0  0
  -18.1330  -26.8540   22.1310 C   0  0  0  0  0  2  0  0  0  0  0  0
  -19.1080  -28.9260   23.2850 C   0  0  0  0  0  0  0  0  0  0  0  0
  -18.9080  -30.1790   23.9010 C   0  0  0  0  0  3  0  0  0  0  0  0
  -17.6110  -30.7010   24.0730 C   0  0  0  0  0  3  0  0  0  0  0  0
  -16.4950  -29.9620   23.6400 C   0  0  0  0  0  3  0  0  0  0  0  0
  -16.6800  -28.7110   23.0270 C   0  0  0  0  0  3  0  0  0  0  0  0
  -25.8070  -32.5640   23.9030 C   0  0  0  0  0  3  0  0  0  0  0  0
  -26.2800  -31.8050   25.2030 C   0  0  1  0  0  0  0  0  0  0  0  0
  -25.1580  -31.6000   26.2470 C   0  0  0  0  0  1  0  0  0  0  0  0
  -26.8500  -30.4130   24.8410 C   0  0  0  0  0  1  0  0  0  0  0  0
  -27.4280  -32.5900   25.8780 C   0  0  0  0  0  1  0  0  0  0  0  0
  -25.5060  -33.9700   24.2020 N   0  0  0  0  0  0  0  0  0  0  0  0
  -25.8770  -35.0050   23.4390 C   0  0  0  0  0  0  0  0  0  0  0  0
  -26.5800  -34.8780   22.4320 O   0  0  0  0  0  0  0  0  0  0  0  0
  -24.8910  -34.1430   24.9850 H   0  0  0  0  0  0  0  0  0  0  0  0
  -24.1920  -36.8150   22.9880 C   0  0  0  0  0  1  0  0  0  0  0  0
  -25.3920  -36.4060   23.8570 C   0  0  0  0  0  3  0  0  0  0  0  0
  -27.5020  -37.2750   24.7650 C   0  0  0  0  0  1  0  0  0  0  0  0
  -26.4440  -37.4430   23.7720 N   0  0  0  0  0  0  0  0  0  0  0  0
  -26.0460  -38.3710   23.8860 H   0  0  0  0  0  0  0  0  0  0  0  0
  1  5  2  0
  1  3  1  0
  2  1  1  0
  3  8  2  0
  4  2  2  0
  5 54  1  0
  6  2  1  0
  6  7  1  0
  7  3  1  0
  9 10  2  0
  9 11  1  0
 10 13  1  0
 11 14  2  0
 13  7  1  0
 13 12  2  0
 14 12  1  0
 14 23  1  0
 15 23  1  0
 16 21  1  0
 17 18  1  0
 17 16  1  0
 19 18  1  0
 19 28  1  0
 19 20  1  0
 21 15  1  0
 21 20  1  0
 22 15  2  0
 23 24  1  0
 25 26  2  0
 26 45  1  0
 27 26  1  0
 27 30  1  0
 28 25  1  0
 28 29  1  0
 29 27  2  0
 30 31  1  0
 31 32  2  0
 33 36  1  0
 33 32  1  0
 34 33  2  0
 35 34  1  0
 35 30  2  0
 36 37  1  0
 37 38  1  0
 38 39  2  0
 40 39  1  0
 40 44  1  0
 41 40  2  0
 42 37  2  0
 42 41  1  0
 43 42  1  0
 45 46  1  0
 46 49  1  0
 46 48  1  0
 47 45  2  0
 50 51  1  0
 50 25  1  0
 52 50  1  0
 53 54  2  0
 54 56  1  0
 56 55  1  0
 57 53  1  0
 58 69  2  0
 59 57  1  0
 59 64  1  0
 60 68  1  0
 60 70  1  0
 61 67  1  0
 61 63  1  0
 62 68  1  0
 63 64  2  0
 63 62  1  0
 65 59  2  0
 66 65  1  0
 66 61  2  0
 67 60  1  0
 68 58  1  0
 70 72  2  0
 71 70  1  0
 73 71  1  0
 74 83  2  0
 74 79  1  0
 75 71  1  0
 75 79  1  0
 76 75  1  0
 77 78  1  0
 77 76  1  0
 78 74  1  0
 79 80  2  0
 80 81  1  0
 82 81  2  0
 83 82  1  0
 84 58  1  0
 84 89  1  0
 84 85  1  0
 85 88  1  1
 85 86  1  0
 87 85  1  0
 89 92  1  0
 90 94  1  0
 90 89  1  0
 91 90  2  0
 94 93  1  0
 96 94  1  0
 96 97  1  0
 96 95  1  0
M  ISO  4  15 100  23 100  53 101  57 101
M  END
>  <TORSDO>  (96) 
F 19

>  <SCORE>  (96) 
-13.937

>  <name>  (96) 
95

>  <ligand_id>  (96) 
95

>  <original_smiles>  (96) 
[H]C([H])=C1C(=C([H])C(=C([H])Oc2c([H])c([H])c3c(c2[H])C([H])([H])N(C(=O)C([H])(N([H])C(=O)C([H])(N([H])C([H])([H])[H])C([H])([H])[H])C(C([H])([H])[H])(C([H])([H])[H])C([H])([H])[H])C([H])(C(=O)N([H])C2([H])c4c([H])c([H])c([H])c([H])c4C([H])([H])C([H])([H])C2([H])[H])C3([H])[H])C([H])([H])C([H])([H])[H])C(=O)N(c2c([H])c([H])c([H])c(N([H])C(=O)N3C([H])([H])C([H])([H])C([H])([H])C([H])(n4nc(-c5c([H])c([H])c(Oc6c([H])c([H])c(F)c([H])c6F)c([H])c5[H])c(C(=O)N([H])[H])c4N([H])[H])C3([H])[H])c2[H])C1([H])[H]

>  <smiles>  (96) 
[H]C([H])=C1C(=C([H])C(=C([H])Oc2c([H])c([H])c3c(c2[H])C([H])([H])N(C(=O)C([H])(N([H])C(=O)C([H])(N([H])C([H])([H])[H])C([H])([H])[H])C(C([H])([H])[H])(C([H])([H])[H])C([H])([H])[H])C([H])(C(=O)N([H])C2([H])c4c([H])c([H])c([H])c([H])c4C([H])([H])C([H])([H])C2([H])[H])C3([H])[H])C([H])([H])C([H])([H])[H])C(=O)N(c2c([H])c([H])c([H])c(N([H])C(=O)N3C([H])([H])C([H])([H])C([H])([H])C([H])(n4nc(-c5c([H])c([H])c(Oc6c([H])c([H])c(F)c([H])c6F)c([H])c5[H])c(C(=O)N([H])[H])c4N([H])[H])C3([H])[H])c2[H])C1([H])[H]

$$$$
96:0:0
     RDKit          3D

 92100  0  0  1  0  0  0  0  0999 V2000
  -29.1100  -22.6890   20.1320 C   0  0  0  0  0  0  0  0  0  0  0  0
  -28.9950  -21.3160   20.4480 N   0  0  0  0  0  0  0  0  0  0  0  0
  -29.9400  -23.1020   19.3220 O   0  0  0  0  0  0  0  0  0  0  0  0
  -28.2240  -21.1140   21.0710 H   0  0  0  0  0  0  0  0  0  0  0  0
  -31.7990  -19.1390   19.0130 C   0  0  0  0  0  3  0  0  0  0  0  0
  -31.0050  -20.2410   19.3780 C   0  0  0  0  0  3  0  0  0  0  0  0
  -31.4330  -17.8160   19.3280 C   0  0  0  0  0  3  0  0  0  0  0  0
  -29.7870  -20.0850   20.0780 C   0  0  0  0  0  0  0  0  0  0  0  0
  -30.2510  -17.5080   20.0450 C   0  0  0  0  0  0  0  0  0  0  0  0
  -29.4380  -18.6850   20.4060 C   0  0  0  0  0  0  0  0  0  0  0  0
  -28.2860  -18.4660   21.0840 F   0  0  0  0  0  0  0  0  0  0  0  0
  -30.6180  -14.8620   20.0700 C   0  0  0  0  0  0  0  0  0  0  0  0
  -30.3430  -12.5880   19.0480 C   0  0  0  0  0  2  0  0  0  0  0  0
  -29.3590  -12.6630   17.8610 C   0  0  0  0  0  2  0  0  0  0  0  0
  -27.9130  -12.4750   18.3510 C   0  0  0  0  0  2  0  0  0  0  0  0
  -27.5870  -13.3460   19.5950 C   0  0  0  0  0  3  0  0  0  0  0  0
  -28.6950  -13.2730   20.6690 C   0  0  0  0  0  2  0  0  0  0  0  0
  -29.9570  -13.6460   20.0180 N   0  0  0  0  0  0  0  0  0  0  0  0
  -31.8020  -14.8770   19.7270 O   0  0  0  0  0  0  0  0  0  0  0  0
  -29.9160  -16.0560   20.3260 N   0  0  0  0  0  0  0  0  0  0  0  0
  -28.9850  -15.9120   20.6870 H   0  0  0  0  0  0  0  0  0  0  0  0
  -25.2350  -13.9120   20.4350 C   0  0  0  0  0  0  0  0  0  0  0  0
  -24.1870  -13.1290   20.8370 C   0  0  0  0  0  0  0  0  0  0  0  0
  -24.6520  -11.7800   20.7680 C   0  0  0  0  0  0  0  0  0  0  0  0
  -26.2690  -13.0400   20.1420 N   0  0  0  0  0  0  0  0  0  0  0  0
  -25.9300  -11.7510   20.4070 N   0  0  0  0  0  0  0  0  0  0  0  0
  -23.9350  -10.5130   20.9680 C   0  0  0  0  0  0  0  0  0  0  0  0
  -24.3890   -9.5450   21.8910 C   0  0  0  0  0  3  0  0  0  0  0  0
  -23.6700   -8.3450   22.0810 C   0  0  0  0  0  3  0  0  0  0  0  0
  -22.4840   -8.1030   21.3470 C   0  0  0  0  0  0  0  0  0  0  0  0
  -22.0500   -9.0590   20.4140 C   0  0  0  0  0  3  0  0  0  0  0  0
  -22.7680  -10.2510   20.2220 C   0  0  0  0  0  3  0  0  0  0  0  0
  -21.7370   -6.9540   21.4460 O   0  0  0  0  0  0  0  0  0  0  0  0
  -21.7000   -6.2170   22.6030 C   0  0  0  0  0  0  0  0  0  0  0  0
  -21.2700   -6.7730   23.8280 C   0  0  0  0  0  3  0  0  0  0  0  0
  -21.1810   -5.9630   24.9780 C   0  0  0  0  0  3  0  0  0  0  0  0
  -21.5100   -4.5960   24.9030 C   0  0  0  0  0  0  0  0  0  0  0  0
  -21.9330   -4.0390   23.6830 C   0  0  0  0  0  3  0  0  0  0  0  0
  -22.0240   -4.8470   22.5360 C   0  0  0  0  0  0  0  0  0  0  0  0
  -22.4120   -4.3000   21.3580 F   0  0  0  0  0  0  0  0  0  0  0  0
  -21.4180   -3.8150   26.0040 F   0  0  0  0  0  0  0  0  0  0  0  0
  -22.8020  -13.5990   21.1700 C   0  0  0  0  0  0  0  0  0  0  0  0
  -22.1090  -12.8870   22.0510 N   0  0  0  0  0  0  0  0  0  0  0  0
  -22.3440  -14.6330   20.6840 O   0  0  0  0  0  0  0  0  0  0  0  0
  -22.4940  -12.0520   22.4670 H   0  0  0  0  0  0  0  0  0  0  0  0
  -21.1800  -13.1840   22.3170 H   0  0  0  0  0  0  0  0  0  0  0  0
  -25.3870  -15.2860   20.2700 N   0  0  0  0  0  0  0  0  0  0  0  0
  -24.6210  -15.9340   20.4240 H   0  0  0  0  0  0  0  0  0  0  0  0
  -26.2150  -15.7350   19.9010 H   0  0  0  0  0  0  0  0  0  0  0  0
  -28.1460  -23.6220   20.8250 C   0  0  0  0  0  3  0  0  0  0  0  0
  -27.8390  -24.9990   20.8580 C   0  0  0  0  0  3  0  0  0  0  0  0
  -28.2460  -26.2500   20.2740 O   0  0  0  0  0  0  0  0  0  0  0  0
  -24.6200  -31.8800   23.2350 C   0  0  0  0  0  0  0  0  0  0  0  0
  -27.2300  -27.2480   20.1970 C   0  0  0  0  0  0  0  0  0  0  0  0
  -23.4280  -30.4780   21.5910 C   0  0  0  0  0  3  0  0  0  0  0  0
  -24.8900  -28.9300   20.1610 C   0  0  0  0  0  0  0  0  0  0  0  0
  -25.9760  -30.7780   21.4270 C   0  0  0  0  0  2  0  0  0  0  0  0
  -26.0620  -29.3940   20.7740 C   0  0  0  0  0  0  0  0  0  0  0  0
  -27.2380  -28.5640   20.7860 C   0  0  0  0  0  3  0  0  0  0  0  0
  -26.0410  -26.8720   19.5370 C   0  0  0  0  0  3  0  0  0  0  0  0
  -24.8870  -27.6790   19.5280 C   0  0  0  0  0  3  0  0  0  0  0  0
  -23.6530  -29.8100   20.2100 C   0  0  0  0  0  2  0  0  0  0  0  0
  -24.6940  -31.0640   22.1400 N   0  0  0  0  0  0  0  0  0  0  0  0
  -23.5330  -32.1560   23.7620 O   0  0  0  0  0  0  0  0  0  0  0  0
  -22.7580  -29.4630   22.5480 C   0  0  0  0  0  0  0  0  0  0  0  0
  -21.4290  -29.2960   22.4270 N   0  0  0  0  0  0  0  0  0  0  0  0
  -23.4340  -28.8300   23.3620 O   0  0  0  0  0  0  0  0  0  0  0  0
  -20.9420  -29.8590   21.7450 H   0  0  0  0  0  0  0  0  0  0  0  0
  -18.0450  -28.1150   22.9480 C   0  0  0  0  0  0  0  0  0  0  0  0
  -20.6080  -28.3580   23.1980 C   0  0  0  0  0  3  0  0  0  0  0  0
  -20.6970  -26.9300   22.6120 C   0  0  0  0  0  2  0  0  0  0  0  0
  -19.5850  -26.6200   21.6040 C   0  0  0  0  0  2  0  0  0  0  0  0
  -18.2090  -26.7690   22.2610 C   0  0  0  0  0  2  0  0  0  0  0  0
  -19.1720  -28.8680   23.3740 C   0  0  0  0  0  0  0  0  0  0  0  0
  -18.9650  -30.1270   23.9780 C   0  0  0  0  0  3  0  0  0  0  0  0
  -17.6630  -30.6330   24.1580 C   0  0  0  0  0  3  0  0  0  0  0  0
  -16.5510  -29.8770   23.7480 C   0  0  0  0  0  3  0  0  0  0  0  0
  -16.7440  -28.6190   23.1480 C   0  0  0  0  0  3  0  0  0  0  0  0
  -25.8980  -32.5170   23.8630 C   0  0  0  0  0  3  0  0  0  0  0  0
  -26.4030  -31.7550   25.1490 C   0  0  1  0  0  0  0  0  0  0  0  0
  -25.3020  -31.5280   26.2120 C   0  0  0  0  0  1  0  0  0  0  0  0
  -26.9860  -30.3720   24.7770 C   0  0  0  0  0  1  0  0  0  0  0  0
  -27.5510  -32.5510   25.8130 C   0  0  0  0  0  1  0  0  0  0  0  0
  -25.5850  -33.9180   24.1840 N   0  0  0  0  0  0  0  0  0  0  0  0
  -25.9180  -34.9680   23.4210 C   0  0  0  0  0  0  0  0  0  0  0  0
  -26.5920  -34.8600   22.3930 O   0  0  0  0  0  0  0  0  0  0  0  0
  -24.9890  -34.0760   24.9830 H   0  0  0  0  0  0  0  0  0  0  0  0
  -24.1970  -36.7660   23.0520 C   0  0  0  0  0  1  0  0  0  0  0  0
  -25.4320  -36.3600   23.8720 C   0  0  0  0  0  3  0  0  0  0  0  0
  -27.5620  -37.2450   24.7150 C   0  0  0  0  0  1  0  0  0  0  0  0
  -26.4680  -37.4100   23.7610 N   0  0  0  0  0  0  0  0  0  0  0  0
  -26.0640  -38.3320   23.9000 H   0  0  0  0  0  0  0  0  0  0  0  0
  1  2  1  0
  1 50  1  0
  2  4  1  0
  3  1  2  0
  5  7  2  0
  5  6  1  0
  6  8  2  0
  7  9  1  0
  8 10  1  0
  8  2  1  0
  9 20  1  0
  9 10  2  0
 10 11  1  0
 12 20  1  0
 13 18  1  0
 14 15  1  0
 14 13  1  0
 16 15  1  0
 16 25  1  0
 16 17  1  0
 18 12  1  0
 18 17  1  0
 19 12  2  0
 20 21  1  0
 22 23  2  0
 23 42  1  0
 24 23  1  0
 24 27  1  0
 25 26  1  0
 25 22  1  0
 26 24  2  0
 27 28  1  0
 28 29  2  0
 30 33  1  0
 30 29  1  0
 31 30  2  0
 32 31  1  0
 32 27  2  0
 33 34  1  0
 34 35  1  0
 35 36  2  0
 37 36  1  0
 37 41  1  0
 38 37  2  0
 39 34  2  0
 39 38  1  0
 40 39  1  0
 42 43  1  0
 43 46  1  0
 43 45  1  0
 44 42  2  0
 47 48  1  0
 47 22  1  0
 49 47  1  0
 50 51  2  0
 52 51  1  0
 53 64  2  0
 54 52  1  0
 54 59  1  0
 55 63  1  0
 55 65  1  0
 56 62  1  0
 56 58  1  0
 57 63  1  0
 58 59  2  0
 58 57  1  0
 60 54  2  0
 61 60  1  0
 61 56  2  0
 62 55  1  0
 63 53  1  0
 65 67  2  0
 66 65  1  0
 68 66  1  0
 69 78  2  0
 69 74  1  0
 70 66  1  0
 70 74  1  0
 71 70  1  0
 72 73  1  0
 72 71  1  0
 73 69  1  0
 74 75  2  0
 75 76  1  0
 77 76  2  0
 78 77  1  0
 79 53  1  0
 79 84  1  0
 79 80  1  0
 80 83  1  1
 80 81  1  0
 82 80  1  0
 84 87  1  0
 85 89  1  0
 85 84  1  0
 86 85  2  0
 89 88  1  0
 91 89  1  0
 91 92  1  0
 91 90  1  0
M  ISO  4  12 100  20 100  51 101  52 101
M  END
>  <TORSDO>  (97) 
F 18

>  <SCORE>  (97) 
-14.591

>  <name>  (97) 
96

>  <ligand_id>  (97) 
96

>  <original_smiles>  (97) 
[H]C(Oc1c([H])c([H])c2c(c1[H])C([H])([H])N(C(=O)C([H])(N([H])C(=O)C([H])(N([H])C([H])([H])[H])C([H])([H])[H])C(C([H])([H])[H])(C([H])([H])[H])C([H])([H])[H])C([H])(C(=O)N([H])C1([H])c3c([H])c([H])c([H])c([H])c3C([H])([H])C([H])([H])C1([H])[H])C2([H])[H])=C([H])C(=O)N([H])c1c([H])c([H])c([H])c(N([H])C(=O)N2C([H])([H])C([H])([H])C([H])([H])C([H])(n3nc(-c4c([H])c([H])c(Oc5c([H])c([H])c(F)c([H])c5F)c([H])c4[H])c(C(=O)N([H])[H])c3N([H])[H])C2([H])[H])c1F

>  <smiles>  (97) 
[H]C(Oc1c([H])c([H])c2c(c1[H])C([H])([H])N(C(=O)C([H])(N([H])C(=O)C([H])(N([H])C([H])([H])[H])C([H])([H])[H])C(C([H])([H])[H])(C([H])([H])[H])C([H])([H])[H])C([H])(C(=O)N([H])C1([H])c3c([H])c([H])c([H])c([H])c3C([H])([H])C([H])([H])C1([H])[H])C2([H])[H])=C([H])C(=O)N([H])c1c([H])c([H])c([H])c(N([H])C(=O)N2C([H])([H])C([H])([H])C([H])([H])C([H])(n3nc(-c4c([H])c([H])c(Oc5c([H])c([H])c(F)c([H])c5F)c([H])c4[H])c(C(=O)N([H])[H])c3N([H])[H])C2([H])[H])c1F

$$$$
